x2540-x0991
     RDKit          3D

 34 35  0  0  0  0  0  0  0  0999 V2000
    7.0350   -1.2690   21.7170 N   0  0  0  0  0  0  0  0  0  0  0  0
    6.8840   -3.5340   19.6410 C   0  0  0  0  0  0  0  0  0  0  0  0
    4.9910   -3.2280   21.2520 O   0  0  0  0  0  0  0  0  0  0  0  0
    6.9550   -3.0920   21.0780 C   0  0  1  0  0  0  0  0  0  0  0  0
    7.9880    1.7290   23.0440 N   0  0  0  0  0  0  0  0  0  0  0  0
    8.7390    1.3930   20.9160 O   0  0  0  0  0  0  0  0  0  0  0  0
    5.8470   -2.1900   21.5260 C   0  0  0  0  0  0  0  0  0  0  0  0
    6.7380    0.2090   21.5800 C   0  0  1  0  0  0  0  0  0  0  0  0
    7.9250    1.1350   21.7940 C   0  0  0  0  0  0  0  0  0  0  0  0
    8.8120    2.7340   23.3670 C   0  0  0  0  0  0  0  0  0  0  0  0
    8.8000    3.0630   24.8380 C   0  0  0  0  0  0  0  0  0  0  0  0
    8.4270    3.9140   22.7710 C   0  0  0  0  0  0  0  0  0  0  0  0
   10.2760    2.4400   22.9790 C   0  0  0  0  0  0  0  0  0  0  0  0
   11.9720   -1.3270   23.5000 C   0  0  0  0  0  0  0  0  0  0  0  0
   12.7270   -1.2080   22.3780 C   0  0  0  0  0  0  0  0  0  0  0  0
   12.2380   -0.1020   24.3820 C   0  0  0  0  0  0  0  0  0  0  0  0
   12.4670   -2.5710   24.2660 C   0  0  0  0  0  0  0  0  0  0  0  0
   10.0670   -5.7680   25.1520 N   0  0  0  0  0  0  0  0  0  0  0  0
    7.9660   -4.2340   23.2890 C   0  0  0  0  0  0  0  0  0  0  0  0
    7.7850   -5.5380   23.9470 C   0  0  0  0  0  0  0  0  0  0  0  0
    7.9060   -5.7550   26.4710 N   0  0  0  0  0  0  0  0  0  0  0  0
    8.6430   -5.6800   25.1860 C   0  0  0  0  0  0  0  0  0  0  0  0
    7.0480   -4.2740   22.0940 C   0  0  0  0  0  0  0  0  0  0  0  0
    6.3580    0.3650   17.8940 N   0  0  0  0  0  0  0  0  0  0  0  0
    5.1820    1.2720   17.7620 C   0  0  0  0  0  0  0  0  0  0  0  0
    4.5910    1.7470   18.8930 C   0  0  0  0  0  0  0  0  0  0  0  0
    5.0280    1.4410   20.1500 C   0  0  0  0  0  0  0  0  0  0  0  0
    6.1120    0.6160   20.2380 C   0  0  0  0  0  0  0  0  0  0  0  0
    6.7490    0.0950   19.1340 C   0  0  0  0  0  0  0  0  0  0  0  0
    9.6560   -1.7940   24.2200 O   0  0  0  0  0  0  0  0  0  0  0  0
    8.3240   -1.8030   23.8150 N   0  0  0  0  0  0  0  0  0  0  0  0
    8.2480   -1.4200   22.5160 C   0  0  0  0  0  0  0  0  0  0  0  0
    9.5930   -1.1790   22.1390 C   0  0  0  0  0  0  0  0  0  0  0  0
   10.4720   -1.4070   23.2090 C   0  0  0  0  0  0  0  0  0  0  0  0
  4  2  1  6
  1  7  1  0
  3  7  2  0
  4  7  1  0
  1  8  1  0
  5  9  1  0
  6  9  2  0
  8  9  1  6
 10  5  1  0
 10 11  1  0
 10 12  1  0
 10 13  1  0
 14 15  1  0
 14 16  1  0
 14 17  1  0
 19 20  1  0
 18 22  2  3
 20 22  1  0
 21 22  1  0
  4 23  1  0
 19 23  1  0
 24 25  2  0
 25 26  1  0
 26 27  2  0
  8 28  1  0
 27 28  1  0
 24 29  1  0
 28 29  2  0
 30 31  1  0
  1 32  1  0
 31 32  2  0
 32 33  1  0
 14 34  1  0
 30 34  1  0
 33 34  2  0
M  END
