x2540-x3124
     RDKit          3D

 29 30  0  0  0  0  0  0  0  0999 V2000
    6.8690   -1.4200   21.9460 N   0  0  0  0  0  0  0  0  0  0  0  0
    7.1930   -3.2840   19.3710 C   0  0  0  0  0  0  0  0  0  0  0  0
    4.7650   -3.0000   21.4010 O   0  0  0  0  0  0  0  0  0  0  0  0
    6.9490   -3.5570   20.8010 C   0  0  0  0  0  0  0  0  0  0  0  0
    7.8590    1.5770   23.0740 N   0  0  0  0  0  0  0  0  0  0  0  0
    8.6400    1.3140   20.9450 O   0  0  0  0  0  0  0  0  0  0  0  0
    6.0600   -2.5990   21.4260 C   0  0  0  0  0  0  0  0  0  0  0  0
    6.6530    0.0450   21.5470 C   0  0  1  0  0  0  0  0  0  0  0  0
    7.8170    1.0080   21.8110 C   0  0  0  0  0  0  0  0  0  0  0  0
    8.7880    2.6670   23.3830 C   0  0  0  0  0  0  0  0  0  0  0  0
    8.7610    2.9760   24.8560 C   0  0  0  0  0  0  0  0  0  0  0  0
    8.3610    3.9470   22.6360 C   0  0  0  0  0  0  0  0  0  0  0  0
   10.2360    2.3620   22.9460 C   0  0  0  0  0  0  0  0  0  0  0  0
   11.8330   -1.3630   23.5350 C   0  0  0  0  0  0  0  0  0  0  0  0
   12.5380   -0.9850   22.4420 C   0  0  0  0  0  0  0  0  0  0  0  0
   12.1050   -0.2950   24.6050 C   0  0  0  0  0  0  0  0  0  0  0  0
   12.3940   -2.7220   23.9770 C   0  0  0  0  0  0  0  0  0  0  0  0
   13.3290   -2.6440   25.1060 C   0  0  0  0  0  0  0  0  0  0  0  0
    6.3090    0.4120   17.8210 N   0  0  0  0  0  0  0  0  0  0  0  0
    5.1970    1.1770   17.7920 C   0  0  0  0  0  0  0  0  0  0  0  0
    4.5080    1.5840   18.9090 C   0  0  0  0  0  0  0  0  0  0  0  0
    4.9800    1.2000   20.1480 C   0  0  0  0  0  0  0  0  0  0  0  0
    6.1370    0.4160   20.1890 C   0  0  0  0  0  0  0  0  0  0  0  0
    6.7540    0.0480   19.0350 C   0  0  0  0  0  0  0  0  0  0  0  0
    9.6070   -2.0330   24.3250 O   0  0  0  0  0  0  0  0  0  0  0  0
    8.2340   -2.1230   24.0580 N   0  0  0  0  0  0  0  0  0  0  0  0
    8.0710   -1.5770   22.7120 C   0  0  0  0  0  0  0  0  0  0  0  0
    9.3500   -1.2230   22.3170 C   0  0  0  0  0  0  0  0  0  0  0  0
   10.3280   -1.4850   23.2860 C   0  0  0  0  0  0  0  0  0  0  0  0
  2  4  1  0
  1  7  1  0
  3  7  2  0
  4  7  1  0
  1  8  1  0
  5  9  1  0
  6  9  2  0
  8  9  1  6
 10  5  1  0
 10 11  1  0
 10 12  1  0
 10 13  1  0
 14 15  1  0
 14 16  1  0
 14 17  1  0
 17 18  1  0
 19 20  2  0
 20 21  1  0
 21 22  2  0
  8 23  1  0
 22 23  1  0
 19 24  1  0
 23 24  2  0
 25 26  1  0
  1 27  1  0
 26 27  2  0
 27 28  1  0
 14 29  1  0
 25 29  1  0
 28 29  2  0
M  END
