x2540-x0354
     RDKit          3D

 39 41  0  0  0  0  0  0  0  0999 V2000
    7.0380   -1.2810   21.5960 N   0  0  0  0  0  0  0  0  0  0  0  0
    6.7040   -3.6580   19.6870 C   0  0  0  0  0  0  0  0  0  0  0  0
    4.9390   -3.2120   21.3540 O   0  0  0  0  0  0  0  0  0  0  0  0
    6.8200   -3.1620   21.0860 C   0  0  0  0  0  0  0  0  0  0  0  0
    7.8920    1.6100   23.0430 N   0  0  0  0  0  0  0  0  0  0  0  0
    8.7280    1.5120   20.9260 O   0  0  0  0  0  0  0  0  0  0  0  0
    5.8110   -2.1790   21.5270 C   0  0  0  0  0  0  0  0  0  0  0  0
    6.7530    0.1850   21.4230 C   0  0  1  0  0  0  0  0  0  0  0  0
    7.8950    1.1330   21.7470 C   0  0  0  0  0  0  0  0  0  0  0  0
    8.7520    2.7130   23.4560 C   0  0  0  0  0  0  0  0  0  0  0  0
    8.4830    3.0250   24.9080 C   0  0  0  0  0  0  0  0  0  0  0  0
    8.4090    3.9780   22.6410 C   0  0  0  0  0  0  0  0  0  0  0  0
   10.2490    2.4210   23.2100 C   0  0  0  0  0  0  0  0  0  0  0  0
   11.8600   -1.3700   23.5910 C   0  0  0  0  0  0  0  0  0  0  0  0
   12.4990   -1.3400   22.3910 C   0  0  0  0  0  0  0  0  0  0  0  0
   12.3340   -0.0970   24.3150 C   0  0  0  0  0  0  0  0  0  0  0  0
   12.4160   -2.5840   24.3590 C   0  0  0  0  0  0  0  0  0  0  0  0
    7.4570   -2.3290   25.5250 O   0  0  0  0  0  0  0  0  0  0  0  0
    7.2340   -0.7120   27.5760 O   0  0  0  0  0  0  0  0  0  0  0  0
    8.2820   -1.4190   25.5610 C   0  0  0  0  0  0  0  0  0  0  0  0
    8.1910   -0.3510   26.5730 C   0  0  0  0  0  0  0  0  0  0  0  0
    5.5430    3.4630   31.1570 C   0  0  0  0  0  0  0  0  0  0  0  0
    6.2660    0.5450   17.7120 N   0  0  0  0  0  0  0  0  0  0  0  0
    5.2000    1.3610   17.7120 C   0  0  0  0  0  0  0  0  0  0  0  0
    4.5760    1.8180   18.8590 C   0  0  0  0  0  0  0  0  0  0  0  0
    5.0650    1.4360   20.0530 C   0  0  0  0  0  0  0  0  0  0  0  0
    6.1620    0.6070   20.1380 C   0  0  0  0  0  0  0  0  0  0  0  0
    6.7490    0.1630   18.9800 C   0  0  0  0  0  0  0  0  0  0  0  0
    9.3720   -1.4030   24.6020 C   0  0  0  0  0  0  0  0  0  0  0  0
    8.1760   -1.3850   23.8170 N   0  0  0  0  0  0  0  0  0  0  0  0
    8.2090   -1.3500   22.4680 C   0  0  0  0  0  0  0  0  0  0  0  0
    9.5670   -1.3580   22.3020 C   0  0  0  0  0  0  0  0  0  0  0  0
   10.2930   -1.3830   23.4870 C   0  0  0  0  0  0  0  0  0  0  0  0
    7.6600    0.8010   29.4360 C   0  0  0  0  0  0  0  0  0  0  0  0
    7.2220    1.8180   30.2940 C   0  0  0  0  0  0  0  0  0  0  0  0
    5.9480    2.3680   30.2200 C   0  0  0  0  0  0  0  0  0  0  0  0
    4.9860    1.8360   29.1730 C   0  0  0  0  0  0  0  0  0  0  0  0
    5.5580    0.7280   28.2820 C   0  0  0  0  0  0  0  0  0  0  0  0
    6.8560    0.2670   28.4450 C   0  0  0  0  0  0  0  0  0  0  0  0
  2  4  1  0
  1  7  1  0
  3  7  2  0
  4  7  1  0
  1  8  1  0
  5  9  1  0
  6  9  2  0
  8  9  1  6
 10  5  1  0
 10 11  1  0
 10 12  1  0
 10 13  1  0
 14 15  1  0
 14 16  1  0
 14 17  1  0
 18 20  2  0
 19 21  1  0
 20 21  1  0
 23 24  2  0
 24 25  1  0
 25 26  2  0
  8 27  1  0
 26 27  1  0
 23 28  1  0
 27 28  2  0
 20 29  1  0
 29 30  1  0
  1 31  1  0
 30 31  1  0
 31 32  2  0
 14 33  1  0
 29 33  2  0
 32 33  1  0
 34 35  2  0
 22 36  1  0
 35 36  1  0
 36 37  2  0
 37 38  1  0
 19 39  1  0
 34 39  1  0
 38 39  2  0
M  END
