x2540-x0978
     RDKit          3D

 41 42  0  0  0  0  0  0  0  0999 V2000
    6.8600   -1.2790   21.9980 N   0  0  0  0  0  0  0  0  0  0  0  0
    6.9630   -4.6920   20.8950 C   0  0  2  0  0  0  0  0  0  0  0  0
    4.7820   -2.9500   21.3000 O   0  0  0  0  0  0  0  0  0  0  0  0
    7.0340   -3.6030   21.8600 C   0  0  0  0  0  0  0  0  0  0  0  0
    7.8730    1.7720   23.1150 N   0  0  0  0  0  0  0  0  0  0  0  0
    8.5830    1.3300   20.9700 O   0  0  0  0  0  0  0  0  0  0  0  0
    6.0630   -2.5380   21.6750 C   0  0  0  0  0  0  0  0  0  0  0  0
    6.5640    0.1730   21.6690 C   0  0  1  0  0  0  0  0  0  0  0  0
    7.7670    1.1170   21.8770 C   0  0  0  0  0  0  0  0  0  0  0  0
    8.7080    2.8090   23.3550 C   0  0  0  0  0  0  0  0  0  0  0  0
    8.8030    3.2860   24.8020 C   0  0  0  0  0  0  0  0  0  0  0  0
    8.2700    3.9380   22.7060 C   0  0  0  0  0  0  0  0  0  0  0  0
   10.1430    2.5300   22.8640 C   0  0  0  0  0  0  0  0  0  0  0  0
   12.0850   -1.3800   23.2690 C   0  0  0  0  0  0  0  0  0  0  0  0
   12.6800   -1.7790   22.1200 C   0  0  0  0  0  0  0  0  0  0  0  0
   12.6260    0.0180   23.5590 C   0  0  0  0  0  0  0  0  0  0  0  0
   12.5510   -2.3360   24.3910 C   0  0  0  0  0  0  0  0  0  0  0  0
    1.9020   -5.5820   23.1590 N   0  0  0  0  0  0  0  0  0  0  0  0
    2.2760   -8.0920   24.6910 C   0  0  0  0  0  0  0  0  0  0  0  0
    4.5360   -7.9110   24.2820 O   0  0  0  0  0  0  0  0  0  0  0  0
    3.3740   -7.1360   24.5000 C   0  0  1  0  0  0  0  0  0  0  0  0
    5.0650   -5.9430   21.7900 N   0  0  0  0  0  0  0  0  0  0  0  0
    0.8600   -7.2150   22.0420 O   0  0  0  0  0  0  0  0  0  0  0  0
    3.1320   -6.3390   23.2290 C   0  0  2  0  0  0  0  0  0  0  0  0
    4.3550   -4.3890   23.4410 O   0  0  0  0  0  0  0  0  0  0  0  0
    0.7990   -6.1200   22.5890 C   0  0  0  0  0  0  0  0  0  0  0  0
   -0.4290   -5.4340   22.6060 C   0  0  0  0  0  0  0  0  0  0  0  0
    4.1850   -5.4710   22.8840 C   0  0  0  0  0  0  0  0  0  0  0  0
    5.5110   -5.1370   20.7630 C   0  0  0  0  0  0  0  0  0  0  0  0
    7.4250   -5.9180   21.5610 C   0  0  0  0  0  0  0  0  0  0  0  0
    6.2630    0.4230   17.8310 N   0  0  0  0  0  0  0  0  0  0  0  0
    5.2060    1.2530   17.7340 C   0  0  0  0  0  0  0  0  0  0  0  0
    4.5860    1.7070   18.8940 C   0  0  0  0  0  0  0  0  0  0  0  0
    5.0170    1.3470   20.1600 C   0  0  0  0  0  0  0  0  0  0  0  0
    6.1040    0.5060   20.2910 C   0  0  0  0  0  0  0  0  0  0  0  0
    6.7220    0.0390   19.1540 C   0  0  0  0  0  0  0  0  0  0  0  0
    9.8000   -1.6770   24.2240 O   0  0  0  0  0  0  0  0  0  0  0  0
    8.4190   -1.6720   23.9340 N   0  0  0  0  0  0  0  0  0  0  0  0
    8.1920   -1.3830   22.6250 C   0  0  0  0  0  0  0  0  0  0  0  0
    9.5610   -1.1910   22.0050 C   0  0  0  0  0  0  0  0  0  0  0  0
   10.5670   -1.4050   23.1250 C   0  0  0  0  0  0  0  0  0  0  0  0
  2  4  1  0
  1  7  1  0
  3  7  2  0
  4  7  1  0
  1  8  1  0
  5  9  1  0
  6  9  2  0
  8  9  1  6
 10  5  1  0
 10 11  1  0
 10 12  1  0
 10 13  1  0
 14 15  1  0
 14 16  1  0
 14 17  1  0
 21 19  1  6
 20 21  1  0
 24 18  1  1
 21 24  1  0
 18 26  1  0
 23 26  2  0
 26 27  1  0
 22 28  1  0
 24 28  1  0
 25 28  2  0
  2 29  1  0
 22 29  1  0
  2 30  1  1
 31 32  2  0
 32 33  1  0
 33 34  2  0
  8 35  1  0
 34 35  1  0
 31 36  1  0
 35 36  2  0
 37 38  1  0
  1 39  1  0
 38 39  2  0
 39 40  1  0
 14 41  1  0
 37 41  1  0
 40 41  2  0
M  END
