x2540-x3117
     RDKit          3D

 33 37  0  0  0  0  0  0  0  0999 V2000
    6.9010   -1.4150   21.9760 N   0  0  0  0  0  0  0  0  0  0  0  0
    7.1330   -3.2930   19.3220 C   0  0  0  0  0  0  0  0  0  0  0  0
    4.7780   -3.0050   21.3960 O   0  0  0  0  0  0  0  0  0  0  0  0
    6.9740   -3.5250   20.7730 C   0  0  0  0  0  0  0  0  0  0  0  0
    8.1500    2.0430   22.5530 N   0  0  0  0  0  0  0  0  0  0  0  0
    9.0280    0.4880   21.2050 O   0  0  0  0  0  0  0  0  0  0  0  0
    6.0810   -2.5880   21.4280 C   0  0  0  0  0  0  0  0  0  0  0  0
    6.7210    0.0890   21.6600 C   0  0  1  0  0  0  0  0  0  0  0  0
    8.0450    0.8610   21.7860 C   0  0  0  0  0  0  0  0  0  0  0  0
    8.5640    2.4090   25.3250 C   0  0  0  0  0  0  0  0  0  0  0  0
   10.7070    1.8830   23.3760 C   0  0  0  0  0  0  0  0  0  0  0  0
   11.9480   -1.3830   23.4750 C   0  0  0  0  0  0  0  0  0  0  0  0
   12.4260   -0.9090   22.2970 C   0  0  0  0  0  0  0  0  0  0  0  0
   12.2640   -0.3460   24.5390 C   0  0  0  0  0  0  0  0  0  0  0  0
   12.6310   -2.6680   23.8310 C   0  0  0  0  0  0  0  0  0  0  0  0
   13.0480   -2.7080   25.1500 C   0  0  0  0  0  0  0  0  0  0  0  0
    6.2900    0.3600   17.8880 N   0  0  0  0  0  0  0  0  0  0  0  0
    5.1920    1.1460   17.8270 C   0  0  0  0  0  0  0  0  0  0  0  0
    4.4480    1.6690   18.9720 C   0  0  0  0  0  0  0  0  0  0  0  0
    5.0530    1.2370   20.2180 C   0  0  0  0  0  0  0  0  0  0  0  0
    6.1760    0.4410   20.2960 C   0  0  0  0  0  0  0  0  0  0  0  0
    6.7570    0.0250   19.1040 C   0  0  0  0  0  0  0  0  0  0  0  0
    9.6430   -2.0360   24.4680 O   0  0  0  0  0  0  0  0  0  0  0  0
    8.2910   -2.0760   24.1480 N   0  0  0  0  0  0  0  0  0  0  0  0
    8.1510   -1.5790   22.7570 C   0  0  0  0  0  0  0  0  0  0  0  0
    9.4850   -1.3180   22.4450 C   0  0  0  0  0  0  0  0  0  0  0  0
   10.4000   -1.5840   23.4810 C   0  0  0  0  0  0  0  0  0  0  0  0
    9.3190    5.2950   24.2370 O   0  0  0  0  0  0  0  0  0  0  0  0
   10.1800    4.3210   23.7270 C   0  0  0  0  0  0  0  0  0  0  0  0
    9.1620    2.8710   23.7470 S   0  0  0  0  0  0  0  0  0  0  0  0
    8.0250    3.2850   22.2930 C   0  0  2  0  0  0  0  0  0  0  0  0
    8.0470    4.1360   23.2410 C   0  0  2  0  0  0  0  0  0  0  0  0
    8.6120    5.4220   23.1560 C   0  0  0  0  0  0  0  0  0  0  0  0
  2  4  1  0
  1  7  1  0
  3  7  2  0
  4  7  1  0
  1  8  1  0
  5  9  1  0
  6  9  2  0
  8  9  1  6
 12 13  1  0
 12 14  1  0
 12 15  1  0
 15 16  1  0
 17 18  2  0
 18 19  1  0
 19 20  2  0
  8 21  1  0
 20 21  1  0
 17 22  1  0
 21 22  2  0
 23 24  1  0
  1 25  1  0
 24 25  2  0
 25 26  1  0
 12 27  1  0
 23 27  1  0
 26 27  2  0
 28 29  1  0
  5 30  1  0
 10 30  1  0
 11 30  1  0
 29 30  1  0
 31  5  1  1
 30 31  1  0
 30 32  1  0
 31 32  1  0
 28 33  1  0
 32 33  1  6
M  END
