x2562-x0734
     RDKit          3D

 41 45  0  0  0  0  0  0  0  0999 V2000
    8.1380   -0.0070   21.4120 C   0  0  0  0  0  0  0  0  0  0  0  0
    8.0100    1.1910   21.6600 O   0  0  0  0  0  0  0  0  0  0  0  0
    7.0810   -0.8190   20.7030 C   0  0  2  0  0  0  0  0  0  0  0  0
   12.0020    2.8240   23.3200 O   0  0  0  0  0  0  0  0  0  0  0  0
    9.3530   -0.8190   21.7130 N   0  0  0  0  0  0  0  0  0  0  0  0
   13.4010    6.6670   22.0230 O   0  0  0  0  0  0  0  0  0  0  0  0
    5.2140   -4.8090   26.3190 N   0  0  0  0  0  0  0  0  0  0  0  0
    4.5130   -5.5860   25.6510 O   0  0  0  0  0  0  0  0  0  0  0  0
    4.8300   -3.7260   26.7840 O   0  0  0  0  0  0  0  0  0  0  0  0
    5.1600   -4.3070   19.7590 O   0  0  0  0  0  0  0  0  0  0  0  0
    6.2990   -3.9620   20.1310 C   0  0  0  0  0  0  0  0  0  0  0  0
    7.2100   -3.1930   19.2630 C   0  0  0  0  0  0  0  0  0  0  0  0
    7.7830   -1.9330   19.9130 C   0  0  0  0  0  0  0  0  0  0  0  0
    4.4390    1.6120   19.4010 N   0  0  0  0  0  0  0  0  0  0  0  0
    4.9240    1.6460   18.1270 C   0  0  0  0  0  0  0  0  0  0  0  0
    5.9810    0.9840   17.6280 N   0  0  0  0  0  0  0  0  0  0  0  0
    6.7690    0.1080   18.4820 C   0  0  0  0  0  0  0  0  0  0  0  0
    6.3030    0.0590   19.7800 C   0  0  0  0  0  0  0  0  0  0  0  0
    5.2230    0.7370   20.2530 C   0  0  0  0  0  0  0  0  0  0  0  0
   12.3650    4.6910   21.6790 N   0  0  0  0  0  0  0  0  0  0  0  0
   12.5950    5.6660   22.5860 C   0  0  1  0  0  0  0  0  0  0  0  0
   13.2040    4.9400   23.4240 C   0  0  0  0  0  0  0  0  0  0  0  0
   12.9660    3.7440   22.7530 C   0  0  1  0  0  0  0  0  0  0  0  0
   11.6930   -1.2660   22.1270 C   0  0  0  0  0  0  0  0  0  0  0  0
   12.9930   -0.7600   22.5370 C   0  0  0  0  0  0  0  0  0  0  0  0
   13.0730    0.6340   22.9300 C   0  0  0  0  0  0  0  0  0  0  0  0
   11.9860    1.4950   22.9520 C   0  0  0  0  0  0  0  0  0  0  0  0
   10.7310    1.0290   22.5690 C   0  0  0  0  0  0  0  0  0  0  0  0
   10.5380   -0.3080   22.1450 C   0  0  0  0  0  0  0  0  0  0  0  0
    6.6020   -5.0510   26.3230 C   0  0  0  0  0  0  0  0  0  0  0  0
    7.3660   -4.8870   25.1750 C   0  0  0  0  0  0  0  0  0  0  0  0
    8.7220   -5.1490   25.2400 C   0  0  0  0  0  0  0  0  0  0  0  0
    9.3300   -5.5670   26.4130 C   0  0  0  0  0  0  0  0  0  0  0  0
    8.5350   -5.7120   27.5380 C   0  0  0  0  0  0  0  0  0  0  0  0
    7.1700   -5.4650   27.5340 C   0  0  0  0  0  0  0  0  0  0  0  0
    6.7590   -4.3470   21.3730 N   0  0  0  0  0  0  0  0  0  0  0  0
    6.4540   -5.6220   22.0210 C   0  0  0  0  0  0  0  0  0  0  0  0
    5.9050   -5.3360   23.2640 C   0  0  0  0  0  0  0  0  0  0  0  0
    6.9160   -4.4830   23.9310 N   0  0  0  0  0  0  0  0  0  0  0  0
    7.2000   -3.1650   23.3450 C   0  0  0  0  0  0  0  0  0  0  0  0
    7.7040   -3.4730   22.0860 C   0  0  0  0  0  0  0  0  0  0  0  0
  1  2  2  0
  1  3  1  0
  1  5  1  0
  7  8  2  0
  7  9  1  0
 10 11  2  0
 11 12  1  0
  3 13  1  6
 12 13  1  0
 14 15  2  0
 15 16  1  0
 16 17  2  0
  3 18  1  0
 17 18  1  0
 14 19  1  0
 18 19  2  0
 21  6  1  6
 20 21  1  0
 21 22  1  0
 23  4  1  1
 20 23  1  0
 22 23  1  0
 24 25  2  0
 25 26  1  0
  4 27  1  0
 26 27  2  0
 27 28  1  0
  5 29  1  0
 24 29  1  0
 28 29  2  0
  7 30  1  0
 30 31  2  0
 31 32  1  0
 32 33  2  0
 33 34  1  0
 30 35  1  0
 34 35  2  0
 11 36  1  0
 36 37  1  0
 37 38  1  0
 31 39  1  0
 38 39  1  0
 39 40  1  0
 36 41  1  0
 40 41  1  0
M  CHG  2   7   1   9  -1
M  END
