x2563-x1402
     RDKit          3D

 39 43  0  0  0  0  0  0  0  0999 V2000
    7.6040   -3.7530   20.5140 C   0  0  0  0  0  0  0  0  0  0  0  0
    5.5880   -4.9480   20.0310 O   0  0  0  0  0  0  0  0  0  0  0  0
    0.7300   -1.3330   26.0570 Cl  0  0  0  0  0  0  0  0  0  0  0  0
    6.6040   -4.8190   20.7820 C   0  0  0  0  0  0  0  0  0  0  0  0
    4.0070   -6.3650   25.9750 O   0  0  0  0  0  0  0  0  0  0  0  0
    6.0830   -5.2240   26.8610 O   0  0  0  0  0  0  0  0  0  0  0  0
    5.0250   -5.3370   25.8870 S   0  0  0  0  0  0  0  0  0  0  0  0
    8.2470   -0.4590   21.2320 C   0  0  0  0  0  0  0  0  0  0  0  0
    8.2160    0.7730   21.2410 O   0  0  0  0  0  0  0  0  0  0  0  0
    7.4360   -1.1510   20.2360 C   0  0  1  0  0  0  0  0  0  0  0  0
    9.0030   -1.2290   22.0520 N   0  0  0  0  0  0  0  0  0  0  0  0
    6.7840   -2.4430   20.5200 C   0  0  0  0  0  0  0  0  0  0  0  0
    6.8010   -5.6270   21.8710 N   0  0  0  0  0  0  0  0  0  0  0  0
    7.7330   -5.3350   22.9510 C   0  0  0  0  0  0  0  0  0  0  0  0
    6.9400   -4.6500   24.0510 C   0  0  0  0  0  0  0  0  0  0  0  0
    5.7070   -5.4180   24.3530 N   0  0  0  0  0  0  0  0  0  0  0  0
    4.8780   -5.8680   23.2070 C   0  0  0  0  0  0  0  0  0  0  0  0
    5.6770   -6.4660   22.2640 C   0  0  0  0  0  0  0  0  0  0  0  0
    2.3750   -3.8850   25.8670 S   0  0  0  0  0  0  0  0  0  0  0  0
    4.0950   -3.8190   25.9880 C   0  0  0  0  0  0  0  0  0  0  0  0
    4.4750   -2.5360   26.1520 C   0  0  0  0  0  0  0  0  0  0  0  0
    3.4700   -1.5820   26.1930 C   0  0  0  0  0  0  0  0  0  0  0  0
    2.2290   -2.1790   26.0510 C   0  0  0  0  0  0  0  0  0  0  0  0
    6.1530    0.8660   17.4040 N   0  0  0  0  0  0  0  0  0  0  0  0
    5.0430    1.6310   17.9780 C   0  0  0  0  0  0  0  0  0  0  0  0
    4.7190    1.4610   19.3770 C   0  0  0  0  0  0  0  0  0  0  0  0
    5.4800    0.5670   20.1480 C   0  0  0  0  0  0  0  0  0  0  0  0
    6.5330   -0.1560   19.5700 C   0  0  0  0  0  0  0  0  0  0  0  0
    6.8800   -0.0380   18.2800 C   0  0  0  0  0  0  0  0  0  0  0  0
    3.6600    2.1970   19.9090 C   0  0  0  0  0  0  0  0  0  0  0  0
    3.3210    2.0770   21.2380 C   0  0  0  0  0  0  0  0  0  0  0  0
    4.0580    1.2110   22.0180 C   0  0  0  0  0  0  0  0  0  0  0  0
    5.1120    0.4620   21.5040 C   0  0  0  0  0  0  0  0  0  0  0  0
   11.3700   -0.7670   22.4570 C   0  0  0  0  0  0  0  0  0  0  0  0
   12.2640   -0.0290   23.1900 C   0  0  0  0  0  0  0  0  0  0  0  0
   11.8140    0.8410   24.1440 C   0  0  0  0  0  0  0  0  0  0  0  0
   10.4610    1.0140   24.4190 C   0  0  0  0  0  0  0  0  0  0  0  0
    9.5540    0.2910   23.7000 C   0  0  0  0  0  0  0  0  0  0  0  0
   10.0090   -0.5910   22.7200 C   0  0  0  0  0  0  0  0  0  0  0  0
  1  4  1  0
  2  4  2  0
  5  7  2  0
  6  7  2  0
  8  9  2  0
  8 10  1  0
  8 11  1  0
  1 12  1  0
 10 12  1  1
  4 13  1  0
 13 14  1  0
 14 15  1  0
  7 16  1  0
 15 16  1  0
 16 17  1  0
 13 18  1  0
 17 18  1  0
  7 20  1  0
 19 20  1  0
 20 21  2  0
 21 22  1  0
  3 23  1  0
 19 23  1  0
 22 23  2  0
 24 25  2  0
 25 26  1  0
 26 27  2  0
 10 28  1  0
 27 28  1  0
 24 29  1  0
 28 29  2  0
 26 30  1  0
 30 31  2  0
 31 32  1  0
 27 33  1  0
 32 33  2  0
 34 35  2  0
 35 36  1  0
 36 37  2  0
 37 38  1  0
 11 39  1  0
 34 39  1  0
 38 39  2  0
M  END
