x2562-x2646
     RDKit          3D

 24 26  0  0  0  0  0  0  0  0999 V2000
    8.2320    0.4840   21.4740 C   0  0  0  0  0  0  0  0  0  0  0  0
    8.4620    1.5600   20.9110 O   0  0  0  0  0  0  0  0  0  0  0  0
    7.2410   -0.5140   20.9930 C   0  0  0  0  0  0  0  0  0  0  0  0
   11.9070    3.0590   23.3140 O   0  0  0  0  0  0  0  0  0  0  0  0
    8.8910    0.0570   22.6900 N   0  0  0  0  0  0  0  0  0  0  0  0
   13.0050    6.9500   22.6880 O   0  0  0  0  0  0  0  0  0  0  0  0
    4.8610    1.2250   21.6510 C   0  0  0  0  0  0  0  0  0  0  0  0
   13.4350   -2.1630   22.4250 Cl  0  0  0  0  0  0  0  0  0  0  0  0
    4.5970    1.6950   19.2760 N   0  0  0  0  0  0  0  0  0  0  0  0
    5.0620    1.4880   17.9230 C   0  0  0  0  0  0  0  0  0  0  0  0
    6.1030    0.6990   17.4590 N   0  0  0  0  0  0  0  0  0  0  0  0
    6.8220    0.0180   18.5060 C   0  0  0  0  0  0  0  0  0  0  0  0
    6.4660    0.1560   19.9470 C   0  0  0  0  0  0  0  0  0  0  0  0
    5.2970    1.0200   20.3670 C   0  0  0  0  0  0  0  0  0  0  0  0
   12.4740    4.7620   21.6260 N   0  0  0  0  0  0  0  0  0  0  0  0
   13.4040    5.6320   22.3830 C   0  0  2  0  0  0  0  0  0  0  0  0
   13.4740    4.7990   23.4040 C   0  0  0  0  0  0  0  0  0  0  0  0
   12.9420    3.8060   22.6760 C   0  0  1  0  0  0  0  0  0  0  0  0
   11.1640   -1.1760   22.5210 C   0  0  0  0  0  0  0  0  0  0  0  0
   12.4700   -0.8010   22.6280 C   0  0  0  0  0  0  0  0  0  0  0  0
   12.8240    0.5640   22.8820 C   0  0  0  0  0  0  0  0  0  0  0  0
   11.7720    1.6280   23.0380 C   0  0  0  0  0  0  0  0  0  0  0  0
   10.4200    1.1190   22.9050 C   0  0  0  0  0  0  0  0  0  0  0  0
   10.2830   -0.2070   22.6700 C   0  0  0  0  0  0  0  0  0  0  0  0
  1  2  2  0
  1  3  1  0
  1  5  1  0
  9 10  2  0
 10 11  1  0
 11 12  2  0
  3 13  1  0
 12 13  1  0
  7 14  1  0
  9 14  1  0
 13 14  2  0
 16  6  1  1
 15 16  1  0
 16 17  1  0
 18  4  1  1
 15 18  1  0
 17 18  1  0
  8 20  1  0
 19 20  2  0
 20 21  1  0
  4 22  1  0
 21 22  2  0
 22 23  1  0
  5 24  1  0
 19 24  1  0
 23 24  2  0
M  END
