x2563-x2910
     RDKit          3D

 27 30  0  0  0  0  0  0  0  0999 V2000
    7.2880   -1.5400   21.5710 N   0  0  0  0  0  0  0  0  0  0  0  0
   10.3390    2.7590   23.5410 C   0  0  0  0  0  0  0  0  0  0  0  0
    9.9750    1.3820   23.4730 O   0  0  0  0  0  0  0  0  0  0  0  0
    9.3970   -1.1640   22.3830 N   0  0  0  0  0  0  0  0  0  0  0  0
    5.3540   -2.5500   20.7890 O   0  0  0  0  0  0  0  0  0  0  0  0
    6.3220    1.2430   16.9590 O   0  0  0  0  0  0  0  0  0  0  0  0
    9.2030   -2.5670   22.2860 C   0  0  0  0  0  0  0  0  0  0  0  0
    7.7130   -2.6420   22.4060 C   0  0  0  0  0  0  0  0  0  0  0  0
    6.0980   -1.5760   20.8360 C   0  0  0  0  0  0  0  0  0  0  0  0
    8.3420   -0.5530   21.6060 C   0  0  0  0  0  0  0  0  0  0  0  0
    8.3450    0.5610   21.0930 O   0  0  0  0  0  0  0  0  0  0  0  0
   10.9940    0.5820   23.0360 C   0  0  0  0  0  0  0  0  0  0  0  0
   10.7060   -0.6800   22.5030 C   0  0  0  0  0  0  0  0  0  0  0  0
   11.7600   -1.4970   22.0680 C   0  0  0  0  0  0  0  0  0  0  0  0
   13.0670   -1.0510   22.1570 C   0  0  0  0  0  0  0  0  0  0  0  0
   13.3210    0.2100   22.6770 C   0  0  0  0  0  0  0  0  0  0  0  0
   12.3050    1.0220   23.1180 C   0  0  0  0  0  0  0  0  0  0  0  0
    4.8000    1.7070   18.4850 N   0  0  0  0  0  0  0  0  0  0  0  0
    4.1910    1.4580   19.6390 C   0  0  0  0  0  0  0  0  0  0  0  0
    4.5620    0.3940   20.4840 C   0  0  0  0  0  0  0  0  0  0  0  0
    5.6320   -0.4220   20.0400 C   0  0  0  0  0  0  0  0  0  0  0  0
    6.2660   -0.1680   18.8360 C   0  0  0  0  0  0  0  0  0  0  0  0
    5.7920    0.9020   18.1320 C   0  0  0  0  0  0  0  0  0  0  0  0
    3.1500    2.2900   20.0060 C   0  0  0  0  0  0  0  0  0  0  0  0
    2.4550    2.1050   21.2010 C   0  0  0  0  0  0  0  0  0  0  0  0
    2.8120    1.0650   22.0460 C   0  0  0  0  0  0  0  0  0  0  0  0
    3.8550    0.2130   21.6970 C   0  0  0  0  0  0  0  0  0  0  0  0
  2  3  1  0
  4  7  1  0
  1  8  1  0
  7  8  1  0
  1  9  1  0
  5  9  2  0
  1 10  1  0
  4 10  1  0
 10 11  2  0
  3 12  1  0
  4 13  1  0
 12 13  2  0
 13 14  1  0
 14 15  2  0
 15 16  1  0
 12 17  1  0
 16 17  2  0
 18 19  2  0
 19 20  1  0
  9 21  1  0
 20 21  2  0
 21 22  1  0
  6 23  1  0
 18 23  1  0
 22 23  2  0
 19 24  1  0
 24 25  2  0
 25 26  1  0
 20 27  1  0
 26 27  2  0
M  END
