x2569-x2572
     RDKit          3D

 19 20  0  0  0  0  0  0  0  0999 V2000
    4.6110    1.4040   21.6610 C   0  0  0  0  0  0  0  0  0  0  0  0
    8.8160    1.2890   21.3180 O   0  0  0  0  0  0  0  0  0  0  0  0
    7.1160   -0.3120   21.2530 N   0  0  0  0  0  0  0  0  0  0  0  0
   13.6460   -2.6100   20.7230 N   0  0  0  0  0  0  0  0  0  0  0  0
    8.2300    0.2990   21.8200 C   0  0  0  0  0  0  0  0  0  0  0  0
    8.7110   -0.3250   23.1120 C   0  0  0  0  0  0  0  0  0  0  0  0
   13.1130   -1.9150   21.4190 C   0  0  0  0  0  0  0  0  0  0  0  0
    6.2730    0.6390   17.5130 N   0  0  0  0  0  0  0  0  0  0  0  0
    6.9090    0.0580   18.6770 C   0  0  0  0  0  0  0  0  0  0  0  0
    6.4450    0.2550   20.1060 C   0  0  0  0  0  0  0  0  0  0  0  0
    5.2040    1.1220   20.2790 C   0  0  0  0  0  0  0  0  0  0  0  0
    4.6500    1.6430   19.1190 C   0  0  0  0  0  0  0  0  0  0  0  0
    5.1270    1.4370   17.8690 C   0  0  0  0  0  0  0  0  0  0  0  0
   10.8110    0.6770   23.8490 C   0  0  0  0  0  0  0  0  0  0  0  0
   12.1290    0.7280   23.7940 C   0  0  0  0  0  0  0  0  0  0  0  0
   12.9310   -0.0830   23.0320 C   0  0  0  0  0  0  0  0  0  0  0  0
   12.3140   -1.0360   22.2560 C   0  0  0  0  0  0  0  0  0  0  0  0
   10.8650   -1.1970   22.2270 C   0  0  0  0  0  0  0  0  0  0  0  0
   10.1470   -0.2610   23.0840 C   0  0  0  0  0  0  0  0  0  0  0  0
  2  5  2  0
  3  5  1  0
  5  6  1  0
  4  7  3  0
  8  9  2  0
  3 10  1  0
  9 10  1  0
  1 11  1  0
 10 11  2  0
 11 12  1  0
  8 13  1  0
 12 13  2  0
 14 15  2  0
 15 16  1  0
  7 17  1  0
 16 17  2  0
 17 18  1  0
  6 19  1  0
 14 19  1  0
 18 19  2  0
M  END
