x2569-x1308
     RDKit          3D

 39 42  0  0  0  0  0  0  0  0999 V2000
    7.8170   -3.6520   20.2610 C   0  0  0  0  0  0  0  0  0  0  0  0
    5.6570   -4.7080   19.9890 O   0  0  0  0  0  0  0  0  0  0  0  0
    0.5170   -1.2390   26.4050 Cl  0  0  0  0  0  0  0  0  0  0  0  0
    6.7200   -4.5920   20.6760 C   0  0  0  0  0  0  0  0  0  0  0  0
    6.4820   -5.1140   26.7640 O   0  0  0  0  0  0  0  0  0  0  0  0
    4.7280   -6.7510   26.0070 O   0  0  0  0  0  0  0  0  0  0  0  0
    5.3590   -5.4500   25.9200 S   0  0  0  0  0  0  0  0  0  0  0  0
    8.1180    0.4980   21.7810 C   0  0  0  0  0  0  0  0  0  0  0  0
    8.7740    1.4120   21.2360 O   0  0  0  0  0  0  0  0  0  0  0  0
    8.5680    0.0120   23.1020 C   0  0  0  0  0  0  0  0  0  0  0  0
   13.6750   -2.3260   20.6760 N   0  0  0  0  0  0  0  0  0  0  0  0
    7.0090   -0.0840   21.2130 N   0  0  0  0  0  0  0  0  0  0  0  0
   12.9890   -1.6450   21.5930 C   0  0  0  0  0  0  0  0  0  0  0  0
    7.2320   -2.2760   19.9670 C   0  0  0  0  0  0  0  0  0  0  0  0
    6.9450   -1.5180   21.2350 C   0  0  0  0  0  0  0  0  0  0  0  0
    6.8630   -5.3450   21.8430 N   0  0  0  0  0  0  0  0  0  0  0  0
    7.6740   -5.0430   22.8790 C   0  0  0  0  0  0  0  0  0  0  0  0
    7.1540   -4.5940   24.0640 C   0  0  0  0  0  0  0  0  0  0  0  0
    5.8380   -5.2150   24.3210 N   0  0  0  0  0  0  0  0  0  0  0  0
    5.2340   -6.0270   23.2600 C   0  0  0  0  0  0  0  0  0  0  0  0
    6.0180   -6.3350   22.1970 C   0  0  0  0  0  0  0  0  0  0  0  0
    4.3110   -2.9440   26.4270 C   0  0  0  0  0  0  0  0  0  0  0  0
    3.2690   -2.0350   26.5310 C   0  0  0  0  0  0  0  0  0  0  0  0
    1.8420   -2.3190   26.2810 C   0  0  0  0  0  0  0  0  0  0  0  0
    1.6510   -3.7290   25.8870 C   0  0  0  0  0  0  0  0  0  0  0  0
    2.7360   -4.6030   25.7980 C   0  0  0  0  0  0  0  0  0  0  0  0
    4.0610   -4.2600   26.0580 C   0  0  0  0  0  0  0  0  0  0  0  0
   12.1040    0.6960   24.3350 N   0  0  0  0  0  0  0  0  0  0  0  0
   12.8710   -0.1320   23.4190 C   0  0  0  0  0  0  0  0  0  0  0  0
   12.2020   -0.8420   22.4940 C   0  0  0  0  0  0  0  0  0  0  0  0
   10.8560   -0.8520   22.3390 C   0  0  0  0  0  0  0  0  0  0  0  0
   10.0930   -0.0990   23.1560 C   0  0  0  0  0  0  0  0  0  0  0  0
   10.6390    0.6750   24.1480 C   0  0  0  0  0  0  0  0  0  0  0  0
    6.3480    0.7310   17.6460 N   0  0  0  0  0  0  0  0  0  0  0  0
    6.8720    0.2600   18.7880 C   0  0  0  0  0  0  0  0  0  0  0  0
    6.3550    0.4600   20.0470 C   0  0  0  0  0  0  0  0  0  0  0  0
    5.1960    1.1890   20.1710 C   0  0  0  0  0  0  0  0  0  0  0  0
    4.6040    1.6980   19.0330 C   0  0  0  0  0  0  0  0  0  0  0  0
    5.2090    1.4530   17.7970 C   0  0  0  0  0  0  0  0  0  0  0  0
  1  4  1  0
  2  4  2  0
  5  7  2  0
  6  7  2  0
  8  9  2  0
  8 10  1  0
  8 12  1  0
 11 13  3  0
  1 14  1  0
 12 15  1  0
 14 15  1  0
  4 16  1  0
 16 17  1  0
 17 18  1  0
  7 19  1  0
 18 19  1  0
 19 20  1  0
 16 21  1  0
 20 21  1  0
 22 23  2  0
  3 24  1  0
 23 24  1  0
 24 25  2  0
 25 26  1  0
  7 27  1  0
 22 27  1  0
 26 27  2  0
 28 29  2  0
 13 30  1  0
 29 30  1  0
 30 31  2  0
 10 32  1  0
 31 32  1  0
 28 33  1  0
 32 33  2  0
 34 35  2  0
 12 36  1  0
 35 36  1  0
 36 37  2  0
 37 38  1  0
 34 39  1  0
 38 39  2  0
M  END
