x2569-x0731-x0771-x2705-x3117
     RDKit          3D

 53 59  0  0  0  0  0  0  0  0999 V2000
    7.0410   -1.4320   21.6980 N   0  0  0  0  0  0  0  0  0  0  0  0
    6.7980   -4.3440   20.3580 C   0  0  2  0  0  0  0  0  0  0  0  0
    5.0290   -3.3520   21.3100 O   0  0  0  0  0  0  0  0  0  0  0  0
    6.8720   -3.4130   21.4990 C   0  0  2  0  0  0  0  0  0  0  0  0
    7.4990    2.0840   22.7060 N   0  0  0  0  0  0  0  0  0  0  0  0
    9.0590    0.8440   21.5220 O   0  0  0  0  0  0  0  0  0  0  0  0
    5.8660   -2.3350   21.4940 C   0  0  0  0  0  0  0  0  0  0  0  0
    6.7310    0.0240   21.5430 C   0  0  1  0  0  0  0  0  0  0  0  0
    7.9050    1.0010   21.9140 C   0  0  0  0  0  0  0  0  0  0  0  0
   10.2190    2.0950   23.9380 C   0  0  0  0  0  0  0  0  0  0  0  0
    9.3730    1.2400   24.8810 C   0  0  0  0  0  0  0  0  0  0  0  0
    6.1640    4.4860   21.8280 C   0  0  0  0  0  0  0  0  0  0  0  0
   12.0340   -1.5740   23.3260 C   0  0  2  0  0  0  0  0  0  0  0  0
   12.5440   -0.2820   24.0030 C   0  0  0  0  0  0  0  0  0  0  0  0
   12.5320   -2.7770   24.1340 C   0  0  0  0  0  0  0  0  0  0  0  0
   12.7240   -1.7030   21.9610 C   0  0  0  0  0  0  0  0  0  0  0  0
   13.4750   -2.5250   25.3260 C   0  0  0  0  0  0  0  0  0  0  0  0
    5.5450   -4.5150   19.7020 O   0  0  0  0  0  0  0  0  0  0  0  0
    0.6890   -1.3210   26.2560 C   0  0  0  0  0  0  0  0  0  0  0  0
    4.5270   -6.9900   25.7580 O   0  0  0  0  0  0  0  0  0  0  0  0
    6.0560   -5.2550   26.6780 O   0  0  0  0  0  0  0  0  0  0  0  0
    2.6400   -6.0330   25.1610 C   0  0  0  0  0  0  0  0  0  0  0  0
    5.0450   -5.6430   25.7220 S   0  0  0  0  0  0  0  0  0  0  0  0
   13.3240   -1.8220   20.9760 N   0  0  0  0  0  0  0  0  0  0  0  0
    6.3550    0.4000   17.8630 N   0  0  0  0  0  0  0  0  0  0  0  0
    5.1860    1.0720   17.8040 C   0  0  0  0  0  0  0  0  0  0  0  0
    4.4260    1.4310   18.8940 C   0  0  0  0  0  0  0  0  0  0  0  0
    4.8730    1.1030   20.1580 C   0  0  0  0  0  0  0  0  0  0  0  0
    6.0690    0.4290   20.2520 C   0  0  0  0  0  0  0  0  0  0  0  0
    6.7710    0.0920   19.0980 C   0  0  0  0  0  0  0  0  0  0  0  0
    9.6910   -1.6660   24.2600 N   0  0  0  0  0  0  0  0  0  0  0  0
    8.4030   -1.6390   23.8160 N   0  0  0  0  0  0  0  0  0  0  0  0
    8.2640   -1.5310   22.4440 C   0  0  0  0  0  0  0  0  0  0  0  0
    9.5920   -1.5010   22.0340 C   0  0  0  0  0  0  0  0  0  0  0  0
   10.5020   -1.5820   23.2000 C   0  0  0  0  0  0  0  0  0  0  0  0
    9.4810    3.3380   23.4800 C   0  0  0  0  0  0  0  0  0  0  0  0
   10.1350    4.5500   23.6580 C   0  0  0  0  0  0  0  0  0  0  0  0
    9.5200    5.7180   23.2550 C   0  0  0  0  0  0  0  0  0  0  0  0
    8.2470    5.6820   22.6710 C   0  0  0  0  0  0  0  0  0  0  0  0
    7.5290    4.4570   22.4650 C   0  0  0  0  0  0  0  0  0  0  0  0
    8.1950    3.3100   22.8930 C   0  0  0  0  0  0  0  0  0  0  0  0
    1.7010   -2.4130   26.0890 C   0  0  0  0  0  0  0  0  0  0  0  0
    1.3150   -3.6810   25.6340 C   0  0  0  0  0  0  0  0  0  0  0  0
    2.2930   -4.6640   25.5110 C   0  0  0  0  0  0  0  0  0  0  0  0
    3.6590   -4.4900   25.8080 C   0  0  0  0  0  0  0  0  0  0  0  0
    4.0230   -3.2170   26.2510 C   0  0  0  0  0  0  0  0  0  0  0  0
    3.0530   -2.1870   26.3910 C   0  0  0  0  0  0  0  0  0  0  0  0
    6.8700   -5.0410   21.6450 C   0  0  1  0  0  0  0  0  0  0  0  0
    5.9220   -6.1850   21.9400 C   0  0  0  0  0  0  0  0  0  0  0  0
    4.9910   -5.9880   23.0200 C   0  0  0  0  0  0  0  0  0  0  0  0
    5.7390   -5.4050   24.1750 N   0  0  0  0  0  0  0  0  0  0  0  0
    6.2800   -4.0410   23.8720 C   0  0  0  0  0  0  0  0  0  0  0  0
    7.1570   -4.1200   22.7620 C   0  0  2  0  0  0  0  0  0  0  0  0
  2  4  1  0
  1  7  1  0
  3  7  2  0
  4  7  1  1
  1  8  1  0
  5  9  1  0
  6  9  2  0
  8  9  1  6
 10 11  1  0
 13 14  1  1
 13 15  1  0
 13 16  1  0
 15 17  1  0
  2 18  1  1
 20 23  2  0
 21 23  2  0
 16 24  3  0
 25 26  2  0
 26 27  1  0
 27 28  2  0
  8 29  1  0
 28 29  1  0
 25 30  1  0
 29 30  2  0
 31 32  1  0
  1 33  1  0
 32 33  2  0
 33 34  1  0
 13 35  1  0
 31 35  1  0
 34 35  2  0
 10 36  1  0
 36 37  2  0
 37 38  1  0
 38 39  2  0
 12 40  1  0
 39 40  1  0
  5 41  1  0
 36 41  1  0
 40 41  2  0
 19 42  1  0
 42 43  2  0
 22 44  1  0
 43 44  1  0
 23 45  1  0
 44 45  2  0
 45 46  1  0
 42 47  1  0
 46 47  2  0
  2 48  1  0
  4 48  1  0
 48 49  1  1
 49 50  1  0
 23 51  1  0
 50 51  1  0
 51 52  1  0
  4 53  1  0
 48 53  1  0
 53 52  1  1
M  END
