x2569-x1385
     RDKit          3D

 34 39  0  0  0  0  0  0  0  0999 V2000
    8.0690    0.0160   21.7580 C   0  0  1  0  0  0  0  0  0  0  0  0
    8.6140    0.8070   20.9980 O   0  0  0  0  0  0  0  0  0  0  0  0
    8.8460   -0.7650   22.7730 C   0  0  2  0  0  0  0  0  0  0  0  0
   13.8080   -1.4270   20.5450 N   0  0  0  0  0  0  0  0  0  0  0  0
    6.7900   -0.3850   21.4370 N   0  0  0  0  0  0  0  0  0  0  0  0
   13.3120   -1.8700   21.7970 C   0  0  0  0  0  0  0  0  0  0  0  0
    7.4710   -2.9760   18.7190 C   0  0  0  0  0  0  0  0  0  0  0  0
    5.5180   -3.9250   19.6570 O   0  0  0  0  0  0  0  0  0  0  0  0
    6.5020   -3.1330   19.8220 C   0  0  0  0  0  0  0  0  0  0  0  0
    9.4850   -3.3890   24.0070 C   0  0  0  0  0  0  0  0  0  0  0  0
    7.1240   -5.8460   28.6080 Br  0  0  0  0  0  0  0  0  0  0  0  0
   11.9940    0.9170   23.8010 N   0  0  0  0  0  0  0  0  0  0  0  0
   12.9540    0.0640   23.1550 C   0  0  0  0  0  0  0  0  0  0  0  0
   12.4850   -0.9950   22.4410 C   0  0  0  0  0  0  0  0  0  0  0  0
   11.1870   -1.2670   22.3100 C   0  0  0  0  0  0  0  0  0  0  0  0
   10.2790   -0.4310   22.9370 C   0  0  0  0  0  0  0  0  0  0  0  0
   10.6820    0.6380   23.6710 C   0  0  0  0  0  0  0  0  0  0  0  0
    6.4140    0.5470   17.8330 N   0  0  0  0  0  0  0  0  0  0  0  0
    6.8710    0.0330   18.9730 C   0  0  0  0  0  0  0  0  0  0  0  0
    6.2460    0.1710   20.2020 C   0  0  0  0  0  0  0  0  0  0  0  0
    4.9850    0.9140   20.3060 C   0  0  0  0  0  0  0  0  0  0  0  0
    4.4070    1.5130   19.0980 C   0  0  0  0  0  0  0  0  0  0  0  0
    5.1390    1.3110   17.9270 C   0  0  0  0  0  0  0  0  0  0  0  0
    6.6430   -2.5010   21.0560 N   0  0  0  0  0  0  0  0  0  0  0  0
    6.3010   -3.2160   22.1670 C   0  0  0  0  0  0  0  0  0  0  0  0
    7.2950   -3.9050   22.9050 C   0  0  0  0  0  0  0  0  0  0  0  0
    8.2510   -2.9100   23.3630 N   0  0  0  0  0  0  0  0  0  0  0  0
    8.6450   -2.1190   22.2270 C   0  0  1  0  0  0  0  0  0  0  0  0
    7.7390   -1.5230   21.3560 C   0  0  1  0  0  0  0  0  0  0  0  0
    9.7050   -5.4440   25.3500 C   0  0  0  0  0  0  0  0  0  0  0  0
    9.1360   -4.2220   25.0790 C   0  0  0  0  0  0  0  0  0  0  0  0
    7.9170   -3.7960   26.1950 S   0  0  0  0  0  0  0  0  0  0  0  0
    8.1520   -5.3580   27.0870 C   0  0  0  0  0  0  0  0  0  0  0  0
    9.1700   -6.1040   26.4800 C   0  0  0  0  0  0  0  0  0  0  0  0
  1  2  1  1
  1  3  1  0
  1  5  1  0
  4  6  3  0
  7  9  1  0
  8  9  2  0
 12 13  2  0
  6 14  1  0
 13 14  1  0
 14 15  2  0
  3 16  1  6
 15 16  1  0
 12 17  1  0
 16 17  2  0
 18 19  2  0
  5 20  1  0
 19 20  1  0
 20 21  2  0
 21 22  1  0
 18 23  1  0
 22 23  2  0
  9 24  1  0
 24 25  1  0
 25 26  1  0
 10 27  1  0
 26 27  1  0
  3 28  1  0
 28 27  1  1
  1 29  1  0
 29  5  1  6
 24 29  1  0
 28 29  1  0
 10 31  1  0
 30 31  2  0
 31 32  1  0
 11 33  1  0
 32 33  1  0
 30 34  1  0
 33 34  2  0
M  END
