x2563-x3077
     RDKit          3D

 32 36  0  0  0  0  0  0  0  0999 V2000
    7.0030   -3.2170   19.2430 C   0  0  0  0  0  0  0  0  0  0  0  0
    5.5080   -4.8490   20.0120 O   0  0  0  0  0  0  0  0  0  0  0  0
   13.3210   -1.8810   21.1150 Cl  0  0  0  0  0  0  0  0  0  0  0  0
    6.3760   -3.9950   20.3370 C   0  0  0  0  0  0  0  0  0  0  0  0
    9.4510   -2.2110   24.5700 C   0  0  0  0  0  0  0  0  0  0  0  0
    8.1350   -0.0910   21.4270 C   0  0  0  0  0  0  0  0  0  0  0  0
    8.7020    1.2130   21.0400 O   0  0  0  0  0  0  0  0  0  0  0  0
    6.7310   -0.2960   21.0370 C   0  0  0  0  0  0  0  0  0  0  0  0
    9.0260   -0.9790   22.1620 N   0  0  0  0  0  0  0  0  0  0  0  0
    6.7950   -3.7930   21.6510 N   0  0  0  0  0  0  0  0  0  0  0  0
    7.1720   -4.7410   22.7020 C   0  0  0  0  0  0  0  0  0  0  0  0
    7.5340   -3.7380   23.8180 C   0  0  2  0  0  0  0  0  0  0  0  0
    6.7730   -2.6480   23.4600 C   0  0  0  0  0  0  0  0  0  0  0  0
    7.1240   -2.4660   22.1800 C   0  0  1  0  0  0  0  0  0  0  0  0
    8.8360   -3.0400   23.5180 N   0  0  0  0  0  0  0  0  0  0  0  0
    8.5200   -2.3490   22.2280 C   0  0  2  0  0  0  0  0  0  0  0  0
   10.8500   -0.0840   24.4700 C   0  0  0  0  0  0  0  0  0  0  0  0
   11.9010    0.6940   23.9270 C   0  0  0  0  0  0  0  0  0  0  0  0
   12.6790    0.1680   22.9050 C   0  0  0  0  0  0  0  0  0  0  0  0
   12.4330   -1.1750   22.3670 C   0  0  0  0  0  0  0  0  0  0  0  0
   11.3400   -1.8920   22.9850 C   0  0  0  0  0  0  0  0  0  0  0  0
   10.5710   -1.3710   24.0030 C   0  0  0  0  0  0  0  0  0  0  0  0
    6.2540    0.8040   17.4890 N   0  0  0  0  0  0  0  0  0  0  0  0
    5.1300    1.4440   17.9090 C   0  0  0  0  0  0  0  0  0  0  0  0
    4.6530    1.4450   19.2410 C   0  0  0  0  0  0  0  0  0  0  0  0
    5.3810    0.7600   20.1780 C   0  0  0  0  0  0  0  0  0  0  0  0
    6.4850    0.1620   19.6750 C   0  0  0  0  0  0  0  0  0  0  0  0
    6.9300    0.1500   18.4360 C   0  0  0  0  0  0  0  0  0  0  0  0
    3.4810    2.1200   19.6070 C   0  0  0  0  0  0  0  0  0  0  0  0
    3.0410    2.1010   20.9280 C   0  0  0  0  0  0  0  0  0  0  0  0
    3.7830    1.4060   21.8750 C   0  0  0  0  0  0  0  0  0  0  0  0
    4.9400    0.7370   21.5200 C   0  0  0  0  0  0  0  0  0  0  0  0
  1  4  1  0
  2  4  2  0
  6  7  2  0
  6  8  1  0
  6  9  1  0
  4 10  1  0
 10 11  1  0
 12 11  1  6
 12 13  1  0
 14 10  1  6
 13 14  1  0
  5 15  1  0
 12 15  1  0
 16  9  1  1
 14 16  1  0
 15 16  1  0
 17 18  2  0
 18 19  1  0
  3 20  1  0
 19 20  2  0
 20 21  1  0
  5 22  1  0
 17 22  1  0
 21 22  2  0
 23 24  2  0
 24 25  1  0
 25 26  2  0
  8 27  1  0
 26 27  1  0
 23 28  1  0
 27 28  2  0
 25 29  1  0
 29 30  2  0
 30 31  1  0
 26 32  1  0
 31 32  2  0
M  END
