x2569-x2705-x1311-x2572
     RDKit          3D

 50 54  0  0  0  0  0  0  0  0999 V2000
    6.9170   -1.2890   21.7870 N   0  0  0  0  0  0  0  0  0  0  0  0
    6.7760   -4.5860   20.8080 C   0  0  2  0  0  0  0  0  0  0  0  0
    4.8110   -2.9490   21.1840 O   0  0  0  0  0  0  0  0  0  0  0  0
    7.0180   -3.5220   21.7870 C   0  0  0  0  0  0  0  0  0  0  0  0
    7.4720    2.1450   22.8230 N   0  0  0  0  0  0  0  0  0  0  0  0
    8.6410    1.3830   21.0980 O   0  0  0  0  0  0  0  0  0  0  0  0
    6.0830   -2.5270   21.5420 C   0  0  0  0  0  0  0  0  0  0  0  0
    6.5410    0.1260   21.5160 C   0  0  1  0  0  0  0  0  0  0  0  0
    7.6240    1.2360   21.8020 C   0  0  0  0  0  0  0  0  0  0  0  0
   10.1970    2.1240   23.9740 C   0  0  0  0  0  0  0  0  0  0  0  0
    9.3890    1.2210   24.9070 C   0  0  0  0  0  0  0  0  0  0  0  0
    6.2130    4.5760   21.9110 C   0  0  0  0  0  0  0  0  0  0  0  0
   11.9570   -1.4450   23.3590 C   0  0  0  0  0  0  0  0  0  0  0  0
   12.4150   -0.1120   24.0050 C   0  0  0  0  0  0  0  0  0  0  0  0
   12.4720   -2.5820   24.2980 C   0  0  0  0  0  0  0  0  0  0  0  0
   12.7310   -1.5460   22.0180 C   0  0  0  0  0  0  0  0  0  0  0  0
    5.5200   -4.6360   20.1240 O   0  0  0  0  0  0  0  0  0  0  0  0
    6.7200   -5.5430   21.9750 N   0  0  0  0  0  0  0  0  0  0  0  0
    4.2020   -7.5500   25.2810 O   0  0  0  0  0  0  0  0  0  0  0  0
    2.7850   -5.5240   24.8000 O   0  0  0  0  0  0  0  0  0  0  0  0
    3.9560    1.4990   21.3750 C   0  0  0  0  0  0  0  0  0  0  0  0
   13.3910   -1.6560   21.0630 N   0  0  0  0  0  0  0  0  0  0  0  0
    6.3280    0.6090   17.7670 N   0  0  0  0  0  0  0  0  0  0  0  0
    5.1710    1.2750   17.6830 C   0  0  0  0  0  0  0  0  0  0  0  0
    4.2870    1.6170   18.8450 C   0  0  0  0  0  0  0  0  0  0  0  0
    4.7960    1.1740   20.1810 C   0  0  0  0  0  0  0  0  0  0  0  0
    5.9880    0.5220   20.2170 C   0  0  0  0  0  0  0  0  0  0  0  0
    6.7210    0.2380   19.0790 C   0  0  0  0  0  0  0  0  0  0  0  0
    9.6400   -1.5180   24.3390 N   0  0  0  0  0  0  0  0  0  0  0  0
    8.3640   -1.4760   23.8800 N   0  0  0  0  0  0  0  0  0  0  0  0
    8.2220   -1.3770   22.5020 C   0  0  0  0  0  0  0  0  0  0  0  0
    9.5900   -1.3610   22.0810 C   0  0  0  0  0  0  0  0  0  0  0  0
   10.3990   -1.4410   23.2120 C   0  0  0  0  0  0  0  0  0  0  0  0
    9.5010    3.3820   23.5000 C   0  0  0  0  0  0  0  0  0  0  0  0
   10.1900    4.6270   23.6140 C   0  0  0  0  0  0  0  0  0  0  0  0
    9.5740    5.8230   23.1750 C   0  0  0  0  0  0  0  0  0  0  0  0
    8.2790    5.7500   22.6290 C   0  0  0  0  0  0  0  0  0  0  0  0
    7.5990    4.5330   22.5170 C   0  0  0  0  0  0  0  0  0  0  0  0
    8.2060    3.3600   22.9530 C   0  0  0  0  0  0  0  0  0  0  0  0
    8.7070   -6.0550   23.1910 C   0  0  0  0  0  0  0  0  0  0  0  0
    9.6320   -5.7600   24.1880 C   0  0  0  0  0  0  0  0  0  0  0  0
    9.4790   -4.6420   24.9720 C   0  0  0  0  0  0  0  0  0  0  0  0
    8.4010   -3.8190   24.7600 C   0  0  0  0  0  0  0  0  0  0  0  0
    7.4660   -4.0900   23.7720 C   0  0  0  0  0  0  0  0  0  0  0  0
    7.6330   -5.2460   22.9640 C   0  0  0  0  0  0  0  0  0  0  0  0
    4.6330   -6.3960   22.1230 C   0  0  0  0  0  0  0  0  0  0  0  0
    5.3880   -5.4300   22.6690 C   0  0  1  0  0  0  0  0  0  0  0  0
    5.4040   -5.4740   24.0820 C   0  0  0  0  0  0  0  0  0  0  0  0
    3.9010   -6.3830   24.4670 S   0  0  0  0  0  0  0  0  0  0  0  0
    3.6810   -6.9940   22.8740 C   0  0  0  0  0  0  0  0  0  0  0  0
  2  4  1  0
  1  7  1  0
  3  7  2  0
  4  7  1  0
  1  8  1  0
  5  9  1  0
  6  9  2  0
  8  9  1  6
 10 11  1  0
 13 14  1  0
 13 15  1  0
 13 16  1  0
  2 17  1  1
  2 18  1  0
 16 22  3  0
 23 24  2  0
 24 25  1  0
 21 26  1  0
 25 26  2  0
  8 27  1  0
 26 27  1  0
 23 28  1  0
 27 28  2  0
 29 30  1  0
  1 31  1  0
 30 31  1  0
 31 32  2  0
 13 33  1  0
 29 33  2  0
 32 33  1  0
 10 34  1  0
 34 35  2  0
 35 36  1  0
 36 37  2  0
 12 38  1  0
 37 38  1  0
  5 39  1  0
 34 39  1  0
 38 39  2  0
 40 41  2  0
 41 42  1  0
 42 43  2  0
 43 44  1  0
 18 45  1  0
 40 45  1  0
 44 45  2  0
 47 18  1  6
 46 47  1  0
 47 48  1  0
 49 19  1  0
 20 49  1  0
 48 49  1  0
 46 50  2  0
 49 50  1  0
M  END
