x2563-x2705-x1311-x2572
     RDKit          3D

 51 57  0  0  0  0  0  0  0  0999 V2000
    6.0480   -1.1020   22.3380 N   0  0  0  0  0  0  0  0  0  0  0  0
    6.8130   -4.1420   20.4580 C   0  0  2  0  0  0  0  0  0  0  0  0
    4.6910   -2.9680   21.4360 O   0  0  0  0  0  0  0  0  0  0  0  0
    6.9820   -2.8780   21.1040 C   0  0  0  0  0  0  0  0  0  0  0  0
    7.6180    1.8670   22.9050 N   0  0  0  0  0  0  0  0  0  0  0  0
    8.6800    1.0410   21.0910 O   0  0  0  0  0  0  0  0  0  0  0  0
    5.7900   -2.3180   21.6400 C   0  0  0  0  0  0  0  0  0  0  0  0
    6.5890    0.1670   21.7210 C   0  0  1  0  0  0  0  0  0  0  0  0
    7.9560    0.7860   22.0600 C   0  0  2  0  0  0  0  0  0  0  0  0
   10.3260    2.0740   23.9820 C   0  0  0  0  0  0  0  0  0  0  0  0
    9.4360    1.1890   24.8500 C   0  0  0  0  0  0  0  0  0  0  0  0
    6.2090    4.2490   21.9180 C   0  0  0  0  0  0  0  0  0  0  0  0
   12.2920   -1.4770   23.4320 C   0  0  0  0  0  0  0  0  0  0  0  0
   12.8500   -0.2200   24.0790 C   0  0  0  0  0  0  0  0  0  0  0  0
   12.6010   -2.6620   24.3600 C   0  0  0  0  0  0  0  0  0  0  0  0
   12.9770   -1.6070   22.1220 C   0  0  0  0  0  0  0  0  0  0  0  0
    5.6420   -4.2610   19.6640 O   0  0  0  0  0  0  0  0  0  0  0  0
    6.5530   -5.0400   21.6760 N   0  0  0  0  0  0  0  0  0  0  0  0
    4.2960   -6.6680   25.5550 O   0  0  0  0  0  0  0  0  0  0  0  0
    2.5230   -5.3450   24.3760 O   0  0  0  0  0  0  0  0  0  0  0  0
   13.4650   -1.6560   21.0660 N   0  0  0  0  0  0  0  0  0  0  0  0
    5.4240    1.3050   18.6360 C   0  0  1  0  0  0  0  0  0  0  0  0
    5.0100   -0.0480   18.1980 C   0  0  0  0  0  0  0  0  0  0  0  0
    5.0130    0.1530   19.6100 C   0  0  1  0  0  0  0  0  0  0  0  0
    6.1080    0.5640   20.3130 C   0  0  0  0  0  0  0  0  0  0  0  0
    6.6530    1.4530   19.5100 C   0  0  0  0  0  0  0  0  0  0  0  0
    9.7970   -1.7880   23.9300 N   0  0  0  0  0  0  0  0  0  0  0  0
    8.6190   -1.2200   23.5920 N   0  0  0  0  0  0  0  0  0  0  0  0
    8.9020   -0.2190   22.7400 C   0  0  0  0  0  0  0  0  0  0  0  0
   10.2810   -0.2020   22.5560 C   0  0  0  0  0  0  0  0  0  0  0  0
   10.8280   -1.1820   23.3150 C   0  0  0  0  0  0  0  0  0  0  0  0
    9.5600    3.2640   23.4820 C   0  0  0  0  0  0  0  0  0  0  0  0
   10.1820    4.5310   23.5480 C   0  0  0  0  0  0  0  0  0  0  0  0
    9.4970    5.6700   23.0860 C   0  0  0  0  0  0  0  0  0  0  0  0
    8.2160    5.5550   22.5620 C   0  0  0  0  0  0  0  0  0  0  0  0
    7.6000    4.3040   22.4980 C   0  0  0  0  0  0  0  0  0  0  0  0
    8.2600    3.1340   22.9610 C   0  0  0  0  0  0  0  0  0  0  0  0
    8.6020   -5.8770   22.7100 C   0  0  0  0  0  0  0  0  0  0  0  0
    9.3880   -6.0510   23.8320 C   0  0  0  0  0  0  0  0  0  0  0  0
    9.0110   -5.5480   25.0310 C   0  0  0  0  0  0  0  0  0  0  0  0
    7.8220   -4.8380   25.1120 C   0  0  0  0  0  0  0  0  0  0  0  0
    7.0510   -4.6730   23.9810 C   0  0  0  0  0  0  0  0  0  0  0  0
    7.4230   -5.2050   22.7570 C   0  0  0  0  0  0  0  0  0  0  0  0
    4.6920   -6.4370   22.1130 C   0  0  0  0  0  0  0  0  0  0  0  0
    5.1800   -5.0430   22.2800 C   0  0  1  0  0  0  0  0  0  0  0  0
    5.0850   -4.8280   23.8260 C   0  0  0  0  0  0  0  0  0  0  0  0
    3.8260   -5.9700   24.3690 S   0  0  0  0  0  0  0  0  0  0  0  0
    3.9680   -6.9690   23.1100 C   0  0  0  0  0  0  0  0  0  0  0  0
    4.3460    2.4020   18.9800 C   0  0  0  0  0  0  0  0  0  0  0  0
    3.4470    1.8050   20.0590 C   0  0  0  0  0  0  0  0  0  0  0  0
    3.8410    0.6020   20.3440 C   0  0  0  0  0  0  0  0  0  0  0  0
  2  4  1  0
  1  7  1  0
  3  7  2  0
  4  7  1  0
  8  1  1  6
  5  9  1  0
  9  6  1  6
  8  9  1  0
 10 11  1  0
 13 14  1  0
 13 15  1  0
 13 16  1  0
  2 17  1  6
  2 18  1  0
 16 21  3  0
 22 23  1  6
 22 24  1  0
 24 23  1  6
  8 25  1  0
 24 25  1  0
 22 26  1  0
 25 26  2  0
 27 28  1  0
  9 29  1  0
 28 29  2  0
 29 30  1  0
 13 31  1  0
 27 31  1  0
 30 31  2  0
 10 32  1  0
 32 33  2  0
 33 34  1  0
 34 35  2  0
 12 36  1  0
 35 36  1  0
  5 37  1  0
 32 37  1  0
 36 37  2  0
 38 39  2  0
 39 40  1  0
 40 41  2  0
 41 42  1  0
 18 43  1  0
 38 43  1  0
 42 43  2  0
 45 18  1  1
 44 45  1  0
 45 46  1  0
 47 19  1  0
 20 47  1  0
 46 47  1  0
 44 48  2  0
 47 48  1  0
 22 49  1  0
 49 50  1  0
 24 51  1  0
 50 51  2  0
M  END
