x2563-x0689
     RDKit          3D

 38 42  0  0  0  0  0  0  0  0999 V2000
    7.5140   -3.7110   20.5330 C   0  0  0  0  0  0  0  0  0  0  0  0
    5.4790   -4.8880   20.0020 O   0  0  0  0  0  0  0  0  0  0  0  0
    6.4670   -4.7230   20.7740 C   0  0  0  0  0  0  0  0  0  0  0  0
    3.8540   -6.3620   26.1000 O   0  0  0  0  0  0  0  0  0  0  0  0
    5.6520   -4.7090   26.7540 O   0  0  0  0  0  0  0  0  0  0  0  0
    4.6130   -5.1570   25.8570 S   0  0  0  0  0  0  0  0  0  0  0  0
    8.2490   -0.4100   21.1900 C   0  0  0  0  0  0  0  0  0  0  0  0
    8.2660    0.8240   21.1870 O   0  0  0  0  0  0  0  0  0  0  0  0
    7.3810   -1.1040   20.2500 C   0  0  1  0  0  0  0  0  0  0  0  0
    9.0010   -1.2010   21.9990 N   0  0  0  0  0  0  0  0  0  0  0  0
    6.7270   -2.3750   20.6250 C   0  0  0  0  0  0  0  0  0  0  0  0
    6.6100   -5.4680   21.9080 N   0  0  0  0  0  0  0  0  0  0  0  0
    5.5640   -6.4440   22.1720 C   0  0  0  0  0  0  0  0  0  0  0  0
    4.5630   -5.9350   23.2000 C   0  0  0  0  0  0  0  0  0  0  0  0
    5.3320   -5.3290   24.3270 N   0  0  0  0  0  0  0  0  0  0  0  0
    6.3780   -4.3430   23.9420 C   0  0  0  0  0  0  0  0  0  0  0  0
    7.2820   -4.9420   23.1090 C   0  0  0  0  0  0  0  0  0  0  0  0
    3.8250   -2.2720   26.1410 S   0  0  0  0  0  0  0  0  0  0  0  0
    3.3760   -3.8840   25.7640 C   0  0  0  0  0  0  0  0  0  0  0  0
    2.0700   -3.9270   25.4430 C   0  0  0  0  0  0  0  0  0  0  0  0
    1.3820   -2.7190   25.4890 C   0  0  0  0  0  0  0  0  0  0  0  0
    2.2340   -1.6850   25.8690 C   0  0  0  0  0  0  0  0  0  0  0  0
    6.1070    0.8090   17.4210 N   0  0  0  0  0  0  0  0  0  0  0  0
    5.1120    1.5390   17.9250 C   0  0  0  0  0  0  0  0  0  0  0  0
    4.7240    1.4910   19.3240 C   0  0  0  0  0  0  0  0  0  0  0  0
    5.4520    0.6240   20.1710 C   0  0  0  0  0  0  0  0  0  0  0  0
    6.4730   -0.1150   19.5910 C   0  0  0  0  0  0  0  0  0  0  0  0
    6.7360    0.0170   18.2870 C   0  0  0  0  0  0  0  0  0  0  0  0
    3.6740    2.2770   19.7990 C   0  0  0  0  0  0  0  0  0  0  0  0
    3.3090    2.2400   21.1330 C   0  0  0  0  0  0  0  0  0  0  0  0
    4.0180    1.4010   21.9780 C   0  0  0  0  0  0  0  0  0  0  0  0
    5.0620    0.6060   21.5190 C   0  0  0  0  0  0  0  0  0  0  0  0
   11.2640   -0.7080   22.4430 C   0  0  0  0  0  0  0  0  0  0  0  0
   12.2260   -0.0360   23.1640 C   0  0  0  0  0  0  0  0  0  0  0  0
   11.7990    0.7740   24.1850 C   0  0  0  0  0  0  0  0  0  0  0  0
   10.4500    0.9270   24.5130 C   0  0  0  0  0  0  0  0  0  0  0  0
    9.5110    0.2620   23.7970 C   0  0  0  0  0  0  0  0  0  0  0  0
    9.9180   -0.5450   22.7630 C   0  0  0  0  0  0  0  0  0  0  0  0
  1  3  1  0
  2  3  2  0
  4  6  2  0
  5  6  2  0
  7  8  2  0
  7  9  1  0
  7 10  1  0
  1 11  1  0
  9 11  1  1
  3 12  1  0
 12 13  1  0
 13 14  1  0
  6 15  1  0
 14 15  1  0
 15 16  1  0
 12 17  1  0
 16 17  1  0
  6 19  1  0
 18 19  1  0
 19 20  2  0
 20 21  1  0
 18 22  1  0
 21 22  2  0
 23 24  2  0
 24 25  1  0
 25 26  2  0
  9 27  1  0
 26 27  1  0
 23 28  1  0
 27 28  2  0
 25 29  1  0
 29 30  2  0
 30 31  1  0
 26 32  1  0
 31 32  2  0
 33 34  2  0
 34 35  1  0
 35 36  2  0
 36 37  1  0
 10 38  1  0
 33 38  1  0
 37 38  2  0
M  END
