x2569-x1334
     RDKit          3D

 34 38  0  0  0  0  0  0  0  0999 V2000
    8.3780   -0.0230   21.5210 C   0  0  0  0  0  0  0  0  0  0  0  0
    8.7300    1.1720   21.3240 O   0  0  0  0  0  0  0  0  0  0  0  0
    8.8530   -0.8350   22.6980 C   0  0  2  0  0  0  0  0  0  0  0  0
   13.7980   -1.4110   20.5510 N   0  0  0  0  0  0  0  0  0  0  0  0
    7.5120   -0.6690   20.5310 N   0  0  0  0  0  0  0  0  0  0  0  0
   13.3300   -1.8630   21.8110 C   0  0  0  0  0  0  0  0  0  0  0  0
    7.3420   -2.9590   18.8350 C   0  0  0  0  0  0  0  0  0  0  0  0
    5.4620   -4.0740   19.7360 O   0  0  0  0  0  0  0  0  0  0  0  0
    7.3830   -5.8230   28.4240 Cl  0  0  0  0  0  0  0  0  0  0  0  0
    6.3700   -3.2080   19.9440 C   0  0  0  0  0  0  0  0  0  0  0  0
    9.4780   -3.1980   23.9610 C   0  0  0  0  0  0  0  0  0  0  0  0
   11.9530    0.8340   23.9490 N   0  0  0  0  0  0  0  0  0  0  0  0
   12.9380    0.0130   23.2720 C   0  0  0  0  0  0  0  0  0  0  0  0
   12.4990   -1.0110   22.4910 C   0  0  0  0  0  0  0  0  0  0  0  0
   11.2090   -1.2530   22.3360 C   0  0  0  0  0  0  0  0  0  0  0  0
   10.2620   -0.4760   22.9670 C   0  0  0  0  0  0  0  0  0  0  0  0
   10.6440    0.5580   23.7720 C   0  0  0  0  0  0  0  0  0  0  0  0
    6.2570    0.9550   17.5830 N   0  0  0  0  0  0  0  0  0  0  0  0
    6.9410    0.2910   18.4690 C   0  0  0  0  0  0  0  0  0  0  0  0
    6.5750    0.0650   19.7420 C   0  0  0  0  0  0  0  0  0  0  0  0
    5.3100    0.5360   20.3270 C   0  0  0  0  0  0  0  0  0  0  0  0
    4.4710    1.3040   19.3800 C   0  0  0  0  0  0  0  0  0  0  0  0
    4.9750    1.4760   18.0880 C   0  0  0  0  0  0  0  0  0  0  0  0
    6.3910   -2.6090   21.2260 N   0  0  0  0  0  0  0  0  0  0  0  0
    7.2540   -1.6100   21.5910 C   0  0  1  0  0  0  0  0  0  0  0  0
    8.5270   -2.0820   21.9600 C   0  0  2  0  0  0  0  0  0  0  0  0
    8.5030   -3.2520   22.8530 N   0  0  0  0  0  0  0  0  0  0  0  0
    7.1550   -3.6560   23.3060 C   0  0  0  0  0  0  0  0  0  0  0  0
    6.1270   -3.4310   22.4010 C   0  0  0  0  0  0  0  0  0  0  0  0
    9.7590   -5.3080   25.2500 C   0  0  0  0  0  0  0  0  0  0  0  0
    9.1480   -4.0880   25.0250 C   0  0  0  0  0  0  0  0  0  0  0  0
    7.9380   -3.7680   26.2000 S   0  0  0  0  0  0  0  0  0  0  0  0
    8.2680   -5.3570   27.0380 C   0  0  0  0  0  0  0  0  0  0  0  0
    9.2890   -6.0370   26.3680 C   0  0  0  0  0  0  0  0  0  0  0  0
  1  2  2  0
  1  3  1  0
  1  5  1  0
  4  6  3  0
  7 10  1  0
  8 10  2  0
 12 13  2  0
  6 14  1  0
 13 14  1  0
 14 15  2  0
  3 16  1  6
 15 16  1  0
 12 17  1  0
 16 17  2  0
 18 19  2  0
  5 20  1  0
 19 20  1  0
 20 21  2  0
 21 22  1  0
 18 23  1  0
 22 23  2  0
 10 24  1  0
 25  5  1  6
 24 25  1  0
  3 26  1  0
 25 26  1  0
 11 27  1  0
 26 27  1  1
 27 28  1  0
 24 29  1  0
 28 29  1  0
 11 31  1  0
 30 31  2  0
 31 32  1  0
  9 33  1  0
 32 33  1  0
 30 34  1  0
 33 34  2  0
M  END
