x2562-x0991
     RDKit          3D

 29 31  0  0  0  0  0  0  0  0999 V2000
    8.3960    0.1400   21.4340 C   0  0  0  0  0  0  0  0  0  0  0  0
    8.5620    1.5270   21.1030 O   0  0  0  0  0  0  0  0  0  0  0  0
    7.1360   -0.6050   21.0390 C   0  0  0  0  0  0  0  0  0  0  0  0
   12.0900    2.9190   23.3320 O   0  0  0  0  0  0  0  0  0  0  0  0
    9.3730   -0.7030   22.1570 N   0  0  0  0  0  0  0  0  0  0  0  0
   13.3810    6.7920   21.9490 O   0  0  0  0  0  0  0  0  0  0  0  0
    9.9930   -5.7650   25.5820 N   0  0  0  0  0  0  0  0  0  0  0  0
    8.9720   -3.5630   23.9080 C   0  0  0  0  0  0  0  0  0  0  0  0
    8.2320   -4.7770   24.3070 C   0  0  0  0  0  0  0  0  0  0  0  0
    7.8790   -5.3970   26.8030 N   0  0  0  0  0  0  0  0  0  0  0  0
    8.6990   -5.3250   25.5910 C   0  0  0  0  0  0  0  0  0  0  0  0
    9.3250   -2.1540   21.9090 C   0  0  0  0  0  0  0  0  0  0  0  0
    8.3030   -2.8750   22.7370 C   0  0  0  0  0  0  0  0  0  0  0  0
    4.6330    1.5550   19.2770 N   0  0  0  0  0  0  0  0  0  0  0  0
    5.0960    1.3910   18.0290 C   0  0  0  0  0  0  0  0  0  0  0  0
    6.1460    0.6320   17.6640 N   0  0  0  0  0  0  0  0  0  0  0  0
    6.7800   -0.0020   18.6570 C   0  0  0  0  0  0  0  0  0  0  0  0
    6.4020    0.0990   19.9670 C   0  0  0  0  0  0  0  0  0  0  0  0
    5.3330    0.8770   20.2140 C   0  0  0  0  0  0  0  0  0  0  0  0
   12.5060    4.5930   21.6890 N   0  0  0  0  0  0  0  0  0  0  0  0
   12.6150    5.7880   22.5580 C   0  0  1  0  0  0  0  0  0  0  0  0
   13.2810    4.9440   23.3670 C   0  0  0  0  0  0  0  0  0  0  0  0
   13.0430    3.6820   22.7540 C   0  0  1  0  0  0  0  0  0  0  0  0
   11.7340   -1.0750   22.2780 C   0  0  0  0  0  0  0  0  0  0  0  0
   13.0450   -0.5420   22.5210 C   0  0  0  0  0  0  0  0  0  0  0  0
   13.1840    0.7930   22.8660 C   0  0  0  0  0  0  0  0  0  0  0  0
   12.0510    1.6020   22.9850 C   0  0  0  0  0  0  0  0  0  0  0  0
   10.8350    1.0850   22.7530 C   0  0  0  0  0  0  0  0  0  0  0  0
   10.6770   -0.2280   22.4010 C   0  0  0  0  0  0  0  0  0  0  0  0
  1  2  2  0
  1  3  1  0
  1  5  1  0
  8  9  1  0
  7 11  2  3
  9 11  1  0
 10 11  1  0
  5 12  1  0
  8 13  1  0
 12 13  1  0
 14 15  2  0
 15 16  1  0
 16 17  2  0
  3 18  1  0
 17 18  1  0
 14 19  1  0
 18 19  2  0
 21  6  1  6
 20 21  1  0
 21 22  1  0
 23  4  1  1
 20 23  1  0
 22 23  1  0
 24 25  2  0
 25 26  1  0
  4 27  1  0
 26 27  2  0
 27 28  1  0
  5 29  1  0
 24 29  1  0
 28 29  2  0
M  END
