x2569-x2052
     RDKit          3D

 38 41  0  0  0  0  0  0  0  0999 V2000
    6.0410   -1.4470   24.7130 C   0  0  0  0  0  0  0  0  0  0  0  0
    5.0180   -2.0230   25.1080 O   0  0  0  0  0  0  0  0  0  0  0  0
    6.9370   -0.7210   25.6790 N   0  0  0  0  0  0  0  0  0  0  0  0
    5.4520   -4.6550   19.9610 O   0  0  0  0  0  0  0  0  0  0  0  0
    5.5380    2.0680   30.4680 O   0  0  0  0  0  0  0  0  0  0  0  0
    6.3760   -3.8720   20.3030 C   0  0  0  0  0  0  0  0  0  0  0  0
    7.1650   -3.1610   19.2640 C   0  0  0  0  0  0  0  0  0  0  0  0
    6.0470    3.1880   30.5370 C   0  0  0  0  0  0  0  0  0  0  0  0
    8.1070    0.3700   21.6050 C   0  0  0  0  0  0  0  0  0  0  0  0
    8.8180    1.3650   21.3730 O   0  0  0  0  0  0  0  0  0  0  0  0
    8.6840   -0.9370   22.1140 C   0  0  2  0  0  0  0  0  0  0  0  0
   13.4450   -3.1210   20.7340 N   0  0  0  0  0  0  0  0  0  0  0  0
    6.7630    0.2680   21.3870 N   0  0  0  0  0  0  0  0  0  0  0  0
   12.9470   -2.0990   21.6230 C   0  0  0  0  0  0  0  0  0  0  0  0
    6.6910   -3.6880   21.6650 N   0  0  0  0  0  0  0  0  0  0  0  0
    7.8440   -3.0960   22.1980 C   0  0  0  0  0  0  0  0  0  0  0  0
    7.6820   -1.9090   22.8640 C   0  0  2  0  0  0  0  0  0  0  0  0
    6.3680   -1.4630   23.1810 C   0  0  1  0  0  0  0  0  0  0  0  0
    5.3890   -2.2510   22.6550 C   0  0  0  0  0  0  0  0  0  0  0  0
    5.6680   -3.6100   22.4810 C   0  0  0  0  0  0  0  0  0  0  0  0
    6.6330    2.0100   28.3870 N   0  0  0  0  0  0  0  0  0  0  0  0
    6.9370    1.2930   27.2620 C   0  0  0  0  0  0  0  0  0  0  0  0
    6.5270   -0.0850   26.9410 C   0  0  0  0  0  0  0  0  0  0  0  0
    5.7040   -0.6950   27.9900 C   0  0  0  0  0  0  0  0  0  0  0  0
    5.4190    0.0740   29.1240 C   0  0  0  0  0  0  0  0  0  0  0  0
    5.8670    1.3900   29.3260 C   0  0  0  0  0  0  0  0  0  0  0  0
   11.7390    0.5750   24.0440 N   0  0  0  0  0  0  0  0  0  0  0  0
   12.7140   -0.1590   23.4670 C   0  0  0  0  0  0  0  0  0  0  0  0
   12.3750   -1.0590   22.5530 C   0  0  0  0  0  0  0  0  0  0  0  0
   11.1680   -1.4000   22.0590 C   0  0  0  0  0  0  0  0  0  0  0  0
   10.1140   -0.6920   22.5870 C   0  0  0  0  0  0  0  0  0  0  0  0
   10.4730    0.2760   23.5730 C   0  0  0  0  0  0  0  0  0  0  0  0
    6.3220    0.6280   17.7170 N   0  0  0  0  0  0  0  0  0  0  0  0
    6.8220    0.2630   18.9100 C   0  0  0  0  0  0  0  0  0  0  0  0
    6.2380    0.6100   20.1090 C   0  0  0  0  0  0  0  0  0  0  0  0
    5.0840    1.3400   20.1380 C   0  0  0  0  0  0  0  0  0  0  0  0
    4.5310    1.7320   18.9450 C   0  0  0  0  0  0  0  0  0  0  0  0
    5.1820    1.3630   17.7650 C   0  0  0  0  0  0  0  0  0  0  0  0
  1  2  2  0
  1  3  1  0
  4  6  2  0
  6  7  1  0
  5  8  1  0
  9 10  2  0
 11  9  1  1
  9 13  1  0
 12 14  3  0
  6 15  1  0
 15 16  1  0
 11 17  1  0
 17 16  1  6
 18  1  1  1
 17 18  1  0
 18 19  1  0
 15 20  1  0
 19 20  1  0
 21 22  2  0
  3 23  1  0
 22 23  1  0
 23 24  2  0
 24 25  1  0
  5 26  1  0
 21 26  1  0
 25 26  2  0
 27 28  2  0
 14 29  1  0
 28 29  1  0
 29 30  2  0
 11 31  1  0
 30 31  1  0
 27 32  1  0
 31 32  2  0
 33 34  2  0
 13 35  1  0
 34 35  1  0
 35 36  2  0
 36 37  1  0
 33 38  1  0
 37 38  2  0
M  END
