x2563-x0991
     RDKit          3D

 26 28  0  0  0  0  0  0  0  0999 V2000
    8.2380   -0.4380   21.3200 C   0  0  0  0  0  0  0  0  0  0  0  0
    8.4290    0.7780   21.2210 O   0  0  0  0  0  0  0  0  0  0  0  0
    7.2060   -1.1070   20.5170 C   0  0  0  0  0  0  0  0  0  0  0  0
    9.0080   -1.3290   22.2230 N   0  0  0  0  0  0  0  0  0  0  0  0
    9.8460   -5.7500   25.0290 N   0  0  0  0  0  0  0  0  0  0  0  0
    8.9220   -3.6420   23.2850 C   0  0  0  0  0  0  0  0  0  0  0  0
    8.0070   -4.7290   23.8020 C   0  0  0  0  0  0  0  0  0  0  0  0
    7.6930   -5.7000   26.2490 N   0  0  0  0  0  0  0  0  0  0  0  0
    8.5120   -5.4070   25.0440 C   0  0  0  0  0  0  0  0  0  0  0  0
    8.2490   -2.2570   23.0610 C   0  0  0  0  0  0  0  0  0  0  0  0
    6.1890    0.7340   17.5720 N   0  0  0  0  0  0  0  0  0  0  0  0
    5.0520    1.5980   17.8920 C   0  0  0  0  0  0  0  0  0  0  0  0
    4.7130    1.4340   19.2490 C   0  0  0  0  0  0  0  0  0  0  0  0
    5.3570    0.5880   20.1510 C   0  0  0  0  0  0  0  0  0  0  0  0
    6.4070   -0.1600   19.7080 C   0  0  0  0  0  0  0  0  0  0  0  0
    6.7620   -0.0510   18.4730 C   0  0  0  0  0  0  0  0  0  0  0  0
    3.6210    2.2190   19.6780 C   0  0  0  0  0  0  0  0  0  0  0  0
    3.1580    2.1870   20.9810 C   0  0  0  0  0  0  0  0  0  0  0  0
    3.8070    1.3220   21.9570 C   0  0  0  0  0  0  0  0  0  0  0  0
    4.9220    0.5200   21.4910 C   0  0  0  0  0  0  0  0  0  0  0  0
   11.3520   -0.7560   22.5220 C   0  0  0  0  0  0  0  0  0  0  0  0
   12.3060    0.0130   23.1410 C   0  0  0  0  0  0  0  0  0  0  0  0
   11.8610    0.9160   24.0760 C   0  0  0  0  0  0  0  0  0  0  0  0
   10.5410    1.0500   24.3960 C   0  0  0  0  0  0  0  0  0  0  0  0
    9.5910    0.2980   23.7960 C   0  0  0  0  0  0  0  0  0  0  0  0
   10.0000   -0.6040   22.8500 C   0  0  0  0  0  0  0  0  0  0  0  0
  1  2  2  0
  1  3  1  0
  1  4  1  0
  6  7  1  0
  5  9  2  3
  7  9  1  0
  8  9  1  0
  4 10  1  0
  6 10  1  0
 11 12  2  0
 12 13  1  0
 13 14  2  0
  3 15  1  0
 14 15  1  0
 11 16  1  0
 15 16  2  0
 13 17  1  0
 17 18  2  0
 18 19  1  0
 14 20  1  0
 19 20  2  0
 21 22  2  0
 22 23  1  0
 23 24  2  0
 24 25  1  0
  4 26  1  0
 21 26  1  0
 25 26  2  0
M  END
