x2569-x0995
     RDKit          3D

 19 20  0  0  0  0  0  0  0  0999 V2000
    8.0940   -0.1020   21.8680 C   0  0  0  0  0  0  0  0  0  0  0  0
    8.6660    0.9030   21.4160 O   0  0  0  0  0  0  0  0  0  0  0  0
    8.6720   -0.9400   22.9940 C   0  0  0  0  0  0  0  0  0  0  0  0
   13.2830   -2.7760   20.8480 N   0  0  0  0  0  0  0  0  0  0  0  0
    6.8140   -0.5120   21.3040 N   0  0  0  0  0  0  0  0  0  0  0  0
   13.5300   -1.4460   21.2690 C   0  0  0  0  0  0  0  0  0  0  0  0
    3.3120    2.2200   19.0200 N   0  0  0  0  0  0  0  0  0  0  0  0
   12.0600    0.5090   24.2590 N   0  0  0  0  0  0  0  0  0  0  0  0
   12.8960   -0.0150   23.3600 C   0  0  0  0  0  0  0  0  0  0  0  0
   12.5740   -0.9010   22.2410 C   0  0  0  0  0  0  0  0  0  0  0  0
   11.0910   -1.2050   22.1650 C   0  0  0  0  0  0  0  0  0  0  0  0
   10.1240   -0.6170   23.1590 C   0  0  0  0  0  0  0  0  0  0  0  0
   10.7040    0.1910   24.1250 C   0  0  0  0  0  0  0  0  0  0  0  0
    6.4050    0.6120   17.7300 N   0  0  0  0  0  0  0  0  0  0  0  0
    6.8850    0.0260   18.8450 C   0  0  0  0  0  0  0  0  0  0  0  0
    6.3020    0.0890   20.0890 C   0  0  0  0  0  0  0  0  0  0  0  0
    5.1600    0.7870   20.1490 C   0  0  0  0  0  0  0  0  0  0  0  0
    4.5610    1.4300   19.0710 C   0  0  0  0  0  0  0  0  0  0  0  0
    5.2440    1.3090   17.8650 C   0  0  0  0  0  0  0  0  0  0  0  0
  1  2  2  0
  1  3  1  0
  1  5  1  0
  4  6  3  0
  8  9  2  0
  6 10  1  0
  9 10  1  0
 10 11  2  0
  3 12  1  0
 11 12  1  0
  8 13  1  0
 12 13  2  0
 14 15  2  0
  5 16  1  0
 15 16  1  0
 16 17  2  0
  7 18  1  0
 17 18  1  0
 14 19  1  0
 18 19  2  0
M  END
