x2563-x2562
     RDKit          3D

 25 28  0  0  0  0  0  0  0  0999 V2000
    8.4640   -0.1650   21.4790 C   0  0  0  0  0  0  0  0  0  0  0  0
    8.4530    1.0630   21.3410 O   0  0  0  0  0  0  0  0  0  0  0  0
    7.4160   -1.0190   20.8950 C   0  0  0  0  0  0  0  0  0  0  0  0
   12.2050    2.9220   23.3250 O   0  0  0  0  0  0  0  0  0  0  0  0
    9.5000   -0.9200   22.1970 N   0  0  0  0  0  0  0  0  0  0  0  0
   13.3680    6.8420   21.9640 O   0  0  0  0  0  0  0  0  0  0  0  0
    4.5520    1.4400   19.4800 N   0  0  0  0  0  0  0  0  0  0  0  0
    4.9470    1.5280   18.1780 C   0  0  0  0  0  0  0  0  0  0  0  0
    6.1110    0.7510   17.6950 N   0  0  0  0  0  0  0  0  0  0  0  0
    6.8010   -0.0100   18.5780 C   0  0  0  0  0  0  0  0  0  0  0  0
    6.5180   -0.1800   20.0020 C   0  0  0  0  0  0  0  0  0  0  0  0
    5.3020    0.6060   20.4060 C   0  0  0  0  0  0  0  0  0  0  0  0
   12.5190    4.6030   21.7600 N   0  0  0  0  0  0  0  0  0  0  0  0
   12.7550    5.7880   22.6320 C   0  0  1  0  0  0  0  0  0  0  0  0
   13.5140    4.8860   23.2200 C   0  0  0  0  0  0  0  0  0  0  0  0
   13.1710    3.7420   22.6440 C   0  0  1  0  0  0  0  0  0  0  0  0
   11.8620   -1.1420   22.3330 C   0  0  0  0  0  0  0  0  0  0  0  0
   13.0650   -0.5980   22.5430 C   0  0  0  0  0  0  0  0  0  0  0  0
   13.2110    0.7590   22.8670 C   0  0  0  0  0  0  0  0  0  0  0  0
   12.1200    1.5980   22.9960 C   0  0  0  0  0  0  0  0  0  0  0  0
   10.7930    1.0680   22.7780 C   0  0  0  0  0  0  0  0  0  0  0  0
   10.7200   -0.3430   22.4370 C   0  0  0  0  0  0  0  0  0  0  0  0
    3.5260    2.0080   20.1490 C   0  0  0  0  0  0  0  0  0  0  0  0
    3.6090    1.5640   21.4440 C   0  0  0  0  0  0  0  0  0  0  0  0
    4.6770    0.7070   21.6390 C   0  0  0  0  0  0  0  0  0  0  0  0
  1  2  2  0
  1  3  1  0
  1  5  1  0
  7  8  1  0
  8  9  2  0
  9 10  1  0
  3 11  1  0
 10 11  2  0
  7 12  1  0
 11 12  1  0
 14  6  1  6
 13 14  1  0
 14 15  1  0
 16  4  1  1
 13 16  1  0
 15 16  1  0
 17 18  2  0
 18 19  1  0
  4 20  1  0
 19 20  2  0
 20 21  1  0
  5 22  1  0
 17 22  1  0
 21 22  2  0
  7 23  1  0
 23 24  2  0
 12 25  2  0
 24 25  1  0
M  END
