x2563-x1249
     RDKit          3D

 31 34  0  0  0  0  0  0  0  0999 V2000
    8.1290    0.6690   24.8820 N   0  0  0  0  0  0  0  0  0  0  0  0
    7.4260    1.6380   24.2340 C   0  0  0  0  0  0  0  0  0  0  0  0
    8.0560    2.5410   23.6900 O   0  0  0  0  0  0  0  0  0  0  0  0
    9.4180    0.9120   25.2680 C   0  0  0  0  0  0  0  0  0  0  0  0
   13.5860   -2.6190   20.7270 N   0  0  0  0  0  0  0  0  0  0  0  0
   13.0030   -1.8280   21.6190 C   0  0  0  0  0  0  0  0  0  0  0  0
    8.4410   -0.0510   21.1840 C   0  0  0  0  0  0  0  0  0  0  0  0
    8.4070    1.3870   20.8840 O   0  0  0  0  0  0  0  0  0  0  0  0
    7.3950   -0.8380   20.4840 C   0  0  0  0  0  0  0  0  0  0  0  0
    9.3750   -0.6370   22.0060 N   0  0  0  0  0  0  0  0  0  0  0  0
    3.6680    0.4750   23.1160 O   0  0  0  0  0  0  0  0  0  0  0  0
    4.3550    1.2400   22.4230 C   0  0  2  0  0  0  0  0  0  0  0  0
    5.2300    2.1450   23.2520 C   0  0  0  0  0  0  0  0  0  0  0  0
    6.0450    1.5730   24.2220 N   0  0  0  0  0  0  0  0  0  0  0  0
    5.4180    0.3690   24.7470 C   0  0  0  0  0  0  0  0  0  0  0  0
    4.0440    0.3450   24.5130 C   0  0  0  0  0  0  0  0  0  0  0  0
   11.5130    0.9230   23.8110 C   0  0  0  0  0  0  0  0  0  0  0  0
   12.3550    0.3030   22.9680 C   0  0  0  0  0  0  0  0  0  0  0  0
   12.1980   -1.0320   22.5480 C   0  0  0  0  0  0  0  0  0  0  0  0
   11.1200   -1.7380   23.0590 C   0  0  0  0  0  0  0  0  0  0  0  0
   10.1780   -1.1240   23.9780 C   0  0  0  0  0  0  0  0  0  0  0  0
   10.3930    0.2600   24.3480 C   0  0  0  0  0  0  0  0  0  0  0  0
    6.2730    0.6270   17.4940 N   0  0  0  0  0  0  0  0  0  0  0  0
    5.1940    1.3530   18.0420 C   0  0  0  0  0  0  0  0  0  0  0  0
    4.8440    1.3270   19.4250 C   0  0  0  0  0  0  0  0  0  0  0  0
    5.5970    0.5560   20.3210 C   0  0  0  0  0  0  0  0  0  0  0  0
    6.5130   -0.0150   19.5930 C   0  0  0  0  0  0  0  0  0  0  0  0
    6.9930   -0.1380   18.3810 C   0  0  0  0  0  0  0  0  0  0  0  0
    3.6730    2.0790   20.0700 C   0  0  0  0  0  0  0  0  0  0  0  0
    3.4630    2.0210   21.4610 C   0  0  0  0  0  0  0  0  0  0  0  0
    5.3960    0.4630   21.6850 C   0  0  0  0  0  0  0  0  0  0  0  0
  1  2  1  0
  2  3  2  0
  1  4  1  0
  5  6  3  0
  7  8  2  0
  7  9  1  0
  7 10  1  0
 12 11  1  0
 12 13  1  1
  2 14  1  0
 13 14  1  0
 14 15  1  0
 11 16  1  0
 15 16  1  0
 17 18  2  0
  6 19  1  0
 18 19  1  0
 19 20  2  0
 20 21  1  0
  4 22  1  0
 17 22  1  0
 21 22  2  0
 23 24  1  0
 24 25  2  0
 25 26  1  0
  9 27  1  0
 26 27  1  0
 23 28  1  0
 27 28  2  0
 25 29  1  0
 12 30  1  0
 29 30  2  0
 12 31  1  0
 26 31  2  0
M  END
