x2569-x0689
     RDKit          3D

 37 40  0  0  0  0  0  0  0  0999 V2000
    7.6900   -3.6770   20.2720 C   0  0  0  0  0  0  0  0  0  0  0  0
    5.4970   -4.5980   19.9410 O   0  0  0  0  0  0  0  0  0  0  0  0
    6.5410   -4.5710   20.6450 C   0  0  0  0  0  0  0  0  0  0  0  0
    3.9330   -6.3360   25.8580 O   0  0  0  0  0  0  0  0  0  0  0  0
    5.6740   -4.6620   26.5930 O   0  0  0  0  0  0  0  0  0  0  0  0
    4.6560   -5.1030   25.6580 S   0  0  0  0  0  0  0  0  0  0  0  0
    8.1710    0.4630   21.7350 C   0  0  0  0  0  0  0  0  0  0  0  0
    8.8030    1.4080   21.2190 O   0  0  0  0  0  0  0  0  0  0  0  0
    8.6910   -0.1170   22.9990 C   0  0  0  0  0  0  0  0  0  0  0  0
   13.7800   -1.4800   20.5970 N   0  0  0  0  0  0  0  0  0  0  0  0
    7.0180   -0.0850   21.2060 N   0  0  0  0  0  0  0  0  0  0  0  0
   13.0160   -2.0380   21.5950 C   0  0  0  0  0  0  0  0  0  0  0  0
    7.1520   -2.2840   19.9770 C   0  0  0  0  0  0  0  0  0  0  0  0
    6.8850   -1.5130   21.2400 C   0  0  0  0  0  0  0  0  0  0  0  0
    6.6220   -5.3740   21.7840 N   0  0  0  0  0  0  0  0  0  0  0  0
    5.7160   -6.2960   22.1340 C   0  0  0  0  0  0  0  0  0  0  0  0
    4.7670   -6.0070   23.0810 C   0  0  0  0  0  0  0  0  0  0  0  0
    5.3440   -5.1270   24.1210 N   0  0  0  0  0  0  0  0  0  0  0  0
    6.6960   -4.5960   23.9150 C   0  0  0  0  0  0  0  0  0  0  0  0
    7.3970   -5.0730   22.8540 C   0  0  0  0  0  0  0  0  0  0  0  0
    3.8740   -2.1390   26.0330 S   0  0  0  0  0  0  0  0  0  0  0  0
    3.4670   -3.7860   25.6720 C   0  0  0  0  0  0  0  0  0  0  0  0
    2.1170   -3.9170   25.4050 C   0  0  0  0  0  0  0  0  0  0  0  0
    1.3060   -2.7270   25.4710 C   0  0  0  0  0  0  0  0  0  0  0  0
    2.1760   -1.6160   25.8230 C   0  0  0  0  0  0  0  0  0  0  0  0
   12.2620    0.7360   24.0320 N   0  0  0  0  0  0  0  0  0  0  0  0
   12.9060   -0.1650   23.2700 C   0  0  0  0  0  0  0  0  0  0  0  0
   12.3130   -1.0740   22.4110 C   0  0  0  0  0  0  0  0  0  0  0  0
   10.9270   -1.0620   22.3170 C   0  0  0  0  0  0  0  0  0  0  0  0
   10.1700   -0.1950   23.0380 C   0  0  0  0  0  0  0  0  0  0  0  0
   10.8170    0.6810   23.8760 C   0  0  0  0  0  0  0  0  0  0  0  0
    6.3790    0.7330   17.6610 N   0  0  0  0  0  0  0  0  0  0  0  0
    6.8850    0.2600   18.8100 C   0  0  0  0  0  0  0  0  0  0  0  0
    6.3870    0.4630   20.0850 C   0  0  0  0  0  0  0  0  0  0  0  0
    5.2380    1.2250   20.1540 C   0  0  0  0  0  0  0  0  0  0  0  0
    4.6660    1.7340   19.0010 C   0  0  0  0  0  0  0  0  0  0  0  0
    5.2630    1.4720   17.7790 C   0  0  0  0  0  0  0  0  0  0  0  0
  1  3  1  0
  2  3  2  0
  4  6  2  0
  5  6  2  0
  7  8  2  0
  7  9  1  0
  7 11  1  0
 10 12  3  0
  1 13  1  0
 11 14  1  0
 13 14  1  0
  3 15  1  0
 15 16  1  0
 16 17  1  0
  6 18  1  0
 17 18  1  0
 18 19  1  0
 15 20  1  0
 19 20  1  0
  6 22  1  0
 21 22  1  0
 22 23  2  0
 23 24  1  0
 21 25  1  0
 24 25  2  0
 26 27  2  0
 12 28  1  0
 27 28  1  0
 28 29  2  0
  9 30  1  0
 29 30  1  0
 26 31  1  0
 30 31  2  0
 32 33  2  0
 11 34  1  0
 33 34  1  0
 34 35  2  0
 35 36  1  0
 32 37  1  0
 36 37  2  0
M  END
