x2562-x1380
     RDKit          3D

 40 44  0  0  0  0  0  0  0  0999 V2000
    8.1210   -0.0860   21.4570 C   0  0  0  0  0  0  0  0  0  0  0  0
    8.0340    1.1440   21.4330 O   0  0  0  0  0  0  0  0  0  0  0  0
    7.0920   -0.9620   20.7880 C   0  0  2  0  0  0  0  0  0  0  0  0
   12.0870    2.9660   23.2620 O   0  0  0  0  0  0  0  0  0  0  0  0
    9.2540   -0.8200   22.0990 N   0  0  0  0  0  0  0  0  0  0  0  0
   13.4400    6.6800   22.1420 O   0  0  0  0  0  0  0  0  0  0  0  0
    7.1900   -3.2840   19.4130 C   0  0  0  0  0  0  0  0  0  0  0  0
    5.3250   -4.6340   19.9340 O   0  0  0  0  0  0  0  0  0  0  0  0
    6.3900   -4.1180   20.3580 C   0  0  0  0  0  0  0  0  0  0  0  0
    4.8830   -2.8650   25.1470 O   0  0  0  0  0  0  0  0  0  0  0  0
    5.9450   -3.4270   25.3920 C   0  0  0  0  0  0  0  0  0  0  0  0
    7.8090   -2.0010   19.9970 C   0  0  0  0  0  0  0  0  0  0  0  0
    4.4250    1.5580   19.4520 N   0  0  0  0  0  0  0  0  0  0  0  0
    4.9410    1.6070   18.1020 C   0  0  0  0  0  0  0  0  0  0  0  0
    6.0910    0.8680   17.5690 N   0  0  0  0  0  0  0  0  0  0  0  0
    6.7430    0.0170   18.5760 C   0  0  0  0  0  0  0  0  0  0  0  0
    6.3020   -0.0640   19.8730 C   0  0  0  0  0  0  0  0  0  0  0  0
    5.1900    0.6550   20.3330 C   0  0  0  0  0  0  0  0  0  0  0  0
   12.3960    4.6210   21.6760 N   0  0  0  0  0  0  0  0  0  0  0  0
   12.7190    5.5750   22.6100 C   0  0  1  0  0  0  0  0  0  0  0  0
   13.4080    4.8220   23.4780 C   0  0  0  0  0  0  0  0  0  0  0  0
   12.9870    3.8270   22.6690 C   0  0  1  0  0  0  0  0  0  0  0  0
   11.6280   -1.0960   22.2900 C   0  0  0  0  0  0  0  0  0  0  0  0
   12.9330   -0.5260   22.5490 C   0  0  0  0  0  0  0  0  0  0  0  0
   13.0810    0.8150   22.8640 C   0  0  0  0  0  0  0  0  0  0  0  0
   11.9410    1.6280   22.9390 C   0  0  0  0  0  0  0  0  0  0  0  0
   10.6770    1.0610   22.6860 C   0  0  0  0  0  0  0  0  0  0  0  0
   10.5160   -0.2670   22.3640 C   0  0  0  0  0  0  0  0  0  0  0  0
    6.8440   -4.3810   21.6540 N   0  0  0  0  0  0  0  0  0  0  0  0
    6.3950   -5.4490   22.3820 C   0  0  0  0  0  0  0  0  0  0  0  0
    5.8490   -4.9310   23.5470 C   0  0  0  0  0  0  0  0  0  0  0  0
    6.7400   -4.1220   24.2710 C   0  0  0  0  0  0  0  0  0  0  0  0
    7.3540   -3.1090   23.5280 C   0  0  0  0  0  0  0  0  0  0  0  0
    7.8000   -3.4240   22.2450 C   0  0  0  0  0  0  0  0  0  0  0  0
    7.8390   -3.8200   26.9150 C   0  0  0  0  0  0  0  0  0  0  0  0
    7.9240   -5.1490   27.3450 C   0  0  0  0  0  0  0  0  0  0  0  0
    7.2250   -5.3270   28.5350 C   0  0  0  0  0  0  0  0  0  0  0  0
    5.8920   -4.8990   28.5150 C   0  0  0  0  0  0  0  0  0  0  0  0
    5.6090   -3.5390   27.9000 C   0  0  0  0  0  0  0  0  0  0  0  0
    6.4420   -3.4410   26.7070 N   0  0  0  0  0  0  0  0  0  0  0  0
  1  2  2  0
  1  3  1  0
  1  5  1  0
  7  9  1  0
  8  9  2  0
 10 11  2  0
  3 12  1  6
  7 12  1  0
 13 14  2  0
 14 15  1  0
 15 16  2  0
  3 17  1  0
 16 17  1  0
 13 18  1  0
 17 18  2  0
 20  6  1  6
 19 20  1  0
 20 21  1  0
 22  4  1  1
 19 22  1  0
 21 22  1  0
 23 24  2  0
 24 25  1  0
  4 26  1  0
 25 26  2  0
 26 27  1  0
  5 28  1  0
 23 28  1  0
 27 28  2  0
  9 29  1  0
 29 30  1  0
 30 31  1  0
 11 32  1  0
 31 32  1  0
 32 33  1  0
 29 34  1  0
 33 34  1  0
 35 36  1  0
 36 37  1  0
 37 38  1  0
 38 39  1  0
 11 40  1  0
 35 40  1  0
 39 40  1  0
M  END
