x2563-x2705-x0691-x3117
     RDKit          3D

 53 60  0  0  0  0  0  0  0  0999 V2000
    6.4200   -1.2280   22.0190 N   0  0  0  0  0  0  0  0  0  0  0  0
    6.7560   -4.4090   20.2790 C   0  0  2  0  0  0  0  0  0  0  0  0
    4.7030   -2.9020   21.2610 O   0  0  0  0  0  0  0  0  0  0  0  0
    6.8380   -3.5490   21.4380 C   0  0  1  0  0  0  0  0  0  0  0  0
    7.5290    1.8550   22.8170 N   0  0  0  0  0  0  0  0  0  0  0  0
    8.7870    1.2130   21.1060 O   0  0  0  0  0  0  0  0  0  0  0  0
    5.8730   -2.5090   21.5540 C   0  0  0  0  0  0  0  0  0  0  0  0
    6.7580    0.1090   21.3460 C   0  0  1  0  0  0  0  0  0  0  0  0
    7.9760    0.8410   21.9520 C   0  0  2  0  0  0  0  0  0  0  0  0
   10.1800    2.0780   24.0250 C   0  0  0  0  0  0  0  0  0  0  0  0
    9.3390    1.2060   24.9540 C   0  0  0  0  0  0  0  0  0  0  0  0
    6.1370    4.4250   21.8140 C   0  0  0  0  0  0  0  0  0  0  0  0
   12.1340   -1.6160   23.4880 C   0  0  0  0  0  0  0  0  0  0  0  0
   12.8680   -0.3600   23.9660 C   0  0  0  0  0  0  0  0  0  0  0  0
   12.1950   -2.6700   24.5860 C   0  0  0  0  0  0  0  0  0  0  0  0
   12.7670   -2.0660   22.2210 C   0  0  0  0  0  0  0  0  0  0  0  0
   13.5410   -2.8710   25.2410 C   0  0  0  0  0  0  0  0  0  0  0  0
    5.5530   -4.4170   19.5350 O   0  0  0  0  0  0  0  0  0  0  0  0
    4.0030   -6.8740   25.8320 O   0  0  0  0  0  0  0  0  0  0  0  0
    5.6540   -5.2500   26.7790 O   0  0  0  0  0  0  0  0  0  0  0  0
    3.2710   -0.7060   26.0190 F   0  0  0  0  0  0  0  0  0  0  0  0
    4.7110   -5.6130   25.7450 S   0  0  0  0  0  0  0  0  0  0  0  0
    5.0480    0.8180   18.6420 C   0  0  1  0  0  0  0  0  0  0  0  0
    4.6680   -0.2270   19.2180 C   0  0  0  0  0  0  0  0  0  0  0  0
    5.4540    0.2730   20.1330 C   0  0  1  0  0  0  0  0  0  0  0  0
    6.8380    0.4780   19.8720 C   0  0  0  0  0  0  0  0  0  0  0  0
    6.5500    0.8200   18.5090 C   0  0  0  0  0  0  0  0  0  0  0  0
    9.6800   -1.7800   23.9770 N   0  0  0  0  0  0  0  0  0  0  0  0
    8.5950   -1.0960   23.5380 N   0  0  0  0  0  0  0  0  0  0  0  0
    8.8950   -0.1250   22.6300 C   0  0  0  0  0  0  0  0  0  0  0  0
   10.2420   -0.2150   22.4840 C   0  0  0  0  0  0  0  0  0  0  0  0
   10.7010   -1.2160   23.3150 C   0  0  0  0  0  0  0  0  0  0  0  0
    9.4110    3.2690   23.5110 C   0  0  0  0  0  0  0  0  0  0  0  0
   10.0410    4.5270   23.6420 C   0  0  0  0  0  0  0  0  0  0  0  0
    9.4200    5.6860   23.1960 C   0  0  0  0  0  0  0  0  0  0  0  0
    8.1620    5.5990   22.6140 C   0  0  0  0  0  0  0  0  0  0  0  0
    7.4960    4.3600   22.4650 C   0  0  0  0  0  0  0  0  0  0  0  0
    8.1240    3.1660   22.9210 C   0  0  0  0  0  0  0  0  0  0  0  0
    2.9050   -1.9890   25.8820 C   0  0  0  0  0  0  0  0  0  0  0  0
    3.8790   -2.9880   25.8810 C   0  0  0  0  0  0  0  0  0  0  0  0
    3.4860   -4.3210   25.7400 C   0  0  0  0  0  0  0  0  0  0  0  0
    2.1300   -4.6220   25.5990 C   0  0  0  0  0  0  0  0  0  0  0  0
    1.1530   -3.6290   25.5990 C   0  0  0  0  0  0  0  0  0  0  0  0
    1.5500   -2.2990   25.7440 C   0  0  0  0  0  0  0  0  0  0  0  0
    6.6350   -5.0390   21.6810 C   0  0  0  0  0  0  0  0  0  0  0  0
    5.3410   -5.7580   21.9070 C   0  0  0  0  0  0  0  0  0  0  0  0
    4.5970   -5.1610   23.0850 C   0  0  0  0  0  0  0  0  0  0  0  0
    5.4280   -5.5370   24.2420 N   0  0  0  0  0  0  0  0  0  0  0  0
    6.8620   -5.1250   24.1710 C   0  0  0  0  0  0  0  0  0  0  0  0
    7.5590   -5.3250   22.8100 C   0  0  0  0  0  0  0  0  0  0  0  0
    4.2310    2.1370   18.9910 C   0  0  0  0  0  0  0  0  0  0  0  0
    4.0050    2.0700   20.4920 C   0  0  0  0  0  0  0  0  0  0  0  0
    4.6610    1.0630   21.1520 C   0  0  0  0  0  0  0  0  0  0  0  0
  2  4  1  0
  1  7  1  0
  3  7  2  0
  4  7  1  6
  8  1  1  6
  5  9  1  0
  9  6  1  6
  8  9  1  0
 10 11  1  0
 13 14  1  0
 13 15  1  0
 13 16  1  0
 15 17  1  0
  2 18  1  6
 19 22  2  0
 20 22  2  0
 23 24  1  6
 23 25  1  0
 25 24  1  6
  8 26  1  0
 25 26  1  0
 23 27  1  0
 26 27  2  0
 28 29  1  0
  9 30  1  0
 29 30  1  0
 30 31  2  0
 13 32  1  0
 28 32  2  0
 31 32  1  0
 10 33  1  0
 33 34  2  0
 34 35  1  0
 35 36  2  0
 12 37  1  0
 36 37  1  0
  5 38  1  0
 33 38  1  0
 37 38  2  0
 21 39  1  0
 39 40  2  0
 22 41  1  0
 40 41  1  0
 41 42  2  0
 42 43  1  0
 39 44  1  0
 43 44  2  0
  2 45  1  0
  4 45  1  0
 45 46  1  0
 46 47  1  0
 22 48  1  0
 47 48  1  0
 48 49  1  0
 45 50  1  0
 49 50  1  0
 23 51  1  0
 51 52  1  0
 25 53  1  0
 52 53  2  0
M  END
