x2569-x0678
     RDKit          3D

 18 19  0  0  0  0  0  0  0  0999 V2000
    8.2070    0.1910   21.7660 C   0  0  0  0  0  0  0  0  0  0  0  0
    8.8080    1.1950   21.2970 O   0  0  0  0  0  0  0  0  0  0  0  0
    8.6970   -0.6150   22.9590 C   0  0  0  0  0  0  0  0  0  0  0  0
   13.2300   -2.9660   20.8860 N   0  0  0  0  0  0  0  0  0  0  0  0
    6.9530   -0.2840   21.1950 N   0  0  0  0  0  0  0  0  0  0  0  0
   13.4730   -1.6080   21.2600 C   0  0  0  0  0  0  0  0  0  0  0  0
   12.1720    0.2480   24.2340 N   0  0  0  0  0  0  0  0  0  0  0  0
   12.8560   -0.2450   23.4350 C   0  0  0  0  0  0  0  0  0  0  0  0
   12.5400   -1.0220   22.2350 C   0  0  0  0  0  0  0  0  0  0  0  0
   11.0510   -1.1380   22.1170 C   0  0  0  0  0  0  0  0  0  0  0  0
   10.1750   -0.4900   23.1440 C   0  0  0  0  0  0  0  0  0  0  0  0
   10.8210    0.1880   24.1820 C   0  0  0  0  0  0  0  0  0  0  0  0
    6.3780    0.6750   17.6980 N   0  0  0  0  0  0  0  0  0  0  0  0
    6.8980    0.1320   18.7650 C   0  0  0  0  0  0  0  0  0  0  0  0
    6.3830    0.2810   19.9990 C   0  0  0  0  0  0  0  0  0  0  0  0
    5.2820    1.0020   20.1350 C   0  0  0  0  0  0  0  0  0  0  0  0
    4.6570    1.6160   19.0460 C   0  0  0  0  0  0  0  0  0  0  0  0
    5.1500    1.5180   17.7240 C   0  0  0  0  0  0  0  0  0  0  0  0
  1  2  2  0
  1  3  1  0
  1  5  1  0
  4  6  3  0
  7  8  2  0
  6  9  1  0
  8  9  1  0
  9 10  2  0
  3 11  1  0
 10 11  1  0
  7 12  1  0
 11 12  2  0
 13 14  2  0
  5 15  1  0
 14 15  1  0
 15 16  2  0
 16 17  1  0
 13 18  1  0
 17 18  2  0
M  END
