x2562-x1425
     RDKit          3D

 40 44  0  0  0  0  0  0  0  0999 V2000
    8.1190   -0.1160   21.4460 C   0  0  0  0  0  0  0  0  0  0  0  0
    7.9590    1.0750   21.7100 O   0  0  0  0  0  0  0  0  0  0  0  0
    7.0630   -0.9540   20.7590 C   0  0  2  0  0  0  0  0  0  0  0  0
   12.1040    2.9120   23.3440 O   0  0  0  0  0  0  0  0  0  0  0  0
    9.3760   -0.8780   21.7090 N   0  0  0  0  0  0  0  0  0  0  0  0
   13.3790    6.4480   21.7440 O   0  0  0  0  0  0  0  0  0  0  0  0
    1.4530   -2.3750   28.1490 C   0  0  0  0  0  0  0  0  0  0  0  0
    2.6650   -2.2050   28.2800 O   0  0  0  0  0  0  0  0  0  0  0  0
    5.2180   -4.5430   19.8800 O   0  0  0  0  0  0  0  0  0  0  0  0
    6.3240   -4.1050   20.2640 C   0  0  0  0  0  0  0  0  0  0  0  0
    7.1390   -3.2780   19.3580 C   0  0  0  0  0  0  0  0  0  0  0  0
    7.7570   -1.9800   19.9220 C   0  0  0  0  0  0  0  0  0  0  0  0
    4.4270    1.5700   19.4440 N   0  0  0  0  0  0  0  0  0  0  0  0
    4.9370    1.6350   18.0910 C   0  0  0  0  0  0  0  0  0  0  0  0
    6.0800    0.8960   17.5550 N   0  0  0  0  0  0  0  0  0  0  0  0
    6.7090    0.0500   18.5720 C   0  0  0  0  0  0  0  0  0  0  0  0
    6.2670   -0.0380   19.8670 C   0  0  0  0  0  0  0  0  0  0  0  0
    5.1600    0.6690   20.3610 C   0  0  0  0  0  0  0  0  0  0  0  0
   12.3300    4.4260   21.6640 N   0  0  0  0  0  0  0  0  0  0  0  0
   12.6270    5.5070   22.4650 C   0  0  1  0  0  0  0  0  0  0  0  0
   13.3690    4.8770   23.3990 C   0  0  0  0  0  0  0  0  0  0  0  0
   12.9790    3.7740   22.7040 C   0  0  1  0  0  0  0  0  0  0  0  0
   11.6680   -1.1680   22.1980 C   0  0  0  0  0  0  0  0  0  0  0  0
   12.9270   -0.5980   22.6210 C   0  0  0  0  0  0  0  0  0  0  0  0
   12.9980    0.7250   22.9680 C   0  0  0  0  0  0  0  0  0  0  0  0
   11.9140    1.5910   22.9600 C   0  0  0  0  0  0  0  0  0  0  0  0
   10.6790    1.0390   22.5500 C   0  0  0  0  0  0  0  0  0  0  0  0
   10.5680   -0.2970   22.1700 C   0  0  0  0  0  0  0  0  0  0  0  0
    3.4650   -2.5670   27.2330 C   0  0  0  0  0  0  0  0  0  0  0  0
    4.7620   -2.1470   27.0180 C   0  0  0  0  0  0  0  0  0  0  0  0
    5.5000   -2.5760   25.9170 C   0  0  0  0  0  0  0  0  0  0  0  0
    4.9320   -3.4560   24.9910 C   0  0  0  0  0  0  0  0  0  0  0  0
    3.6140   -3.8850   25.2020 C   0  0  0  0  0  0  0  0  0  0  0  0
    2.8860   -3.4490   26.3090 C   0  0  0  0  0  0  0  0  0  0  0  0
    6.8480   -4.4920   21.4980 N   0  0  0  0  0  0  0  0  0  0  0  0
    7.3790   -3.4300   22.3660 C   0  0  0  0  0  0  0  0  0  0  0  0
    6.3080   -2.8740   23.0490 C   0  0  0  0  0  0  0  0  0  0  0  0
    5.6430   -3.8930   23.8980 N   0  0  0  0  0  0  0  0  0  0  0  0
    5.2210   -5.1210   23.1820 C   0  0  0  0  0  0  0  0  0  0  0  0
    6.3180   -5.6230   22.2530 C   0  0  0  0  0  0  0  0  0  0  0  0
  1  2  2  0
  1  3  1  0
  1  5  1  0
  7  8  1  0
  9 10  2  0
 10 11  1  0
  3 12  1  6
 11 12  1  0
 13 14  2  0
 14 15  1  0
 15 16  2  0
  3 17  1  0
 16 17  1  0
 13 18  1  0
 17 18  2  0
 20  6  1  6
 19 20  1  0
 20 21  1  0
 22  4  1  1
 19 22  1  0
 21 22  1  0
 23 24  2  0
 24 25  1  0
  4 26  1  0
 25 26  2  0
 26 27  1  0
  5 28  1  0
 23 28  1  0
 27 28  2  0
  8 29  1  0
 29 30  2  0
 30 31  1  0
 31 32  2  0
 32 33  1  0
 29 34  1  0
 33 34  2  0
 10 35  1  0
 35 36  1  0
 36 37  1  0
 32 38  1  0
 37 38  1  0
 38 39  1  0
 35 40  1  0
 39 40  1  0
M  END
