x2569-x2562
     RDKit          3D

 24 26  0  0  0  0  0  0  0  0999 V2000
    8.0990    0.2470   21.5070 C   0  0  0  0  0  0  0  0  0  0  0  0
    8.2900    1.3780   20.9930 O   0  0  0  0  0  0  0  0  0  0  0  0
    6.9370   -0.6420   21.1280 C   0  0  0  0  0  0  0  0  0  0  0  0
   12.3450    2.7400   23.4630 O   0  0  0  0  0  0  0  0  0  0  0  0
    8.9470   -0.3660   22.5170 N   0  0  0  0  0  0  0  0  0  0  0  0
   12.9320    6.7680   22.4880 O   0  0  0  0  0  0  0  0  0  0  0  0
   13.5850   -3.1390   20.9040 N   0  0  0  0  0  0  0  0  0  0  0  0
   13.2160   -2.0220   21.6120 C   0  0  0  0  0  0  0  0  0  0  0  0
    4.5480    1.6640   19.0040 N   0  0  0  0  0  0  0  0  0  0  0  0
    5.0330    1.4760   17.9400 C   0  0  0  0  0  0  0  0  0  0  0  0
    6.0820    0.6760   17.5840 N   0  0  0  0  0  0  0  0  0  0  0  0
    6.7130   -0.0170   18.5280 C   0  0  0  0  0  0  0  0  0  0  0  0
    6.3070    0.0560   19.9560 C   0  0  0  0  0  0  0  0  0  0  0  0
    5.1410    0.9670   20.1240 C   0  0  0  0  0  0  0  0  0  0  0  0
   12.4520    4.5290   21.7710 N   0  0  0  0  0  0  0  0  0  0  0  0
   13.3270    5.6420   22.2170 C   0  0  2  0  0  0  0  0  0  0  0  0
   13.5230    4.8100   23.2300 C   0  0  0  0  0  0  0  0  0  0  0  0
   13.1800    3.6160   22.7090 C   0  0  1  0  0  0  0  0  0  0  0  0
   11.1630   -1.0860   22.1460 C   0  0  0  0  0  0  0  0  0  0  0  0
   12.4990   -0.8840   22.1380 C   0  0  0  0  0  0  0  0  0  0  0  0
   12.9740    0.3650   22.5820 C   0  0  0  0  0  0  0  0  0  0  0  0
   12.0870    1.4790   23.0250 C   0  0  0  0  0  0  0  0  0  0  0  0
   10.6770    1.1530   22.9750 C   0  0  0  0  0  0  0  0  0  0  0  0
   10.3350   -0.1010   22.5470 C   0  0  0  0  0  0  0  0  0  0  0  0
  1  2  2  0
  1  3  1  0
  1  5  1  0
  7  8  3  0
  9 10  2  0
 10 11  1  0
 11 12  2  0
  3 13  1  0
 12 13  1  0
  9 14  1  0
 13 14  2  0
 16  6  1  1
 15 16  1  0
 16 17  1  0
 18  4  1  1
 15 18  1  0
 17 18  1  0
  8 20  1  0
 19 20  2  0
 20 21  1  0
  4 22  1  0
 21 22  2  0
 22 23  1  0
  5 24  1  0
 19 24  1  0
 23 24  2  0
M  END
