x2563-x1412
     RDKit          3D

 37 43  0  0  0  0  0  0  0  0999 V2000
    7.2220   -3.1770   19.1160 C   0  0  0  0  0  0  0  0  0  0  0  0
    5.4080   -4.5660   19.8800 O   0  0  0  0  0  0  0  0  0  0  0  0
    6.2770   -3.7080   20.1450 C   0  0  0  0  0  0  0  0  0  0  0  0
    8.2140   -1.4610   25.1820 O   0  0  0  0  0  0  0  0  0  0  0  0
    8.3620   -2.6100   24.7820 C   0  0  0  0  0  0  0  0  0  0  0  0
    8.1710   -0.2160   21.4500 C   0  0  0  0  0  0  0  0  0  0  0  0
    8.6640    0.8820   21.1380 O   0  0  0  0  0  0  0  0  0  0  0  0
    7.2440   -0.6930   20.3710 C   0  0  1  0  0  0  0  0  0  0  0  0
    8.5710   -0.7310   22.7730 N   0  0  0  0  0  0  0  0  0  0  0  0
    7.8660   -1.8970   19.6920 C   0  0  0  0  0  0  0  0  0  0  0  0
    6.4050   -3.1740   21.3940 N   0  0  0  0  0  0  0  0  0  0  0  0
    7.4590   -2.1710   21.2880 C   0  0  2  0  0  0  0  0  0  0  0  0
    8.3930   -1.9680   22.2880 C   0  0  2  0  0  0  0  0  0  0  0  0
    8.3640   -2.9770   23.3600 N   0  0  0  0  0  0  0  0  0  0  0  0
    7.6380   -4.2100   23.0280 C   0  0  0  0  0  0  0  0  0  0  0  0
    6.3450   -3.9430   22.6390 C   0  0  0  0  0  0  0  0  0  0  0  0
    9.3810   -4.9410   25.3740 C   0  0  0  0  0  0  0  0  0  0  0  0
    8.5690   -3.8190   25.6610 C   0  0  0  0  0  0  0  0  0  0  0  0
    7.7750   -3.9450   27.2080 S   0  0  0  0  0  0  0  0  0  0  0  0
    8.4930   -5.4500   27.5040 C   0  0  0  0  0  0  0  0  0  0  0  0
    9.3590   -5.9010   26.4190 C   0  0  0  0  0  0  0  0  0  0  0  0
    6.2490    0.6940   17.6660 N   0  0  0  0  0  0  0  0  0  0  0  0
    5.0170    1.4920   17.9330 C   0  0  0  0  0  0  0  0  0  0  0  0
    4.4750    1.5110   19.2560 C   0  0  0  0  0  0  0  0  0  0  0  0
    5.0680    0.8110   20.3040 C   0  0  0  0  0  0  0  0  0  0  0  0
    6.1470    0.1620   19.9200 C   0  0  0  0  0  0  0  0  0  0  0  0
    6.7330    0.0670   18.7300 C   0  0  0  0  0  0  0  0  0  0  0  0
    3.3320    2.2360   19.5620 C   0  0  0  0  0  0  0  0  0  0  0  0
    2.8170    2.2650   20.8350 C   0  0  0  0  0  0  0  0  0  0  0  0
    3.4120    1.5710   21.8830 C   0  0  0  0  0  0  0  0  0  0  0  0
    4.5530    0.8320   21.6080 C   0  0  0  0  0  0  0  0  0  0  0  0
   10.9910   -0.6280   22.7170 C   0  0  0  0  0  0  0  0  0  0  0  0
   12.1610    0.0630   23.0280 C   0  0  0  0  0  0  0  0  0  0  0  0
   12.0910    1.2690   23.6930 C   0  0  0  0  0  0  0  0  0  0  0  0
   10.8880    1.8320   24.0840 C   0  0  0  0  0  0  0  0  0  0  0  0
    9.7030    1.2060   23.8200 C   0  0  0  0  0  0  0  0  0  0  0  0
    9.7530   -0.0890   23.0900 C   0  0  0  0  0  0  0  0  0  0  0  0
  1  3  1  0
  2  3  2  0
  4  5  2  0
  6  7  2  0
  6  8  1  0
  6  9  1  0
  1 10  1  0
  8 10  1  0
  3 11  1  0
  8 12  1  0
 12 11  1  1
 13  9  1  1
 12 13  1  0
  5 14  1  0
 13 14  1  0
 14 15  1  0
 11 16  1  0
 15 16  1  0
  5 18  1  0
 17 18  2  0
 18 19  1  0
 19 20  1  0
 17 21  1  0
 20 21  2  0
 22 23  2  0
 23 24  1  0
 24 25  2  0
  8 26  1  6
 25 26  1  0
 22 27  1  0
 26 27  2  0
 24 28  1  0
 28 29  2  0
 29 30  1  0
 25 31  1  0
 30 31  2  0
 32 33  2  0
 33 34  1  0
 34 35  2  0
 35 36  1  0
  9 37  1  0
 32 37  1  0
 36 37  2  0
M  END
