x2569-x0759
     RDKit          3D

 27 29  0  0  0  0  0  0  0  0999 V2000
    8.2260    0.3400   21.7870 C   0  0  0  0  0  0  0  0  0  0  0  0
    8.9190    1.2360   21.2470 O   0  0  0  0  0  0  0  0  0  0  0  0
    8.6520   -0.5370   22.9690 C   0  0  2  0  0  0  0  0  0  0  0  0
   13.8220   -1.3870   20.5570 N   0  0  0  0  0  0  0  0  0  0  0  0
    6.8680    0.0300   21.3300 N   0  0  0  0  0  0  0  0  0  0  0  0
   13.0810   -2.3000   21.3610 C   0  0  0  0  0  0  0  0  0  0  0  0
    5.4660   -4.3000   19.8340 O   0  0  0  0  0  0  0  0  0  0  0  0
    6.4680   -3.5670   20.0790 C   0  0  0  0  0  0  0  0  0  0  0  0
    7.3100   -3.0870   18.9700 C   0  0  0  0  0  0  0  0  0  0  0  0
   12.1270    0.1400   24.2190 N   0  0  0  0  0  0  0  0  0  0  0  0
   12.9050   -0.6720   23.3200 C   0  0  0  0  0  0  0  0  0  0  0  0
   12.2190   -1.4870   22.2520 C   0  0  0  0  0  0  0  0  0  0  0  0
   10.8470   -1.4020   22.1940 C   0  0  0  0  0  0  0  0  0  0  0  0
   10.1420   -0.6180   23.0620 C   0  0  0  0  0  0  0  0  0  0  0  0
   10.7920    0.1260   24.0470 C   0  0  0  0  0  0  0  0  0  0  0  0
    6.3560    0.5740   17.7780 N   0  0  0  0  0  0  0  0  0  0  0  0
    7.0100    0.0200   18.9690 C   0  0  0  0  0  0  0  0  0  0  0  0
    6.3350    0.4660   20.1430 C   0  0  0  0  0  0  0  0  0  0  0  0
    5.2100    1.2880   20.1510 C   0  0  0  0  0  0  0  0  0  0  0  0
    4.5340    1.8440   18.9990 C   0  0  0  0  0  0  0  0  0  0  0  0
    5.1900    1.4350   17.7950 C   0  0  0  0  0  0  0  0  0  0  0  0
    6.7650   -3.2760   21.4020 N   0  0  0  0  0  0  0  0  0  0  0  0
    7.6300   -2.2670   21.6110 C   0  0  0  0  0  0  0  0  0  0  0  0
    7.7990   -1.8410   22.8990 C   0  0  1  0  0  0  0  0  0  0  0  0
    8.3920   -2.9980   23.5130 O   0  0  0  0  0  0  0  0  0  0  0  0
    7.4970   -4.0550   23.4850 C   0  0  0  0  0  0  0  0  0  0  0  0
    6.5240   -4.0760   22.4870 C   0  0  0  0  0  0  0  0  0  0  0  0
  1  2  2  0
  3  1  1  6
  1  5  1  0
  4  6  3  0
  7  8  2  0
  8  9  1  0
 10 11  2  0
  6 12  1  0
 11 12  1  0
 12 13  2  0
  3 14  1  0
 13 14  1  0
 10 15  1  0
 14 15  2  0
 16 17  2  0
  5 18  1  0
 17 18  1  0
 18 19  2  0
 19 20  1  0
 16 21  1  0
 20 21  2  0
  8 22  1  0
 22 23  1  0
  3 24  1  0
 24 23  1  6
 24 25  1  0
 25 26  1  0
 22 27  1  0
 26 27  1  0
M  END
