x2563-x1334
     RDKit          3D

 37 44  0  0  0  0  0  0  0  0999 V2000
    7.1430   -3.2310   19.0670 C   0  0  0  0  0  0  0  0  0  0  0  0
    5.3110   -4.5060   19.8710 O   0  0  0  0  0  0  0  0  0  0  0  0
    7.4070   -5.7870   28.3840 Cl  0  0  0  0  0  0  0  0  0  0  0  0
    6.1380   -3.5940   20.1030 C   0  0  0  0  0  0  0  0  0  0  0  0
    9.4350   -3.0170   23.9520 C   0  0  0  0  0  0  0  0  0  0  0  0
    7.9630   -0.6010   21.3180 C   0  0  1  0  0  0  0  0  0  0  0  0
    7.3900    0.4030   22.1840 O   0  0  0  0  0  0  0  0  0  0  0  0
    7.3030   -0.6820   20.0310 C   0  0  2  0  0  0  0  0  0  0  0  0
    9.2560   -1.1570   21.7330 N   0  0  0  0  0  0  0  0  0  0  0  0
    7.8360   -1.9530   19.4830 C   0  0  0  0  0  0  0  0  0  0  0  0
    6.1950   -2.8620   21.2770 N   0  0  0  0  0  0  0  0  0  0  0  0
    7.3800   -2.0470   21.0600 C   0  0  2  0  0  0  0  0  0  0  0  0
    8.5980   -2.3220   21.7120 C   0  0  2  0  0  0  0  0  0  0  0  0
    8.2840   -2.7340   23.0890 N   0  0  0  0  0  0  0  0  0  0  0  0
    7.3250   -3.8460   23.0600 C   0  0  0  0  0  0  0  0  0  0  0  0
    6.0730   -3.4490   22.6160 C   0  0  0  0  0  0  0  0  0  0  0  0
    9.7670   -5.2960   25.2390 C   0  0  0  0  0  0  0  0  0  0  0  0
    9.1580   -4.0460   25.0330 C   0  0  0  0  0  0  0  0  0  0  0  0
    7.9500   -3.7580   26.2470 S   0  0  0  0  0  0  0  0  0  0  0  0
    8.2540   -5.2520   26.9930 C   0  0  0  0  0  0  0  0  0  0  0  0
    9.2990   -6.0360   26.3450 C   0  0  0  0  0  0  0  0  0  0  0  0
    6.1920    0.8660   17.5350 N   0  0  0  0  0  0  0  0  0  0  0  0
    4.9710    1.6460   17.9030 C   0  0  0  0  0  0  0  0  0  0  0  0
    4.4810    1.5810   19.2400 C   0  0  0  0  0  0  0  0  0  0  0  0
    5.1250    0.8170   20.1990 C   0  0  0  0  0  0  0  0  0  0  0  0
    6.1900    0.2000   19.7090 C   0  0  0  0  0  0  0  0  0  0  0  0
    6.7410    0.1660   18.5170 C   0  0  0  0  0  0  0  0  0  0  0  0
    3.3390    2.2950   19.6120 C   0  0  0  0  0  0  0  0  0  0  0  0
    2.8980    2.2190   20.9170 C   0  0  0  0  0  0  0  0  0  0  0  0
    3.5400    1.4600   21.8860 C   0  0  0  0  0  0  0  0  0  0  0  0
    4.6670    0.7480   21.5200 C   0  0  0  0  0  0  0  0  0  0  0  0
   11.4020   -0.6070   22.3960 C   0  0  0  0  0  0  0  0  0  0  0  0
   12.2810    0.0570   23.1910 C   0  0  0  0  0  0  0  0  0  0  0  0
   11.7750    0.8300   24.1870 C   0  0  0  0  0  0  0  0  0  0  0  0
   10.4200    1.0090   24.4890 C   0  0  0  0  0  0  0  0  0  0  0  0
    9.4970    0.3720   23.7250 C   0  0  0  0  0  0  0  0  0  0  0  0
   10.0340   -0.4760   22.6120 C   0  0  0  0  0  0  0  0  0  0  0  0
  1  4  1  0
  2  4  2  0
  6  7  1  1
  6  8  1  0
  6  9  1  0
  1 10  1  0
  8 10  1  0
  4 11  1  0
  6 12  1  0
  8 12  1  0
 12 11  1  1
 13  9  1  1
 12 13  1  0
  5 14  1  0
 13 14  1  0
 14 15  1  0
 11 16  1  0
 15 16  1  0
  5 18  1  0
 17 18  2  0
 18 19  1  0
  3 20  1  0
 19 20  1  0
 17 21  1  0
 20 21  2  0
 22 23  2  0
 23 24  1  0
 24 25  2  0
  8 26  1  6
 25 26  1  0
 22 27  1  0
 26 27  2  0
 24 28  1  0
 28 29  2  0
 29 30  1  0
 25 31  1  0
 30 31  2  0
 32 33  2  0
 33 34  1  0
 34 35  2  0
 35 36  1  0
  9 37  1  0
 32 37  1  0
 36 37  2  0
M  END
