x2569
     RDKit          3D

 18 19  0  0  0  0  0  0  0  0999 V2000
   12.2580    0.4910   24.1190 N   0  0  0  0  0  0  0  0  0  0  0  0
    8.4530    0.1290   21.5530 C   0  0  0  0  0  0  0  0  0  0  0  0
    9.2140    0.8810   20.9460 O   0  0  0  0  0  0  0  0  0  0  0  0
    8.9110   -0.6520   22.7690 C   0  0  0  0  0  0  0  0  0  0  0  0
   14.2950   -1.9600   20.5050 N   0  0  0  0  0  0  0  0  0  0  0  0
   10.4050   -0.5020   22.9350 C   0  0  0  0  0  0  0  0  0  0  0  0
    7.1470   -0.0150   21.2490 N   0  0  0  0  0  0  0  0  0  0  0  0
   10.9430    0.2750   23.9500 C   0  0  0  0  0  0  0  0  0  0  0  0
    6.6890    0.6290   17.6380 N   0  0  0  0  0  0  0  0  0  0  0  0
   13.0920   -0.0840   23.2450 C   0  0  0  0  0  0  0  0  0  0  0  0
   12.6580   -0.8850   22.1880 C   0  0  0  0  0  0  0  0  0  0  0  0
   13.5860   -1.4810   21.2590 C   0  0  0  0  0  0  0  0  0  0  0  0
   11.2910   -1.0940   22.0420 C   0  0  0  0  0  0  0  0  0  0  0  0
    6.5230    0.1960   20.0020 C   0  0  0  0  0  0  0  0  0  0  0  0
    5.2620    0.7780   20.0230 C   0  0  0  0  0  0  0  0  0  0  0  0
    4.7420    1.3120   18.8590 C   0  0  0  0  0  0  0  0  0  0  0  0
    5.4850    1.2100   17.6960 C   0  0  0  0  0  0  0  0  0  0  0  0
    7.1920    0.1410   18.7780 C   0  0  0  0  0  0  0  0  0  0  0  0
  2  3  2  0
  2  4  1  0
  4  6  1  0
  2  7  1  0
  1  8  2  0
  6  8  1  0
  1 10  1  0
 10 11  2  0
  5 12  3  0
 11 12  1  0
  6 13  2  0
 11 13  1  0
  7 14  1  0
 14 15  1  0
 15 16  2  0
  9 17  2  0
 16 17  1  0
  9 18  1  0
 14 18  2  0
M  END
