x2569-x0771-x2705-x3117
     RDKit          3D

 53 59  0  0  0  0  0  0  0  0999 V2000
    6.9030   -1.4130   21.8040 N   0  0  0  0  0  0  0  0  0  0  0  0
    6.6370   -4.5160   20.4380 C   0  0  2  0  0  0  0  0  0  0  0  0
    4.7740   -2.9360   21.2130 O   0  0  0  0  0  0  0  0  0  0  0  0
    6.8170   -3.7650   21.7600 C   0  0  2  0  0  0  0  0  0  0  0  0
    7.4610    2.0110   22.9220 N   0  0  0  0  0  0  0  0  0  0  0  0
    8.8310    0.8750   21.4790 O   0  0  0  0  0  0  0  0  0  0  0  0
    6.0170   -2.6110   21.5600 C   0  0  0  0  0  0  0  0  0  0  0  0
    6.5200    0.0270   21.6810 C   0  0  1  0  0  0  0  0  0  0  0  0
    7.7230    0.9870   22.0150 C   0  0  0  0  0  0  0  0  0  0  0  0
   10.1010    2.0470   24.0030 C   0  0  0  0  0  0  0  0  0  0  0  0
    9.2350    1.2410   24.9720 C   0  0  0  0  0  0  0  0  0  0  0  0
    6.1250    4.6760   21.8700 C   0  0  0  0  0  0  0  0  0  0  0  0
   11.9910   -1.5110   23.2800 C   0  0  2  0  0  0  0  0  0  0  0  0
   12.4840   -0.2030   23.9500 C   0  0  0  0  0  0  0  0  0  0  0  0
   12.3840   -2.7260   24.1580 C   0  0  0  0  0  0  0  0  0  0  0  0
   12.7200   -1.6600   21.9300 C   0  0  0  0  0  0  0  0  0  0  0  0
   13.4250   -2.5430   25.2390 C   0  0  0  0  0  0  0  0  0  0  0  0
    5.4390   -4.2420   19.7120 O   0  0  0  0  0  0  0  0  0  0  0  0
    0.5720   -1.3720   26.1710 C   0  0  0  0  0  0  0  0  0  0  0  0
    4.5280   -6.8960   25.6820 O   0  0  0  0  0  0  0  0  0  0  0  0
    6.0770   -5.1360   26.5800 O   0  0  0  0  0  0  0  0  0  0  0  0
    1.9930   -6.1020   24.9150 C   0  0  0  0  0  0  0  0  0  0  0  0
    5.0900   -5.5600   25.6270 S   0  0  0  0  0  0  0  0  0  0  0  0
   13.3740   -1.7850   20.9740 N   0  0  0  0  0  0  0  0  0  0  0  0
    6.2980    0.4390   17.8170 N   0  0  0  0  0  0  0  0  0  0  0  0
    5.1910    1.1550   17.7380 C   0  0  0  0  0  0  0  0  0  0  0  0
    4.4670    1.5100   18.8200 C   0  0  0  0  0  0  0  0  0  0  0  0
    4.8890    1.1340   20.0610 C   0  0  0  0  0  0  0  0  0  0  0  0
    6.0450    0.3940   20.2490 C   0  0  0  0  0  0  0  0  0  0  0  0
    6.7300    0.0570   19.0260 C   0  0  0  0  0  0  0  0  0  0  0  0
    9.6950   -1.5960   24.2450 N   0  0  0  0  0  0  0  0  0  0  0  0
    8.4020   -1.5740   23.8230 N   0  0  0  0  0  0  0  0  0  0  0  0
    8.2180   -1.4820   22.4520 C   0  0  0  0  0  0  0  0  0  0  0  0
    9.5610   -1.4540   22.0560 C   0  0  0  0  0  0  0  0  0  0  0  0
   10.4560   -1.5190   23.1480 C   0  0  0  0  0  0  0  0  0  0  0  0
    9.4110    3.3050   23.5140 C   0  0  0  0  0  0  0  0  0  0  0  0
   10.0980    4.5180   23.6050 C   0  0  0  0  0  0  0  0  0  0  0  0
    9.5480    5.7340   23.1690 C   0  0  0  0  0  0  0  0  0  0  0  0
    8.2470    5.7440   22.6070 C   0  0  0  0  0  0  0  0  0  0  0  0
    7.4910    4.5600   22.4830 C   0  0  0  0  0  0  0  0  0  0  0  0
    8.0980    3.2610   22.9680 C   0  0  0  0  0  0  0  0  0  0  0  0
    1.6480   -2.3990   26.0220 C   0  0  0  0  0  0  0  0  0  0  0  0
    1.3720   -3.6730   25.5730 C   0  0  0  0  0  0  0  0  0  0  0  0
    2.4190   -4.7470   25.4150 C   0  0  0  0  0  0  0  0  0  0  0  0
    3.7320   -4.4140   25.7470 C   0  0  0  0  0  0  0  0  0  0  0  0
    3.9860   -3.1010   26.1990 C   0  0  0  0  0  0  0  0  0  0  0  0
    2.9790   -2.1210   26.3330 C   0  0  0  0  0  0  0  0  0  0  0  0
    6.5690   -5.3480   21.5630 C   0  0  1  0  0  0  0  0  0  0  0  0
    5.7700   -6.4100   21.8780 C   0  0  0  0  0  0  0  0  0  0  0  0
    4.9940   -6.1890   23.0030 C   0  0  0  0  0  0  0  0  0  0  0  0
    5.6480   -5.2930   24.0290 N   0  0  0  0  0  0  0  0  0  0  0  0
    7.1070   -4.9340   23.8600 C   0  0  0  0  0  0  0  0  0  0  0  0
    7.4490   -4.7750   22.4810 C   0  0  2  0  0  0  0  0  0  0  0  0
  2  4  1  0
  1  7  1  0
  3  7  2  0
  4  7  1  1
  1  8  1  0
  5  9  1  0
  6  9  2  0
  8  9  1  6
 10 11  1  0
 13 14  1  1
 13 15  1  0
 13 16  1  0
 15 17  1  0
  2 18  1  1
 20 23  2  0
 21 23  2  0
 16 24  3  0
 25 26  2  0
 26 27  1  0
 27 28  2  0
  8 29  1  0
 28 29  1  0
 25 30  1  0
 29 30  2  0
 31 32  1  0
  1 33  1  0
 32 33  1  0
 33 34  2  0
 13 35  1  0
 31 35  2  0
 34 35  1  0
 10 36  1  0
 36 37  2  0
 37 38  1  0
 38 39  2  0
 12 40  1  0
 39 40  1  0
  5 41  1  0
 36 41  1  0
 40 41  2  0
 19 42  1  0
 42 43  2  0
 22 44  1  0
 43 44  1  0
 23 45  1  0
 44 45  2  0
 45 46  1  0
 42 47  1  0
 46 47  2  0
  2 48  1  0
  4 48  1  0
 48 49  1  1
 49 50  1  0
 23 51  1  0
 50 51  1  0
 51 52  1  0
  4 53  1  0
 48 53  1  0
 53 52  1  1
M  END
