x2569-x0820
     RDKit          3D

 35 38  0  0  0  0  0  0  0  0999 V2000
    7.0180   -4.9080   21.7960 N   0  0  0  0  0  0  0  0  0  0  0  0
    6.9570   -2.4930   22.4500 C   0  0  0  0  0  0  0  0  0  0  0  0
    5.4460   -5.2670   20.0730 O   0  0  0  0  0  0  0  0  0  0  0  0
    7.1970   -3.9440   22.8190 C   0  0  1  0  0  0  0  0  0  0  0  0
    6.4090   -4.6290   20.5720 C   0  0  0  0  0  0  0  0  0  0  0  0
    6.9990   -3.5420   19.7740 C   0  0  0  0  0  0  0  0  0  0  0  0
    8.2610    0.2190   21.6400 C   0  0  0  0  0  0  0  0  0  0  0  0
    9.0760    1.3380   21.2620 O   0  0  0  0  0  0  0  0  0  0  0  0
    8.8270   -0.9710   22.4190 C   0  0  2  0  0  0  0  0  0  0  0  0
   14.0420   -1.5150   20.3880 N   0  0  0  0  0  0  0  0  0  0  0  0
    6.9220    0.0540   21.3530 N   0  0  0  0  0  0  0  0  0  0  0  0
   13.3200   -1.2800   21.5530 C   0  0  0  0  0  0  0  0  0  0  0  0
    7.8730   -1.5620   23.3070 C   0  0  0  0  0  0  0  0  0  0  0  0
    6.3320   -4.2350   24.0140 C   0  0  0  0  0  0  0  0  0  0  0  0
    6.8510   -4.3280   25.3230 C   0  0  0  0  0  0  0  0  0  0  0  0
    5.9940   -4.5800   26.3600 C   0  0  0  0  0  0  0  0  0  0  0  0
    4.6140   -4.7490   26.1500 C   0  0  0  0  0  0  0  0  0  0  0  0
    4.0560   -4.6700   24.8900 C   0  0  0  0  0  0  0  0  0  0  0  0
    4.9570   -4.4000   23.7690 C   0  0  0  0  0  0  0  0  0  0  0  0
    6.4620   -4.6790   27.6850 C   0  0  0  0  0  0  0  0  0  0  0  0
    7.8160   -4.5280   27.9760 C   0  0  0  0  0  0  0  0  0  0  0  0
    8.7030   -4.2740   26.9390 C   0  0  0  0  0  0  0  0  0  0  0  0
    8.2170   -4.1740   25.6250 C   0  0  0  0  0  0  0  0  0  0  0  0
   11.6970    0.1000   24.6240 N   0  0  0  0  0  0  0  0  0  0  0  0
   12.6490   -0.2850   23.7600 C   0  0  0  0  0  0  0  0  0  0  0  0
   12.3720   -0.8490   22.5640 C   0  0  0  0  0  0  0  0  0  0  0  0
   11.1140   -1.0450   22.1990 C   0  0  0  0  0  0  0  0  0  0  0  0
   10.0840   -0.6980   22.9680 C   0  0  0  0  0  0  0  0  0  0  0  0
   10.4190   -0.1190   24.1950 C   0  0  0  0  0  0  0  0  0  0  0  0
    6.3130    0.6210   17.6760 N   0  0  0  0  0  0  0  0  0  0  0  0
    6.8920    0.1630   18.9150 C   0  0  0  0  0  0  0  0  0  0  0  0
    6.3550    0.4680   20.1610 C   0  0  0  0  0  0  0  0  0  0  0  0
    5.1940    1.2320   20.2630 C   0  0  0  0  0  0  0  0  0  0  0  0
    4.5750    1.7040   19.1130 C   0  0  0  0  0  0  0  0  0  0  0  0
    5.2070    1.3620   17.7710 C   0  0  0  0  0  0  0  0  0  0  0  0
  1  4  1  0
  4  2  1  6
  1  5  1  0
  3  5  2  0
  5  6  1  0
  7  8  2  0
  7  9  1  0
  7 11  1  0
 10 12  3  0
  2 13  1  0
  9 13  1  1
  4 14  1  0
 14 15  2  0
 15 16  1  0
 16 17  2  0
 17 18  1  0
 14 19  1  0
 18 19  2  0
 16 20  1  0
 20 21  2  0
 21 22  1  0
 15 23  1  0
 22 23  2  0
 24 25  2  0
 12 26  1  0
 25 26  1  0
 26 27  2  0
  9 28  1  0
 27 28  1  0
 24 29  1  0
 28 29  2  0
 30 31  2  0
 11 32  1  0
 31 32  1  0
 32 33  2  0
 33 34  1  0
 30 35  1  0
 34 35  2  0
M  END
