x2569-x2705
     RDKit          3D

 34 36  0  0  0  0  0  0  0  0999 V2000
    7.0300   -1.5600   21.7870 N   0  0  0  0  0  0  0  0  0  0  0  0
    6.9510   -4.9560   20.5700 C   0  0  0  0  0  0  0  0  0  0  0  0
    4.8690   -3.0490   21.2380 O   0  0  0  0  0  0  0  0  0  0  0  0
    6.9430   -4.0410   21.7450 C   0  0  0  0  0  0  0  0  0  0  0  0
    7.3200    1.8720   22.8480 N   0  0  0  0  0  0  0  0  0  0  0  0
    8.7820    0.8100   21.3920 O   0  0  0  0  0  0  0  0  0  0  0  0
    6.1650   -2.8020   21.5670 C   0  0  0  0  0  0  0  0  0  0  0  0
    6.5520   -0.1330   21.6100 C   0  0  1  0  0  0  0  0  0  0  0  0
    7.6760    0.8650   21.9260 C   0  0  0  0  0  0  0  0  0  0  0  0
   10.0280    1.9210   23.9810 C   0  0  0  0  0  0  0  0  0  0  0  0
    9.2050    1.1320   24.9940 C   0  0  0  0  0  0  0  0  0  0  0  0
    6.0870    4.3660   21.8520 C   0  0  0  0  0  0  0  0  0  0  0  0
   11.9640   -1.4990   23.3690 C   0  0  0  0  0  0  0  0  0  0  0  0
   12.4270   -0.2900   23.8930 C   0  0  0  0  0  0  0  0  0  0  0  0
   12.4680   -2.6130   24.3160 C   0  0  0  0  0  0  0  0  0  0  0  0
   12.6940   -1.7230   22.0410 C   0  0  0  0  0  0  0  0  0  0  0  0
   13.4710   -1.8650   20.8240 N   0  0  0  0  0  0  0  0  0  0  0  0
    6.4620    0.3480   17.8120 N   0  0  0  0  0  0  0  0  0  0  0  0
    5.2280    1.1460   17.7790 C   0  0  0  0  0  0  0  0  0  0  0  0
    4.4170    1.5130   18.9230 C   0  0  0  0  0  0  0  0  0  0  0  0
    4.8970    1.0440   20.2030 C   0  0  0  0  0  0  0  0  0  0  0  0
    6.0690    0.2980   20.2550 C   0  0  0  0  0  0  0  0  0  0  0  0
    6.7520    0.0040   19.0770 C   0  0  0  0  0  0  0  0  0  0  0  0
    9.5380   -1.5960   24.3660 N   0  0  0  0  0  0  0  0  0  0  0  0
    8.2280   -1.6230   23.9650 N   0  0  0  0  0  0  0  0  0  0  0  0
    8.2760   -1.5870   22.5900 C   0  0  0  0  0  0  0  0  0  0  0  0
    9.5820   -1.5470   22.1210 C   0  0  0  0  0  0  0  0  0  0  0  0
   10.4230   -1.5470   23.2140 C   0  0  0  0  0  0  0  0  0  0  0  0
    9.3400    3.1670   23.4740 C   0  0  0  0  0  0  0  0  0  0  0  0
   10.0340    4.3800   23.5650 C   0  0  0  0  0  0  0  0  0  0  0  0
    9.4590    5.5680   23.1120 C   0  0  0  0  0  0  0  0  0  0  0  0
    8.1730    5.5580   22.5540 C   0  0  0  0  0  0  0  0  0  0  0  0
    7.4740    4.3410   22.4620 C   0  0  0  0  0  0  0  0  0  0  0  0
    8.0450    3.1390   22.9240 C   0  0  0  0  0  0  0  0  0  0  0  0
  2  4  1  0
  1  7  1  0
  3  7  2  0
  4  7  1  0
  1  8  1  0
  5  9  1  0
  6  9  2  0
  8  9  1  6
 10 11  1  0
 13 14  1  0
 13 15  1  0
 13 16  1  0
 16 17  3  0
 18 19  2  0
 19 20  1  0
 20 21  2  0
  8 22  1  0
 21 22  1  0
 18 23  1  0
 22 23  2  0
 24 25  1  0
  1 26  1  0
 25 26  2  0
 26 27  1  0
 13 28  1  0
 24 28  1  0
 27 28  2  0
 10 29  1  0
 29 30  2  0
 30 31  1  0
 31 32  2  0
 12 33  1  0
 32 33  1  0
  5 34  1  0
 29 34  1  0
 33 34  2  0
M  END
