x2569-x1418
     RDKit          3D

 28 33  0  0  0  0  0  0  0  0999 V2000
    7.9300   -0.0010   21.6310 C   0  0  1  0  0  0  0  0  0  0  0  0
    8.6510    0.7710   21.0430 O   0  0  0  0  0  0  0  0  0  0  0  0
    8.6760   -0.8330   22.6470 C   0  0  1  0  0  0  0  0  0  0  0  0
   13.6390   -2.6360   20.7130 N   0  0  0  0  0  0  0  0  0  0  0  0
    6.6280   -0.2470   21.3710 N   0  0  0  0  0  0  0  0  0  0  0  0
   13.1720   -1.7550   21.5350 C   0  0  0  0  0  0  0  0  0  0  0  0
    7.3270   -2.9710   18.7280 C   0  0  0  0  0  0  0  0  0  0  0  0
    5.4600   -4.0250   19.7040 O   0  0  0  0  0  0  0  0  0  0  0  0
    6.3550   -3.1710   19.8410 C   0  0  0  0  0  0  0  0  0  0  0  0
    9.6990   -3.0220   23.5670 C   0  0  0  0  0  0  0  0  0  0  0  0
   11.9310    0.8710   23.9680 N   0  0  0  0  0  0  0  0  0  0  0  0
   12.7790    0.1000   23.2210 C   0  0  0  0  0  0  0  0  0  0  0  0
   12.3490   -0.9100   22.3460 C   0  0  0  0  0  0  0  0  0  0  0  0
   11.0390   -1.1740   22.1900 C   0  0  0  0  0  0  0  0  0  0  0  0
   10.0760   -0.4120   22.9310 C   0  0  0  0  0  0  0  0  0  0  0  0
   10.5980    0.6400   23.8450 C   0  0  0  0  0  0  0  0  0  0  0  0
    6.6620    0.2920   18.3000 N   0  0  0  0  0  0  0  0  0  0  0  0
    6.7540   -0.0130   19.6360 C   0  0  0  0  0  0  0  0  0  0  0  0
    5.6980    0.4850   20.6510 C   0  0  0  0  0  0  0  0  0  0  0  0
    4.6640    1.2490   20.1320 C   0  0  0  0  0  0  0  0  0  0  0  0
    4.5800    1.5590   18.7800 C   0  0  0  0  0  0  0  0  0  0  0  0
    5.5600    1.0830   17.9300 C   0  0  0  0  0  0  0  0  0  0  0  0
    6.5290   -2.4200   21.0150 N   0  0  0  0  0  0  0  0  0  0  0  0
    6.3590   -3.1480   22.2930 C   0  0  0  0  0  0  0  0  0  0  0  0
    7.2790   -2.8780   23.3100 C   0  0  0  0  0  0  0  0  0  0  0  0
    8.5150   -2.3450   22.9500 C   0  0  1  0  0  0  0  0  0  0  0  0
    8.5790   -1.9700   21.6150 C   0  0  1  0  0  0  0  0  0  0  0  0
    7.5380   -1.3370   20.9670 C   0  0  1  0  0  0  0  0  0  0  0  0
  1  2  1  1
  1  3  1  0
  1  5  1  0
  4  6  3  0
  7  9  1  0
  8  9  2  0
 11 12  2  0
  6 13  1  0
 12 13  1  0
 13 14  2  0
  3 15  1  6
 14 15  1  0
 11 16  1  0
 15 16  2  0
 17 18  2  0
  5 19  1  0
 18 19  1  0
 19 20  2  0
 20 21  1  0
 17 22  1  0
 21 22  2  0
  9 23  1  0
 23 24  1  0
 24 25  1  0
  3 26  1  0
 26 10  1  1
 25 26  1  0
  3 27  1  0
 27 26  1  1
  1 28  1  0
 28  5  1  6
 23 28  1  0
 27 28  1  0
M  END
