x2563-x2600
     RDKit          3D

 21 24  0  0  0  0  0  0  0  0999 V2000
   13.6020   -3.2690   20.6330 N   0  0  0  0  0  0  0  0  0  0  0  0
    8.4740    0.3950   21.4990 C   0  0  0  0  0  0  0  0  0  0  0  0
    8.7410    1.5770   21.2330 O   0  0  0  0  0  0  0  0  0  0  0  0
    8.7460   -0.2130   22.8270 C   0  0  0  0  0  0  0  0  0  0  0  0
    7.9070   -0.5650   20.5730 N   0  0  0  0  0  0  0  0  0  0  0  0
   13.0310   -2.2400   21.4620 C   0  0  0  0  0  0  0  0  0  0  0  0
    4.6540    0.5270   18.5640 C   0  0  1  0  0  0  0  0  0  0  0  0
    5.8510   -0.5600   18.5890 C   0  0  0  0  0  0  0  0  0  0  0  0
    6.7410   -0.2620   19.8030 C   0  0  0  0  0  0  0  0  0  0  0  0
    5.8140    0.6870   20.1740 C   0  0  0  0  0  0  0  0  0  0  0  0
    5.0610    1.7170   17.9530 C   0  0  0  0  0  0  0  0  0  0  0  0
   10.8570    0.6400   23.8070 C   0  0  0  0  0  0  0  0  0  0  0  0
   12.2180    0.5920   23.8910 C   0  0  0  0  0  0  0  0  0  0  0  0
   12.9230   -0.2990   23.1710 C   0  0  0  0  0  0  0  0  0  0  0  0
   12.3500   -1.2280   22.2990 C   0  0  0  0  0  0  0  0  0  0  0  0
   10.9820   -1.1960   22.1990 C   0  0  0  0  0  0  0  0  0  0  0  0
   10.2120   -0.2380   22.9700 C   0  0  0  0  0  0  0  0  0  0  0  0
    3.6780    1.1150   19.7470 C   0  0  0  0  0  0  0  0  0  0  0  0
    3.9800    1.1010   21.1530 C   0  0  0  0  0  0  0  0  0  0  0  0
    5.0820    0.4070   21.2330 C   0  0  0  0  0  0  0  0  0  0  0  0
    5.7240    1.6800   19.0850 C   0  0  0  0  0  0  0  0  0  0  0  0
  2  3  2  0
  2  4  1  0
  2  5  1  0
  1  6  3  0
  7  8  1  1
  5  9  1  0
  8  9  2  0
  9 10  1  0
  7 11  1  0
 12 13  2  0
 13 14  1  0
  6 15  1  0
 14 15  2  0
 15 16  1  0
  4 17  1  0
 12 17  1  0
 16 17  2  0
  7 18  1  0
 18 19  2  0
 10 20  2  0
 19 20  1  0
  7 21  1  0
 10 21  1  0
 11 21  2  0
M  END
