x2569-x1375
     RDKit          3D

 38 41  0  0  0  0  0  0  0  0999 V2000
    5.7130   -4.6270   20.0030 O   0  0  0  0  0  0  0  0  0  0  0  0
    6.5890   -4.4020   20.9100 C   0  0  0  0  0  0  0  0  0  0  0  0
    7.9850   -3.9190   20.6880 C   0  0  0  0  0  0  0  0  0  0  0  0
    6.2900   -4.6110   22.2870 N   0  0  0  0  0  0  0  0  0  0  0  0
    2.4300   -6.8000   23.7540 O   0  0  0  0  0  0  0  0  0  0  0  0
    4.3920   -7.7710   24.9680 O   0  0  0  0  0  0  0  0  0  0  0  0
   10.5730   -4.5690   25.9780 F   0  0  0  0  0  0  0  0  0  0  0  0
    8.1070    0.4060   21.7240 C   0  0  0  0  0  0  0  0  0  0  0  0
    8.7800    1.3200   21.1970 O   0  0  0  0  0  0  0  0  0  0  0  0
    8.5190   -0.1320   23.0490 C   0  0  0  0  0  0  0  0  0  0  0  0
   13.8000   -1.9950   20.6040 N   0  0  0  0  0  0  0  0  0  0  0  0
    6.9640   -0.1820   21.1840 N   0  0  0  0  0  0  0  0  0  0  0  0
   13.0500   -1.5220   21.5770 C   0  0  0  0  0  0  0  0  0  0  0  0
    8.1450   -2.4660   21.1850 C   0  0  0  0  0  0  0  0  0  0  0  0
    6.8870   -1.6320   21.2950 C   0  0  0  0  0  0  0  0  0  0  0  0
    7.7860   -3.3690   23.9270 C   0  0  0  0  0  0  0  0  0  0  0  0
    8.8390   -3.3920   24.8230 C   0  0  0  0  0  0  0  0  0  0  0  0
    9.5560   -4.5510   25.1070 C   0  0  0  0  0  0  0  0  0  0  0  0
    9.1550   -5.6550   24.4450 C   0  0  0  0  0  0  0  0  0  0  0  0
    8.1010   -5.7080   23.5230 C   0  0  0  0  0  0  0  0  0  0  0  0
    7.3990   -4.5440   23.2570 C   0  0  0  0  0  0  0  0  0  0  0  0
    4.7710   -4.4430   24.1980 C   0  0  0  0  0  0  0  0  0  0  0  0
    4.9980   -4.9600   22.8280 C   0  0  2  0  0  0  0  0  0  0  0  0
    4.8370   -6.3670   22.8210 C   0  0  0  0  0  0  0  0  0  0  0  0
    3.7930   -6.7010   24.2140 S   0  0  0  0  0  0  0  0  0  0  0  0
    4.1390   -5.2170   25.0810 C   0  0  0  0  0  0  0  0  0  0  0  0
   11.9300    0.1710   24.5890 N   0  0  0  0  0  0  0  0  0  0  0  0
   12.6970   -0.4110   23.6580 C   0  0  0  0  0  0  0  0  0  0  0  0
   12.1700   -0.9200   22.5360 C   0  0  0  0  0  0  0  0  0  0  0  0
   10.8490   -0.8860   22.2570 C   0  0  0  0  0  0  0  0  0  0  0  0
   10.0470   -0.3020   23.1630 C   0  0  0  0  0  0  0  0  0  0  0  0
   10.6040    0.2150   24.3160 C   0  0  0  0  0  0  0  0  0  0  0  0
    6.3350    0.6530   17.6840 N   0  0  0  0  0  0  0  0  0  0  0  0
    6.9450    0.0990   18.7450 C   0  0  0  0  0  0  0  0  0  0  0  0
    6.3830    0.3490   19.9790 C   0  0  0  0  0  0  0  0  0  0  0  0
    5.2460    1.1050   20.2020 C   0  0  0  0  0  0  0  0  0  0  0  0
    4.6450    1.6530   19.0860 C   0  0  0  0  0  0  0  0  0  0  0  0
    5.2260    1.4040   17.8490 C   0  0  0  0  0  0  0  0  0  0  0  0
  1  2  2  0
  2  3  1  0
  2  4  1  0
  8  9  2  0
  8 10  1  0
  8 12  1  0
 11 13  3  0
  3 14  1  0
 12 15  1  0
 14 15  1  0
 16 17  2  0
  7 18  1  0
 17 18  1  0
 18 19  2  0
 19 20  1  0
  4 21  1  0
 16 21  1  0
 20 21  2  0
 23  4  1  1
 22 23  1  0
 23 24  1  0
 25  5  1  0
  6 25  1  0
 24 25  1  0
 22 26  2  0
 25 26  1  0
 27 28  2  0
 13 29  1  0
 28 29  1  0
 29 30  2  0
 10 31  1  0
 30 31  1  0
 27 32  1  0
 31 32  2  0
 33 34  2  0
 12 35  1  0
 34 35  1  0
 35 36  2  0
 36 37  1  0
 33 38  1  0
 37 38  2  0
M  END
