x2569-x1493
     RDKit          3D

 32 34  0  0  0  0  0  0  0  0999 V2000
    8.3470    0.3040   21.5730 C   0  0  0  0  0  0  0  0  0  0  0  0
    8.8500    1.3820   21.1850 O   0  0  0  0  0  0  0  0  0  0  0  0
    8.9890   -0.6500   22.5730 C   0  0  0  0  0  0  0  0  0  0  0  0
   13.5290   -3.0490   20.7130 N   0  0  0  0  0  0  0  0  0  0  0  0
    7.0510   -0.1780   21.1020 N   0  0  0  0  0  0  0  0  0  0  0  0
   12.9180   -2.0470   21.5190 C   0  0  0  0  0  0  0  0  0  0  0  0
    4.8190   -6.3180   26.2390 C   0  0  0  0  0  0  0  0  0  0  0  0
    7.0160   -5.4660   26.2610 O   0  0  0  0  0  0  0  0  0  0  0  0
    5.9710   -5.5990   25.6300 C   0  0  0  0  0  0  0  0  0  0  0  0
    5.5600   -4.5260   19.9320 O   0  0  0  0  0  0  0  0  0  0  0  0
    6.6120   -4.4470   20.6370 C   0  0  0  0  0  0  0  0  0  0  0  0
    7.7660   -3.6050   20.2650 C   0  0  0  0  0  0  0  0  0  0  0  0
    6.7870   -1.6060   21.2010 C   0  0  0  0  0  0  0  0  0  0  0  0
    7.2480   -2.1840   20.0530 C   0  0  0  0  0  0  0  0  0  0  0  0
   12.2890    0.7610   23.9910 N   0  0  0  0  0  0  0  0  0  0  0  0
   12.8470   -0.1860   23.1710 C   0  0  0  0  0  0  0  0  0  0  0  0
   12.1710   -1.0480   22.3710 C   0  0  0  0  0  0  0  0  0  0  0  0
   10.7940   -1.0740   22.2810 C   0  0  0  0  0  0  0  0  0  0  0  0
   10.2590   -0.1280   23.1010 C   0  0  0  0  0  0  0  0  0  0  0  0
   10.9450    0.8060   23.9710 C   0  0  0  0  0  0  0  0  0  0  0  0
    6.2750    0.7060   17.6080 N   0  0  0  0  0  0  0  0  0  0  0  0
    6.9630    0.0950   18.7480 C   0  0  0  0  0  0  0  0  0  0  0  0
    6.4730    0.3390   20.0320 C   0  0  0  0  0  0  0  0  0  0  0  0
    5.3440    1.1420   20.1830 C   0  0  0  0  0  0  0  0  0  0  0  0
    4.7050    1.7090   19.0910 C   0  0  0  0  0  0  0  0  0  0  0  0
    5.2010    1.4690   17.8610 C   0  0  0  0  0  0  0  0  0  0  0  0
    5.8100   -5.0990   24.3560 N   0  0  0  0  0  0  0  0  0  0  0  0
    6.6910   -4.0490   23.8600 C   0  0  0  0  0  0  0  0  0  0  0  0
    7.5150   -4.5450   22.9020 C   0  0  0  0  0  0  0  0  0  0  0  0
    6.7530   -5.1620   21.8170 N   0  0  0  0  0  0  0  0  0  0  0  0
    5.9560   -6.1750   22.1980 C   0  0  0  0  0  0  0  0  0  0  0  0
    5.2700   -5.8870   23.3870 C   0  0  0  0  0  0  0  0  0  0  0  0
  1  2  2  0
  1  3  1  0
  1  5  1  0
  4  6  3  0
  7  9  1  0
  8  9  2  0
 10 11  2  0
 11 12  1  0
  5 13  1  0
 12 14  1  0
 13 14  1  0
 15 16  2  0
  6 17  1  0
 16 17  1  0
 17 18  2  0
  3 19  1  0
 18 19  1  0
 15 20  1  0
 19 20  2  0
 21 22  2  0
  5 23  1  0
 22 23  1  0
 23 24  2  0
 24 25  1  0
 21 26  1  0
 25 26  2  0
  9 27  1  0
 27 28  1  0
 28 29  1  0
 11 30  1  0
 29 30  1  0
 30 31  1  0
 27 32  1  0
 31 32  1  0
M  END
