x2569-x1348
     RDKit          3D

 35 38  0  0  0  0  0  0  0  0999 V2000
    7.1050   -4.2860   21.5560 N   0  0  0  0  0  0  0  0  0  0  0  0
    7.6620   -5.5990   27.7150 C   0  0  0  0  0  0  0  0  0  0  0  0
    7.1780   -4.8840   26.8170 O   0  0  0  0  0  0  0  0  0  0  0  0
    5.5250   -4.4370   19.8850 O   0  0  0  0  0  0  0  0  0  0  0  0
    6.6420   -4.0520   20.3320 C   0  0  0  0  0  0  0  0  0  0  0  0
    7.6250   -3.2720   19.6350 C   0  0  0  0  0  0  0  0  0  0  0  0
    8.1630    0.3410   21.4780 C   0  0  0  0  0  0  0  0  0  0  0  0
    8.7750    1.3700   21.1440 O   0  0  0  0  0  0  0  0  0  0  0  0
    8.7080   -0.4850   22.5860 C   0  0  0  0  0  0  0  0  0  0  0  0
   13.6670   -1.7460   20.7010 N   0  0  0  0  0  0  0  0  0  0  0  0
    6.9900   -0.0950   20.8550 N   0  0  0  0  0  0  0  0  0  0  0  0
   13.2410   -2.1930   22.0190 C   0  0  0  0  0  0  0  0  0  0  0  0
    7.2090   -1.8460   19.4280 C   0  0  0  0  0  0  0  0  0  0  0  0
    6.8870   -1.4050   20.7260 C   0  0  0  0  0  0  0  0  0  0  0  0
    6.1850   -5.5150   26.1050 C   0  0  0  0  0  0  0  0  0  0  0  0
    6.0580   -5.4350   24.7230 C   0  0  0  0  0  0  0  0  0  0  0  0
    5.0260   -6.1040   24.0760 C   0  0  0  0  0  0  0  0  0  0  0  0
    4.0820   -6.8740   24.7630 C   0  0  0  0  0  0  0  0  0  0  0  0
    4.1860   -6.9680   26.1370 C   0  0  0  0  0  0  0  0  0  0  0  0
    5.2660   -6.2710   26.8300 C   0  0  0  0  0  0  0  0  0  0  0  0
    6.9020   -4.7240   23.9260 N   0  0  0  0  0  0  0  0  0  0  0  0
    6.4240   -4.9090   22.5930 C   0  0  0  0  0  0  0  0  0  0  0  0
    5.0720   -5.8640   22.3830 S   0  0  0  0  0  0  0  0  0  0  0  0
   12.1110    1.1450   23.2620 N   0  0  0  0  0  0  0  0  0  0  0  0
   12.8850    0.1050   22.8930 C   0  0  0  0  0  0  0  0  0  0  0  0
   12.3580   -1.1010   22.4270 C   0  0  0  0  0  0  0  0  0  0  0  0
   10.9940   -1.2880   22.3300 C   0  0  0  0  0  0  0  0  0  0  0  0
   10.1720   -0.2920   22.6880 C   0  0  0  0  0  0  0  0  0  0  0  0
   10.6770    0.8880   23.1360 C   0  0  0  0  0  0  0  0  0  0  0  0
    6.3040    0.9410   17.5260 N   0  0  0  0  0  0  0  0  0  0  0  0
    6.8420    0.4040   18.5990 C   0  0  0  0  0  0  0  0  0  0  0  0
    6.3670    0.4930   19.8720 C   0  0  0  0  0  0  0  0  0  0  0  0
    5.2020    1.2100   20.0570 C   0  0  0  0  0  0  0  0  0  0  0  0
    4.5750    1.8080   18.9660 C   0  0  0  0  0  0  0  0  0  0  0  0
    5.1750    1.6430   17.7140 C   0  0  0  0  0  0  0  0  0  0  0  0
  2  3  1  0
  1  5  1  0
  4  5  2  0
  5  6  1  0
  7  8  2  0
  7  9  1  0
  7 11  1  0
 10 12  3  0
  6 13  1  0
 11 14  1  0
 13 14  1  0
  3 15  1  0
 15 16  2  0
 16 17  1  0
 17 18  2  0
 18 19  1  0
 15 20  1  0
 19 20  2  0
 16 21  1  0
  1 22  1  0
 21 22  2  0
 17 23  1  0
 22 23  1  0
 24 25  2  0
 12 26  1  0
 25 26  1  0
 26 27  2  0
  9 28  1  0
 27 28  1  0
 24 29  1  0
 28 29  2  0
 30 31  2  0
 11 32  1  0
 31 32  1  0
 32 33  2  0
 33 34  1  0
 30 35  1  0
 34 35  2  0
M  END
