x2563-x2705-x1311-x2643
     RDKit          3D

 50 56  0  0  0  0  0  0  0  0999 V2000
    6.8600   -1.4270   20.9940 N   0  0  0  0  0  0  0  0  0  0  0  0
    6.7160   -4.7180   20.8320 C   0  0  2  0  0  0  0  0  0  0  0  0
    4.7730   -2.8790   20.9440 O   0  0  0  0  0  0  0  0  0  0  0  0
    6.7460   -3.5940   21.7110 C   0  0  0  0  0  0  0  0  0  0  0  0
    7.4970    1.8160   22.7510 N   0  0  0  0  0  0  0  0  0  0  0  0
    8.7300    1.0840   21.0410 O   0  0  0  0  0  0  0  0  0  0  0  0
    6.0030   -2.5630   21.1830 C   0  0  0  0  0  0  0  0  0  0  0  0
    6.7130   -0.0490   21.4660 C   0  0  1  0  0  0  0  0  0  0  0  0
    7.9580    0.7500   21.9400 C   0  0  2  0  0  0  0  0  0  0  0  0
   10.2090    2.0280   24.0080 C   0  0  0  0  0  0  0  0  0  0  0  0
    9.3640    1.2290   24.9950 C   0  0  0  0  0  0  0  0  0  0  0  0
    6.1640    4.2370   21.7910 C   0  0  0  0  0  0  0  0  0  0  0  0
   12.2430   -1.4780   23.5350 C   0  0  0  0  0  0  0  0  0  0  0  0
   12.8250   -0.2770   24.2510 C   0  0  0  0  0  0  0  0  0  0  0  0
   12.4780   -2.7280   24.3940 C   0  0  0  0  0  0  0  0  0  0  0  0
   12.9490   -1.5650   22.2400 C   0  0  0  0  0  0  0  0  0  0  0  0
    5.5240   -4.8620   20.0700 O   0  0  0  0  0  0  0  0  0  0  0  0
    6.7150   -5.6570   21.9940 N   0  0  0  0  0  0  0  0  0  0  0  0
    4.2260   -7.6020   25.3960 O   0  0  0  0  0  0  0  0  0  0  0  0
    2.7550   -5.6450   24.9700 O   0  0  0  0  0  0  0  0  0  0  0  0
    5.2500    1.5380   18.7920 C   0  0  1  0  0  0  0  0  0  0  0  0
    4.8560    0.2250   18.2160 C   0  0  0  0  0  0  0  0  0  0  0  0
    4.9450    0.2790   19.6320 C   0  0  1  0  0  0  0  0  0  0  0  0
    6.0930    0.6140   20.2570 C   0  0  0  0  0  0  0  0  0  0  0  0
    6.5530    1.6380   19.5920 C   0  0  0  0  0  0  0  0  0  0  0  0
    9.7320   -1.5920   24.0820 N   0  0  0  0  0  0  0  0  0  0  0  0
    8.5550   -1.0390   23.6990 N   0  0  0  0  0  0  0  0  0  0  0  0
    8.9140   -0.1800   22.7120 C   0  0  0  0  0  0  0  0  0  0  0  0
   10.2860   -0.2410   22.5060 C   0  0  0  0  0  0  0  0  0  0  0  0
   10.8040   -1.1290   23.3830 C   0  0  0  0  0  0  0  0  0  0  0  0
    9.4380    3.2080   23.4870 C   0  0  0  0  0  0  0  0  0  0  0  0
   10.0420    4.4800   23.6110 C   0  0  0  0  0  0  0  0  0  0  0  0
    9.3870    5.6320   23.1490 C   0  0  0  0  0  0  0  0  0  0  0  0
    8.1340    5.5240   22.5640 C   0  0  0  0  0  0  0  0  0  0  0  0
    7.5260    4.2700   22.4360 C   0  0  0  0  0  0  0  0  0  0  0  0
    8.1580    3.0800   22.8940 C   0  0  0  0  0  0  0  0  0  0  0  0
    8.7330   -6.1360   23.1950 C   0  0  0  0  0  0  0  0  0  0  0  0
    9.6800   -5.7470   24.0860 C   0  0  0  0  0  0  0  0  0  0  0  0
    9.6260   -4.5600   24.7140 C   0  0  0  0  0  0  0  0  0  0  0  0
    8.5700   -3.7140   24.4650 C   0  0  0  0  0  0  0  0  0  0  0  0
    7.5980   -4.0880   23.5620 C   0  0  0  0  0  0  0  0  0  0  0  0
    7.6900   -5.3200   22.9070 C   0  0  0  0  0  0  0  0  0  0  0  0
    4.5460   -6.5490   22.2520 C   0  0  0  0  0  0  0  0  0  0  0  0
    5.4340   -5.5220   22.7380 C   0  0  1  0  0  0  0  0  0  0  0  0
    5.3340   -5.5120   24.2690 C   0  0  0  0  0  0  0  0  0  0  0  0
    3.8590   -6.4790   24.5630 S   0  0  0  0  0  0  0  0  0  0  0  0
    3.6300   -7.0900   23.0650 C   0  0  0  0  0  0  0  0  0  0  0  0
    4.1400    2.5210   19.2690 C   0  0  0  0  0  0  0  0  0  0  0  0
    3.3550    1.8160   20.3860 C   0  0  0  0  0  0  0  0  0  0  0  0
    3.8270    0.5900   20.5310 C   0  0  0  0  0  0  0  0  0  0  0  0
  2  4  1  0
  1  7  1  0
  3  7  2  0
  4  7  1  0
  8  1  1  6
  5  9  1  0
  9  6  1  6
  8  9  1  0
 10 11  1  0
 13 14  1  0
 13 15  1  0
 13 16  1  0
  2 17  1  1
  2 18  1  0
 21 22  1  6
 21 23  1  0
 23 22  1  6
  8 24  1  0
 23 24  1  0
 21 25  1  0
 24 25  2  0
 26 27  1  0
  9 28  1  0
 27 28  2  0
 28 29  1  0
 13 30  1  0
 26 30  1  0
 29 30  2  0
 10 31  1  0
 31 32  2  0
 32 33  1  0
 33 34  2  0
 12 35  1  0
 34 35  1  0
  5 36  1  0
 31 36  1  0
 35 36  2  0
 37 38  2  0
 38 39  1  0
 39 40  2  0
 40 41  1  0
 18 42  1  0
 37 42  1  0
 41 42  2  0
 44 18  1  1
 43 44  1  0
 44 45  1  0
 46 19  1  0
 20 46  1  0
 45 46  1  0
 43 47  2  0
 46 47  1  0
 21 48  1  0
 48 49  1  0
 23 50  1  0
 49 50  2  0
M  END
