x2563-x2705-x0691-x2649
     RDKit          3D

 52 59  0  0  0  0  0  0  0  0999 V2000
    6.9080   -1.5370   21.9860 N   0  0  0  0  0  0  0  0  0  0  0  0
    6.6980   -4.5900   20.2980 C   0  0  2  0  0  0  0  0  0  0  0  0
    4.7560   -2.9770   21.3770 O   0  0  0  0  0  0  0  0  0  0  0  0
    6.8580   -3.7810   21.4190 C   0  0  1  0  0  0  0  0  0  0  0  0
    7.4710    2.0670   23.0510 N   0  0  0  0  0  0  0  0  0  0  0  0
    8.9880    0.8550   21.4960 O   0  0  0  0  0  0  0  0  0  0  0  0
    6.0470   -2.6850   21.6090 C   0  0  0  0  0  0  0  0  0  0  0  0
    6.5910   -0.1390   21.7380 C   0  0  1  0  0  0  0  0  0  0  0  0
    7.7110    0.9310   22.1350 C   0  0  0  0  0  0  0  0  0  0  0  0
   10.1570    2.0890   23.9970 C   0  0  0  0  0  0  0  0  0  0  0  0
    9.2590    1.2630   24.9150 C   0  0  0  0  0  0  0  0  0  0  0  0
    6.1560    4.5540   22.0190 C   0  0  0  0  0  0  0  0  0  0  0  0
   12.0180   -1.5760   23.2280 C   0  0  0  0  0  0  0  0  0  0  0  0
   12.5360   -0.1880   23.6700 C   0  0  0  0  0  0  0  0  0  0  0  0
   12.5410   -2.5890   24.2770 C   0  0  0  0  0  0  0  0  0  0  0  0
   12.6460   -1.9020   21.9300 C   0  0  0  0  0  0  0  0  0  0  0  0
    5.4990   -4.4460   19.5430 O   0  0  0  0  0  0  0  0  0  0  0  0
    4.0120   -6.8780   25.7840 O   0  0  0  0  0  0  0  0  0  0  0  0
    5.6730   -5.2790   26.7440 O   0  0  0  0  0  0  0  0  0  0  0  0
    3.2050   -0.6600   26.0960 F   0  0  0  0  0  0  0  0  0  0  0  0
    4.7010   -5.6160   25.7340 S   0  0  0  0  0  0  0  0  0  0  0  0
    5.4370    1.2450   18.4860 C   0  0  1  0  0  0  0  0  0  0  0  0
    4.9650   -0.0830   18.0590 C   0  0  0  0  0  0  0  0  0  0  0  0
    4.9370    0.1700   19.4550 C   0  0  1  0  0  0  0  0  0  0  0  0
    6.1290    0.3250   20.3840 C   0  0  0  0  0  0  0  0  0  0  0  0
    6.6400    1.2320   19.3300 C   0  0  0  0  0  0  0  0  0  0  0  0
    9.6850   -1.7800   24.2450 N   0  0  0  0  0  0  0  0  0  0  0  0
    8.3600   -1.7830   23.9700 N   0  0  0  0  0  0  0  0  0  0  0  0
    8.2140   -1.6200   22.6340 C   0  0  0  0  0  0  0  0  0  0  0  0
    9.4970   -1.5290   22.1230 C   0  0  0  0  0  0  0  0  0  0  0  0
   10.4740   -1.6220   23.1430 C   0  0  0  0  0  0  0  0  0  0  0  0
    9.4850    3.3470   23.5130 C   0  0  0  0  0  0  0  0  0  0  0  0
   10.2830    4.5450   23.5720 C   0  0  0  0  0  0  0  0  0  0  0  0
    9.5980    5.6670   23.0940 C   0  0  0  0  0  0  0  0  0  0  0  0
    8.2800    5.6350   22.6050 C   0  0  0  0  0  0  0  0  0  0  0  0
    7.5620    4.4680   22.5710 C   0  0  0  0  0  0  0  0  0  0  0  0
    8.1540    3.3150   23.0320 C   0  0  0  0  0  0  0  0  0  0  0  0
    2.8520   -1.9450   25.9310 C   0  0  0  0  0  0  0  0  0  0  0  0
    3.8640   -2.9530   25.9210 C   0  0  0  0  0  0  0  0  0  0  0  0
    3.4910   -4.3100   25.7500 C   0  0  0  0  0  0  0  0  0  0  0  0
    2.1320   -4.5940   25.5950 C   0  0  0  0  0  0  0  0  0  0  0  0
    1.1400   -3.6040   25.6050 C   0  0  0  0  0  0  0  0  0  0  0  0
    1.4990   -2.2630   25.7760 C   0  0  0  0  0  0  0  0  0  0  0  0
    6.5140   -5.2250   21.6970 C   0  0  0  0  0  0  0  0  0  0  0  0
    5.2200   -5.6550   21.9600 C   0  0  0  0  0  0  0  0  0  0  0  0
    5.0170   -6.3550   23.1360 C   0  0  0  0  0  0  0  0  0  0  0  0
    5.4300   -5.4450   24.2190 N   0  0  0  0  0  0  0  0  0  0  0  0
    6.8910   -5.2090   24.1940 C   0  0  0  0  0  0  0  0  0  0  0  0
    7.4530   -5.5820   22.8130 C   0  0  0  0  0  0  0  0  0  0  0  0
    4.4510    2.4480   18.8120 C   0  0  0  0  0  0  0  0  0  0  0  0
    3.4240    2.0510   19.7780 C   0  0  0  0  0  0  0  0  0  0  0  0
    3.7090    0.7100   20.1320 C   0  0  0  0  0  0  0  0  0  0  0  0
  2  4  1  0
  1  7  1  0
  3  7  2  0
  4  7  1  6
  1  8  1  0
  5  9  1  0
  6  9  2  0
  8  9  1  6
 10 11  1  0
 13 14  1  0
 13 15  1  0
 13 16  1  0
  2 17  1  6
 18 21  2  0
 19 21  2  0
 22 23  1  6
 22 24  1  0
 24 23  1  6
  8 25  1  0
 24 25  1  0
 22 26  1  0
 25 26  2  0
 27 28  1  0
  1 29  1  0
 28 29  1  0
 29 30  2  0
 13 31  1  0
 27 31  2  0
 30 31  1  0
 10 32  1  0
 32 33  2  0
 33 34  1  0
 34 35  2  0
 12 36  1  0
 35 36  1  0
  5 37  1  0
 32 37  1  0
 36 37  2  0
 20 38  1  0
 38 39  2  0
 21 40  1  0
 39 40  1  0
 40 41  2  0
 41 42  1  0
 38 43  1  0
 42 43  2  0
  2 44  1  0
  4 44  1  0
 44 45  1  0
 45 46  1  0
 21 47  1  0
 46 47  1  0
 47 48  1  0
 44 49  1  0
 48 49  1  0
 22 50  1  0
 50 51  1  0
 24 52  1  0
 51 52  2  0
M  END
