x2562-x1351
     RDKit          3D

 41 45  0  0  0  0  0  0  0  0999 V2000
    8.0900   -0.0840   21.4050 C   0  0  0  0  0  0  0  0  0  0  0  0
    8.0080    1.1480   21.4360 O   0  0  0  0  0  0  0  0  0  0  0  0
    7.0470   -0.9320   20.7110 C   0  0  2  0  0  0  0  0  0  0  0  0
   12.0090    2.9300   23.3700 O   0  0  0  0  0  0  0  0  0  0  0  0
    9.2280   -0.8510   21.9980 N   0  0  0  0  0  0  0  0  0  0  0  0
   12.9930    6.8330   22.6270 O   0  0  0  0  0  0  0  0  0  0  0  0
    7.0980   -3.2400   19.3410 C   0  0  0  0  0  0  0  0  0  0  0  0
    5.2460   -4.5880   19.8960 O   0  0  0  0  0  0  0  0  0  0  0  0
    6.2580   -3.9770   20.3160 C   0  0  0  0  0  0  0  0  0  0  0  0
    5.8570   -3.0120   25.4390 N   0  0  0  0  0  0  0  0  0  0  0  0
    7.9550   -2.8430   26.3960 O   0  0  0  0  0  0  0  0  0  0  0  0
    6.8340   -2.3810   26.2120 C   0  0  0  0  0  0  0  0  0  0  0  0
    7.7280   -1.9150   19.8240 C   0  0  0  0  0  0  0  0  0  0  0  0
    4.3270    1.6320   19.4310 N   0  0  0  0  0  0  0  0  0  0  0  0
    4.9320    1.6310   18.0980 C   0  0  0  0  0  0  0  0  0  0  0  0
    6.0330    0.9380   17.5890 N   0  0  0  0  0  0  0  0  0  0  0  0
    6.7010    0.0820   18.5360 C   0  0  0  0  0  0  0  0  0  0  0  0
    6.2650   -0.0210   19.8160 C   0  0  0  0  0  0  0  0  0  0  0  0
    5.1580    0.7020   20.2170 C   0  0  0  0  0  0  0  0  0  0  0  0
   12.4460    4.7610   21.7710 N   0  0  0  0  0  0  0  0  0  0  0  0
   13.3820    5.5070   22.3500 C   0  0  2  0  0  0  0  0  0  0  0  0
   13.5640    4.7560   23.4050 C   0  0  0  0  0  0  0  0  0  0  0  0
   12.9840    3.6770   22.7530 C   0  0  1  0  0  0  0  0  0  0  0  0
   11.5920   -1.0960   22.2680 C   0  0  0  0  0  0  0  0  0  0  0  0
   12.8920   -0.5410   22.5810 C   0  0  0  0  0  0  0  0  0  0  0  0
   12.9800    0.7920   22.9350 C   0  0  0  0  0  0  0  0  0  0  0  0
   11.8400    1.6040   23.0060 C   0  0  0  0  0  0  0  0  0  0  0  0
   10.5800    1.0510   22.7020 C   0  0  0  0  0  0  0  0  0  0  0  0
   10.4680   -0.2760   22.3320 C   0  0  0  0  0  0  0  0  0  0  0  0
    6.6320   -4.0320   21.6480 N   0  0  0  0  0  0  0  0  0  0  0  0
    7.4880   -3.1990   22.2750 C   0  0  0  0  0  0  0  0  0  0  0  0
    7.3650   -3.0780   23.6350 C   0  0  0  0  0  0  0  0  0  0  0  0
    6.0650   -3.3350   24.0710 C   0  0  0  0  0  0  0  0  0  0  0  0
    5.6210   -4.6100   23.6680 C   0  0  0  0  0  0  0  0  0  0  0  0
    6.1680   -5.1300   22.4810 C   0  0  0  0  0  0  0  0  0  0  0  0
    7.0430   -0.7180   28.0520 C   0  0  0  0  0  0  0  0  0  0  0  0
    6.7510    0.4640   28.7350 C   0  0  0  0  0  0  0  0  0  0  0  0
    5.8140    1.3730   28.2340 C   0  0  0  0  0  0  0  0  0  0  0  0
    5.1340    1.1310   27.0280 C   0  0  0  0  0  0  0  0  0  0  0  0
    5.3980   -0.1400   26.2220 C   0  0  0  0  0  0  0  0  0  0  0  0
    6.4380   -1.0820   26.8440 C   0  0  0  0  0  0  0  0  0  0  0  0
  1  2  2  0
  1  3  1  0
  1  5  1  0
  7  9  1  0
  8  9  2  0
 10 12  1  0
 11 12  2  0
  3 13  1  6
  7 13  1  0
 14 15  2  0
 15 16  1  0
 16 17  2  0
  3 18  1  0
 17 18  1  0
 14 19  1  0
 18 19  2  0
 21  6  1  1
 20 21  1  0
 21 22  1  0
 23  4  1  1
 20 23  1  0
 22 23  1  0
 24 25  2  0
 25 26  1  0
  4 27  1  0
 26 27  2  0
 27 28  1  0
  5 29  1  0
 24 29  1  0
 28 29  2  0
  9 30  1  0
 30 31  1  0
 31 32  1  0
 10 33  1  0
 32 33  1  0
 33 34  1  0
 30 35  1  0
 34 35  1  0
 36 37  2  0
 37 38  1  0
 38 39  2  0
 39 40  1  0
 12 41  1  0
 36 41  1  0
 40 41  2  0
M  END
