x2569-x0434
     RDKit          3D

 18 19  0  0  0  0  0  0  0  0999 V2000
    8.1700    0.3050   21.7730 C   0  0  0  0  0  0  0  0  0  0  0  0
    8.7660    1.2880   21.2560 O   0  0  0  0  0  0  0  0  0  0  0  0
    8.6310   -0.3760   23.0470 C   0  0  0  0  0  0  0  0  0  0  0  0
   13.8410   -1.4090   20.5250 N   0  0  0  0  0  0  0  0  0  0  0  0
    6.9670   -0.2610   21.1780 N   0  0  0  0  0  0  0  0  0  0  0  0
   13.2080   -2.1500   21.5610 C   0  0  0  0  0  0  0  0  0  0  0  0
   12.2030    0.3660   24.1200 N   0  0  0  0  0  0  0  0  0  0  0  0
   12.8200   -0.3370   23.4320 C   0  0  0  0  0  0  0  0  0  0  0  0
   12.3860   -1.2910   22.4020 C   0  0  0  0  0  0  0  0  0  0  0  0
   10.9010   -1.2780   22.3000 C   0  0  0  0  0  0  0  0  0  0  0  0
   10.1180   -0.3640   23.1920 C   0  0  0  0  0  0  0  0  0  0  0  0
   10.8490    0.4300   24.0820 C   0  0  0  0  0  0  0  0  0  0  0  0
    6.3740    0.6870   17.6840 N   0  0  0  0  0  0  0  0  0  0  0  0
    6.8950    0.1450   18.7520 C   0  0  0  0  0  0  0  0  0  0  0  0
    6.3890    0.3010   19.9840 C   0  0  0  0  0  0  0  0  0  0  0  0
    5.2920    1.0270   20.1260 C   0  0  0  0  0  0  0  0  0  0  0  0
    4.6650    1.6410   19.0360 C   0  0  0  0  0  0  0  0  0  0  0  0
    5.1500    1.5390   17.7150 C   0  0  0  0  0  0  0  0  0  0  0  0
  1  2  2  0
  1  3  1  0
  1  5  1  0
  4  6  3  0
  7  8  2  0
  6  9  1  0
  8  9  1  0
  9 10  2  0
  3 11  1  0
 10 11  1  0
  7 12  1  0
 11 12  2  0
 13 14  2  0
  5 15  1  0
 14 15  1  0
 15 16  2  0
 16 17  1  0
 13 18  1  0
 17 18  2  0
M  END
