x2562-x2600
     RDKit          3D

 24 26  0  0  0  0  0  0  0  0999 V2000
    8.2130    0.5120   21.5990 C   0  0  0  0  0  0  0  0  0  0  0  0
    8.4460    1.5760   21.0070 O   0  0  0  0  0  0  0  0  0  0  0  0
    7.1670   -0.4560   21.1540 C   0  0  0  0  0  0  0  0  0  0  0  0
   12.1000    2.8390   23.4970 O   0  0  0  0  0  0  0  0  0  0  0  0
    8.9330    0.0660   22.7920 N   0  0  0  0  0  0  0  0  0  0  0  0
   12.8130    6.8400   22.4940 O   0  0  0  0  0  0  0  0  0  0  0  0
   13.6250   -2.9520   20.7640 N   0  0  0  0  0  0  0  0  0  0  0  0
   13.2330   -1.9400   21.5580 C   0  0  0  0  0  0  0  0  0  0  0  0
    4.5110    1.5910   19.2520 N   0  0  0  0  0  0  0  0  0  0  0  0
    5.0370    1.3920   18.0230 C   0  0  0  0  0  0  0  0  0  0  0  0
    6.2080    0.6080   17.6560 N   0  0  0  0  0  0  0  0  0  0  0  0
    6.8950    0.0000   18.6230 C   0  0  0  0  0  0  0  0  0  0  0  0
    6.4250    0.1570   20.0420 C   0  0  0  0  0  0  0  0  0  0  0  0
    5.1910    0.9670   20.3760 C   0  0  0  0  0  0  0  0  0  0  0  0
   12.4800    4.5060   21.8740 N   0  0  0  0  0  0  0  0  0  0  0  0
   13.4000    5.5690   22.3250 C   0  0  2  0  0  0  0  0  0  0  0  0
   13.4630    4.7760   23.3720 C   0  0  0  0  0  0  0  0  0  0  0  0
   13.0590    3.6240   22.7890 C   0  0  1  0  0  0  0  0  0  0  0  0
   11.1250   -1.1540   22.1540 C   0  0  0  0  0  0  0  0  0  0  0  0
   12.4540   -0.8520   22.1270 C   0  0  0  0  0  0  0  0  0  0  0  0
   12.8840    0.4420   22.5780 C   0  0  0  0  0  0  0  0  0  0  0  0
   11.8810    1.4730   23.0350 C   0  0  0  0  0  0  0  0  0  0  0  0
   10.4960    1.0490   23.0040 C   0  0  0  0  0  0  0  0  0  0  0  0
   10.3080   -0.2120   22.5730 C   0  0  0  0  0  0  0  0  0  0  0  0
  1  2  2  0
  1  3  1  0
  1  5  1  0
  7  8  3  0
  9 10  2  0
 10 11  1  0
 11 12  2  0
  3 13  1  0
 12 13  1  0
  9 14  1  0
 13 14  2  0
 16  6  1  1
 15 16  1  0
 16 17  1  0
 18  4  1  1
 15 18  1  0
 17 18  1  0
  8 20  1  0
 19 20  2  0
 20 21  1  0
  4 22  1  0
 21 22  2  0
 22 23  1  0
  5 24  1  0
 19 24  1  0
 23 24  2  0
M  END
