x2569-x2705-x0691-x2649
     RDKit          3D

 52 57  0  0  0  0  0  0  0  0999 V2000
    6.9260   -1.5000   21.8800 N   0  0  0  0  0  0  0  0  0  0  0  0
    6.6070   -4.6120   20.3370 C   0  0  2  0  0  0  0  0  0  0  0  0
    4.7350   -2.9090   21.2780 O   0  0  0  0  0  0  0  0  0  0  0  0
    6.7640   -3.8710   21.5780 C   0  0  1  0  0  0  0  0  0  0  0  0
    7.3780    2.0490   22.7340 N   0  0  0  0  0  0  0  0  0  0  0  0
    8.9210    0.8200   21.5200 O   0  0  0  0  0  0  0  0  0  0  0  0
    6.0080   -2.6790   21.5710 C   0  0  0  0  0  0  0  0  0  0  0  0
    6.6300   -0.0550   21.5790 C   0  0  1  0  0  0  0  0  0  0  0  0
    7.7760    0.9630   21.9400 C   0  0  0  0  0  0  0  0  0  0  0  0
   10.1590    2.0760   23.9610 C   0  0  0  0  0  0  0  0  0  0  0  0
    9.3620    1.1850   24.9130 C   0  0  0  0  0  0  0  0  0  0  0  0
    6.1510    4.5470   21.8590 C   0  0  0  0  0  0  0  0  0  0  0  0
   11.9990   -1.5600   23.3180 C   0  0  0  0  0  0  0  0  0  0  0  0
   12.4740   -0.1980   23.8760 C   0  0  0  0  0  0  0  0  0  0  0  0
   12.5100   -2.6350   24.2980 C   0  0  0  0  0  0  0  0  0  0  0  0
   12.7030   -1.7650   22.0220 C   0  0  0  0  0  0  0  0  0  0  0  0
    5.4200   -4.3740   19.5990 O   0  0  0  0  0  0  0  0  0  0  0  0
    4.0230   -6.8940   25.9830 O   0  0  0  0  0  0  0  0  0  0  0  0
    5.8280   -5.2600   26.5910 O   0  0  0  0  0  0  0  0  0  0  0  0
    3.1990   -0.6230   26.0140 F   0  0  0  0  0  0  0  0  0  0  0  0
    4.7460   -5.6710   25.7350 S   0  0  0  0  0  0  0  0  0  0  0  0
    4.0810    1.6520   21.2480 C   0  0  0  0  0  0  0  0  0  0  0  0
   13.2860   -1.9060   21.0210 N   0  0  0  0  0  0  0  0  0  0  0  0
    6.3300    0.3010   17.8620 N   0  0  0  0  0  0  0  0  0  0  0  0
    5.2320    1.0600   17.7840 C   0  0  0  0  0  0  0  0  0  0  0  0
    4.5070    1.4900   18.8500 C   0  0  0  0  0  0  0  0  0  0  0  0
    4.9190    1.1360   20.1220 C   0  0  0  0  0  0  0  0  0  0  0  0
    6.0600    0.3570   20.2570 C   0  0  0  0  0  0  0  0  0  0  0  0
    6.7260   -0.0380   19.0930 C   0  0  0  0  0  0  0  0  0  0  0  0
    9.7170   -1.7200   24.2950 N   0  0  0  0  0  0  0  0  0  0  0  0
    8.4290   -1.7060   23.8990 N   0  0  0  0  0  0  0  0  0  0  0  0
    8.2320   -1.5730   22.5420 C   0  0  0  0  0  0  0  0  0  0  0  0
    9.5590   -1.5050   22.0590 C   0  0  0  0  0  0  0  0  0  0  0  0
   10.4520   -1.5940   23.1890 C   0  0  0  0  0  0  0  0  0  0  0  0
    9.4180    3.3060   23.4830 C   0  0  0  0  0  0  0  0  0  0  0  0
   10.0870    4.5520   23.6250 C   0  0  0  0  0  0  0  0  0  0  0  0
    9.4930    5.7420   23.2090 C   0  0  0  0  0  0  0  0  0  0  0  0
    8.2270    5.6870   22.6470 C   0  0  0  0  0  0  0  0  0  0  0  0
    7.5190    4.4800   22.4840 C   0  0  0  0  0  0  0  0  0  0  0  0
    8.1210    3.2610   22.9100 C   0  0  0  0  0  0  0  0  0  0  0  0
    2.8930   -1.9200   25.8890 C   0  0  0  0  0  0  0  0  0  0  0  0
    3.9630   -2.9450   25.8810 C   0  0  0  0  0  0  0  0  0  0  0  0
    3.5400   -4.3710   25.7410 C   0  0  0  0  0  0  0  0  0  0  0  0
    2.0990   -4.7060   25.6120 C   0  0  0  0  0  0  0  0  0  0  0  0
    1.0950   -3.5570   25.6330 C   0  0  0  0  0  0  0  0  0  0  0  0
    1.5230   -2.2300   25.7710 C   0  0  0  0  0  0  0  0  0  0  0  0
    6.3880   -5.3560   21.6300 C   0  0  0  0  0  0  0  0  0  0  0  0
    5.3700   -4.5750   22.1210 C   0  0  0  0  0  0  0  0  0  0  0  0
    4.5030   -5.1980   23.0280 C   0  0  0  0  0  0  0  0  0  0  0  0
    5.3370   -5.7350   24.1290 N   0  0  0  0  0  0  0  0  0  0  0  0
    6.8170   -5.6190   23.8940 C   0  0  0  0  0  0  0  0  0  0  0  0
    7.1050   -6.1610   22.6210 C   0  0  0  0  0  0  0  0  0  0  0  0
  2  4  1  0
  1  7  1  0
  3  7  2  0
  4  7  1  6
  1  8  1  0
  5  9  1  0
  6  9  2  0
  8  9  1  6
 10 11  1  0
 13 14  1  0
 13 15  1  0
 13 16  1  0
  2 17  1  6
 18 21  2  0
 19 21  2  0
 16 23  3  0
 24 25  2  0
 25 26  1  0
 22 27  1  0
 26 27  2  0
  8 28  1  0
 27 28  1  0
 24 29  1  0
 28 29  2  0
 30 31  1  0
  1 32  1  0
 31 32  1  0
 32 33  2  0
 13 34  1  0
 30 34  2  0
 33 34  1  0
 10 35  1  0
 35 36  2  0
 36 37  1  0
 37 38  2  0
 12 39  1  0
 38 39  1  0
  5 40  1  0
 35 40  1  0
 39 40  2  0
 20 41  1  0
 41 42  2  0
 21 43  1  0
 42 43  1  0
 43 44  2  0
 44 45  1  0
 41 46  1  0
 45 46  2  0
  2 47  1  0
  4 47  1  0
 47 48  1  0
 48 49  1  0
 21 50  1  0
 49 50  1  0
 50 51  1  0
 47 52  1  0
 51 52  1  0
M  END
