x2569-x1386
     RDKit          3D

 28 33  0  0  0  0  0  0  0  0999 V2000
    8.1640   -0.2310   21.6000 C   0  0  1  0  0  0  0  0  0  0  0  0
    8.7720    0.6710   21.0370 O   0  0  0  0  0  0  0  0  0  0  0  0
    8.7980   -0.9200   22.7820 C   0  0  1  0  0  0  0  0  0  0  0  0
   13.6510   -1.5720   20.6810 N   0  0  0  0  0  0  0  0  0  0  0  0
    6.8870   -0.2560   21.3880 N   0  0  0  0  0  0  0  0  0  0  0  0
   13.3640   -1.7250   22.0670 C   0  0  0  0  0  0  0  0  0  0  0  0
    7.4140   -2.9920   18.6550 C   0  0  0  0  0  0  0  0  0  0  0  0
    5.5310   -3.9450   19.6940 O   0  0  0  0  0  0  0  0  0  0  0  0
    6.4970   -3.1130   19.7910 C   0  0  0  0  0  0  0  0  0  0  0  0
    9.6830   -3.1110   23.6940 C   0  0  0  0  0  0  0  0  0  0  0  0
   11.7890    1.1060   23.8620 N   0  0  0  0  0  0  0  0  0  0  0  0
   12.8330    0.2720   23.2920 C   0  0  0  0  0  0  0  0  0  0  0  0
   12.4560   -0.8540   22.6360 C   0  0  0  0  0  0  0  0  0  0  0  0
   11.1770   -1.2040   22.4920 C   0  0  0  0  0  0  0  0  0  0  0  0
   10.1770   -0.3940   23.0400 C   0  0  0  0  0  0  0  0  0  0  0  0
   10.4870    0.7460   23.7230 C   0  0  0  0  0  0  0  0  0  0  0  0
    6.4030    0.6540   17.8150 N   0  0  0  0  0  0  0  0  0  0  0  0
    6.8770    0.1520   18.9480 C   0  0  0  0  0  0  0  0  0  0  0  0
    6.2950    0.3200   20.1910 C   0  0  0  0  0  0  0  0  0  0  0  0
    5.0540    1.0870   20.3300 C   0  0  0  0  0  0  0  0  0  0  0  0
    4.4520    1.6760   19.1270 C   0  0  0  0  0  0  0  0  0  0  0  0
    5.1440    1.4420   17.9350 C   0  0  0  0  0  0  0  0  0  0  0  0
    6.7370   -2.3640   20.9470 N   0  0  0  0  0  0  0  0  0  0  0  0
    7.8000   -1.5230   20.9490 C   0  0  1  0  0  0  0  0  0  0  0  0
    8.8640   -2.0270   21.7230 C   0  0  2  0  0  0  0  0  0  0  0  0
    8.6520   -2.4650   22.8360 C   0  0  2  0  0  0  0  0  0  0  0  0
    7.3360   -2.5000   23.2470 C   0  0  0  0  0  0  0  0  0  0  0  0
    6.5020   -2.8530   22.1830 C   0  0  0  0  0  0  0  0  0  0  0  0
  1  2  1  6
  1  3  1  0
  1  5  1  0
  4  6  3  0
  7  9  1  0
  8  9  2  0
 11 12  2  0
  6 13  1  0
 12 13  1  0
 13 14  2  0
  3 15  1  1
 14 15  1  0
 11 16  1  0
 15 16  2  0
 17 18  2  0
  5 19  1  0
 18 19  1  0
 19 20  2  0
 20 21  1  0
 17 22  1  0
 21 22  2  0
  9 23  1  0
  1 24  1  0
 24  5  1  6
 23 24  1  0
  3 25  1  0
 24 25  1  0
  3 26  1  0
 26 10  1  1
 25 26  1  1
 26 27  1  0
 23 28  1  0
 27 28  1  0
M  END
