x2562-x0434
     RDKit          3D

 22 24  0  0  0  0  0  0  0  0999 V2000
    8.2990   -0.1220   21.5050 C   0  0  0  0  0  0  0  0  0  0  0  0
    8.3720    1.0970   21.3200 O   0  0  0  0  0  0  0  0  0  0  0  0
    7.0770   -0.8740   21.1220 C   0  0  0  0  0  0  0  0  0  0  0  0
   12.0870    2.8910   23.3690 O   0  0  0  0  0  0  0  0  0  0  0  0
    9.3870   -0.9300   22.0910 N   0  0  0  0  0  0  0  0  0  0  0  0
   13.0150    6.9940   22.7470 O   0  0  0  0  0  0  0  0  0  0  0  0
    4.4600    1.5820   19.1390 N   0  0  0  0  0  0  0  0  0  0  0  0
    5.0440    1.5380   17.9070 C   0  0  0  0  0  0  0  0  0  0  0  0
    6.2540    0.7170   17.6670 N   0  0  0  0  0  0  0  0  0  0  0  0
    6.8210    0.0030   18.6640 C   0  0  0  0  0  0  0  0  0  0  0  0
    6.3470   -0.0600   20.0540 C   0  0  0  0  0  0  0  0  0  0  0  0
    5.1120    0.8050   20.1460 C   0  0  0  0  0  0  0  0  0  0  0  0
   12.4050    4.7120   21.9160 N   0  0  0  0  0  0  0  0  0  0  0  0
   13.4300    5.7070   22.3350 C   0  0  2  0  0  0  0  0  0  0  0  0
   13.5490    4.7860   23.2710 C   0  0  0  0  0  0  0  0  0  0  0  0
   13.0310    3.7200   22.6850 C   0  0  1  0  0  0  0  0  0  0  0  0
   11.7830   -1.1210   22.2910 C   0  0  0  0  0  0  0  0  0  0  0  0
   12.9960   -0.6160   22.5310 C   0  0  0  0  0  0  0  0  0  0  0  0
   13.1680    0.7400   22.8900 C   0  0  0  0  0  0  0  0  0  0  0  0
   12.0410    1.5640   23.0080 C   0  0  0  0  0  0  0  0  0  0  0  0
   10.7230    1.0220   22.7450 C   0  0  0  0  0  0  0  0  0  0  0  0
   10.6130   -0.3720   22.3690 C   0  0  0  0  0  0  0  0  0  0  0  0
  1  2  2  0
  1  3  1  0
  1  5  1  0
  7  8  2  0
  8  9  1  0
  9 10  2  0
  3 11  1  0
 10 11  1  0
  7 12  1  0
 11 12  2  0
 14  6  1  1
 13 14  1  0
 14 15  1  0
 16  4  1  1
 13 16  1  0
 15 16  1  0
 17 18  2  0
 18 19  1  0
  4 20  1  0
 19 20  2  0
 20 21  1  0
  5 22  1  0
 17 22  1  0
 21 22  2  0
M  END
