x2569-x0991
     RDKit          3D

 24 25  0  0  0  0  0  0  0  0999 V2000
    8.0120   -0.2780   21.8100 C   0  0  0  0  0  0  0  0  0  0  0  0
    8.6810    0.7440   21.7050 O   0  0  0  0  0  0  0  0  0  0  0  0
    8.7270   -1.3740   22.5500 C   0  0  2  0  0  0  0  0  0  0  0  0
   14.0080   -1.5970   20.4630 N   0  0  0  0  0  0  0  0  0  0  0  0
    6.7520   -0.5310   21.3130 N   0  0  0  0  0  0  0  0  0  0  0  0
   13.3610   -1.2420   21.4850 C   0  0  0  0  0  0  0  0  0  0  0  0
    9.8660   -5.3500   25.1540 N   0  0  0  0  0  0  0  0  0  0  0  0
    8.7750   -3.3480   23.9660 C   0  0  0  0  0  0  0  0  0  0  0  0
    7.9510   -4.4470   23.7960 C   0  0  0  0  0  0  0  0  0  0  0  0
    8.0280   -4.6260   26.2940 N   0  0  0  0  0  0  0  0  0  0  0  0
    8.6470   -4.8180   25.1030 C   0  0  0  0  0  0  0  0  0  0  0  0
    8.0850   -2.0400   23.5930 C   0  0  0  0  0  0  0  0  0  0  0  0
   11.7210    0.5820   24.2430 N   0  0  0  0  0  0  0  0  0  0  0  0
   12.6600    0.1090   23.3970 C   0  0  0  0  0  0  0  0  0  0  0  0
   12.4480   -0.7750   22.3560 C   0  0  0  0  0  0  0  0  0  0  0  0
   11.1340   -1.2780   22.0860 C   0  0  0  0  0  0  0  0  0  0  0  0
   10.0580   -0.8300   22.9170 C   0  0  0  0  0  0  0  0  0  0  0  0
   10.4600    0.1340   24.0180 C   0  0  0  0  0  0  0  0  0  0  0  0
    6.4250    0.5670   17.8050 N   0  0  0  0  0  0  0  0  0  0  0  0
    6.8630   -0.0110   18.9450 C   0  0  0  0  0  0  0  0  0  0  0  0
    6.2030    0.1080   20.1610 C   0  0  0  0  0  0  0  0  0  0  0  0
    5.0250    0.8450   20.2380 C   0  0  0  0  0  0  0  0  0  0  0  0
    4.5670    1.4410   19.0670 C   0  0  0  0  0  0  0  0  0  0  0  0
    5.2900    1.2810   17.8890 C   0  0  0  0  0  0  0  0  0  0  0  0
  1  2  2  0
  1  3  1  0
  1  5  1  0
  4  6  3  0
  8  9  1  0
  7 11  2  3
  9 11  1  0
 10 11  1  0
  3 12  1  1
  8 12  1  0
 13 14  2  0
  6 15  1  0
 14 15  1  0
 15 16  2  0
  3 17  1  0
 16 17  1  0
 13 18  1  0
 17 18  2  0
 19 20  2  0
  5 21  1  0
 20 21  1  0
 21 22  2  0
 22 23  1  0
 19 24  1  0
 23 24  2  0
M  END
