x2562-x2562
     RDKit          3D

 22 24  0  0  0  0  0  0  0  0999 V2000
    8.3690    0.1160   21.3710 C   0  0  0  0  0  0  0  0  0  0  0  0
    8.5160    1.3050   21.0220 O   0  0  0  0  0  0  0  0  0  0  0  0
    7.0810   -0.6560   21.0840 C   0  0  0  0  0  0  0  0  0  0  0  0
   12.0880    2.8490   23.3550 O   0  0  0  0  0  0  0  0  0  0  0  0
    9.2800   -0.6720   22.0340 N   0  0  0  0  0  0  0  0  0  0  0  0
   13.0800    6.9520   22.6510 O   0  0  0  0  0  0  0  0  0  0  0  0
    4.6000    1.5280   19.2350 N   0  0  0  0  0  0  0  0  0  0  0  0
    5.0960    1.3770   18.0010 C   0  0  0  0  0  0  0  0  0  0  0  0
    6.1510    0.6280   17.6660 N   0  0  0  0  0  0  0  0  0  0  0  0
    6.7580   -0.0110   18.6660 C   0  0  0  0  0  0  0  0  0  0  0  0
    6.3470    0.0760   19.9640 C   0  0  0  0  0  0  0  0  0  0  0  0
    5.2440    0.8660   20.2010 C   0  0  0  0  0  0  0  0  0  0  0  0
   12.3710    4.7400   21.8420 N   0  0  0  0  0  0  0  0  0  0  0  0
   13.4540    5.6390   22.2720 C   0  0  2  0  0  0  0  0  0  0  0  0
   13.5200    4.7820   23.2950 C   0  0  0  0  0  0  0  0  0  0  0  0
   13.0340    3.6830   22.6850 C   0  0  1  0  0  0  0  0  0  0  0  0
   11.6630   -1.1610   22.2530 C   0  0  0  0  0  0  0  0  0  0  0  0
   13.1110   -0.7750   22.5470 C   0  0  0  0  0  0  0  0  0  0  0  0
   13.0560    0.7320   22.9210 C   0  0  0  0  0  0  0  0  0  0  0  0
   11.9240    1.5330   22.9830 C   0  0  0  0  0  0  0  0  0  0  0  0
   10.7050    1.0160   22.6870 C   0  0  0  0  0  0  0  0  0  0  0  0
   10.5790   -0.2980   22.3250 C   0  0  0  0  0  0  0  0  0  0  0  0
  1  2  2  0
  1  3  1  0
  1  5  1  0
  7  8  2  0
  8  9  1  0
  9 10  2  0
  3 11  1  0
 10 11  1  0
  7 12  1  0
 11 12  2  0
 14  6  1  1
 13 14  1  0
 14 15  1  0
 16  4  1  1
 13 16  1  0
 15 16  1  0
 17 18  2  0
 18 19  1  0
  4 20  1  0
 19 20  2  0
 20 21  1  0
  5 22  1  0
 17 22  1  0
 21 22  2  0
M  END
