x2569-x2910
     RDKit          3D

 29 33  0  0  0  0  0  0  0  0999 V2000
    7.4110   -1.4570   21.9530 N   0  0  0  0  0  0  0  0  0  0  0  0
   10.0600    2.8060   23.2310 C   0  0  0  0  0  0  0  0  0  0  0  0
    9.9480    1.5700   23.2100 O   0  0  0  0  0  0  0  0  0  0  0  0
    9.5250   -0.9630   22.6280 N   0  0  0  0  0  0  0  0  0  0  0  0
    5.4940   -2.6650   20.8860 O   0  0  0  0  0  0  0  0  0  0  0  0
    6.3470    1.2620   16.8570 O   0  0  0  0  0  0  0  0  0  0  0  0
    9.4570   -2.4180   22.6940 C   0  0  0  0  0  0  0  0  0  0  0  0
    7.9600   -2.6290   22.5440 C   0  0  0  0  0  0  0  0  0  0  0  0
    6.2670   -1.4710   21.0040 C   0  0  0  0  0  0  0  0  0  0  0  0
    8.4410   -0.4970   21.8320 C   0  0  0  0  0  0  0  0  0  0  0  0
    8.4270    0.5530   21.1890 O   0  0  0  0  0  0  0  0  0  0  0  0
   13.4340   -2.6000   20.7740 N   0  0  0  0  0  0  0  0  0  0  0  0
   13.1080   -2.2350   22.1210 C   0  0  2  0  0  0  0  0  0  0  0  0
   11.0870    0.8500   22.9660 C   0  0  0  0  0  0  0  0  0  0  0  0
   10.9240   -0.4990   22.6580 C   0  0  0  0  0  0  0  0  0  0  0  0
   11.7970   -1.5640   22.3570 C   0  0  0  0  0  0  0  0  0  0  0  0
   13.0420   -0.8780   22.4410 C   0  0  0  0  0  0  0  0  0  0  0  0
   13.2280    0.4080   22.7290 C   0  0  0  0  0  0  0  0  0  0  0  0
   12.3060    1.3390   23.0040 C   0  0  0  0  0  0  0  0  0  0  0  0
    4.7360    1.7970   18.2820 N   0  0  0  0  0  0  0  0  0  0  0  0
    4.1210    1.4920   19.5730 C   0  0  0  0  0  0  0  0  0  0  0  0
    4.5530    0.4460   20.5310 C   0  0  0  0  0  0  0  0  0  0  0  0
    5.7180   -0.3480   20.1000 C   0  0  0  0  0  0  0  0  0  0  0  0
    6.2320    0.0030   18.8690 C   0  0  0  0  0  0  0  0  0  0  0  0
    5.7690    1.0030   18.0320 C   0  0  0  0  0  0  0  0  0  0  0  0
    3.0270    2.2540   19.9450 C   0  0  0  0  0  0  0  0  0  0  0  0
    2.3810    2.0590   21.1250 C   0  0  0  0  0  0  0  0  0  0  0  0
    2.7520    1.1020   22.0460 C   0  0  0  0  0  0  0  0  0  0  0  0
    3.8360    0.3030   21.7390 C   0  0  0  0  0  0  0  0  0  0  0  0
  2  3  1  0
  4  7  1  0
  1  8  1  0
  7  8  1  0
  1  9  1  0
  5  9  2  0
  1 10  1  0
  4 10  1  0
 10 11  2  0
 13 12  1  6
  3 14  1  0
  4 15  1  0
 14 15  1  0
 13 16  1  0
 15 16  2  0
 13 17  1  0
 16 17  1  0
 17 18  2  0
 14 19  2  0
 18 19  1  0
 20 21  2  0
 21 22  1  0
  9 23  1  0
 22 23  2  0
 23 24  1  0
  6 25  1  0
 20 25  1  0
 24 25  2  0
 21 26  1  0
 26 27  2  0
 27 28  1  0
 22 29  1  0
 28 29  2  0
M  END
