x2563-x2964
     RDKit          3D

 21 23  0  0  0  0  0  0  0  0999 V2000
    2.4210    2.7250   19.3780 N   0  0  0  0  0  0  0  0  0  0  0  0
    8.7540    1.3380   21.2020 O   0  0  0  0  0  0  0  0  0  0  0  0
   13.2270   -2.2790   21.3260 Cl  0  0  0  0  0  0  0  0  0  0  0  0
    7.3700   -0.5140   21.1450 N   0  0  0  0  0  0  0  0  0  0  0  0
    8.9370   -0.3430   22.7580 N   0  0  0  0  0  0  0  0  0  0  0  0
    8.3750    0.2470   21.6690 C   0  0  0  0  0  0  0  0  0  0  0  0
    4.6210    1.3550   19.5110 C   0  0  0  0  0  0  0  0  0  0  0  0
    5.3590    0.7580   20.4550 C   0  0  0  0  0  0  0  0  0  0  0  0
    6.5990    0.0370   20.1090 C   0  0  0  0  0  0  0  0  0  0  0  0
    6.9440   -0.0070   18.7070 C   0  0  0  0  0  0  0  0  0  0  0  0
    6.2210    0.5790   17.7420 N   0  0  0  0  0  0  0  0  0  0  0  0
    5.0540    1.2970   18.0790 C   0  0  0  0  0  0  0  0  0  0  0  0
   10.9670    0.8510   23.5140 C   0  0  0  0  0  0  0  0  0  0  0  0
   12.3330    0.8950   23.4800 C   0  0  0  0  0  0  0  0  0  0  0  0
   13.1200   -0.0110   22.8420 C   0  0  0  0  0  0  0  0  0  0  0  0
   12.4660   -1.0460   22.1930 C   0  0  0  0  0  0  0  0  0  0  0  0
   11.1480   -1.0760   22.2310 C   0  0  0  0  0  0  0  0  0  0  0  0
   10.3450   -0.1510   22.8710 C   0  0  0  0  0  0  0  0  0  0  0  0
    3.4830    1.9830   20.0820 C   0  0  0  0  0  0  0  0  0  0  0  0
    3.5730    1.7370   21.5000 C   0  0  0  0  0  0  0  0  0  0  0  0
    4.7840    0.9570   21.6660 C   0  0  0  0  0  0  0  0  0  0  0  0
  2  6  2  0
  4  6  1  0
  5  6  1  0
  7  8  1  0
  4  9  1  0
  8  9  1  0
  9 10  2  0
 10 11  1  0
  7 12  2  0
 11 12  1  0
 13 14  2  0
 14 15  1  0
  3 16  1  0
 15 16  2  0
 16 17  1  0
  5 18  1  0
 13 18  1  0
 17 18  2  0
  1 19  1  0
  7 19  1  0
 19 20  2  0
  8 21  2  0
 20 21  1  0
M  END
