x2569-x2964
     RDKit          3D

 19 20  0  0  0  0  0  0  0  0999 V2000
    8.2390    0.4060   21.7060 C   0  0  0  0  0  0  0  0  0  0  0  0
    8.9250    1.3220   21.2350 O   0  0  0  0  0  0  0  0  0  0  0  0
    8.6980   -0.0740   23.0470 C   0  0  0  0  0  0  0  0  0  0  0  0
   13.5780   -3.1150   20.6760 N   0  0  0  0  0  0  0  0  0  0  0  0
    7.1170   -0.2190   21.1900 N   0  0  0  0  0  0  0  0  0  0  0  0
   13.0240   -2.1960   21.4240 C   0  0  0  0  0  0  0  0  0  0  0  0
    3.2940    2.1580   19.1120 N   0  0  0  0  0  0  0  0  0  0  0  0
   12.1520    0.5930   23.9250 N   0  0  0  0  0  0  0  0  0  0  0  0
   12.7630   -0.3240   23.1260 C   0  0  0  0  0  0  0  0  0  0  0  0
   12.3210   -1.2840   22.2090 C   0  0  0  0  0  0  0  0  0  0  0  0
   10.8160   -1.1660   22.2020 C   0  0  0  0  0  0  0  0  0  0  0  0
   10.0780   -0.1290   23.1020 C   0  0  0  0  0  0  0  0  0  0  0  0
   10.8300    0.6830   23.9090 C   0  0  0  0  0  0  0  0  0  0  0  0
    6.3840    0.5370   17.7610 N   0  0  0  0  0  0  0  0  0  0  0  0
    6.9520    0.0810   18.8800 C   0  0  0  0  0  0  0  0  0  0  0  0
    6.4130    0.2610   20.2380 C   0  0  0  0  0  0  0  0  0  0  0  0
    5.1110    0.9880   20.3790 C   0  0  0  0  0  0  0  0  0  0  0  0
    4.4570    1.4960   19.1120 C   0  0  0  0  0  0  0  0  0  0  0  0
    5.2290    1.1970   17.8440 C   0  0  0  0  0  0  0  0  0  0  0  0
  1  2  2  0
  1  3  1  0
  1  5  1  0
  4  6  3  0
  8  9  2  0
  6 10  1  0
  9 10  1  0
 10 11  2  0
  3 12  1  0
 11 12  1  0
  8 13  1  0
 12 13  2  0
 14 15  2  0
  5 16  1  0
 15 16  1  0
 16 17  2  0
  7 18  1  0
 17 18  1  0
 14 19  1  0
 18 19  2  0
M  END
