x2569-x2705-x0691-x3117
     RDKit          3D

 52 57  0  0  0  0  0  0  0  0999 V2000
    6.9860   -1.3570   21.7350 N   0  0  0  0  0  0  0  0  0  0  0  0
    6.6940   -4.2680   20.3080 C   0  0  2  0  0  0  0  0  0  0  0  0
    4.9490   -3.2350   21.3260 O   0  0  0  0  0  0  0  0  0  0  0  0
    6.7440   -3.3270   21.4030 C   0  0  1  0  0  0  0  0  0  0  0  0
    7.5410    2.0650   22.8080 N   0  0  0  0  0  0  0  0  0  0  0  0
    8.8190    1.2150   21.1150 O   0  0  0  0  0  0  0  0  0  0  0  0
    5.7740   -2.2260   21.5320 C   0  0  0  0  0  0  0  0  0  0  0  0
    6.6780    0.0970   21.4890 C   0  0  1  0  0  0  0  0  0  0  0  0
    7.7830    1.1560   21.7980 C   0  0  0  0  0  0  0  0  0  0  0  0
   10.2110    2.0900   23.9470 C   0  0  0  0  0  0  0  0  0  0  0  0
    9.3350    1.2580   24.8840 C   0  0  0  0  0  0  0  0  0  0  0  0
    6.1980    4.4570   21.9140 C   0  0  0  0  0  0  0  0  0  0  0  0
   11.9890   -1.5550   23.2910 C   0  0  2  0  0  0  0  0  0  0  0  0
   12.4510   -0.2070   23.9010 C   0  0  0  0  0  0  0  0  0  0  0  0
   12.4790   -2.7450   24.1650 C   0  0  0  0  0  0  0  0  0  0  0  0
   12.7230   -1.7020   21.9430 C   0  0  0  0  0  0  0  0  0  0  0  0
   13.4400   -2.4690   25.2930 C   0  0  0  0  0  0  0  0  0  0  0  0
    5.5070   -4.3010   19.5260 O   0  0  0  0  0  0  0  0  0  0  0  0
    4.0080   -6.8620   25.9180 O   0  0  0  0  0  0  0  0  0  0  0  0
    5.7340   -5.2660   26.7500 O   0  0  0  0  0  0  0  0  0  0  0  0
    3.2750   -0.6820   25.9660 F   0  0  0  0  0  0  0  0  0  0  0  0
    4.7380   -5.6230   25.7690 S   0  0  0  0  0  0  0  0  0  0  0  0
   13.3360   -1.8220   20.9590 N   0  0  0  0  0  0  0  0  0  0  0  0
    6.3170    0.4610   17.7650 N   0  0  0  0  0  0  0  0  0  0  0  0
    5.1980    1.2010   17.7590 C   0  0  0  0  0  0  0  0  0  0  0  0
    4.5130    1.5900   18.8750 C   0  0  0  0  0  0  0  0  0  0  0  0
    5.0160    1.2040   20.0910 C   0  0  0  0  0  0  0  0  0  0  0  0
    6.1620    0.4570   20.1410 C   0  0  0  0  0  0  0  0  0  0  0  0
    6.7840    0.0960   18.9640 C   0  0  0  0  0  0  0  0  0  0  0  0
    9.5870   -1.7460   24.2000 N   0  0  0  0  0  0  0  0  0  0  0  0
    8.2850   -1.7090   23.8410 N   0  0  0  0  0  0  0  0  0  0  0  0
    8.2100   -1.4960   22.5190 C   0  0  0  0  0  0  0  0  0  0  0  0
    9.5510   -1.4060   22.0710 C   0  0  0  0  0  0  0  0  0  0  0  0
   10.4580   -1.5640   23.1500 C   0  0  0  0  0  0  0  0  0  0  0  0
    9.5140    3.3620   23.5030 C   0  0  0  0  0  0  0  0  0  0  0  0
   10.2210    4.6030   23.6680 C   0  0  0  0  0  0  0  0  0  0  0  0
    9.5080    5.7640   23.2200 C   0  0  0  0  0  0  0  0  0  0  0  0
    8.2220    5.6780   22.6640 C   0  0  0  0  0  0  0  0  0  0  0  0
    7.5760    4.4600   22.5250 C   0  0  0  0  0  0  0  0  0  0  0  0
    8.2180    3.3040   22.9470 C   0  0  0  0  0  0  0  0  0  0  0  0
    2.9130   -1.9680   25.8560 C   0  0  0  0  0  0  0  0  0  0  0  0
    3.9140   -2.9680   25.8630 C   0  0  0  0  0  0  0  0  0  0  0  0
    3.5250   -4.3220   25.7510 C   0  0  0  0  0  0  0  0  0  0  0  0
    2.1650   -4.6450   25.6300 C   0  0  0  0  0  0  0  0  0  0  0  0
    1.1740   -3.6440   25.6220 C   0  0  0  0  0  0  0  0  0  0  0  0
    1.5530   -2.2930   25.7390 C   0  0  0  0  0  0  0  0  0  0  0  0
    6.5410   -4.8190   21.7300 C   0  0  0  0  0  0  0  0  0  0  0  0
    5.3500   -5.4770   21.8880 C   0  0  0  0  0  0  0  0  0  0  0  0
    4.6160   -5.2790   23.0460 C   0  0  0  0  0  0  0  0  0  0  0  0
    5.4560   -5.6030   24.2280 N   0  0  0  0  0  0  0  0  0  0  0  0
    6.7870   -5.1760   24.1450 C   0  0  0  0  0  0  0  0  0  0  0  0
    7.4890   -5.3010   22.7810 C   0  0  0  0  0  0  0  0  0  0  0  0
  2  4  1  0
  1  7  1  0
  3  7  2  0
  4  7  1  6
  1  8  1  0
  5  9  1  0
  6  9  2  0
  8  9  1  6
 10 11  1  0
 13 14  1  1
 13 15  1  0
 13 16  1  0
 15 17  1  0
  2 18  1  6
 19 22  2  0
 20 22  2  0
 16 23  3  0
 24 25  2  0
 25 26  1  0
 26 27  2  0
  8 28  1  0
 27 28  1  0
 24 29  1  0
 28 29  2  0
 30 31  1  0
  1 32  1  0
 31 32  1  0
 32 33  2  0
 13 34  1  0
 30 34  2  0
 33 34  1  0
 10 35  1  0
 35 36  2  0
 36 37  1  0
 37 38  2  0
 12 39  1  0
 38 39  1  0
  5 40  1  0
 35 40  1  0
 39 40  2  0
 21 41  1  0
 41 42  2  0
 22 43  1  0
 42 43  1  0
 43 44  2  0
 44 45  1  0
 41 46  1  0
 45 46  2  0
  2 47  1  0
  4 47  1  0
 47 48  1  0
 48 49  1  0
 22 50  1  0
 49 50  1  0
 50 51  1  0
 47 52  1  0
 51 52  1  0
M  END
