x2572-x0991
     RDKit          3D

 25 26  0  0  0  0  0  0  0  0999 V2000
    4.7600    1.2560   21.5970 C   0  0  0  0  0  0  0  0  0  0  0  0
    8.7240    0.9720   21.4800 O   0  0  0  0  0  0  0  0  0  0  0  0
    6.9620   -0.5070   21.2030 N   0  0  0  0  0  0  0  0  0  0  0  0
   13.6540   -2.4780   20.6630 N   0  0  0  0  0  0  0  0  0  0  0  0
    8.1330   -0.0640   21.8140 C   0  0  0  0  0  0  0  0  0  0  0  0
    8.6940   -0.9230   22.9390 C   0  0  1  0  0  0  0  0  0  0  0  0
   13.0810   -1.6790   21.5290 C   0  0  0  0  0  0  0  0  0  0  0  0
    9.9270   -5.6420   25.4820 N   0  0  0  0  0  0  0  0  0  0  0  0
    9.1030   -3.3140   23.7900 C   0  0  0  0  0  0  0  0  0  0  0  0
    8.2530   -4.5600   24.0900 C   0  0  0  0  0  0  0  0  0  0  0  0
    7.8680   -5.1240   26.4970 N   0  0  0  0  0  0  0  0  0  0  0  0
    8.6950   -5.1390   25.4320 C   0  0  0  0  0  0  0  0  0  0  0  0
    8.4870   -2.4160   22.7160 C   0  0  0  0  0  0  0  0  0  0  0  0
    6.2870    0.5780   17.6270 N   0  0  0  0  0  0  0  0  0  0  0  0
    6.8550   -0.0700   18.8030 C   0  0  0  0  0  0  0  0  0  0  0  0
    6.3650    0.1490   20.0570 C   0  0  0  0  0  0  0  0  0  0  0  0
    5.3290    0.9790   20.2420 C   0  0  0  0  0  0  0  0  0  0  0  0
    4.7320    1.6350   19.1470 C   0  0  0  0  0  0  0  0  0  0  0  0
    5.2440    1.4040   17.8730 C   0  0  0  0  0  0  0  0  0  0  0  0
   10.5720    0.5170   23.8540 C   0  0  0  0  0  0  0  0  0  0  0  0
   11.9950    0.8340   23.8630 C   0  0  0  0  0  0  0  0  0  0  0  0
   12.8790    0.1150   23.0930 C   0  0  0  0  0  0  0  0  0  0  0  0
   12.3470   -0.9010   22.3310 C   0  0  0  0  0  0  0  0  0  0  0  0
   11.0120   -1.1930   22.3230 C   0  0  0  0  0  0  0  0  0  0  0  0
   10.1190   -0.5250   23.0470 C   0  0  0  0  0  0  0  0  0  0  0  0
  2  5  2  0
  3  5  1  0
  5  6  1  0
  4  7  3  0
  9 10  1  0
  8 12  2  3
 10 12  1  0
 11 12  1  0
  6 13  1  6
  9 13  1  0
 14 15  2  0
  3 16  1  0
 15 16  1  0
  1 17  1  0
 16 17  2  0
 17 18  1  0
 14 19  1  0
 18 19  2  0
 20 21  2  0
 21 22  1  0
  7 23  1  0
 22 23  2  0
 23 24  1  0
  6 25  1  0
 20 25  1  0
 24 25  2  0
M  END
