x2572-x1402
     RDKit          3D

 39 42  0  0  0  0  0  0  0  0999 V2000
    7.7550   -3.7170   20.3160 C   0  0  0  0  0  0  0  0  0  0  0  0
    5.5360   -4.6170   19.9570 O   0  0  0  0  0  0  0  0  0  0  0  0
    0.8370   -1.1910   26.1070 Cl  0  0  0  0  0  0  0  0  0  0  0  0
    6.5860   -4.5900   20.6610 C   0  0  0  0  0  0  0  0  0  0  0  0
    4.2400   -6.5330   26.0470 O   0  0  0  0  0  0  0  0  0  0  0  0
    6.2340   -5.1400   26.7650 O   0  0  0  0  0  0  0  0  0  0  0  0
    5.0820   -5.3700   25.8670 S   0  0  0  0  0  0  0  0  0  0  0  0
    4.6630    1.2600   21.5380 C   0  0  0  0  0  0  0  0  0  0  0  0
    8.9180    1.4860   21.3230 O   0  0  0  0  0  0  0  0  0  0  0  0
    7.0500   -0.3120   21.0980 N   0  0  0  0  0  0  0  0  0  0  0  0
   13.6820   -2.4110   20.6780 N   0  0  0  0  0  0  0  0  0  0  0  0
    8.1920    0.3110   21.7490 C   0  0  0  0  0  0  0  0  0  0  0  0
    8.6250   -0.3970   22.9730 C   0  0  0  0  0  0  0  0  0  0  0  0
   13.0280   -1.7090   21.5310 C   0  0  0  0  0  0  0  0  0  0  0  0
    7.1950   -2.3210   20.0780 C   0  0  0  0  0  0  0  0  0  0  0  0
    6.8390   -1.7410   21.2770 C   0  0  0  0  0  0  0  0  0  0  0  0
    6.7000   -5.3950   21.8030 N   0  0  0  0  0  0  0  0  0  0  0  0
    7.5040   -5.0570   22.9390 C   0  0  0  0  0  0  0  0  0  0  0  0
    6.6570   -4.3870   23.8340 C   0  0  0  0  0  0  0  0  0  0  0  0
    5.7010   -5.4540   24.3020 N   0  0  0  0  0  0  0  0  0  0  0  0
    4.9450   -5.9970   23.3240 C   0  0  0  0  0  0  0  0  0  0  0  0
    5.6570   -6.3440   22.1770 C   0  0  0  0  0  0  0  0  0  0  0  0
    2.2560   -4.0140   25.9040 S   0  0  0  0  0  0  0  0  0  0  0  0
    4.0230   -3.9340   25.9330 C   0  0  0  0  0  0  0  0  0  0  0  0
    4.6870   -2.6300   26.0270 C   0  0  0  0  0  0  0  0  0  0  0  0
    3.6060   -1.6430   26.0840 C   0  0  0  0  0  0  0  0  0  0  0  0
    2.2900   -2.0980   26.0450 C   0  0  0  0  0  0  0  0  0  0  0  0
    6.3150    0.6870   17.6040 N   0  0  0  0  0  0  0  0  0  0  0  0
    6.8570    0.1490   18.6960 C   0  0  0  0  0  0  0  0  0  0  0  0
    6.3790    0.3000   19.9860 C   0  0  0  0  0  0  0  0  0  0  0  0
    5.2600    1.0450   20.1740 C   0  0  0  0  0  0  0  0  0  0  0  0
    4.6500    1.6280   19.0810 C   0  0  0  0  0  0  0  0  0  0  0  0
    5.2110    1.4220   17.8430 C   0  0  0  0  0  0  0  0  0  0  0  0
   10.6670    0.6520   23.8950 C   0  0  0  0  0  0  0  0  0  0  0  0
   12.0350    0.7720   23.9410 C   0  0  0  0  0  0  0  0  0  0  0  0
   12.8640   -0.0060   23.1660 C   0  0  0  0  0  0  0  0  0  0  0  0
   12.2610   -0.9130   22.3420 C   0  0  0  0  0  0  0  0  0  0  0  0
   10.9040   -1.0640   22.2670 C   0  0  0  0  0  0  0  0  0  0  0  0
   10.0950   -0.2720   23.0480 C   0  0  0  0  0  0  0  0  0  0  0  0
  1  4  1  0
  2  4  2  0
  5  7  2  0
  6  7  2  0
  9 12  2  0
 10 12  1  0
 12 13  1  0
 11 14  3  0
  1 15  1  0
 10 16  1  0
 15 16  1  0
  4 17  1  0
 17 18  1  0
 18 19  1  0
  7 20  1  0
 19 20  1  0
 20 21  1  0
 17 22  1  0
 21 22  1  0
  7 24  1  0
 23 24  1  0
 24 25  2  0
 25 26  1  0
  3 27  1  0
 23 27  1  0
 26 27  2  0
 28 29  2  0
 10 30  1  0
 29 30  1  0
  8 31  1  0
 30 31  2  0
 31 32  1  0
 28 33  1  0
 32 33  2  0
 34 35  2  0
 35 36  1  0
 14 37  1  0
 36 37  2  0
 37 38  1  0
 13 39  1  0
 34 39  1  0
 38 39  2  0
M  END
