x2572-x2779
     RDKit          3D

 29 34  0  0  0  0  0  0  0  0999 V2000
    4.5210    1.0150   21.6690 C   0  0  0  0  0  0  0  0  0  0  0  0
    8.7540    0.7040   21.2220 O   0  0  0  0  0  0  0  0  0  0  0  0
    6.9560   -0.4990   21.2730 N   0  0  0  0  0  0  0  0  0  0  0  0
   13.6610   -2.9840   20.6450 N   0  0  0  0  0  0  0  0  0  0  0  0
    8.1000   -0.1660   21.8040 C   0  0  2  0  0  0  0  0  0  0  0  0
    8.8270   -0.7700   22.9770 C   0  0  1  0  0  0  0  0  0  0  0  0
   13.1410   -2.0090   21.4090 C   0  0  0  0  0  0  0  0  0  0  0  0
    7.3250   -2.9930   18.7290 C   0  0  0  0  0  0  0  0  0  0  0  0
    5.4300   -4.0720   19.7150 O   0  0  0  0  0  0  0  0  0  0  0  0
    6.3920   -3.2590   19.8450 C   0  0  0  0  0  0  0  0  0  0  0  0
    9.4970   -2.9750   23.6530 C   0  0  0  0  0  0  0  0  0  0  0  0
    6.4520    0.5960   17.7690 N   0  0  0  0  0  0  0  0  0  0  0  0
    6.9060    0.0430   18.8970 C   0  0  0  0  0  0  0  0  0  0  0  0
    6.3570    0.1350   20.1540 C   0  0  0  0  0  0  0  0  0  0  0  0
    5.1830    0.8770   20.3050 C   0  0  0  0  0  0  0  0  0  0  0  0
    4.6370    1.4750   19.2150 C   0  0  0  0  0  0  0  0  0  0  0  0
    5.2290    1.3640   17.9560 C   0  0  0  0  0  0  0  0  0  0  0  0
   10.7400    0.7630   23.7080 C   0  0  0  0  0  0  0  0  0  0  0  0
   12.1980    0.9780   23.6070 C   0  0  0  0  0  0  0  0  0  0  0  0
   13.0180    0.0380   22.8310 C   0  0  0  0  0  0  0  0  0  0  0  0
   12.3660   -1.0090   22.2300 C   0  0  0  0  0  0  0  0  0  0  0  0
   11.0360   -1.1570   22.3500 C   0  0  0  0  0  0  0  0  0  0  0  0
   10.2080   -0.3260   23.0520 C   0  0  0  0  0  0  0  0  0  0  0  0
    6.6680   -2.6050   21.0460 N   0  0  0  0  0  0  0  0  0  0  0  0
    7.6100   -1.6370   21.0060 C   0  0  2  0  0  0  0  0  0  0  0  0
    8.7540   -1.8400   21.7940 C   0  0  2  0  0  0  0  0  0  0  0  0
    8.4790   -2.1110   22.9660 C   0  0  2  0  0  0  0  0  0  0  0  0
    7.2010   -2.5600   23.2800 C   0  0  0  0  0  0  0  0  0  0  0  0
    6.7070   -3.3900   22.2680 C   0  0  0  0  0  0  0  0  0  0  0  0
  5  2  1  1
  3  5  1  0
  5  6  1  0
  4  7  3  0
  8 10  1  0
  9 10  2  0
 12 13  2  0
  3 14  1  0
 13 14  1  0
  1 15  1  0
 14 15  2  0
 15 16  1  0
 12 17  1  0
 16 17  2  0
 18 19  2  0
 19 20  1  0
  7 21  1  0
 20 21  2  0
 21 22  1  0
  6 23  1  1
 18 23  1  0
 22 23  2  0
 10 24  1  0
 25  3  1  6
  5 25  1  0
 24 25  1  0
  6 26  1  0
 25 26  1  0
  6 27  1  0
 27 11  1  1
 26 27  1  1
 27 28  1  0
 24 29  1  0
 28 29  1  0
M  END
