x2572-x1249
     RDKit          3D

 29 32  0  0  0  0  0  0  0  0999 V2000
    5.0570    0.5000   21.7930 C   0  0  2  0  0  0  0  0  0  0  0  0
    8.6970    0.9070   21.2920 O   0  0  0  0  0  0  0  0  0  0  0  0
    7.2770   -0.8580   20.8080 N   0  0  0  0  0  0  0  0  0  0  0  0
   13.2080   -2.6810   20.8240 N   0  0  0  0  0  0  0  0  0  0  0  0
    8.2740   -0.2290   21.5560 C   0  0  0  0  0  0  0  0  0  0  0  0
    8.8720   -0.9670   22.7440 C   0  0  0  0  0  0  0  0  0  0  0  0
   13.5450   -1.6180   21.5770 C   0  0  0  0  0  0  0  0  0  0  0  0
    7.9510    0.4680   25.3840 N   0  0  0  0  0  0  0  0  0  0  0  0
    7.3980    1.3630   24.3470 C   0  0  0  0  0  0  0  0  0  0  0  0
    8.1260    2.3830   23.6610 O   0  0  0  0  0  0  0  0  0  0  0  0
    9.2990    0.4030   25.4900 C   0  0  0  0  0  0  0  0  0  0  0  0
    6.2210    0.6660   17.6440 N   0  0  0  0  0  0  0  0  0  0  0  0
    6.8480   -0.0210   18.5970 C   0  0  0  0  0  0  0  0  0  0  0  0
    6.4750   -0.0660   19.8920 C   0  0  0  0  0  0  0  0  0  0  0  0
    5.4020    0.6010   20.3410 C   0  0  0  0  0  0  0  0  0  0  0  0
    4.6910    1.3490   19.3950 C   0  0  0  0  0  0  0  0  0  0  0  0
    5.1320    1.3510   18.0930 C   0  0  0  0  0  0  0  0  0  0  0  0
   10.6430    0.5910   23.5850 C   0  0  0  0  0  0  0  0  0  0  0  0
   11.9520    0.9980   23.6630 C   0  0  0  0  0  0  0  0  0  0  0  0
   13.0030    0.2740   22.9920 C   0  0  0  0  0  0  0  0  0  0  0  0
   12.6050   -0.8960   22.2450 C   0  0  0  0  0  0  0  0  0  0  0  0
   11.2820   -1.2470   22.2110 C   0  0  0  0  0  0  0  0  0  0  0  0
   10.2880   -0.5350   22.8560 C   0  0  0  0  0  0  0  0  0  0  0  0
    3.4040    0.6980   23.5200 O   0  0  0  0  0  0  0  0  0  0  0  0
    4.1280    1.3580   22.5480 C   0  0  1  0  0  0  0  0  0  0  0  0
    5.5050    1.5620   22.7400 C   0  0  1  0  0  0  0  0  0  0  0  0
    6.0510    1.1420   24.0670 N   0  0  0  0  0  0  0  0  0  0  0  0
    5.1410    0.4300   24.9630 C   0  0  0  0  0  0  0  0  0  0  0  0
    3.8780    0.9740   24.8470 C   0  0  0  0  0  0  0  0  0  0  0  0
  2  5  2  0
  3  5  1  0
  5  6  1  0
  4  7  3  0
  8  9  1  0
  9 10  2  0
  8 11  1  0
 12 13  2  0
  3 14  1  0
 13 14  1  0
  1 15  1  6
 14 15  2  0
 15 16  1  0
 12 17  1  0
 16 17  2  0
 18 19  2  0
 19 20  1  0
  7 21  1  0
 20 21  2  0
 21 22  1  0
  6 23  1  0
 18 23  1  0
 22 23  2  0
  1 25  1  0
 25 24  1  1
  1 26  1  0
 25 26  1  0
  9 27  1  0
 26 27  1  1
 27 28  1  0
 24 29  1  0
 28 29  1  0
M  END
