x2572-x1308
     RDKit          3D

 40 43  0  0  0  0  0  0  0  0999 V2000
    7.6470   -3.6630   20.2730 C   0  0  0  0  0  0  0  0  0  0  0  0
    5.4870   -4.7270   19.9730 O   0  0  0  0  0  0  0  0  0  0  0  0
    0.6030   -1.2170   26.2300 Cl  0  0  0  0  0  0  0  0  0  0  0  0
    6.5260   -4.5660   20.6680 C   0  0  0  0  0  0  0  0  0  0  0  0
    6.4470   -5.0030   26.8300 O   0  0  0  0  0  0  0  0  0  0  0  0
    4.7480   -6.8150   26.2750 O   0  0  0  0  0  0  0  0  0  0  0  0
    5.3400   -5.4800   26.0320 S   0  0  0  0  0  0  0  0  0  0  0  0
    4.4950    1.1870   21.5070 C   0  0  0  0  0  0  0  0  0  0  0  0
    8.9140    1.4980   21.2680 O   0  0  0  0  0  0  0  0  0  0  0  0
    7.0160   -0.2850   21.1170 N   0  0  0  0  0  0  0  0  0  0  0  0
   13.6300   -2.8730   20.6720 N   0  0  0  0  0  0  0  0  0  0  0  0
    8.1870    0.3370   21.7270 C   0  0  0  0  0  0  0  0  0  0  0  0
    8.6440   -0.3460   22.9560 C   0  0  0  0  0  0  0  0  0  0  0  0
   13.0380   -1.9950   21.4560 C   0  0  0  0  0  0  0  0  0  0  0  0
    7.0810   -2.2790   20.0190 C   0  0  0  0  0  0  0  0  0  0  0  0
    6.7490   -1.7090   21.2300 C   0  0  0  0  0  0  0  0  0  0  0  0
    6.6770   -5.2390   21.8860 N   0  0  0  0  0  0  0  0  0  0  0  0
    7.4170   -4.7280   23.0040 C   0  0  0  0  0  0  0  0  0  0  0  0
    6.4870   -4.2070   23.8980 C   0  0  0  0  0  0  0  0  0  0  0  0
    5.8300   -5.4500   24.4250 N   0  0  0  0  0  0  0  0  0  0  0  0
    5.1100   -6.1110   23.4940 C   0  0  0  0  0  0  0  0  0  0  0  0
    5.7840   -6.3280   22.2920 C   0  0  0  0  0  0  0  0  0  0  0  0
    4.3050   -3.0120   26.4300 C   0  0  0  0  0  0  0  0  0  0  0  0
    3.2580   -1.9800   26.4940 C   0  0  0  0  0  0  0  0  0  0  0  0
    1.8870   -2.3620   26.1670 C   0  0  0  0  0  0  0  0  0  0  0  0
    1.6610   -3.6790   25.8090 C   0  0  0  0  0  0  0  0  0  0  0  0
    2.6620   -4.6570   25.7490 C   0  0  0  0  0  0  0  0  0  0  0  0
    3.9980   -4.3230   26.0650 C   0  0  0  0  0  0  0  0  0  0  0  0
    6.3880    0.6990   17.6860 N   0  0  0  0  0  0  0  0  0  0  0  0
    6.8970    0.1760   18.8010 C   0  0  0  0  0  0  0  0  0  0  0  0
    6.3540    0.2980   20.0570 C   0  0  0  0  0  0  0  0  0  0  0  0
    5.1780    1.0030   20.1840 C   0  0  0  0  0  0  0  0  0  0  0  0
    4.5750    1.5800   19.0750 C   0  0  0  0  0  0  0  0  0  0  0  0
    5.1500    1.4550   17.8200 C   0  0  0  0  0  0  0  0  0  0  0  0
   10.7510    0.6900   23.8200 C   0  0  0  0  0  0  0  0  0  0  0  0
   12.1440    0.7180   23.8070 C   0  0  0  0  0  0  0  0  0  0  0  0
   12.9140   -0.1530   23.0430 C   0  0  0  0  0  0  0  0  0  0  0  0
   12.3160   -1.1040   22.2460 C   0  0  0  0  0  0  0  0  0  0  0  0
   10.9580   -1.1870   22.2080 C   0  0  0  0  0  0  0  0  0  0  0  0
   10.1250   -0.2530   23.0240 C   0  0  0  0  0  0  0  0  0  0  0  0
  1  4  1  0
  2  4  2  0
  5  7  2  0
  6  7  2  0
  9 12  2  0
 10 12  1  0
 12 13  1  0
 11 14  3  0
  1 15  1  0
 10 16  1  0
 15 16  1  0
  4 17  1  0
 17 18  1  0
 18 19  1  0
  7 20  1  0
 19 20  1  0
 20 21  1  0
 17 22  1  0
 21 22  1  0
 23 24  2  0
  3 25  1  0
 24 25  1  0
 25 26  2  0
 26 27  1  0
  7 28  1  0
 23 28  1  0
 27 28  2  0
 29 30  2  0
 10 31  1  0
 30 31  1  0
  8 32  1  0
 31 32  2  0
 32 33  1  0
 29 34  1  0
 33 34  2  0
 35 36  2  0
 36 37  1  0
 14 38  1  0
 37 38  2  0
 38 39  1  0
 13 40  1  0
 35 40  1  0
 39 40  2  0
M  END
