x2572-x2910
     RDKit          3D

 30 34  0  0  0  0  0  0  0  0999 V2000
    7.8320   -1.6270   21.4650 N   0  0  0  0  0  0  0  0  0  0  0  0
    9.9890    2.7270   23.7140 C   0  0  0  0  0  0  0  0  0  0  0  0
    9.8130    1.3520   23.4190 O   0  0  0  0  0  0  0  0  0  0  0  0
    9.4560   -0.9680   22.9230 N   0  0  0  0  0  0  0  0  0  0  0  0
    5.3770   -2.4500   21.4380 O   0  0  0  0  0  0  0  0  0  0  0  0
    6.3600    1.3010   16.8590 O   0  0  0  0  0  0  0  0  0  0  0  0
    9.1280   -2.2490   23.3170 C   0  0  0  0  0  0  0  0  0  0  0  0
    8.0600   -2.5810   22.3140 C   0  0  0  0  0  0  0  0  0  0  0  0
    6.3930   -1.5350   21.0390 C   0  0  0  0  0  0  0  0  0  0  0  0
    3.5320    1.3850   20.7790 C   0  0  0  0  0  0  0  0  0  0  0  0
    8.6350    0.4770   21.3090 O   0  0  0  0  0  0  0  0  0  0  0  0
    8.6310   -0.6280   21.8470 C   0  0  0  0  0  0  0  0  0  0  0  0
   13.2800   -2.6540   20.8200 N   0  0  0  0  0  0  0  0  0  0  0  0
   13.1470   -2.2550   22.0760 C   0  0  2  0  0  0  0  0  0  0  0  0
   10.9410    0.6800   23.0910 C   0  0  0  0  0  0  0  0  0  0  0  0
   10.7680   -0.6280   22.8010 C   0  0  0  0  0  0  0  0  0  0  0  0
   11.8720   -1.4210   22.4560 C   0  0  0  0  0  0  0  0  0  0  0  0
   13.0340   -0.8870   22.4180 C   0  0  0  0  0  0  0  0  0  0  0  0
   13.3050    0.4740   22.7030 C   0  0  0  0  0  0  0  0  0  0  0  0
   12.2520    1.2730   23.0460 C   0  0  0  0  0  0  0  0  0  0  0  0
    4.7790    1.7230   18.5000 N   0  0  0  0  0  0  0  0  0  0  0  0
    4.2830    1.3940   19.6930 C   0  0  0  0  0  0  0  0  0  0  0  0
    4.8460    0.3100   20.5150 C   0  0  0  0  0  0  0  0  0  0  0  0
    5.9320   -0.4270   20.0680 C   0  0  0  0  0  0  0  0  0  0  0  0
    6.4710   -0.1180   18.8330 C   0  0  0  0  0  0  0  0  0  0  0  0
    5.9230    0.9180   18.0650 C   0  0  0  0  0  0  0  0  0  0  0  0
    3.1470    2.1600   20.1580 C   0  0  0  0  0  0  0  0  0  0  0  0
    2.4810    1.9520   21.4150 C   0  0  0  0  0  0  0  0  0  0  0  0
    2.9840    0.9340   22.2300 C   0  0  0  0  0  0  0  0  0  0  0  0
    4.0450    0.3090   21.6560 C   0  0  0  0  0  0  0  0  0  0  0  0
  2  3  1  0
  4  7  1  0
  1  8  1  0
  7  8  1  0
  1  9  1  0
  5  9  2  0
  1 12  1  0
  4 12  1  0
 11 12  2  0
 14 13  1  6
  3 15  1  0
  4 16  1  0
 15 16  1  0
 14 17  1  0
 16 17  2  0
 14 18  1  0
 17 18  1  0
 18 19  2  0
 15 20  2  0
 19 20  1  0
 21 22  2  0
 22 23  1  0
  9 24  1  0
 23 24  2  0
 24 25  1  0
  6 26  1  0
 21 26  1  0
 25 26  2  0
 22 27  1  0
 27 28  2  0
 28 29  1  0
 10 30  1  0
 23 30  1  0
 29 30  2  0
M  END
