x2572-x2705-x0691
     RDKit          3D

 52 57  0  0  0  0  0  0  0  0999 V2000
    6.8600   -1.4760   21.9490 N   0  0  0  0  0  0  0  0  0  0  0  0
    6.7150   -4.5480   20.2660 C   0  0  2  0  0  0  0  0  0  0  0  0
    4.7180   -2.9330   21.3580 O   0  0  0  0  0  0  0  0  0  0  0  0
    6.8390   -3.7300   21.4150 C   0  0  1  0  0  0  0  0  0  0  0  0
    7.5050    2.0350   22.8770 N   0  0  0  0  0  0  0  0  0  0  0  0
    8.8210    0.6950   21.4010 O   0  0  0  0  0  0  0  0  0  0  0  0
    5.9980   -2.6520   21.5780 C   0  0  0  0  0  0  0  0  0  0  0  0
    6.5250   -0.0550   21.6480 C   0  0  1  0  0  0  0  0  0  0  0  0
    7.7370    0.8900   21.9550 C   0  0  0  0  0  0  0  0  0  0  0  0
   10.0960    2.0970   23.9710 C   0  0  0  0  0  0  0  0  0  0  0  0
    9.3060    1.3610   24.8770 C   0  0  0  0  0  0  0  0  0  0  0  0
    6.1650    4.5560   21.8900 C   0  0  0  0  0  0  0  0  0  0  0  0
   12.0530   -1.5130   23.3300 C   0  0  0  0  0  0  0  0  0  0  0  0
   12.4960   -0.2650   23.7890 C   0  0  0  0  0  0  0  0  0  0  0  0
   12.5730   -2.5820   24.3140 C   0  0  0  0  0  0  0  0  0  0  0  0
   12.7230   -1.7490   22.0170 C   0  0  0  0  0  0  0  0  0  0  0  0
    5.4860   -4.3940   19.5590 O   0  0  0  0  0  0  0  0  0  0  0  0
    4.0480   -6.8770   25.8220 O   0  0  0  0  0  0  0  0  0  0  0  0
    5.6930   -5.2320   26.7530 O   0  0  0  0  0  0  0  0  0  0  0  0
    3.1890   -0.6280   26.0970 F   0  0  0  0  0  0  0  0  0  0  0  0
    4.7120   -5.5890   25.7560 S   0  0  0  0  0  0  0  0  0  0  0  0
    3.9770    1.5210   21.3230 C   0  0  0  0  0  0  0  0  0  0  0  0
   13.3040   -1.9030   21.0200 N   0  0  0  0  0  0  0  0  0  0  0  0
    6.4300    0.3100   17.9140 N   0  0  0  0  0  0  0  0  0  0  0  0
    5.3100    1.0310   17.7750 C   0  0  0  0  0  0  0  0  0  0  0  0
    4.4310    1.4610   18.9210 C   0  0  0  0  0  0  0  0  0  0  0  0
    4.8340    1.0870   20.1750 C   0  0  0  0  0  0  0  0  0  0  0  0
    5.9870    0.3590   20.3080 C   0  0  0  0  0  0  0  0  0  0  0  0
    6.7400   -0.0090   19.1840 C   0  0  0  0  0  0  0  0  0  0  0  0
    9.6520   -1.6220   24.2600 N   0  0  0  0  0  0  0  0  0  0  0  0
    8.3280   -1.6170   23.9320 N   0  0  0  0  0  0  0  0  0  0  0  0
    8.1710   -1.5280   22.5880 C   0  0  0  0  0  0  0  0  0  0  0  0
    9.4750   -1.4790   22.0530 C   0  0  0  0  0  0  0  0  0  0  0  0
   10.5120   -1.5360   23.2000 C   0  0  0  0  0  0  0  0  0  0  0  0
    9.4180    3.3730   23.4950 C   0  0  0  0  0  0  0  0  0  0  0  0
   10.1680    4.5010   23.6550 C   0  0  0  0  0  0  0  0  0  0  0  0
    9.5800    5.7530   23.2130 C   0  0  0  0  0  0  0  0  0  0  0  0
    8.2110    5.6500   22.6280 C   0  0  0  0  0  0  0  0  0  0  0  0
    7.5290    4.4520   22.5100 C   0  0  0  0  0  0  0  0  0  0  0  0
    8.1060    3.3300   22.9350 C   0  0  0  0  0  0  0  0  0  0  0  0
    2.8650   -1.9190   25.9470 C   0  0  0  0  0  0  0  0  0  0  0  0
    3.8880   -2.8960   25.9360 C   0  0  0  0  0  0  0  0  0  0  0  0
    3.4740   -4.3180   25.7700 C   0  0  0  0  0  0  0  0  0  0  0  0
    2.1200   -4.6340   25.6300 C   0  0  0  0  0  0  0  0  0  0  0  0
    1.1340   -3.6220   25.6460 C   0  0  0  0  0  0  0  0  0  0  0  0
    1.5210   -2.2720   25.8070 C   0  0  0  0  0  0  0  0  0  0  0  0
    6.5540   -5.2030   21.6590 C   0  0  0  0  0  0  0  0  0  0  0  0
    5.2950   -5.7470   21.8830 C   0  0  0  0  0  0  0  0  0  0  0  0
    4.9420   -6.2870   23.1140 C   0  0  0  0  0  0  0  0  0  0  0  0
    5.4080   -5.4190   24.2010 N   0  0  0  0  0  0  0  0  0  0  0  0
    6.8820   -5.1940   24.1420 C   0  0  0  0  0  0  0  0  0  0  0  0
    7.5020   -5.5280   22.7810 C   0  0  0  0  0  0  0  0  0  0  0  0
  2  4  1  0
  1  7  1  0
  3  7  2  0
  4  7  1  6
  1  8  1  0
  5  9  1  0
  6  9  2  0
  8  9  1  6
 10 11  1  0
 13 14  1  0
 13 15  1  0
 13 16  1  0
  2 17  1  6
 18 21  2  0
 19 21  2  0
 16 23  3  0
 24 25  2  0
 25 26  1  0
 22 27  1  0
 26 27  2  0
  8 28  1  0
 27 28  1  0
 24 29  1  0
 28 29  2  0
 30 31  1  0
  1 32  1  0
 31 32  1  0
 32 33  2  0
 13 34  1  0
 30 34  2  0
 33 34  1  0
 10 35  1  0
 35 36  2  0
 36 37  1  0
 37 38  2  0
 12 39  1  0
 38 39  1  0
  5 40  1  0
 35 40  1  0
 39 40  2  0
 20 41  1  0
 41 42  2  0
 21 43  1  0
 42 43  1  0
 43 44  2  0
 44 45  1  0
 41 46  1  0
 45 46  2  0
  2 47  1  0
  4 47  1  0
 47 48  1  0
 48 49  1  0
 21 50  1  0
 49 50  1  0
 50 51  1  0
 47 52  1  0
 51 52  1  0
M  END
