x2572-x0107
     RDKit          3D

 19 20  0  0  0  0  0  0  0  0999 V2000
    4.8960    1.3370   21.7760 C   0  0  0  0  0  0  0  0  0  0  0  0
    8.7770    1.3410   21.2550 O   0  0  0  0  0  0  0  0  0  0  0  0
    7.0290   -0.2350   21.1840 N   0  0  0  0  0  0  0  0  0  0  0  0
   13.5410   -3.1570   20.6760 N   0  0  0  0  0  0  0  0  0  0  0  0
    8.1740    0.3560   21.7450 C   0  0  0  0  0  0  0  0  0  0  0  0
    8.6950   -0.2560   23.0390 C   0  0  0  0  0  0  0  0  0  0  0  0
   12.9990   -2.1790   21.4370 C   0  0  0  0  0  0  0  0  0  0  0  0
    6.2750    0.5250   17.6280 N   0  0  0  0  0  0  0  0  0  0  0  0
    7.0350   -0.1250   18.6830 C   0  0  0  0  0  0  0  0  0  0  0  0
    6.5560    0.1720   20.0810 C   0  0  0  0  0  0  0  0  0  0  0  0
    5.3610    1.0680   20.3420 C   0  0  0  0  0  0  0  0  0  0  0  0
    4.7590    1.5970   19.2000 C   0  0  0  0  0  0  0  0  0  0  0  0
    5.1680    1.3640   17.9120 C   0  0  0  0  0  0  0  0  0  0  0  0
   10.8580    0.6740   23.7410 C   0  0  0  0  0  0  0  0  0  0  0  0
   12.1960    0.6870   23.7180 C   0  0  0  0  0  0  0  0  0  0  0  0
   12.9450   -0.2250   22.9810 C   0  0  0  0  0  0  0  0  0  0  0  0
   12.2830   -1.1840   22.2430 C   0  0  0  0  0  0  0  0  0  0  0  0
   10.8390   -1.2850   22.1980 C   0  0  0  0  0  0  0  0  0  0  0  0
   10.1620   -0.2810   23.0020 C   0  0  0  0  0  0  0  0  0  0  0  0
  2  5  2  0
  3  5  1  0
  5  6  1  0
  4  7  3  0
  8  9  2  0
  3 10  1  0
  9 10  1  0
  1 11  1  0
 10 11  2  0
 11 12  1  0
  8 13  1  0
 12 13  2  0
 14 15  2  0
 15 16  1  0
  7 17  1  0
 16 17  2  0
 17 18  1  0
  6 19  1  0
 14 19  1  0
 18 19  2  0
M  END
