x2572-x2705
     RDKit          3D

 35 37  0  0  0  0  0  0  0  0999 V2000
    6.9830   -1.5060   21.7560 N   0  0  0  0  0  0  0  0  0  0  0  0
    6.9080   -4.8630   20.5190 C   0  0  0  0  0  0  0  0  0  0  0  0
    4.8340   -3.0050   21.2280 O   0  0  0  0  0  0  0  0  0  0  0  0
    6.8850   -3.9880   21.7230 C   0  0  0  0  0  0  0  0  0  0  0  0
    7.3640    2.1370   22.4790 N   0  0  0  0  0  0  0  0  0  0  0  0
    8.8810    0.6170   21.6290 O   0  0  0  0  0  0  0  0  0  0  0  0
    6.1220   -2.7500   21.5500 C   0  0  0  0  0  0  0  0  0  0  0  0
    6.5580   -0.0600   21.5460 C   0  0  1  0  0  0  0  0  0  0  0  0
    7.7100    0.8880   21.8890 C   0  0  0  0  0  0  0  0  0  0  0  0
   10.2880    1.9930   23.9160 C   0  0  0  0  0  0  0  0  0  0  0  0
    9.4100    1.1960   24.8800 C   0  0  0  0  0  0  0  0  0  0  0  0
    6.1410    3.9980   21.7670 C   0  0  0  0  0  0  0  0  0  0  0  0
   11.9350   -1.6390   23.2520 C   0  0  0  0  0  0  0  0  0  0  0  0
   12.4920   -0.7250   24.1590 C   0  0  0  0  0  0  0  0  0  0  0  0
   12.6070   -2.3430   24.4970 C   0  0  0  0  0  0  0  0  0  0  0  0
   12.7730   -1.7010   21.9660 C   0  0  0  0  0  0  0  0  0  0  0  0
    4.3390    1.5210   21.2310 C   0  0  0  0  0  0  0  0  0  0  0  0
   13.5480   -1.7190   20.8190 N   0  0  0  0  0  0  0  0  0  0  0  0
    6.3120    0.2740   17.7990 N   0  0  0  0  0  0  0  0  0  0  0  0
    5.2340    1.0630   17.7780 C   0  0  0  0  0  0  0  0  0  0  0  0
    4.5300    1.5010   18.9650 C   0  0  0  0  0  0  0  0  0  0  0  0
    4.9790    1.1070   20.2050 C   0  0  0  0  0  0  0  0  0  0  0  0
    6.1060    0.2910   20.2860 C   0  0  0  0  0  0  0  0  0  0  0  0
    6.7640   -0.1300   19.1290 C   0  0  0  0  0  0  0  0  0  0  0  0
    9.6510   -1.6580   24.2660 N   0  0  0  0  0  0  0  0  0  0  0  0
    8.3140   -1.6350   23.9580 N   0  0  0  0  0  0  0  0  0  0  0  0
    8.2270   -1.5830   22.5960 C   0  0  0  0  0  0  0  0  0  0  0  0
    9.5360   -1.5840   22.1040 C   0  0  0  0  0  0  0  0  0  0  0  0
   10.4040   -1.6280   23.1600 C   0  0  0  0  0  0  0  0  0  0  0  0
    9.5660    3.1450   23.4970 C   0  0  0  0  0  0  0  0  0  0  0  0
   10.0650    4.4490   23.6620 C   0  0  0  0  0  0  0  0  0  0  0  0
    9.2860    5.5460   23.2150 C   0  0  0  0  0  0  0  0  0  0  0  0
    8.0160    5.3900   22.6030 C   0  0  0  0  0  0  0  0  0  0  0  0
    7.4890    4.0980   22.4240 C   0  0  0  0  0  0  0  0  0  0  0  0
    8.3260    3.0860   22.8950 C   0  0  0  0  0  0  0  0  0  0  0  0
  2  4  1  0
  1  7  1  0
  3  7  2  0
  4  7  1  0
  1  8  1  0
  5  9  1  0
  6  9  2  0
  8  9  1  6
 10 11  1  0
 13 14  1  0
 13 15  1  0
 13 16  1  0
 16 18  3  0
 19 20  2  0
 20 21  1  0
 17 22  1  0
 21 22  2  0
  8 23  1  0
 22 23  1  0
 19 24  1  0
 23 24  2  0
 25 26  1  0
  1 27  1  0
 26 27  2  0
 27 28  1  0
 13 29  1  0
 25 29  1  0
 28 29  2  0
 10 30  1  0
 30 31  2  0
 31 32  1  0
 32 33  2  0
 12 34  1  0
 33 34  1  0
  5 35  1  0
 30 35  1  0
 34 35  2  0
M  END
