x2572-x0995
     RDKit          3D

 20 21  0  0  0  0  0  0  0  0999 V2000
    4.6530    1.3610   21.6700 C   0  0  0  0  0  0  0  0  0  0  0  0
    8.7510    1.3300   21.2690 O   0  0  0  0  0  0  0  0  0  0  0  0
    6.9100   -0.1450   21.2670 N   0  0  0  0  0  0  0  0  0  0  0  0
   13.6220   -2.9990   20.6510 N   0  0  0  0  0  0  0  0  0  0  0  0
    8.1080    0.3790   21.7790 C   0  0  0  0  0  0  0  0  0  0  0  0
    8.6430   -0.2730   23.0510 C   0  0  0  0  0  0  0  0  0  0  0  0
   13.0430   -2.0740   21.4310 C   0  0  0  0  0  0  0  0  0  0  0  0
    3.5640    2.1780   19.2850 N   0  0  0  0  0  0  0  0  0  0  0  0
    6.3710    0.3710   17.6430 N   0  0  0  0  0  0  0  0  0  0  0  0
    7.0790   -0.1780   18.7730 C   0  0  0  0  0  0  0  0  0  0  0  0
    6.4750    0.1870   20.1200 C   0  0  0  0  0  0  0  0  0  0  0  0
    5.2090    1.0390   20.2820 C   0  0  0  0  0  0  0  0  0  0  0  0
    4.6710    1.4550   19.0660 C   0  0  0  0  0  0  0  0  0  0  0  0
    5.1840    1.1730   17.8600 C   0  0  0  0  0  0  0  0  0  0  0  0
   10.8020    0.6800   23.7870 C   0  0  0  0  0  0  0  0  0  0  0  0
   12.1400    0.7080   23.7660 C   0  0  0  0  0  0  0  0  0  0  0  0
   12.9170   -0.1630   23.0200 C   0  0  0  0  0  0  0  0  0  0  0  0
   12.3040   -1.1210   22.2500 C   0  0  0  0  0  0  0  0  0  0  0  0
   10.8560   -1.2120   22.2220 C   0  0  0  0  0  0  0  0  0  0  0  0
   10.1100   -0.2620   23.0280 C   0  0  0  0  0  0  0  0  0  0  0  0
  2  5  2  0
  3  5  1  0
  5  6  1  0
  4  7  3  0
  9 10  2  0
  3 11  1  0
 10 11  1  0
  1 12  1  0
 11 12  2  0
  8 13  1  0
 12 13  1  0
  9 14  1  0
 13 14  2  0
 15 16  2  0
 16 17  1  0
  7 18  1  0
 17 18  2  0
 18 19  1  0
  6 20  1  0
 15 20  1  0
 19 20  2  0
M  END
