x2572-x1351
     RDKit          3D

 39 42  0  0  0  0  0  0  0  0999 V2000
    4.7150    1.4730   21.6230 C   0  0  0  0  0  0  0  0  0  0  0  0
    8.8190    1.4960   21.2140 O   0  0  0  0  0  0  0  0  0  0  0  0
    7.1720   -0.1670   21.0290 N   0  0  0  0  0  0  0  0  0  0  0  0
   13.4980   -3.1040   20.6520 N   0  0  0  0  0  0  0  0  0  0  0  0
    8.2640    0.4610   21.6320 C   0  0  0  0  0  0  0  0  0  0  0  0
    8.7870   -0.2350   22.8900 C   0  0  0  0  0  0  0  0  0  0  0  0
   12.9600   -2.1210   21.4050 C   0  0  0  0  0  0  0  0  0  0  0  0
    6.9170   -3.3300   19.2110 C   0  0  0  0  0  0  0  0  0  0  0  0
    5.1930   -4.7520   19.9160 O   0  0  0  0  0  0  0  0  0  0  0  0
    6.1830   -4.0890   20.2640 C   0  0  0  0  0  0  0  0  0  0  0  0
    5.9160   -2.9330   25.3430 N   0  0  0  0  0  0  0  0  0  0  0  0
    8.0020   -3.0180   26.5920 O   0  0  0  0  0  0  0  0  0  0  0  0
    6.7780   -2.4000   26.2360 C   0  0  0  0  0  0  0  0  0  0  0  0
    7.1920   -1.5950   20.8510 C   0  0  0  0  0  0  0  0  0  0  0  0
    7.0350   -1.8700   19.5370 C   0  0  0  0  0  0  0  0  0  0  0  0
    6.2930    0.8210   17.5700 N   0  0  0  0  0  0  0  0  0  0  0  0
    6.9110    0.2700   18.7490 C   0  0  0  0  0  0  0  0  0  0  0  0
    6.4380    0.4680   19.9930 C   0  0  0  0  0  0  0  0  0  0  0  0
    5.2920    1.2280   20.2660 C   0  0  0  0  0  0  0  0  0  0  0  0
    4.6740    1.7780   19.1530 C   0  0  0  0  0  0  0  0  0  0  0  0
    5.2140    1.5490   17.8220 C   0  0  0  0  0  0  0  0  0  0  0  0
   10.9320    0.7940   23.7010 C   0  0  0  0  0  0  0  0  0  0  0  0
   12.3040    0.7950   23.6890 C   0  0  0  0  0  0  0  0  0  0  0  0
   12.9680   -0.1520   22.9420 C   0  0  0  0  0  0  0  0  0  0  0  0
   12.2860   -1.1050   22.2070 C   0  0  0  0  0  0  0  0  0  0  0  0
   10.9370   -1.1210   22.2030 C   0  0  0  0  0  0  0  0  0  0  0  0
   10.2020   -0.2050   22.9210 C   0  0  0  0  0  0  0  0  0  0  0  0
    6.5980   -4.1460   21.6040 N   0  0  0  0  0  0  0  0  0  0  0  0
    7.4750   -3.3020   22.2080 C   0  0  0  0  0  0  0  0  0  0  0  0
    7.0630   -2.7300   23.4020 C   0  0  0  0  0  0  0  0  0  0  0  0
    6.4520   -3.6790   24.2050 C   0  0  0  0  0  0  0  0  0  0  0  0
    5.4070   -4.3740   23.5780 C   0  0  0  0  0  0  0  0  0  0  0  0
    5.9160   -5.0910   22.4780 C   0  0  0  0  0  0  0  0  0  0  0  0
    7.0270   -0.7410   28.0820 C   0  0  0  0  0  0  0  0  0  0  0  0
    6.7030    0.4780   28.7120 C   0  0  0  0  0  0  0  0  0  0  0  0
    5.7790    1.4150   28.2290 C   0  0  0  0  0  0  0  0  0  0  0  0
    5.0230    1.1840   26.9300 C   0  0  0  0  0  0  0  0  0  0  0  0
    5.3870   -0.1360   26.2670 C   0  0  0  0  0  0  0  0  0  0  0  0
    6.4080   -1.1040   26.8670 C   0  0  0  0  0  0  0  0  0  0  0  0
  2  5  2  0
  3  5  1  0
  5  6  1  0
  4  7  3  0
  8 10  1  0
  9 10  2  0
 11 13  1  0
 12 13  2  0
  3 14  1  0
  8 15  1  0
 14 15  1  0
 16 17  2  0
  3 18  1  0
 17 18  1  0
  1 19  1  0
 18 19  2  0
 19 20  1  0
 16 21  1  0
 20 21  2  0
 22 23  2  0
 23 24  1  0
  7 25  1  0
 24 25  2  0
 25 26  1  0
  6 27  1  0
 22 27  1  0
 26 27  2  0
 10 28  1  0
 28 29  1  0
 29 30  1  0
 11 31  1  0
 30 31  1  0
 31 32  1  0
 28 33  1  0
 32 33  1  0
 34 35  2  0
 35 36  1  0
 36 37  2  0
 37 38  1  0
 13 39  1  0
 34 39  1  0
 38 39  2  0
M  END
