x2572-x0540
     RDKit          3D

 30 32  0  0  0  0  0  0  0  0999 V2000
    4.3820    0.7540   21.5300 C   0  0  0  0  0  0  0  0  0  0  0  0
    8.6420    0.8360   21.3850 O   0  0  0  0  0  0  0  0  0  0  0  0
    6.9740   -0.7550   21.0880 N   0  0  0  0  0  0  0  0  0  0  0  0
   13.2420   -2.6810   20.8500 N   0  0  0  0  0  0  0  0  0  0  0  0
    8.1360   -0.2530   21.6980 C   0  0  0  0  0  0  0  0  0  0  0  0
    8.8150   -1.0800   22.7950 C   0  0  0  0  0  0  0  0  0  0  0  0
   13.5010   -1.5240   21.4940 C   0  0  0  0  0  0  0  0  0  0  0  0
    2.9500    1.4810   24.4160 O   0  0  0  0  0  0  0  0  0  0  0  0
    2.9640    2.3660   23.5540 C   0  0  0  0  0  0  0  0  0  0  0  0
    4.1680    2.7170   22.8020 N   0  0  0  0  0  0  0  0  0  0  0  0
    4.9980    1.6710   22.5390 C   0  0  0  0  0  0  0  0  0  0  0  0
    1.8220    3.1990   23.1510 N   0  0  0  0  0  0  0  0  0  0  0  0
    6.4390    0.6140   17.7010 N   0  0  0  0  0  0  0  0  0  0  0  0
    6.8980   -0.0170   18.7890 C   0  0  0  0  0  0  0  0  0  0  0  0
    6.2980   -0.0070   20.0280 C   0  0  0  0  0  0  0  0  0  0  0  0
    5.1320    0.6740   20.2350 C   0  0  0  0  0  0  0  0  0  0  0  0
    4.6450    1.3320   19.1100 C   0  0  0  0  0  0  0  0  0  0  0  0
    5.2870    1.2870   17.9220 C   0  0  0  0  0  0  0  0  0  0  0  0
   10.5980    0.3890   23.7210 C   0  0  0  0  0  0  0  0  0  0  0  0
   11.8870    0.8370   23.8360 C   0  0  0  0  0  0  0  0  0  0  0  0
   12.9680    0.2120   23.0830 C   0  0  0  0  0  0  0  0  0  0  0  0
   12.5310   -0.8920   22.2430 C   0  0  0  0  0  0  0  0  0  0  0  0
   11.2170   -1.3070   22.1620 C   0  0  0  0  0  0  0  0  0  0  0  0
   10.2400   -0.6610   22.8990 C   0  0  0  0  0  0  0  0  0  0  0  0
    0.5560    4.6150   24.5130 C   0  0  0  0  0  0  0  0  0  0  0  0
   -0.6650    4.8760   25.0790 C   0  0  0  0  0  0  0  0  0  0  0  0
   -1.7140    4.6040   24.2080 C   0  0  0  0  0  0  0  0  0  0  0  0
   -1.6920    3.2910   23.7660 C   0  0  0  0  0  0  0  0  0  0  0  0
   -0.4560    2.8190   23.3170 C   0  0  0  0  0  0  0  0  0  0  0  0
    0.6490    3.3190   24.0130 C   0  0  0  0  0  0  0  0  0  0  0  0
  2  5  2  0
  3  5  1  0
  5  6  1  0
  4  7  3  0
  8  9  2  0
  9 10  1  0
  1 11  1  0
 10 11  1  0
  9 12  1  0
 13 14  2  0
  3 15  1  0
 14 15  1  0
  1 16  1  0
 15 16  2  0
 16 17  1  0
 13 18  1  0
 17 18  2  0
 19 20  2  0
 20 21  1  0
  7 22  1  0
 21 22  2  0
 22 23  1  0
  6 24  1  0
 19 24  1  0
 23 24  2  0
 25 26  1  0
 26 27  1  0
 27 28  1  0
 28 29  1  0
 12 30  1  0
 25 30  1  0
 29 30  1  0
M  END
