x2572-x1311
     RDKit          3D

 38 41  0  0  0  0  0  0  0  0999 V2000
    4.6800    0.9810   21.5620 C   0  0  0  0  0  0  0  0  0  0  0  0
    8.6010    1.0870   21.4680 O   0  0  0  0  0  0  0  0  0  0  0  0
    7.0490   -0.5980   21.1450 N   0  0  0  0  0  0  0  0  0  0  0  0
   13.8310   -1.9020   20.5960 N   0  0  0  0  0  0  0  0  0  0  0  0
    8.0820    0.0240   21.8380 C   0  0  0  0  0  0  0  0  0  0  0  0
    8.6000   -0.6570   23.1040 C   0  0  0  0  0  0  0  0  0  0  0  0
   13.0740   -1.4370   21.5480 C   0  0  0  0  0  0  0  0  0  0  0  0
    5.7840   -4.6370   20.0060 O   0  0  0  0  0  0  0  0  0  0  0  0
    6.6760   -4.5660   20.9250 C   0  0  0  0  0  0  0  0  0  0  0  0
    8.1320   -4.1430   20.7670 C   0  0  0  0  0  0  0  0  0  0  0  0
    6.3830   -4.8610   22.3090 N   0  0  0  0  0  0  0  0  0  0  0  0
    4.1760   -7.7190   25.1560 O   0  0  0  0  0  0  0  0  0  0  0  0
    2.5380   -5.8550   24.9810 O   0  0  0  0  0  0  0  0  0  0  0  0
    7.0200   -1.9930   21.0170 C   0  0  0  0  0  0  0  0  0  0  0  0
    8.2050   -2.6880   21.2650 C   0  0  0  0  0  0  0  0  0  0  0  0
    6.3730    0.6770   17.6750 N   0  0  0  0  0  0  0  0  0  0  0  0
    6.9530   -0.0110   18.8160 C   0  0  0  0  0  0  0  0  0  0  0  0
    6.4200    0.0940   20.0400 C   0  0  0  0  0  0  0  0  0  0  0  0
    5.3290    0.8320   20.2160 C   0  0  0  0  0  0  0  0  0  0  0  0
    4.7130    1.5240   19.1450 C   0  0  0  0  0  0  0  0  0  0  0  0
    5.1500    1.5320   17.7960 C   0  0  0  0  0  0  0  0  0  0  0  0
   10.5550    0.5670   23.9930 C   0  0  0  0  0  0  0  0  0  0  0  0
   11.9700    0.8330   23.9960 C   0  0  0  0  0  0  0  0  0  0  0  0
   12.8110    0.1550   23.1850 C   0  0  0  0  0  0  0  0  0  0  0  0
   12.2560   -0.7880   22.3690 C   0  0  0  0  0  0  0  0  0  0  0  0
   10.8990   -1.0760   22.3360 C   0  0  0  0  0  0  0  0  0  0  0  0
   10.0540   -0.3980   23.1400 C   0  0  0  0  0  0  0  0  0  0  0  0
    8.3160   -5.8790   23.1830 C   0  0  0  0  0  0  0  0  0  0  0  0
    9.3330   -5.8720   24.0720 C   0  0  0  0  0  0  0  0  0  0  0  0
    9.5130   -4.8590   24.9700 C   0  0  0  0  0  0  0  0  0  0  0  0
    8.6480   -3.7790   24.9980 C   0  0  0  0  0  0  0  0  0  0  0  0
    7.5820   -3.7510   24.0950 C   0  0  0  0  0  0  0  0  0  0  0  0
    7.4380   -4.8180   23.1990 C   0  0  0  0  0  0  0  0  0  0  0  0
    4.6620   -6.3580   22.0980 C   0  0  0  0  0  0  0  0  0  0  0  0
    5.5960   -5.8210   22.8990 C   0  0  2  0  0  0  0  0  0  0  0  0
    5.0940   -5.3910   24.1440 C   0  0  0  0  0  0  0  0  0  0  0  0
    3.7570   -6.5280   24.3830 S   0  0  0  0  0  0  0  0  0  0  0  0
    3.5290   -6.8300   22.6780 C   0  0  0  0  0  0  0  0  0  0  0  0
  2  5  2  0
  3  5  1  0
  5  6  1  0
  4  7  3  0
  8  9  2  0
  9 10  1  0
  9 11  1  0
  3 14  1  0
 10 15  1  0
 14 15  1  0
 16 17  2  0
  3 18  1  0
 17 18  1  0
  1 19  1  0
 18 19  2  0
 19 20  1  0
 16 21  1  0
 20 21  2  0
 22 23  2  0
 23 24  1  0
  7 25  1  0
 24 25  2  0
 25 26  1  0
  6 27  1  0
 22 27  1  0
 26 27  2  0
 28 29  2  0
 29 30  1  0
 30 31  2  0
 31 32  1  0
 11 33  1  0
 28 33  1  0
 32 33  2  0
 35 11  1  6
 34 35  1  0
 35 36  1  0
 37 12  1  0
 13 37  1  0
 36 37  1  0
 34 38  2  0
 37 38  1  0
M  END
