x2572-x2908
     RDKit          3D

 19 20  0  0  0  0  0  0  0  0999 V2000
    4.9030    1.3470   21.7790 C   0  0  0  0  0  0  0  0  0  0  0  0
    8.7810    1.3430   21.2550 O   0  0  0  0  0  0  0  0  0  0  0  0
    7.0340   -0.2360   21.1850 N   0  0  0  0  0  0  0  0  0  0  0  0
   13.5410   -3.1670   20.6780 N   0  0  0  0  0  0  0  0  0  0  0  0
    8.1770    0.3560   21.7450 C   0  0  0  0  0  0  0  0  0  0  0  0
    8.6990   -0.2580   23.0420 C   0  0  0  0  0  0  0  0  0  0  0  0
   12.9970   -2.1870   21.4400 C   0  0  0  0  0  0  0  0  0  0  0  0
    6.2730    0.5230   17.6290 N   0  0  0  0  0  0  0  0  0  0  0  0
    7.0340   -0.1260   18.6870 C   0  0  0  0  0  0  0  0  0  0  0  0
    6.5560    0.1740   20.0840 C   0  0  0  0  0  0  0  0  0  0  0  0
    5.3630    1.0740   20.3450 C   0  0  0  0  0  0  0  0  0  0  0  0
    4.7620    1.6000   19.2000 C   0  0  0  0  0  0  0  0  0  0  0  0
    5.1660    1.3660   17.9100 C   0  0  0  0  0  0  0  0  0  0  0  0
   10.8600    0.6760   23.7400 C   0  0  0  0  0  0  0  0  0  0  0  0
   12.1970    0.6880   23.7150 C   0  0  0  0  0  0  0  0  0  0  0  0
   12.9410   -0.2270   22.9790 C   0  0  0  0  0  0  0  0  0  0  0  0
   12.2840   -1.1890   22.2430 C   0  0  0  0  0  0  0  0  0  0  0  0
   10.8390   -1.2880   22.1990 C   0  0  0  0  0  0  0  0  0  0  0  0
   10.1640   -0.2830   23.0020 C   0  0  0  0  0  0  0  0  0  0  0  0
  2  5  2  0
  3  5  1  0
  5  6  1  0
  4  7  3  0
  8  9  2  0
  3 10  1  0
  9 10  1  0
  1 11  1  0
 10 11  2  0
 11 12  1  0
  8 13  1  0
 12 13  2  0
 14 15  2  0
 15 16  1  0
  7 17  1  0
 16 17  2  0
 17 18  1  0
  6 19  1  0
 14 19  1  0
 18 19  2  0
M  END
