x2572-x1385
     RDKit          3D

 35 40  0  0  0  0  0  0  0  0999 V2000
    4.6770    1.2760   21.6470 C   0  0  0  0  0  0  0  0  0  0  0  0
    8.9190    0.4100   21.1580 O   0  0  0  0  0  0  0  0  0  0  0  0
    6.8580   -0.4900   21.2920 N   0  0  0  0  0  0  0  0  0  0  0  0
   13.7990   -2.2270   20.5870 N   0  0  0  0  0  0  0  0  0  0  0  0
    8.1100   -0.2000   21.8260 C   0  0  2  0  0  0  0  0  0  0  0  0
    8.7520   -0.9710   22.9890 C   0  0  2  0  0  0  0  0  0  0  0  0
   13.1750   -1.5690   21.4870 C   0  0  0  0  0  0  0  0  0  0  0  0
    7.3350   -2.9930   18.8460 C   0  0  0  0  0  0  0  0  0  0  0  0
    5.4040   -4.1060   19.7410 O   0  0  0  0  0  0  0  0  0  0  0  0
    6.3320   -3.2660   19.9200 C   0  0  0  0  0  0  0  0  0  0  0  0
    9.4020   -3.2760   23.9580 C   0  0  0  0  0  0  0  0  0  0  0  0
    7.2860   -5.7110   28.4530 Br  0  0  0  0  0  0  0  0  0  0  0  0
    6.4100    0.4680   17.7350 N   0  0  0  0  0  0  0  0  0  0  0  0
    6.8460   -0.0840   18.8690 C   0  0  0  0  0  0  0  0  0  0  0  0
    6.3430    0.1240   20.1270 C   0  0  0  0  0  0  0  0  0  0  0  0
    5.2620    1.0010   20.2710 C   0  0  0  0  0  0  0  0  0  0  0  0
    4.7450    1.6040   19.1730 C   0  0  0  0  0  0  0  0  0  0  0  0
    5.2790    1.3700   17.9100 C   0  0  0  0  0  0  0  0  0  0  0  0
   10.5030    0.4790   23.9970 C   0  0  0  0  0  0  0  0  0  0  0  0
   11.9290    0.8290   23.9980 C   0  0  0  0  0  0  0  0  0  0  0  0
   12.8480    0.1190   23.1360 C   0  0  0  0  0  0  0  0  0  0  0  0
   12.2870   -0.8410   22.3740 C   0  0  0  0  0  0  0  0  0  0  0  0
   10.9860   -1.1330   22.3860 C   0  0  0  0  0  0  0  0  0  0  0  0
   10.0870   -0.5000   23.1680 C   0  0  0  0  0  0  0  0  0  0  0  0
    6.4870   -2.5850   21.1390 N   0  0  0  0  0  0  0  0  0  0  0  0
    6.3280   -3.3760   22.2240 C   0  0  0  0  0  0  0  0  0  0  0  0
    7.4070   -4.0320   22.8170 C   0  0  0  0  0  0  0  0  0  0  0  0
    8.3450   -3.0990   23.0470 N   0  0  0  0  0  0  0  0  0  0  0  0
    8.4900   -2.1180   22.1520 C   0  0  1  0  0  0  0  0  0  0  0  0
    7.5290   -1.7450   21.2790 C   0  0  2  0  0  0  0  0  0  0  0  0
    9.7130   -5.4960   25.2960 C   0  0  0  0  0  0  0  0  0  0  0  0
    9.1150   -4.2210   25.0660 C   0  0  0  0  0  0  0  0  0  0  0  0
    7.9090   -3.7870   26.2600 S   0  0  0  0  0  0  0  0  0  0  0  0
    8.2680   -5.2320   26.9010 C   0  0  0  0  0  0  0  0  0  0  0  0
    9.1750   -6.1070   26.4390 C   0  0  0  0  0  0  0  0  0  0  0  0
  5  2  1  1
  3  5  1  0
  5  6  1  0
  4  7  3  0
  8 10  1  0
  9 10  2  0
 13 14  2  0
  3 15  1  0
 14 15  1  0
  1 16  1  0
 15 16  2  0
 16 17  1  0
 13 18  1  0
 17 18  2  0
 19 20  2  0
 20 21  1  0
  7 22  1  0
 21 22  2  0
 22 23  1  0
  6 24  1  6
 19 24  1  0
 23 24  2  0
 10 25  1  0
 25 26  1  0
 26 27  1  0
 11 28  1  0
 27 28  1  0
  6 29  1  0
 29 28  1  1
 30  3  1  6
  5 30  1  0
 25 30  1  0
 29 30  1  0
 11 32  1  0
 31 32  2  0
 32 33  1  0
 12 34  1  0
 33 34  1  0
 31 35  1  0
 34 35  2  0
M  END
