x2572-x0705
     RDKit          3D

 37 40  0  0  0  0  0  0  0  0999 V2000
    4.5530    1.6610   21.4590 C   0  0  0  0  0  0  0  0  0  0  0  0
    8.9250    1.2260   21.4050 O   0  0  0  0  0  0  0  0  0  0  0  0
    6.8450    0.1430   21.3970 N   0  0  0  0  0  0  0  0  0  0  0  0
   13.9580   -1.5570   20.4800 N   0  0  0  0  0  0  0  0  0  0  0  0
    8.1980    0.2520   21.7120 C   0  0  0  0  0  0  0  0  0  0  0  0
    8.7390   -0.9840   22.4090 C   0  0  1  0  0  0  0  0  0  0  0  0
   13.2370   -1.3590   21.5640 C   0  0  0  0  0  0  0  0  0  0  0  0
    1.4880   -2.6660   27.7840 C   0  0  0  0  0  0  0  0  0  0  0  0
    7.4900   -1.5970   26.0000 O   0  0  0  0  0  0  0  0  0  0  0  0
    5.6850   -3.8840   19.7650 O   0  0  0  0  0  0  0  0  0  0  0  0
    6.4960   -1.6910   25.2950 C   0  0  0  0  0  0  0  0  0  0  0  0
    6.5610   -4.0240   20.6990 C   0  0  0  0  0  0  0  0  0  0  0  0
    7.8250   -4.6260   20.4460 C   0  0  0  0  0  0  0  0  0  0  0  0
    6.3500    0.5670   17.7420 N   0  0  0  0  0  0  0  0  0  0  0  0
    6.9370    0.1190   18.9550 C   0  0  0  0  0  0  0  0  0  0  0  0
    6.3030    0.5250   20.1220 C   0  0  0  0  0  0  0  0  0  0  0  0
    5.1960    1.2700   20.1620 C   0  0  0  0  0  0  0  0  0  0  0  0
    4.6110    1.7070   18.9860 C   0  0  0  0  0  0  0  0  0  0  0  0
    5.2230    1.3370   17.8140 C   0  0  0  0  0  0  0  0  0  0  0  0
   10.4330   -0.4980   24.3670 C   0  0  0  0  0  0  0  0  0  0  0  0
   11.8520   -0.4490   24.7490 C   0  0  0  0  0  0  0  0  0  0  0  0
   12.8050   -0.7380   23.8100 C   0  0  0  0  0  0  0  0  0  0  0  0
   12.3790   -1.0680   22.5530 C   0  0  0  0  0  0  0  0  0  0  0  0
   11.0590   -1.1270   22.1880 C   0  0  0  0  0  0  0  0  0  0  0  0
   10.0820   -0.8500   23.0580 C   0  0  0  0  0  0  0  0  0  0  0  0
    2.8340   -2.4280   27.1390 C   0  0  0  0  0  0  0  0  0  0  0  0
    2.9400   -1.4390   26.1970 C   0  0  0  0  0  0  0  0  0  0  0  0
    4.1490   -1.1700   25.5670 C   0  0  0  0  0  0  0  0  0  0  0  0
    5.2960   -1.9070   25.8790 C   0  0  0  0  0  0  0  0  0  0  0  0
    5.1910   -2.9230   26.8470 C   0  0  0  0  0  0  0  0  0  0  0  0
    3.9540   -3.1910   27.4870 C   0  0  0  0  0  0  0  0  0  0  0  0
    6.4520   -3.6930   22.0460 N   0  0  0  0  0  0  0  0  0  0  0  0
    5.2240   -3.2630   22.7000 C   0  0  0  0  0  0  0  0  0  0  0  0
    5.3120   -1.9370   23.1440 C   0  0  0  0  0  0  0  0  0  0  0  0
    6.4890   -1.5450   23.8050 N   0  0  0  0  0  0  0  0  0  0  0  0
    7.6280   -1.9320   22.9120 C   0  0  2  0  0  0  0  0  0  0  0  0
    7.6960   -3.4130   22.7820 C   0  0  0  0  0  0  0  0  0  0  0  0
  2  5  2  0
  3  5  1  0
  6  5  1  1
  4  7  3  0
  9 11  2  0
 10 12  2  0
 12 13  1  0
 14 15  2  0
  3 16  1  0
 15 16  1  0
  1 17  1  0
 16 17  2  0
 17 18  1  0
 14 19  1  0
 18 19  2  0
 20 21  2  0
 21 22  1  0
  7 23  1  0
 22 23  2  0
 23 24  1  0
  6 25  1  0
 20 25  1  0
 24 25  2  0
  8 26  1  0
 26 27  2  0
 27 28  1  0
 11 29  1  0
 28 29  2  0
 29 30  1  0
 26 31  1  0
 30 31  2  0
 12 32  1  0
 32 33  1  0
 33 34  1  0
 11 35  1  0
 34 35  1  0
  6 36  1  0
 35 36  1  0
 32 37  1  0
 36 37  1  1
M  END
