x2572-x1380
     RDKit          3D

 38 41  0  0  0  0  0  0  0  0999 V2000
    4.4310    1.2790   21.4910 C   0  0  0  0  0  0  0  0  0  0  0  0
    8.7200    1.2860   21.1750 O   0  0  0  0  0  0  0  0  0  0  0  0
    6.9450   -0.2650   20.9610 N   0  0  0  0  0  0  0  0  0  0  0  0
   13.6620   -2.5290   20.6690 N   0  0  0  0  0  0  0  0  0  0  0  0
    8.1020    0.2660   21.5690 C   0  0  0  0  0  0  0  0  0  0  0  0
    8.6220   -0.4830   22.8040 C   0  0  0  0  0  0  0  0  0  0  0  0
   13.0310   -1.7480   21.5080 C   0  0  0  0  0  0  0  0  0  0  0  0
    7.6260   -3.4680   19.9750 C   0  0  0  0  0  0  0  0  0  0  0  0
    5.6560   -4.9320   20.0110 O   0  0  0  0  0  0  0  0  0  0  0  0
    6.6750   -4.4430   20.5800 C   0  0  0  0  0  0  0  0  0  0  0  0
    4.3180   -3.0990   25.5640 O   0  0  0  0  0  0  0  0  0  0  0  0
    5.6620   -3.4930   25.3650 C   0  0  0  0  0  0  0  0  0  0  0  0
    6.6330   -1.6750   20.9150 C   0  0  0  0  0  0  0  0  0  0  0  0
    6.8700   -2.2120   19.6760 C   0  0  0  0  0  0  0  0  0  0  0  0
    6.3540    0.8570   17.6030 N   0  0  0  0  0  0  0  0  0  0  0  0
    6.8170    0.3120   18.7210 C   0  0  0  0  0  0  0  0  0  0  0  0
    6.2790    0.4110   19.9280 C   0  0  0  0  0  0  0  0  0  0  0  0
    5.1090    1.1290   20.1610 C   0  0  0  0  0  0  0  0  0  0  0  0
    4.5620    1.7330   19.0350 C   0  0  0  0  0  0  0  0  0  0  0  0
    5.2310    1.5720   17.7400 C   0  0  0  0  0  0  0  0  0  0  0  0
   10.5860    0.7420   23.8670 C   0  0  0  0  0  0  0  0  0  0  0  0
   11.9580    0.8440   23.9050 C   0  0  0  0  0  0  0  0  0  0  0  0
   12.7710    0.0530   23.1580 C   0  0  0  0  0  0  0  0  0  0  0  0
   12.2430   -0.8900   22.3270 C   0  0  0  0  0  0  0  0  0  0  0  0
   10.9050   -1.0350   22.2450 C   0  0  0  0  0  0  0  0  0  0  0  0
   10.0170   -0.2740   22.9640 C   0  0  0  0  0  0  0  0  0  0  0  0
    6.9930   -4.7610   21.8930 N   0  0  0  0  0  0  0  0  0  0  0  0
    6.1990   -5.6000   22.5680 C   0  0  0  0  0  0  0  0  0  0  0  0
    6.1070   -5.1280   23.8820 C   0  0  0  0  0  0  0  0  0  0  0  0
    6.1750   -3.7270   24.0170 C   0  0  0  0  0  0  0  0  0  0  0  0
    7.4110   -3.2060   23.6220 C   0  0  0  0  0  0  0  0  0  0  0  0
    8.0230   -4.0560   22.7040 C   0  0  0  0  0  0  0  0  0  0  0  0
    7.8240   -4.2350   26.4110 C   0  0  0  0  0  0  0  0  0  0  0  0
    7.9240   -5.3460   27.2660 C   0  0  0  0  0  0  0  0  0  0  0  0
    7.4750   -5.2220   28.5760 C   0  0  0  0  0  0  0  0  0  0  0  0
    6.1120   -4.5590   28.7450 C   0  0  0  0  0  0  0  0  0  0  0  0
    5.9960   -3.3250   27.8530 C   0  0  0  0  0  0  0  0  0  0  0  0
    6.4720   -3.6250   26.5060 N   0  0  0  0  0  0  0  0  0  0  0  0
  2  5  2  0
  3  5  1  0
  5  6  1  0
  4  7  3  0
  8 10  1  0
  9 10  2  0
 11 12  2  0
  3 13  1  0
  8 14  1  0
 13 14  1  0
 15 16  2  0
  3 17  1  0
 16 17  1  0
  1 18  1  0
 17 18  2  0
 18 19  1  0
 15 20  1  0
 19 20  2  0
 21 22  2  0
 22 23  1  0
  7 24  1  0
 23 24  2  0
 24 25  1  0
  6 26  1  0
 21 26  1  0
 25 26  2  0
 10 27  1  0
 27 28  1  0
 28 29  1  0
 12 30  1  0
 29 30  1  0
 30 31  1  0
 27 32  1  0
 31 32  1  0
 33 34  1  0
 34 35  1  0
 35 36  1  0
 36 37  1  0
 12 38  1  0
 33 38  1  0
 37 38  1  0
M  END
