x2572-x1374
     RDKit          3D

 39 42  0  0  0  0  0  0  0  0999 V2000
   10.6350   -4.1740   25.9360 C   0  0  0  0  0  0  0  0  0  0  0  0
    6.5120   -4.8310   22.0040 N   0  0  0  0  0  0  0  0  0  0  0  0
    6.5250   -4.3960   20.6830 C   0  0  0  0  0  0  0  0  0  0  0  0
    5.5730   -4.6720   19.9520 O   0  0  0  0  0  0  0  0  0  0  0  0
    7.6970   -3.5390   20.2870 C   0  0  0  0  0  0  0  0  0  0  0  0
    2.4520   -6.7440   23.4450 O   0  0  0  0  0  0  0  0  0  0  0  0
    4.2750   -7.8300   24.8580 O   0  0  0  0  0  0  0  0  0  0  0  0
    4.9520    1.2840   21.6230 C   0  0  0  0  0  0  0  0  0  0  0  0
    8.9880    1.5030   21.2460 O   0  0  0  0  0  0  0  0  0  0  0  0
    7.3750   -0.1870   21.0870 N   0  0  0  0  0  0  0  0  0  0  0  0
   13.8770   -1.7930   20.5470 N   0  0  0  0  0  0  0  0  0  0  0  0
    8.3740    0.5340   21.7280 C   0  0  0  0  0  0  0  0  0  0  0  0
    8.5740   -0.0740   23.1350 C   0  0  0  0  0  0  0  0  0  0  0  0
   13.1350   -1.4710   21.5370 C   0  0  0  0  0  0  0  0  0  0  0  0
    7.2390   -2.0760   20.0840 C   0  0  0  0  0  0  0  0  0  0  0  0
    7.3590   -1.5090   21.3190 C   0  0  0  0  0  0  0  0  0  0  0  0
    9.5520   -4.3490   24.8930 C   0  0  0  0  0  0  0  0  0  0  0  0
    8.9860   -3.2680   24.3130 C   0  0  0  0  0  0  0  0  0  0  0  0
    7.9780   -3.3620   23.3500 C   0  0  0  0  0  0  0  0  0  0  0  0
    7.5770   -4.6400   23.0060 C   0  0  0  0  0  0  0  0  0  0  0  0
    8.1170   -5.8740   23.5580 C   0  0  0  0  0  0  0  0  0  0  0  0
    9.1620   -5.6490   24.5570 C   0  0  0  0  0  0  0  0  0  0  0  0
    4.9500   -4.4790   23.7760 C   0  0  0  0  0  0  0  0  0  0  0  0
    5.2000   -5.1310   22.5750 C   0  0  2  0  0  0  0  0  0  0  0  0
    4.9690   -6.4910   22.7020 C   0  0  0  0  0  0  0  0  0  0  0  0
    3.8110   -6.7670   23.9420 S   0  0  0  0  0  0  0  0  0  0  0  0
    4.1910   -5.2490   24.6460 C   0  0  0  0  0  0  0  0  0  0  0  0
    6.2720    0.5730   17.6700 N   0  0  0  0  0  0  0  0  0  0  0  0
    6.9300    0.1250   18.7410 C   0  0  0  0  0  0  0  0  0  0  0  0
    6.5840    0.3120   20.0470 C   0  0  0  0  0  0  0  0  0  0  0  0
    5.4220    1.0290   20.3020 C   0  0  0  0  0  0  0  0  0  0  0  0
    4.6990    1.5160   19.2180 C   0  0  0  0  0  0  0  0  0  0  0  0
    5.1630    1.2710   17.9270 C   0  0  0  0  0  0  0  0  0  0  0  0
   10.6300   -0.0550   24.6010 C   0  0  0  0  0  0  0  0  0  0  0  0
   12.0070   -0.2800   24.7830 C   0  0  0  0  0  0  0  0  0  0  0  0
   12.7810   -0.7420   23.7570 C   0  0  0  0  0  0  0  0  0  0  0  0
   12.3040   -1.0220   22.5190 C   0  0  0  0  0  0  0  0  0  0  0  0
   10.8510   -0.8290   22.2200 C   0  0  0  0  0  0  0  0  0  0  0  0
   10.0330   -0.3080   23.3710 C   0  0  0  0  0  0  0  0  0  0  0  0
  2  3  1  0
  3  4  2  0
  3  5  1  0
  9 12  2  0
 10 12  1  0
 12 13  1  0
 11 14  3  0
  5 15  1  0
 10 16  1  0
 15 16  1  0
  1 17  1  0
 17 18  2  0
 18 19  1  0
  2 20  1  0
 19 20  2  0
 20 21  1  0
 17 22  1  0
 21 22  2  0
 24  2  1  1
 23 24  1  0
 24 25  1  0
 26  6  1  0
  7 26  1  0
 25 26  1  0
 23 27  2  0
 26 27  1  0
 28 29  2  0
 10 30  1  0
 29 30  1  0
  8 31  1  0
 30 31  2  0
 31 32  1  0
 28 33  1  0
 32 33  2  0
 34 35  2  0
 35 36  1  0
 14 37  1  0
 36 37  2  0
 37 38  1  0
 13 39  1  0
 34 39  1  0
 38 39  2  0
M  END
