x2581-x1478
     RDKit          3D

 35 38  0  0  0  0  0  0  0  0999 V2000
    9.6790   -2.3400   23.8420 C   0  0  0  0  0  0  0  0  0  0  0  0
   10.4420   -1.3710   23.6000 O   0  0  0  0  0  0  0  0  0  0  0  0
   10.5490    3.3750   22.1110 N   0  0  0  0  0  0  0  0  0  0  0  0
   11.0420    3.6940   24.4140 O   0  0  0  0  0  0  0  0  0  0  0  0
   11.1510    4.0390   23.2670 C   0  0  0  0  0  0  0  0  0  0  0  0
   11.9120    5.2970   22.8870 C   0  0  0  0  0  0  0  0  0  0  0  0
    6.7020   -2.7290   21.5270 N   0  0  0  0  0  0  0  0  0  0  0  0
    7.8830   -3.5420   19.6420 C   0  0  0  0  0  0  0  0  0  0  0  0
    5.5830   -3.5700   19.5650 O   0  0  0  0  0  0  0  0  0  0  0  0
    6.3360   -5.9150   22.2100 Cl  0  0  0  0  0  0  0  0  0  0  0  0
    6.6240   -3.2610   20.2480 C   0  0  0  0  0  0  0  0  0  0  0  0
    9.0100   -2.8840   22.6090 C   0  0  0  0  0  0  0  0  0  0  0  0
    7.9750   -2.0310   21.8780 C   0  0  0  0  0  0  0  0  0  0  0  0
    8.9000    1.8000   21.3080 N   0  0  0  0  0  0  0  0  0  0  0  0
    9.9600    2.0160   22.1020 C   0  0  0  0  0  0  0  0  0  0  0  0
   10.5050    1.0080   22.8680 C   0  0  0  0  0  0  0  0  0  0  0  0
   10.0030   -0.2890   22.8870 C   0  0  0  0  0  0  0  0  0  0  0  0
    8.9470   -0.4950   22.0910 C   0  0  0  0  0  0  0  0  0  0  0  0
    8.4220    0.5470   21.3250 C   0  0  0  0  0  0  0  0  0  0  0  0
    9.9200    6.7920   22.8500 C   0  0  0  0  0  0  0  0  0  0  0  0
    9.1160    7.8950   23.3510 C   0  0  0  0  0  0  0  0  0  0  0  0
    9.6490    8.6370   24.4940 C   0  0  0  0  0  0  0  0  0  0  0  0
   10.8860    8.2600   25.0490 C   0  0  0  0  0  0  0  0  0  0  0  0
   11.6170    7.1820   24.5270 C   0  0  0  0  0  0  0  0  0  0  0  0
   11.1370    6.4520   23.4310 C   0  0  0  0  0  0  0  0  0  0  0  0
    8.9480    9.7230   25.0320 C   0  0  0  0  0  0  0  0  0  0  0  0
    9.4450   10.4430   26.1070 C   0  0  0  0  0  0  0  0  0  0  0  0
   10.6640   10.0610   26.6490 C   0  0  0  0  0  0  0  0  0  0  0  0
   11.3810    8.9860   26.1340 C   0  0  0  0  0  0  0  0  0  0  0  0
    4.8410   -4.7180   24.0070 N   0  0  0  0  0  0  0  0  0  0  0  0
    5.6800   -4.5000   22.9370 C   0  0  0  0  0  0  0  0  0  0  0  0
    5.8870   -3.1420   22.5860 C   0  0  0  0  0  0  0  0  0  0  0  0
    5.2870   -2.1000   23.2790 C   0  0  0  0  0  0  0  0  0  0  0  0
    4.4630   -2.3700   24.3370 C   0  0  0  0  0  0  0  0  0  0  0  0
    4.2660   -3.6950   24.6670 C   0  0  0  0  0  0  0  0  0  0  0  0
  1  2  1  0
  3  5  1  0
  4  5  2  0
  5  6  1  0
  7 11  1  0
  8 11  1  0
  9 11  2  0
  1 12  1  0
  7 13  1  0
 12 13  1  0
  3 15  1  0
 14 15  2  0
 15 16  1  0
  2 17  1  0
 16 17  2  0
 17 18  1  0
 14 19  1  0
 18 19  2  0
 20 21  2  0
 21 22  1  0
 22 23  2  0
 23 24  1  0
  6 25  1  0
 20 25  1  0
 24 25  2  0
 22 26  1  0
 26 27  2  0
 27 28  1  0
 23 29  1  0
 28 29  2  0
 10 31  1  0
 30 31  2  0
  7 32  1  0
 31 32  1  0
 32 33  2  0
 33 34  1  0
 30 35  1  0
 34 35  2  0
M  END
