x2581-x0831
     RDKit          3D

 37 42  0  0  0  0  0  0  0  0999 V2000
   10.1740   -2.4300   23.1650 C   0  0  0  0  0  0  0  0  0  0  0  0
    9.4190    3.2990   22.8520 N   0  0  0  0  0  0  0  0  0  0  0  0
   11.2850    2.9670   24.1300 O   0  0  0  0  0  0  0  0  0  0  0  0
   10.7610    3.7350   23.3650 C   0  0  0  0  0  0  0  0  0  0  0  0
   11.4640    5.0200   22.8830 C   0  0  0  0  0  0  0  0  0  0  0  0
   12.4040   -2.1700   21.5220 C   0  0  0  0  0  0  0  0  0  0  0  0
    4.9840   -4.4110   19.7720 O   0  0  0  0  0  0  0  0  0  0  0  0
    5.8890   -3.6040   19.9810 C   0  0  0  0  0  0  0  0  0  0  0  0
    6.9680   -2.9530   19.1410 C   0  0  0  0  0  0  0  0  0  0  0  0
    8.7490    1.4260   21.0190 N   0  0  0  0  0  0  0  0  0  0  0  0
    9.5960    2.0920   22.0810 C   0  0  2  0  0  0  0  0  0  0  0  0
   10.3070    1.1260   22.7160 C   0  0  0  0  0  0  0  0  0  0  0  0
    9.9370   -0.1690   22.7560 C   0  0  0  0  0  0  0  0  0  0  0  0
    8.8060   -0.7200   22.2110 C   0  0  2  0  0  0  0  0  0  0  0  0
    8.4440   -0.0760   21.0720 C   0  0  0  0  0  0  0  0  0  0  0  0
    9.6410    6.7090   22.8580 C   0  0  0  0  0  0  0  0  0  0  0  0
    9.0480    7.8400   23.3620 C   0  0  0  0  0  0  0  0  0  0  0  0
    9.5630    8.6410   24.4680 C   0  0  0  0  0  0  0  0  0  0  0  0
   10.8190    8.1140   25.0170 C   0  0  0  0  0  0  0  0  0  0  0  0
   11.4130    6.9580   24.4970 C   0  0  0  0  0  0  0  0  0  0  0  0
   10.8270    6.2600   23.4260 C   0  0  0  0  0  0  0  0  0  0  0  0
    8.9820    9.7900   24.9860 C   0  0  0  0  0  0  0  0  0  0  0  0
    9.6000   10.4290   26.0200 C   0  0  0  0  0  0  0  0  0  0  0  0
   10.7960    9.9750   26.5850 C   0  0  0  0  0  0  0  0  0  0  0  0
   11.3960    8.8220   26.0800 C   0  0  0  0  0  0  0  0  0  0  0  0
   12.0940   -1.1300   22.5480 C   0  0  0  0  0  0  0  0  0  0  0  0
   10.9400   -1.1290   23.3460 C   0  0  2  0  0  0  0  0  0  0  0  0
   11.3400   -1.0770   24.6250 C   0  0  0  0  0  0  0  0  0  0  0  0
   12.2400   -0.0930   24.8440 C   0  0  0  0  0  0  0  0  0  0  0  0
   12.5400    0.7280   23.7540 C   0  0  0  0  0  0  0  0  0  0  0  0
   12.9580   -0.0950   22.7690 C   0  0  0  0  0  0  0  0  0  0  0  0
    6.4400   -2.8800   21.2230 C   0  0  0  0  0  0  0  0  0  0  0  0
    6.1890   -1.4650   21.8870 C   0  0  0  0  0  0  0  0  0  0  0  0
    7.3430   -0.5050   22.3760 C   0  0  0  0  0  0  0  0  0  0  0  0
    9.0230   -2.1580   22.5290 N   0  0  0  0  0  0  0  0  0  0  0  0
    7.9650   -2.9220   23.1410 C   0  0  0  0  0  0  0  0  0  0  0  0
    7.3670   -3.6960   22.0370 C   0  0  0  0  0  0  0  0  0  0  0  0
  2  4  1  0
  3  4  2  0
  4  5  1  0
  7  8  2  0
  8  9  1  0
 11  2  1  1
 10 11  1  0
 11 12  1  0
 12 13  2  0
 13 14  1  0
 10 15  2  0
 14 15  1  6
 16 17  2  0
 17 18  1  0
 18 19  2  0
 19 20  1  0
  5 21  1  0
 16 21  1  0
 20 21  2  0
 18 22  1  0
 22 23  2  0
 23 24  1  0
 19 25  1  0
 24 25  2  0
  6 26  1  0
 27  1  1  1
 13 27  1  0
 27 26  1  0
 27 28  1  0
 28 29  2  0
 29 30  1  0
 26 31  2  0
 30 31  1  0
  8 32  1  0
 32 33  1  0
 14 34  1  0
 33 34  2  0
  1 35  1  0
 14 35  1  0
 35 36  1  0
 32 37  2  0
 36 37  1  0
M  END
