x2581-x0820
     RDKit          3D

 39 43  0  0  0  0  0  0  0  0999 V2000
    9.7870   -2.4660   23.6270 C   0  0  0  0  0  0  0  0  0  0  0  0
   10.4030   -1.1990   23.8150 O   0  0  0  0  0  0  0  0  0  0  0  0
   10.3570    3.3610   22.1420 N   0  0  0  0  0  0  0  0  0  0  0  0
   11.3230    3.3790   24.1280 O   0  0  0  0  0  0  0  0  0  0  0  0
   11.1640    3.9020   23.0680 C   0  0  0  0  0  0  0  0  0  0  0  0
   11.8480    5.2090   22.7220 C   0  0  0  0  0  0  0  0  0  0  0  0
    6.7980   -4.9910   21.7610 N   0  0  0  0  0  0  0  0  0  0  0  0
    7.5460   -2.6830   22.4620 C   0  0  0  0  0  0  0  0  0  0  0  0
    5.3370   -5.1760   20.0250 O   0  0  0  0  0  0  0  0  0  0  0  0
    7.3040   -4.1470   22.8350 C   0  0  1  0  0  0  0  0  0  0  0  0
    6.2790   -4.6040   20.5350 C   0  0  0  0  0  0  0  0  0  0  0  0
    6.9240   -3.4730   19.7370 C   0  0  0  0  0  0  0  0  0  0  0  0
    9.0450   -2.4210   22.2970 C   0  0  0  0  0  0  0  0  0  0  0  0
    8.9270    1.7790   21.3050 N   0  0  0  0  0  0  0  0  0  0  0  0
    9.9110    2.0510   22.1830 C   0  0  0  0  0  0  0  0  0  0  0  0
   10.4560    1.1140   23.0540 C   0  0  0  0  0  0  0  0  0  0  0  0
    9.9680   -0.1750   23.0240 C   0  0  0  0  0  0  0  0  0  0  0  0
    8.9520   -0.4810   22.1280 C   0  0  0  0  0  0  0  0  0  0  0  0
    8.4690    0.5130   21.3030 C   0  0  0  0  0  0  0  0  0  0  0  0
    9.8510    6.7410   22.8080 C   0  0  0  0  0  0  0  0  0  0  0  0
    9.1410    7.7960   23.3600 C   0  0  0  0  0  0  0  0  0  0  0  0
    9.6530    8.5090   24.4540 C   0  0  0  0  0  0  0  0  0  0  0  0
   10.9110    8.1310   24.9960 C   0  0  0  0  0  0  0  0  0  0  0  0
   11.6100    7.0590   24.4260 C   0  0  0  0  0  0  0  0  0  0  0  0
   11.0910    6.3570   23.3280 C   0  0  0  0  0  0  0  0  0  0  0  0
    8.9560    9.5840   25.0120 C   0  0  0  0  0  0  0  0  0  0  0  0
    9.4830   10.2870   26.0930 C   0  0  0  0  0  0  0  0  0  0  0  0
   10.7170    9.9180   26.6300 C   0  0  0  0  0  0  0  0  0  0  0  0
   11.4260    8.8470   26.0870 C   0  0  0  0  0  0  0  0  0  0  0  0
    6.3850   -4.2640   24.0330 C   0  0  0  0  0  0  0  0  0  0  0  0
    6.8930   -4.3580   25.3610 C   0  0  0  0  0  0  0  0  0  0  0  0
    5.9690   -4.4620   26.4290 C   0  0  0  0  0  0  0  0  0  0  0  0
    4.5890   -4.4740   26.1700 C   0  0  0  0  0  0  0  0  0  0  0  0
    4.1020   -4.3840   24.8690 C   0  0  0  0  0  0  0  0  0  0  0  0
    4.9900   -4.2800   23.8100 C   0  0  0  0  0  0  0  0  0  0  0  0
    6.4290   -4.5580   27.7550 C   0  0  0  0  0  0  0  0  0  0  0  0
    7.7890   -4.5540   28.0430 C   0  0  0  0  0  0  0  0  0  0  0  0
    8.7110   -4.4540   27.0200 C   0  0  0  0  0  0  0  0  0  0  0  0
    8.2700   -4.3560   25.6990 C   0  0  0  0  0  0  0  0  0  0  0  0
  1  2  1  0
  3  5  1  0
  4  5  2  0
  5  6  1  0
  7 10  1  0
 10  8  1  6
  7 11  1  0
  9 11  2  0
 11 12  1  0
  1 13  1  0
  8 13  1  0
  3 15  1  0
 14 15  2  0
 15 16  1  0
  2 17  1  0
 16 17  2  0
 17 18  1  0
 14 19  1  0
 18 19  2  0
 20 21  2  0
 21 22  1  0
 22 23  2  0
 23 24  1  0
  6 25  1  0
 20 25  1  0
 24 25  2  0
 22 26  1  0
 26 27  2  0
 27 28  1  0
 23 29  1  0
 28 29  2  0
 10 30  1  0
 30 31  2  0
 31 32  1  0
 32 33  2  0
 33 34  1  0
 30 35  1  0
 34 35  2  0
 32 36  1  0
 36 37  2  0
 37 38  1  0
 31 39  1  0
 38 39  2  0
M  END
