x2581-x0991
     RDKit          3D

 26 28  0  0  0  0  0  0  0  0999 V2000
   10.0930   -2.7380   23.6250 C   0  0  0  0  0  0  0  0  0  0  0  0
   10.0610   -1.5130   23.9830 O   0  0  0  0  0  0  0  0  0  0  0  0
   10.2660    3.1720   22.1400 N   0  0  0  0  0  0  0  0  0  0  0  0
   11.2800    3.1510   24.2040 O   0  0  0  0  0  0  0  0  0  0  0  0
   11.1400    3.7140   23.1700 C   0  0  0  0  0  0  0  0  0  0  0  0
   11.8340    5.0430   22.8220 C   0  0  0  0  0  0  0  0  0  0  0  0
   10.4420   -4.8740   25.3440 N   0  0  0  0  0  0  0  0  0  0  0  0
    8.8330   -3.5470   24.0410 C   0  0  0  0  0  0  0  0  0  0  0  0
    8.0330   -5.1610   25.9200 N   0  0  0  0  0  0  0  0  0  0  0  0
    9.1140   -4.5550   25.1240 C   0  0  0  0  0  0  0  0  0  0  0  0
    8.7580    1.4420   21.1510 N   0  0  0  0  0  0  0  0  0  0  0  0
    9.7470    1.8180   22.1430 C   0  0  0  0  0  0  0  0  0  0  0  0
   10.2100    0.7350   23.1610 C   0  0  0  0  0  0  0  0  0  0  0  0
    9.6400   -0.5620   23.0560 C   0  0  0  0  0  0  0  0  0  0  0  0
    8.7200   -0.8380   22.0840 C   0  0  0  0  0  0  0  0  0  0  0  0
    8.2580    0.0720   21.1510 C   0  0  0  0  0  0  0  0  0  0  0  0
    9.8930    6.6310   22.8520 C   0  0  0  0  0  0  0  0  0  0  0  0
    9.1820    7.7240   23.3460 C   0  0  0  0  0  0  0  0  0  0  0  0
    9.6830    8.4580   24.4130 C   0  0  0  0  0  0  0  0  0  0  0  0
   10.9670    8.1120   25.0570 C   0  0  0  0  0  0  0  0  0  0  0  0
   11.6440    6.9450   24.4750 C   0  0  0  0  0  0  0  0  0  0  0  0
   11.1110    6.2360   23.3990 C   0  0  0  0  0  0  0  0  0  0  0  0
    8.9860    9.5660   24.9100 C   0  0  0  0  0  0  0  0  0  0  0  0
    9.5130   10.3050   25.9850 C   0  0  0  0  0  0  0  0  0  0  0  0
   10.7110    9.9580   26.5680 C   0  0  0  0  0  0  0  0  0  0  0  0
   11.4470    8.8720   26.1230 C   0  0  0  0  0  0  0  0  0  0  0  0
  1  2  1  0
  3  5  1  0
  4  5  2  0
  5  6  1  0
  1  8  1  0
  7 10  2  3
  8 10  1  0
  9 10  1  0
  3 12  1  0
 11 12  2  0
 12 13  1  0
  2 14  1  0
 13 14  2  0
 14 15  1  0
 11 16  1  0
 15 16  2  0
 17 18  2  0
 18 19  1  0
 19 20  2  0
 20 21  1  0
  6 22  1  0
 17 22  1  0
 21 22  2  0
 19 23  1  0
 23 24  2  0
 24 25  1  0
 20 26  1  0
 25 26  2  0
M  END
