x2581-x3080
     RDKit          3D

 42 49  0  0  0  0  0  0  0  0999 V2000
    7.6960   -0.7270   21.1700 C   0  0  2  0  0  0  0  0  0  0  0  0
    7.1650   -1.3140   24.0500 O   0  0  0  0  0  0  0  0  0  0  0  0
    8.4640    0.1750   25.5920 O   0  0  0  0  0  0  0  0  0  0  0  0
    5.3310    0.9260   21.9840 C   0  0  0  0  0  0  0  0  0  0  0  0
    8.4110   -0.9000   24.6360 S   0  0  0  0  0  0  0  0  0  0  0  0
   10.3360   -1.5510   22.8700 C   0  0  0  0  0  0  0  0  0  0  0  0
   10.1400    2.9850   22.2850 N   0  0  0  0  0  0  0  0  0  0  0  0
   11.2830    3.1110   24.2360 O   0  0  0  0  0  0  0  0  0  0  0  0
   11.0630    3.6340   23.1960 C   0  0  0  0  0  0  0  0  0  0  0  0
   11.6810    4.9240   22.7670 C   0  0  0  0  0  0  0  0  0  0  0  0
    6.3060    0.4700   17.7480 N   0  0  0  0  0  0  0  0  0  0  0  0
    5.1770    1.2820   18.1160 C   0  0  0  0  0  0  0  0  0  0  0  0
    4.9010    1.3880   19.5970 C   0  0  0  0  0  0  0  0  0  0  0  0
    5.7020    0.7440   20.5410 C   0  0  0  0  0  0  0  0  0  0  0  0
    6.7840   -0.0220   20.1780 C   0  0  0  0  0  0  0  0  0  0  0  0
    7.0710   -0.1590   18.8200 C   0  0  0  0  0  0  0  0  0  0  0  0
   11.4140   -1.4350   24.8480 N   0  0  0  0  0  0  0  0  0  0  0  0
   10.6140   -2.4390   25.2950 C   0  0  0  0  0  0  0  0  0  0  0  0
   11.1350   -3.6200   25.8210 C   0  0  0  0  0  0  0  0  0  0  0  0
   12.5250   -3.7750   25.9060 C   0  0  0  0  0  0  0  0  0  0  0  0
   13.4570   -2.7360   25.4390 C   0  0  0  0  0  0  0  0  0  0  0  0
   12.7650   -1.5640   24.9050 C   0  0  0  0  0  0  0  0  0  0  0  0
    8.3740   -3.3930   25.7200 C   0  0  0  0  0  0  0  0  0  0  0  0
    8.8960   -4.5630   26.2330 C   0  0  0  0  0  0  0  0  0  0  0  0
   10.2620   -4.7760   26.3290 C   0  0  0  0  0  0  0  0  0  0  0  0
    9.1970   -2.3670   25.2700 C   0  0  0  0  0  0  0  0  0  0  0  0
    9.0940    1.0430   21.4800 C   0  0  2  0  0  0  0  0  0  0  0  0
   10.0950    1.5210   22.3160 C   0  0  2  0  0  0  0  0  0  0  0  0
   10.0670    0.8390   23.5200 C   0  0  0  0  0  0  0  0  0  0  0  0
    9.4170   -0.3850   23.2880 C   0  0  2  0  0  0  0  0  0  0  0  0
    8.4690   -0.1520   22.3190 C   0  0  1  0  0  0  0  0  0  0  0  0
    9.0830   -0.2560   21.1620 C   0  0  1  0  0  0  0  0  0  0  0  0
    9.7780    6.5840   22.8210 C   0  0  0  0  0  0  0  0  0  0  0  0
    9.1040    7.7020   23.3210 C   0  0  0  0  0  0  0  0  0  0  0  0
    9.6190    8.4510   24.3800 C   0  0  0  0  0  0  0  0  0  0  0  0
   10.9300    8.0870   25.0370 C   0  0  0  0  0  0  0  0  0  0  0  0
   11.5720    6.8470   24.4080 C   0  0  0  0  0  0  0  0  0  0  0  0
   10.9990    6.1480   23.3480 C   0  0  0  0  0  0  0  0  0  0  0  0
    8.9670    9.6720   24.9730 C   0  0  0  0  0  0  0  0  0  0  0  0
    9.5700   10.3670   26.0370 C   0  0  0  0  0  0  0  0  0  0  0  0
   10.7880    9.9850   26.6130 C   0  0  0  0  0  0  0  0  0  0  0  0
   11.4580    8.8300   26.0930 C   0  0  0  0  0  0  0  0  0  0  0  0
  2  5  2  0
  3  5  2  0
  7  9  1  0
  8  9  2  0
  9 10  1  0
 11 12  2  0
 12 13  1  0
  4 14  1  0
 13 14  2  0
  1 15  1  6
 14 15  1  0
 11 16  1  0
 15 16  2  0
 17 18  2  0
 18 19  1  0
 19 20  2  0
 20 21  1  0
 17 22  1  0
 21 22  2  0
 23 24  1  0
 19 25  1  0
 24 25  2  0
  5 26  1  0
 18 26  1  0
 23 26  2  0
 28  7  1  1
 27 28  1  1
 28 29  1  0
  5 30  1  0
 30  6  1  6
 29 30  1  0
  1 31  1  0
 27 31  1  0
 31 30  1  6
 32  1  1  6
 27 32  1  0
 31 32  1  0
 33 34  2  0
 34 35  1  0
 35 36  2  0
 36 37  1  0
 10 38  1  0
 33 38  1  0
 37 38  2  0
 35 39  1  0
 39 40  2  0
 40 41  1  0
 36 42  1  0
 41 42  2  0
M  END
