x2608-x3077
     RDKit          3D

 29 32  0  0  0  0  0  0  0  0999 V2000
    7.0490   -3.1570   19.1610 C   0  0  0  0  0  0  0  0  0  0  0  0
    5.4980   -4.7300   19.9920 O   0  0  0  0  0  0  0  0  0  0  0  0
   13.3480   -1.6250   21.3320 Cl  0  0  0  0  0  0  0  0  0  0  0  0
    6.4140   -3.9020   20.2640 C   0  0  0  0  0  0  0  0  0  0  0  0
    9.3920   -2.6120   24.6290 C   0  0  0  0  0  0  0  0  0  0  0  0
    8.6930   -1.4340   21.7030 N   0  0  0  0  0  0  0  0  0  0  0  0
    8.7380    1.0850   21.0340 O   0  0  0  0  0  0  0  0  0  0  0  0
    6.7960   -0.4720   20.8840 N   0  0  0  0  0  0  0  0  0  0  0  0
    8.1060   -0.2020   21.1860 C   0  0  0  0  0  0  0  0  0  0  0  0
   13.0480    1.3990   22.8410 C   0  0  0  0  0  0  0  0  0  0  0  0
    6.9190   -3.7240   21.5690 N   0  0  0  0  0  0  0  0  0  0  0  0
    7.3620   -4.7850   22.5390 C   0  0  0  0  0  0  0  0  0  0  0  0
    7.4710   -3.9910   23.8250 C   0  0  2  0  0  0  0  0  0  0  0  0
    6.4030   -3.1320   23.6450 C   0  0  0  0  0  0  0  0  0  0  0  0
    6.7030   -2.6360   22.4330 C   0  0  1  0  0  0  0  0  0  0  0  0
    8.6090   -3.0380   23.5680 N   0  0  0  0  0  0  0  0  0  0  0  0
    7.9040   -2.0070   22.8070 C   0  0  1  0  0  0  0  0  0  0  0  0
   10.4140   -0.3170   24.6250 C   0  0  0  0  0  0  0  0  0  0  0  0
   11.3420    0.5970   24.1270 C   0  0  0  0  0  0  0  0  0  0  0  0
   12.2280    0.2380   23.1490 C   0  0  0  0  0  0  0  0  0  0  0  0
   12.2800   -1.1170   22.5500 C   0  0  0  0  0  0  0  0  0  0  0  0
   11.3080   -2.0400   23.0850 C   0  0  0  0  0  0  0  0  0  0  0  0
   10.3940   -1.6200   24.1110 C   0  0  0  0  0  0  0  0  0  0  0  0
    6.1150    0.8400   17.5890 N   0  0  0  0  0  0  0  0  0  0  0  0
    6.6400    0.1860   18.6220 C   0  0  0  0  0  0  0  0  0  0  0  0
    6.1210    0.2510   19.9040 C   0  0  0  0  0  0  0  0  0  0  0  0
    5.0110    0.9960   20.1770 C   0  0  0  0  0  0  0  0  0  0  0  0
    4.3790    1.7230   19.1880 C   0  0  0  0  0  0  0  0  0  0  0  0
    4.9550    1.6260   17.9410 C   0  0  0  0  0  0  0  0  0  0  0  0
  1  4  1  0
  2  4  2  0
  6  9  1  0
  7  9  2  0
  8  9  1  0
  4 11  1  0
 11 12  1  0
 13 12  1  6
 13 14  1  0
 15 11  1  6
 14 15  1  0
  5 16  1  0
 13 16  1  0
 17  6  1  6
 15 17  1  0
 16 17  1  0
 18 19  2  0
 10 20  1  0
 19 20  1  0
  3 21  1  0
 20 21  2  0
 21 22  1  0
  5 23  1  0
 18 23  1  0
 22 23  2  0
 24 25  2  0
  8 26  1  0
 25 26  1  0
 26 27  2  0
 27 28  1  0
 24 29  1  0
 28 29  2  0
M  END
