x2600-x2569
     RDKit          3D

 18 19  0  0  0  0  0  0  0  0999 V2000
   13.9250   -1.5900   20.4740 N   0  0  0  0  0  0  0  0  0  0  0  0
    8.3970    0.3300   21.7730 C   0  0  0  0  0  0  0  0  0  0  0  0
    9.0270    1.3080   21.3230 O   0  0  0  0  0  0  0  0  0  0  0  0
    8.6970   -0.2800   23.1320 C   0  0  0  0  0  0  0  0  0  0  0  0
    7.3160   -0.3530   21.1300 N   0  0  0  0  0  0  0  0  0  0  0  0
   13.1340   -1.3670   21.5910 C   0  0  0  0  0  0  0  0  0  0  0  0
    6.2400    0.6540   17.6020 N   0  0  0  0  0  0  0  0  0  0  0  0
    6.8680    0.1290   18.6690 C   0  0  0  0  0  0  0  0  0  0  0  0
    6.5570    0.2320   20.1700 C   0  0  0  0  0  0  0  0  0  0  0  0
    5.3960    1.0150   20.4300 C   0  0  0  0  0  0  0  0  0  0  0  0
    4.6510    1.6320   19.2400 C   0  0  0  0  0  0  0  0  0  0  0  0
    5.1570    1.3980   17.8450 C   0  0  0  0  0  0  0  0  0  0  0  0
   10.7120   -0.2300   24.6480 C   0  0  0  0  0  0  0  0  0  0  0  0
   12.1840   -0.4060   24.9130 C   0  0  0  0  0  0  0  0  0  0  0  0
   12.9120   -0.7890   23.8370 C   0  0  0  0  0  0  0  0  0  0  0  0
   12.3190   -0.9940   22.6250 C   0  0  0  0  0  0  0  0  0  0  0  0
   10.9690   -0.8490   22.3560 C   0  0  0  0  0  0  0  0  0  0  0  0
   10.1600   -0.4570   23.3870 C   0  0  0  0  0  0  0  0  0  0  0  0
  2  3  2  0
  2  4  1  0
  2  5  1  0
  1  6  3  0
  7  8  2  0
  5  9  1  0
  8  9  1  0
  9 10  2  0
 10 11  1  0
  7 12  1  0
 11 12  2  0
 13 14  2  0
 14 15  1  0
  6 16  1  0
 15 16  2  0
 16 17  1  0
  4 18  1  0
 13 18  1  0
 17 18  2  0
M  END
