x2600-x0731-x0771-x2705-x3117
     RDKit          3D

 53 59  0  0  0  0  0  0  0  0999 V2000
    6.8310   -1.3960   21.9820 N   0  0  0  0  0  0  0  0  0  0  0  0
    6.7900   -4.4620   20.2960 C   0  0  2  0  0  0  0  0  0  0  0  0
    4.7480   -2.9630   21.3560 O   0  0  0  0  0  0  0  0  0  0  0  0
    6.9080   -3.7340   21.5150 C   0  0  2  0  0  0  0  0  0  0  0  0
    7.5100    2.0090   22.8740 N   0  0  0  0  0  0  0  0  0  0  0  0
    8.6200    1.1760   21.0590 O   0  0  0  0  0  0  0  0  0  0  0  0
    6.0250   -2.6270   21.6220 C   0  0  0  0  0  0  0  0  0  0  0  0
    6.5060    0.0280   21.6010 C   0  0  1  0  0  0  0  0  0  0  0  0
    7.6490    1.1020   21.8300 C   0  0  0  0  0  0  0  0  0  0  0  0
   10.1420    2.0800   23.9940 C   0  0  0  0  0  0  0  0  0  0  0  0
    9.2800    1.2510   24.9480 C   0  0  0  0  0  0  0  0  0  0  0  0
    6.1600    4.5980   21.9050 C   0  0  0  0  0  0  0  0  0  0  0  0
   11.9520   -1.5040   23.3090 C   0  0  2  0  0  0  0  0  0  0  0  0
   12.4940   -0.1940   23.9290 C   0  0  0  0  0  0  0  0  0  0  0  0
   12.4450   -2.7410   24.0980 C   0  0  0  0  0  0  0  0  0  0  0  0
   12.6860   -1.6680   21.9460 C   0  0  0  0  0  0  0  0  0  0  0  0
   13.4230   -2.5700   25.2380 C   0  0  0  0  0  0  0  0  0  0  0  0
    5.5420   -4.3990   19.6370 O   0  0  0  0  0  0  0  0  0  0  0  0
    0.5080   -1.4130   26.2790 C   0  0  0  0  0  0  0  0  0  0  0  0
    4.4280   -6.8680   25.5590 O   0  0  0  0  0  0  0  0  0  0  0  0
    5.9840   -5.2030   26.6080 O   0  0  0  0  0  0  0  0  0  0  0  0
    1.8880   -6.0390   24.9540 C   0  0  0  0  0  0  0  0  0  0  0  0
    4.9850   -5.5360   25.6280 S   0  0  0  0  0  0  0  0  0  0  0  0
   13.3190   -1.8060   20.9790 N   0  0  0  0  0  0  0  0  0  0  0  0
    6.3120    0.3370   17.8740 N   0  0  0  0  0  0  0  0  0  0  0  0
    5.1590    1.0070   17.7960 C   0  0  0  0  0  0  0  0  0  0  0  0
    4.3630    1.3770   18.8690 C   0  0  0  0  0  0  0  0  0  0  0  0
    4.7900    1.0450   20.1200 C   0  0  0  0  0  0  0  0  0  0  0  0
    5.9830    0.3650   20.2440 C   0  0  0  0  0  0  0  0  0  0  0  0
    6.7160    0.0180   19.1070 C   0  0  0  0  0  0  0  0  0  0  0  0
    9.5830   -1.5490   24.2510 N   0  0  0  0  0  0  0  0  0  0  0  0
    8.2810   -1.5270   23.9440 N   0  0  0  0  0  0  0  0  0  0  0  0
    8.1500   -1.4590   22.6070 C   0  0  0  0  0  0  0  0  0  0  0  0
    9.4980   -1.4420   22.0630 C   0  0  0  0  0  0  0  0  0  0  0  0
   10.4090   -1.4980   23.1770 C   0  0  0  0  0  0  0  0  0  0  0  0
    9.4260    3.3310   23.5160 C   0  0  0  0  0  0  0  0  0  0  0  0
   10.1030    4.5430   23.6400 C   0  0  0  0  0  0  0  0  0  0  0  0
    9.4870    5.7380   23.2030 C   0  0  0  0  0  0  0  0  0  0  0  0
    8.2090    5.7190   22.6460 C   0  0  0  0  0  0  0  0  0  0  0  0
    7.5260    4.5040   22.5210 C   0  0  0  0  0  0  0  0  0  0  0  0
    8.1210    3.2950   22.9560 C   0  0  0  0  0  0  0  0  0  0  0  0
    1.5970   -2.4300   26.1120 C   0  0  0  0  0  0  0  0  0  0  0  0
    1.3340   -3.7150   25.6400 C   0  0  0  0  0  0  0  0  0  0  0  0
    2.3140   -4.6950   25.4740 C   0  0  0  0  0  0  0  0  0  0  0  0
    3.6490   -4.3800   25.7980 C   0  0  0  0  0  0  0  0  0  0  0  0
    3.9510   -3.0860   26.2760 C   0  0  0  0  0  0  0  0  0  0  0  0
    2.9220   -2.1400   26.4230 C   0  0  0  0  0  0  0  0  0  0  0  0
    6.8440   -5.3050   21.4960 C   0  0  1  0  0  0  0  0  0  0  0  0
    5.7730   -6.2850   21.9600 C   0  0  0  0  0  0  0  0  0  0  0  0
    4.8330   -5.6210   22.8980 C   0  0  0  0  0  0  0  0  0  0  0  0
    5.5500   -5.0850   24.0870 N   0  0  0  0  0  0  0  0  0  0  0  0
    7.0110   -4.7640   23.9650 C   0  0  0  0  0  0  0  0  0  0  0  0
    7.5230   -4.5420   22.5710 C   0  0  2  0  0  0  0  0  0  0  0  0
  2  4  1  0
  1  7  1  0
  3  7  2  0
  4  7  1  1
  1  8  1  0
  5  9  1  0
  6  9  2  0
  8  9  1  6
 10 11  1  0
 13 14  1  1
 13 15  1  0
 13 16  1  0
 15 17  1  0
  2 18  1  1
 20 23  2  0
 21 23  2  0
 16 24  3  0
 25 26  2  0
 26 27  1  0
 27 28  2  0
  8 29  1  0
 28 29  1  0
 25 30  1  0
 29 30  2  0
 31 32  1  0
  1 33  1  0
 32 33  1  0
 33 34  2  0
 13 35  1  0
 31 35  2  0
 34 35  1  0
 10 36  1  0
 36 37  2  0
 37 38  1  0
 38 39  2  0
 12 40  1  0
 39 40  1  0
  5 41  1  0
 36 41  1  0
 40 41  2  0
 19 42  1  0
 42 43  2  0
 22 44  1  0
 43 44  1  0
 23 45  1  0
 44 45  2  0
 45 46  1  0
 42 47  1  0
 46 47  2  0
  2 48  1  0
  4 48  1  0
 48 49  1  1
 49 50  1  0
 23 51  1  0
 50 51  1  0
 51 52  1  0
  4 53  1  0
 48 53  1  0
 53 52  1  1
M  END
