x2600-x2705-x0691-x2643
     RDKit          3D

 51 56  0  0  0  0  0  0  0  0999 V2000
    6.8970   -1.4290   21.8670 N   0  0  0  0  0  0  0  0  0  0  0  0
    6.6800   -4.5410   20.3550 C   0  0  2  0  0  0  0  0  0  0  0  0
    4.7710   -2.9370   21.2440 O   0  0  0  0  0  0  0  0  0  0  0  0
    6.8640   -3.8060   21.6240 C   0  0  1  0  0  0  0  0  0  0  0  0
    7.4890    1.9950   22.8580 N   0  0  0  0  0  0  0  0  0  0  0  0
    8.6580    1.2070   21.0550 O   0  0  0  0  0  0  0  0  0  0  0  0
    6.0490   -2.6540   21.5580 C   0  0  0  0  0  0  0  0  0  0  0  0
    6.5510    0.0070   21.5400 C   0  0  1  0  0  0  0  0  0  0  0  0
    7.6720    1.1130   21.8090 C   0  0  0  0  0  0  0  0  0  0  0  0
   10.1460    2.0690   23.9910 C   0  0  0  0  0  0  0  0  0  0  0  0
    9.2960    1.2340   24.9420 C   0  0  0  0  0  0  0  0  0  0  0  0
    6.1530    4.5460   21.8880 C   0  0  0  0  0  0  0  0  0  0  0  0
   11.9850   -1.5270   23.3080 C   0  0  0  0  0  0  0  0  0  0  0  0
   12.4710   -0.1840   23.9050 C   0  0  0  0  0  0  0  0  0  0  0  0
   12.4860   -2.6150   24.2820 C   0  0  0  0  0  0  0  0  0  0  0  0
   12.7240   -1.7270   21.9710 C   0  0  0  0  0  0  0  0  0  0  0  0
    5.4590   -4.3500   19.6440 O   0  0  0  0  0  0  0  0  0  0  0  0
    4.1410   -6.8600   25.8510 O   0  0  0  0  0  0  0  0  0  0  0  0
    5.7840   -5.1610   26.7250 O   0  0  0  0  0  0  0  0  0  0  0  0
    3.1870   -0.5990   25.9920 F   0  0  0  0  0  0  0  0  0  0  0  0
    4.7900   -5.5710   25.7590 S   0  0  0  0  0  0  0  0  0  0  0  0
   13.3270   -1.8610   20.9850 N   0  0  0  0  0  0  0  0  0  0  0  0
    6.3140    0.4340   17.7960 N   0  0  0  0  0  0  0  0  0  0  0  0
    5.1900    1.1780   17.7620 C   0  0  0  0  0  0  0  0  0  0  0  0
    4.4480    1.5600   18.8480 C   0  0  0  0  0  0  0  0  0  0  0  0
    4.9110    1.1500   20.0740 C   0  0  0  0  0  0  0  0  0  0  0  0
    6.0780    0.3870   20.1750 C   0  0  0  0  0  0  0  0  0  0  0  0
    6.7350    0.0520   19.0080 C   0  0  0  0  0  0  0  0  0  0  0  0
    9.6040   -1.6290   24.2250 N   0  0  0  0  0  0  0  0  0  0  0  0
    8.2980   -1.6120   23.9050 N   0  0  0  0  0  0  0  0  0  0  0  0
    8.1890   -1.4990   22.5750 C   0  0  0  0  0  0  0  0  0  0  0  0
    9.5510   -1.4480   22.0650 C   0  0  0  0  0  0  0  0  0  0  0  0
   10.4430   -1.5320   23.1590 C   0  0  0  0  0  0  0  0  0  0  0  0
    9.4280    3.3090   23.5140 C   0  0  0  0  0  0  0  0  0  0  0  0
   10.0960    4.5450   23.6350 C   0  0  0  0  0  0  0  0  0  0  0  0
    9.4970    5.7250   23.2070 C   0  0  0  0  0  0  0  0  0  0  0  0
    8.2220    5.6840   22.6470 C   0  0  0  0  0  0  0  0  0  0  0  0
    7.5220    4.4660   22.5100 C   0  0  0  0  0  0  0  0  0  0  0  0
    8.1280    3.2650   22.9520 C   0  0  0  0  0  0  0  0  0  0  0  0
    2.8540   -1.8890   25.8860 C   0  0  0  0  0  0  0  0  0  0  0  0
    3.9050   -2.8970   25.8790 C   0  0  0  0  0  0  0  0  0  0  0  0
    3.5250   -4.3290   25.7630 C   0  0  0  0  0  0  0  0  0  0  0  0
    2.1790   -4.6800   25.6590 C   0  0  0  0  0  0  0  0  0  0  0  0
    1.1180   -3.5790   25.6710 C   0  0  0  0  0  0  0  0  0  0  0  0
    1.5070   -2.2420   25.7850 C   0  0  0  0  0  0  0  0  0  0  0  0
    6.5220   -5.2800   21.7150 C   0  0  0  0  0  0  0  0  0  0  0  0
    5.2320   -5.7430   21.9110 C   0  0  0  0  0  0  0  0  0  0  0  0
    4.8340   -6.2260   23.1370 C   0  0  0  0  0  0  0  0  0  0  0  0
    5.4410   -5.4100   24.1910 N   0  0  0  0  0  0  0  0  0  0  0  0
    6.9340   -5.3210   24.0710 C   0  0  0  0  0  0  0  0  0  0  0  0
    7.4460   -5.7300   22.8150 C   0  0  0  0  0  0  0  0  0  0  0  0
  2  4  1  0
  1  7  1  0
  3  7  2  0
  4  7  1  1
  1  8  1  0
  5  9  1  0
  6  9  2  0
  8  9  1  6
 10 11  1  0
 13 14  1  0
 13 15  1  0
 13 16  1  0
  2 17  1  1
 18 21  2  0
 19 21  2  0
 16 22  3  0
 23 24  2  0
 24 25  1  0
 25 26  2  0
  8 27  1  0
 26 27  1  0
 23 28  1  0
 27 28  2  0
 29 30  1  0
  1 31  1  0
 30 31  1  0
 31 32  2  0
 13 33  1  0
 29 33  2  0
 32 33  1  0
 10 34  1  0
 34 35  2  0
 35 36  1  0
 36 37  2  0
 12 38  1  0
 37 38  1  0
  5 39  1  0
 34 39  1  0
 38 39  2  0
 20 40  1  0
 40 41  2  0
 21 42  1  0
 41 42  1  0
 42 43  2  0
 43 44  1  0
 40 45  1  0
 44 45  2  0
  2 46  1  0
  4 46  1  0
 46 47  1  0
 47 48  1  0
 21 49  1  0
 48 49  1  0
 49 50  1  0
 46 51  1  0
 50 51  1  0
M  END
