x2600-x0820
     RDKit          3D

 35 38  0  0  0  0  0  0  0  0999 V2000
    6.6800   -4.7740   21.8050 N   0  0  0  0  0  0  0  0  0  0  0  0
    7.0670   -2.6110   22.3010 C   0  0  0  0  0  0  0  0  0  0  0  0
    5.3780   -5.0710   20.0340 O   0  0  0  0  0  0  0  0  0  0  0  0
    7.1730   -4.0050   22.8520 C   0  0  1  0  0  0  0  0  0  0  0  0
    6.3280   -4.4160   20.5260 C   0  0  0  0  0  0  0  0  0  0  0  0
    6.9890   -3.4210   19.6500 C   0  0  0  0  0  0  0  0  0  0  0  0
   14.0400   -1.4480   20.3590 N   0  0  0  0  0  0  0  0  0  0  0  0
    8.2990    0.2340   21.7180 C   0  0  0  0  0  0  0  0  0  0  0  0
    8.9450    1.2390   21.3580 O   0  0  0  0  0  0  0  0  0  0  0  0
    8.6840   -0.6140   22.9460 C   0  0  1  0  0  0  0  0  0  0  0  0
    7.1660   -0.2540   21.0750 N   0  0  0  0  0  0  0  0  0  0  0  0
   13.2620   -1.2940   21.5240 C   0  0  0  0  0  0  0  0  0  0  0  0
    8.4550   -1.9060   22.0980 C   0  0  0  0  0  0  0  0  0  0  0  0
    6.3140   -4.2130   24.0830 C   0  0  0  0  0  0  0  0  0  0  0  0
    6.8290   -4.2990   25.3630 C   0  0  0  0  0  0  0  0  0  0  0  0
    5.9790   -4.4850   26.4130 C   0  0  0  0  0  0  0  0  0  0  0  0
    4.5600   -4.6030   26.3180 C   0  0  0  0  0  0  0  0  0  0  0  0
    4.0690   -4.5130   25.0120 C   0  0  0  0  0  0  0  0  0  0  0  0
    4.9510   -4.3150   23.8670 C   0  0  0  0  0  0  0  0  0  0  0  0
    6.4880   -4.5760   27.7280 C   0  0  0  0  0  0  0  0  0  0  0  0
    7.8520   -4.4890   28.0400 C   0  0  0  0  0  0  0  0  0  0  0  0
    8.7010   -4.2990   26.9530 C   0  0  0  0  0  0  0  0  0  0  0  0
    8.2160   -4.2040   25.6470 C   0  0  0  0  0  0  0  0  0  0  0  0
    6.2740    0.6430   17.6640 N   0  0  0  0  0  0  0  0  0  0  0  0
    6.8560    0.1290   18.7540 C   0  0  0  0  0  0  0  0  0  0  0  0
    6.4100    0.3720   20.0210 C   0  0  0  0  0  0  0  0  0  0  0  0
    5.3090    1.1700   20.2070 C   0  0  0  0  0  0  0  0  0  0  0  0
    4.6680    1.7270   19.1080 C   0  0  0  0  0  0  0  0  0  0  0  0
    5.2020    1.4280   17.8590 C   0  0  0  0  0  0  0  0  0  0  0  0
   10.6400   -0.2810   24.5930 C   0  0  0  0  0  0  0  0  0  0  0  0
   12.0280   -0.3290   24.7970 C   0  0  0  0  0  0  0  0  0  0  0  0
   12.8960   -0.6670   23.7840 C   0  0  0  0  0  0  0  0  0  0  0  0
   12.4180   -0.9720   22.5450 C   0  0  0  0  0  0  0  0  0  0  0  0
   11.1000   -0.9620   22.2660 C   0  0  0  0  0  0  0  0  0  0  0  0
   10.1360   -0.5980   23.3280 C   0  0  0  0  0  0  0  0  0  0  0  0
  1  4  1  0
  4  2  1  6
  1  5  1  0
  3  5  2  0
  5  6  1  0
  8  9  2  0
  8 10  1  0
  8 11  1  0
  7 12  3  0
  2 13  1  0
 10 13  1  6
  4 14  1  0
 14 15  2  0
 15 16  1  0
 16 17  2  0
 17 18  1  0
 14 19  1  0
 18 19  2  0
 16 20  1  0
 20 21  2  0
 21 22  1  0
 15 23  1  0
 22 23  2  0
 24 25  2  0
 11 26  1  0
 25 26  1  0
 26 27  2  0
 27 28  1  0
 24 29  1  0
 28 29  2  0
 30 31  2  0
 31 32  1  0
 12 33  1  0
 32 33  2  0
 33 34  1  0
 10 35  1  0
 30 35  1  0
 34 35  2  0
M  END
