x2608-x1478
     RDKit          3D

 28 30  0  0  0  0  0  0  0  0999 V2000
    8.8770   -0.4900   22.5550 N   0  0  0  0  0  0  0  0  0  0  0  0
   12.9710    2.5370   22.7230 C   0  0  0  0  0  0  0  0  0  0  0  0
    8.6220    1.5130   21.0560 O   0  0  0  0  0  0  0  0  0  0  0  0
    7.3800   -0.6190   20.8630 N   0  0  0  0  0  0  0  0  0  0  0  0
    8.2860    0.1950   21.4580 C   0  0  0  0  0  0  0  0  0  0  0  0
    6.2380   -2.7410   21.2750 N   0  0  0  0  0  0  0  0  0  0  0  0
    7.4490   -3.6210   19.5040 C   0  0  0  0  0  0  0  0  0  0  0  0
    5.1380   -3.7320   19.4700 O   0  0  0  0  0  0  0  0  0  0  0  0
    6.1230   -5.8700   22.2570 Cl  0  0  0  0  0  0  0  0  0  0  0  0
    6.1570   -3.3510   20.0860 C   0  0  0  0  0  0  0  0  0  0  0  0
    7.3720   -1.8880   21.4040 C   0  0  0  0  0  0  0  0  0  0  0  0
   12.1090    1.3410   22.8470 C   0  0  0  0  0  0  0  0  0  0  0  0
   12.5220   -0.0990   23.1820 C   0  0  0  0  0  0  0  0  0  0  0  0
   11.3430   -0.8180   23.1020 C   0  0  0  0  0  0  0  0  0  0  0  0
   10.2190   -0.1190   22.7770 C   0  0  0  0  0  0  0  0  0  0  0  0
   10.4610    1.5230   22.5720 S   0  0  0  0  0  0  0  0  0  0  0  0
    6.1360    0.4090   17.9370 N   0  0  0  0  0  0  0  0  0  0  0  0
    6.9710   -0.1900   19.0040 C   0  0  0  0  0  0  0  0  0  0  0  0
    6.3580   -0.0210   20.2280 C   0  0  0  0  0  0  0  0  0  0  0  0
    5.1240    0.5890   20.5300 C   0  0  0  0  0  0  0  0  0  0  0  0
    4.3880    1.1220   19.5030 C   0  0  0  0  0  0  0  0  0  0  0  0
    4.9660    1.0060   18.1790 C   0  0  0  0  0  0  0  0  0  0  0  0
    4.8740   -4.7340   24.1230 N   0  0  0  0  0  0  0  0  0  0  0  0
    5.4990   -4.4420   22.9750 C   0  0  0  0  0  0  0  0  0  0  0  0
    5.6290   -3.0760   22.4160 C   0  0  0  0  0  0  0  0  0  0  0  0
    5.0720   -2.0210   23.1400 C   0  0  0  0  0  0  0  0  0  0  0  0
    4.4190   -2.2970   24.3400 C   0  0  0  0  0  0  0  0  0  0  0  0
    4.3020   -3.5530   24.8350 C   0  0  0  0  0  0  0  0  0  0  0  0
  1  5  1  0
  3  5  2  0
  4  5  1  0
  6 10  1  0
  7 10  1  0
  8 10  2  0
  4 11  1  0
  6 11  1  0
  2 12  1  0
 12 13  2  0
 13 14  1  0
  1 15  1  0
 14 15  2  0
 12 16  1  0
 15 16  1  0
 17 18  2  0
  4 19  1  0
 18 19  1  0
 19 20  2  0
 20 21  1  0
 17 22  1  0
 21 22  2  0
  9 24  1  0
 23 24  2  0
  6 25  1  0
 24 25  1  0
 25 26  2  0
 26 27  1  0
 23 28  1  0
 27 28  2  0
M  END
