x2608-x1348
     RDKit          3D

 32 35  0  0  0  0  0  0  0  0999 V2000
    6.9380   -3.7980   21.4350 N   0  0  0  0  0  0  0  0  0  0  0  0
    7.5720   -5.5990   27.6920 C   0  0  0  0  0  0  0  0  0  0  0  0
    7.1860   -4.9080   26.7300 O   0  0  0  0  0  0  0  0  0  0  0  0
    5.2830   -4.4060   19.8620 O   0  0  0  0  0  0  0  0  0  0  0  0
    6.3600   -3.8470   20.1860 C   0  0  0  0  0  0  0  0  0  0  0  0
    7.2100   -3.1830   19.2230 C   0  0  0  0  0  0  0  0  0  0  0  0
    8.6270   -1.0560   22.2930 N   0  0  0  0  0  0  0  0  0  0  0  0
   13.0230    1.6660   22.9230 C   0  0  0  0  0  0  0  0  0  0  0  0
    7.9140    0.9780   21.5460 O   0  0  0  0  0  0  0  0  0  0  0  0
    6.9450   -0.9560   20.5720 N   0  0  0  0  0  0  0  0  0  0  0  0
    7.8250   -0.2500   21.5000 C   0  0  0  0  0  0  0  0  0  0  0  0
    7.7380   -1.8560   19.7830 C   0  0  0  0  0  0  0  0  0  0  0  0
    6.2010   -5.5190   25.9820 C   0  0  0  0  0  0  0  0  0  0  0  0
    5.9960   -5.3700   24.6240 C   0  0  0  0  0  0  0  0  0  0  0  0
    5.0210   -5.9830   23.8900 C   0  0  0  0  0  0  0  0  0  0  0  0
    4.1390   -6.8410   24.5510 C   0  0  0  0  0  0  0  0  0  0  0  0
    4.3290   -6.9890   25.8950 C   0  0  0  0  0  0  0  0  0  0  0  0
    5.3440   -6.3450   26.6270 C   0  0  0  0  0  0  0  0  0  0  0  0
    6.8910   -4.4850   23.9300 N   0  0  0  0  0  0  0  0  0  0  0  0
    6.4130   -4.5330   22.5630 C   0  0  0  0  0  0  0  0  0  0  0  0
    5.0960   -5.5390   22.2300 S   0  0  0  0  0  0  0  0  0  0  0  0
   12.0500    0.5800   22.7970 C   0  0  0  0  0  0  0  0  0  0  0  0
   12.2570   -0.8580   22.7850 C   0  0  0  0  0  0  0  0  0  0  0  0
   11.0540   -1.5070   22.6110 C   0  0  0  0  0  0  0  0  0  0  0  0
    9.9830   -0.6240   22.5040 C   0  0  0  0  0  0  0  0  0  0  0  0
   10.4140    0.9980   22.6260 S   0  0  0  0  0  0  0  0  0  0  0  0
    5.9510    0.9420   17.6480 N   0  0  0  0  0  0  0  0  0  0  0  0
    6.7150    0.0500   18.5040 C   0  0  0  0  0  0  0  0  0  0  0  0
    6.2560   -0.1570   19.7550 C   0  0  0  0  0  0  0  0  0  0  0  0
    5.1080    0.4100   20.2860 C   0  0  0  0  0  0  0  0  0  0  0  0
    4.3960    1.2560   19.4650 C   0  0  0  0  0  0  0  0  0  0  0  0
    4.8460    1.4980   18.1710 C   0  0  0  0  0  0  0  0  0  0  0  0
  2  3  1  0
  1  5  1  0
  4  5  2  0
  5  6  1  0
  7 11  1  0
  9 11  2  0
 10 11  1  0
  6 12  1  0
 10 12  1  0
  3 13  1  0
 13 14  2  0
 14 15  1  0
 15 16  2  0
 16 17  1  0
 13 18  1  0
 17 18  2  0
 14 19  1  0
  1 20  1  0
 19 20  2  0
 15 21  1  0
 20 21  1  0
  8 22  1  0
 22 23  2  0
 23 24  1  0
  7 25  1  0
 24 25  2  0
 22 26  1  0
 25 26  1  0
 27 28  2  0
 10 29  1  0
 28 29  1  0
 29 30  2  0
 30 31  1  0
 27 32  1  0
 31 32  2  0
M  END
