x2600-x0759
     RDKit          3D

 27 30  0  0  0  0  0  0  0  0999 V2000
   13.7960   -3.1210   20.5280 N   0  0  0  0  0  0  0  0  0  0  0  0
    8.0400    0.2430   21.8350 C   0  0  0  0  0  0  0  0  0  0  0  0
    8.4080    1.4280   21.8980 O   0  0  0  0  0  0  0  0  0  0  0  0
    8.9280   -0.8900   22.1740 C   0  0  1  0  0  0  0  0  0  0  0  0
    6.7990   -0.3860   21.4120 N   0  0  0  0  0  0  0  0  0  0  0  0
   13.2610   -2.1580   21.4450 C   0  0  0  0  0  0  0  0  0  0  0  0
    5.3150   -4.3870   19.8510 O   0  0  0  0  0  0  0  0  0  0  0  0
    6.1600   -3.4850   20.0920 C   0  0  0  0  0  0  0  0  0  0  0  0
    7.0930   -3.0500   19.0200 C   0  0  0  0  0  0  0  0  0  0  0  0
    6.2990    0.6400   17.6580 N   0  0  0  0  0  0  0  0  0  0  0  0
    6.8780    0.0140   18.8440 C   0  0  0  0  0  0  0  0  0  0  0  0
    6.2570    0.1710   20.1890 C   0  0  0  0  0  0  0  0  0  0  0  0
    5.1100    0.9270   20.1860 C   0  0  0  0  0  0  0  0  0  0  0  0
    4.5830    1.5010   19.0560 C   0  0  0  0  0  0  0  0  0  0  0  0
    5.1590    1.3790   17.7810 C   0  0  0  0  0  0  0  0  0  0  0  0
   10.6990    0.3620   23.6990 C   0  0  0  0  0  0  0  0  0  0  0  0
   12.0700    0.4640   23.9670 C   0  0  0  0  0  0  0  0  0  0  0  0
   12.9580   -0.3390   23.2610 C   0  0  0  0  0  0  0  0  0  0  0  0
   12.5370   -1.2970   22.2440 C   0  0  0  0  0  0  0  0  0  0  0  0
   11.1630   -1.3810   22.0010 C   0  0  0  0  0  0  0  0  0  0  0  0
   10.2810   -0.6270   22.6490 C   0  0  0  0  0  0  0  0  0  0  0  0
    6.2540   -2.8870   21.3720 N   0  0  0  0  0  0  0  0  0  0  0  0
    7.2210   -1.7740   21.5170 C   0  0  2  0  0  0  0  0  0  0  0  0
    7.9640   -1.9610   22.6770 C   0  0  1  0  0  0  0  0  0  0  0  0
    8.4440   -3.3030   22.9040 O   0  0  0  0  0  0  0  0  0  0  0  0
    7.3970   -4.2900   22.9280 C   0  0  0  0  0  0  0  0  0  0  0  0
    6.1700   -3.7130   22.5920 C   0  0  0  0  0  0  0  0  0  0  0  0
  2  3  2  0
  2  4  1  0
  2  5  1  0
  1  6  3  0
  7  8  2  0
  8  9  1  0
 10 11  2  0
  5 12  1  0
 11 12  1  0
 12 13  2  0
 13 14  1  0
 10 15  1  0
 14 15  2  0
 16 17  2  0
 17 18  1  0
  6 19  1  0
 18 19  2  0
 19 20  1  0
  4 21  1  1
 16 21  1  0
 20 21  2  0
  8 22  1  0
 23  5  1  1
 22 23  1  0
  4 24  1  0
 23 24  1  0
 24 25  1  6
 25 26  1  0
 22 27  1  0
 26 27  1  0
M  END
