x2600-x0434
     RDKit          3D

 18 19  0  0  0  0  0  0  0  0999 V2000
   14.0040   -1.5290   20.4130 N   0  0  0  0  0  0  0  0  0  0  0  0
    8.3810    0.3430   21.8120 C   0  0  0  0  0  0  0  0  0  0  0  0
    9.0280    1.3290   21.3690 O   0  0  0  0  0  0  0  0  0  0  0  0
    8.6630   -0.2520   23.1700 C   0  0  0  0  0  0  0  0  0  0  0  0
    7.2860   -0.3810   21.1710 N   0  0  0  0  0  0  0  0  0  0  0  0
   13.1910   -1.3510   21.5330 C   0  0  0  0  0  0  0  0  0  0  0  0
    6.2860    0.5810   17.6410 N   0  0  0  0  0  0  0  0  0  0  0  0
    6.9190    0.0230   18.7540 C   0  0  0  0  0  0  0  0  0  0  0  0
    6.5690    0.1990   20.1570 C   0  0  0  0  0  0  0  0  0  0  0  0
    5.3480    1.0970   20.3750 C   0  0  0  0  0  0  0  0  0  0  0  0
    4.6710    1.6970   19.1470 C   0  0  0  0  0  0  0  0  0  0  0  0
    5.1360    1.4450   17.8510 C   0  0  0  0  0  0  0  0  0  0  0  0
   10.7310   -0.2240   24.6400 C   0  0  0  0  0  0  0  0  0  0  0  0
   12.0990   -0.3930   24.8380 C   0  0  0  0  0  0  0  0  0  0  0  0
   12.8450   -0.7650   23.7830 C   0  0  0  0  0  0  0  0  0  0  0  0
   12.3000   -0.9910   22.5200 C   0  0  0  0  0  0  0  0  0  0  0  0
   10.9570   -0.8320   22.3350 C   0  0  0  0  0  0  0  0  0  0  0  0
   10.1260   -0.4300   23.4170 C   0  0  0  0  0  0  0  0  0  0  0  0
  2  3  2  0
  2  4  1  0
  2  5  1  0
  1  6  3  0
  7  8  2  0
  5  9  1  0
  8  9  1  0
  9 10  2  0
 10 11  1  0
  7 12  1  0
 11 12  2  0
 13 14  2  0
 14 15  1  0
  6 16  1  0
 15 16  2  0
 16 17  1  0
  4 18  1  0
 13 18  1  0
 17 18  2  0
M  END
