x2600-x0995
     RDKit          3D

 19 20  0  0  0  0  0  0  0  0999 V2000
   14.0120   -1.5240   20.4080 N   0  0  0  0  0  0  0  0  0  0  0  0
    8.3560    0.3200   21.8250 C   0  0  0  0  0  0  0  0  0  0  0  0
    9.0130    1.2890   21.3560 O   0  0  0  0  0  0  0  0  0  0  0  0
    8.6490   -0.2570   23.1880 C   0  0  0  0  0  0  0  0  0  0  0  0
    7.2370   -0.4070   21.2180 N   0  0  0  0  0  0  0  0  0  0  0  0
   13.1960   -1.3430   21.5260 C   0  0  0  0  0  0  0  0  0  0  0  0
    3.2910    2.2190   19.1410 N   0  0  0  0  0  0  0  0  0  0  0  0
    6.4060    0.5230   17.7000 N   0  0  0  0  0  0  0  0  0  0  0  0
    6.9750    0.0240   18.7980 C   0  0  0  0  0  0  0  0  0  0  0  0
    6.5220    0.1340   20.1800 C   0  0  0  0  0  0  0  0  0  0  0  0
    5.2130    0.9040   20.3420 C   0  0  0  0  0  0  0  0  0  0  0  0
    4.5560    1.4660   19.0930 C   0  0  0  0  0  0  0  0  0  0  0  0
    5.1610    1.2690   17.8600 C   0  0  0  0  0  0  0  0  0  0  0  0
   10.6940   -0.1910   24.6910 C   0  0  0  0  0  0  0  0  0  0  0  0
   12.0670   -0.3650   24.8220 C   0  0  0  0  0  0  0  0  0  0  0  0
   12.7800   -0.7340   23.7710 C   0  0  0  0  0  0  0  0  0  0  0  0
   12.2970   -0.9820   22.5030 C   0  0  0  0  0  0  0  0  0  0  0  0
   10.9480   -0.8280   22.3390 C   0  0  0  0  0  0  0  0  0  0  0  0
   10.1110   -0.4190   23.4450 C   0  0  0  0  0  0  0  0  0  0  0  0
  2  3  2  0
  2  4  1  0
  2  5  1  0
  1  6  3  0
  8  9  2  0
  5 10  1  0
  9 10  1  0
 10 11  2  0
  7 12  1  0
 11 12  1  0
  8 13  1  0
 12 13  2  0
 14 15  2  0
 15 16  1  0
  6 17  1  0
 16 17  2  0
 17 18  1  0
  4 19  1  0
 14 19  1  0
 18 19  2  0
M  END
