x2600-x2643
     RDKit          3D

 18 19  0  0  0  0  0  0  0  0999 V2000
   14.0030   -1.5300   20.4160 N   0  0  0  0  0  0  0  0  0  0  0  0
    8.3860    0.3480   21.8140 C   0  0  0  0  0  0  0  0  0  0  0  0
    9.0390    1.3280   21.3680 O   0  0  0  0  0  0  0  0  0  0  0  0
    8.6600   -0.2440   23.1720 C   0  0  0  0  0  0  0  0  0  0  0  0
    7.2890   -0.3740   21.1710 N   0  0  0  0  0  0  0  0  0  0  0  0
   13.1860   -1.3490   21.5320 C   0  0  0  0  0  0  0  0  0  0  0  0
    6.2850    0.5800   17.6430 N   0  0  0  0  0  0  0  0  0  0  0  0
    6.9200    0.0240   18.7550 C   0  0  0  0  0  0  0  0  0  0  0  0
    6.5730    0.2050   20.1570 C   0  0  0  0  0  0  0  0  0  0  0  0
    5.3540    1.1070   20.3760 C   0  0  0  0  0  0  0  0  0  0  0  0
    4.6760    1.7030   19.1450 C   0  0  0  0  0  0  0  0  0  0  0  0
    5.1370    1.4460   17.8540 C   0  0  0  0  0  0  0  0  0  0  0  0
   10.7330   -0.2190   24.6400 C   0  0  0  0  0  0  0  0  0  0  0  0
   12.1030   -0.3890   24.8360 C   0  0  0  0  0  0  0  0  0  0  0  0
   12.8440   -0.7630   23.7790 C   0  0  0  0  0  0  0  0  0  0  0  0
   12.2940   -0.9870   22.5160 C   0  0  0  0  0  0  0  0  0  0  0  0
   10.9510   -0.8270   22.3340 C   0  0  0  0  0  0  0  0  0  0  0  0
   10.1240   -0.4240   23.4210 C   0  0  0  0  0  0  0  0  0  0  0  0
  2  3  2  0
  2  4  1  0
  2  5  1  0
  1  6  3  0
  7  8  2  0
  5  9  1  0
  8  9  1  0
  9 10  2  0
 10 11  1  0
  7 12  1  0
 11 12  2  0
 13 14  2  0
 14 15  1  0
  6 16  1  0
 15 16  2  0
 16 17  1  0
  4 18  1  0
 13 18  1  0
 17 18  2  0
M  END
