x2600-x3298
     RDKit          3D

 30 32  0  0  0  0  0  0  0  0999 V2000
    7.3160    1.2550   22.4360 N   0  0  0  0  0  0  0  0  0  0  0  0
    7.2370   -0.3100   21.3140 C   0  0  2  0  0  0  0  0  0  0  0  0
    6.3740   -0.6790   22.1290 O   0  0  0  0  0  0  0  0  0  0  0  0
    8.3060    0.6260   21.7790 C   0  0  1  0  0  0  0  0  0  0  0  0
    7.9720    1.1930   24.8180 N   0  0  0  0  0  0  0  0  0  0  0  0
    8.5530    1.3070   20.5970 O   0  0  0  0  0  0  0  0  0  0  0  0
   10.0700    2.0630   25.2070 O   0  0  0  0  0  0  0  0  0  0  0  0
    9.4890   -0.1360   26.5920 O   0  0  0  0  0  0  0  0  0  0  0  0
   13.3380   -1.3610   21.3150 C   0  0  0  0  0  0  0  0  0  0  0  0
    9.5050    0.6080   25.2910 S   0  0  0  0  0  0  0  0  0  0  0  0
   14.1440   -1.4320   20.2600 N   0  0  0  0  0  0  0  0  0  0  0  0
    9.3740    1.0640   22.3330 C   0  0  0  0  0  0  0  0  0  0  0  0
    6.2900    0.5520   17.5510 N   0  0  0  0  0  0  0  0  0  0  0  0
    6.9970   -0.0440   18.7150 C   0  0  0  0  0  0  0  0  0  0  0  0
    6.5400    0.2490   20.1380 C   0  0  0  0  0  0  0  0  0  0  0  0
    5.3240    1.1590   20.2430 C   0  0  0  0  0  0  0  0  0  0  0  0
    4.7300    1.6630   19.1050 C   0  0  0  0  0  0  0  0  0  0  0  0
    5.1570    1.4050   17.8520 C   0  0  0  0  0  0  0  0  0  0  0  0
    7.8600    3.8110   22.2880 C   0  0  0  0  0  0  0  0  0  0  0  0
    8.3010    4.8740   22.9760 C   0  0  0  0  0  0  0  0  0  0  0  0
    8.6700    4.8720   24.3160 C   0  0  0  0  0  0  0  0  0  0  0  0
    8.5490    3.6280   24.9550 C   0  0  0  0  0  0  0  0  0  0  0  0
    8.0870    2.3910   24.2890 C   0  0  0  0  0  0  0  0  0  0  0  0
    7.7490    2.5690   22.9260 C   0  0  0  0  0  0  0  0  0  0  0  0
   11.7390    0.6500   23.8430 C   0  0  0  0  0  0  0  0  0  0  0  0
   12.6410    0.2160   22.9390 C   0  0  0  0  0  0  0  0  0  0  0  0
   12.3800   -0.9720   22.3020 C   0  0  0  0  0  0  0  0  0  0  0  0
   11.2850   -1.7260   22.5480 C   0  0  0  0  0  0  0  0  0  0  0  0
   10.3470   -1.3170   23.4660 C   0  0  0  0  0  0  0  0  0  0  0  0
   10.5860   -0.1090   24.1070 C   0  0  0  0  0  0  0  0  0  0  0  0
  2  3  1  1
  1  4  1  0
  2  4  1  0
  4  6  1  0
 10  5  1  0
  7 10  2  0
  8 10  2  0
  9 11  3  0
  4 12  1  1
 13 14  2  0
  2 15  1  0
 14 15  1  0
 15 16  2  0
 16 17  1  0
 13 18  1  0
 17 18  2  0
 19 20  2  0
 20 21  1  0
 21 22  2  0
  5 23  1  0
 22 23  1  0
  1 24  1  0
 19 24  1  0
 23 24  2  0
 25 26  2  0
  9 27  1  0
 26 27  1  0
 27 28  2  0
 28 29  1  0
 10 30  1  0
 25 30  1  0
 29 30  2  0
M  END
