x2608-x1308
     RDKit          3D

 36 39  0  0  0  0  0  0  0  0999 V2000
    7.2230   -3.4290   19.8500 C   0  0  0  0  0  0  0  0  0  0  0  0
    5.3210   -4.8210   19.9760 O   0  0  0  0  0  0  0  0  0  0  0  0
    0.8120   -1.2070   26.4380 Cl  0  0  0  0  0  0  0  0  0  0  0  0
    6.3810   -4.4760   20.5260 C   0  0  0  0  0  0  0  0  0  0  0  0
    6.5300   -5.0520   26.7900 O   0  0  0  0  0  0  0  0  0  0  0  0
    4.7290   -6.9000   26.1110 O   0  0  0  0  0  0  0  0  0  0  0  0
    5.3330   -5.4560   25.8210 S   0  0  0  0  0  0  0  0  0  0  0  0
    8.8960   -0.9830   22.5740 N   0  0  0  0  0  0  0  0  0  0  0  0
   12.8390    2.2890   22.7820 C   0  0  0  0  0  0  0  0  0  0  0  0
    8.3690    0.9200   21.2110 O   0  0  0  0  0  0  0  0  0  0  0  0
    7.2820   -1.0610   20.8520 N   0  0  0  0  0  0  0  0  0  0  0  0
    8.1770   -0.2610   21.4990 C   0  0  0  0  0  0  0  0  0  0  0  0
    7.6230   -2.4220   20.9490 C   0  0  0  0  0  0  0  0  0  0  0  0
    6.7470   -5.1140   21.7340 N   0  0  0  0  0  0  0  0  0  0  0  0
    7.7080   -4.7010   22.7930 C   0  0  0  0  0  0  0  0  0  0  0  0
    6.9190   -4.3190   24.0400 C   0  0  0  0  0  0  0  0  0  0  0  0
    5.8850   -5.3890   24.2220 N   0  0  0  0  0  0  0  0  0  0  0  0
    4.9720   -5.5610   23.2360 C   0  0  0  0  0  0  0  0  0  0  0  0
    5.9280   -6.0380   22.3560 C   0  0  0  0  0  0  0  0  0  0  0  0
    4.3720   -3.0300   26.3770 C   0  0  0  0  0  0  0  0  0  0  0  0
    3.3750   -2.1280   26.5040 C   0  0  0  0  0  0  0  0  0  0  0  0
    2.0240   -2.4090   26.2420 C   0  0  0  0  0  0  0  0  0  0  0  0
    1.6980   -3.6970   25.8200 C   0  0  0  0  0  0  0  0  0  0  0  0
    2.7130   -4.7540   25.6510 C   0  0  0  0  0  0  0  0  0  0  0  0
    4.0920   -4.3380   25.9620 C   0  0  0  0  0  0  0  0  0  0  0  0
   12.0730    1.0130   22.8950 C   0  0  0  0  0  0  0  0  0  0  0  0
   12.4240   -0.3080   23.2130 C   0  0  0  0  0  0  0  0  0  0  0  0
   11.3400   -1.1810   23.1490 C   0  0  0  0  0  0  0  0  0  0  0  0
   10.2020   -0.5290   22.7930 C   0  0  0  0  0  0  0  0  0  0  0  0
   10.4030    1.1210   22.5620 S   0  0  0  0  0  0  0  0  0  0  0  0
    6.1060    0.5180   17.7630 N   0  0  0  0  0  0  0  0  0  0  0  0
    6.7990   -0.1770   18.6710 C   0  0  0  0  0  0  0  0  0  0  0  0
    6.4340   -0.3250   19.9860 C   0  0  0  0  0  0  0  0  0  0  0  0
    5.2470    0.2760   20.4470 C   0  0  0  0  0  0  0  0  0  0  0  0
    4.4650    1.0220   19.5670 C   0  0  0  0  0  0  0  0  0  0  0  0
    4.8830    1.1500   18.2520 C   0  0  0  0  0  0  0  0  0  0  0  0
  1  4  1  0
  2  4  2  0
  5  7  2  0
  6  7  2  0
  8 12  1  0
 10 12  2  0
 11 12  1  0
  1 13  1  0
 11 13  1  0
  4 14  1  0
 14 15  1  0
 15 16  1  0
  7 17  1  0
 16 17  1  0
 17 18  1  0
 14 19  1  0
 18 19  1  0
 20 21  2  0
  3 22  1  0
 21 22  1  0
 22 23  2  0
 23 24  1  0
  7 25  1  0
 20 25  1  0
 24 25  2  0
  9 26  1  0
 26 27  2  0
 27 28  1  0
  8 29  1  0
 28 29  2  0
 26 30  1  0
 29 30  1  0
 31 32  2  0
 11 33  1  0
 32 33  1  0
 33 34  2  0
 34 35  1  0
 31 36  1  0
 35 36  2  0
M  END
