x2608-x0397
     RDKit          3D

 23 25  0  0  0  0  0  0  0  0999 V2000
    7.9960   -0.9560   21.0940 C   0  0  0  0  0  0  0  0  0  0  0  0
    7.0880   -1.8630   20.2600 N   0  0  0  0  0  0  0  0  0  0  0  0
    7.0320   -1.4950   18.8950 C   0  0  0  0  0  0  0  0  0  0  0  0
    3.4810    2.4190   19.3620 C   0  0  0  0  0  0  0  0  0  0  0  0
    6.2860   -3.0550   20.6960 C   0  0  0  0  0  0  0  0  0  0  0  0
    5.5730   -3.7410   19.9200 O   0  0  0  0  0  0  0  0  0  0  0  0
    6.4130   -3.3840   22.0260 N   0  0  0  0  0  0  0  0  0  0  0  0
    8.7560   -1.4890   22.1330 N   0  0  0  0  0  0  0  0  0  0  0  0
   12.6610    1.6930   23.0040 C   0  0  0  0  0  0  0  0  0  0  0  0
    8.0560    0.2580   20.8390 O   0  0  0  0  0  0  0  0  0  0  0  0
    5.1050    0.1520   19.5980 C   0  0  0  0  0  0  0  0  0  0  0  0
    6.2070   -0.2860   18.7060 C   0  0  0  0  0  0  0  0  0  0  0  0
    6.3230    0.7000   17.6100 N   0  0  0  0  0  0  0  0  0  0  0  0
    5.3550    1.6830   17.8200 O   0  0  0  0  0  0  0  0  0  0  0  0
    4.5750    1.4320   18.9980 C   0  0  0  0  0  0  0  0  0  0  0  0
    6.5890   -5.3230   23.2510 C   0  0  0  0  0  0  0  0  0  0  0  0
    5.8510   -4.5880   22.5150 C   0  0  0  0  0  0  0  0  0  0  0  0
    6.0570   -5.8230   21.8450 C   0  0  0  0  0  0  0  0  0  0  0  0
   11.9640    0.6460   22.9250 C   0  0  0  0  0  0  0  0  0  0  0  0
   12.2890   -0.6720   23.1560 C   0  0  0  0  0  0  0  0  0  0  0  0
   11.2280   -1.6630   22.9330 C   0  0  0  0  0  0  0  0  0  0  0  0
    9.9840   -0.9930   22.4860 C   0  0  0  0  0  0  0  0  0  0  0  0
   10.2650    0.7640   22.4320 S   0  0  0  0  0  0  0  0  0  0  0  0
  1  2  1  0
  2  3  1  0
  2  5  1  0
  5  6  2  0
  5  7  1  0
  1  8  1  0
  1 10  2  0
  3 12  1  0
 11 12  1  0
 12 13  2  0
 13 14  1  0
  4 15  1  0
 11 15  2  0
 14 15  1  0
  7 17  1  0
 16 17  1  0
 16 18  1  0
 17 18  1  0
  9 19  1  0
 19 20  2  0
 20 21  1  0
  8 22  1  0
 21 22  2  0
 19 23  1  0
 22 23  1  0
M  END
