x2600-x2908
     RDKit          3D

 19 20  0  0  0  0  0  0  0  0999 V2000
   13.4880   -2.8920   20.7850 N   0  0  0  0  0  0  0  0  0  0  0  0
    8.2800    0.3000   21.6440 C   0  0  0  0  0  0  0  0  0  0  0  0
    8.8510    1.3400   21.2610 O   0  0  0  0  0  0  0  0  0  0  0  0
    8.7180   -0.4220   22.8940 C   0  0  0  0  0  0  0  0  0  0  0  0
    7.2280   -0.3350   21.0380 N   0  0  0  0  0  0  0  0  0  0  0  0
   12.9960   -2.1120   21.4530 C   0  0  0  0  0  0  0  0  0  0  0  0
    4.7950    1.3470   21.6130 C   0  0  0  0  0  0  0  0  0  0  0  0
    6.2500    0.5920   17.6290 N   0  0  0  0  0  0  0  0  0  0  0  0
    6.9030    0.0410   18.6670 C   0  0  0  0  0  0  0  0  0  0  0  0
    6.5360    0.2170   19.9760 C   0  0  0  0  0  0  0  0  0  0  0  0
    5.3200    1.0690   20.2360 C   0  0  0  0  0  0  0  0  0  0  0  0
    4.6690    1.6200   19.1330 C   0  0  0  0  0  0  0  0  0  0  0  0
    5.1740    1.3540   17.8760 C   0  0  0  0  0  0  0  0  0  0  0  0
   10.8270    0.5640   23.7950 C   0  0  0  0  0  0  0  0  0  0  0  0
   12.2030    0.5980   23.8330 C   0  0  0  0  0  0  0  0  0  0  0  0
   12.9440   -0.2800   23.0660 C   0  0  0  0  0  0  0  0  0  0  0  0
   12.2980   -1.1950   22.2580 C   0  0  0  0  0  0  0  0  0  0  0  0
   10.9380   -1.2390   22.2080 C   0  0  0  0  0  0  0  0  0  0  0  0
   10.1970   -0.3650   22.9720 C   0  0  0  0  0  0  0  0  0  0  0  0
  2  3  2  0
  2  4  1  0
  2  5  1  0
  1  6  3  0
  8  9  2  0
  5 10  1  0
  9 10  1  0
  7 11  1  0
 10 11  2  0
 11 12  1  0
  8 13  1  0
 12 13  2  0
 14 15  2  0
 15 16  1  0
  6 17  1  0
 16 17  2  0
 17 18  1  0
  4 19  1  0
 14 19  1  0
 18 19  2  0
M  END
