x2608-x3108
     RDKit          3D

 27 31  0  0  0  0  0  0  0  0999 V2000
    6.0180    1.5880   21.9300 C   0  0  0  0  0  0  0  0  0  0  0  0
    9.1900    1.4910   21.4310 N   0  0  0  0  0  0  0  0  0  0  0  0
    7.8040   -0.5050   20.9450 N   0  0  0  0  0  0  0  0  0  0  0  0
    8.8310    0.2240   25.2500 O   0  0  0  0  0  0  0  0  0  0  0  0
    9.9530   -1.6140   23.9270 C   0  0  2  0  0  0  0  0  0  0  0  0
    8.8660    0.0500   21.5860 C   0  0  0  0  0  0  0  0  0  0  0  0
    8.8680   -1.1010   24.8020 C   0  0  0  0  0  0  0  0  0  0  0  0
    7.7630   -2.0490   25.1350 C   0  0  0  0  0  0  0  0  0  0  0  0
    7.1930   -1.5990   21.5980 N   0  0  0  0  0  0  0  0  0  0  0  0
   12.4470    2.4800   22.9430 C   0  0  0  0  0  0  0  0  0  0  0  0
    6.2160    0.3920   17.7560 N   0  0  0  0  0  0  0  0  0  0  0  0
    6.9720   -0.1590   18.7040 C   0  0  0  0  0  0  0  0  0  0  0  0
    6.9400    0.1880   20.0260 C   0  0  0  0  0  0  0  0  0  0  0  0
    6.1070    1.1560   20.4940 C   0  0  0  0  0  0  0  0  0  0  0  0
    5.3150    1.7330   19.5120 C   0  0  0  0  0  0  0  0  0  0  0  0
    5.3770    1.3580   18.2110 C   0  0  0  0  0  0  0  0  0  0  0  0
    9.5740   -5.2940   24.8290 N   0  0  0  0  0  0  0  0  0  0  0  0
    9.0330   -4.0830   24.5910 C   0  0  0  0  0  0  0  0  0  0  0  0
    8.2910   -3.3810   25.5420 C   0  0  0  0  0  0  0  0  0  0  0  0
    8.0700   -3.9790   26.8790 C   0  0  0  0  0  0  0  0  0  0  0  0
    8.6910   -5.2930   27.0600 C   0  0  0  0  0  0  0  0  0  0  0  0
    9.4290   -5.8640   25.9620 C   0  0  0  0  0  0  0  0  0  0  0  0
   11.7350    1.2020   23.0690 C   0  0  0  0  0  0  0  0  0  0  0  0
   11.9880   -0.0230   23.6850 C   0  0  0  0  0  0  0  0  0  0  0  0
   11.0780   -1.0060   23.1510 C   0  0  2  0  0  0  0  0  0  0  0  0
    9.8410   -0.7420   22.6120 C   0  0  2  0  0  0  0  0  0  0  0  0
   10.2600    0.8150   22.3640 S   0  0  0  0  0  0  0  0  0  0  0  0
  2  6  2  0
  3  6  1  0
  4  7  2  0
  5  7  1  1
  7  8  1  0
  3  9  1  0
 11 12  2  0
  3 13  1  0
 12 13  1  0
  1 14  1  0
 13 14  2  0
 14 15  1  0
 11 16  1  0
 15 16  2  0
 17 18  2  0
  8 19  1  0
 18 19  1  0
 19 20  2  0
 20 21  1  0
 17 22  1  0
 21 22  2  0
 10 23  1  0
 23 24  1  0
  5 25  1  0
 25 24  1  1
  5 26  1  0
 26  6  1  1
 25 26  1  0
 27  2  1  6
 23 27  2  0
 26 27  1  0
M  END
