x2600-x0689
     RDKit          3D

 37 40  0  0  0  0  0  0  0  0999 V2000
    7.6160   -3.6410   20.3680 C   0  0  0  0  0  0  0  0  0  0  0  0
    5.4440   -4.6420   19.9380 O   0  0  0  0  0  0  0  0  0  0  0  0
    6.4670   -4.5490   20.6740 C   0  0  0  0  0  0  0  0  0  0  0  0
    3.9880   -6.4870   25.9960 O   0  0  0  0  0  0  0  0  0  0  0  0
    5.8110   -4.6860   26.7680 O   0  0  0  0  0  0  0  0  0  0  0  0
    4.7440   -5.1260   25.6730 S   0  0  0  0  0  0  0  0  0  0  0  0
   13.6340   -3.4250   20.6550 N   0  0  0  0  0  0  0  0  0  0  0  0
    8.2010    0.3650   21.6510 C   0  0  0  0  0  0  0  0  0  0  0  0
    8.7950    1.3670   21.1970 O   0  0  0  0  0  0  0  0  0  0  0  0
    8.8320   -0.4560   22.7100 C   0  0  0  0  0  0  0  0  0  0  0  0
    6.9460   -0.0720   21.2410 N   0  0  0  0  0  0  0  0  0  0  0  0
   13.0950   -2.3320   21.4240 C   0  0  0  0  0  0  0  0  0  0  0  0
    7.1150   -2.2280   20.1120 C   0  0  0  0  0  0  0  0  0  0  0  0
    6.7260   -1.5030   21.3690 C   0  0  0  0  0  0  0  0  0  0  0  0
    6.5380   -5.3140   21.8390 N   0  0  0  0  0  0  0  0  0  0  0  0
    5.6050   -6.3890   22.1140 C   0  0  0  0  0  0  0  0  0  0  0  0
    4.7480   -6.0590   23.1260 C   0  0  0  0  0  0  0  0  0  0  0  0
    5.5070   -5.2840   24.1730 N   0  0  0  0  0  0  0  0  0  0  0  0
    6.1060   -4.0560   23.6420 C   0  0  0  0  0  0  0  0  0  0  0  0
    7.0620   -4.7590   22.9670 C   0  0  0  0  0  0  0  0  0  0  0  0
    3.9060   -2.2490   25.9700 S   0  0  0  0  0  0  0  0  0  0  0  0
    3.4580   -3.8930   25.6180 C   0  0  0  0  0  0  0  0  0  0  0  0
    2.0940   -3.9790   25.3430 C   0  0  0  0  0  0  0  0  0  0  0  0
    1.4100   -2.7130   25.4250 C   0  0  0  0  0  0  0  0  0  0  0  0
    2.3110   -1.6390   25.7730 C   0  0  0  0  0  0  0  0  0  0  0  0
    6.3180    0.7240   17.6650 N   0  0  0  0  0  0  0  0  0  0  0  0
    6.8230    0.2470   18.8140 C   0  0  0  0  0  0  0  0  0  0  0  0
    6.3280    0.4800   20.0770 C   0  0  0  0  0  0  0  0  0  0  0  0
    5.1870    1.2800   20.1720 C   0  0  0  0  0  0  0  0  0  0  0  0
    4.6500    1.7770   19.0180 C   0  0  0  0  0  0  0  0  0  0  0  0
    5.2230    1.4940   17.7930 C   0  0  0  0  0  0  0  0  0  0  0  0
   10.9480    0.7300   23.2070 C   0  0  0  0  0  0  0  0  0  0  0  0
   12.3300    0.8360   23.1970 C   0  0  0  0  0  0  0  0  0  0  0  0
   13.0700   -0.1770   22.6210 C   0  0  0  0  0  0  0  0  0  0  0  0
   12.4250   -1.2810   22.0610 C   0  0  0  0  0  0  0  0  0  0  0  0
   11.0520   -1.3740   22.0970 C   0  0  0  0  0  0  0  0  0  0  0  0
   10.3130   -0.3700   22.6710 C   0  0  0  0  0  0  0  0  0  0  0  0
  1  3  1  0
  2  3  2  0
  4  6  2  0
  5  6  2  0
  8  9  2  0
  8 10  1  0
  8 11  1  0
  7 12  3  0
  1 13  1  0
 11 14  1  0
 13 14  1  0
  3 15  1  0
 15 16  1  0
 16 17  1  0
  6 18  1  0
 17 18  1  0
 18 19  1  0
 15 20  1  0
 19 20  1  0
  6 22  1  0
 21 22  1  0
 22 23  2  0
 23 24  1  0
 21 25  1  0
 24 25  2  0
 26 27  2  0
 11 28  1  0
 27 28  1  0
 28 29  2  0
 29 30  1  0
 26 31  1  0
 30 31  2  0
 32 33  2  0
 33 34  1  0
 12 35  1  0
 34 35  2  0
 35 36  1  0
 10 37  1  0
 32 37  1  0
 36 37  2  0
M  END
