x2608-x1375
     RDKit          3D

 36 39  0  0  0  0  0  0  0  0999 V2000
    5.7120   -5.3570   20.1060 O   0  0  0  0  0  0  0  0  0  0  0  0
    6.5640   -4.8060   20.8920 C   0  0  0  0  0  0  0  0  0  0  0  0
    7.5690   -3.8290   20.4070 C   0  0  0  0  0  0  0  0  0  0  0  0
    6.5610   -4.9850   22.3400 N   0  0  0  0  0  0  0  0  0  0  0  0
    2.0730   -6.6660   24.0870 O   0  0  0  0  0  0  0  0  0  0  0  0
    4.3520   -7.9820   24.4270 O   0  0  0  0  0  0  0  0  0  0  0  0
   10.8150   -4.2180   25.8160 F   0  0  0  0  0  0  0  0  0  0  0  0
    8.7300   -0.4520   22.5530 N   0  0  0  0  0  0  0  0  0  0  0  0
   12.8900    2.4800   22.7500 C   0  0  0  0  0  0  0  0  0  0  0  0
    8.4780    1.4380   21.1680 O   0  0  0  0  0  0  0  0  0  0  0  0
    7.1790   -0.3750   20.8500 N   0  0  0  0  0  0  0  0  0  0  0  0
    8.1450    0.2940   21.5230 C   0  0  0  0  0  0  0  0  0  0  0  0
    6.7730   -2.6170   20.0440 C   0  0  0  0  0  0  0  0  0  0  0  0
    7.7220   -1.4790   20.1160 C   0  0  0  0  0  0  0  0  0  0  0  0
    8.0810   -3.4140   23.5300 C   0  0  0  0  0  0  0  0  0  0  0  0
    9.1520   -3.2790   24.4150 C   0  0  0  0  0  0  0  0  0  0  0  0
    9.7950   -4.3580   24.9620 C   0  0  0  0  0  0  0  0  0  0  0  0
    9.3500   -5.6140   24.5990 C   0  0  0  0  0  0  0  0  0  0  0  0
    8.3150   -5.7320   23.7390 C   0  0  0  0  0  0  0  0  0  0  0  0
    7.6330   -4.6470   23.1740 C   0  0  0  0  0  0  0  0  0  0  0  0
    5.3520   -4.9790   24.3480 C   0  0  0  0  0  0  0  0  0  0  0  0
    5.6230   -5.7740   23.1120 C   0  0  1  0  0  0  0  0  0  0  0  0
    4.3020   -6.0070   22.6020 C   0  0  0  0  0  0  0  0  0  0  0  0
    3.6620   -6.5970   24.1350 S   0  0  0  0  0  0  0  0  0  0  0  0
    4.3110   -5.3430   24.9900 C   0  0  0  0  0  0  0  0  0  0  0  0
   11.9930    1.2000   22.8860 C   0  0  0  0  0  0  0  0  0  0  0  0
   12.2470   -0.1480   23.2170 C   0  0  0  0  0  0  0  0  0  0  0  0
   11.1230   -0.9120   23.1520 C   0  0  0  0  0  0  0  0  0  0  0  0
   10.0060   -0.1860   22.7820 C   0  0  0  0  0  0  0  0  0  0  0  0
   10.3690    1.4570   22.5510 S   0  0  0  0  0  0  0  0  0  0  0  0
    5.9840    0.9150   17.6560 N   0  0  0  0  0  0  0  0  0  0  0  0
    6.7530    0.2140   18.6870 C   0  0  0  0  0  0  0  0  0  0  0  0
    6.3330    0.3430   19.9980 C   0  0  0  0  0  0  0  0  0  0  0  0
    5.2290    1.0860   20.3670 C   0  0  0  0  0  0  0  0  0  0  0  0
    4.5030    1.7540   19.3880 C   0  0  0  0  0  0  0  0  0  0  0  0
    4.9210    1.6460   18.0560 C   0  0  0  0  0  0  0  0  0  0  0  0
  1  2  2  0
  2  3  1  0
  2  4  1  0
  8 12  1  0
 10 12  2  0
 11 12  1  0
  3 13  1  0
 11 14  1  0
 13 14  1  0
 15 16  2  0
  7 17  1  0
 16 17  1  0
 17 18  2  0
 18 19  1  0
  4 20  1  0
 15 20  1  0
 19 20  2  0
 22  4  1  6
 21 22  1  0
 22 23  1  0
 24  5  1  0
  6 24  1  0
 23 24  1  0
 21 25  2  0
 24 25  1  0
  9 26  1  0
 26 27  2  0
 27 28  1  0
  8 29  1  0
 28 29  2  0
 26 30  1  0
 29 30  1  0
 31 32  2  0
 11 33  1  0
 32 33  1  0
 33 34  2  0
 34 35  1  0
 31 36  1  0
 35 36  2  0
M  END
