x2600-x2705-x0691-x2572
     RDKit          3D

 52 57  0  0  0  0  0  0  0  0999 V2000
    6.8610   -1.4500   21.9660 N   0  0  0  0  0  0  0  0  0  0  0  0
    6.7130   -4.5590   20.2990 C   0  0  2  0  0  0  0  0  0  0  0  0
    4.7360   -2.9420   21.3450 O   0  0  0  0  0  0  0  0  0  0  0  0
    6.8470   -3.7460   21.4700 C   0  0  1  0  0  0  0  0  0  0  0  0
    7.3920    2.0460   22.7560 N   0  0  0  0  0  0  0  0  0  0  0  0
    8.8680    0.8020   21.4930 O   0  0  0  0  0  0  0  0  0  0  0  0
    6.0140   -2.6430   21.5960 C   0  0  0  0  0  0  0  0  0  0  0  0
    6.5590   -0.0350   21.5980 C   0  0  1  0  0  0  0  0  0  0  0  0
    7.7310    0.9610   21.9480 C   0  0  0  0  0  0  0  0  0  0  0  0
   10.1740    2.0650   23.9730 C   0  0  0  0  0  0  0  0  0  0  0  0
    9.3460    1.2070   24.9220 C   0  0  0  0  0  0  0  0  0  0  0  0
    6.1650    4.5090   21.8600 C   0  0  0  0  0  0  0  0  0  0  0  0
   12.0100   -1.5340   23.2980 C   0  0  0  0  0  0  0  0  0  0  0  0
   12.5320   -0.2070   23.8880 C   0  0  0  0  0  0  0  0  0  0  0  0
   12.4790   -2.6250   24.2830 C   0  0  0  0  0  0  0  0  0  0  0  0
   12.7260   -1.7580   21.9550 C   0  0  0  0  0  0  0  0  0  0  0  0
    5.4880   -4.5070   19.5710 O   0  0  0  0  0  0  0  0  0  0  0  0
    3.8230   -6.7230   25.7790 O   0  0  0  0  0  0  0  0  0  0  0  0
    5.7610   -5.4270   26.7020 O   0  0  0  0  0  0  0  0  0  0  0  0
    2.9490   -0.5330   26.1810 F   0  0  0  0  0  0  0  0  0  0  0  0
    4.7030   -5.5760   25.7290 S   0  0  0  0  0  0  0  0  0  0  0  0
    4.0870    1.4320   21.3870 C   0  0  0  0  0  0  0  0  0  0  0  0
   13.3400   -1.8860   20.9780 N   0  0  0  0  0  0  0  0  0  0  0  0
    6.3650    0.3540   17.8620 N   0  0  0  0  0  0  0  0  0  0  0  0
    5.2340    1.0550   17.7880 C   0  0  0  0  0  0  0  0  0  0  0  0
    4.4120    1.4450   18.9510 C   0  0  0  0  0  0  0  0  0  0  0  0
    4.8760    1.0560   20.1720 C   0  0  0  0  0  0  0  0  0  0  0  0
    6.0580    0.3380   20.2300 C   0  0  0  0  0  0  0  0  0  0  0  0
    6.8010   -0.0220   19.0940 C   0  0  0  0  0  0  0  0  0  0  0  0
    9.7210   -1.5680   24.3320 N   0  0  0  0  0  0  0  0  0  0  0  0
    8.4050   -1.5500   23.9690 N   0  0  0  0  0  0  0  0  0  0  0  0
    8.1700   -1.5010   22.6110 C   0  0  0  0  0  0  0  0  0  0  0  0
    9.5040   -1.4970   22.1260 C   0  0  0  0  0  0  0  0  0  0  0  0
   10.4680   -1.5340   23.1810 C   0  0  0  0  0  0  0  0  0  0  0  0
    9.4300    3.2850   23.4890 C   0  0  0  0  0  0  0  0  0  0  0  0
   10.0770    4.5250   23.6160 C   0  0  0  0  0  0  0  0  0  0  0  0
    9.4800    5.7260   23.1930 C   0  0  0  0  0  0  0  0  0  0  0  0
    8.2060    5.6850   22.6260 C   0  0  0  0  0  0  0  0  0  0  0  0
    7.5390    4.4640   22.4880 C   0  0  0  0  0  0  0  0  0  0  0  0
    8.1370    3.2520   22.9200 C   0  0  0  0  0  0  0  0  0  0  0  0
    2.8050   -1.8500   25.9880 C   0  0  0  0  0  0  0  0  0  0  0  0
    3.9350   -2.6680   26.0200 C   0  0  0  0  0  0  0  0  0  0  0  0
    3.6910   -4.0020   25.8130 C   0  0  0  0  0  0  0  0  0  0  0  0
    2.4900   -4.6640   25.5750 C   0  0  0  0  0  0  0  0  0  0  0  0
    1.3630   -3.8010   25.5500 C   0  0  0  0  0  0  0  0  0  0  0  0
    1.5170   -2.3990   25.7550 C   0  0  0  0  0  0  0  0  0  0  0  0
    6.5560   -5.2200   21.6880 C   0  0  0  0  0  0  0  0  0  0  0  0
    5.2060   -5.8930   21.8770 C   0  0  0  0  0  0  0  0  0  0  0  0
    4.9550   -6.4630   23.1980 C   0  0  0  0  0  0  0  0  0  0  0  0
    5.4100   -5.4670   24.1720 N   0  0  0  0  0  0  0  0  0  0  0  0
    6.8780   -5.2230   24.1190 C   0  0  0  0  0  0  0  0  0  0  0  0
    7.4650   -5.5180   22.8610 C   0  0  0  0  0  0  0  0  0  0  0  0
  2  4  1  0
  1  7  1  0
  3  7  2  0
  4  7  1  6
  1  8  1  0
  5  9  1  0
  6  9  2  0
  8  9  1  6
 10 11  1  0
 13 14  1  0
 13 15  1  0
 13 16  1  0
  2 17  1  6
 18 21  2  0
 19 21  2  0
 16 23  3  0
 24 25  2  0
 25 26  1  0
 22 27  1  0
 26 27  2  0
  8 28  1  0
 27 28  1  0
 24 29  1  0
 28 29  2  0
 30 31  1  0
  1 32  1  0
 31 32  1  0
 32 33  2  0
 13 34  1  0
 30 34  2  0
 33 34  1  0
 10 35  1  0
 35 36  2  0
 36 37  1  0
 37 38  2  0
 12 39  1  0
 38 39  1  0
  5 40  1  0
 35 40  1  0
 39 40  2  0
 20 41  1  0
 41 42  2  0
 21 43  1  0
 42 43  1  0
 43 44  2  0
 44 45  1  0
 41 46  1  0
 45 46  2  0
  2 47  1  0
  4 47  1  0
 47 48  1  0
 48 49  1  0
 21 50  1  0
 49 50  1  0
 50 51  1  0
 47 52  1  0
 51 52  1  0
M  END
