x2600-x2572
     RDKit          3D

 19 20  0  0  0  0  0  0  0  0999 V2000
    4.5540    1.4430   21.7000 C   0  0  0  0  0  0  0  0  0  0  0  0
    8.7200    1.3170   21.1510 O   0  0  0  0  0  0  0  0  0  0  0  0
    7.2080   -0.4670   21.0050 N   0  0  0  0  0  0  0  0  0  0  0  0
   13.6610   -3.3520   20.6700 N   0  0  0  0  0  0  0  0  0  0  0  0
    8.2410    0.2380   21.5460 C   0  0  0  0  0  0  0  0  0  0  0  0
    8.7830   -0.5030   22.7340 C   0  0  0  0  0  0  0  0  0  0  0  0
   13.1300   -2.3330   21.4060 C   0  0  0  0  0  0  0  0  0  0  0  0
    6.3010    0.6040   17.5720 N   0  0  0  0  0  0  0  0  0  0  0  0
    6.9210   -0.0060   18.7360 C   0  0  0  0  0  0  0  0  0  0  0  0
    6.3780    0.2500   20.1160 C   0  0  0  0  0  0  0  0  0  0  0  0
    5.1780    1.1300   20.3380 C   0  0  0  0  0  0  0  0  0  0  0  0
    4.6590    1.6620   19.1550 C   0  0  0  0  0  0  0  0  0  0  0  0
    5.1510    1.4450   17.8900 C   0  0  0  0  0  0  0  0  0  0  0  0
   10.8960    0.6850   23.2140 C   0  0  0  0  0  0  0  0  0  0  0  0
   12.2320    0.7820   23.1860 C   0  0  0  0  0  0  0  0  0  0  0  0
   13.0210   -0.1870   22.6180 C   0  0  0  0  0  0  0  0  0  0  0  0
   12.4370   -1.3070   22.0480 C   0  0  0  0  0  0  0  0  0  0  0  0
   10.9920   -1.5000   22.0560 C   0  0  0  0  0  0  0  0  0  0  0  0
   10.2610   -0.4170   22.6830 C   0  0  0  0  0  0  0  0  0  0  0  0
  2  5  2  0
  3  5  1  0
  5  6  1  0
  4  7  3  0
  8  9  2  0
  3 10  1  0
  9 10  1  0
  1 11  1  0
 10 11  2  0
 11 12  1  0
  8 13  1  0
 12 13  2  0
 14 15  2  0
 15 16  1  0
  7 17  1  0
 16 17  2  0
 17 18  1  0
  6 19  1  0
 14 19  1  0
 18 19  2  0
M  END
