x2600-x2562
     RDKit          3D

 24 26  0  0  0  0  0  0  0  0999 V2000
    7.9950    0.1310   21.6270 C   0  0  0  0  0  0  0  0  0  0  0  0
    8.1840    1.2440   21.0980 O   0  0  0  0  0  0  0  0  0  0  0  0
    6.8150   -0.6980   21.2740 C   0  0  0  0  0  0  0  0  0  0  0  0
   12.1840    2.9040   23.4400 O   0  0  0  0  0  0  0  0  0  0  0  0
    8.9020   -0.4400   22.6080 N   0  0  0  0  0  0  0  0  0  0  0  0
   13.4240    6.8260   22.2660 O   0  0  0  0  0  0  0  0  0  0  0  0
   13.4920   -2.7430   21.0670 N   0  0  0  0  0  0  0  0  0  0  0  0
   13.2450   -1.8120   21.6750 C   0  0  0  0  0  0  0  0  0  0  0  0
    4.3790    1.6000   19.1430 N   0  0  0  0  0  0  0  0  0  0  0  0
    5.0710    1.4340   17.9120 C   0  0  0  0  0  0  0  0  0  0  0  0
    6.1580    0.6990   17.6600 N   0  0  0  0  0  0  0  0  0  0  0  0
    6.7500   -0.0330   18.7970 C   0  0  0  0  0  0  0  0  0  0  0  0
    6.1770    0.0200   20.1830 C   0  0  0  0  0  0  0  0  0  0  0  0
    4.9380    0.8810   20.3040 C   0  0  0  0  0  0  0  0  0  0  0  0
   12.5150    4.6230   21.7210 N   0  0  0  0  0  0  0  0  0  0  0  0
   12.6250    5.7880   22.6220 C   0  0  1  0  0  0  0  0  0  0  0  0
   13.3610    4.9420   23.3200 C   0  0  0  0  0  0  0  0  0  0  0  0
   13.1340    3.7370   22.7590 C   0  0  1  0  0  0  0  0  0  0  0  0
   11.3220   -1.0830   22.1780 C   0  0  0  0  0  0  0  0  0  0  0  0
   12.6360   -0.6700   22.1960 C   0  0  0  0  0  0  0  0  0  0  0  0
   13.0430    0.6350   22.6290 C   0  0  0  0  0  0  0  0  0  0  0  0
   11.9850    1.6160   23.0370 C   0  0  0  0  0  0  0  0  0  0  0  0
   10.6560    1.0900   22.9700 C   0  0  0  0  0  0  0  0  0  0  0  0
   10.3070   -0.1450   22.5890 C   0  0  0  0  0  0  0  0  0  0  0  0
  1  2  2  0
  1  3  1  0
  1  5  1  0
  7  8  3  0
  9 10  2  0
 10 11  1  0
 11 12  2  0
  3 13  1  0
 12 13  1  0
  9 14  1  0
 13 14  2  0
 16  6  1  6
 15 16  1  0
 16 17  1  0
 18  4  1  1
 15 18  1  0
 17 18  1  0
  8 20  1  0
 19 20  2  0
 20 21  1  0
  4 22  1  0
 21 22  2  0
 22 23  1  0
  5 24  1  0
 19 24  1  0
 23 24  2  0
M  END
