x2608-x1334
     RDKit          3D

 32 37  0  0  0  0  0  0  0  0999 V2000
    7.3060   -3.0490   18.8520 C   0  0  0  0  0  0  0  0  0  0  0  0
    5.4280   -4.2330   19.7850 O   0  0  0  0  0  0  0  0  0  0  0  0
    7.2330   -5.7360   28.5360 Cl  0  0  0  0  0  0  0  0  0  0  0  0
    6.3460   -3.3840   19.9540 C   0  0  0  0  0  0  0  0  0  0  0  0
    9.4870   -3.2270   23.9630 C   0  0  0  0  0  0  0  0  0  0  0  0
    8.6040   -0.8070   22.3610 C   0  0  2  0  0  0  0  0  0  0  0  0
   13.0210    2.0960   22.7820 C   0  0  0  0  0  0  0  0  0  0  0  0
    8.6360    1.5390   21.2070 O   0  0  0  0  0  0  0  0  0  0  0  0
    7.1470   -0.4640   21.0620 N   0  0  0  0  0  0  0  0  0  0  0  0
    8.1870    0.3840   21.4490 C   0  0  0  0  0  0  0  0  0  0  0  0
    6.5400   -2.7090   21.1650 N   0  0  0  0  0  0  0  0  0  0  0  0
    7.6430   -1.7480   21.2040 C   0  0  2  0  0  0  0  0  0  0  0  0
    8.6440   -2.1200   21.9300 C   0  0  2  0  0  0  0  0  0  0  0  0
    8.5170   -3.1070   22.9590 N   0  0  0  0  0  0  0  0  0  0  0  0
    7.6130   -4.1250   22.7340 C   0  0  0  0  0  0  0  0  0  0  0  0
    6.4220   -3.5400   22.2980 C   0  0  0  0  0  0  0  0  0  0  0  0
    9.7700   -5.3850   25.2400 C   0  0  0  0  0  0  0  0  0  0  0  0
    9.1770   -4.1280   25.0050 C   0  0  0  0  0  0  0  0  0  0  0  0
    8.0060   -3.9660   26.2910 S   0  0  0  0  0  0  0  0  0  0  0  0
    8.1630   -5.3670   27.1560 C   0  0  0  0  0  0  0  0  0  0  0  0
    9.2120   -6.1320   26.4780 C   0  0  0  0  0  0  0  0  0  0  0  0
   12.1610    0.9370   22.7590 C   0  0  0  0  0  0  0  0  0  0  0  0
   12.3970   -0.4850   22.8150 C   0  0  0  0  0  0  0  0  0  0  0  0
   11.2050   -1.1900   22.6980 C   0  0  0  0  0  0  0  0  0  0  0  0
   10.0530   -0.3840   22.5600 C   0  0  0  0  0  0  0  0  0  0  0  0
   10.3670    1.2740   22.6040 S   0  0  0  0  0  0  0  0  0  0  0  0
    6.1530    0.6230   17.6720 N   0  0  0  0  0  0  0  0  0  0  0  0
    6.7990    0.0620   18.6990 C   0  0  0  0  0  0  0  0  0  0  0  0
    6.3840    0.1180   20.0060 C   0  0  0  0  0  0  0  0  0  0  0  0
    5.2060    0.7890   20.2680 C   0  0  0  0  0  0  0  0  0  0  0  0
    4.4600    1.4070   19.2830 C   0  0  0  0  0  0  0  0  0  0  0  0
    4.9610    1.3180   17.9950 C   0  0  0  0  0  0  0  0  0  0  0  0
  1  4  1  0
  2  4  2  0
  6 10  1  0
  8 10  2  0
  9 10  1  0
  4 11  1  0
  6 12  1  0
 12  9  1  6
 11 12  1  0
  6 13  1  0
 12 13  1  0
  5 14  1  0
 13 14  1  1
 14 15  1  0
 11 16  1  0
 15 16  1  0
  5 18  1  0
 17 18  2  0
 18 19  1  0
  3 20  1  0
 19 20  1  0
 17 21  1  0
 20 21  2  0
  7 22  1  0
 22 23  2  0
 23 24  1  0
  6 25  1  1
 24 25  2  0
 22 26  1  0
 25 26  1  0
 27 28  2  0
  9 29  1  0
 28 29  1  0
 29 30  2  0
 30 31  1  0
 27 32  1  0
 31 32  2  0
M  END
