x2608-x0759
     RDKit          3D

 25 29  0  0  0  0  0  0  0  0999 V2000
    8.4950   -0.9950   22.2890 C   0  0  2  0  0  0  0  0  0  0  0  0
   13.0700    1.3870   22.9860 C   0  0  0  0  0  0  0  0  0  0  0  0
    8.5760    1.2670   21.1740 O   0  0  0  0  0  0  0  0  0  0  0  0
    7.1270   -0.7150   20.9530 N   0  0  0  0  0  0  0  0  0  0  0  0
    8.1170    0.1170   21.3850 C   0  0  0  0  0  0  0  0  0  0  0  0
    5.5350   -4.0770   19.7620 O   0  0  0  0  0  0  0  0  0  0  0  0
    6.6170   -3.4400   19.9870 C   0  0  0  0  0  0  0  0  0  0  0  0
    7.4550   -3.0270   18.8700 C   0  0  0  0  0  0  0  0  0  0  0  0
   12.1270    0.3040   22.8830 C   0  0  0  0  0  0  0  0  0  0  0  0
   12.2090   -1.2120   22.9710 C   0  0  0  0  0  0  0  0  0  0  0  0
   10.9430   -1.7340   22.7700 C   0  0  0  0  0  0  0  0  0  0  0  0
    9.9670   -0.8200   22.5530 C   0  0  0  0  0  0  0  0  0  0  0  0
   10.5370    0.7900   22.5990 S   0  0  0  0  0  0  0  0  0  0  0  0
    6.0810    0.5600   17.7140 N   0  0  0  0  0  0  0  0  0  0  0  0
    6.7640   -0.0770   18.7400 C   0  0  0  0  0  0  0  0  0  0  0  0
    6.2690   -0.0850   19.9840 C   0  0  0  0  0  0  0  0  0  0  0  0
    5.0680    0.4750   20.4540 C   0  0  0  0  0  0  0  0  0  0  0  0
    4.3240    1.1360   19.4910 C   0  0  0  0  0  0  0  0  0  0  0  0
    4.8390    1.1880   18.1220 C   0  0  0  0  0  0  0  0  0  0  0  0
    7.0860   -3.1870   21.2750 N   0  0  0  0  0  0  0  0  0  0  0  0
    7.3060   -1.9140   21.7390 C   0  0  1  0  0  0  0  0  0  0  0  0
    7.5840   -1.8550   23.1360 C   0  0  1  0  0  0  0  0  0  0  0  0
    8.1380   -3.0830   23.6860 O   0  0  0  0  0  0  0  0  0  0  0  0
    7.3130   -4.1700   23.4830 C   0  0  0  0  0  0  0  0  0  0  0  0
    6.6380   -4.0090   22.2580 C   0  0  0  0  0  0  0  0  0  0  0  0
  1  5  1  0
  3  5  2  0
  4  5  1  0
  6  7  2  0
  7  8  1  0
  2  9  1  0
  9 10  2  0
 10 11  1  0
  1 12  1  6
 11 12  2  0
  9 13  1  0
 12 13  1  0
 14 15  2  0
  4 16  1  0
 15 16  1  0
 16 17  2  0
 17 18  1  0
 14 19  1  0
 18 19  2  0
  7 20  1  0
  1 21  1  0
 21  4  1  1
 20 21  1  0
  1 22  1  0
 21 22  1  0
 22 23  1  6
 23 24  1  0
 20 25  1  0
 24 25  1  0
M  END
