x2600-x2705-x1311-x2643
     RDKit          3D

 49 53  0  0  0  0  0  0  0  0999 V2000
    6.6970   -1.3090   22.1600 N   0  0  0  0  0  0  0  0  0  0  0  0
    6.6380   -4.2970   20.3930 C   0  0  2  0  0  0  0  0  0  0  0  0
    4.6390   -2.9900   21.6290 O   0  0  0  0  0  0  0  0  0  0  0  0
    6.3900   -2.9030   20.3880 C   0  0  0  0  0  0  0  0  0  0  0  0
    7.6160    2.0780   22.9230 N   0  0  0  0  0  0  0  0  0  0  0  0
    8.6440    1.2700   21.1420 O   0  0  0  0  0  0  0  0  0  0  0  0
    5.8390   -2.3690   21.4870 C   0  0  0  0  0  0  0  0  0  0  0  0
    6.5080    0.1250   21.6690 C   0  0  1  0  0  0  0  0  0  0  0  0
    7.6590    1.1600   21.9080 C   0  0  0  0  0  0  0  0  0  0  0  0
   10.1960    2.1620   23.9810 C   0  0  0  0  0  0  0  0  0  0  0  0
    9.3530    1.3160   24.9290 C   0  0  0  0  0  0  0  0  0  0  0  0
    6.2230    4.6190   21.9330 C   0  0  0  0  0  0  0  0  0  0  0  0
   11.9430   -1.4400   23.3340 C   0  0  0  0  0  0  0  0  0  0  0  0
   12.4230   -0.1390   24.0050 C   0  0  0  0  0  0  0  0  0  0  0  0
   12.4280   -2.5710   24.2700 C   0  0  0  0  0  0  0  0  0  0  0  0
   12.7020   -1.5530   22.0590 C   0  0  0  0  0  0  0  0  0  0  0  0
    5.5640   -4.9290   19.7220 O   0  0  0  0  0  0  0  0  0  0  0  0
    6.6170   -4.8970   21.8270 N   0  0  0  0  0  0  0  0  0  0  0  0
    4.2800   -7.3070   25.1620 O   0  0  0  0  0  0  0  0  0  0  0  0
    2.7450   -5.4040   24.5960 O   0  0  0  0  0  0  0  0  0  0  0  0
   13.3480   -1.6530   21.0870 N   0  0  0  0  0  0  0  0  0  0  0  0
    6.3090    0.2540   17.9080 N   0  0  0  0  0  0  0  0  0  0  0  0
    5.1600    0.9420   17.8170 C   0  0  0  0  0  0  0  0  0  0  0  0
    4.3980    1.3640   18.8730 C   0  0  0  0  0  0  0  0  0  0  0  0
    4.8450    1.0760   20.1280 C   0  0  0  0  0  0  0  0  0  0  0  0
    6.0370    0.3740   20.2670 C   0  0  0  0  0  0  0  0  0  0  0  0
    6.7340   -0.0230   19.1480 C   0  0  0  0  0  0  0  0  0  0  0  0
    9.5980   -1.3390   24.3130 N   0  0  0  0  0  0  0  0  0  0  0  0
    8.2660   -1.3090   24.0600 N   0  0  0  0  0  0  0  0  0  0  0  0
    8.0680   -1.3660   22.7270 C   0  0  0  0  0  0  0  0  0  0  0  0
    9.4010   -1.4430   22.1670 C   0  0  0  0  0  0  0  0  0  0  0  0
   10.3920   -1.4160   23.2040 C   0  0  0  0  0  0  0  0  0  0  0  0
    9.4960    3.4300   23.5120 C   0  0  0  0  0  0  0  0  0  0  0  0
   10.2100    4.6120   23.6440 C   0  0  0  0  0  0  0  0  0  0  0  0
    9.5710    5.8310   23.1940 C   0  0  0  0  0  0  0  0  0  0  0  0
    8.2870    5.7450   22.6560 C   0  0  0  0  0  0  0  0  0  0  0  0
    7.6000    4.5300   22.5420 C   0  0  0  0  0  0  0  0  0  0  0  0
    8.1940    3.3690   22.9710 C   0  0  0  0  0  0  0  0  0  0  0  0
    8.4240   -5.9960   22.9810 C   0  0  0  0  0  0  0  0  0  0  0  0
    9.4070   -6.0170   23.9580 C   0  0  0  0  0  0  0  0  0  0  0  0
    9.6190   -4.9120   24.7900 C   0  0  0  0  0  0  0  0  0  0  0  0
    8.7970   -3.7980   24.5900 C   0  0  0  0  0  0  0  0  0  0  0  0
    7.8100   -3.7830   23.6060 C   0  0  0  0  0  0  0  0  0  0  0  0
    7.6180   -4.8990   22.7830 C   0  0  0  0  0  0  0  0  0  0  0  0
    4.7010   -6.2220   22.0020 C   0  0  0  0  0  0  0  0  0  0  0  0
    5.3380   -5.1650   22.5580 C   0  0  1  0  0  0  0  0  0  0  0  0
    5.3330   -5.1880   23.9590 C   0  0  0  0  0  0  0  0  0  0  0  0
    3.8990   -6.2130   24.2750 S   0  0  0  0  0  0  0  0  0  0  0  0
    3.7980   -6.8560   22.7800 C   0  0  0  0  0  0  0  0  0  0  0  0
  2  4  1  0
  1  7  1  0
  3  7  2  0
  4  7  1  0
  1  8  1  0
  5  9  1  0
  6  9  2  0
  8  9  1  6
 10 11  1  0
 13 14  1  0
 13 15  1  0
 13 16  1  0
  2 17  1  6
  2 18  1  0
 16 21  3  0
 22 23  2  0
 23 24  1  0
 24 25  2  0
  8 26  1  0
 25 26  1  0
 22 27  1  0
 26 27  2  0
 28 29  1  0
  1 30  1  0
 29 30  2  0
 30 31  1  0
 13 32  1  0
 28 32  1  0
 31 32  2  0
 10 33  1  0
 33 34  2  0
 34 35  1  0
 35 36  2  0
 12 37  1  0
 36 37  1  0
  5 38  1  0
 33 38  1  0
 37 38  2  0
 39 40  2  0
 40 41  1  0
 41 42  2  0
 42 43  1  0
 18 44  1  0
 39 44  1  0
 43 44  2  0
 46 18  1  6
 45 46  1  0
 46 47  1  0
 48 19  1  0
 20 48  1  0
 47 48  1  0
 45 49  2  0
 48 49  1  0
M  END
