x2600-x0107
     RDKit          3D

 19 20  0  0  0  0  0  0  0  0999 V2000
   13.9740   -1.5680   20.4440 N   0  0  0  0  0  0  0  0  0  0  0  0
    8.4260    0.3360   21.8020 C   0  0  0  0  0  0  0  0  0  0  0  0
    9.0560    1.3400   21.3780 O   0  0  0  0  0  0  0  0  0  0  0  0
    8.6840   -0.2510   23.1640 C   0  0  0  0  0  0  0  0  0  0  0  0
    7.3800   -0.4150   21.1200 N   0  0  0  0  0  0  0  0  0  0  0  0
   13.1950   -1.3590   21.5850 C   0  0  0  0  0  0  0  0  0  0  0  0
    4.9450    1.2610   21.8710 C   0  0  0  0  0  0  0  0  0  0  0  0
    6.2130    0.5720   17.5900 N   0  0  0  0  0  0  0  0  0  0  0  0
    6.9620   -0.0310   18.6830 C   0  0  0  0  0  0  0  0  0  0  0  0
    6.6120    0.1560   20.1410 C   0  0  0  0  0  0  0  0  0  0  0  0
    5.3990    1.0110   20.4020 C   0  0  0  0  0  0  0  0  0  0  0  0
    4.7200    1.5610   19.3190 C   0  0  0  0  0  0  0  0  0  0  0  0
    5.0780    1.3780   18.0130 C   0  0  0  0  0  0  0  0  0  0  0  0
   10.7190   -0.2090   24.6780 C   0  0  0  0  0  0  0  0  0  0  0  0
   12.0410   -0.3830   24.8400 C   0  0  0  0  0  0  0  0  0  0  0  0
   12.8690   -0.7660   23.8290 C   0  0  0  0  0  0  0  0  0  0  0  0
   12.3620   -0.9940   22.5930 C   0  0  0  0  0  0  0  0  0  0  0  0
   10.9470   -0.8530   22.2830 C   0  0  0  0  0  0  0  0  0  0  0  0
   10.1430   -0.4330   23.4200 C   0  0  0  0  0  0  0  0  0  0  0  0
  2  3  2  0
  2  4  1  0
  2  5  1  0
  1  6  3  0
  8  9  2  0
  5 10  1  0
  9 10  1  0
  7 11  1  0
 10 11  2  0
 11 12  1  0
  8 13  1  0
 12 13  2  0
 14 15  2  0
 15 16  1  0
  6 17  1  0
 16 17  2  0
 17 18  1  0
  4 19  1  0
 14 19  1  0
 18 19  2  0
M  END
