x2646-x0689
     RDKit          3D

 36 39  0  0  0  0  0  0  0  0999 V2000
    7.5880   -3.6610   20.5380 C   0  0  0  0  0  0  0  0  0  0  0  0
    5.6110   -4.9260   20.0290 O   0  0  0  0  0  0  0  0  0  0  0  0
    6.5960   -4.7400   20.8000 C   0  0  0  0  0  0  0  0  0  0  0  0
    3.8810   -6.4060   26.0020 O   0  0  0  0  0  0  0  0  0  0  0  0
    5.7130   -4.7210   26.8170 O   0  0  0  0  0  0  0  0  0  0  0  0
    4.6770   -5.1470   25.8200 S   0  0  0  0  0  0  0  0  0  0  0  0
    4.9530    0.9250   21.6320 C   0  0  0  0  0  0  0  0  0  0  0  0
    8.7930    0.8170   21.3710 O   0  0  0  0  0  0  0  0  0  0  0  0
   13.3440   -1.9070   21.1360 Cl  0  0  0  0  0  0  0  0  0  0  0  0
    7.0910   -0.9690   20.6450 N   0  0  0  0  0  0  0  0  0  0  0  0
    8.1430   -0.4520   21.5550 C   0  0  0  0  0  0  0  0  0  0  0  0
    8.5830   -1.2190   22.7440 C   0  0  0  0  0  0  0  0  0  0  0  0
    6.6890   -2.3930   20.5490 C   0  0  0  0  0  0  0  0  0  0  0  0
    6.7510   -5.4990   21.9270 N   0  0  0  0  0  0  0  0  0  0  0  0
    5.6220   -6.3950   22.2150 C   0  0  0  0  0  0  0  0  0  0  0  0
    4.7620   -5.9070   23.1930 C   0  0  0  0  0  0  0  0  0  0  0  0
    5.4830   -5.3560   24.3720 N   0  0  0  0  0  0  0  0  0  0  0  0
    6.4250   -4.3190   23.9370 C   0  0  0  0  0  0  0  0  0  0  0  0
    7.3170   -5.0460   23.1400 C   0  0  0  0  0  0  0  0  0  0  0  0
    3.9440   -2.1760   25.9950 S   0  0  0  0  0  0  0  0  0  0  0  0
    3.5070   -3.8240   25.7030 C   0  0  0  0  0  0  0  0  0  0  0  0
    2.1440   -3.9820   25.3830 C   0  0  0  0  0  0  0  0  0  0  0  0
    1.4570   -2.8000   25.3780 C   0  0  0  0  0  0  0  0  0  0  0  0
    2.3280   -1.6750   25.7050 C   0  0  0  0  0  0  0  0  0  0  0  0
    6.2170    0.7140   17.5440 N   0  0  0  0  0  0  0  0  0  0  0  0
    6.7520   -0.0600   18.5030 C   0  0  0  0  0  0  0  0  0  0  0  0
    6.4250   -0.0750   19.8220 C   0  0  0  0  0  0  0  0  0  0  0  0
    5.4230    0.8210   20.2070 C   0  0  0  0  0  0  0  0  0  0  0  0
    4.8350    1.6490   19.2320 C   0  0  0  0  0  0  0  0  0  0  0  0
    5.2540    1.5630   17.9370 C   0  0  0  0  0  0  0  0  0  0  0  0
   10.5040    0.0500   23.9260 C   0  0  0  0  0  0  0  0  0  0  0  0
   11.8540    0.3270   24.0100 C   0  0  0  0  0  0  0  0  0  0  0  0
   12.7510   -0.2640   23.1640 C   0  0  0  0  0  0  0  0  0  0  0  0
   12.2990   -1.1520   22.2140 C   0  0  0  0  0  0  0  0  0  0  0  0
   10.9550   -1.4550   22.0990 C   0  0  0  0  0  0  0  0  0  0  0  0
   10.0290   -0.8630   22.9440 C   0  0  0  0  0  0  0  0  0  0  0  0
  1  3  1  0
  2  3  2  0
  4  6  2  0
  5  6  2  0
  8 11  2  0
 10 11  1  0
 11 12  1  0
  1 13  1  0
 10 13  1  0
  3 14  1  0
 14 15  1  0
 15 16  1  0
  6 17  1  0
 16 17  1  0
 17 18  1  0
 14 19  1  0
 18 19  1  0
  6 21  1  0
 20 21  1  0
 21 22  2  0
 22 23  1  0
 20 24  1  0
 23 24  2  0
 25 26  2  0
 10 27  1  0
 26 27  1  0
  7 28  1  0
 27 28  2  0
 28 29  1  0
 25 30  1  0
 29 30  2  0
 31 32  2  0
 32 33  1  0
  9 34  1  0
 33 34  2  0
 34 35  1  0
 12 36  1  0
 31 36  1  0
 35 36  2  0
M  END
