x2643-x0991
     RDKit          3D

 22 23  0  0  0  0  0  0  0  0999 V2000
    6.7150   -1.0030   20.7580 N   0  0  0  0  0  0  0  0  0  0  0  0
    8.5480    0.2910   21.2590 O   0  0  0  0  0  0  0  0  0  0  0  0
   13.4390    0.2590   22.9080 Cl  0  0  0  0  0  0  0  0  0  0  0  0
    8.2210   -1.2980   22.7870 C   0  0  1  0  0  0  0  0  0  0  0  0
    7.8440   -0.6600   21.5990 C   0  0  0  0  0  0  0  0  0  0  0  0
    9.8300   -5.9170   25.2040 N   0  0  0  0  0  0  0  0  0  0  0  0
    8.9940   -3.4070   23.8580 C   0  0  0  0  0  0  0  0  0  0  0  0
    8.1100   -4.5010   24.3330 C   0  0  0  0  0  0  0  0  0  0  0  0
    8.1120   -5.1320   26.8420 N   0  0  0  0  0  0  0  0  0  0  0  0
    8.6960   -5.2040   25.4950 C   0  0  0  0  0  0  0  0  0  0  0  0
    8.4810   -2.7900   22.5980 C   0  0  0  0  0  0  0  0  0  0  0  0
   11.8130    0.0850   23.1980 C   0  0  0  0  0  0  0  0  0  0  0  0
   11.0170    0.7860   24.0670 C   0  0  0  0  0  0  0  0  0  0  0  0
    9.7430    0.3760   24.0180 C   0  0  0  0  0  0  0  0  0  0  0  0
    9.5070   -0.6400   23.1140 C   0  0  0  0  0  0  0  0  0  0  0  0
   10.9570   -1.1030   22.3170 S   0  0  0  0  0  0  0  0  0  0  0  0
    6.3480    0.8160   17.6000 N   0  0  0  0  0  0  0  0  0  0  0  0
    6.8100    0.0230   18.5820 C   0  0  0  0  0  0  0  0  0  0  0  0
    6.1690   -0.1670   19.7940 C   0  0  0  0  0  0  0  0  0  0  0  0
    4.9710    0.4990   20.0230 C   0  0  0  0  0  0  0  0  0  0  0  0
    4.3860    1.3910   19.0100 C   0  0  0  0  0  0  0  0  0  0  0  0
    5.1950    1.4760   17.7930 C   0  0  0  0  0  0  0  0  0  0  0  0
  1  5  1  0
  2  5  2  0
  4  5  1  0
  7  8  1  0
  6 10  2  3
  8 10  1  0
  9 10  1  0
  4 11  1  6
  7 11  1  0
  3 12  1  0
 12 13  2  0
 13 14  1  0
  4 15  1  0
 14 15  2  0
 12 16  1  0
 15 16  1  0
 17 18  2  0
  1 19  1  0
 18 19  1  0
 19 20  2  0
 20 21  1  0
 17 22  1  0
 21 22  2  0
M  END
