x2643-x1308
     RDKit          3D

 36 39  0  0  0  0  0  0  0  0999 V2000
    7.0310   -3.5580   19.8260 C   0  0  0  0  0  0  0  0  0  0  0  0
    5.3120   -5.1870   19.9990 O   0  0  0  0  0  0  0  0  0  0  0  0
    0.7500   -1.1970   26.3860 Cl  0  0  0  0  0  0  0  0  0  0  0  0
    6.3120   -4.6830   20.5070 C   0  0  0  0  0  0  0  0  0  0  0  0
    6.4560   -4.9770   26.7510 O   0  0  0  0  0  0  0  0  0  0  0  0
    4.7910   -6.7690   26.1290 O   0  0  0  0  0  0  0  0  0  0  0  0
    5.3820   -5.4650   25.9150 S   0  0  0  0  0  0  0  0  0  0  0  0
    7.2300   -1.0960   20.5890 N   0  0  0  0  0  0  0  0  0  0  0  0
    8.5630    0.6790   21.2640 O   0  0  0  0  0  0  0  0  0  0  0  0
   13.4780    0.1700   22.8950 Cl  0  0  0  0  0  0  0  0  0  0  0  0
    8.2990   -1.0960   22.8180 C   0  0  0  0  0  0  0  0  0  0  0  0
    8.0650   -0.4190   21.5340 C   0  0  0  0  0  0  0  0  0  0  0  0
    6.9660   -2.4480   20.8840 C   0  0  0  0  0  0  0  0  0  0  0  0
    6.7570   -5.2250   21.7130 N   0  0  0  0  0  0  0  0  0  0  0  0
    7.6630   -4.6550   22.7250 C   0  0  0  0  0  0  0  0  0  0  0  0
    6.8170   -4.2590   23.9370 C   0  0  0  0  0  0  0  0  0  0  0  0
    5.9050   -5.3760   24.3080 N   0  0  0  0  0  0  0  0  0  0  0  0
    5.1800   -5.9580   23.3240 C   0  0  0  0  0  0  0  0  0  0  0  0
    5.9740   -6.2040   22.2270 C   0  0  0  0  0  0  0  0  0  0  0  0
    4.3080   -3.0170   26.4010 C   0  0  0  0  0  0  0  0  0  0  0  0
    3.3150   -2.1050   26.5010 C   0  0  0  0  0  0  0  0  0  0  0  0
    1.9700   -2.3950   26.2270 C   0  0  0  0  0  0  0  0  0  0  0  0
    1.6540   -3.6930   25.8270 C   0  0  0  0  0  0  0  0  0  0  0  0
    2.6850   -4.7390   25.6960 C   0  0  0  0  0  0  0  0  0  0  0  0
    4.0470   -4.2900   26.0230 C   0  0  0  0  0  0  0  0  0  0  0  0
   11.8610    0.0980   23.2140 C   0  0  0  0  0  0  0  0  0  0  0  0
   11.1290    0.8660   24.0830 C   0  0  0  0  0  0  0  0  0  0  0  0
    9.8060    0.5220   24.0580 C   0  0  0  0  0  0  0  0  0  0  0  0
    9.5560   -0.4780   23.1790 C   0  0  0  0  0  0  0  0  0  0  0  0
   10.9650   -1.0360   22.3820 S   0  0  0  0  0  0  0  0  0  0  0  0
    6.3170    0.8350   17.6260 N   0  0  0  0  0  0  0  0  0  0  0  0
    6.9320    0.0530   18.5390 C   0  0  0  0  0  0  0  0  0  0  0  0
    6.4210   -0.2900   19.7460 C   0  0  0  0  0  0  0  0  0  0  0  0
    5.1540    0.1850   20.0850 C   0  0  0  0  0  0  0  0  0  0  0  0
    4.4770    0.9960   19.1670 C   0  0  0  0  0  0  0  0  0  0  0  0
    5.0990    1.2990   17.9520 C   0  0  0  0  0  0  0  0  0  0  0  0
  1  4  1  0
  2  4  2  0
  5  7  2  0
  6  7  2  0
  8 12  1  0
  9 12  2  0
 11 12  1  0
  1 13  1  0
  8 13  1  0
  4 14  1  0
 14 15  1  0
 15 16  1  0
  7 17  1  0
 16 17  1  0
 17 18  1  0
 14 19  1  0
 18 19  1  0
 20 21  2  0
  3 22  1  0
 21 22  1  0
 22 23  2  0
 23 24  1  0
  7 25  1  0
 20 25  1  0
 24 25  2  0
 10 26  1  0
 26 27  2  0
 27 28  1  0
 11 29  1  0
 28 29  2  0
 26 30  1  0
 29 30  1  0
 31 32  2  0
  8 33  1  0
 32 33  1  0
 33 34  2  0
 34 35  1  0
 31 36  1  0
 35 36  2  0
M  END
