x2643-x0786
     RDKit          3D

 36 39  0  0  0  0  0  0  0  0999 V2000
    6.1360   -3.8490   22.1210 N   0  0  0  0  0  0  0  0  0  0  0  0
    7.6350   -4.6570   20.6430 C   0  0  0  0  0  0  0  0  0  0  0  0
    5.2900   -4.5230   19.9710 O   0  0  0  0  0  0  0  0  0  0  0  0
    6.2310   -4.3560   20.8260 C   0  0  0  0  0  0  0  0  0  0  0  0
    3.7670   -8.0480   24.7730 O   0  0  0  0  0  0  0  0  0  0  0  0
    3.2220   -7.0560   24.3020 C   0  0  0  0  0  0  0  0  0  0  0  0
    6.7720   -0.8090   20.7980 N   0  0  0  0  0  0  0  0  0  0  0  0
    8.5330    0.6210   21.3010 O   0  0  0  0  0  0  0  0  0  0  0  0
   13.4390    0.2950   23.0830 Cl  0  0  0  0  0  0  0  0  0  0  0  0
    8.6110   -1.5580   22.1400 C   0  0  2  0  0  0  0  0  0  0  0  0
    7.9750   -0.4770   21.3740 C   0  0  0  0  0  0  0  0  0  0  0  0
    7.4600   -3.6350   22.6920 C   0  0  0  0  0  0  0  0  0  0  0  0
    7.6690   -2.2040   23.0520 C   0  0  0  0  0  0  0  0  0  0  0  0
    5.3920   -4.2940   23.1630 C   0  0  0  0  0  0  0  0  0  0  0  0
    4.7050   -5.4650   23.1300 C   0  0  0  0  0  0  0  0  0  0  0  0
    3.9930   -5.8160   24.2640 C   0  0  0  0  0  0  0  0  0  0  0  0
    3.9930   -5.0140   25.3540 C   0  0  0  0  0  0  0  0  0  0  0  0
    4.6900   -3.8030   25.4230 C   0  0  0  0  0  0  0  0  0  0  0  0
    5.3930   -3.4660   24.2890 C   0  0  0  0  0  0  0  0  0  0  0  0
    1.3970   -5.7190   23.2640 C   0  0  0  0  0  0  0  0  0  0  0  0
    0.5150   -5.1010   24.2650 C   0  0  0  0  0  0  0  0  0  0  0  0
   -0.9960   -6.0970   24.4230 S   0  0  0  0  0  0  0  0  0  0  0  0
   -0.1530   -7.6480   24.8730 C   0  0  0  0  0  0  0  0  0  0  0  0
    0.8410   -8.0320   23.9580 C   0  0  0  0  0  0  0  0  0  0  0  0
    1.8690   -7.0040   23.7820 N   0  0  0  0  0  0  0  0  0  0  0  0
   11.8290    0.0220   23.2290 C   0  0  0  0  0  0  0  0  0  0  0  0
   10.9180    0.5690   24.0590 C   0  0  0  0  0  0  0  0  0  0  0  0
    9.6590    0.1080   23.8500 C   0  0  0  0  0  0  0  0  0  0  0  0
    9.6650   -0.8050   22.8150 C   0  0  0  0  0  0  0  0  0  0  0  0
   11.2130   -1.0950   22.1770 S   0  0  0  0  0  0  0  0  0  0  0  0
    6.3450    0.8640   17.5690 N   0  0  0  0  0  0  0  0  0  0  0  0
    6.8430    0.1190   18.5710 C   0  0  0  0  0  0  0  0  0  0  0  0
    6.2200   -0.0440   19.7800 C   0  0  0  0  0  0  0  0  0  0  0  0
    4.9920    0.5790   20.0110 C   0  0  0  0  0  0  0  0  0  0  0  0
    4.4570    1.3550   18.9780 C   0  0  0  0  0  0  0  0  0  0  0  0
    5.1660    1.4700   17.7860 C   0  0  0  0  0  0  0  0  0  0  0  0
  1  4  1  0
  2  4  1  0
  3  4  2  0
  5  6  2  0
  7 11  1  0
  8 11  2  0
 10 11  1  0
  1 12  1  0
 10 13  1  1
 12 13  1  0
  1 14  1  0
 14 15  2  0
  6 16  1  0
 15 16  1  0
 16 17  2  0
 17 18  1  0
 14 19  1  0
 18 19  2  0
 20 21  1  0
 21 22  1  0
 22 23  1  0
 23 24  1  0
  6 25  1  0
 20 25  1  0
 24 25  1  0
  9 26  1  0
 26 27  2  0
 27 28  1  0
 10 29  1  0
 28 29  2  0
 26 30  1  0
 29 30  1  0
 31 32  2  0
  7 33  1  0
 32 33  1  0
 33 34  2  0
 34 35  1  0
 31 36  1  0
 35 36  2  0
M  END
