x2646-x1374
     RDKit          3D

 38 41  0  0  0  0  0  0  0  0999 V2000
   10.5970   -4.2740   25.9390 C   0  0  0  0  0  0  0  0  0  0  0  0
    6.4500   -4.7990   22.1350 N   0  0  0  0  0  0  0  0  0  0  0  0
    6.6060   -4.3720   20.8000 C   0  0  0  0  0  0  0  0  0  0  0  0
    5.6910   -4.4690   19.9380 O   0  0  0  0  0  0  0  0  0  0  0  0
    7.9770   -3.7470   20.4220 C   0  0  0  0  0  0  0  0  0  0  0  0
    2.3770   -6.9300   23.2600 O   0  0  0  0  0  0  0  0  0  0  0  0
    4.1890   -7.8730   24.9260 O   0  0  0  0  0  0  0  0  0  0  0  0
    4.5850    1.4840   21.6800 C   0  0  0  0  0  0  0  0  0  0  0  0
    8.7180    1.1500   21.2400 O   0  0  0  0  0  0  0  0  0  0  0  0
   13.2910   -1.9380   21.1610 Cl  0  0  0  0  0  0  0  0  0  0  0  0
    7.0090   -0.3130   21.2080 N   0  0  0  0  0  0  0  0  0  0  0  0
    8.1280    0.1350   21.6840 C   0  0  0  0  0  0  0  0  0  0  0  0
    8.6010   -0.6430   22.7330 C   0  0  0  0  0  0  0  0  0  0  0  0
    7.9430   -2.2250   20.4210 C   0  0  0  0  0  0  0  0  0  0  0  0
    6.9260   -1.6360   21.0890 C   0  0  0  0  0  0  0  0  0  0  0  0
    9.5050   -4.3900   24.9300 C   0  0  0  0  0  0  0  0  0  0  0  0
    8.9690   -3.2330   24.4980 C   0  0  0  0  0  0  0  0  0  0  0  0
    7.8270   -3.1470   23.4660 C   0  0  0  0  0  0  0  0  0  0  0  0
    7.4800   -4.6010   23.0750 C   0  0  0  0  0  0  0  0  0  0  0  0
    8.0910   -5.7340   23.5690 C   0  0  0  0  0  0  0  0  0  0  0  0
    9.1000   -5.6340   24.4950 C   0  0  0  0  0  0  0  0  0  0  0  0
    4.7160   -4.4600   23.7770 C   0  0  0  0  0  0  0  0  0  0  0  0
    5.1570   -5.1160   22.6260 C   0  0  2  0  0  0  0  0  0  0  0  0
    5.0040   -6.4970   22.6520 C   0  0  0  0  0  0  0  0  0  0  0  0
    3.7990   -6.6900   23.9380 S   0  0  0  0  0  0  0  0  0  0  0  0
    3.9540   -5.1760   24.6210 C   0  0  0  0  0  0  0  0  0  0  0  0
    6.3460    0.7040   17.6270 N   0  0  0  0  0  0  0  0  0  0  0  0
    6.8810    0.1360   18.7110 C   0  0  0  0  0  0  0  0  0  0  0  0
    6.3800    0.3230   20.1360 C   0  0  0  0  0  0  0  0  0  0  0  0
    5.1650    1.2310   20.3210 C   0  0  0  0  0  0  0  0  0  0  0  0
    4.5790    1.8600   19.0650 C   0  0  0  0  0  0  0  0  0  0  0  0
    5.2850    1.5000   17.7800 C   0  0  0  0  0  0  0  0  0  0  0  0
   10.6260    0.3010   23.8720 C   0  0  0  0  0  0  0  0  0  0  0  0
   11.9890    0.4240   24.0020 C   0  0  0  0  0  0  0  0  0  0  0  0
   12.8360   -0.2650   23.1740 C   0  0  0  0  0  0  0  0  0  0  0  0
   12.2870   -1.0910   22.2050 C   0  0  0  0  0  0  0  0  0  0  0  0
   10.9220   -1.2260   22.0640 C   0  0  0  0  0  0  0  0  0  0  0  0
   10.0850   -0.5240   22.8930 C   0  0  0  0  0  0  0  0  0  0  0  0
  2  3  1  0
  3  4  2  0
  3  5  1  0
  9 12  2  0
 11 12  1  0
 12 13  1  0
  5 14  1  0
 11 15  1  0
 14 15  1  0
  1 16  1  0
 16 17  2  0
 17 18  1  0
  2 19  1  0
 18 19  2  0
 19 20  1  0
 16 21  1  0
 20 21  2  0
 23  2  1  1
 22 23  1  0
 23 24  1  0
 25  6  1  0
  7 25  1  0
 24 25  1  0
 22 26  2  0
 25 26  1  0
 27 28  2  0
 11 29  1  0
 28 29  1  0
  8 30  1  0
 29 30  2  0
 30 31  1  0
 27 32  1  0
 31 32  2  0
 33 34  2  0
 34 35  1  0
 10 36  1  0
 35 36  2  0
 36 37  1  0
 13 38  1  0
 33 38  1  0
 37 38  2  0
M  END
