x2649-x1380
     RDKit          3D

 37 40  0  0  0  0  0  0  0  0999 V2000
    7.0380   -0.9340   20.7280 N   0  0  0  0  0  0  0  0  0  0  0  0
    7.8580   -0.6600   24.0080 C   0  0  0  0  0  0  0  0  0  0  0  0
    8.1950    1.1240   21.4230 O   0  0  0  0  0  0  0  0  0  0  0  0
   13.2810   -2.2180   21.2910 Cl  0  0  0  0  0  0  0  0  0  0  0  0
    8.5210   -0.9960   22.6690 C   0  0  1  0  0  0  0  0  0  0  0  0
    7.8810   -0.2560   21.5930 C   0  0  0  0  0  0  0  0  0  0  0  0
    4.9180    0.9870   21.5260 C   0  0  0  0  0  0  0  0  0  0  0  0
    7.1720   -3.2760   19.3580 C   0  0  0  0  0  0  0  0  0  0  0  0
    5.2240   -4.5090   19.8760 O   0  0  0  0  0  0  0  0  0  0  0  0
    6.3020   -4.0430   20.3040 C   0  0  0  0  0  0  0  0  0  0  0  0
    4.6480   -2.9500   25.1270 O   0  0  0  0  0  0  0  0  0  0  0  0
    5.9020   -3.5600   25.3930 C   0  0  0  0  0  0  0  0  0  0  0  0
    7.7230   -1.9230   19.9040 C   0  0  0  0  0  0  0  0  0  0  0  0
    6.1010    0.6810   17.5340 N   0  0  0  0  0  0  0  0  0  0  0  0
    5.1140    1.5640   17.9780 C   0  0  0  0  0  0  0  0  0  0  0  0
    4.7370    1.6400   19.3220 C   0  0  0  0  0  0  0  0  0  0  0  0
    5.3400    0.8420   20.2530 C   0  0  0  0  0  0  0  0  0  0  0  0
    6.3410   -0.0710   19.8870 C   0  0  0  0  0  0  0  0  0  0  0  0
    6.7090   -0.1480   18.5760 C   0  0  0  0  0  0  0  0  0  0  0  0
   10.5010    0.6010   23.2960 C   0  0  0  0  0  0  0  0  0  0  0  0
   11.9380    0.8520   23.2540 C   0  0  0  0  0  0  0  0  0  0  0  0
   12.7980   -0.0140   22.6580 C   0  0  0  0  0  0  0  0  0  0  0  0
   12.2660   -1.1550   22.0780 C   0  0  0  0  0  0  0  0  0  0  0  0
   10.9060   -1.4760   22.0860 C   0  0  0  0  0  0  0  0  0  0  0  0
    9.9830   -0.6700   22.6630 C   0  0  0  0  0  0  0  0  0  0  0  0
    6.7450   -4.3030   21.6040 N   0  0  0  0  0  0  0  0  0  0  0  0
    6.2770   -5.5080   22.2960 C   0  0  0  0  0  0  0  0  0  0  0  0
    5.7530   -4.8990   23.4340 C   0  0  0  0  0  0  0  0  0  0  0  0
    6.6830   -4.2420   24.2630 C   0  0  0  0  0  0  0  0  0  0  0  0
    7.3670   -3.2030   23.6350 C   0  0  0  0  0  0  0  0  0  0  0  0
    7.7920   -3.5180   22.3550 C   0  0  0  0  0  0  0  0  0  0  0  0
    7.8320   -3.9210   26.8510 C   0  0  0  0  0  0  0  0  0  0  0  0
    7.9460   -5.1730   27.4580 C   0  0  0  0  0  0  0  0  0  0  0  0
    7.2130   -5.3630   28.6240 C   0  0  0  0  0  0  0  0  0  0  0  0
    5.8720   -4.9880   28.5380 C   0  0  0  0  0  0  0  0  0  0  0  0
    5.6620   -3.6090   27.9160 C   0  0  0  0  0  0  0  0  0  0  0  0
    6.4370   -3.5420   26.6800 N   0  0  0  0  0  0  0  0  0  0  0  0
  5  2  1  1
  1  6  1  0
  3  6  2  0
  5  6  1  0
  8 10  1  0
  9 10  2  0
 11 12  2  0
  1 13  1  0
  8 13  1  0
 14 15  2  0
 15 16  1  0
  7 17  1  0
 16 17  2  0
  1 18  1  0
 17 18  1  0
 14 19  1  0
 18 19  2  0
 20 21  2  0
 21 22  1  0
  4 23  1  0
 22 23  2  0
 23 24  1  0
  5 25  1  0
 20 25  1  0
 24 25  2  0
 10 26  1  0
 26 27  1  0
 27 28  1  0
 12 29  1  0
 28 29  1  0
 29 30  1  0
 26 31  1  0
 30 31  1  0
 32 33  1  0
 33 34  1  0
 34 35  1  0
 35 36  1  0
 12 37  1  0
 32 37  1  0
 36 37  1  0
M  END
