x2646-x3077
     RDKit          3D

 28 32  0  0  0  0  0  0  0  0999 V2000
    6.9960   -3.2130   19.1570 C   0  0  0  0  0  0  0  0  0  0  0  0
    5.4580   -4.8280   19.9860 O   0  0  0  0  0  0  0  0  0  0  0  0
   13.2560   -2.1630   21.0960 Cl  0  0  0  0  0  0  0  0  0  0  0  0
    6.3000   -3.9300   20.2440 C   0  0  0  0  0  0  0  0  0  0  0  0
    8.7780   -1.0740   23.3480 C   0  0  1  0  0  0  0  0  0  0  0  0
    4.1740    1.4250   21.0850 C   0  0  0  0  0  0  0  0  0  0  0  0
    8.9520   -1.0390   20.9350 O   0  0  0  0  0  0  0  0  0  0  0  0
    6.8520   -0.5470   21.5850 N   0  0  0  0  0  0  0  0  0  0  0  0
    8.2440   -0.7190   21.8650 C   0  0  2  0  0  0  0  0  0  0  0  0
    6.6400   -3.5820   21.5230 N   0  0  0  0  0  0  0  0  0  0  0  0
    7.1920   -4.4040   22.6460 C   0  0  0  0  0  0  0  0  0  0  0  0
    7.3920   -3.3320   23.6720 C   0  0  2  0  0  0  0  0  0  0  0  0
    6.1310   -2.7570   23.4180 C   0  0  0  0  0  0  0  0  0  0  0  0
    6.2850   -2.2830   22.1450 C   0  0  1  0  0  0  0  0  0  0  0  0
    8.3260   -2.4360   23.0680 N   0  0  0  0  0  0  0  0  0  0  0  0
    7.3060   -1.5420   22.6480 C   0  0  1  0  0  0  0  0  0  0  0  0
   10.7790    0.1450   24.0790 C   0  0  0  0  0  0  0  0  0  0  0  0
   12.1370    0.4280   23.9700 C   0  0  0  0  0  0  0  0  0  0  0  0
   12.9230   -0.2510   23.0720 C   0  0  0  0  0  0  0  0  0  0  0  0
   12.3340   -1.2870   22.2260 C   0  0  0  0  0  0  0  0  0  0  0  0
   10.9170   -1.5220   22.3920 C   0  0  0  0  0  0  0  0  0  0  0  0
   10.1620   -0.8080   23.2970 C   0  0  0  0  0  0  0  0  0  0  0  0
    6.4390    0.4770   17.9260 N   0  0  0  0  0  0  0  0  0  0  0  0
    6.9400   -0.1130   19.0710 C   0  0  0  0  0  0  0  0  0  0  0  0
    6.3620    0.0380   20.3540 C   0  0  0  0  0  0  0  0  0  0  0  0
    5.2680    0.8170   20.2960 C   0  0  0  0  0  0  0  0  0  0  0  0
    4.6570    1.4590   19.2530 C   0  0  0  0  0  0  0  0  0  0  0  0
    5.3170    1.2390   18.0640 C   0  0  0  0  0  0  0  0  0  0  0  0
  1  4  1  0
  2  4  2  0
  5  9  1  0
  9  7  1  1
  8  9  1  0
  4 10  1  0
 10 11  1  0
 12 11  1  6
 12 13  1  0
 14 10  1  6
 13 14  1  0
  5 15  1  0
 12 15  1  0
  9 16  1  0
 14 16  1  0
 16 15  1  6
 17 18  2  0
 18 19  1  0
  3 20  1  0
 19 20  2  0
 20 21  1  0
  5 22  1  6
 17 22  1  0
 21 22  2  0
 23 24  2  0
  8 25  1  0
 24 25  1  0
  6 26  1  0
 25 26  2  0
 26 27  1  0
 23 28  1  0
 27 28  2  0
M  END
