x2646-x0995
     RDKit          3D

 19 20  0  0  0  0  0  0  0  0999 V2000
    4.6740    1.2210   21.5160 C   0  0  0  0  0  0  0  0  0  0  0  0
    8.8700    1.1400   21.3090 O   0  0  0  0  0  0  0  0  0  0  0  0
   13.1670   -2.3410   21.1280 Cl  0  0  0  0  0  0  0  0  0  0  0  0
    7.1150   -0.5680   21.1520 N   0  0  0  0  0  0  0  0  0  0  0  0
    8.2160   -0.0560   21.8020 C   0  0  0  0  0  0  0  0  0  0  0  0
    8.6980   -0.7840   23.0360 C   0  0  0  0  0  0  0  0  0  0  0  0
    3.4970    2.4810   19.0530 N   0  0  0  0  0  0  0  0  0  0  0  0
    6.3550    0.6200   17.5650 N   0  0  0  0  0  0  0  0  0  0  0  0
    6.9880   -0.0590   18.6770 C   0  0  0  0  0  0  0  0  0  0  0  0
    6.5180    0.0650   20.0550 C   0  0  0  0  0  0  0  0  0  0  0  0
    5.2900    0.9720   20.1830 C   0  0  0  0  0  0  0  0  0  0  0  0
    4.6870    1.6250   18.9590 C   0  0  0  0  0  0  0  0  0  0  0  0
    5.2780    1.3990   17.7380 C   0  0  0  0  0  0  0  0  0  0  0  0
   10.7660    0.1730   23.9210 C   0  0  0  0  0  0  0  0  0  0  0  0
   12.1430    0.2890   23.9430 C   0  0  0  0  0  0  0  0  0  0  0  0
   12.8420   -0.4860   23.0830 C   0  0  0  0  0  0  0  0  0  0  0  0
   12.2650   -1.3950   22.1770 C   0  0  0  0  0  0  0  0  0  0  0  0
   10.9010   -1.4810   22.1770 C   0  0  0  0  0  0  0  0  0  0  0  0
   10.1020   -0.6800   23.0660 C   0  0  0  0  0  0  0  0  0  0  0  0
  2  5  2  0
  4  5  1  0
  5  6  1  0
  8  9  2  0
  4 10  1  0
  9 10  1  0
  1 11  1  0
 10 11  2  0
  7 12  1  0
 11 12  1  0
  8 13  1  0
 12 13  2  0
 14 15  2  0
 15 16  1  0
  3 17  1  0
 16 17  2  0
 17 18  1  0
  6 19  1  0
 14 19  1  0
 18 19  2  0
M  END
