x2643-x2643-x2608
     RDKit          3D

 16 17  0  0  0  0  0  0  0  0999 V2000
    6.7390   -1.0380   20.8400 N   0  0  0  0  0  0  0  0  0  0  0  0
    8.5300    0.3340   21.2820 O   0  0  0  0  0  0  0  0  0  0  0  0
   13.4440    0.2420   22.9290 Cl  0  0  0  0  0  0  0  0  0  0  0  0
    8.3760   -1.6750   22.5480 C   0  0  0  0  0  0  0  0  0  0  0  0
    7.8920   -0.7000   21.4920 C   0  0  0  0  0  0  0  0  0  0  0  0
   11.8340   -0.0410   23.2020 C   0  0  0  0  0  0  0  0  0  0  0  0
   11.0010    0.5590   24.0960 C   0  0  0  0  0  0  0  0  0  0  0  0
    9.5930    0.0430   24.0270 C   0  0  0  0  0  0  0  0  0  0  0  0
    9.5260   -0.9210   23.0350 C   0  0  0  0  0  0  0  0  0  0  0  0
   11.0480   -1.2030   22.2780 S   0  0  0  0  0  0  0  0  0  0  0  0
    6.3650    0.7740   17.6200 N   0  0  0  0  0  0  0  0  0  0  0  0
    6.8100   -0.0090   18.6280 C   0  0  0  0  0  0  0  0  0  0  0  0
    6.1570   -0.1800   19.8410 C   0  0  0  0  0  0  0  0  0  0  0  0
    4.9560    0.4630   20.1120 C   0  0  0  0  0  0  0  0  0  0  0  0
    4.3470    1.3830   19.0460 C   0  0  0  0  0  0  0  0  0  0  0  0
    5.2120    1.4470   17.7770 C   0  0  0  0  0  0  0  0  0  0  0  0
  1  5  1  0
  2  5  2  0
  4  5  1  0
  3  6  1  0
  6  7  2  0
  7  8  1  0
  4  9  1  0
  8  9  2  0
  6 10  1  0
  9 10  1  0
 11 12  2  0
  1 13  1  0
 12 13  1  0
 13 14  2  0
 14 15  1  0
 11 16  1  0
 15 16  2  0
M  END
