x2646-x2562
     RDKit          3D

 24 26  0  0  0  0  0  0  0  0999 V2000
    8.1190    0.2130   21.2990 C   0  0  0  0  0  0  0  0  0  0  0  0
    8.2780    1.3910   20.9290 O   0  0  0  0  0  0  0  0  0  0  0  0
    6.9480   -0.6260   20.8650 C   0  0  0  0  0  0  0  0  0  0  0  0
   12.0990    2.8800   23.4130 O   0  0  0  0  0  0  0  0  0  0  0  0
    8.9110   -0.5020   22.1120 N   0  0  0  0  0  0  0  0  0  0  0  0
   12.9290    6.8450   22.4010 O   0  0  0  0  0  0  0  0  0  0  0  0
    4.4840    0.9940   21.4840 C   0  0  0  0  0  0  0  0  0  0  0  0
   13.4680   -2.0840   22.5440 Cl  0  0  0  0  0  0  0  0  0  0  0  0
    4.4840    1.6210   19.1600 N   0  0  0  0  0  0  0  0  0  0  0  0
    5.0370    1.5500   17.9170 C   0  0  0  0  0  0  0  0  0  0  0  0
    6.2010    0.7680   17.5620 N   0  0  0  0  0  0  0  0  0  0  0  0
    6.7330    0.1010   18.5830 C   0  0  0  0  0  0  0  0  0  0  0  0
    6.2310    0.1420   19.8510 C   0  0  0  0  0  0  0  0  0  0  0  0
    5.1010    0.9020   20.1210 C   0  0  0  0  0  0  0  0  0  0  0  0
   12.4860    4.5950   21.7310 N   0  0  0  0  0  0  0  0  0  0  0  0
   13.4960    5.5790   22.1790 C   0  0  2  0  0  0  0  0  0  0  0  0
   13.5170    4.7710   23.2400 C   0  0  0  0  0  0  0  0  0  0  0  0
   13.0740    3.6150   22.6980 C   0  0  1  0  0  0  0  0  0  0  0  0
   11.1910   -1.1200   22.3570 C   0  0  0  0  0  0  0  0  0  0  0  0
   12.4650   -0.7580   22.6520 C   0  0  0  0  0  0  0  0  0  0  0  0
   12.8650    0.5550   23.0020 C   0  0  0  0  0  0  0  0  0  0  0  0
   11.8950    1.5790   23.0700 C   0  0  0  0  0  0  0  0  0  0  0  0
   10.5590    1.2190   22.7650 C   0  0  0  0  0  0  0  0  0  0  0  0
   10.2110   -0.2010   22.3940 C   0  0  0  0  0  0  0  0  0  0  0  0
  1  2  2  0
  1  3  1  0
  1  5  1  0
  9 10  2  0
 10 11  1  0
 11 12  2  0
  3 13  1  0
 12 13  1  0
  7 14  1  0
  9 14  1  0
 13 14  2  0
 16  6  1  1
 15 16  1  0
 16 17  1  0
 18  4  1  1
 15 18  1  0
 17 18  1  0
  8 20  1  0
 19 20  2  0
 20 21  1  0
  4 22  1  0
 21 22  2  0
 22 23  1  0
  5 24  1  0
 19 24  1  0
 23 24  2  0
M  END
