x2643-x0540
     RDKit          3D

 28 30  0  0  0  0  0  0  0  0999 V2000
    2.8630    1.5090   24.4180 O   0  0  0  0  0  0  0  0  0  0  0  0
    2.9710    2.3610   23.5380 C   0  0  0  0  0  0  0  0  0  0  0  0
    4.2790    2.5630   22.8400 N   0  0  0  0  0  0  0  0  0  0  0  0
    5.1270    1.4020   22.5610 C   0  0  0  0  0  0  0  0  0  0  0  0
    4.4090    0.4230   21.6220 C   0  0  0  0  0  0  0  0  0  0  0  0
    1.8450    3.2180   23.1290 N   0  0  0  0  0  0  0  0  0  0  0  0
    6.7380   -1.2140   20.9410 N   0  0  0  0  0  0  0  0  0  0  0  0
    8.5750    0.2200   21.3320 O   0  0  0  0  0  0  0  0  0  0  0  0
   13.4370    0.3240   22.9420 Cl  0  0  0  0  0  0  0  0  0  0  0  0
    8.4510   -1.7320   22.6550 C   0  0  0  0  0  0  0  0  0  0  0  0
    7.9650   -0.8190   21.6000 C   0  0  0  0  0  0  0  0  0  0  0  0
    6.1530   -0.3730   19.9870 C   0  0  0  0  0  0  0  0  0  0  0  0
    6.6860   -0.2630   18.5980 C   0  0  0  0  0  0  0  0  0  0  0  0
    6.1540    0.5490   17.6610 N   0  0  0  0  0  0  0  0  0  0  0  0
    5.0930    1.2770   18.0400 C   0  0  0  0  0  0  0  0  0  0  0  0
    4.5270    1.2440   19.2900 C   0  0  0  0  0  0  0  0  0  0  0  0
    5.0410    0.4210   20.2960 C   0  0  0  0  0  0  0  0  0  0  0  0
    0.5460    4.7500   24.5410 C   0  0  0  0  0  0  0  0  0  0  0  0
   -0.6900    4.9650   25.1810 C   0  0  0  0  0  0  0  0  0  0  0  0
   -1.7970    4.6030   24.4180 C   0  0  0  0  0  0  0  0  0  0  0  0
   -1.8040    3.2770   23.7930 C   0  0  0  0  0  0  0  0  0  0  0  0
   -0.5050    3.0200   23.1590 C   0  0  0  0  0  0  0  0  0  0  0  0
    0.6290    3.3360   23.9290 C   0  0  0  0  0  0  0  0  0  0  0  0
   11.8380   -0.0290   23.2220 C   0  0  0  0  0  0  0  0  0  0  0  0
   10.9670    0.5390   24.1280 C   0  0  0  0  0  0  0  0  0  0  0  0
    9.7480    0.0200   24.0560 C   0  0  0  0  0  0  0  0  0  0  0  0
    9.6140   -0.9570   23.0960 C   0  0  0  0  0  0  0  0  0  0  0  0
   11.1080   -1.2270   22.2980 S   0  0  0  0  0  0  0  0  0  0  0  0
  1  2  2  0
  2  3  1  0
  3  4  1  0
  4  5  1  0
  2  6  1  0
  7 11  1  0
  8 11  2  0
 10 11  1  0
  7 12  1  0
 12 13  2  0
 13 14  1  0
 14 15  2  0
 15 16  1  0
  5 17  1  0
 12 17  1  0
 16 17  2  0
 18 19  1  0
 19 20  1  0
 20 21  1  0
 21 22  1  0
  6 23  1  0
 18 23  1  0
 22 23  1  0
  9 24  1  0
 24 25  2  0
 25 26  1  0
 10 27  1  0
 26 27  2  0
 24 28  1  0
 27 28  1  0
M  END
