x2646-x1334
     RDKit          3D

 34 39  0  0  0  0  0  0  0  0999 V2000
    4.3340    1.0540   21.5000 C   0  0  0  0  0  0  0  0  0  0  0  0
    8.5870    0.6770   20.9950 O   0  0  0  0  0  0  0  0  0  0  0  0
   13.3380   -1.9310   21.1780 Cl  0  0  0  0  0  0  0  0  0  0  0  0
    6.6630   -0.5590   21.2900 N   0  0  0  0  0  0  0  0  0  0  0  0
    7.9230   -0.2960   21.7880 C   0  0  2  0  0  0  0  0  0  0  0  0
    8.6170   -0.8030   22.7800 C   0  0  2  0  0  0  0  0  0  0  0  0
    7.2350   -2.9830   18.7910 C   0  0  0  0  0  0  0  0  0  0  0  0
    5.3250   -4.1130   19.6940 O   0  0  0  0  0  0  0  0  0  0  0  0
    7.3700   -5.7580   28.5130 Cl  0  0  0  0  0  0  0  0  0  0  0  0
    6.2390   -3.3090   19.8940 C   0  0  0  0  0  0  0  0  0  0  0  0
    9.4380   -3.2710   24.0670 C   0  0  0  0  0  0  0  0  0  0  0  0
    6.4120    0.6390   17.7610 N   0  0  0  0  0  0  0  0  0  0  0  0
    6.8260    0.0100   18.8920 C   0  0  0  0  0  0  0  0  0  0  0  0
    6.2060    0.1030   20.1290 C   0  0  0  0  0  0  0  0  0  0  0  0
    5.0820    0.8880   20.2150 C   0  0  0  0  0  0  0  0  0  0  0  0
    4.6440    1.5370   19.0690 C   0  0  0  0  0  0  0  0  0  0  0  0
    5.3160    1.4000   17.8720 C   0  0  0  0  0  0  0  0  0  0  0  0
   10.6820    0.5050   23.7290 C   0  0  0  0  0  0  0  0  0  0  0  0
   12.0540    0.7720   23.8050 C   0  0  0  0  0  0  0  0  0  0  0  0
   12.9590    0.0450   23.0340 C   0  0  0  0  0  0  0  0  0  0  0  0
   12.4160   -0.9600   22.1890 C   0  0  0  0  0  0  0  0  0  0  0  0
   10.9440   -1.1870   22.1570 C   0  0  0  0  0  0  0  0  0  0  0  0
   10.1310   -0.4690   22.9030 C   0  0  0  0  0  0  0  0  0  0  0  0
    6.4090   -2.7280   21.1320 N   0  0  0  0  0  0  0  0  0  0  0  0
    7.5220   -1.7330   21.2210 C   0  0  2  0  0  0  0  0  0  0  0  0
    8.5510   -2.1860   22.1720 C   0  0  2  0  0  0  0  0  0  0  0  0
    8.1900   -2.9600   23.3580 N   0  0  0  0  0  0  0  0  0  0  0  0
    7.3150   -4.0540   22.9580 C   0  0  0  0  0  0  0  0  0  0  0  0
    6.1370   -3.5510   22.3210 C   0  0  0  0  0  0  0  0  0  0  0  0
    9.8310   -5.4250   25.3870 C   0  0  0  0  0  0  0  0  0  0  0  0
    9.1920   -4.2330   25.1640 C   0  0  0  0  0  0  0  0  0  0  0  0
    7.9740   -3.8970   26.3300 S   0  0  0  0  0  0  0  0  0  0  0  0
    8.2800   -5.3420   27.1320 C   0  0  0  0  0  0  0  0  0  0  0  0
    9.3400   -6.1030   26.5110 C   0  0  0  0  0  0  0  0  0  0  0  0
  5  2  1  1
  4  5  1  0
  5  6  1  0
  7 10  1  0
  8 10  2  0
 12 13  2  0
  4 14  1  0
 13 14  1  0
  1 15  1  0
 14 15  2  0
 15 16  1  0
 12 17  1  0
 16 17  2  0
 18 19  2  0
 19 20  1  0
  3 21  1  0
 20 21  2  0
 21 22  1  0
  6 23  1  6
 18 23  1  0
 22 23  2  0
 10 24  1  0
 25  4  1  6
  5 25  1  0
 24 25  1  0
  6 26  1  0
 25 26  1  0
 11 27  1  0
 26 27  1  1
 27 28  1  0
 24 29  1  0
 28 29  1  0
 11 31  1  0
 30 31  2  0
 31 32  1  0
  9 33  1  0
 32 33  1  0
 30 34  1  0
 33 34  2  0
M  END
