x2649-x0434
     RDKit          3D

 19 20  0  0  0  0  0  0  0  0999 V2000
    6.9640   -0.7750   20.9870 N   0  0  0  0  0  0  0  0  0  0  0  0
    7.9070   -1.2640   24.0380 C   0  0  0  0  0  0  0  0  0  0  0  0
    8.6000    0.6230   21.3860 O   0  0  0  0  0  0  0  0  0  0  0  0
   13.2250   -2.3810   21.1380 Cl  0  0  0  0  0  0  0  0  0  0  0  0
    8.6240   -1.1780   22.7230 C   0  0  1  0  0  0  0  0  0  0  0  0
    8.0400   -0.4340   21.6730 C   0  0  0  0  0  0  0  0  0  0  0  0
    4.8850    1.1000   21.7470 C   0  0  0  0  0  0  0  0  0  0  0  0
    6.2180    0.5960   17.6260 N   0  0  0  0  0  0  0  0  0  0  0  0
    5.2450    1.4910   17.8360 C   0  0  0  0  0  0  0  0  0  0  0  0
    4.6810    1.7740   19.1900 C   0  0  0  0  0  0  0  0  0  0  0  0
    5.3500    0.9140   20.3350 C   0  0  0  0  0  0  0  0  0  0  0  0
    6.3610    0.0000   20.0040 C   0  0  0  0  0  0  0  0  0  0  0  0
    6.7370   -0.1050   18.6680 C   0  0  0  0  0  0  0  0  0  0  0  0
   10.5280    0.1620   23.7180 C   0  0  0  0  0  0  0  0  0  0  0  0
   11.9760    0.5060   23.8470 C   0  0  0  0  0  0  0  0  0  0  0  0
   12.8980   -0.3130   23.0090 C   0  0  0  0  0  0  0  0  0  0  0  0
   12.2980   -1.3910   22.1320 C   0  0  0  0  0  0  0  0  0  0  0  0
   10.9500   -1.6040   22.1020 C   0  0  0  0  0  0  0  0  0  0  0  0
   10.0710   -0.8630   22.8600 C   0  0  0  0  0  0  0  0  0  0  0  0
  5  2  1  1
  1  6  1  0
  3  6  2  0
  5  6  1  0
  8  9  2  0
  9 10  1  0
  7 11  1  0
 10 11  2  0
  1 12  1  0
 11 12  1  0
  8 13  1  0
 12 13  2  0
 14 15  2  0
 15 16  1  0
  4 17  1  0
 16 17  2  0
 17 18  1  0
  5 19  1  0
 14 19  1  0
 18 19  2  0
M  END
