x2643-x2562
     RDKit          3D

 23 25  0  0  0  0  0  0  0  0999 V2000
    8.3670    0.1240   21.4300 C   0  0  0  0  0  0  0  0  0  0  0  0
    8.5120    1.3150   21.0870 O   0  0  0  0  0  0  0  0  0  0  0  0
    7.1380   -0.6780   21.0180 C   0  0  0  0  0  0  0  0  0  0  0  0
   12.0850    3.0170   23.1970 O   0  0  0  0  0  0  0  0  0  0  0  0
    9.2360   -0.6320   22.1880 N   0  0  0  0  0  0  0  0  0  0  0  0
   13.3790    6.9010   22.2830 O   0  0  0  0  0  0  0  0  0  0  0  0
    8.9550   -2.0520   22.3490 C   0  0  0  0  0  0  0  0  0  0  0  0
    4.5640    1.5670   19.2270 N   0  0  0  0  0  0  0  0  0  0  0  0
    5.0900    1.3970   18.0020 C   0  0  0  0  0  0  0  0  0  0  0  0
    6.1520    0.6430   17.6660 N   0  0  0  0  0  0  0  0  0  0  0  0
    6.7910   -0.0200   18.6530 C   0  0  0  0  0  0  0  0  0  0  0  0
    6.4090    0.0410   19.9530 C   0  0  0  0  0  0  0  0  0  0  0  0
    5.1900    0.9120   20.2100 C   0  0  0  0  0  0  0  0  0  0  0  0
   12.7560    4.7390   21.6240 N   0  0  0  0  0  0  0  0  0  0  0  0
   12.7160    5.7040   22.6110 C   0  0  1  0  0  0  0  0  0  0  0  0
   13.4940    4.9070   23.3970 C   0  0  0  0  0  0  0  0  0  0  0  0
   13.1530    3.8210   22.6830 C   0  0  1  0  0  0  0  0  0  0  0  0
   11.6350   -1.1090   22.3570 C   0  0  0  0  0  0  0  0  0  0  0  0
   13.0270   -0.5560   22.6030 C   0  0  0  0  0  0  0  0  0  0  0  0
   13.1520    0.8000   22.8710 C   0  0  0  0  0  0  0  0  0  0  0  0
   12.0150    1.6060   22.9190 C   0  0  0  0  0  0  0  0  0  0  0  0
   10.7580    1.1090   22.7000 C   0  0  0  0  0  0  0  0  0  0  0  0
   10.5530   -0.2290   22.4150 C   0  0  0  0  0  0  0  0  0  0  0  0
  1  2  2  0
  1  3  1  0
  1  5  1  0
  5  7  1  0
  8  9  2  0
  9 10  1  0
 10 11  2  0
  3 12  1  0
 11 12  1  0
  8 13  1  0
 12 13  2  0
 15  6  1  6
 14 15  1  0
 15 16  1  0
 17  4  1  1
 14 17  1  0
 16 17  1  0
 18 19  2  0
 19 20  1  0
  4 21  1  0
 20 21  2  0
 21 22  1  0
  5 23  1  0
 18 23  1  0
 22 23  2  0
M  END
