x2643-x1375
     RDKit          3D

 36 39  0  0  0  0  0  0  0  0999 V2000
    5.7690   -4.9500   20.0450 O   0  0  0  0  0  0  0  0  0  0  0  0
    6.6620   -4.6180   20.8900 C   0  0  0  0  0  0  0  0  0  0  0  0
    7.9760   -3.9710   20.6040 C   0  0  0  0  0  0  0  0  0  0  0  0
    6.4000   -4.7820   22.2880 N   0  0  0  0  0  0  0  0  0  0  0  0
    2.3060   -6.6290   23.8300 O   0  0  0  0  0  0  0  0  0  0  0  0
    4.3250   -7.8940   24.9580 O   0  0  0  0  0  0  0  0  0  0  0  0
   10.5350   -4.5040   25.9980 F   0  0  0  0  0  0  0  0  0  0  0  0
    6.9040    0.1110   21.1370 N   0  0  0  0  0  0  0  0  0  0  0  0
    8.7700    1.4810   21.2540 O   0  0  0  0  0  0  0  0  0  0  0  0
   13.1520   -1.0460   24.8540 Cl  0  0  0  0  0  0  0  0  0  0  0  0
    8.9350   -0.8380   21.6790 C   0  0  2  0  0  0  0  0  0  0  0  0
    8.2290    0.3740   21.3570 C   0  0  0  0  0  0  0  0  0  0  0  0
    7.5300   -2.5350   20.6650 C   0  0  0  0  0  0  0  0  0  0  0  0
    7.9690   -1.9280   21.9490 C   0  0  0  0  0  0  0  0  0  0  0  0
    7.7420   -3.5080   23.9070 C   0  0  0  0  0  0  0  0  0  0  0  0
    8.7760   -3.4890   24.8150 C   0  0  0  0  0  0  0  0  0  0  0  0
    9.5400   -4.5690   25.1030 C   0  0  0  0  0  0  0  0  0  0  0  0
    9.2550   -5.7570   24.4360 C   0  0  0  0  0  0  0  0  0  0  0  0
    8.2270   -5.7810   23.5260 C   0  0  0  0  0  0  0  0  0  0  0  0
    7.4360   -4.6480   23.2350 C   0  0  0  0  0  0  0  0  0  0  0  0
    4.9030   -4.4430   24.0840 C   0  0  0  0  0  0  0  0  0  0  0  0
    5.0330   -4.9730   22.6990 C   0  0  2  0  0  0  0  0  0  0  0  0
    4.7730   -6.4120   22.7440 C   0  0  0  0  0  0  0  0  0  0  0  0
    3.8450   -6.5860   24.2220 S   0  0  0  0  0  0  0  0  0  0  0  0
    4.3040   -5.1700   24.9620 C   0  0  0  0  0  0  0  0  0  0  0  0
   11.7000   -0.7660   24.1650 C   0  0  0  0  0  0  0  0  0  0  0  0
   10.5680   -0.1510   24.7220 C   0  0  0  0  0  0  0  0  0  0  0  0
    9.5810   -0.1540   23.8410 C   0  0  0  0  0  0  0  0  0  0  0  0
    9.9770   -0.7480   22.6870 C   0  0  0  0  0  0  0  0  0  0  0  0
   11.5370   -1.3120   22.5690 S   0  0  0  0  0  0  0  0  0  0  0  0
    6.2610    0.8470   17.6040 N   0  0  0  0  0  0  0  0  0  0  0  0
    6.7760    0.4070   18.8100 C   0  0  0  0  0  0  0  0  0  0  0  0
    6.2310    0.5900   20.0480 C   0  0  0  0  0  0  0  0  0  0  0  0
    5.0280    1.2680   20.0900 C   0  0  0  0  0  0  0  0  0  0  0  0
    4.4430    1.7440   18.9120 C   0  0  0  0  0  0  0  0  0  0  0  0
    5.1020    1.5170   17.6930 C   0  0  0  0  0  0  0  0  0  0  0  0
  1  2  2  0
  2  3  1  0
  2  4  1  0
  8 12  1  0
  9 12  2  0
 11 12  1  0
  3 13  1  0
 11 14  1  1
 13 14  1  0
 15 16  2  0
  7 17  1  0
 16 17  1  0
 17 18  2  0
 18 19  1  0
  4 20  1  0
 15 20  1  0
 19 20  2  0
 22  4  1  1
 21 22  1  0
 22 23  1  0
 24  5  1  0
  6 24  1  0
 23 24  1  0
 21 25  2  0
 24 25  1  0
 10 26  1  0
 26 27  2  0
 27 28  1  0
 11 29  1  0
 28 29  2  0
 26 30  1  0
 29 30  1  0
 31 32  2  0
  8 33  1  0
 32 33  1  0
 33 34  2  0
 34 35  1  0
 31 36  1  0
 35 36  2  0
M  END
