x2646-x0991
     RDKit          3D

 24 25  0  0  0  0  0  0  0  0999 V2000
    4.4650    0.9280   21.5100 C   0  0  0  0  0  0  0  0  0  0  0  0
    8.5580    0.9760   21.2800 O   0  0  0  0  0  0  0  0  0  0  0  0
   13.2970   -2.0080   21.1580 Cl  0  0  0  0  0  0  0  0  0  0  0  0
    6.8050   -0.7010   21.1070 N   0  0  0  0  0  0  0  0  0  0  0  0
    7.9580   -0.2420   21.7270 C   0  0  0  0  0  0  0  0  0  0  0  0
    8.5820   -1.0110   22.8680 C   0  0  1  0  0  0  0  0  0  0  0  0
   10.0530   -5.6260   25.3680 N   0  0  0  0  0  0  0  0  0  0  0  0
    8.9570   -3.4120   23.8340 C   0  0  0  0  0  0  0  0  0  0  0  0
    8.0620   -4.5610   24.1240 C   0  0  0  0  0  0  0  0  0  0  0  0
    7.8580   -5.3170   26.5770 N   0  0  0  0  0  0  0  0  0  0  0  0
    8.6690   -5.1860   25.3910 C   0  0  0  0  0  0  0  0  0  0  0  0
    8.5090   -2.5720   22.6610 C   0  0  0  0  0  0  0  0  0  0  0  0
    6.4280    0.6560   17.6270 N   0  0  0  0  0  0  0  0  0  0  0  0
    6.9160   -0.0800   18.7890 C   0  0  0  0  0  0  0  0  0  0  0  0
    6.2980    0.0100   20.0160 C   0  0  0  0  0  0  0  0  0  0  0  0
    5.1550    0.8160   20.1900 C   0  0  0  0  0  0  0  0  0  0  0  0
    4.6910    1.4990   19.1240 C   0  0  0  0  0  0  0  0  0  0  0  0
    5.2560    1.4660   17.8720 C   0  0  0  0  0  0  0  0  0  0  0  0
   10.5970    0.3790   23.8290 C   0  0  0  0  0  0  0  0  0  0  0  0
   12.0220    0.6970   23.8750 C   0  0  0  0  0  0  0  0  0  0  0  0
   12.8600   -0.1010   22.9980 C   0  0  0  0  0  0  0  0  0  0  0  0
   12.3360   -1.0870   22.1840 C   0  0  0  0  0  0  0  0  0  0  0  0
   10.9880   -1.3280   22.1930 C   0  0  0  0  0  0  0  0  0  0  0  0
   10.0910   -0.6260   22.9880 C   0  0  0  0  0  0  0  0  0  0  0  0
  2  5  2  0
  4  5  1  0
  5  6  1  0
  8  9  1  0
  7 11  2  3
  9 11  1  0
 10 11  1  0
  6 12  1  6
  8 12  1  0
 13 14  2  0
  4 15  1  0
 14 15  1  0
  1 16  1  0
 15 16  2  0
 16 17  1  0
 13 18  1  0
 17 18  2  0
 19 20  2  0
 20 21  1  0
  3 22  1  0
 21 22  2  0
 22 23  1  0
  6 24  1  0
 19 24  1  0
 23 24  2  0
M  END
