x2649-x2912
     RDKit          3D

 20 21  0  0  0  0  0  0  0  0999 V2000
    6.9970   -0.6390   21.1680 N   0  0  0  0  0  0  0  0  0  0  0  0
    8.0290   -0.8950   24.2710 C   0  0  0  0  0  0  0  0  0  0  0  0
    8.6800    0.7360   21.4570 O   0  0  0  0  0  0  0  0  0  0  0  0
    8.6580   -0.9820   22.9100 C   0  0  1  0  0  0  0  0  0  0  0  0
    8.0920   -0.2830   21.8150 C   0  0  0  0  0  0  0  0  0  0  0  0
   13.6250   -2.9100   20.6530 N   0  0  0  0  0  0  0  0  0  0  0  0
    4.8860    1.2270   21.8120 C   0  0  0  0  0  0  0  0  0  0  0  0
   13.0520   -2.0350   21.4380 C   0  0  0  0  0  0  0  0  0  0  0  0
    6.2360    0.5040   17.6500 N   0  0  0  0  0  0  0  0  0  0  0  0
    5.2550    1.3690   17.8930 C   0  0  0  0  0  0  0  0  0  0  0  0
    4.7420    1.6530   19.3520 C   0  0  0  0  0  0  0  0  0  0  0  0
    5.3540    0.9630   20.4120 C   0  0  0  0  0  0  0  0  0  0  0  0
    6.3840    0.0560   20.1160 C   0  0  0  0  0  0  0  0  0  0  0  0
    6.7850   -0.1330   18.7050 C   0  0  0  0  0  0  0  0  0  0  0  0
   10.5860    0.4140   23.7760 C   0  0  0  0  0  0  0  0  0  0  0  0
   12.0520    0.7410   23.8200 C   0  0  0  0  0  0  0  0  0  0  0  0
   12.9150   -0.1590   22.9690 C   0  0  0  0  0  0  0  0  0  0  0  0
   12.3220   -1.1710   22.2450 C   0  0  0  0  0  0  0  0  0  0  0  0
   10.9700   -1.4170   22.2460 C   0  0  0  0  0  0  0  0  0  0  0  0
   10.1160   -0.6420   22.9920 C   0  0  0  0  0  0  0  0  0  0  0  0
  4  2  1  1
  1  5  1  0
  3  5  2  0
  4  5  1  0
  6  8  3  0
  9 10  2  0
 10 11  1  0
  7 12  1  0
 11 12  2  0
  1 13  1  0
 12 13  1  0
  9 14  1  0
 13 14  2  0
 15 16  2  0
 16 17  1  0
  8 18  1  0
 17 18  2  0
 18 19  1  0
  4 20  1  0
 15 20  1  0
 19 20  2  0
M  END
