x2649-x2646
     RDKit          3D

 19 20  0  0  0  0  0  0  0  0999 V2000
    6.9360   -0.7420   20.9710 N   0  0  0  0  0  0  0  0  0  0  0  0
    8.0830   -1.3270   23.9370 C   0  0  0  0  0  0  0  0  0  0  0  0
    8.5450    0.6870   21.3590 O   0  0  0  0  0  0  0  0  0  0  0  0
   13.2130   -2.7290   21.1280 Cl  0  0  0  0  0  0  0  0  0  0  0  0
    8.6940   -1.1780   22.5790 C   0  0  1  0  0  0  0  0  0  0  0  0
    8.0300   -0.3990   21.6130 C   0  0  0  0  0  0  0  0  0  0  0  0
    4.8700    1.1510   21.7250 C   0  0  0  0  0  0  0  0  0  0  0  0
    6.1980    0.6060   17.6060 N   0  0  0  0  0  0  0  0  0  0  0  0
    5.2310    1.5070   17.8190 C   0  0  0  0  0  0  0  0  0  0  0  0
    4.6700    1.8030   19.1670 C   0  0  0  0  0  0  0  0  0  0  0  0
    5.3330    0.9480   20.3160 C   0  0  0  0  0  0  0  0  0  0  0  0
    6.3360    0.0290   19.9810 C   0  0  0  0  0  0  0  0  0  0  0  0
    6.7120   -0.0900   18.6510 C   0  0  0  0  0  0  0  0  0  0  0  0
   10.6480    0.3130   23.1750 C   0  0  0  0  0  0  0  0  0  0  0  0
   12.1180    0.6590   23.1820 C   0  0  0  0  0  0  0  0  0  0  0  0
   12.9890   -0.3330   22.5270 C   0  0  0  0  0  0  0  0  0  0  0  0
   12.3420   -1.5500   21.9270 C   0  0  0  0  0  0  0  0  0  0  0  0
   10.9940   -1.7520   21.9890 C   0  0  0  0  0  0  0  0  0  0  0  0
   10.1480   -0.8600   22.5910 C   0  0  0  0  0  0  0  0  0  0  0  0
  5  2  1  1
  1  6  1  0
  3  6  2  0
  5  6  1  0
  8  9  2  0
  9 10  1  0
  7 11  1  0
 10 11  2  0
  1 12  1  0
 11 12  1  0
  8 13  1  0
 12 13  2  0
 14 15  2  0
 15 16  1  0
  4 17  1  0
 16 17  2  0
 17 18  1  0
  5 19  1  0
 14 19  1  0
 18 19  2  0
M  END
