x2649-x2649
     RDKit          3D

 19 20  0  0  0  0  0  0  0  0999 V2000
    6.9570   -0.7800   20.9900 N   0  0  0  0  0  0  0  0  0  0  0  0
    7.9090   -1.2590   24.0340 C   0  0  0  0  0  0  0  0  0  0  0  0
    8.5960    0.6190   21.3800 O   0  0  0  0  0  0  0  0  0  0  0  0
   13.2280   -2.3680   21.1310 Cl  0  0  0  0  0  0  0  0  0  0  0  0
    8.6250   -1.1810   22.7200 C   0  0  1  0  0  0  0  0  0  0  0  0
    8.0350   -0.4370   21.6700 C   0  0  0  0  0  0  0  0  0  0  0  0
    4.8980    1.1170   21.7510 C   0  0  0  0  0  0  0  0  0  0  0  0
    6.2070    0.5880   17.6240 N   0  0  0  0  0  0  0  0  0  0  0  0
    5.2420    1.4910   17.8400 C   0  0  0  0  0  0  0  0  0  0  0  0
    4.6900    1.7800   19.1950 C   0  0  0  0  0  0  0  0  0  0  0  0
    5.3550    0.9200   20.3370 C   0  0  0  0  0  0  0  0  0  0  0  0
    6.3570   -0.0040   20.0030 C   0  0  0  0  0  0  0  0  0  0  0  0
    6.7250   -0.1160   18.6650 C   0  0  0  0  0  0  0  0  0  0  0  0
   10.5220    0.1600   23.7140 C   0  0  0  0  0  0  0  0  0  0  0  0
   11.9680    0.5110   23.8480 C   0  0  0  0  0  0  0  0  0  0  0  0
   12.8950   -0.3070   23.0080 C   0  0  0  0  0  0  0  0  0  0  0  0
   12.2990   -1.3840   22.1300 C   0  0  0  0  0  0  0  0  0  0  0  0
   10.9510   -1.6030   22.0980 C   0  0  0  0  0  0  0  0  0  0  0  0
   10.0680   -0.8630   22.8560 C   0  0  0  0  0  0  0  0  0  0  0  0
  5  2  1  1
  1  6  1  0
  3  6  2  0
  5  6  1  0
  8  9  2  0
  9 10  1  0
  7 11  1  0
 10 11  2  0
  1 12  1  0
 11 12  1  0
  8 13  1  0
 12 13  2  0
 14 15  2  0
 15 16  1  0
  4 17  1  0
 16 17  2  0
 17 18  1  0
  5 19  1  0
 14 19  1  0
 18 19  2  0
M  END
