x2649-x1311-x2540
     RDKit          3D

 44 47  0  0  0  0  0  0  0  0999 V2000
    5.9560   -0.9810   22.4130 N   0  0  0  0  0  0  0  0  0  0  0  0
    6.7380   -4.1390   20.5210 C   0  0  2  0  0  0  0  0  0  0  0  0
    4.5910   -2.9640   21.6110 O   0  0  0  0  0  0  0  0  0  0  0  0
    6.7640   -2.7980   20.9540 C   0  0  0  0  0  0  0  0  0  0  0  0
    7.6450    1.8030   23.2620 N   0  0  0  0  0  0  0  0  0  0  0  0
    7.5280    1.8520   21.0240 O   0  0  0  0  0  0  0  0  0  0  0  0
    5.6850   -2.2370   21.7010 C   0  0  0  0  0  0  0  0  0  0  0  0
    7.1060   -0.2000   21.8370 C   0  0  2  0  0  0  0  0  0  0  0  0
    7.3910    1.1730   22.0420 C   0  0  0  0  0  0  0  0  0  0  0  0
    8.6820    2.8410   23.4300 C   0  0  0  0  0  0  0  0  0  0  0  0
    8.7650    3.0370   24.7840 C   0  0  0  0  0  0  0  0  0  0  0  0
    8.3120    4.1840   22.7810 C   0  0  0  0  0  0  0  0  0  0  0  0
   10.0670    2.3940   22.9250 C   0  0  0  0  0  0  0  0  0  0  0  0
   12.0370   -1.3260   23.4700 C   0  0  0  0  0  0  0  0  0  0  0  0
   12.8020   -1.3140   22.3170 C   0  0  0  0  0  0  0  0  0  0  0  0
   12.4780   -0.1310   24.3190 C   0  0  0  0  0  0  0  0  0  0  0  0
   12.3410   -2.5930   24.2870 C   0  0  0  0  0  0  0  0  0  0  0  0
    4.8460    1.5340   21.6240 C   0  0  0  0  0  0  0  0  0  0  0  0
    5.5690   -4.4800   19.7730 O   0  0  0  0  0  0  0  0  0  0  0  0
    6.6690   -4.9730   21.8280 N   0  0  0  0  0  0  0  0  0  0  0  0
    4.2780   -7.4280   25.2290 O   0  0  0  0  0  0  0  0  0  0  0  0
    2.7380   -5.3960   24.5500 O   0  0  0  0  0  0  0  0  0  0  0  0
    6.5740    0.0740   17.8760 N   0  0  0  0  0  0  0  0  0  0  0  0
    5.5190    0.9030   17.8440 C   0  0  0  0  0  0  0  0  0  0  0  0
    4.8300    1.4750   19.0800 C   0  0  0  0  0  0  0  0  0  0  0  0
    5.4870    1.0000   20.3730 C   0  0  0  0  0  0  0  0  0  0  0  0
    6.6040    0.1330   20.3860 C   0  0  0  0  0  0  0  0  0  0  0  0
    7.1170   -0.3180   19.0560 C   0  0  0  0  0  0  0  0  0  0  0  0
    9.6840   -1.5800   24.0930 O   0  0  0  0  0  0  0  0  0  0  0  0
    8.3940   -1.3060   23.6860 N   0  0  0  0  0  0  0  0  0  0  0  0
    8.4530   -0.6900   22.4680 C   0  0  0  0  0  0  0  0  0  0  0  0
    9.8210   -0.6020   22.0930 C   0  0  0  0  0  0  0  0  0  0  0  0
   10.5620   -1.1530   23.1600 C   0  0  0  0  0  0  0  0  0  0  0  0
    8.3430   -6.1050   22.9840 C   0  0  0  0  0  0  0  0  0  0  0  0
    9.3830   -6.1670   23.8780 C   0  0  0  0  0  0  0  0  0  0  0  0
    9.7840   -5.0260   24.5430 C   0  0  0  0  0  0  0  0  0  0  0  0
    9.1320   -3.8360   24.3040 C   0  0  0  0  0  0  0  0  0  0  0  0
    8.0850   -3.7900   23.3990 C   0  0  0  0  0  0  0  0  0  0  0  0
    7.6900   -4.9250   22.7310 C   0  0  0  0  0  0  0  0  0  0  0  0
    4.7220   -6.2090   21.9850 C   0  0  0  0  0  0  0  0  0  0  0  0
    5.3800   -5.1880   22.5510 C   0  0  1  0  0  0  0  0  0  0  0  0
    5.3520   -5.2060   23.9620 C   0  0  0  0  0  0  0  0  0  0  0  0
    3.8970   -6.2080   24.2580 S   0  0  0  0  0  0  0  0  0  0  0  0
    3.8020   -6.8340   22.7500 C   0  0  0  0  0  0  0  0  0  0  0  0
  2  4  1  0
  1  7  1  0
  3  7  2  0
  4  7  1  0
  8  1  1  1
  5  9  1  0
  6  9  2  0
  8  9  1  0
 10  5  1  0
 10 11  1  0
 10 12  1  0
 10 13  1  0
 14 15  1  0
 14 16  1  0
 14 17  1  0
  2 19  1  6
  2 20  1  0
 23 24  2  0
 24 25  1  0
 18 26  1  0
 25 26  2  0
  8 27  1  0
 26 27  1  0
 23 28  1  0
 27 28  2  0
 29 30  1  0
  8 31  1  0
 30 31  2  0
 31 32  1  0
 14 33  1  0
 29 33  1  0
 32 33  2  0
 34 35  2  0
 35 36  1  0
 36 37  2  0
 37 38  1  0
 20 39  1  0
 34 39  1  0
 38 39  2  0
 41 20  1  1
 40 41  1  0
 41 42  1  0
 43 21  1  0
 22 43  1  0
 42 43  1  0
 40 44  2  0
 43 44  1  0
M  END
