x2643-x1380
     RDKit          3D

 34 37  0  0  0  0  0  0  0  0999 V2000
    7.5500   -3.4000   19.9830 C   0  0  0  0  0  0  0  0  0  0  0  0
    5.4990   -4.7080   19.9620 O   0  0  0  0  0  0  0  0  0  0  0  0
    6.5720   -4.3710   20.5320 C   0  0  0  0  0  0  0  0  0  0  0  0
    4.6760   -2.7560   25.4310 O   0  0  0  0  0  0  0  0  0  0  0  0
    5.7130   -3.4250   25.3700 C   0  0  0  0  0  0  0  0  0  0  0  0
    6.7080   -1.0590   20.3950 N   0  0  0  0  0  0  0  0  0  0  0  0
    8.3700    0.4350   21.0700 O   0  0  0  0  0  0  0  0  0  0  0  0
   13.3980    0.2470   23.0300 Cl  0  0  0  0  0  0  0  0  0  0  0  0
    8.3250   -1.4960   22.3660 C   0  0  0  0  0  0  0  0  0  0  0  0
    7.8230   -0.6620   21.2540 C   0  0  0  0  0  0  0  0  0  0  0  0
    6.9550   -2.1170   19.4500 C   0  0  0  0  0  0  0  0  0  0  0  0
    6.9150   -4.9080   21.7600 N   0  0  0  0  0  0  0  0  0  0  0  0
    6.0710   -5.7750   22.5510 C   0  0  0  0  0  0  0  0  0  0  0  0
    6.1080   -5.3010   23.8590 C   0  0  0  0  0  0  0  0  0  0  0  0
    6.2080   -3.9380   24.1010 C   0  0  0  0  0  0  0  0  0  0  0  0
    7.3800   -3.3780   23.5640 C   0  0  0  0  0  0  0  0  0  0  0  0
    7.8700   -4.2520   22.6540 C   0  0  0  0  0  0  0  0  0  0  0  0
    7.7740   -4.2430   26.4640 C   0  0  0  0  0  0  0  0  0  0  0  0
    7.8520   -5.3660   27.2840 C   0  0  0  0  0  0  0  0  0  0  0  0
    7.4150   -5.1430   28.6600 C   0  0  0  0  0  0  0  0  0  0  0  0
    6.0590   -4.5710   28.7170 C   0  0  0  0  0  0  0  0  0  0  0  0
    5.9280   -3.4390   27.9180 C   0  0  0  0  0  0  0  0  0  0  0  0
    6.4250   -3.6890   26.5620 N   0  0  0  0  0  0  0  0  0  0  0  0
   11.7650    0.0100   23.1970 C   0  0  0  0  0  0  0  0  0  0  0  0
   10.8640    0.6330   24.0430 C   0  0  0  0  0  0  0  0  0  0  0  0
    9.6180    0.1730   23.8550 C   0  0  0  0  0  0  0  0  0  0  0  0
    9.5160   -0.7970   22.8740 C   0  0  0  0  0  0  0  0  0  0  0  0
   11.0130   -1.1870   22.1680 S   0  0  0  0  0  0  0  0  0  0  0  0
    6.2160    1.0870   17.5380 N   0  0  0  0  0  0  0  0  0  0  0  0
    6.6540    0.2210   18.4470 C   0  0  0  0  0  0  0  0  0  0  0  0
    6.0600   -0.0990   19.6300 C   0  0  0  0  0  0  0  0  0  0  0  0
    4.8730    0.5510   19.9320 C   0  0  0  0  0  0  0  0  0  0  0  0
    4.3590    1.4770   19.0230 C   0  0  0  0  0  0  0  0  0  0  0  0
    5.0680    1.7070   17.8390 C   0  0  0  0  0  0  0  0  0  0  0  0
  1  3  1  0
  2  3  2  0
  4  5  2  0
  6 10  1  0
  7 10  2  0
  9 10  1  0
  1 11  1  0
  6 11  1  0
  3 12  1  0
 12 13  1  0
 13 14  1  0
  5 15  1  0
 14 15  1  0
 15 16  1  0
 12 17  1  0
 16 17  1  0
 18 19  1  0
 19 20  1  0
 20 21  1  0
 21 22  1  0
  5 23  1  0
 18 23  1  0
 22 23  1  0
  8 24  1  0
 24 25  2  0
 25 26  1  0
  9 27  1  0
 26 27  2  0
 24 28  1  0
 27 28  1  0
 29 30  2  0
  6 31  1  0
 30 31  1  0
 31 32  2  0
 32 33  1  0
 29 34  1  0
 33 34  2  0
M  END
