x2643-x0759
     RDKit          3D

 25 29  0  0  0  0  0  0  0  0999 V2000
    6.8710   -0.7290   21.1490 N   0  0  0  0  0  0  0  0  0  0  0  0
    8.4440    0.9370   21.3130 O   0  0  0  0  0  0  0  0  0  0  0  0
   13.4660   -0.1130   22.9210 Cl  0  0  0  0  0  0  0  0  0  0  0  0
    8.1230   -1.0930   22.7190 C   0  0  1  0  0  0  0  0  0  0  0  0
    7.9030   -0.1080   21.6670 C   0  0  0  0  0  0  0  0  0  0  0  0
    5.4210   -4.1430   19.7460 O   0  0  0  0  0  0  0  0  0  0  0  0
    6.4600   -3.4710   19.9910 C   0  0  0  0  0  0  0  0  0  0  0  0
    7.3560   -3.0240   18.9100 C   0  0  0  0  0  0  0  0  0  0  0  0
   11.9030   -0.4130   23.3790 C   0  0  0  0  0  0  0  0  0  0  0  0
   11.2940   -0.4500   24.7670 C   0  0  0  0  0  0  0  0  0  0  0  0
    9.8370   -0.7250   24.5520 C   0  0  0  0  0  0  0  0  0  0  0  0
    9.5540   -0.8600   23.2020 C   0  0  0  0  0  0  0  0  0  0  0  0
   10.8360   -0.7140   22.1410 S   0  0  0  0  0  0  0  0  0  0  0  0
    6.3210    0.5610   17.7090 N   0  0  0  0  0  0  0  0  0  0  0  0
    6.9340   -0.1250   18.8410 C   0  0  0  0  0  0  0  0  0  0  0  0
    6.2090   -0.0920   20.0190 C   0  0  0  0  0  0  0  0  0  0  0  0
    5.0070    0.5150   20.1080 C   0  0  0  0  0  0  0  0  0  0  0  0
    4.4060    1.1700   19.0270 C   0  0  0  0  0  0  0  0  0  0  0  0
    5.1290    1.1600   17.8490 C   0  0  0  0  0  0  0  0  0  0  0  0
    6.8020   -3.1840   21.3070 N   0  0  0  0  0  0  0  0  0  0  0  0
    7.4540   -2.0180   21.6650 C   0  0  2  0  0  0  0  0  0  0  0  0
    7.4290   -2.2480   23.1450 C   0  0  1  0  0  0  0  0  0  0  0  0
    8.0670   -3.5110   23.4620 O   0  0  0  0  0  0  0  0  0  0  0  0
    7.1090   -4.4530   23.2890 C   0  0  0  0  0  0  0  0  0  0  0  0
    6.1510   -3.9390   22.4290 C   0  0  0  0  0  0  0  0  0  0  0  0
  1  5  1  0
  2  5  2  0
  4  5  1  0
  6  7  2  0
  7  8  1  0
  3  9  1  0
  9 10  2  0
 10 11  1  0
  4 12  1  6
 11 12  2  0
  9 13  1  0
 12 13  1  0
 14 15  2  0
  1 16  1  0
 15 16  1  0
 16 17  2  0
 17 18  1  0
 14 19  1  0
 18 19  2  0
  7 20  1  0
 21  1  1  6
  4 21  1  0
 20 21  1  0
  4 22  1  0
 21 22  1  0
 22 23  1  6
 23 24  1  0
 20 25  1  0
 24 25  1  0
M  END
