x2649-x1311-x2705
     RDKit          3D

 49 53  0  0  0  0  0  0  0  0999 V2000
    6.7960   -1.2380   21.9830 N   0  0  0  0  0  0  0  0  0  0  0  0
    6.7640   -4.5200   20.6660 C   0  0  2  0  0  0  0  0  0  0  0  0
    4.7800   -2.9380   21.2580 O   0  0  0  0  0  0  0  0  0  0  0  0
    6.9710   -3.5140   21.5650 C   0  0  0  0  0  0  0  0  0  0  0  0
    7.3410    2.1090   22.8850 N   0  0  0  0  0  0  0  0  0  0  0  0
    8.5980    0.9350   21.3750 O   0  0  0  0  0  0  0  0  0  0  0  0
    6.0560   -2.4880   21.5850 C   0  0  0  0  0  0  0  0  0  0  0  0
    6.4680    0.1450   21.6660 C   0  0  1  0  0  0  0  0  0  0  0  0
    7.5210    1.0520   21.9640 C   0  0  0  0  0  0  0  0  0  0  0  0
   10.1240    2.0960   24.0010 C   0  0  0  0  0  0  0  0  0  0  0  0
    9.3170    1.3380   24.8540 C   0  0  0  0  0  0  0  0  0  0  0  0
    6.1580    4.5540   21.9280 C   0  0  0  0  0  0  0  0  0  0  0  0
   11.9910   -1.3690   23.4220 C   0  0  0  0  0  0  0  0  0  0  0  0
   12.4850   -0.0800   24.0540 C   0  0  0  0  0  0  0  0  0  0  0  0
   12.4580   -2.4830   24.3890 C   0  0  0  0  0  0  0  0  0  0  0  0
   12.7600   -1.4950   22.0910 C   0  0  0  0  0  0  0  0  0  0  0  0
    3.9370    1.8700   21.2980 C   0  0  0  0  0  0  0  0  0  0  0  0
    5.5240   -4.5170   19.9450 O   0  0  0  0  0  0  0  0  0  0  0  0
    6.6830   -5.4880   21.8160 N   0  0  0  0  0  0  0  0  0  0  0  0
    4.2160   -7.4640   25.3140 O   0  0  0  0  0  0  0  0  0  0  0  0
    2.7600   -5.3700   24.6370 O   0  0  0  0  0  0  0  0  0  0  0  0
    6.4640    0.3910   17.9380 N   0  0  0  0  0  0  0  0  0  0  0  0
    5.3940    1.1590   17.7050 C   0  0  0  0  0  0  0  0  0  0  0  0
    4.4270    1.7330   18.7360 C   0  0  0  0  0  0  0  0  0  0  0  0
    4.7800    1.3710   20.1730 C   0  0  0  0  0  0  0  0  0  0  0  0
    6.0140    0.5160   20.2990 C   0  0  0  0  0  0  0  0  0  0  0  0
    6.7550    0.0860   19.2080 C   0  0  0  0  0  0  0  0  0  0  0  0
    9.6610   -1.3690   24.3610 N   0  0  0  0  0  0  0  0  0  0  0  0
    8.3490   -1.3370   23.9710 N   0  0  0  0  0  0  0  0  0  0  0  0
    8.1350   -1.3040   22.6100 C   0  0  0  0  0  0  0  0  0  0  0  0
    9.6100   -1.3260   22.0880 C   0  0  0  0  0  0  0  0  0  0  0  0
   10.4470   -1.3580   23.2510 C   0  0  0  0  0  0  0  0  0  0  0  0
    9.4180    3.3320   23.4970 C   0  0  0  0  0  0  0  0  0  0  0  0
   10.1370    4.5290   23.5770 C   0  0  0  0  0  0  0  0  0  0  0  0
    9.5520    5.7250   23.1210 C   0  0  0  0  0  0  0  0  0  0  0  0
    8.2550    5.6960   22.5910 C   0  0  0  0  0  0  0  0  0  0  0  0
    7.5460    4.4960   22.5170 C   0  0  0  0  0  0  0  0  0  0  0  0
    8.1190    3.3010   22.9750 C   0  0  0  0  0  0  0  0  0  0  0  0
    8.4860   -6.2980   23.0730 C   0  0  0  0  0  0  0  0  0  0  0  0
    9.4540   -6.1190   23.9850 C   0  0  0  0  0  0  0  0  0  0  0  0
    9.6420   -4.9330   24.6280 C   0  0  0  0  0  0  0  0  0  0  0  0
    8.8020   -3.8790   24.3470 C   0  0  0  0  0  0  0  0  0  0  0  0
    7.7960   -4.0490   23.4050 C   0  0  0  0  0  0  0  0  0  0  0  0
    7.6620   -5.2960   22.7590 C   0  0  0  0  0  0  0  0  0  0  0  0
    4.6560   -6.4540   22.0690 C   0  0  0  0  0  0  0  0  0  0  0  0
    5.4030   -5.4840   22.5690 C   0  0  1  0  0  0  0  0  0  0  0  0
    5.3700   -5.3650   23.9730 C   0  0  0  0  0  0  0  0  0  0  0  0
    3.8550   -6.2580   24.3270 S   0  0  0  0  0  0  0  0  0  0  0  0
    3.6960   -6.9600   22.8610 C   0  0  0  0  0  0  0  0  0  0  0  0
  2  4  1  0
  1  7  1  0
  3  7  2  0
  4  7  1  0
  1  8  1  0
  5  9  1  0
  6  9  2  0
  8  9  1  6
 10 11  1  0
 13 14  1  0
 13 15  1  0
 13 16  1  0
  2 18  1  1
  2 19  1  0
 22 23  2  0
 23 24  1  0
 17 25  1  0
 24 25  2  0
  8 26  1  0
 25 26  1  0
 22 27  1  0
 26 27  2  0
 28 29  1  0
  1 30  1  0
 29 30  1  0
 30 31  2  0
 13 32  1  0
 28 32  2  0
 31 32  1  0
 10 33  1  0
 33 34  2  0
 34 35  1  0
 35 36  2  0
 12 37  1  0
 36 37  1  0
  5 38  1  0
 33 38  1  0
 37 38  2  0
 39 40  2  0
 40 41  1  0
 41 42  2  0
 42 43  1  0
 19 44  1  0
 39 44  1  0
 43 44  2  0
 46 19  1  1
 45 46  1  0
 46 47  1  0
 48 20  1  0
 21 48  1  0
 47 48  1  0
 45 49  2  0
 48 49  1  0
M  END
