x2643-x2600
     RDKit          3D

 18 19  0  0  0  0  0  0  0  0999 V2000
   13.5610   -3.0170   20.7320 N   0  0  0  0  0  0  0  0  0  0  0  0
    8.3080    0.3030   21.7250 C   0  0  0  0  0  0  0  0  0  0  0  0
    8.8990    1.3210   21.3050 O   0  0  0  0  0  0  0  0  0  0  0  0
    8.7420   -0.4000   22.8510 C   0  0  0  0  0  0  0  0  0  0  0  0
    7.1180   -0.2910   21.1380 N   0  0  0  0  0  0  0  0  0  0  0  0
   13.0600   -2.2330   21.3870 C   0  0  0  0  0  0  0  0  0  0  0  0
    6.2320    0.5950   17.6410 N   0  0  0  0  0  0  0  0  0  0  0  0
    6.8860    0.0340   18.6690 C   0  0  0  0  0  0  0  0  0  0  0  0
    6.4900    0.2280   20.0490 C   0  0  0  0  0  0  0  0  0  0  0  0
    5.2740    1.0970   20.3010 C   0  0  0  0  0  0  0  0  0  0  0  0
    4.5700    1.7050   19.1010 C   0  0  0  0  0  0  0  0  0  0  0  0
    5.1510    1.3790   17.8660 C   0  0  0  0  0  0  0  0  0  0  0  0
   10.8900    0.4810   23.7320 C   0  0  0  0  0  0  0  0  0  0  0  0
   12.2620    0.4860   23.7820 C   0  0  0  0  0  0  0  0  0  0  0  0
   12.9560   -0.3830   23.0310 C   0  0  0  0  0  0  0  0  0  0  0  0
   12.3560   -1.3170   22.1800 C   0  0  0  0  0  0  0  0  0  0  0  0
   10.9880   -1.3340   22.1160 C   0  0  0  0  0  0  0  0  0  0  0  0
   10.2250   -0.4040   22.9150 C   0  0  0  0  0  0  0  0  0  0  0  0
  2  3  2  0
  2  4  1  0
  2  5  1  0
  1  6  3  0
  7  8  2  0
  5  9  1  0
  8  9  1  0
  9 10  2  0
 10 11  1  0
  7 12  1  0
 11 12  2  0
 13 14  2  0
 14 15  1  0
  6 16  1  0
 15 16  2  0
 16 17  1  0
  4 18  1  0
 13 18  1  0
 17 18  2  0
M  END
