x2649-x1382
     RDKit          3D

 21 23  0  0  0  0  0  0  0  0999 V2000
    7.1260   -1.6720   20.1860 C   0  0  1  0  0  0  0  0  0  0  0  0
    7.2080   -1.2780   23.4200 C   0  0  0  0  0  0  0  0  0  0  0  0
    5.1500   -3.2620   21.1320 O   0  0  0  0  0  0  0  0  0  0  0  0
   12.2350   -2.4400   20.7420 Cl  0  0  0  0  0  0  0  0  0  0  0  0
    7.8450   -2.0410   22.3350 C   0  0  2  0  0  0  0  0  0  0  0  0
    6.4990   -2.4850   21.2410 C   0  0  0  0  0  0  0  0  0  0  0  0
    4.6120    1.2320   21.3410 C   0  0  0  0  0  0  0  0  0  0  0  0
    8.1370   -1.3300   21.0880 N   0  0  0  0  0  0  0  0  0  0  0  0
    7.4420   -2.6420   19.0060 C   0  0  0  0  0  0  0  0  0  0  0  0
    6.4830    0.4700   17.6870 N   0  0  0  0  0  0  0  0  0  0  0  0
    5.6780    1.4910   17.8070 C   0  0  0  0  0  0  0  0  0  0  0  0
    5.1290    1.6500   19.0060 C   0  0  0  0  0  0  0  0  0  0  0  0
    5.3620    0.8220   20.0470 C   0  0  0  0  0  0  0  0  0  0  0  0
    6.1910   -0.3500   20.1120 C   0  0  0  0  0  0  0  0  0  0  0  0
    6.6770   -0.3300   18.7820 C   0  0  0  0  0  0  0  0  0  0  0  0
    9.6320   -0.5610   23.5870 C   0  0  0  0  0  0  0  0  0  0  0  0
   10.8600   -0.0210   23.8810 C   0  0  0  0  0  0  0  0  0  0  0  0
   12.0700   -0.3600   23.1750 C   0  0  0  0  0  0  0  0  0  0  0  0
   12.1530   -1.3380   22.0300 C   0  0  0  0  0  0  0  0  0  0  0  0
   10.7090   -1.8120   21.8630 C   0  0  0  0  0  0  0  0  0  0  0  0
    9.4280   -1.5030   22.5550 C   0  0  0  0  0  0  0  0  0  0  0  0
  5  2  1  1
  1  6  1  0
  3  6  2  0
  5  6  1  0
  1  8  1  0
  5  8  1  0
  1  9  1  6
 10 11  2  0
 11 12  1  0
  7 13  1  0
 12 13  2  0
  1 14  1  0
 13 14  1  0
 10 15  1  0
 14 15  2  0
 16 17  2  0
 17 18  1  0
  4 19  1  0
 18 19  2  0
 19 20  1  0
  5 21  1  0
 16 21  1  0
 20 21  2  0
M  END
