x2649-x0678
     RDKit          3D

 19 21  0  0  0  0  0  0  0  0999 V2000
    7.2100   -0.8650   20.7940 N   0  0  0  0  0  0  0  0  0  0  0  0
    7.9810   -1.4600   24.0830 C   0  0  0  0  0  0  0  0  0  0  0  0
    8.1210    0.6170   22.5360 N   0  0  0  0  0  0  0  0  0  0  0  0
   13.1160   -2.5320   21.1400 Cl  0  0  0  0  0  0  0  0  0  0  0  0
    8.6100   -0.8350   22.8760 C   0  0  2  0  0  0  0  0  0  0  0  0
    7.8110   -0.3290   21.8210 C   0  0  0  0  0  0  0  0  0  0  0  0
    5.0330    0.9030   21.7390 C   0  0  0  0  0  0  0  0  0  0  0  0
    6.2030    0.6720   17.4900 N   0  0  0  0  0  0  0  0  0  0  0  0
    5.2110    1.4980   17.8380 C   0  0  0  0  0  0  0  0  0  0  0  0
    4.7050    1.6810   19.2300 C   0  0  0  0  0  0  0  0  0  0  0  0
    5.4610    0.7930   20.3080 C   0  0  0  0  0  0  0  0  0  0  0  0
    6.5100   -0.0710   19.9010 C   0  0  0  0  0  0  0  0  0  0  0  0
    6.8420   -0.1120   18.5740 C   0  0  0  0  0  0  0  0  0  0  0  0
   10.6580    0.2220   23.6980 C   0  0  0  0  0  0  0  0  0  0  0  0
   12.1170    0.4520   23.8000 C   0  0  0  0  0  0  0  0  0  0  0  0
   12.9920   -0.4340   22.9700 C   0  0  0  0  0  0  0  0  0  0  0  0
   12.2580   -1.4630   22.1280 C   0  0  0  0  0  0  0  0  0  0  0  0
   10.8850   -1.5760   22.1170 C   0  0  0  0  0  0  0  0  0  0  0  0
   10.0900   -0.7510   22.8820 C   0  0  0  0  0  0  0  0  0  0  0  0
  5  2  1  1
  3  5  1  0
  1  6  1  0
  3  6  2  0
  5  6  1  0
  8  9  2  0
  9 10  1  0
  7 11  1  0
 10 11  2  0
  1 12  1  0
 11 12  1  0
  8 13  1  0
 12 13  2  0
 14 15  2  0
 15 16  1  0
  4 17  1  0
 16 17  2  0
 17 18  1  0
  5 19  1  0
 14 19  1  0
 18 19  2  0
M  END
