x2646-x0107
     RDKit          3D

 18 19  0  0  0  0  0  0  0  0999 V2000
    4.7110    1.3820   21.6090 C   0  0  0  0  0  0  0  0  0  0  0  0
    8.9030    1.2830   21.2910 O   0  0  0  0  0  0  0  0  0  0  0  0
   13.1890   -2.3100   21.1680 Cl  0  0  0  0  0  0  0  0  0  0  0  0
    7.1670   -0.5210   21.0560 N   0  0  0  0  0  0  0  0  0  0  0  0
    8.2400    0.0850   21.6960 C   0  0  0  0  0  0  0  0  0  0  0  0
    8.6700   -0.6940   22.9370 C   0  0  0  0  0  0  0  0  0  0  0  0
    6.3030    0.6210   17.5830 N   0  0  0  0  0  0  0  0  0  0  0  0
    6.8820   -0.0010   18.6580 C   0  0  0  0  0  0  0  0  0  0  0  0
    6.4490    0.1740   20.0410 C   0  0  0  0  0  0  0  0  0  0  0  0
    5.2630    1.1130   20.2440 C   0  0  0  0  0  0  0  0  0  0  0  0
    4.6190    1.8010   19.0580 C   0  0  0  0  0  0  0  0  0  0  0  0
    5.1710    1.5250   17.8160 C   0  0  0  0  0  0  0  0  0  0  0  0
   10.7100    0.2630   23.9480 C   0  0  0  0  0  0  0  0  0  0  0  0
   12.0990    0.3190   23.9780 C   0  0  0  0  0  0  0  0  0  0  0  0
   12.8150   -0.4550   23.1450 C   0  0  0  0  0  0  0  0  0  0  0  0
   12.2830   -1.3460   22.2130 C   0  0  0  0  0  0  0  0  0  0  0  0
   10.9250   -1.4200   22.1630 C   0  0  0  0  0  0  0  0  0  0  0  0
   10.1440   -0.5870   23.0560 C   0  0  0  0  0  0  0  0  0  0  0  0
  2  5  2  0
  4  5  1  0
  5  6  1  0
  7  8  2  0
  4  9  1  0
  8  9  1  0
  1 10  1  0
  9 10  2  0
 10 11  1  0
  7 12  1  0
 11 12  2  0
 13 14  2  0
 14 15  1  0
  3 16  1  0
 15 16  2  0
 16 17  1  0
  6 18  1  0
 13 18  1  0
 17 18  2  0
M  END
