x2649-x2563
     RDKit          3D

 21 24  0  0  0  0  0  0  0  0999 V2000
    7.0880   -1.1160   20.8090 N   0  0  0  0  0  0  0  0  0  0  0  0
    8.0030   -1.4290   23.9460 C   0  0  0  0  0  0  0  0  0  0  0  0
    8.5330    0.4190   21.3280 O   0  0  0  0  0  0  0  0  0  0  0  0
   13.2120   -2.6360   21.1120 Cl  0  0  0  0  0  0  0  0  0  0  0  0
    8.7020   -1.3700   22.6240 C   0  0  1  0  0  0  0  0  0  0  0  0
    8.0820   -0.7030   21.5630 C   0  0  0  0  0  0  0  0  0  0  0  0
    5.4930    1.7800   18.9450 C   0  0  1  0  0  0  0  0  0  0  0  0
    4.9100    1.5160   17.7980 C   0  0  0  0  0  0  0  0  0  0  0  0
    4.5530    0.3780   18.6910 C   0  0  0  0  0  0  0  0  0  0  0  0
    5.2450    0.3430   20.1280 C   0  0  0  0  0  0  0  0  0  0  0  0
    6.4150   -0.1190   20.1600 C   0  0  0  0  0  0  0  0  0  0  0  0
    6.7850    0.9020   19.3080 C   0  0  0  0  0  0  0  0  0  0  0  0
   10.5840    0.2040   23.3120 C   0  0  0  0  0  0  0  0  0  0  0  0
   12.0320    0.6080   23.3280 C   0  0  0  0  0  0  0  0  0  0  0  0
   12.9930   -0.2890   22.6250 C   0  0  0  0  0  0  0  0  0  0  0  0
   12.3430   -1.5010   21.9790 C   0  0  0  0  0  0  0  0  0  0  0  0
   11.0130   -1.7640   22.0340 C   0  0  0  0  0  0  0  0  0  0  0  0
   10.1300   -0.9580   22.6720 C   0  0  0  0  0  0  0  0  0  0  0  0
    4.2890    2.3040   19.8990 C   0  0  0  0  0  0  0  0  0  0  0  0
    3.9910    1.7360   21.1580 C   0  0  0  0  0  0  0  0  0  0  0  0
    4.9590    0.9080   21.2860 C   0  0  0  0  0  0  0  0  0  0  0  0
  5  2  1  1
  1  6  1  0
  3  6  2  0
  5  6  1  0
  7  8  1  6
  7  9  1  0
  8  9  2  0
  9 10  1  0
  1 11  1  0
 10 11  1  0
  7 12  1  0
 11 12  2  0
 13 14  2  0
 14 15  1  0
  4 16  1  0
 15 16  2  0
 16 17  1  0
  5 18  1  0
 13 18  1  0
 17 18  2  0
  7 19  1  0
 19 20  2  0
 10 21  2  0
 20 21  1  0
M  END
