x2643-x0434
     RDKit          3D

 16 17  0  0  0  0  0  0  0  0999 V2000
    6.7180   -0.9760   20.8420 N   0  0  0  0  0  0  0  0  0  0  0  0
    8.5320    0.3750   21.2690 O   0  0  0  0  0  0  0  0  0  0  0  0
   13.3900    0.2390   22.9920 Cl  0  0  0  0  0  0  0  0  0  0  0  0
    8.3780   -1.6340   22.5260 C   0  0  0  0  0  0  0  0  0  0  0  0
    7.8850   -0.6520   21.4820 C   0  0  0  0  0  0  0  0  0  0  0  0
   11.7640   -0.0380   23.2190 C   0  0  0  0  0  0  0  0  0  0  0  0
   10.9360    0.6030   24.0800 C   0  0  0  0  0  0  0  0  0  0  0  0
    9.6240    0.1000   23.9640 C   0  0  0  0  0  0  0  0  0  0  0  0
    9.5590   -0.8970   22.9920 C   0  0  0  0  0  0  0  0  0  0  0  0
   11.0650   -1.2270   22.2730 S   0  0  0  0  0  0  0  0  0  0  0  0
    6.3670    0.7670   17.6230 N   0  0  0  0  0  0  0  0  0  0  0  0
    6.8480   -0.0070   18.6140 C   0  0  0  0  0  0  0  0  0  0  0  0
    6.2040   -0.1790   19.8180 C   0  0  0  0  0  0  0  0  0  0  0  0
    4.9940    0.4740   20.0240 C   0  0  0  0  0  0  0  0  0  0  0  0
    4.4780    1.2820   19.0110 C   0  0  0  0  0  0  0  0  0  0  0  0
    5.2010    1.3980   17.8370 C   0  0  0  0  0  0  0  0  0  0  0  0
  1  5  1  0
  2  5  2  0
  4  5  1  0
  3  6  1  0
  6  7  2  0
  7  8  1  0
  4  9  1  0
  8  9  2  0
  6 10  1  0
  9 10  1  0
 11 12  2  0
  1 13  1  0
 12 13  1  0
 13 14  2  0
 14 15  1  0
 11 16  1  0
 15 16  2  0
M  END
