x2643-x0995
     RDKit          3D

 17 18  0  0  0  0  0  0  0  0999 V2000
    6.5940   -1.0890   20.7790 N   0  0  0  0  0  0  0  0  0  0  0  0
    8.4710    0.1270   21.2950 O   0  0  0  0  0  0  0  0  0  0  0  0
   13.4080    0.3010   22.9960 Cl  0  0  0  0  0  0  0  0  0  0  0  0
    8.3810   -1.7800   22.4650 C   0  0  0  0  0  0  0  0  0  0  0  0
    7.8300   -0.9060   21.5110 C   0  0  0  0  0  0  0  0  0  0  0  0
    3.3300    1.9930   19.1080 N   0  0  0  0  0  0  0  0  0  0  0  0
   11.8080   -0.0600   23.2530 C   0  0  0  0  0  0  0  0  0  0  0  0
   10.8820    0.4580   24.2520 C   0  0  0  0  0  0  0  0  0  0  0  0
    9.5410   -0.0540   24.1740 C   0  0  0  0  0  0  0  0  0  0  0  0
    9.5740   -1.0200   22.9860 C   0  0  0  0  0  0  0  0  0  0  0  0
   11.0890   -1.1770   22.2260 S   0  0  0  0  0  0  0  0  0  0  0  0
    6.4290    0.7880   17.6390 N   0  0  0  0  0  0  0  0  0  0  0  0
    6.8370   -0.0330   18.6220 C   0  0  0  0  0  0  0  0  0  0  0  0
    6.1410   -0.2320   19.7890 C   0  0  0  0  0  0  0  0  0  0  0  0
    4.9640    0.4370   19.9800 C   0  0  0  0  0  0  0  0  0  0  0  0
    4.5210    1.2930   18.9740 C   0  0  0  0  0  0  0  0  0  0  0  0
    5.2700    1.4290   17.8580 C   0  0  0  0  0  0  0  0  0  0  0  0
  1  5  1  0
  2  5  2  0
  4  5  1  0
  3  7  1  0
  7  8  2  0
  8  9  1  0
  4 10  1  0
  9 10  2  0
  7 11  1  0
 10 11  1  0
 12 13  2  0
  1 14  1  0
 13 14  1  0
 14 15  2  0
  6 16  1  0
 15 16  1  0
 12 17  1  0
 16 17  2  0
M  END
