x2649-x2908-x2646
     RDKit          3D

 19 20  0  0  0  0  0  0  0  0999 V2000
    6.9290   -0.7440   20.9750 N   0  0  0  0  0  0  0  0  0  0  0  0
    8.0740   -1.3320   23.9390 C   0  0  0  0  0  0  0  0  0  0  0  0
    8.5430    0.6830   21.3600 O   0  0  0  0  0  0  0  0  0  0  0  0
   13.2100   -2.7250   21.1300 Cl  0  0  0  0  0  0  0  0  0  0  0  0
    8.6910   -1.1820   22.5830 C   0  0  1  0  0  0  0  0  0  0  0  0
    8.0250   -0.4030   21.6160 C   0  0  0  0  0  0  0  0  0  0  0  0
    4.8700    1.1500   21.7300 C   0  0  0  0  0  0  0  0  0  0  0  0
    6.1930    0.6030   17.6090 N   0  0  0  0  0  0  0  0  0  0  0  0
    5.2270    1.5090   17.8230 C   0  0  0  0  0  0  0  0  0  0  0  0
    4.6680    1.8060   19.1750 C   0  0  0  0  0  0  0  0  0  0  0  0
    5.3300    0.9490   20.3200 C   0  0  0  0  0  0  0  0  0  0  0  0
    6.3300    0.0260   19.9890 C   0  0  0  0  0  0  0  0  0  0  0  0
    6.7040   -0.0930   18.6550 C   0  0  0  0  0  0  0  0  0  0  0  0
   10.6400    0.3190   23.1740 C   0  0  0  0  0  0  0  0  0  0  0  0
   12.1080    0.6670   23.1790 C   0  0  0  0  0  0  0  0  0  0  0  0
   12.9820   -0.3240   22.5250 C   0  0  0  0  0  0  0  0  0  0  0  0
   12.3380   -1.5450   21.9270 C   0  0  0  0  0  0  0  0  0  0  0  0
   10.9930   -1.7500   21.9910 C   0  0  0  0  0  0  0  0  0  0  0  0
   10.1410   -0.8590   22.5920 C   0  0  0  0  0  0  0  0  0  0  0  0
  5  2  1  1
  1  6  1  0
  3  6  2  0
  5  6  1  0
  8  9  2  0
  9 10  1  0
  7 11  1  0
 10 11  2  0
  1 12  1  0
 11 12  1  0
  8 13  1  0
 12 13  2  0
 14 15  2  0
 15 16  1  0
  4 17  1  0
 16 17  2  0
 17 18  1  0
  5 19  1  0
 14 19  1  0
 18 19  2  0
M  END
