x2643-x1478
     RDKit          3D

 28 30  0  0  0  0  0  0  0  0999 V2000
    6.6130   -0.5720   21.0110 N   0  0  0  0  0  0  0  0  0  0  0  0
    8.4620    0.7000   21.3800 O   0  0  0  0  0  0  0  0  0  0  0  0
   13.4080    0.0190   22.9130 Cl  0  0  0  0  0  0  0  0  0  0  0  0
    8.1840   -1.3230   22.7270 C   0  0  1  0  0  0  0  0  0  0  0  0
    7.8020   -0.3070   21.6780 C   0  0  0  0  0  0  0  0  0  0  0  0
    6.8140   -2.8420   21.5320 N   0  0  0  0  0  0  0  0  0  0  0  0
    7.7750   -3.8500   19.6270 C   0  0  0  0  0  0  0  0  0  0  0  0
    5.5570   -3.5220   19.5530 O   0  0  0  0  0  0  0  0  0  0  0  0
    6.2590   -5.9210   22.4030 Cl  0  0  0  0  0  0  0  0  0  0  0  0
    6.6000   -3.3500   20.2350 C   0  0  0  0  0  0  0  0  0  0  0  0
    8.1070   -2.6500   22.0120 C   0  0  0  0  0  0  0  0  0  0  0  0
   11.8470   -0.3380   23.3840 C   0  0  0  0  0  0  0  0  0  0  0  0
   11.3570   -0.3070   24.6520 C   0  0  0  0  0  0  0  0  0  0  0  0
   10.0380   -0.6290   24.6680 C   0  0  0  0  0  0  0  0  0  0  0  0
    9.5040   -0.9420   23.2660 C   0  0  0  0  0  0  0  0  0  0  0  0
   10.7900   -0.7790   22.1390 S   0  0  0  0  0  0  0  0  0  0  0  0
    6.3600    0.9110   17.5340 N   0  0  0  0  0  0  0  0  0  0  0  0
    6.8100    0.2290   18.5800 C   0  0  0  0  0  0  0  0  0  0  0  0
    6.1300    0.1420   19.9180 C   0  0  0  0  0  0  0  0  0  0  0  0
    4.8340    0.9100   19.9880 C   0  0  0  0  0  0  0  0  0  0  0  0
    4.4210    1.6000   18.8550 C   0  0  0  0  0  0  0  0  0  0  0  0
    5.1910    1.5700   17.7070 C   0  0  0  0  0  0  0  0  0  0  0  0
    4.7220   -4.7220   23.9870 N   0  0  0  0  0  0  0  0  0  0  0  0
    5.5900   -4.4530   23.0100 C   0  0  0  0  0  0  0  0  0  0  0  0
    5.8990   -3.1680   22.5640 C   0  0  0  0  0  0  0  0  0  0  0  0
    5.2780   -2.0920   23.1700 C   0  0  0  0  0  0  0  0  0  0  0  0
    4.2860   -2.4050   24.2930 C   0  0  0  0  0  0  0  0  0  0  0  0
    4.0760   -3.7280   24.6240 C   0  0  0  0  0  0  0  0  0  0  0  0
  1  5  1  0
  2  5  2  0
  4  5  1  0
  6 10  1  0
  7 10  1  0
  8 10  2  0
  4 11  1  6
  6 11  1  0
  3 12  1  0
 12 13  2  0
 13 14  1  0
  4 15  1  0
 14 15  2  0
 12 16  1  0
 15 16  1  0
 17 18  2  0
  1 19  1  0
 18 19  1  0
 19 20  2  0
 20 21  1  0
 17 22  1  0
 21 22  2  0
  9 24  1  0
 23 24  2  0
  6 25  1  0
 24 25  1  0
 25 26  2  0
 26 27  1  0
 23 28  1  0
 27 28  2  0
M  END
