x2649-x0991-x0705
     RDKit          3D

 41 45  0  0  0  0  0  0  0  0999 V2000
    6.8350   -0.5790   21.0660 N   0  0  0  0  0  0  0  0  0  0  0  0
    8.6270    0.8370   21.7120 O   0  0  0  0  0  0  0  0  0  0  0  0
   13.3840   -1.9030   21.1390 Cl  0  0  0  0  0  0  0  0  0  0  0  0
    8.5770   -1.2170   22.5830 C   0  0  1  0  0  0  0  0  0  0  0  0
    7.9950   -0.1540   21.7170 C   0  0  0  0  0  0  0  0  0  0  0  0
    4.7430    1.3300   21.6530 C   0  0  0  0  0  0  0  0  0  0  0  0
    1.1240   -2.6470   27.7420 C   0  0  0  0  0  0  0  0  0  0  0  0
    7.3280   -1.7130   26.3760 O   0  0  0  0  0  0  0  0  0  0  0  0
    5.9420   -3.7650   19.7100 O   0  0  0  0  0  0  0  0  0  0  0  0
    6.3650   -1.7550   25.6090 C   0  0  0  0  0  0  0  0  0  0  0  0
    6.8510   -3.7350   20.5910 C   0  0  0  0  0  0  0  0  0  0  0  0
    8.0900   -4.5350   20.4230 C   0  0  0  0  0  0  0  0  0  0  0  0
    9.9790   -5.6340   25.2530 N   0  0  0  0  0  0  0  0  0  0  0  0
    8.7860   -3.9500   23.1110 C   0  0  0  0  0  0  0  0  0  0  0  0
    8.0990   -4.8340   23.9670 C   0  0  0  0  0  0  0  0  0  0  0  0
    8.1860   -5.0220   26.4430 N   0  0  0  0  0  0  0  0  0  0  0  0
    8.7950   -5.1750   25.2380 C   0  0  0  0  0  0  0  0  0  0  0  0
    6.1820    0.6240   17.6120 N   0  0  0  0  0  0  0  0  0  0  0  0
    5.2080    1.5270   17.7890 C   0  0  0  0  0  0  0  0  0  0  0  0
    4.6190    1.8610   19.1300 C   0  0  0  0  0  0  0  0  0  0  0  0
    5.2470    1.0720   20.2680 C   0  0  0  0  0  0  0  0  0  0  0  0
    6.2500    0.1570   19.9940 C   0  0  0  0  0  0  0  0  0  0  0  0
    6.6740   -0.0270   18.6910 C   0  0  0  0  0  0  0  0  0  0  0  0
   10.5000    0.0960   23.6940 C   0  0  0  0  0  0  0  0  0  0  0  0
   11.8300    0.4490   23.8480 C   0  0  0  0  0  0  0  0  0  0  0  0
   12.7690   -0.1620   23.0670 C   0  0  0  0  0  0  0  0  0  0  0  0
   12.3200   -1.1160   22.1560 C   0  0  0  0  0  0  0  0  0  0  0  0
   11.0110   -1.4680   22.0080 C   0  0  0  0  0  0  0  0  0  0  0  0
   10.0480   -0.8620   22.7740 C   0  0  0  0  0  0  0  0  0  0  0  0
    2.4910   -2.4100   27.1820 C   0  0  0  0  0  0  0  0  0  0  0  0
    2.6970   -1.4320   26.2130 C   0  0  0  0  0  0  0  0  0  0  0  0
    3.9640   -1.2160   25.6950 C   0  0  0  0  0  0  0  0  0  0  0  0
    5.0310   -1.9920   26.1590 C   0  0  0  0  0  0  0  0  0  0  0  0
    4.8450   -2.9730   27.1250 C   0  0  0  0  0  0  0  0  0  0  0  0
    3.5740   -3.1800   27.6350 C   0  0  0  0  0  0  0  0  0  0  0  0
    6.8250   -3.0300   21.7880 N   0  0  0  0  0  0  0  0  0  0  0  0
    5.6380   -3.2250   22.6110 C   0  0  0  0  0  0  0  0  0  0  0  0
    5.3690   -2.0620   23.3570 C   0  0  0  0  0  0  0  0  0  0  0  0
    6.4600   -1.5950   24.2310 N   0  0  0  0  0  0  0  0  0  0  0  0
    7.8120   -1.7770   23.7770 C   0  0  1  0  0  0  0  0  0  0  0  0
    8.0360   -2.7060   22.6060 C   0  0  2  0  0  0  0  0  0  0  0  0
  1  5  1  0
  2  5  2  0
  4  5  1  6
  8 10  2  0
  9 11  2  0
 11 12  1  0
 14 15  1  0
 13 17  2  3
 15 17  1  0
 16 17  1  0
 18 19  2  0
 19 20  1  0
  6 21  1  0
 20 21  2  0
  1 22  1  0
 21 22  1  0
 18 23  1  0
 22 23  2  0
 24 25  2  0
 25 26  1  0
  3 27  1  0
 26 27  2  0
 27 28  1  0
  4 29  1  0
 24 29  1  0
 28 29  2  0
  7 30  1  0
 30 31  2  0
 31 32  1  0
 10 33  1  0
 32 33  2  0
 33 34  1  0
 30 35  1  0
 34 35  2  0
 11 36  1  0
 36 37  1  0
 37 38  1  0
 10 39  1  0
 38 39  1  0
  4 40  1  0
 40 39  1  6
  4 41  1  0
 41 14  1  1
 36 41  1  0
 40 41  1  0
M  END
