x2643-x1311-x2540
     RDKit          3D

 43 46  0  0  0  0  0  0  0  0999 V2000
    6.6150   -1.1530   22.1990 N   0  0  0  0  0  0  0  0  0  0  0  0
    6.7320   -4.1760   20.3540 C   0  0  2  0  0  0  0  0  0  0  0  0
    4.6480   -2.9620   21.5840 O   0  0  0  0  0  0  0  0  0  0  0  0
    6.5970   -2.7520   20.4510 C   0  0  0  0  0  0  0  0  0  0  0  0
    7.8590    1.8190   23.0830 N   0  0  0  0  0  0  0  0  0  0  0  0
    8.5450    1.3170   20.9460 O   0  0  0  0  0  0  0  0  0  0  0  0
    5.8460   -2.2760   21.4970 C   0  0  0  0  0  0  0  0  0  0  0  0
    6.4260    0.2730   21.7210 C   0  0  1  0  0  0  0  0  0  0  0  0
    7.7290    1.1680   21.8640 C   0  0  0  0  0  0  0  0  0  0  0  0
    8.8650    2.8510   23.3860 C   0  0  0  0  0  0  0  0  0  0  0  0
    8.8620    3.0530   24.8750 C   0  0  0  0  0  0  0  0  0  0  0  0
    8.4590    4.1770   22.7130 C   0  0  0  0  0  0  0  0  0  0  0  0
   10.2820    2.4800   22.9090 C   0  0  0  0  0  0  0  0  0  0  0  0
   11.7850   -1.3220   23.5950 C   0  0  0  0  0  0  0  0  0  0  0  0
   12.5740   -1.2560   22.2700 C   0  0  0  0  0  0  0  0  0  0  0  0
   12.1820   -0.0740   24.3930 C   0  0  0  0  0  0  0  0  0  0  0  0
   12.2970   -2.5440   24.3840 C   0  0  0  0  0  0  0  0  0  0  0  0
    5.5830   -4.7060   19.7110 O   0  0  0  0  0  0  0  0  0  0  0  0
    6.6550   -4.8100   21.7700 N   0  0  0  0  0  0  0  0  0  0  0  0
    4.3190   -7.1750   25.1790 O   0  0  0  0  0  0  0  0  0  0  0  0
    2.7620   -5.3150   24.4900 O   0  0  0  0  0  0  0  0  0  0  0  0
    6.3060    0.3030   17.9580 N   0  0  0  0  0  0  0  0  0  0  0  0
    5.2380    1.0920   17.8130 C   0  0  0  0  0  0  0  0  0  0  0  0
    4.4250    1.6850   18.9270 C   0  0  0  0  0  0  0  0  0  0  0  0
    4.8930    1.3470   20.1620 C   0  0  0  0  0  0  0  0  0  0  0  0
    6.0100    0.5320   20.3000 C   0  0  0  0  0  0  0  0  0  0  0  0
    6.7190    0.0040   19.2050 C   0  0  0  0  0  0  0  0  0  0  0  0
    9.4950   -1.5330   24.4950 O   0  0  0  0  0  0  0  0  0  0  0  0
    8.1290   -1.5050   24.1950 N   0  0  0  0  0  0  0  0  0  0  0  0
    7.9550   -1.2790   22.8340 C   0  0  0  0  0  0  0  0  0  0  0  0
    9.2870   -1.1800   22.3300 C   0  0  0  0  0  0  0  0  0  0  0  0
   10.2560   -1.3340   23.3860 C   0  0  0  0  0  0  0  0  0  0  0  0
    8.3120   -6.1250   22.8670 C   0  0  0  0  0  0  0  0  0  0  0  0
    9.3620   -6.2490   23.7730 C   0  0  0  0  0  0  0  0  0  0  0  0
    9.7760   -5.1170   24.4660 C   0  0  0  0  0  0  0  0  0  0  0  0
    9.1600   -3.9010   24.2600 C   0  0  0  0  0  0  0  0  0  0  0  0
    8.1250   -3.8060   23.3580 C   0  0  0  0  0  0  0  0  0  0  0  0
    7.6930   -4.9140   22.6510 C   0  0  0  0  0  0  0  0  0  0  0  0
    4.7360   -6.2100   21.9570 C   0  0  0  0  0  0  0  0  0  0  0  0
    5.3650   -5.1040   22.4680 C   0  0  1  0  0  0  0  0  0  0  0  0
    5.3710   -5.0860   23.8860 C   0  0  0  0  0  0  0  0  0  0  0  0
    3.9430   -6.1160   24.2450 S   0  0  0  0  0  0  0  0  0  0  0  0
    3.8490   -6.8250   22.7770 C   0  0  0  0  0  0  0  0  0  0  0  0
  2  4  1  0
  1  7  1  0
  3  7  2  0
  4  7  1  0
  1  8  1  0
  5  9  1  0
  6  9  2  0
  8  9  1  6
 10  5  1  0
 10 11  1  0
 10 12  1  0
 10 13  1  0
 14 15  1  0
 14 16  1  0
 14 17  1  0
  2 18  1  6
  2 19  1  0
 22 23  2  0
 23 24  1  0
 24 25  2  0
  8 26  1  0
 25 26  1  0
 22 27  1  0
 26 27  2  0
 28 29  1  0
  1 30  1  0
 29 30  2  0
 30 31  1  0
 14 32  1  0
 28 32  1  0
 31 32  2  0
 33 34  2  0
 34 35  1  0
 35 36  2  0
 36 37  1  0
 19 38  1  0
 33 38  1  0
 37 38  2  0
 40 19  1  1
 39 40  1  0
 40 41  1  0
 42 20  1  0
 21 42  1  0
 41 42  1  0
 39 43  2  0
 42 43  1  0
M  END
