x2643-x1308-x2705
     RDKit          3D

 50 56  0  0  0  0  0  0  0  0999 V2000
    6.8670   -1.4220   22.0320 N   0  0  0  0  0  0  0  0  0  0  0  0
    6.8380   -4.5600   20.3990 C   0  0  2  0  0  0  0  0  0  0  0  0
    4.8190   -3.0220   21.3230 O   0  0  0  0  0  0  0  0  0  0  0  0
    7.0680   -3.6970   21.5440 C   0  0  2  0  0  0  0  0  0  0  0  0
    7.3880    2.0560   22.7630 N   0  0  0  0  0  0  0  0  0  0  0  0
    8.8830    0.8220   21.5030 O   0  0  0  0  0  0  0  0  0  0  0  0
    6.1090   -2.6580   21.6240 C   0  0  0  0  0  0  0  0  0  0  0  0
    6.5630   -0.0160   21.6180 C   0  0  1  0  0  0  0  0  0  0  0  0
    7.7460    0.9690   21.9490 C   0  0  0  0  0  0  0  0  0  0  0  0
   10.1450    2.0780   23.9490 C   0  0  0  0  0  0  0  0  0  0  0  0
    9.3130    1.2210   24.8970 C   0  0  0  0  0  0  0  0  0  0  0  0
    6.1440    4.4820   21.8680 C   0  0  0  0  0  0  0  0  0  0  0  0
   12.0140   -1.5480   23.2430 C   0  0  0  0  0  0  0  0  0  0  0  0
   12.5930   -0.1890   23.7020 C   0  0  0  0  0  0  0  0  0  0  0  0
   12.4780   -2.5880   24.2820 C   0  0  0  0  0  0  0  0  0  0  0  0
   12.6590   -1.8880   21.8840 C   0  0  0  0  0  0  0  0  0  0  0  0
    5.5490   -4.5470   19.7910 O   0  0  0  0  0  0  0  0  0  0  0  0
    0.7930   -1.2170   26.4670 Cl  0  0  0  0  0  0  0  0  0  0  0  0
    6.3730   -5.1360   26.8020 O   0  0  0  0  0  0  0  0  0  0  0  0
    4.6900   -6.8830   26.1140 O   0  0  0  0  0  0  0  0  0  0  0  0
    5.3070   -5.5880   25.9380 S   0  0  0  0  0  0  0  0  0  0  0  0
    6.3370    0.3890   17.8610 N   0  0  0  0  0  0  0  0  0  0  0  0
    5.2060    1.0940   17.7730 C   0  0  0  0  0  0  0  0  0  0  0  0
    4.3440    1.5090   18.9270 C   0  0  0  0  0  0  0  0  0  0  0  0
    4.8740    1.0680   20.2700 C   0  0  0  0  0  0  0  0  0  0  0  0
    6.0600    0.3540   20.2600 C   0  0  0  0  0  0  0  0  0  0  0  0
    6.7330    0.0380   19.0880 C   0  0  0  0  0  0  0  0  0  0  0  0
    9.6690   -1.5050   24.2600 N   0  0  0  0  0  0  0  0  0  0  0  0
    8.3410   -1.4800   23.9950 N   0  0  0  0  0  0  0  0  0  0  0  0
    8.1980   -1.4780   22.6510 C   0  0  0  0  0  0  0  0  0  0  0  0
    9.5160   -1.5130   22.1290 C   0  0  0  0  0  0  0  0  0  0  0  0
   10.4750   -1.5250   23.1620 C   0  0  0  0  0  0  0  0  0  0  0  0
    9.4270    3.3230   23.4750 C   0  0  0  0  0  0  0  0  0  0  0  0
   10.1370    4.5170   23.6270 C   0  0  0  0  0  0  0  0  0  0  0  0
    9.4830    5.7090   23.1810 C   0  0  0  0  0  0  0  0  0  0  0  0
    8.1920    5.6440   22.6180 C   0  0  0  0  0  0  0  0  0  0  0  0
    7.5190    4.4420   22.4850 C   0  0  0  0  0  0  0  0  0  0  0  0
    8.1240    3.2760   22.9130 C   0  0  0  0  0  0  0  0  0  0  0  0
    6.8900   -5.3010   21.7100 C   0  0  2  0  0  0  0  0  0  0  0  0
    7.3020   -4.4420   22.7680 C   0  0  2  0  0  0  0  0  0  0  0  0
    6.4720   -4.2100   23.8950 C   0  0  0  0  0  0  0  0  0  0  0  0
    5.8650   -5.4690   24.3230 N   0  0  0  0  0  0  0  0  0  0  0  0
    5.0930   -6.1220   23.2270 C   0  0  0  0  0  0  0  0  0  0  0  0
    5.8850   -6.3560   22.0800 C   0  0  0  0  0  0  0  0  0  0  0  0
    4.3360   -3.0820   26.4690 C   0  0  0  0  0  0  0  0  0  0  0  0
    3.3130   -2.1280   26.5790 C   0  0  0  0  0  0  0  0  0  0  0  0
    1.9830   -2.4440   26.2830 C   0  0  0  0  0  0  0  0  0  0  0  0
    1.5720   -3.7110   25.8510 C   0  0  0  0  0  0  0  0  0  0  0  0
    2.5660   -4.7500   25.7120 C   0  0  0  0  0  0  0  0  0  0  0  0
    4.0210   -4.3710   26.0560 C   0  0  0  0  0  0  0  0  0  0  0  0
  2  4  1  0
  1  7  1  0
  3  7  2  0
  4  7  1  1
  1  8  1  0
  5  9  1  0
  6  9  2  0
  8  9  1  6
 10 11  1  0
 13 14  1  0
 13 15  1  0
 13 16  1  0
  2 17  1  1
 19 21  2  0
 20 21  2  0
 22 23  2  0
 23 24  1  0
 24 25  2  0
  8 26  1  0
 25 26  1  0
 22 27  1  0
 26 27  2  0
 28 29  1  0
  1 30  1  0
 29 30  2  0
 30 31  1  0
 13 32  1  0
 28 32  1  0
 31 32  2  0
 10 33  1  0
 33 34  2  0
 34 35  1  0
 35 36  2  0
 12 37  1  0
 36 37  1  0
  5 38  1  0
 33 38  1  0
 37 38  2  0
  2 39  1  0
  4 39  1  0
  4 40  1  0
 39 40  1  0
 40 41  1  1
 21 42  1  0
 41 42  1  0
 42 43  1  0
 39 44  1  1
 43 44  1  0
 45 46  2  0
 18 47  1  0
 46 47  1  0
 47 48  2  0
 48 49  1  0
 21 50  1  0
 45 50  1  0
 49 50  2  0
M  END
