x2649-x0397-x0678
     RDKit          3D

 27 31  0  0  0  0  0  0  0  0999 V2000
    6.8940   -1.1820   20.3740 C   0  0  1  0  0  0  0  0  0  0  0  0
    7.8650   -1.4220   23.7830 C   0  0  0  0  0  0  0  0  0  0  0  0
    8.1390    0.5600   22.0880 N   0  0  0  0  0  0  0  0  0  0  0  0
   13.1810   -2.7140   21.1740 Cl  0  0  0  0  0  0  0  0  0  0  0  0
    8.6080   -0.8940   22.5390 C   0  0  2  0  0  0  0  0  0  0  0  0
    7.7380   -0.4840   21.4870 C   0  0  0  0  0  0  0  0  0  0  0  0
    4.2990    0.7230   21.5180 C   0  0  0  0  0  0  0  0  0  0  0  0
    7.3880   -1.1240   18.9760 C   0  0  0  0  0  0  0  0  0  0  0  0
    3.2480    2.5240   19.4940 C   0  0  0  0  0  0  0  0  0  0  0  0
    6.1900   -2.5820   20.7410 C   0  0  0  0  0  0  0  0  0  0  0  0
    5.3540   -3.1460   20.0090 O   0  0  0  0  0  0  0  0  0  0  0  0
    6.5440   -3.2480   21.9320 N   0  0  0  0  0  0  0  0  0  0  0  0
    6.2820    0.6630   17.6290 N   0  0  0  0  0  0  0  0  0  0  0  0
    5.1400    1.5550   17.9070 C   0  0  0  0  0  0  0  0  0  0  0  0
    4.4000    1.6260   19.2170 C   0  0  0  0  0  0  0  0  0  0  0  0
    4.9200    0.7370   20.1610 C   0  0  0  0  0  0  0  0  0  0  0  0
    5.9820   -0.1170   19.8680 C   0  0  0  0  0  0  0  0  0  0  0  0
    6.6190   -0.1520   18.6190 C   0  0  0  0  0  0  0  0  0  0  0  0
   10.6430    0.2530   23.2400 C   0  0  0  0  0  0  0  0  0  0  0  0
   12.1210    0.4210   23.3040 C   0  0  0  0  0  0  0  0  0  0  0  0
   12.8980   -0.5120   22.6630 C   0  0  0  0  0  0  0  0  0  0  0  0
   12.2700   -1.5620   21.9880 C   0  0  0  0  0  0  0  0  0  0  0  0
   10.9000   -1.6930   21.9520 C   0  0  0  0  0  0  0  0  0  0  0  0
   10.0980   -0.7800   22.5790 C   0  0  0  0  0  0  0  0  0  0  0  0
    6.4330   -5.1690   23.3250 C   0  0  0  0  0  0  0  0  0  0  0  0
    5.8530   -4.4230   22.4150 C   0  0  0  0  0  0  0  0  0  0  0  0
    5.9970   -5.5710   21.8040 C   0  0  0  0  0  0  0  0  0  0  0  0
  5  2  1  1
  3  5  1  0
  1  6  1  0
  3  6  2  0
  5  6  1  0
  1  8  1  0
  1 10  1  1
 10 11  2  0
 10 12  1  0
 13 14  1  0
  9 15  1  0
 14 15  2  0
  7 16  1  0
 15 16  1  0
  1 17  1  0
 16 17  2  0
  8 18  2  0
 13 18  1  0
 17 18  1  0
 19 20  2  0
 20 21  1  0
  4 22  1  0
 21 22  2  0
 22 23  1  0
  5 24  1  0
 19 24  1  0
 23 24  2  0
 12 26  1  0
 25 26  1  0
 25 27  1  0
 26 27  1  0
M  END
