x2649-x0426
     RDKit          3D

 30 32  0  0  0  0  0  0  0  0999 V2000
    6.7160   -0.5910   21.1390 N   0  0  0  0  0  0  0  0  0  0  0  0
    8.0270   -1.1570   24.0120 C   0  0  0  0  0  0  0  0  0  0  0  0
    8.6540    0.9170   21.3510 O   0  0  0  0  0  0  0  0  0  0  0  0
   13.2220   -2.6360   21.1390 Cl  0  0  0  0  0  0  0  0  0  0  0  0
    8.6080   -1.2270   22.5940 C   0  0  1  0  0  0  0  0  0  0  0  0
    7.9630   -0.2890   21.6740 C   0  0  0  0  0  0  0  0  0  0  0  0
    4.3190    1.1540   21.8220 C   0  0  2  0  0  0  0  0  0  0  0  0
    2.3840    1.5750   23.2900 C   0  0  0  0  0  0  0  0  0  0  0  0
    2.5880    0.2770   23.8150 O   0  0  0  0  0  0  0  0  0  0  0  0
    3.0520    1.9490   22.0830 N   0  0  0  0  0  0  0  0  0  0  0  0
    3.0360    4.0660   24.8090 F   0  0  0  0  0  0  0  0  0  0  0  0
    5.3400    1.8830   22.6910 C   0  0  0  0  0  0  0  0  0  0  0  0
    6.0850    0.7240   17.7750 N   0  0  0  0  0  0  0  0  0  0  0  0
    5.0270    1.5070   18.0450 C   0  0  0  0  0  0  0  0  0  0  0  0
    4.4280    1.6750   19.2930 C   0  0  0  0  0  0  0  0  0  0  0  0
    4.9080    1.0190   20.3970 C   0  0  0  0  0  0  0  0  0  0  0  0
    6.0310    0.1940   20.1080 C   0  0  0  0  0  0  0  0  0  0  0  0
    6.5570    0.0790   18.8550 C   0  0  0  0  0  0  0  0  0  0  0  0
   10.6070    0.2130   23.3110 C   0  0  0  0  0  0  0  0  0  0  0  0
   11.9830    0.4960   23.3340 C   0  0  0  0  0  0  0  0  0  0  0  0
   12.9600   -0.3620   22.6670 C   0  0  0  0  0  0  0  0  0  0  0  0
   12.3360   -1.5020   22.0010 C   0  0  0  0  0  0  0  0  0  0  0  0
   10.9930   -1.7060   22.0290 C   0  0  0  0  0  0  0  0  0  0  0  0
   10.0980   -0.9030   22.6510 C   0  0  0  0  0  0  0  0  0  0  0  0
    1.7610    3.6260   24.8070 C   0  0  0  0  0  0  0  0  0  0  0  0
    1.4000    2.4760   24.1120 C   0  0  0  0  0  0  0  0  0  0  0  0
    0.0630    2.0370   24.1310 C   0  0  0  0  0  0  0  0  0  0  0  0
   -0.8600    2.7870   24.8580 C   0  0  0  0  0  0  0  0  0  0  0  0
   -0.5350    3.9420   25.5620 C   0  0  0  0  0  0  0  0  0  0  0  0
    0.7900    4.3560   25.5300 C   0  0  0  0  0  0  0  0  0  0  0  0
  5  2  1  1
  1  6  1  0
  3  6  2  0
  5  6  1  0
  8  9  2  0
  7 10  1  0
  8 10  1  0
  7 12  1  1
 13 14  2  0
 14 15  1  0
  7 16  1  0
 15 16  2  0
  1 17  1  0
 16 17  1  0
 13 18  1  0
 17 18  2  0
 19 20  2  0
 20 21  1  0
  4 22  1  0
 21 22  2  0
 22 23  1  0
  5 24  1  0
 19 24  1  0
 23 24  2  0
 11 25  1  0
  8 26  1  0
 25 26  2  0
 26 27  1  0
 27 28  2  0
 28 29  1  0
 25 30  1  0
 29 30  2  0
M  END
