x2643-x1374
     RDKit          3D

 35 38  0  0  0  0  0  0  0  0999 V2000
   10.8240   -4.1150   25.6220 C   0  0  0  0  0  0  0  0  0  0  0  0
    6.3810   -4.5870   22.1550 N   0  0  0  0  0  0  0  0  0  0  0  0
    6.3180   -4.3870   20.7180 C   0  0  0  0  0  0  0  0  0  0  0  0
    5.4890   -5.0450   20.0550 O   0  0  0  0  0  0  0  0  0  0  0  0
    7.1240   -3.4280   19.7660 C   0  0  0  0  0  0  0  0  0  0  0  0
    2.1520   -6.7290   23.8640 O   0  0  0  0  0  0  0  0  0  0  0  0
    4.3950   -8.0210   24.3200 O   0  0  0  0  0  0  0  0  0  0  0  0
    6.9410   -1.1320   20.8320 N   0  0  0  0  0  0  0  0  0  0  0  0
    8.0260    0.6760   21.4410 O   0  0  0  0  0  0  0  0  0  0  0  0
   13.4600   -0.1330   22.7470 Cl  0  0  0  0  0  0  0  0  0  0  0  0
    8.1030   -1.1590   22.7580 C   0  0  0  0  0  0  0  0  0  0  0  0
    7.6700   -0.4900   21.6490 C   0  0  0  0  0  0  0  0  0  0  0  0
    7.6690   -2.0540   20.2150 C   0  0  0  0  0  0  0  0  0  0  0  0
    9.6770   -4.2790   24.6920 C   0  0  0  0  0  0  0  0  0  0  0  0
    9.1200   -3.1820   24.1110 C   0  0  0  0  0  0  0  0  0  0  0  0
    8.0300   -3.1630   23.2300 C   0  0  0  0  0  0  0  0  0  0  0  0
    7.5420   -4.4160   22.9890 C   0  0  0  0  0  0  0  0  0  0  0  0
    8.0270   -5.7810   23.5200 C   0  0  0  0  0  0  0  0  0  0  0  0
    9.1940   -5.5150   24.4370 C   0  0  0  0  0  0  0  0  0  0  0  0
    5.3200   -4.8880   24.1880 C   0  0  0  0  0  0  0  0  0  0  0  0
    5.5850   -5.5480   22.9790 C   0  0  1  0  0  0  0  0  0  0  0  0
    4.4220   -6.0320   22.4720 C   0  0  0  0  0  0  0  0  0  0  0  0
    3.7340   -6.6360   23.9870 S   0  0  0  0  0  0  0  0  0  0  0  0
    4.3000   -5.3750   24.9110 C   0  0  0  0  0  0  0  0  0  0  0  0
   11.8360   -0.1780   23.0980 C   0  0  0  0  0  0  0  0  0  0  0  0
   11.2210    0.5430   24.0870 C   0  0  0  0  0  0  0  0  0  0  0  0
    9.8740    0.3160   24.1420 C   0  0  0  0  0  0  0  0  0  0  0  0
    9.4500   -0.6610   23.0790 C   0  0  0  0  0  0  0  0  0  0  0  0
   10.8220   -1.1700   22.1860 S   0  0  0  0  0  0  0  0  0  0  0  0
    6.3330    0.8410   17.6130 N   0  0  0  0  0  0  0  0  0  0  0  0
    6.8480    0.0550   18.5620 C   0  0  0  0  0  0  0  0  0  0  0  0
    6.2690   -0.2760   19.9000 C   0  0  0  0  0  0  0  0  0  0  0  0
    4.9340    0.4180   20.0880 C   0  0  0  0  0  0  0  0  0  0  0  0
    4.4270    1.2340   19.0650 C   0  0  0  0  0  0  0  0  0  0  0  0
    5.1430    1.4080   17.8870 C   0  0  0  0  0  0  0  0  0  0  0  0
  2  3  1  0
  3  4  2  0
  3  5  1  0
  8 12  1  0
  9 12  2  0
 11 12  1  0
  5 13  1  0
  8 13  1  0
  1 14  1  0
 14 15  2  0
 15 16  1  0
  2 17  1  0
 16 17  2  0
 17 18  1  0
 14 19  1  0
 18 19  2  0
 21  2  1  6
 20 21  1  0
 21 22  1  0
 23  6  1  0
  7 23  1  0
 22 23  1  0
 20 24  2  0
 23 24  1  0
 10 25  1  0
 25 26  2  0
 26 27  1  0
 11 28  1  0
 27 28  2  0
 25 29  1  0
 28 29  1  0
 30 31  2  0
  8 32  1  0
 31 32  1  0
 32 33  2  0
 33 34  1  0
 30 35  1  0
 34 35  2  0
M  END
