x2649-x0946
     RDKit          3D

 29 31  0  0  0  0  0  0  0  0999 V2000
    7.0900   -0.5400   20.8010 N   0  0  0  0  0  0  0  0  0  0  0  0
    8.0490   -0.4090   23.9200 C   0  0  0  0  0  0  0  0  0  0  0  0
    8.8170    1.1970   21.1790 O   0  0  0  0  0  0  0  0  0  0  0  0
   13.2100   -2.8610   21.4460 Cl  0  0  0  0  0  0  0  0  0  0  0  0
    8.6440   -0.8770   22.5820 C   0  0  1  0  0  0  0  0  0  0  0  0
    8.1720   -0.0510   21.4940 C   0  0  0  0  0  0  0  0  0  0  0  0
    4.8070    1.2380   21.7280 C   0  0  0  0  0  0  0  0  0  0  0  0
    9.0470    5.5840   22.8050 N   0  0  0  0  0  0  0  0  0  0  0  0
    9.7300    5.5740   25.2530 O   0  0  0  0  0  0  0  0  0  0  0  0
   11.2500    6.6620   23.6460 O   0  0  0  0  0  0  0  0  0  0  0  0
   10.3450    5.5750   23.9510 S   0  0  0  0  0  0  0  0  0  0  0  0
    6.2550    0.7140   17.4950 N   0  0  0  0  0  0  0  0  0  0  0  0
    5.1560    1.6040   17.7860 C   0  0  0  0  0  0  0  0  0  0  0  0
    4.6150    1.8250   19.1720 C   0  0  0  0  0  0  0  0  0  0  0  0
    5.2660    1.0790   20.3110 C   0  0  0  0  0  0  0  0  0  0  0  0
    6.3190    0.2550   19.8850 C   0  0  0  0  0  0  0  0  0  0  0  0
    6.7380    0.1160   18.5870 C   0  0  0  0  0  0  0  0  0  0  0  0
   10.7740    0.1950   23.1410 C   0  0  0  0  0  0  0  0  0  0  0  0
   12.1210    0.4930   23.3060 C   0  0  0  0  0  0  0  0  0  0  0  0
   12.7500   -0.6330   22.7320 C   0  0  0  0  0  0  0  0  0  0  0  0
   12.1950   -1.7210   22.1120 C   0  0  0  0  0  0  0  0  0  0  0  0
   10.8180   -1.9510   21.9760 C   0  0  0  0  0  0  0  0  0  0  0  0
   10.1330   -0.8860   22.5650 C   0  0  0  0  0  0  0  0  0  0  0  0
   12.4010    1.9080   23.0410 C   0  0  0  0  0  0  0  0  0  0  0  0
   12.9480    3.1050   22.6020 C   0  0  0  0  0  0  0  0  0  0  0  0
   12.3030    4.2270   22.8900 C   0  0  0  0  0  0  0  0  0  0  0  0
   11.2140    4.0130   23.5840 C   0  0  0  0  0  0  0  0  0  0  0  0
   10.7030    2.7940   24.0260 C   0  0  0  0  0  0  0  0  0  0  0  0
   11.2410    1.4990   23.7970 C   0  0  0  0  0  0  0  0  0  0  0  0
  5  2  1  1
  1  6  1  0
  3  6  2  0
  5  6  1  0
 11  8  1  0
  9 11  2  0
 10 11  2  0
 12 13  2  0
 13 14  1  0
  7 15  1  0
 14 15  2  0
  1 16  1  0
 15 16  1  0
 12 17  1  0
 16 17  2  0
 18 19  2  0
 19 20  1  0
  4 21  1  0
 20 21  2  0
 21 22  1  0
  5 23  1  0
 18 23  1  0
 22 23  2  0
 24 25  2  0
 25 26  1  0
 11 27  1  0
 26 27  2  0
 27 28  1  0
 19 29  1  0
 24 29  1  0
 28 29  2  0
M  END
