x2646-x1412
     RDKit          3D

 34 39  0  0  0  0  0  0  0  0999 V2000
    4.4810    1.5210   21.6060 C   0  0  0  0  0  0  0  0  0  0  0  0
    8.2110   -0.9570   19.8140 O   0  0  0  0  0  0  0  0  0  0  0  0
   13.4650   -1.8020   21.1820 Cl  0  0  0  0  0  0  0  0  0  0  0  0
    6.7380   -0.3440   21.5260 N   0  0  0  0  0  0  0  0  0  0  0  0
    7.9760   -0.8570   21.1410 C   0  0  2  0  0  0  0  0  0  0  0  0
    9.0230   -1.3910   22.1120 C   0  0  1  0  0  0  0  0  0  0  0  0
    7.1960   -3.0430   18.9600 C   0  0  0  0  0  0  0  0  0  0  0  0
    5.2620   -4.2430   19.7360 O   0  0  0  0  0  0  0  0  0  0  0  0
    6.1880   -3.4470   20.0030 C   0  0  0  0  0  0  0  0  0  0  0  0
    8.7360   -1.5470   25.3140 O   0  0  0  0  0  0  0  0  0  0  0  0
    8.3010   -2.6410   24.9710 C   0  0  0  0  0  0  0  0  0  0  0  0
    6.2280    0.5540   17.8600 N   0  0  0  0  0  0  0  0  0  0  0  0
    6.7170   -0.0310   19.0950 C   0  0  0  0  0  0  0  0  0  0  0  0
    6.1830    0.2540   20.3330 C   0  0  0  0  0  0  0  0  0  0  0  0
    5.1480    1.1210   20.3340 C   0  0  0  0  0  0  0  0  0  0  0  0
    4.6850    1.6730   19.1230 C   0  0  0  0  0  0  0  0  0  0  0  0
    5.2060    1.4090   17.8750 C   0  0  0  0  0  0  0  0  0  0  0  0
   10.4790    0.2850   23.7240 C   0  0  0  0  0  0  0  0  0  0  0  0
   11.8100    0.6580   23.9390 C   0  0  0  0  0  0  0  0  0  0  0  0
   12.9410    0.0710   23.1910 C   0  0  0  0  0  0  0  0  0  0  0  0
   12.5190   -0.9200   22.2310 C   0  0  0  0  0  0  0  0  0  0  0  0
   11.2050   -1.2500   22.0570 C   0  0  0  0  0  0  0  0  0  0  0  0
   10.2170   -0.6880   22.7440 C   0  0  0  0  0  0  0  0  0  0  0  0
    6.2510   -2.9810   21.3170 N   0  0  0  0  0  0  0  0  0  0  0  0
    6.9500   -1.8040   21.8030 C   0  0  2  0  0  0  0  0  0  0  0  0
    7.9830   -2.2430   22.4830 C   0  0  2  0  0  0  0  0  0  0  0  0
    7.5620   -2.7600   23.7840 N   0  0  0  0  0  0  0  0  0  0  0  0
    7.0130   -4.0870   23.4740 C   0  0  0  0  0  0  0  0  0  0  0  0
    6.2250   -4.0610   22.2960 C   0  0  0  0  0  0  0  0  0  0  0  0
    9.3540   -4.9130   25.3090 C   0  0  0  0  0  0  0  0  0  0  0  0
    8.5000   -3.8440   25.7750 C   0  0  0  0  0  0  0  0  0  0  0  0
    7.6260   -3.8970   27.3750 S   0  0  0  0  0  0  0  0  0  0  0  0
    8.5850   -5.3160   27.0740 C   0  0  0  0  0  0  0  0  0  0  0  0
    9.3960   -5.9270   26.2380 C   0  0  0  0  0  0  0  0  0  0  0  0
  5  2  1  1
  4  5  1  0
  5  6  1  0
  7  9  1  0
  8  9  2  0
 10 11  2  0
 12 13  2  0
  4 14  1  0
 13 14  1  0
  1 15  1  0
 14 15  2  0
 15 16  1  0
 12 17  1  0
 16 17  2  0
 18 19  2  0
 19 20  1  0
  3 21  1  0
 20 21  2  0
 21 22  1  0
  6 23  1  1
 18 23  1  0
 22 23  2  0
  9 24  1  0
 25  4  1  1
  5 25  1  0
 24 25  1  0
  6 26  1  0
 25 26  1  0
 11 27  1  0
 26 27  1  1
 27 28  1  0
 24 29  1  0
 28 29  1  0
 11 31  1  0
 30 31  2  0
 31 32  1  0
 32 33  1  0
 30 34  1  0
 33 34  2  0
M  END
