x2646-x0540
     RDKit          3D

 29 31  0  0  0  0  0  0  0  0999 V2000
    4.4120    0.7550   21.4610 C   0  0  0  0  0  0  0  0  0  0  0  0
    8.6660    0.7950   21.4160 O   0  0  0  0  0  0  0  0  0  0  0  0
   13.2400   -2.1100   21.1610 Cl  0  0  0  0  0  0  0  0  0  0  0  0
    6.9050   -0.6750   21.1510 N   0  0  0  0  0  0  0  0  0  0  0  0
    8.0610   -0.2270   21.7430 C   0  0  0  0  0  0  0  0  0  0  0  0
    8.6040   -1.0690   22.8790 C   0  0  0  0  0  0  0  0  0  0  0  0
    2.9440    1.4170   24.4460 O   0  0  0  0  0  0  0  0  0  0  0  0
    3.0170    2.4440   23.4340 C   0  0  0  0  0  0  0  0  0  0  0  0
    4.3230    2.6810   22.7440 N   0  0  0  0  0  0  0  0  0  0  0  0
    5.0650    1.6490   22.5170 C   0  0  0  0  0  0  0  0  0  0  0  0
    1.9380    3.1870   23.1170 N   0  0  0  0  0  0  0  0  0  0  0  0
    6.3790    0.6750   17.7270 N   0  0  0  0  0  0  0  0  0  0  0  0
    6.9230    0.0210   18.7190 C   0  0  0  0  0  0  0  0  0  0  0  0
    6.3290   -0.0050   20.0630 C   0  0  0  0  0  0  0  0  0  0  0  0
    5.1540    0.7040   20.1500 C   0  0  0  0  0  0  0  0  0  0  0  0
    4.5240    1.4270   19.1030 C   0  0  0  0  0  0  0  0  0  0  0  0
    5.1370    1.4350   17.8520 C   0  0  0  0  0  0  0  0  0  0  0  0
   10.5600    0.1760   23.8950 C   0  0  0  0  0  0  0  0  0  0  0  0
   12.0550    0.4270   23.9260 C   0  0  0  0  0  0  0  0  0  0  0  0
   12.8750   -0.2790   23.0860 C   0  0  0  0  0  0  0  0  0  0  0  0
   12.3020   -1.2100   22.2280 C   0  0  0  0  0  0  0  0  0  0  0  0
   10.9450   -1.4500   22.1870 C   0  0  0  0  0  0  0  0  0  0  0  0
   10.0630   -0.7720   23.0020 C   0  0  0  0  0  0  0  0  0  0  0  0
    0.5720    4.6790   24.4500 C   0  0  0  0  0  0  0  0  0  0  0  0
   -0.6140    4.8560   25.1860 C   0  0  0  0  0  0  0  0  0  0  0  0
   -1.7580    4.6090   24.4170 C   0  0  0  0  0  0  0  0  0  0  0  0
   -1.7810    3.2080   23.7950 C   0  0  0  0  0  0  0  0  0  0  0  0
   -0.4760    2.9150   23.0390 C   0  0  0  0  0  0  0  0  0  0  0  0
    0.7270    3.2350   23.9350 C   0  0  0  0  0  0  0  0  0  0  0  0
  2  5  2  0
  4  5  1  0
  5  6  1  0
  7  8  2  0
  8  9  1  0
  1 10  1  0
  9 10  1  0
  8 11  1  0
 12 13  2  0
  4 14  1  0
 13 14  1  0
  1 15  1  0
 14 15  2  0
 15 16  1  0
 12 17  1  0
 16 17  2  0
 18 19  2  0
 19 20  1  0
  3 21  1  0
 20 21  2  0
 21 22  1  0
  6 23  1  0
 18 23  1  0
 22 23  2  0
 24 25  1  0
 25 26  1  0
 26 27  1  0
 27 28  1  0
 11 29  1  0
 24 29  1  0
 28 29  1  0
M  END
