x2646-x1308
     RDKit          3D

 39 42  0  0  0  0  0  0  0  0999 V2000
    8.0640   -3.9180   20.6090 C   0  0  0  0  0  0  0  0  0  0  0  0
    5.7350   -4.4590   19.9460 O   0  0  0  0  0  0  0  0  0  0  0  0
    0.6300   -1.1560   26.2740 Cl  0  0  0  0  0  0  0  0  0  0  0  0
    6.6910   -4.5020   20.7900 C   0  0  0  0  0  0  0  0  0  0  0  0
    6.4210   -5.1410   26.9120 O   0  0  0  0  0  0  0  0  0  0  0  0
    4.6740   -6.9480   26.0670 O   0  0  0  0  0  0  0  0  0  0  0  0
    5.2280   -5.4650   25.9050 S   0  0  0  0  0  0  0  0  0  0  0  0
    4.4120    1.1600   21.4350 C   0  0  0  0  0  0  0  0  0  0  0  0
    8.7450    1.1460   21.2090 O   0  0  0  0  0  0  0  0  0  0  0  0
   13.2770   -1.9160   21.2340 Cl  0  0  0  0  0  0  0  0  0  0  0  0
    6.9140   -0.4260   20.9700 N   0  0  0  0  0  0  0  0  0  0  0  0
    8.1330    0.1290   21.6000 C   0  0  0  0  0  0  0  0  0  0  0  0
    8.5730   -0.6500   22.7890 C   0  0  0  0  0  0  0  0  0  0  0  0
    8.0760   -2.4780   21.0980 C   0  0  0  0  0  0  0  0  0  0  0  0
    6.7450   -1.8210   20.8730 C   0  0  0  0  0  0  0  0  0  0  0  0
    6.5670   -5.1260   22.0460 N   0  0  0  0  0  0  0  0  0  0  0  0
    7.6330   -5.0110   23.0640 C   0  0  0  0  0  0  0  0  0  0  0  0
    7.0590   -4.6110   24.2290 C   0  0  0  0  0  0  0  0  0  0  0  0
    5.8740   -5.2840   24.3320 N   0  0  0  0  0  0  0  0  0  0  0  0
    5.0570   -5.7010   23.1920 C   0  0  0  0  0  0  0  0  0  0  0  0
    5.8160   -6.2160   22.1710 C   0  0  0  0  0  0  0  0  0  0  0  0
    4.3030   -2.9990   26.3720 C   0  0  0  0  0  0  0  0  0  0  0  0
    3.2940   -2.0400   26.4580 C   0  0  0  0  0  0  0  0  0  0  0  0
    1.8760   -2.3360   26.1610 C   0  0  0  0  0  0  0  0  0  0  0  0
    1.6220   -3.7250   25.7630 C   0  0  0  0  0  0  0  0  0  0  0  0
    2.6940   -4.6980   25.6850 C   0  0  0  0  0  0  0  0  0  0  0  0
    4.0060   -4.3340   25.9880 C   0  0  0  0  0  0  0  0  0  0  0  0
    6.3940    0.7640   17.6160 N   0  0  0  0  0  0  0  0  0  0  0  0
    6.8700    0.1580   18.7040 C   0  0  0  0  0  0  0  0  0  0  0  0
    6.2980    0.2530   19.9170 C   0  0  0  0  0  0  0  0  0  0  0  0
    5.1540    0.9830   20.1330 C   0  0  0  0  0  0  0  0  0  0  0  0
    4.6370    1.6210   19.0240 C   0  0  0  0  0  0  0  0  0  0  0  0
    5.1930    1.5640   17.7510 C   0  0  0  0  0  0  0  0  0  0  0  0
   10.5620    0.4630   23.8420 C   0  0  0  0  0  0  0  0  0  0  0  0
   11.9480    0.6280   23.9310 C   0  0  0  0  0  0  0  0  0  0  0  0
   12.8060   -0.1100   23.1300 C   0  0  0  0  0  0  0  0  0  0  0  0
   12.2780   -1.0130   22.2390 C   0  0  0  0  0  0  0  0  0  0  0  0
   10.9190   -1.1690   22.1590 C   0  0  0  0  0  0  0  0  0  0  0  0
   10.0480   -0.4550   22.9310 C   0  0  0  0  0  0  0  0  0  0  0  0
  1  4  1  0
  2  4  2  0
  5  7  2  0
  6  7  2  0
  9 12  2  0
 11 12  1  0
 12 13  1  0
  1 14  1  0
 11 15  1  0
 14 15  1  0
  4 16  1  0
 16 17  1  0
 17 18  1  0
  7 19  1  0
 18 19  1  0
 19 20  1  0
 16 21  1  0
 20 21  1  0
 22 23  2  0
  3 24  1  0
 23 24  1  0
 24 25  2  0
 25 26  1  0
  7 27  1  0
 22 27  1  0
 26 27  2  0
 28 29  2  0
 11 30  1  0
 29 30  1  0
  8 31  1  0
 30 31  2  0
 31 32  1  0
 28 33  1  0
 32 33  2  0
 34 35  2  0
 35 36  1  0
 10 37  1  0
 36 37  2  0
 37 38  1  0
 13 39  1  0
 34 39  1  0
 38 39  2  0
M  END
