x2643-x2608
     RDKit          3D

 16 17  0  0  0  0  0  0  0  0999 V2000
    6.7200   -0.9690   20.8500 N   0  0  0  0  0  0  0  0  0  0  0  0
    8.5250    0.3870   21.2870 O   0  0  0  0  0  0  0  0  0  0  0  0
   13.4070    0.2090   22.9880 Cl  0  0  0  0  0  0  0  0  0  0  0  0
    8.3900   -1.6340   22.5210 C   0  0  0  0  0  0  0  0  0  0  0  0
    7.8870   -0.6450   21.4890 C   0  0  0  0  0  0  0  0  0  0  0  0
   11.7830   -0.0520   23.2140 C   0  0  0  0  0  0  0  0  0  0  0  0
   10.9590    0.6040   24.0670 C   0  0  0  0  0  0  0  0  0  0  0  0
    9.6430    0.1120   23.9530 C   0  0  0  0  0  0  0  0  0  0  0  0
    9.5720   -0.8980   22.9880 C   0  0  0  0  0  0  0  0  0  0  0  0
   11.0770   -1.2440   22.2800 S   0  0  0  0  0  0  0  0  0  0  0  0
    6.3640    0.7690   17.6250 N   0  0  0  0  0  0  0  0  0  0  0  0
    6.8420   -0.0050   18.6190 C   0  0  0  0  0  0  0  0  0  0  0  0
    6.2040   -0.1720   19.8220 C   0  0  0  0  0  0  0  0  0  0  0  0
    4.9910    0.4860   20.0300 C   0  0  0  0  0  0  0  0  0  0  0  0
    4.4790    1.2930   19.0120 C   0  0  0  0  0  0  0  0  0  0  0  0
    5.1970    1.4030   17.8390 C   0  0  0  0  0  0  0  0  0  0  0  0
  1  5  1  0
  2  5  2  0
  4  5  1  0
  3  6  1  0
  6  7  2  0
  7  8  1  0
  4  9  1  0
  8  9  2  0
  6 10  1  0
  9 10  1  0
 11 12  2  0
  1 13  1  0
 12 13  1  0
 13 14  2  0
 14 15  1  0
 11 16  1  0
 15 16  2  0
M  END
