x2646-x1380
     RDKit          3D

 36 39  0  0  0  0  0  0  0  0999 V2000
    4.8650    1.0530   21.6710 C   0  0  0  0  0  0  0  0  0  0  0  0
    8.5130    0.9230   21.0600 O   0  0  0  0  0  0  0  0  0  0  0  0
   13.3130   -1.9810   21.1690 Cl  0  0  0  0  0  0  0  0  0  0  0  0
    6.9250   -0.8740   20.6120 N   0  0  0  0  0  0  0  0  0  0  0  0
    7.9680   -0.3560   21.4030 C   0  0  0  0  0  0  0  0  0  0  0  0
    8.5250   -1.0630   22.6190 C   0  0  0  0  0  0  0  0  0  0  0  0
    7.6270   -3.3730   20.0310 C   0  0  0  0  0  0  0  0  0  0  0  0
    5.5590   -4.6590   19.9690 O   0  0  0  0  0  0  0  0  0  0  0  0
    6.6210   -4.3250   20.5770 C   0  0  0  0  0  0  0  0  0  0  0  0
    4.8050   -2.4530   25.3400 O   0  0  0  0  0  0  0  0  0  0  0  0
    5.6550   -3.3390   25.2450 C   0  0  0  0  0  0  0  0  0  0  0  0
    7.1470   -1.9810   19.6430 C   0  0  0  0  0  0  0  0  0  0  0  0
    6.0460    0.8870   17.5090 N   0  0  0  0  0  0  0  0  0  0  0  0
    6.6250    0.0210   18.5040 C   0  0  0  0  0  0  0  0  0  0  0  0
    6.2750    0.0400   19.8180 C   0  0  0  0  0  0  0  0  0  0  0  0
    5.3040    0.9550   20.2450 C   0  0  0  0  0  0  0  0  0  0  0  0
    4.7720    1.7600   19.2950 C   0  0  0  0  0  0  0  0  0  0  0  0
    5.0950    1.7700   17.9420 C   0  0  0  0  0  0  0  0  0  0  0  0
   10.4930    0.2920   23.7570 C   0  0  0  0  0  0  0  0  0  0  0  0
   11.9150    0.6240   23.9170 C   0  0  0  0  0  0  0  0  0  0  0  0
   12.8040   -0.1410   23.0590 C   0  0  0  0  0  0  0  0  0  0  0  0
   12.3050   -1.0970   22.1780 C   0  0  0  0  0  0  0  0  0  0  0  0
   10.9590   -1.3510   22.0860 C   0  0  0  0  0  0  0  0  0  0  0  0
   10.0320   -0.6810   22.8480 C   0  0  0  0  0  0  0  0  0  0  0  0
    6.9370   -4.8290   21.8190 N   0  0  0  0  0  0  0  0  0  0  0  0
    6.1990   -5.7150   22.5190 C   0  0  0  0  0  0  0  0  0  0  0  0
    5.9730   -5.2200   23.8050 C   0  0  0  0  0  0  0  0  0  0  0  0
    6.0510   -3.8310   23.8480 C   0  0  0  0  0  0  0  0  0  0  0  0
    7.2760   -3.2680   23.5360 C   0  0  0  0  0  0  0  0  0  0  0  0
    7.9170   -4.1180   22.6470 C   0  0  0  0  0  0  0  0  0  0  0  0
    7.7010   -4.1440   26.5030 C   0  0  0  0  0  0  0  0  0  0  0  0
    7.9310   -5.2660   27.3030 C   0  0  0  0  0  0  0  0  0  0  0  0
    7.4690   -5.1180   28.6050 C   0  0  0  0  0  0  0  0  0  0  0  0
    6.4030   -4.2260   28.8070 C   0  0  0  0  0  0  0  0  0  0  0  0
    5.5440   -3.9980   27.7260 C   0  0  0  0  0  0  0  0  0  0  0  0
    6.2570   -3.9060   26.4530 N   0  0  0  0  0  0  0  0  0  0  0  0
  2  5  2  0
  4  5  1  0
  5  6  1  0
  7  9  1  0
  8  9  2  0
 10 11  2  0
  4 12  1  0
  7 12  1  0
 13 14  2  0
  4 15  1  0
 14 15  1  0
  1 16  1  0
 15 16  2  0
 16 17  1  0
 13 18  1  0
 17 18  2  0
 19 20  2  0
 20 21  1  0
  3 22  1  0
 21 22  2  0
 22 23  1  0
  6 24  1  0
 19 24  1  0
 23 24  2  0
  9 25  1  0
 25 26  1  0
 26 27  1  0
 11 28  1  0
 27 28  1  0
 28 29  1  0
 25 30  1  0
 29 30  1  0
 31 32  1  0
 32 33  1  0
 33 34  1  0
 34 35  1  0
 11 36  1  0
 31 36  1  0
 35 36  1  0
M  END
