x2646-x1402
     RDKit          3D

 38 41  0  0  0  0  0  0  0  0999 V2000
    7.6570   -3.6900   20.2650 C   0  0  0  0  0  0  0  0  0  0  0  0
    5.5140   -4.7930   19.9850 O   0  0  0  0  0  0  0  0  0  0  0  0
    0.7930   -1.4030   26.1420 Cl  0  0  0  0  0  0  0  0  0  0  0  0
    6.5440   -4.6750   20.6560 C   0  0  0  0  0  0  0  0  0  0  0  0
    4.0920   -6.4470   25.9790 O   0  0  0  0  0  0  0  0  0  0  0  0
    6.1290   -5.1990   26.7920 O   0  0  0  0  0  0  0  0  0  0  0  0
    5.0480   -5.3700   25.8470 S   0  0  0  0  0  0  0  0  0  0  0  0
    4.3700    1.4030   21.3530 C   0  0  0  0  0  0  0  0  0  0  0  0
    8.8040    1.1870   21.2750 O   0  0  0  0  0  0  0  0  0  0  0  0
   13.2820   -1.9970   21.2270 Cl  0  0  0  0  0  0  0  0  0  0  0  0
    6.9210   -0.3160   21.1270 N   0  0  0  0  0  0  0  0  0  0  0  0
    8.1510    0.1980   21.6910 C   0  0  0  0  0  0  0  0  0  0  0  0
    8.5730   -0.5310   22.8000 C   0  0  0  0  0  0  0  0  0  0  0  0
    7.0520   -2.3400   20.0100 C   0  0  0  0  0  0  0  0  0  0  0  0
    6.6930   -1.7430   21.1920 C   0  0  0  0  0  0  0  0  0  0  0  0
    6.7100   -5.4290   21.8090 N   0  0  0  0  0  0  0  0  0  0  0  0
    7.5060   -5.0860   22.8500 C   0  0  0  0  0  0  0  0  0  0  0  0
    6.7860   -4.5050   23.8880 C   0  0  0  0  0  0  0  0  0  0  0  0
    5.7580   -5.5040   24.3040 N   0  0  0  0  0  0  0  0  0  0  0  0
    4.9080   -6.0480   23.1970 C   0  0  0  0  0  0  0  0  0  0  0  0
    5.7400   -6.3020   22.1160 C   0  0  0  0  0  0  0  0  0  0  0  0
    2.4280   -3.9140   25.9590 S   0  0  0  0  0  0  0  0  0  0  0  0
    4.1530   -3.8370   25.9320 C   0  0  0  0  0  0  0  0  0  0  0  0
    4.5950   -2.5080   25.9850 C   0  0  0  0  0  0  0  0  0  0  0  0
    3.5710   -1.5710   26.0530 C   0  0  0  0  0  0  0  0  0  0  0  0
    2.2960   -2.2290   26.0510 C   0  0  0  0  0  0  0  0  0  0  0  0
    6.3900    0.7570   17.6520 N   0  0  0  0  0  0  0  0  0  0  0  0
    6.8710    0.1850   18.7720 C   0  0  0  0  0  0  0  0  0  0  0  0
    6.3480    0.3050   20.0010 C   0  0  0  0  0  0  0  0  0  0  0  0
    5.0800    1.1640   20.1160 C   0  0  0  0  0  0  0  0  0  0  0  0
    4.5330    1.8010   18.8930 C   0  0  0  0  0  0  0  0  0  0  0  0
    5.1780    1.5900   17.7490 C   0  0  0  0  0  0  0  0  0  0  0  0
   10.6210    0.4500   23.8450 C   0  0  0  0  0  0  0  0  0  0  0  0
   12.0880    0.5260   23.9140 C   0  0  0  0  0  0  0  0  0  0  0  0
   12.8580   -0.2520   23.0910 C   0  0  0  0  0  0  0  0  0  0  0  0
   12.2840   -1.0880   22.2180 C   0  0  0  0  0  0  0  0  0  0  0  0
   10.8510   -1.1900   22.1260 C   0  0  0  0  0  0  0  0  0  0  0  0
   10.0410   -0.4200   22.9330 C   0  0  0  0  0  0  0  0  0  0  0  0
  1  4  1  0
  2  4  2  0
  5  7  2  0
  6  7  2  0
  9 12  2  0
 11 12  1  0
 12 13  1  0
  1 14  1  0
 11 15  1  0
 14 15  1  0
  4 16  1  0
 16 17  1  0
 17 18  1  0
  7 19  1  0
 18 19  1  0
 19 20  1  0
 16 21  1  0
 20 21  1  0
  7 23  1  0
 22 23  1  0
 23 24  2  0
 24 25  1  0
  3 26  1  0
 22 26  1  0
 25 26  2  0
 27 28  2  0
 11 29  1  0
 28 29  1  0
  8 30  1  0
 29 30  2  0
 30 31  1  0
 27 32  1  0
 31 32  2  0
 33 34  2  0
 34 35  1  0
 10 36  1  0
 35 36  2  0
 36 37  1  0
 13 38  1  0
 33 38  1  0
 37 38  2  0
M  END
