x2649-x1478
     RDKit          3D

 31 33  0  0  0  0  0  0  0  0999 V2000
    7.1140   -0.5050   21.1190 N   0  0  0  0  0  0  0  0  0  0  0  0
    8.0050   -0.4000   24.1960 C   0  0  0  0  0  0  0  0  0  0  0  0
    8.7590    1.3500   21.3430 O   0  0  0  0  0  0  0  0  0  0  0  0
   13.1790   -2.2820   21.1870 Cl  0  0  0  0  0  0  0  0  0  0  0  0
    8.6840   -0.7150   22.8590 C   0  0  1  0  0  0  0  0  0  0  0  0
    8.1620    0.0980   21.7440 C   0  0  0  0  0  0  0  0  0  0  0  0
    4.8620    1.1970   21.6800 C   0  0  0  0  0  0  0  0  0  0  0  0
    6.3450   -2.6400   21.1920 N   0  0  0  0  0  0  0  0  0  0  0  0
    7.5250   -3.7880   19.5510 C   0  0  0  0  0  0  0  0  0  0  0  0
    5.2240   -3.7990   19.5340 O   0  0  0  0  0  0  0  0  0  0  0  0
    6.0790   -5.7540   22.2080 Cl  0  0  0  0  0  0  0  0  0  0  0  0
    6.2630   -3.3980   20.1000 C   0  0  0  0  0  0  0  0  0  0  0  0
    7.3050   -1.7440   21.0200 C   0  0  0  0  0  0  0  0  0  0  0  0
    6.3500    0.6480   17.6580 N   0  0  0  0  0  0  0  0  0  0  0  0
    5.2110    1.5090   17.9450 C   0  0  0  0  0  0  0  0  0  0  0  0
    4.7860    1.6380   19.2470 C   0  0  0  0  0  0  0  0  0  0  0  0
    5.4150    0.9710   20.3030 C   0  0  0  0  0  0  0  0  0  0  0  0
    6.4720    0.1750   20.0280 C   0  0  0  0  0  0  0  0  0  0  0  0
    6.8960    0.0430   18.7160 C   0  0  0  0  0  0  0  0  0  0  0  0
   10.7210    0.3930   23.7900 C   0  0  0  0  0  0  0  0  0  0  0  0
   12.1630    0.5680   23.8670 C   0  0  0  0  0  0  0  0  0  0  0  0
   12.9220   -0.3280   23.0020 C   0  0  0  0  0  0  0  0  0  0  0  0
   12.2960   -1.2550   22.1930 C   0  0  0  0  0  0  0  0  0  0  0  0
   10.9340   -1.3770   22.1610 C   0  0  0  0  0  0  0  0  0  0  0  0
   10.1520   -0.5530   22.9540 C   0  0  0  0  0  0  0  0  0  0  0  0
    5.0160   -4.4530   24.1450 N   0  0  0  0  0  0  0  0  0  0  0  0
    5.6110   -4.2710   22.9340 C   0  0  0  0  0  0  0  0  0  0  0  0
    5.7180   -2.9040   22.5220 C   0  0  0  0  0  0  0  0  0  0  0  0
    5.2690   -1.8660   23.2900 C   0  0  0  0  0  0  0  0  0  0  0  0
    4.6810   -2.0890   24.4990 C   0  0  0  0  0  0  0  0  0  0  0  0
    4.5830   -3.4070   24.8660 C   0  0  0  0  0  0  0  0  0  0  0  0
  5  2  1  1
  1  6  1  0
  3  6  2  0
  5  6  1  0
  8 12  1  0
  9 12  1  0
 10 12  2  0
  1 13  1  0
  8 13  1  0
 14 15  2  0
 15 16  1  0
  7 17  1  0
 16 17  2  0
  1 18  1  0
 17 18  1  0
 14 19  1  0
 18 19  2  0
 20 21  2  0
 21 22  1  0
  4 23  1  0
 22 23  2  0
 23 24  1  0
  5 25  1  0
 20 25  1  0
 24 25  2  0
 11 27  1  0
 26 27  2  0
  8 28  1  0
 27 28  1  0
 28 29  2  0
 29 30  1  0
 26 31  1  0
 30 31  2  0
M  END
