x2649-x0734
     RDKit          3D

 38 41  0  0  0  0  0  0  0  0999 V2000
    6.9690   -0.8730   20.7610 N   0  0  0  0  0  0  0  0  0  0  0  0
    7.6680   -0.6510   24.0980 C   0  0  0  0  0  0  0  0  0  0  0  0
    8.2900    0.9040   21.3130 O   0  0  0  0  0  0  0  0  0  0  0  0
   13.2750   -2.1250   21.1090 Cl  0  0  0  0  0  0  0  0  0  0  0  0
    8.4780   -0.9030   22.8380 C   0  0  1  0  0  0  0  0  0  0  0  0
    7.8970   -0.2360   21.6000 C   0  0  0  0  0  0  0  0  0  0  0  0
    4.4410    0.7930   21.6260 C   0  0  0  0  0  0  0  0  0  0  0  0
    5.1160   -4.9410   26.4220 N   0  0  0  0  0  0  0  0  0  0  0  0
    4.4690   -5.6980   25.6820 O   0  0  0  0  0  0  0  0  0  0  0  0
    4.6910   -3.8590   26.8540 O   0  0  0  0  0  0  0  0  0  0  0  0
    5.0790   -4.2180   19.6960 O   0  0  0  0  0  0  0  0  0  0  0  0
    6.1590   -3.8780   20.1640 C   0  0  0  0  0  0  0  0  0  0  0  0
    7.1410   -3.1190   19.2880 C   0  0  0  0  0  0  0  0  0  0  0  0
    7.7200   -1.8170   19.9030 C   0  0  0  0  0  0  0  0  0  0  0  0
    6.2410    0.8070   17.6040 N   0  0  0  0  0  0  0  0  0  0  0  0
    5.1570    1.5520   17.8830 C   0  0  0  0  0  0  0  0  0  0  0  0
    4.4910    1.5810   19.2640 C   0  0  0  0  0  0  0  0  0  0  0  0
    5.0500    0.7950   20.2600 C   0  0  0  0  0  0  0  0  0  0  0  0
    6.2770   -0.0250   19.8760 C   0  0  0  0  0  0  0  0  0  0  0  0
    6.7600    0.0540   18.5870 C   0  0  0  0  0  0  0  0  0  0  0  0
   10.5210    0.2880   23.7740 C   0  0  0  0  0  0  0  0  0  0  0  0
   11.8790    0.5260   23.8360 C   0  0  0  0  0  0  0  0  0  0  0  0
   12.8170   -0.2420   22.9820 C   0  0  0  0  0  0  0  0  0  0  0  0
   12.2980   -1.2140   22.1180 C   0  0  0  0  0  0  0  0  0  0  0  0
   10.8270   -1.4850   22.0380 C   0  0  0  0  0  0  0  0  0  0  0  0
    9.9580   -0.6630   22.9230 C   0  0  0  0  0  0  0  0  0  0  0  0
    6.5560   -5.1080   26.4020 C   0  0  0  0  0  0  0  0  0  0  0  0
    7.2540   -4.8020   25.2130 C   0  0  0  0  0  0  0  0  0  0  0  0
    8.6380   -4.9760   25.2330 C   0  0  0  0  0  0  0  0  0  0  0  0
    9.2860   -5.4390   26.3810 C   0  0  0  0  0  0  0  0  0  0  0  0
    8.5860   -5.7300   27.5370 C   0  0  0  0  0  0  0  0  0  0  0  0
    7.2000   -5.5640   27.5580 C   0  0  0  0  0  0  0  0  0  0  0  0
    6.5010   -4.2270   21.4330 N   0  0  0  0  0  0  0  0  0  0  0  0
    6.3900   -5.5520   22.0220 C   0  0  0  0  0  0  0  0  0  0  0  0
    5.8670   -5.4180   23.2980 C   0  0  0  0  0  0  0  0  0  0  0  0
    6.5620   -4.3500   24.0940 N   0  0  0  0  0  0  0  0  0  0  0  0
    7.1560   -3.1760   23.4150 C   0  0  0  0  0  0  0  0  0  0  0  0
    7.5340   -3.4570   22.0960 C   0  0  0  0  0  0  0  0  0  0  0  0
  5  2  1  1
  1  6  1  0
  3  6  2  0
  5  6  1  0
  8  9  2  0
  8 10  1  0
 11 12  2  0
 12 13  1  0
  1 14  1  0
 13 14  1  0
 15 16  2  0
 16 17  1  0
  7 18  1  0
 17 18  2  0
  1 19  1  0
 18 19  1  0
 15 20  1  0
 19 20  2  0
 21 22  2  0
 22 23  1  0
  4 24  1  0
 23 24  2  0
 24 25  1  0
  5 26  1  0
 21 26  1  0
 25 26  2  0
  8 27  1  0
 27 28  2  0
 28 29  1  0
 29 30  2  0
 30 31  1  0
 27 32  1  0
 31 32  2  0
 12 33  1  0
 33 34  1  0
 34 35  1  0
 28 36  1  0
 35 36  1  0
 36 37  1  0
 33 38  1  0
 37 38  1  0
M  CHG  2   8   1  10  -1
M  END
