x2649-x1425
     RDKit          3D

 37 40  0  0  0  0  0  0  0  0999 V2000
    7.3510   -0.7970   20.5670 N   0  0  0  0  0  0  0  0  0  0  0  0
    7.7860   -0.5240   23.8950 C   0  0  0  0  0  0  0  0  0  0  0  0
    8.7430    1.1570   21.2170 O   0  0  0  0  0  0  0  0  0  0  0  0
   13.1810   -2.3230   21.1660 Cl  0  0  0  0  0  0  0  0  0  0  0  0
    8.6010   -0.9180   22.6560 C   0  0  1  0  0  0  0  0  0  0  0  0
    8.2120   -0.1690   21.4490 C   0  0  0  0  0  0  0  0  0  0  0  0
    5.0530    0.9010   21.5000 C   0  0  0  0  0  0  0  0  0  0  0  0
    1.3640   -2.2990   28.3820 C   0  0  0  0  0  0  0  0  0  0  0  0
    2.7580   -2.0470   28.2720 O   0  0  0  0  0  0  0  0  0  0  0  0
    5.2020   -4.9480   19.9510 O   0  0  0  0  0  0  0  0  0  0  0  0
    6.2030   -4.3670   20.3710 C   0  0  0  0  0  0  0  0  0  0  0  0
    6.8610   -3.3020   19.6060 C   0  0  0  0  0  0  0  0  0  0  0  0
    6.8790   -2.1800   20.7150 C   0  0  0  0  0  0  0  0  0  0  0  0
    6.1680    0.7810   17.4770 N   0  0  0  0  0  0  0  0  0  0  0  0
    5.1120    1.5620   17.9510 C   0  0  0  0  0  0  0  0  0  0  0  0
    4.7810    1.5620   19.3040 C   0  0  0  0  0  0  0  0  0  0  0  0
    5.4610    0.8170   20.2190 C   0  0  0  0  0  0  0  0  0  0  0  0
    6.5400    0.0130   19.7990 C   0  0  0  0  0  0  0  0  0  0  0  0
    6.8670   -0.0010   18.5010 C   0  0  0  0  0  0  0  0  0  0  0  0
   10.6570    0.2560   23.8540 C   0  0  0  0  0  0  0  0  0  0  0  0
   12.1020    0.3420   23.9130 C   0  0  0  0  0  0  0  0  0  0  0  0
   12.8810   -0.4480   23.0920 C   0  0  0  0  0  0  0  0  0  0  0  0
   12.2770   -1.3330   22.2040 C   0  0  0  0  0  0  0  0  0  0  0  0
   10.9060   -1.4590   22.1010 C   0  0  0  0  0  0  0  0  0  0  0  0
   10.0590   -0.7290   22.8550 C   0  0  0  0  0  0  0  0  0  0  0  0
    3.3870   -2.5790   27.1860 C   0  0  0  0  0  0  0  0  0  0  0  0
    4.7010   -2.1670   27.0030 C   0  0  0  0  0  0  0  0  0  0  0  0
    5.4530   -2.6430   25.9280 C   0  0  0  0  0  0  0  0  0  0  0  0
    4.8850   -3.5420   25.0230 C   0  0  0  0  0  0  0  0  0  0  0  0
    3.5680   -3.9430   25.2160 C   0  0  0  0  0  0  0  0  0  0  0  0
    2.8160   -3.4730   26.2840 C   0  0  0  0  0  0  0  0  0  0  0  0
    6.7900   -4.7580   21.5860 N   0  0  0  0  0  0  0  0  0  0  0  0
    7.4070   -3.7520   22.4520 C   0  0  0  0  0  0  0  0  0  0  0  0
    6.4360   -3.0930   23.1900 C   0  0  0  0  0  0  0  0  0  0  0  0
    5.6030   -4.0300   23.9580 N   0  0  0  0  0  0  0  0  0  0  0  0
    5.2470   -5.3520   23.3710 C   0  0  0  0  0  0  0  0  0  0  0  0
    6.2600   -5.8600   22.3570 C   0  0  0  0  0  0  0  0  0  0  0  0
  5  2  1  1
  1  6  1  0
  3  6  2  0
  5  6  1  0
  8  9  1  0
 10 11  2  0
 11 12  1  0
  1 13  1  0
 12 13  1  0
 14 15  2  0
 15 16  1  0
  7 17  1  0
 16 17  2  0
  1 18  1  0
 17 18  1  0
 14 19  1  0
 18 19  2  0
 20 21  2  0
 21 22  1  0
  4 23  1  0
 22 23  2  0
 23 24  1  0
  5 25  1  0
 20 25  1  0
 24 25  2  0
  9 26  1  0
 26 27  2  0
 27 28  1  0
 28 29  2  0
 29 30  1  0
 26 31  1  0
 30 31  2  0
 11 32  1  0
 32 33  1  0
 33 34  1  0
 29 35  1  0
 34 35  1  0
 35 36  1  0
 32 37  1  0
 36 37  1  0
M  END
