x2643-x0771-x2705
     RDKit          3D

 51 57  0  0  0  0  0  0  0  0999 V2000
    6.8320   -1.4000   22.0410 N   0  0  0  0  0  0  0  0  0  0  0  0
    6.7300   -4.4370   20.2440 C   0  0  2  0  0  0  0  0  0  0  0  0
    4.7390   -2.9590   21.3800 O   0  0  0  0  0  0  0  0  0  0  0  0
    6.9150   -3.6690   21.4540 C   0  0  2  0  0  0  0  0  0  0  0  0
    7.3550    2.0640   22.8210 N   0  0  0  0  0  0  0  0  0  0  0  0
    8.7880    0.9030   21.4230 O   0  0  0  0  0  0  0  0  0  0  0  0
    6.0220   -2.6130   21.6320 C   0  0  0  0  0  0  0  0  0  0  0  0
    6.4940    0.0090   21.6670 C   0  0  1  0  0  0  0  0  0  0  0  0
    7.6780    1.0110   21.9500 C   0  0  0  0  0  0  0  0  0  0  0  0
   10.1320    2.0580   23.9880 C   0  0  0  0  0  0  0  0  0  0  0  0
    9.3150    1.2020   24.9490 C   0  0  0  0  0  0  0  0  0  0  0  0
    6.1350    4.5430   21.8910 C   0  0  0  0  0  0  0  0  0  0  0  0
   11.9760   -1.5450   23.2550 C   0  0  0  0  0  0  0  0  0  0  0  0
   12.5280   -0.1800   23.7310 C   0  0  0  0  0  0  0  0  0  0  0  0
   12.4340   -2.5850   24.2980 C   0  0  0  0  0  0  0  0  0  0  0  0
   12.6600   -1.8630   21.9100 C   0  0  0  0  0  0  0  0  0  0  0  0
    5.5010   -4.2900   19.5510 O   0  0  0  0  0  0  0  0  0  0  0  0
    0.5820   -1.4060   26.2710 C   0  0  0  0  0  0  0  0  0  0  0  0
    4.5040   -6.8920   25.6210 O   0  0  0  0  0  0  0  0  0  0  0  0
    5.9750   -5.1170   26.6450 O   0  0  0  0  0  0  0  0  0  0  0  0
    1.8950   -6.0580   24.9430 C   0  0  0  0  0  0  0  0  0  0  0  0
    5.0000   -5.5320   25.6650 S   0  0  0  0  0  0  0  0  0  0  0  0
    6.3640    0.3370   17.9190 N   0  0  0  0  0  0  0  0  0  0  0  0
    5.2200    1.0270   17.7980 C   0  0  0  0  0  0  0  0  0  0  0  0
    4.4200    1.4030   18.8400 C   0  0  0  0  0  0  0  0  0  0  0  0
    4.8160    1.0650   20.1090 C   0  0  0  0  0  0  0  0  0  0  0  0
    6.0010    0.3610   20.2950 C   0  0  0  0  0  0  0  0  0  0  0  0
    6.7400    0.0120   19.1680 C   0  0  0  0  0  0  0  0  0  0  0  0
    9.6480   -1.5760   24.2520 N   0  0  0  0  0  0  0  0  0  0  0  0
    8.3240   -1.5500   24.0080 N   0  0  0  0  0  0  0  0  0  0  0  0
    8.1570   -1.4790   22.6820 C   0  0  0  0  0  0  0  0  0  0  0  0
    9.4920   -1.4720   22.1000 C   0  0  0  0  0  0  0  0  0  0  0  0
   10.4340   -1.5310   23.1450 C   0  0  0  0  0  0  0  0  0  0  0  0
    9.4130    3.3010   23.4990 C   0  0  0  0  0  0  0  0  0  0  0  0
   10.0910    4.5360   23.6000 C   0  0  0  0  0  0  0  0  0  0  0  0
    9.5030    5.7230   23.1670 C   0  0  0  0  0  0  0  0  0  0  0  0
    8.2250    5.6950   22.6190 C   0  0  0  0  0  0  0  0  0  0  0  0
    7.5150    4.4850   22.5010 C   0  0  0  0  0  0  0  0  0  0  0  0
    8.1080    3.2710   22.9480 C   0  0  0  0  0  0  0  0  0  0  0  0
    1.6510   -2.4450   26.1050 C   0  0  0  0  0  0  0  0  0  0  0  0
    1.3340   -3.7210   25.6230 C   0  0  0  0  0  0  0  0  0  0  0  0
    2.3200   -4.7160   25.4640 C   0  0  0  0  0  0  0  0  0  0  0  0
    3.6430   -4.3870   25.8060 C   0  0  0  0  0  0  0  0  0  0  0  0
    3.9640   -3.1090   26.2840 C   0  0  0  0  0  0  0  0  0  0  0  0
    2.9710   -2.1430   26.4330 C   0  0  0  0  0  0  0  0  0  0  0  0
    6.6720   -5.1730   21.5050 C   0  0  1  0  0  0  0  0  0  0  0  0
    5.9000   -6.3290   21.9010 C   0  0  0  0  0  0  0  0  0  0  0  0
    4.8850   -5.8580   22.9470 C   0  0  0  0  0  0  0  0  0  0  0  0
    5.5500   -5.1440   24.0920 N   0  0  0  0  0  0  0  0  0  0  0  0
    7.0450   -4.9180   23.9380 C   0  0  0  0  0  0  0  0  0  0  0  0
    7.4570   -4.5000   22.5660 C   0  0  2  0  0  0  0  0  0  0  0  0
  2  4  1  0
  1  7  1  0
  3  7  2  0
  4  7  1  1
  1  8  1  0
  5  9  1  0
  6  9  2  0
  8  9  1  6
 10 11  1  0
 13 14  1  0
 13 15  1  0
 13 16  1  0
  2 17  1  1
 19 22  2  0
 20 22  2  0
 23 24  2  0
 24 25  1  0
 25 26  2  0
  8 27  1  0
 26 27  1  0
 23 28  1  0
 27 28  2  0
 29 30  1  0
  1 31  1  0
 30 31  2  0
 31 32  1  0
 13 33  1  0
 29 33  1  0
 32 33  2  0
 10 34  1  0
 34 35  2  0
 35 36  1  0
 36 37  2  0
 12 38  1  0
 37 38  1  0
  5 39  1  0
 34 39  1  0
 38 39  2  0
 18 40  1  0
 40 41  2  0
 21 42  1  0
 41 42  1  0
 22 43  1  0
 42 43  2  0
 43 44  1  0
 40 45  1  0
 44 45  2  0
  2 46  1  0
  4 46  1  0
 46 47  1  1
 47 48  1  0
 22 49  1  0
 48 49  1  0
 49 50  1  0
  4 51  1  0
 46 51  1  0
 51 50  1  1
M  END
