x2646-x1385
     RDKit          3D

 34 39  0  0  0  0  0  0  0  0999 V2000
    4.3280    1.0030   21.5650 C   0  0  0  0  0  0  0  0  0  0  0  0
    8.5970    0.6900   20.9750 O   0  0  0  0  0  0  0  0  0  0  0  0
   13.2970   -1.9380   21.2130 Cl  0  0  0  0  0  0  0  0  0  0  0  0
    6.6730   -0.4920   21.4080 N   0  0  0  0  0  0  0  0  0  0  0  0
    7.9290   -0.2090   21.8290 C   0  0  2  0  0  0  0  0  0  0  0  0
    8.7390   -0.7660   23.0070 C   0  0  2  0  0  0  0  0  0  0  0  0
    7.3880   -2.9600   18.7750 C   0  0  0  0  0  0  0  0  0  0  0  0
    5.4060   -3.9820   19.6430 O   0  0  0  0  0  0  0  0  0  0  0  0
    6.3870   -3.2130   19.8480 C   0  0  0  0  0  0  0  0  0  0  0  0
    9.4230   -3.3620   23.9700 C   0  0  0  0  0  0  0  0  0  0  0  0
    7.1360   -5.8140   28.5820 Br  0  0  0  0  0  0  0  0  0  0  0  0
    6.3630    0.6300   17.7450 N   0  0  0  0  0  0  0  0  0  0  0  0
    6.8630   -0.0230   18.9660 C   0  0  0  0  0  0  0  0  0  0  0  0
    6.1870    0.1270   20.1610 C   0  0  0  0  0  0  0  0  0  0  0  0
    5.0550    0.8620   20.2260 C   0  0  0  0  0  0  0  0  0  0  0  0
    4.5670    1.4820   19.0870 C   0  0  0  0  0  0  0  0  0  0  0  0
    5.2250    1.3510   17.9030 C   0  0  0  0  0  0  0  0  0  0  0  0
   10.6950    0.6010   23.8310 C   0  0  0  0  0  0  0  0  0  0  0  0
   12.0390    0.8590   23.8090 C   0  0  0  0  0  0  0  0  0  0  0  0
   12.9810    0.1010   23.0010 C   0  0  0  0  0  0  0  0  0  0  0  0
   12.3740   -0.9560   22.2200 C   0  0  0  0  0  0  0  0  0  0  0  0
   11.0180   -1.1910   22.2600 C   0  0  0  0  0  0  0  0  0  0  0  0
   10.1700   -0.4280   23.0500 C   0  0  0  0  0  0  0  0  0  0  0  0
    6.5550   -2.6400   21.0900 N   0  0  0  0  0  0  0  0  0  0  0  0
    6.2870   -3.3920   22.1790 C   0  0  0  0  0  0  0  0  0  0  0  0
    7.3400   -4.0410   22.7520 C   0  0  0  0  0  0  0  0  0  0  0  0
    8.2140   -2.9810   23.2680 N   0  0  0  0  0  0  0  0  0  0  0  0
    8.4340   -2.0670   22.3400 C   0  0  1  0  0  0  0  0  0  0  0  0
    7.5600   -1.6460   21.4050 C   0  0  2  0  0  0  0  0  0  0  0  0
    9.7150   -5.5020   25.3490 C   0  0  0  0  0  0  0  0  0  0  0  0
    9.1190   -4.2920   25.0860 C   0  0  0  0  0  0  0  0  0  0  0  0
    7.9080   -3.8950   26.2120 S   0  0  0  0  0  0  0  0  0  0  0  0
    8.1590   -5.3490   27.0550 C   0  0  0  0  0  0  0  0  0  0  0  0
    9.1700   -6.1240   26.4870 C   0  0  0  0  0  0  0  0  0  0  0  0
  5  2  1  1
  4  5  1  0
  5  6  1  0
  7  9  1  0
  8  9  2  0
 12 13  2  0
  4 14  1  0
 13 14  1  0
  1 15  1  0
 14 15  2  0
 15 16  1  0
 12 17  1  0
 16 17  2  0
 18 19  2  0
 19 20  1  0
  3 21  1  0
 20 21  2  0
 21 22  1  0
  6 23  1  6
 18 23  1  0
 22 23  2  0
  9 24  1  0
 24 25  1  0
 25 26  1  0
 10 27  1  0
 26 27  1  0
  6 28  1  0
 28 27  1  1
 29  4  1  6
  5 29  1  0
 24 29  1  0
 28 29  1  0
 10 31  1  0
 30 31  2  0
 31 32  1  0
 11 33  1  0
 32 33  1  0
 30 34  1  0
 33 34  2  0
M  END
