x2649-x2052
     RDKit          3D

 39 44  0  0  0  0  0  0  0  0999 V2000
    5.8180   -1.5090   25.2590 C   0  0  0  0  0  0  0  0  0  0  0  0
    4.6020   -1.5570   25.2140 O   0  0  0  0  0  0  0  0  0  0  0  0
    6.6460   -0.8020   26.0950 N   0  0  0  0  0  0  0  0  0  0  0  0
    5.5310   -4.4450   19.9280 O   0  0  0  0  0  0  0  0  0  0  0  0
    5.4580    2.1790   30.5930 O   0  0  0  0  0  0  0  0  0  0  0  0
    6.4470   -3.6650   20.2380 C   0  0  0  0  0  0  0  0  0  0  0  0
    7.2870   -3.0700   19.1210 C   0  0  0  0  0  0  0  0  0  0  0  0
    6.1140    3.4420   30.6350 C   0  0  0  0  0  0  0  0  0  0  0  0
    6.8360   -0.4680   20.9670 N   0  0  0  0  0  0  0  0  0  0  0  0
    7.9480   -1.5790   23.9100 C   0  0  1  0  0  0  0  0  0  0  0  0
    8.5470    0.9910   21.5010 O   0  0  0  0  0  0  0  0  0  0  0  0
   13.2730   -2.4010   21.1040 Cl  0  0  0  0  0  0  0  0  0  0  0  0
    8.5210   -1.2510   22.5420 C   0  0  2  0  0  0  0  0  0  0  0  0
    7.9770   -0.1030   21.6260 C   0  0  0  0  0  0  0  0  0  0  0  0
    4.6820    1.3270   21.5070 C   0  0  0  0  0  0  0  0  0  0  0  0
    6.7290   -3.3480   21.5970 N   0  0  0  0  0  0  0  0  0  0  0  0
    7.9490   -2.7230   22.2290 C   0  0  2  0  0  0  0  0  0  0  0  0
    6.9330   -1.9080   22.9500 C   0  0  1  0  0  0  0  0  0  0  0  0
    6.6190   -2.3030   24.2880 C   0  0  2  0  0  0  0  0  0  0  0  0
    6.3590   -3.7940   24.1040 C   0  0  0  0  0  0  0  0  0  0  0  0
    5.9900   -4.1300   22.6210 C   0  0  0  0  0  0  0  0  0  0  0  0
    6.5280    1.9870   28.4930 N   0  0  0  0  0  0  0  0  0  0  0  0
    6.7780    1.2000   27.4200 C   0  0  0  0  0  0  0  0  0  0  0  0
    6.3030   -0.1040   27.2630 C   0  0  0  0  0  0  0  0  0  0  0  0
    5.5180   -0.6210   28.2870 C   0  0  0  0  0  0  0  0  0  0  0  0
    5.2430    0.1640   29.4050 C   0  0  0  0  0  0  0  0  0  0  0  0
    5.7630    1.4480   29.4640 C   0  0  0  0  0  0  0  0  0  0  0  0
    6.2100    0.6990   17.5580 N   0  0  0  0  0  0  0  0  0  0  0  0
    5.1990    1.5430   17.7970 C   0  0  0  0  0  0  0  0  0  0  0  0
    4.6800    1.7690   19.0500 C   0  0  0  0  0  0  0  0  0  0  0  0
    5.2330    1.0880   20.1320 C   0  0  0  0  0  0  0  0  0  0  0  0
    6.2880    0.2060   19.8970 C   0  0  0  0  0  0  0  0  0  0  0  0
    6.7320    0.0500   18.6100 C   0  0  0  0  0  0  0  0  0  0  0  0
   10.6080   -0.0040   23.6170 C   0  0  0  0  0  0  0  0  0  0  0  0
   11.9770    0.2400   23.7510 C   0  0  0  0  0  0  0  0  0  0  0  0
   12.8640   -0.4880   22.9810 C   0  0  0  0  0  0  0  0  0  0  0  0
   12.3470   -1.4340   22.1110 C   0  0  0  0  0  0  0  0  0  0  0  0
   11.0140   -1.6660   21.9880 C   0  0  0  0  0  0  0  0  0  0  0  0
   10.0910   -0.9710   22.7200 C   0  0  0  0  0  0  0  0  0  0  0  0
  1  2  2  0
  1  3  1  0
  4  6  2  0
  6  7  1  0
  5  8  1  0
 10 13  1  6
  9 14  1  0
 11 14  2  0
 13 14  1  6
  6 16  1  0
 13 17  1  0
 17 16  1  6
 10 18  1  0
 18 17  1  6
 19  1  1  1
 10 19  1  0
 18 19  1  0
 19 20  1  0
 16 21  1  0
 20 21  1  0
 22 23  2  0
  3 24  1  0
 23 24  1  0
 24 25  2  0
 25 26  1  0
  5 27  1  0
 22 27  1  0
 26 27  2  0
 28 29  2  0
 29 30  1  0
 15 31  1  0
 30 31  2  0
  9 32  1  0
 31 32  1  0
 28 33  1  0
 32 33  2  0
 34 35  2  0
 35 36  1  0
 12 37  1  0
 36 37  2  0
 37 38  1  0
 13 39  1  0
 34 39  1  0
 38 39  2  0
M  END
