x2649-x0072
     RDKit          3D

 25 26  0  0  0  0  0  0  0  0999 V2000
    6.9440   -0.8480   20.8540 N   0  0  0  0  0  0  0  0  0  0  0  0
    7.8440   -0.7480   23.9000 C   0  0  0  0  0  0  0  0  0  0  0  0
    8.6910    0.7990   21.2520 O   0  0  0  0  0  0  0  0  0  0  0  0
   13.2240   -2.4910   21.1930 Cl  0  0  0  0  0  0  0  0  0  0  0  0
    8.6000   -1.2130   22.6720 C   0  0  2  0  0  0  0  0  0  0  0  0
    8.0520   -0.4390   21.5590 C   0  0  0  0  0  0  0  0  0  0  0  0
    4.8230    1.1320   21.6170 C   0  0  0  0  0  0  0  0  0  0  0  0
    5.2300   -4.5500   24.8360 C   0  0  0  0  0  0  0  0  0  0  0  0
    6.9280   -3.9770   24.4800 S   0  0  0  0  0  0  0  0  0  0  0  0
    7.7340   -5.1510   24.1730 O   0  0  0  0  0  0  0  0  0  0  0  0
    7.3030   -3.1160   25.5250 O   0  0  0  0  0  0  0  0  0  0  0  0
    7.0070   -3.0420   23.0850 N   0  0  0  0  0  0  0  0  0  0  0  0
    8.3900   -2.6960   22.6980 C   0  0  0  0  0  0  0  0  0  0  0  0
    6.1570    0.5750   17.5820 N   0  0  0  0  0  0  0  0  0  0  0  0
    5.2050    1.4600   17.8990 C   0  0  0  0  0  0  0  0  0  0  0  0
    4.7540    1.6560   19.1920 C   0  0  0  0  0  0  0  0  0  0  0  0
    5.2970    0.9190   20.2120 C   0  0  0  0  0  0  0  0  0  0  0  0
    6.2810   -0.0000   19.8690 C   0  0  0  0  0  0  0  0  0  0  0  0
    6.6690   -0.1370   18.5970 C   0  0  0  0  0  0  0  0  0  0  0  0
   10.5610    0.3430   23.2940 C   0  0  0  0  0  0  0  0  0  0  0  0
   11.9270    0.6700   23.2780 C   0  0  0  0  0  0  0  0  0  0  0  0
   12.8900   -0.1980   22.6310 C   0  0  0  0  0  0  0  0  0  0  0  0
   12.3020   -1.3790   22.0260 C   0  0  0  0  0  0  0  0  0  0  0  0
   10.9690   -1.6520   22.0780 C   0  0  0  0  0  0  0  0  0  0  0  0
   10.0760   -0.8220   22.6980 C   0  0  0  0  0  0  0  0  0  0  0  0
  5  2  1  1
  1  6  1  0
  3  6  2  0
  5  6  1  0
  8  9  1  0
  9 10  2  0
  9 11  2  0
  9 12  1  0
  5 13  1  0
 12 13  1  0
 14 15  2  0
 15 16  1  0
  7 17  1  0
 16 17  2  0
  1 18  1  0
 17 18  1  0
 14 19  1  0
 18 19  2  0
 20 21  2  0
 21 22  1  0
  4 23  1  0
 22 23  2  0
 23 24  1  0
  5 25  1  0
 20 25  1  0
 24 25  2  0
M  END
