x2643-x2703
     RDKit          3D

 33 35  0  0  0  0  0  0  0  0999 V2000
    6.9560   -1.6730   21.7170 N   0  0  0  0  0  0  0  0  0  0  0  0
    6.8090   -5.0130   20.4860 C   0  0  0  0  0  0  0  0  0  0  0  0
    4.8460   -3.0380   21.2100 O   0  0  0  0  0  0  0  0  0  0  0  0
    6.8040   -4.2050   21.7950 C   0  0  0  0  0  0  0  0  0  0  0  0
    7.2660    1.7890   22.7380 N   0  0  0  0  0  0  0  0  0  0  0  0
    8.7460    0.5450   21.4790 O   0  0  0  0  0  0  0  0  0  0  0  0
    6.0990   -2.8920   21.5510 C   0  0  0  0  0  0  0  0  0  0  0  0
    6.5680   -0.2940   21.5640 C   0  0  1  0  0  0  0  0  0  0  0  0
    7.6040    0.6800   21.9230 C   0  0  0  0  0  0  0  0  0  0  0  0
   10.0100    1.8620   24.0140 C   0  0  0  0  0  0  0  0  0  0  0  0
    9.1750    1.2350   24.9380 C   0  0  0  0  0  0  0  0  0  0  0  0
    6.0670    4.2530   21.7220 C   0  0  0  0  0  0  0  0  0  0  0  0
   11.9130   -1.6330   24.6140 C   0  0  0  0  0  0  0  0  0  0  0  0
   12.6820   -2.7920   24.7410 C   0  0  0  0  0  0  0  0  0  0  0  0
   13.1990   -1.5370   23.8750 C   0  0  0  0  0  0  0  0  0  0  0  0
    6.3070    0.4520   17.8520 N   0  0  0  0  0  0  0  0  0  0  0  0
    5.1670    1.1700   17.7930 C   0  0  0  0  0  0  0  0  0  0  0  0
    4.3380    1.4830   18.8640 C   0  0  0  0  0  0  0  0  0  0  0  0
    4.7020    1.0150   20.2630 C   0  0  0  0  0  0  0  0  0  0  0  0
    6.0060    0.2230   20.2750 C   0  0  0  0  0  0  0  0  0  0  0  0
    6.7180   -0.0090   19.0470 C   0  0  0  0  0  0  0  0  0  0  0  0
   10.6640   -2.0980   22.5220 N   0  0  0  0  0  0  0  0  0  0  0  0
   10.6280   -1.6950   23.8120 C   0  0  0  0  0  0  0  0  0  0  0  0
    9.4920   -1.3180   24.4690 C   0  0  0  0  0  0  0  0  0  0  0  0
    8.2570   -1.3340   23.7500 C   0  0  0  0  0  0  0  0  0  0  0  0
    8.2580   -1.7230   22.4290 C   0  0  0  0  0  0  0  0  0  0  0  0
    9.4780   -2.1030   21.8690 C   0  0  0  0  0  0  0  0  0  0  0  0
    9.2960    3.0730   23.4590 C   0  0  0  0  0  0  0  0  0  0  0  0
    9.9610    4.3040   23.5560 C   0  0  0  0  0  0  0  0  0  0  0  0
    9.3830    5.4810   23.0760 C   0  0  0  0  0  0  0  0  0  0  0  0
    8.1250    5.4280   22.4900 C   0  0  0  0  0  0  0  0  0  0  0  0
    7.4260    4.2140   22.3740 C   0  0  0  0  0  0  0  0  0  0  0  0
    8.0100    3.0130   22.8640 C   0  0  0  0  0  0  0  0  0  0  0  0
  2  4  1  0
  1  7  1  0
  3  7  2  0
  4  7  1  0
  1  8  1  0
  5  9  1  0
  6  9  2  0
  8  9  1  6
 10 11  1  0
 13 14  1  0
 13 15  1  0
 16 17  2  0
 17 18  1  0
 18 19  2  0
  8 20  1  0
 19 20  1  0
 16 21  1  0
 20 21  2  0
 13 23  1  0
 22 23  2  0
 23 24  1  0
 24 25  2  0
  1 26  1  0
 25 26  1  0
 22 27  1  0
 26 27  2  0
 10 28  1  0
 28 29  2  0
 29 30  1  0
 30 31  2  0
 12 32  1  0
 31 32  1  0
  5 33  1  0
 28 33  1  0
 32 33  2  0
M  END
