x2659-x0194
     RDKit          3D

 38 42  0  0  0  0  0  0  0  0999 V2000
   19.6980  -20.2610   16.3460 C   0  0  0  0  0  0  0  0  0  0  0  0
   21.9250  -19.6400   13.7550 O   0  0  0  0  0  0  0  0  0  0  0  0
   24.7380  -28.1570   19.8690 Cl  0  0  0  0  0  0  0  0  0  0  0  0
   20.6600  -20.8760   15.3820 C   0  0  1  0  0  0  0  0  0  0  0  0
   22.5520  -19.5280   16.0800 O   0  0  0  0  0  0  0  0  0  0  0  0
   21.7750  -19.9450   14.9410 C   0  0  0  0  0  0  0  0  0  0  0  0
   24.4480  -14.5140   24.6580 C   0  0  0  0  0  0  0  0  0  0  0  0
   23.9580  -15.1480   25.9110 C   0  0  0  0  0  0  0  0  0  0  0  0
   24.1270  -14.5470   26.9670 O   0  0  0  0  0  0  0  0  0  0  0  0
   23.3600  -16.3490   25.7790 N   0  0  0  0  0  0  0  0  0  0  0  0
   24.7080  -20.8040   22.6740 O   0  0  0  0  0  0  0  0  0  0  0  0
   23.6970  -20.0020   16.3020 C   0  0  0  0  0  0  0  0  0  0  0  0
   23.6900  -21.2980   17.1580 C   0  0  0  0  0  0  0  0  0  0  0  0
   23.3350  -25.1520   15.0240 N   0  0  0  0  0  0  0  0  0  0  0  0
   22.5780  -24.0590   15.6480 C   0  0  0  0  0  0  0  0  0  0  0  0
   22.5790  -24.3460   16.9820 C   0  0  0  0  0  0  0  0  0  0  0  0
   23.2910  -25.5070   17.2590 C   0  0  0  0  0  0  0  0  0  0  0  0
   23.7670  -26.0400   16.0890 C   0  0  0  0  0  0  0  0  0  0  0  0
   21.2960  -22.0590   15.9350 C   0  0  0  0  0  0  0  0  0  0  0  0
   21.9510  -22.9200   15.0890 C   0  0  0  0  0  0  0  0  0  0  0  0
   21.9340  -23.5340   17.9130 C   0  0  0  0  0  0  0  0  0  0  0  0
   21.2530  -22.3400   17.4170 C   0  0  0  0  0  0  0  0  0  0  0  0
   24.5140  -27.1990   16.0060 C   0  0  0  0  0  0  0  0  0  0  0  0
   24.8090  -27.8570   17.1940 C   0  0  0  0  0  0  0  0  0  0  0  0
   24.3450  -27.3320   18.4100 C   0  0  0  0  0  0  0  0  0  0  0  0
   23.5950  -26.1860   18.4570 C   0  0  0  0  0  0  0  0  0  0  0  0
   23.7920  -17.4420   25.0300 C   0  0  0  0  0  0  0  0  0  0  0  0
   22.7870  -18.0770   24.3410 C   0  0  0  0  0  0  0  0  0  0  0  0
   23.0810  -19.1920   23.5560 C   0  0  0  0  0  0  0  0  0  0  0  0
   24.3910  -19.6760   23.4500 C   0  0  0  0  0  0  0  0  0  0  0  0
   25.4020  -19.0060   24.1610 C   0  0  0  0  0  0  0  0  0  0  0  0
   25.1180  -17.8800   24.9620 C   0  0  0  0  0  0  0  0  0  0  0  0
   25.4000  -20.1560   20.3290 N   0  0  0  0  0  0  0  0  0  0  0  0
   25.0800  -20.3450   19.0240 C   0  0  0  0  0  0  0  0  0  0  0  0
   24.0290  -21.1470   18.5640 C   0  0  0  0  0  0  0  0  0  0  0  0
   23.2830  -21.8140   19.5490 C   0  0  0  0  0  0  0  0  0  0  0  0
   23.5250  -21.7000   20.8840 N   0  0  0  0  0  0  0  0  0  0  0  0
   24.5340  -20.8910   21.2740 C   0  0  0  0  0  0  0  0  0  0  0  0
  4  1  1  1
  2  6  2  0
  4  6  1  0
  5  6  1  0
  7  8  1  0
  8  9  2  0
  8 10  1  0
  5 12  1  0
 12 13  1  0
 14 15  1  0
 15 16  2  0
 16 17  1  0
 14 18  1  0
 17 18  2  0
  4 19  1  0
 15 20  1  0
 19 20  2  0
 16 21  1  0
 19 22  1  0
 21 22  2  0
 18 23  1  0
 23 24  2  0
  3 25  1  0
 24 25  1  0
 17 26  1  0
 25 26  2  0
 10 27  1  0
 27 28  2  0
 28 29  1  0
 11 30  1  0
 29 30  2  0
 30 31  1  0
 27 32  1  0
 31 32  2  0
 33 34  2  0
 13 35  1  0
 34 35  1  0
 35 36  2  0
 36 37  1  0
 11 38  1  0
 33 38  1  0
 37 38  2  0
M  END
