x2694-x1375
     RDKit          3D

 49 53  0  0  0  0  0  0  0  0999 V2000
    6.9990   -1.1170   21.6620 N   0  0  0  0  0  0  0  0  0  0  0  0
    6.7820   -4.3110   20.7710 C   0  0  2  0  0  0  0  0  0  0  0  0
    4.9490   -3.1340   21.1820 O   0  0  0  0  0  0  0  0  0  0  0  0
    6.8660   -3.0350   21.5290 C   0  0  0  0  0  0  0  0  0  0  0  0
    7.7010    2.2070   22.7930 N   0  0  0  0  0  0  0  0  0  0  0  0
    8.8620    1.2230   21.0660 O   0  0  0  0  0  0  0  0  0  0  0  0
    5.7970   -2.0570   21.3910 C   0  0  0  0  0  0  0  0  0  0  0  0
   10.9060    6.7310   23.8570 O   0  0  0  0  0  0  0  0  0  0  0  0
    6.6480    0.3390   21.5680 C   0  0  1  0  0  0  0  0  0  0  0  0
    7.8550    1.2600   21.7660 C   0  0  0  0  0  0  0  0  0  0  0  0
   10.1440    1.8620   24.0860 C   0  0  0  0  0  0  0  0  0  0  0  0
   11.8660    6.6340   24.9110 C   0  0  0  0  0  0  0  0  0  0  0  0
   12.0720   -1.2400   23.3050 C   0  0  0  0  0  0  0  0  0  0  0  0
   12.5030    0.0180   23.6490 C   0  0  0  0  0  0  0  0  0  0  0  0
   12.8270   -1.5710   22.0050 C   0  0  0  0  0  0  0  0  0  0  0  0
   12.4930   -2.2400   24.3740 C   0  0  0  0  0  0  0  0  0  0  0  0
    5.7880   -4.7950   20.2250 O   0  0  0  0  0  0  0  0  0  0  0  0
    7.0000   -5.1790   22.0000 N   0  0  0  0  0  0  0  0  0  0  0  0
    2.4280   -6.4750   23.7290 O   0  0  0  0  0  0  0  0  0  0  0  0
    4.5200   -7.7960   24.2450 O   0  0  0  0  0  0  0  0  0  0  0  0
   10.8360   -4.4170   25.9790 F   0  0  0  0  0  0  0  0  0  0  0  0
    6.3430    0.5520   17.8130 N   0  0  0  0  0  0  0  0  0  0  0  0
    5.2640    1.3470   17.7130 C   0  0  0  0  0  0  0  0  0  0  0  0
    4.5520    1.8550   18.7590 C   0  0  0  0  0  0  0  0  0  0  0  0
    4.9250    1.5720   20.1170 C   0  0  0  0  0  0  0  0  0  0  0  0
    6.0970    0.7220   20.2380 C   0  0  0  0  0  0  0  0  0  0  0  0
    6.7360    0.2570   19.0770 C   0  0  0  0  0  0  0  0  0  0  0  0
    8.3650   -1.2390   23.8400 N   0  0  0  0  0  0  0  0  0  0  0  0
    9.7330   -1.2630   24.2150 O   0  0  0  0  0  0  0  0  0  0  0  0
   10.5440   -1.2380   23.1120 C   0  0  0  0  0  0  0  0  0  0  0  0
    9.5750   -1.2040   22.0940 C   0  0  0  0  0  0  0  0  0  0  0  0
    8.2450   -1.1980   22.4640 C   0  0  0  0  0  0  0  0  0  0  0  0
    9.7020    3.2400   23.6720 C   0  0  0  0  0  0  0  0  0  0  0  0
   10.5150    4.3250   23.9430 C   0  0  0  0  0  0  0  0  0  0  0  0
   10.1620    5.6080   23.6060 C   0  0  0  0  0  0  0  0  0  0  0  0
    8.9530    5.7980   22.9590 C   0  0  0  0  0  0  0  0  0  0  0  0
    8.1210    4.6950   22.6700 C   0  0  0  0  0  0  0  0  0  0  0  0
    8.4970    3.3720   23.0390 C   0  0  0  0  0  0  0  0  0  0  0  0
    8.4230   -3.6330   23.3270 C   0  0  0  0  0  0  0  0  0  0  0  0
    9.3870   -3.4800   24.3410 C   0  0  0  0  0  0  0  0  0  0  0  0
    9.9200   -4.5700   25.0200 C   0  0  0  0  0  0  0  0  0  0  0  0
    9.4650   -5.9490   24.6750 C   0  0  0  0  0  0  0  0  0  0  0  0
    8.4380   -6.0400   23.5750 C   0  0  0  0  0  0  0  0  0  0  0  0
    7.9650   -4.9200   22.9640 C   0  0  0  0  0  0  0  0  0  0  0  0
    5.6120   -4.8420   23.9850 C   0  0  0  0  0  0  0  0  0  0  0  0
    5.8290   -5.6260   22.8400 C   0  0  1  0  0  0  0  0  0  0  0  0
    4.6800   -6.0730   22.3080 C   0  0  0  0  0  0  0  0  0  0  0  0
    3.9280   -6.5440   23.8600 S   0  0  0  0  0  0  0  0  0  0  0  0
    4.5470   -5.2410   24.7110 C   0  0  0  0  0  0  0  0  0  0  0  0
  2  4  1  0
  1  7  1  0
  3  7  2  0
  4  7  1  0
  1  9  1  0
  5 10  1  0
  6 10  2  0
  9 10  1  6
  8 12  1  0
 13 14  1  0
 13 15  1  0
 13 16  1  0
  2 17  1  1
  2 18  1  0
 22 23  2  0
 23 24  1  0
 24 25  2  0
  9 26  1  0
 25 26  1  0
 22 27  1  0
 26 27  2  0
 28 29  1  0
 13 30  1  0
 29 30  1  0
 30 31  2  0
  1 32  1  0
 28 32  2  0
 31 32  1  0
 11 33  1  0
 33 34  2  0
  8 35  1  0
 34 35  1  0
 35 36  2  0
 36 37  1  0
  5 38  1  0
 33 38  1  0
 37 38  2  0
 39 40  2  0
 21 41  1  0
 40 41  1  0
 41 42  2  0
 42 43  1  0
 18 44  1  0
 39 44  1  0
 43 44  2  0
 46 18  1  6
 45 46  1  0
 46 47  1  0
 48 19  1  0
 20 48  1  0
 47 48  1  0
 45 49  2  0
 48 49  1  0
M  END
