x2694-x2776
     RDKit          3D

 34 36  0  0  0  0  0  0  0  0999 V2000
    7.0890   -1.3710   21.7510 N   0  0  0  0  0  0  0  0  0  0  0  0
    6.7150   -4.2110   20.2100 C   0  0  0  0  0  0  0  0  0  0  0  0
    4.9760   -3.2340   21.2920 O   0  0  0  0  0  0  0  0  0  0  0  0
    6.8640   -3.3110   21.3930 C   0  0  0  0  0  0  0  0  0  0  0  0
    7.6450    2.1750   22.5970 N   0  0  0  0  0  0  0  0  0  0  0  0
    9.1520    0.7970   21.5030 O   0  0  0  0  0  0  0  0  0  0  0  0
    5.8590   -2.2330   21.5240 C   0  0  0  0  0  0  0  0  0  0  0  0
   10.8070    6.7400   23.8540 O   0  0  0  0  0  0  0  0  0  0  0  0
    6.8290    0.1090   21.5670 C   0  0  1  0  0  0  0  0  0  0  0  0
    8.0060    1.0210   21.8750 C   0  0  0  0  0  0  0  0  0  0  0  0
   10.3660    1.8400   23.9420 C   0  0  0  0  0  0  0  0  0  0  0  0
   11.8500    6.6740   24.8270 C   0  0  0  0  0  0  0  0  0  0  0  0
   12.0980   -1.6040   23.3750 C   0  0  0  0  0  0  0  0  0  0  0  0
   12.4890   -0.3880   23.9090 C   0  0  0  0  0  0  0  0  0  0  0  0
   12.7860   -1.7600   21.9990 C   0  0  0  0  0  0  0  0  0  0  0  0
   12.5150   -2.8350   24.1770 C   0  0  0  0  0  0  0  0  0  0  0  0
   12.7800   -1.7250   24.9730 C   0  0  0  0  0  0  0  0  0  0  0  0
    6.3380    0.5180   17.8160 N   0  0  0  0  0  0  0  0  0  0  0  0
    5.2430    1.3160   17.8360 C   0  0  0  0  0  0  0  0  0  0  0  0
    4.5540    1.7840   19.0180 C   0  0  0  0  0  0  0  0  0  0  0  0
    5.1360    1.3350   20.2600 C   0  0  0  0  0  0  0  0  0  0  0  0
    6.2590    0.5250   20.2380 C   0  0  0  0  0  0  0  0  0  0  0  0
    6.8180    0.1390   19.0150 C   0  0  0  0  0  0  0  0  0  0  0  0
    8.4120   -1.8230   23.8950 N   0  0  0  0  0  0  0  0  0  0  0  0
    9.7810   -1.8640   24.2550 O   0  0  0  0  0  0  0  0  0  0  0  0
   10.5650   -1.6130   23.1780 C   0  0  0  0  0  0  0  0  0  0  0  0
    9.6570   -1.4220   22.1560 C   0  0  0  0  0  0  0  0  0  0  0  0
    8.3160   -1.5430   22.5710 C   0  0  0  0  0  0  0  0  0  0  0  0
    9.8470    3.1770   23.5960 C   0  0  0  0  0  0  0  0  0  0  0  0
   10.6110    4.3080   23.8880 C   0  0  0  0  0  0  0  0  0  0  0  0
   10.1350    5.5730   23.5860 C   0  0  0  0  0  0  0  0  0  0  0  0
    8.8850    5.7070   22.9680 C   0  0  0  0  0  0  0  0  0  0  0  0
    8.0660    4.6020   22.6370 C   0  0  0  0  0  0  0  0  0  0  0  0
    8.4850    3.2900   22.9290 C   0  0  0  0  0  0  0  0  0  0  0  0
  2  4  1  0
  1  7  1  0
  3  7  2  0
  4  7  1  0
  1  9  1  0
  5 10  1  0
  6 10  2  0
  9 10  1  6
  8 12  1  0
 13 14  1  0
 13 15  1  0
 13 16  1  0
 16 17  1  0
 18 19  2  0
 19 20  1  0
 20 21  2  0
  9 22  1  0
 21 22  1  0
 18 23  1  0
 22 23  2  0
 24 25  1  0
 13 26  1  0
 25 26  1  0
 26 27  2  0
  1 28  1  0
 24 28  2  0
 27 28  1  0
 11 29  1  0
 29 30  2  0
  8 31  1  0
 30 31  1  0
 31 32  2  0
 32 33  1  0
  5 34  1  0
 29 34  1  0
 33 34  2  0
M  END
