x2694-x0995
     RDKit          3D

 34 36  0  0  0  0  0  0  0  0999 V2000
    7.1030   -1.3060   21.7400 N   0  0  0  0  0  0  0  0  0  0  0  0
    6.7220   -4.1830   20.1810 C   0  0  0  0  0  0  0  0  0  0  0  0
    4.9790   -3.2220   21.2730 O   0  0  0  0  0  0  0  0  0  0  0  0
    6.8950   -3.2620   21.3450 C   0  0  0  0  0  0  0  0  0  0  0  0
    7.7380    2.1060   22.8380 N   0  0  0  0  0  0  0  0  0  0  0  0
    8.9670    1.1720   21.1310 O   0  0  0  0  0  0  0  0  0  0  0  0
    5.8750   -2.2020   21.5120 C   0  0  0  0  0  0  0  0  0  0  0  0
   10.9690    6.6650   23.8890 O   0  0  0  0  0  0  0  0  0  0  0  0
    6.8030    0.1730   21.6130 C   0  0  1  0  0  0  0  0  0  0  0  0
    7.9540    1.1570   21.8220 C   0  0  0  0  0  0  0  0  0  0  0  0
   10.3080    2.0080   24.0070 C   0  0  0  0  0  0  0  0  0  0  0  0
   11.8530    6.4920   24.9950 C   0  0  0  0  0  0  0  0  0  0  0  0
   12.1150   -1.5470   23.2660 C   0  0  0  0  0  0  0  0  0  0  0  0
   12.4910   -0.2430   23.5360 C   0  0  0  0  0  0  0  0  0  0  0  0
   12.8050   -1.9770   21.9510 C   0  0  0  0  0  0  0  0  0  0  0  0
   12.6020   -2.4700   24.3540 C   0  0  0  0  0  0  0  0  0  0  0  0
    3.4130    2.4580   18.8060 N   0  0  0  0  0  0  0  0  0  0  0  0
    6.3260    0.4560   17.8900 N   0  0  0  0  0  0  0  0  0  0  0  0
    5.2100    1.2260   17.8510 C   0  0  0  0  0  0  0  0  0  0  0  0
    4.5150    1.7010   18.9500 C   0  0  0  0  0  0  0  0  0  0  0  0
    5.0180    1.3600   20.2540 C   0  0  0  0  0  0  0  0  0  0  0  0
    6.2080    0.5460   20.2970 C   0  0  0  0  0  0  0  0  0  0  0  0
    6.7940    0.1340   19.1100 C   0  0  0  0  0  0  0  0  0  0  0  0
    8.4470   -1.9960   23.8130 N   0  0  0  0  0  0  0  0  0  0  0  0
    9.8210   -2.0220   24.1490 O   0  0  0  0  0  0  0  0  0  0  0  0
   10.5940   -1.6020   23.1080 C   0  0  0  0  0  0  0  0  0  0  0  0
    9.6270   -1.3250   22.1300 C   0  0  0  0  0  0  0  0  0  0  0  0
    8.3300   -1.5490   22.5370 C   0  0  0  0  0  0  0  0  0  0  0  0
    9.7880    3.1960   23.6590 C   0  0  0  0  0  0  0  0  0  0  0  0
   10.5460    4.3400   23.8930 C   0  0  0  0  0  0  0  0  0  0  0  0
   10.1110    5.6360   23.5830 C   0  0  0  0  0  0  0  0  0  0  0  0
    8.8450    5.7300   22.9960 C   0  0  0  0  0  0  0  0  0  0  0  0
    8.0780    4.5790   22.7520 C   0  0  0  0  0  0  0  0  0  0  0  0
    8.5300    3.2940   23.0810 C   0  0  0  0  0  0  0  0  0  0  0  0
  2  4  1  0
  1  7  1  0
  3  7  2  0
  4  7  1  0
  1  9  1  0
  5 10  1  0
  6 10  2  0
  9 10  1  6
  8 12  1  0
 13 14  1  0
 13 15  1  0
 13 16  1  0
 18 19  2  0
 17 20  1  0
 19 20  1  0
 20 21  2  0
  9 22  1  0
 21 22  1  0
 18 23  1  0
 22 23  2  0
 24 25  1  0
 13 26  1  0
 25 26  1  0
 26 27  2  0
  1 28  1  0
 24 28  2  0
 27 28  1  0
 11 29  1  0
 29 30  2  0
  8 31  1  0
 30 31  1  0
 31 32  2  0
 32 33  1  0
  5 34  1  0
 29 34  1  0
 33 34  2  0
M  END
