x2694-x2908
     RDKit          3D

 34 36  0  0  0  0  0  0  0  0999 V2000
    6.1450   -1.1290   22.3170 N   0  0  0  0  0  0  0  0  0  0  0  0
    6.7570   -3.9390   20.0480 C   0  0  0  0  0  0  0  0  0  0  0  0
    4.7310   -3.0190   21.4560 O   0  0  0  0  0  0  0  0  0  0  0  0
    7.0820   -3.3040   21.3820 C   0  0  0  0  0  0  0  0  0  0  0  0
    7.6360    2.0270   23.0290 N   0  0  0  0  0  0  0  0  0  0  0  0
    8.5360    1.6310   20.9990 O   0  0  0  0  0  0  0  0  0  0  0  0
    5.8900   -2.4480   21.7270 C   0  0  0  0  0  0  0  0  0  0  0  0
   10.9110    6.6050   23.8520 O   0  0  0  0  0  0  0  0  0  0  0  0
    7.2670   -0.2870   21.6940 C   0  0  2  0  0  0  0  0  0  0  0  0
    7.8280    1.2080   21.9260 C   0  0  0  0  0  0  0  0  0  0  0  0
   10.3500    1.8040   24.0550 C   0  0  0  0  0  0  0  0  0  0  0  0
   11.8700    6.4610   24.8960 C   0  0  0  0  0  0  0  0  0  0  0  0
   12.1990   -1.5710   23.1420 C   0  0  0  0  0  0  0  0  0  0  0  0
   12.8480   -0.2300   23.5350 C   0  0  0  0  0  0  0  0  0  0  0  0
   12.8210   -2.0190   21.8750 C   0  0  0  0  0  0  0  0  0  0  0  0
   12.4920   -2.5700   24.2810 C   0  0  0  0  0  0  0  0  0  0  0  0
    4.9420    1.4630   21.5440 C   0  0  0  0  0  0  0  0  0  0  0  0
    6.5840    0.0580   17.8880 N   0  0  0  0  0  0  0  0  0  0  0  0
    5.5260    0.8750   17.9190 C   0  0  0  0  0  0  0  0  0  0  0  0
    4.9860    1.3350   19.0790 C   0  0  0  0  0  0  0  0  0  0  0  0
    5.5680    0.9370   20.2820 C   0  0  0  0  0  0  0  0  0  0  0  0
    6.7060    0.0690   20.2990 C   0  0  0  0  0  0  0  0  0  0  0  0
    7.1470   -0.3300   19.0550 C   0  0  0  0  0  0  0  0  0  0  0  0
    8.5910   -1.2920   23.5870 N   0  0  0  0  0  0  0  0  0  0  0  0
    9.8840   -1.6130   23.9490 O   0  0  0  0  0  0  0  0  0  0  0  0
   10.7210   -1.3280   22.9210 C   0  0  0  0  0  0  0  0  0  0  0  0
    9.9540   -0.8370   21.8710 C   0  0  0  0  0  0  0  0  0  0  0  0
    8.6090   -0.7960   22.3190 C   0  0  0  0  0  0  0  0  0  0  0  0
    9.7260    3.1300   23.7070 C   0  0  0  0  0  0  0  0  0  0  0  0
   10.5120    4.2940   23.8920 C   0  0  0  0  0  0  0  0  0  0  0  0
   10.0340    5.5650   23.6110 C   0  0  0  0  0  0  0  0  0  0  0  0
    8.7390    5.6810   23.1170 C   0  0  0  0  0  0  0  0  0  0  0  0
    7.9350    4.5330   22.9180 C   0  0  0  0  0  0  0  0  0  0  0  0
    8.4080    3.2380   23.2110 C   0  0  0  0  0  0  0  0  0  0  0  0
  2  4  1  0
  1  7  1  0
  3  7  2  0
  4  7  1  0
  9  1  1  1
  5 10  1  0
  6 10  2  0
  9 10  1  0
  8 12  1  0
 13 14  1  0
 13 15  1  0
 13 16  1  0
 18 19  2  0
 19 20  1  0
 17 21  1  0
 20 21  2  0
  9 22  1  0
 21 22  1  0
 18 23  1  0
 22 23  2  0
 24 25  1  0
 13 26  1  0
 25 26  1  0
 26 27  2  0
  9 28  1  0
 24 28  2  0
 27 28  1  0
 11 29  1  0
 29 30  2  0
  8 31  1  0
 30 31  1  0
 31 32  2  0
 32 33  1  0
  5 34  1  0
 29 34  1  0
 33 34  2  0
M  END
