x2694-x0991
     RDKit          3D

 39 41  0  0  0  0  0  0  0  0999 V2000
    7.0380   -1.4190   21.7460 N   0  0  0  0  0  0  0  0  0  0  0  0
    6.8480   -4.8170   20.4630 C   0  0  0  0  0  0  0  0  0  0  0  0
    4.8190   -2.9530   21.1830 O   0  0  0  0  0  0  0  0  0  0  0  0
    6.8370   -3.9320   21.6700 C   0  0  2  0  0  0  0  0  0  0  0  0
    7.6300    2.0740   22.7910 N   0  0  0  0  0  0  0  0  0  0  0  0
    8.7340    1.1320   21.0230 O   0  0  0  0  0  0  0  0  0  0  0  0
    6.1220   -2.6660   21.5090 C   0  0  0  0  0  0  0  0  0  0  0  0
   10.9220    6.6170   23.8680 O   0  0  0  0  0  0  0  0  0  0  0  0
    6.6250    0.0510   21.6440 C   0  0  1  0  0  0  0  0  0  0  0  0
    7.7630    1.0970   21.7780 C   0  0  0  0  0  0  0  0  0  0  0  0
   10.2510    1.8340   24.0740 C   0  0  0  0  0  0  0  0  0  0  0  0
   11.8520    6.4220   24.9320 C   0  0  0  0  0  0  0  0  0  0  0  0
   12.0560   -1.3950   23.2590 C   0  0  0  0  0  0  0  0  0  0  0  0
   12.4970   -0.1310   23.5890 C   0  0  0  0  0  0  0  0  0  0  0  0
   12.7440   -1.7820   21.9320 C   0  0  0  0  0  0  0  0  0  0  0  0
   12.5180   -2.3910   24.2910 C   0  0  0  0  0  0  0  0  0  0  0  0
    9.9280   -5.8560   25.3340 N   0  0  0  0  0  0  0  0  0  0  0  0
    8.2620   -3.8410   23.7890 C   0  0  0  0  0  0  0  0  0  0  0  0
    7.8790   -5.1260   24.1500 C   0  0  0  0  0  0  0  0  0  0  0  0
    8.0270   -5.9390   26.5020 N   0  0  0  0  0  0  0  0  0  0  0  0
    8.6140   -5.6430   25.3060 C   0  0  0  0  0  0  0  0  0  0  0  0
    8.2030   -3.6520   22.3120 C   0  0  0  0  0  0  0  0  0  0  0  0
    6.3950    0.4390   17.9240 N   0  0  0  0  0  0  0  0  0  0  0  0
    5.2760    1.1880   17.8240 C   0  0  0  0  0  0  0  0  0  0  0  0
    4.5160    1.6020   18.9020 C   0  0  0  0  0  0  0  0  0  0  0  0
    4.9390    1.2270   20.1670 C   0  0  0  0  0  0  0  0  0  0  0  0
    6.0690    0.4790   20.3020 C   0  0  0  0  0  0  0  0  0  0  0  0
    6.7720    0.0950   19.1680 C   0  0  0  0  0  0  0  0  0  0  0  0
    8.3930   -1.4570   23.8950 N   0  0  0  0  0  0  0  0  0  0  0  0
    9.7410   -1.4500   24.2670 O   0  0  0  0  0  0  0  0  0  0  0  0
   10.5180   -1.4190   23.1570 C   0  0  0  0  0  0  0  0  0  0  0  0
    9.6470   -1.4100   22.0500 C   0  0  0  0  0  0  0  0  0  0  0  0
    8.3070   -1.4370   22.5390 C   0  0  0  0  0  0  0  0  0  0  0  0
    9.6890    3.1620   23.6520 C   0  0  0  0  0  0  0  0  0  0  0  0
   10.4760    4.3080   23.8970 C   0  0  0  0  0  0  0  0  0  0  0  0
   10.0470    5.5970   23.5560 C   0  0  0  0  0  0  0  0  0  0  0  0
    8.8030    5.7720   22.9420 C   0  0  0  0  0  0  0  0  0  0  0  0
    7.9950    4.6690   22.6740 C   0  0  0  0  0  0  0  0  0  0  0  0
    8.4220    3.2440   23.0390 C   0  0  0  0  0  0  0  0  0  0  0  0
  4  2  1  6
  1  7  1  0
  3  7  2  0
  4  7  1  0
  1  9  1  0
  5 10  1  0
  6 10  2  0
  9 10  1  6
  8 12  1  0
 13 14  1  0
 13 15  1  0
 13 16  1  0
 18 19  1  0
 17 21  2  3
 19 21  1  0
 20 21  1  0
  4 22  1  0
 18 22  1  0
 23 24  2  0
 24 25  1  0
 25 26  2  0
  9 27  1  0
 26 27  1  0
 23 28  1  0
 27 28  2  0
 29 30  1  0
 13 31  1  0
 30 31  1  0
 31 32  2  0
  1 33  1  0
 29 33  2  0
 32 33  1  0
 11 34  1  0
 34 35  2  0
  8 36  1  0
 35 36  1  0
 36 37  2  0
 37 38  1  0
  5 39  1  0
 34 39  1  0
 38 39  2  0
M  END
