x2694-x1493
     RDKit          3D

 43 47  0  0  0  0  0  0  0  0999 V2000
    7.0670   -1.2100   21.7240 N   0  0  0  0  0  0  0  0  0  0  0  0
    6.7520   -4.1810   20.2290 C   0  0  2  0  0  0  0  0  0  0  0  0
    4.9580   -3.1630   21.2280 O   0  0  0  0  0  0  0  0  0  0  0  0
    6.8840   -3.1600   21.2990 C   0  0  1  0  0  0  0  0  0  0  0  0
    7.6180    2.1830   22.8190 N   0  0  0  0  0  0  0  0  0  0  0  0
    8.9500    1.2760   21.1530 O   0  0  0  0  0  0  0  0  0  0  0  0
    5.8440   -2.1360   21.4810 C   0  0  0  0  0  0  0  0  0  0  0  0
   10.9180    6.6910   23.8940 O   0  0  0  0  0  0  0  0  0  0  0  0
    6.7680    0.2600   21.5250 C   0  0  1  0  0  0  0  0  0  0  0  0
    7.9030    1.2520   21.7980 C   0  0  0  0  0  0  0  0  0  0  0  0
   10.1960    1.7530   24.1370 C   0  0  0  0  0  0  0  0  0  0  0  0
   11.8730    6.5690   24.9460 C   0  0  0  0  0  0  0  0  0  0  0  0
   12.0150   -1.4800   23.2560 C   0  0  0  0  0  0  0  0  0  0  0  0
   12.4040   -0.2190   23.6610 C   0  0  0  0  0  0  0  0  0  0  0  0
   12.7800   -1.7480   21.9480 C   0  0  0  0  0  0  0  0  0  0  0  0
   12.4670   -2.5150   24.2750 C   0  0  0  0  0  0  0  0  0  0  0  0
    5.7630   -4.4470   19.5650 O   0  0  0  0  0  0  0  0  0  0  0  0
    4.9250   -5.9650   26.1180 C   0  0  0  0  0  0  0  0  0  0  0  0
    7.1440   -5.5930   26.4740 O   0  0  0  0  0  0  0  0  0  0  0  0
    6.2050   -5.6190   25.6830 C   0  0  0  0  0  0  0  0  0  0  0  0
    6.3290    0.5620   17.7910 N   0  0  0  0  0  0  0  0  0  0  0  0
    5.2180    1.3370   17.7360 C   0  0  0  0  0  0  0  0  0  0  0  0
    4.5550    1.7750   18.9320 C   0  0  0  0  0  0  0  0  0  0  0  0
    5.0190    1.4390   20.1650 C   0  0  0  0  0  0  0  0  0  0  0  0
    6.1620    0.6550   20.2250 C   0  0  0  0  0  0  0  0  0  0  0  0
    6.7750    0.2370   19.0240 C   0  0  0  0  0  0  0  0  0  0  0  0
    8.3700   -1.8670   23.7800 N   0  0  0  0  0  0  0  0  0  0  0  0
    9.7640   -1.8810   24.0550 O   0  0  0  0  0  0  0  0  0  0  0  0
   10.4820   -1.5270   23.0790 C   0  0  0  0  0  0  0  0  0  0  0  0
    9.5810   -1.2480   22.0400 C   0  0  0  0  0  0  0  0  0  0  0  0
    8.2970   -1.4580   22.5050 C   0  0  0  0  0  0  0  0  0  0  0  0
    9.7090    3.1250   23.7210 C   0  0  0  0  0  0  0  0  0  0  0  0
   10.4840    4.2600   23.9600 C   0  0  0  0  0  0  0  0  0  0  0  0
   10.0870    5.5450   23.6110 C   0  0  0  0  0  0  0  0  0  0  0  0
    8.8550    5.7160   22.9750 C   0  0  0  0  0  0  0  0  0  0  0  0
    8.0490    4.5880   22.7140 C   0  0  0  0  0  0  0  0  0  0  0  0
    8.4720    3.2910   23.0890 C   0  0  0  0  0  0  0  0  0  0  0  0
    6.3970   -5.3380   24.3410 N   0  0  0  0  0  0  0  0  0  0  0  0
    7.5250   -4.7360   23.8720 C   0  0  0  0  0  0  0  0  0  0  0  0
    7.8700   -5.2010   22.4560 C   0  0  0  0  0  0  0  0  0  0  0  0
    6.7060   -4.6520   21.6680 C   0  0  0  0  0  0  0  0  0  0  0  0
    5.4780   -5.1630   22.0550 C   0  0  0  0  0  0  0  0  0  0  0  0
    5.4310   -5.9060   23.3890 C   0  0  0  0  0  0  0  0  0  0  0  0
  2  4  1  0
  1  7  1  0
  3  7  2  0
  4  7  1  1
  1  9  1  0
  5 10  1  0
  6 10  2  0
  9 10  1  6
  8 12  1  0
 13 14  1  0
 13 15  1  0
 13 16  1  0
  2 17  1  1
 18 20  1  0
 19 20  2  0
 21 22  2  0
 22 23  1  0
 23 24  2  0
  9 25  1  0
 24 25  1  0
 21 26  1  0
 25 26  2  0
 27 28  1  0
 13 29  1  0
 28 29  1  0
 29 30  2  0
  1 31  1  0
 27 31  2  0
 30 31  1  0
 11 32  1  0
 32 33  2  0
  8 34  1  0
 33 34  1  0
 34 35  2  0
 35 36  1  0
  5 37  1  0
 32 37  1  0
 36 37  2  0
 20 38  1  0
 38 39  1  0
 39 40  1  0
  2 41  1  0
  4 41  1  0
 41 40  1  0
 41 42  1  0
 38 43  1  0
 42 43  1  0
M  END
