x2694-x2643
     RDKit          3D

 33 35  0  0  0  0  0  0  0  0999 V2000
    7.0850   -1.3370   21.7470 N   0  0  0  0  0  0  0  0  0  0  0  0
    6.7130   -4.2350   20.2090 C   0  0  0  0  0  0  0  0  0  0  0  0
    4.9810   -3.2300   21.2710 O   0  0  0  0  0  0  0  0  0  0  0  0
    6.8810   -3.2870   21.3530 C   0  0  0  0  0  0  0  0  0  0  0  0
    7.7050    2.1230   22.7470 N   0  0  0  0  0  0  0  0  0  0  0  0
    9.0820    0.8650   21.3670 O   0  0  0  0  0  0  0  0  0  0  0  0
    5.8620   -2.2200   21.5120 C   0  0  0  0  0  0  0  0  0  0  0  0
   10.8600    6.7110   23.8860 O   0  0  0  0  0  0  0  0  0  0  0  0
    6.7810    0.1420   21.6050 C   0  0  1  0  0  0  0  0  0  0  0  0
    7.9820    1.0400   21.8770 C   0  0  0  0  0  0  0  0  0  0  0  0
   10.1900    1.8010   24.0260 C   0  0  0  0  0  0  0  0  0  0  0  0
   11.8510    6.6310   24.9110 C   0  0  0  0  0  0  0  0  0  0  0  0
   12.0790   -1.5390   23.2580 C   0  0  0  0  0  0  0  0  0  0  0  0
   12.5150   -0.2560   23.5290 C   0  0  0  0  0  0  0  0  0  0  0  0
   12.7730   -1.9750   21.9490 C   0  0  0  0  0  0  0  0  0  0  0  0
   12.5130   -2.4850   24.3670 C   0  0  0  0  0  0  0  0  0  0  0  0
    6.4010    0.4210   17.8740 N   0  0  0  0  0  0  0  0  0  0  0  0
    5.2780    1.2490   17.8020 C   0  0  0  0  0  0  0  0  0  0  0  0
    4.5700    1.7550   18.8660 C   0  0  0  0  0  0  0  0  0  0  0  0
    4.9880    1.4350   20.2340 C   0  0  0  0  0  0  0  0  0  0  0  0
    6.1760    0.5690   20.2870 C   0  0  0  0  0  0  0  0  0  0  0  0
    6.7790    0.1330   19.1120 C   0  0  0  0  0  0  0  0  0  0  0  0
    8.3690   -1.9090   23.8000 N   0  0  0  0  0  0  0  0  0  0  0  0
    9.7550   -1.9380   24.1530 O   0  0  0  0  0  0  0  0  0  0  0  0
   10.5570   -1.5810   23.0840 C   0  0  0  0  0  0  0  0  0  0  0  0
    9.6140   -1.3410   22.0690 C   0  0  0  0  0  0  0  0  0  0  0  0
    8.3350   -1.5300   22.5030 C   0  0  0  0  0  0  0  0  0  0  0  0
    9.7150    3.1790   23.6430 C   0  0  0  0  0  0  0  0  0  0  0  0
   10.5200    4.2770   23.9320 C   0  0  0  0  0  0  0  0  0  0  0  0
   10.1420    5.5680   23.6250 C   0  0  0  0  0  0  0  0  0  0  0  0
    8.9240    5.7260   22.9950 C   0  0  0  0  0  0  0  0  0  0  0  0
    8.1120    4.6220   22.6920 C   0  0  0  0  0  0  0  0  0  0  0  0
    8.4980    3.2950   23.0210 C   0  0  0  0  0  0  0  0  0  0  0  0
  2  4  1  0
  1  7  1  0
  3  7  2  0
  4  7  1  0
  1  9  1  0
  5 10  1  0
  6 10  2  0
  9 10  1  6
  8 12  1  0
 13 14  1  0
 13 15  1  0
 13 16  1  0
 17 18  2  0
 18 19  1  0
 19 20  2  0
  9 21  1  0
 20 21  1  0
 17 22  1  0
 21 22  2  0
 23 24  1  0
 13 25  1  0
 24 25  1  0
 25 26  2  0
  1 27  1  0
 23 27  2  0
 26 27  1  0
 11 28  1  0
 28 29  2  0
  8 30  1  0
 29 30  1  0
 30 31  2  0
 31 32  1  0
  5 33  1  0
 28 33  1  0
 32 33  2  0
M  END
