x2694
     RDKit          3D

 34 36  0  0  0  0  0  0  0  0999 V2000
    7.6820   -1.0380   21.7460 N   0  0  0  0  0  0  0  0  0  0  0  0
    7.0190   -4.3470   20.0770 C   0  0  0  0  0  0  0  0  0  0  0  0
    5.7450   -2.0760   21.2160 O   0  0  0  0  0  0  0  0  0  0  0  0
    7.6870   -3.4670   21.1270 C   0  0  0  0  0  0  0  0  0  0  0  0
    7.8850    2.3830   22.6100 N   0  0  0  0  0  0  0  0  0  0  0  0
    9.3030    1.4490   21.0860 O   0  0  0  0  0  0  0  0  0  0  0  0
    6.9560   -2.1680   21.3450 C   0  0  0  0  0  0  0  0  0  0  0  0
    6.6380    0.4450   17.7110 N   0  0  0  0  0  0  0  0  0  0  0  0
   10.9090    6.7290   24.2730 O   0  0  0  0  0  0  0  0  0  0  0  0
    7.2020    0.3380   21.4590 C   0  0  1  0  0  0  0  0  0  0  0  0
    8.7660   -1.2870   23.9050 N   0  0  0  0  0  0  0  0  0  0  0  0
   10.1160   -1.3720   24.3440 O   0  0  0  0  0  0  0  0  0  0  0  0
    8.2450    1.4390   21.7090 C   0  0  0  0  0  0  0  0  0  0  0  0
    8.6690    3.4780   23.0440 C   0  0  0  0  0  0  0  0  0  0  0  0
    9.7310    3.2400   23.9370 C   0  0  0  0  0  0  0  0  0  0  0  0
    9.9930    1.8750   24.5230 C   0  0  0  0  0  0  0  0  0  0  0  0
   10.5070    4.3200   24.3430 C   0  0  0  0  0  0  0  0  0  0  0  0
   10.2220    5.6030   23.9000 C   0  0  0  0  0  0  0  0  0  0  0  0
   11.9980    6.6040   25.1940 C   0  0  0  0  0  0  0  0  0  0  0  0
    9.1710    5.8300   23.0260 C   0  0  0  0  0  0  0  0  0  0  0  0
    8.3910    4.7700   22.5970 C   0  0  0  0  0  0  0  0  0  0  0  0
    6.5110    0.5100   20.1170 C   0  0  0  0  0  0  0  0  0  0  0  0
    7.1250    0.1540   18.9230 C   0  0  0  0  0  0  0  0  0  0  0  0
    5.4790    1.1110   17.6600 C   0  0  0  0  0  0  0  0  0  0  0  0
    4.7750    1.4970   18.7850 C   0  0  0  0  0  0  0  0  0  0  0  0
    5.3010    1.1820   20.0240 C   0  0  0  0  0  0  0  0  0  0  0  0
    8.8570   -1.2120   22.5540 C   0  0  0  0  0  0  0  0  0  0  0  0
   10.9280   -1.3490   23.2680 C   0  0  0  0  0  0  0  0  0  0  0  0
   10.2180   -1.2610   22.1360 C   0  0  0  0  0  0  0  0  0  0  0  0
   12.4320   -1.3950   23.4630 C   0  0  2  0  0  0  0  0  0  0  0  0
   12.9340   -0.0350   23.9450 C   0  0  0  0  0  0  0  0  0  0  0  0
   13.1120   -1.7490   22.1400 C   0  0  0  0  0  0  0  0  0  0  0  0
   12.7990   -2.4410   24.5170 C   0  0  0  0  0  0  0  0  0  0  0  0
    8.2500   -3.7130   18.9670 R   0  0  0  0  0  0  0  0  0  0  0  0
  4  2  1  1
  1  7  1  0
  3  7  2  0
  4  7  1  0
  1 10  1  0
 11 12  1  0
  5 13  1  0
  6 13  2  0
 10 13  1  1
  5 14  1  0
 14 15  2  0
 15 16  1  0
 15 17  1  0
  9 18  1  0
 17 18  2  0
  9 19  1  0
 18 20  1  0
 14 21  1  0
 20 21  2  0
 10 22  1  0
  8 23  2  0
 22 23  1  0
  8 24  1  0
 24 25  2  0
 22 26  2  0
 25 26  1  0
  1 27  1  0
 11 27  2  0
 12 28  1  0
 27 29  1  0
 28 29  2  0
 28 30  1  0
 30 31  1  1
 30 32  1  0
 30 33  1  0
  2 34  1  0
M  END
