x2705-x2569
     RDKit          3D

 34 36  0  0  0  0  0  0  0  0999 V2000
    7.0390   -1.5990   21.7590 N   0  0  0  0  0  0  0  0  0  0  0  0
    6.8950   -4.9480   20.5380 C   0  0  0  0  0  0  0  0  0  0  0  0
    4.8540   -3.0370   21.2440 O   0  0  0  0  0  0  0  0  0  0  0  0
    6.8820   -4.0730   21.7420 C   0  0  0  0  0  0  0  0  0  0  0  0
    7.3190    1.9130   22.8280 N   0  0  0  0  0  0  0  0  0  0  0  0
    8.8710    0.6720   21.6280 O   0  0  0  0  0  0  0  0  0  0  0  0
    6.1480   -2.8170   21.5640 C   0  0  0  0  0  0  0  0  0  0  0  0
    6.5930   -0.1540   21.6910 C   0  0  1  0  0  0  0  0  0  0  0  0
    7.7200    0.8150   22.0410 C   0  0  0  0  0  0  0  0  0  0  0  0
   10.1510    1.9650   23.9380 C   0  0  0  0  0  0  0  0  0  0  0  0
    9.2770    1.1800   24.9140 C   0  0  0  0  0  0  0  0  0  0  0  0
    6.1080    4.4180   21.9210 C   0  0  0  0  0  0  0  0  0  0  0  0
   11.9810   -1.5420   23.4290 C   0  0  0  0  0  0  0  0  0  0  0  0
   12.4090   -0.3280   23.9800 C   0  0  0  0  0  0  0  0  0  0  0  0
   12.4940   -2.6320   24.3930 C   0  0  0  0  0  0  0  0  0  0  0  0
   12.7080   -1.7100   22.0930 C   0  0  0  0  0  0  0  0  0  0  0  0
   13.4750   -1.8070   20.8530 N   0  0  0  0  0  0  0  0  0  0  0  0
    6.2960    0.4230   17.7600 N   0  0  0  0  0  0  0  0  0  0  0  0
    5.2070    1.1300   17.7540 C   0  0  0  0  0  0  0  0  0  0  0  0
    4.4140    1.4950   18.9230 C   0  0  0  0  0  0  0  0  0  0  0  0
    4.9520    1.0040   20.1890 C   0  0  0  0  0  0  0  0  0  0  0  0
    6.1220    0.2520   20.2760 C   0  0  0  0  0  0  0  0  0  0  0  0
    6.7300   -0.0080   19.0640 C   0  0  0  0  0  0  0  0  0  0  0  0
    9.6320   -1.6110   24.2900 N   0  0  0  0  0  0  0  0  0  0  0  0
    8.3160   -1.6350   23.8750 N   0  0  0  0  0  0  0  0  0  0  0  0
    8.3040   -1.6170   22.5000 C   0  0  0  0  0  0  0  0  0  0  0  0
    9.6510   -1.5930   22.1260 C   0  0  0  0  0  0  0  0  0  0  0  0
   10.4430   -1.5840   23.2480 C   0  0  0  0  0  0  0  0  0  0  0  0
    9.3890    3.1830   23.4510 C   0  0  0  0  0  0  0  0  0  0  0  0
   10.0710    4.4040   23.5350 C   0  0  0  0  0  0  0  0  0  0  0  0
    9.4840    5.5940   23.1130 C   0  0  0  0  0  0  0  0  0  0  0  0
    8.1870    5.5690   22.5890 C   0  0  0  0  0  0  0  0  0  0  0  0
    7.4930    4.3420   22.5000 C   0  0  0  0  0  0  0  0  0  0  0  0
    8.0790    3.1340   22.9320 C   0  0  0  0  0  0  0  0  0  0  0  0
  2  4  1  0
  1  7  1  0
  3  7  2  0
  4  7  1  0
  1  8  1  0
  5  9  1  0
  6  9  2  0
  8  9  1  6
 10 11  1  0
 13 14  1  0
 13 15  1  0
 13 16  1  0
 16 17  3  0
 18 19  2  0
 19 20  1  0
 20 21  2  0
  8 22  1  0
 21 22  1  0
 18 23  1  0
 22 23  2  0
 24 25  1  0
  1 26  1  0
 25 26  2  0
 26 27  1  0
 13 28  1  0
 24 28  1  0
 27 28  2  0
 10 29  1  0
 29 30  2  0
 30 31  1  0
 31 32  2  0
 12 33  1  0
 32 33  1  0
  5 34  1  0
 29 34  1  0
 33 34  2  0
M  END
