x2705-x2646
     RDKit          3D

 34 36  0  0  0  0  0  0  0  0999 V2000
    7.0460   -1.5940   21.7910 N   0  0  0  0  0  0  0  0  0  0  0  0
    6.9820   -5.0510   20.7760 C   0  0  0  0  0  0  0  0  0  0  0  0
    4.8820   -3.0650   21.2260 O   0  0  0  0  0  0  0  0  0  0  0  0
    6.9380   -4.0490   21.8770 C   0  0  0  0  0  0  0  0  0  0  0  0
    7.3400    1.9100   22.7410 N   0  0  0  0  0  0  0  0  0  0  0  0
    8.8260    0.7300   21.4130 O   0  0  0  0  0  0  0  0  0  0  0  0
    6.1710   -2.8230   21.6000 C   0  0  0  0  0  0  0  0  0  0  0  0
    6.5730   -0.1680   21.6300 C   0  0  1  0  0  0  0  0  0  0  0  0
    7.7020    0.8330   21.9030 C   0  0  0  0  0  0  0  0  0  0  0  0
   10.1250    1.9600   23.9340 C   0  0  0  0  0  0  0  0  0  0  0  0
    9.2170    1.2340   24.9220 C   0  0  0  0  0  0  0  0  0  0  0  0
    6.1230    4.3880   21.8510 C   0  0  0  0  0  0  0  0  0  0  0  0
   12.0580   -1.5420   23.3030 C   0  0  0  0  0  0  0  0  0  0  0  0
   12.5370   -0.3030   23.7420 C   0  0  0  0  0  0  0  0  0  0  0  0
   12.5340   -2.5790   24.3450 C   0  0  0  0  0  0  0  0  0  0  0  0
   12.7140   -1.8710   21.9460 C   0  0  0  0  0  0  0  0  0  0  0  0
    4.2880    1.5140   21.1490 C   0  0  0  0  0  0  0  0  0  0  0  0
    6.3730    0.3350   17.8450 N   0  0  0  0  0  0  0  0  0  0  0  0
    5.3340    1.1030   17.7800 C   0  0  0  0  0  0  0  0  0  0  0  0
    4.5690    1.5330   18.9180 C   0  0  0  0  0  0  0  0  0  0  0  0
    4.9810    1.1040   20.1580 C   0  0  0  0  0  0  0  0  0  0  0  0
    6.0940    0.2820   20.2980 C   0  0  0  0  0  0  0  0  0  0  0  0
    6.8240   -0.1370   19.1650 C   0  0  0  0  0  0  0  0  0  0  0  0
    9.7370   -1.5510   24.2930 N   0  0  0  0  0  0  0  0  0  0  0  0
    8.4330   -1.5720   23.9180 N   0  0  0  0  0  0  0  0  0  0  0  0
    8.3250   -1.5980   22.4670 C   0  0  0  0  0  0  0  0  0  0  0  0
    9.6580   -1.5990   22.0590 C   0  0  0  0  0  0  0  0  0  0  0  0
   10.5050   -1.5670   23.1790 C   0  0  0  0  0  0  0  0  0  0  0  0
    9.3790    3.1820   23.4500 C   0  0  0  0  0  0  0  0  0  0  0  0
   10.0570    4.4050   23.5840 C   0  0  0  0  0  0  0  0  0  0  0  0
    9.4590    5.6000   23.1620 C   0  0  0  0  0  0  0  0  0  0  0  0
    8.1790    5.5600   22.6030 C   0  0  0  0  0  0  0  0  0  0  0  0
    7.4970    4.3390   22.4670 C   0  0  0  0  0  0  0  0  0  0  0  0
    8.0880    3.1360   22.8920 C   0  0  0  0  0  0  0  0  0  0  0  0
  2  4  1  0
  1  7  1  0
  3  7  2  0
  4  7  1  0
  1  8  1  0
  5  9  1  0
  6  9  2  0
  8  9  1  6
 10 11  1  0
 13 14  1  0
 13 15  1  0
 13 16  1  0
 18 19  2  0
 19 20  1  0
 17 21  1  0
 20 21  2  0
  8 22  1  0
 21 22  1  0
 18 23  1  0
 22 23  2  0
 24 25  1  0
  1 26  1  0
 25 26  2  0
 26 27  1  0
 13 28  1  0
 24 28  1  0
 27 28  2  0
 10 29  1  0
 29 30  2  0
 30 31  1  0
 31 32  2  0
 12 33  1  0
 32 33  1  0
  5 34  1  0
 29 34  1  0
 33 34  2  0
M  END
