x2705-x1119-x1311-x2572
     RDKit          3D

 74 80  0  0  0  0  0  0  0  0999 V2000
    6.7730   -1.1740   22.2180 N   0  0  0  0  0  0  0  0  0  0  0  0
    6.9830   -4.1950   20.3350 C   0  0  2  0  0  0  0  0  0  0  0  0
    4.7620   -3.0020   21.4620 O   0  0  0  0  0  0  0  0  0  0  0  0
    6.9480   -2.7370   20.4640 C   0  0  0  0  0  0  0  0  0  0  0  0
    7.5580    2.0300   22.9170 N   0  0  0  0  0  0  0  0  0  0  0  0
    8.5160    1.1650   20.9980 O   0  0  0  0  0  0  0  0  0  0  0  0
    6.0250   -2.3180   21.4610 C   0  0  0  0  0  0  0  0  0  0  0  0
    6.5320    0.2570   21.7550 C   0  0  1  0  0  0  0  0  0  0  0  0
    7.6100    1.1400   21.8470 C   0  0  0  0  0  0  0  0  0  0  0  0
   10.0620    2.0330   24.0350 C   0  0  0  0  0  0  0  0  0  0  0  0
    9.2300    1.2110   25.0530 C   0  0  0  0  0  0  0  0  0  0  0  0
    6.0650    4.4640   21.8230 C   0  0  0  0  0  0  0  0  0  0  0  0
   12.1640   -0.5740   22.9380 C   0  0  2  0  0  0  0  0  0  0  0  0
   12.9850    0.8230   23.2750 C   0  0  0  0  0  0  0  0  0  0  0  0
   12.6070   -1.4800   24.1240 C   0  0  0  0  0  0  0  0  0  0  0  0
   12.7870   -1.2930   21.8330 C   0  0  0  0  0  0  0  0  0  0  0  0
    5.7830   -4.4820   19.6330 O   0  0  0  0  0  0  0  0  0  0  0  0
    6.8500   -4.9180   21.6970 N   0  0  0  0  0  0  0  0  0  0  0  0
    4.4200   -7.4720   25.1820 O   0  0  0  0  0  0  0  0  0  0  0  0
    2.9090   -5.3450   24.8070 O   0  0  0  0  0  0  0  0  0  0  0  0
    3.8610    1.4940   21.2890 C   0  0  0  0  0  0  0  0  0  0  0  0
   13.2860   -1.8950   21.0050 N   0  0  0  0  0  0  0  0  0  0  0  0
   21.3720    7.9620   22.2770 N   0  0  0  0  0  0  0  0  0  0  0  0
   21.3770    2.6130   26.0240 N   0  0  0  0  0  0  0  0  0  0  0  0
   23.4370    3.5580   27.1060 N   0  0  0  0  0  0  0  0  0  0  0  0
   23.7900    2.3880   24.9060 O   0  0  0  0  0  0  0  0  0  0  0  0
   22.7730    3.1690   25.5980 S   0  0  1  0  0  0  0  0  0  0  0  0
   13.4290    2.2420   22.4810 C   0  0  0  0  0  0  0  0  0  0  0  0
   14.8850    2.5460   22.0220 C   0  0  0  0  0  0  0  0  0  0  0  0
   16.0690    3.6330   22.5380 C   0  0  0  0  0  0  0  0  0  0  0  0
   17.4770    3.3720   23.2830 C   0  0  0  0  0  0  0  0  0  0  0  0
   18.1460    3.7800   24.4520 C   0  0  0  0  0  0  0  0  0  0  0  0
   19.4460    3.1820   24.8370 C   0  0  0  0  0  0  0  0  0  0  0  0
   20.1650    3.2990   26.0410 C   0  0  0  0  0  0  0  0  0  0  0  0
    6.4060    0.3260   17.9920 N   0  0  0  0  0  0  0  0  0  0  0  0
    5.2150    0.9120   17.8280 C   0  0  0  0  0  0  0  0  0  0  0  0
    4.3760    1.2930   18.8600 C   0  0  0  0  0  0  0  0  0  0  0  0
    4.7640    1.0810   20.1690 C   0  0  0  0  0  0  0  0  0  0  0  0
    5.9940    0.4930   20.3690 C   0  0  0  0  0  0  0  0  0  0  0  0
    6.7710    0.1270   19.2830 C   0  0  0  0  0  0  0  0  0  0  0  0
    9.8830   -1.1020   24.1410 N   0  0  0  0  0  0  0  0  0  0  0  0
    8.5220   -1.2830   24.0210 N   0  0  0  0  0  0  0  0  0  0  0  0
    8.1940   -1.1140   22.7220 C   0  0  0  0  0  0  0  0  0  0  0  0
    9.4490   -0.8360   22.0550 C   0  0  0  0  0  0  0  0  0  0  0  0
   10.5670   -0.8100   22.9700 C   0  0  0  0  0  0  0  0  0  0  0  0
    9.4230    3.3110   23.5410 C   0  0  0  0  0  0  0  0  0  0  0  0
   10.1380    4.5330   23.6640 C   0  0  0  0  0  0  0  0  0  0  0  0
    9.6040    5.7420   23.2250 C   0  0  0  0  0  0  0  0  0  0  0  0
    8.1820    5.8000   22.5690 C   0  0  0  0  0  0  0  0  0  0  0  0
    7.4340    4.4550   22.4500 C   0  0  0  0  0  0  0  0  0  0  0  0
    8.1450    3.2200   22.9800 C   0  0  0  0  0  0  0  0  0  0  0  0
    8.2670   -6.1110   23.1710 C   0  0  0  0  0  0  0  0  0  0  0  0
    9.3630   -6.0790   24.1800 C   0  0  0  0  0  0  0  0  0  0  0  0
    9.9200   -4.9030   24.5200 C   0  0  0  0  0  0  0  0  0  0  0  0
    9.4620   -3.7310   23.9400 C   0  0  0  0  0  0  0  0  0  0  0  0
    8.4370   -3.7300   23.0010 C   0  0  0  0  0  0  0  0  0  0  0  0
    7.8450   -4.9310   22.6130 C   0  0  0  0  0  0  0  0  0  0  0  0
    4.8150   -6.0910   21.8990 C   0  0  0  0  0  0  0  0  0  0  0  0
    5.5590   -5.1040   22.4300 C   0  0  1  0  0  0  0  0  0  0  0  0
    5.5700   -5.2400   23.9740 C   0  0  0  0  0  0  0  0  0  0  0  0
    4.1190   -6.2150   24.2450 S   0  0  0  0  0  0  0  0  0  0  0  0
    3.9330   -6.7410   22.6990 C   0  0  0  0  0  0  0  0  0  0  0  0
   21.7300    6.8060   23.0780 C   0  0  0  0  0  0  0  0  0  0  0  0
   22.7700    5.9340   22.6290 C   0  0  0  0  0  0  0  0  0  0  0  0
   23.0980    4.8180   23.4170 C   0  0  0  0  0  0  0  0  0  0  0  0
   22.4170    4.5700   24.6060 C   0  0  0  0  0  0  0  0  0  0  0  0
   21.4230    5.4210   25.0360 C   0  0  0  0  0  0  0  0  0  0  0  0
   21.0790    6.5300   24.2820 C   0  0  0  0  0  0  0  0  0  0  0  0
   24.8080    4.7630   28.5680 N   0  0  0  0  0  0  0  0  0  0  0  0
   25.8340    5.6100   28.8070 C   0  0  0  0  0  0  0  0  0  0  0  0
   26.6130    6.1730   27.8140 C   0  0  0  0  0  0  0  0  0  0  0  0
   26.3210    5.8430   26.4980 C   0  0  0  0  0  0  0  0  0  0  0  0
   25.2640    4.9670   26.2260 C   0  0  0  0  0  0  0  0  0  0  0  0
   24.5190    4.4400   27.2860 C   0  0  0  0  0  0  0  0  0  0  0  0
  2  4  1  0
  1  7  1  0
  3  7  2  0
  4  7  1  0
  1  8  1  0
  5  9  1  0
  6  9  2  0
  8  9  1  6
 10 11  1  0
 13 14  1  0
 13 15  1  1
 13 16  1  0
  2 17  1  6
  2 18  1  0
 16 22  3  0
 24 27  2  0
 27 25  1  1
 26 27  2  0
 14 28  1  0
 28 29  1  0
 29 30  1  0
 30 31  1  0
 31 32  1  0
 32 33  1  0
 24 34  1  0
 33 34  1  0
 35 36  2  0
 36 37  1  0
 21 38  1  0
 37 38  2  0
  8 39  1  0
 38 39  1  0
 35 40  1  0
 39 40  2  0
 41 42  1  0
  1 43  1  0
 42 43  2  0
 43 44  1  0
 13 45  1  0
 41 45  1  0
 44 45  2  0
 10 46  1  0
 46 47  2  0
 47 48  1  0
 48 49  2  0
 12 50  1  0
 49 50  1  0
  5 51  1  0
 46 51  1  0
 50 51  2  0
 52 53  2  0
 53 54  1  0
 54 55  2  0
 55 56  1  0
 18 57  1  0
 52 57  1  0
 56 57  2  0
 59 18  1  6
 58 59  1  0
 59 60  1  0
 61 19  1  0
 20 61  1  0
 60 61  1  0
 58 62  2  0
 61 62  1  0
 23 63  1  0
 63 64  2  0
 64 65  1  0
 27 66  1  0
 65 66  2  0
 66 67  1  0
 63 68  1  0
 67 68  2  0
 69 70  2  0
 70 71  1  0
 71 72  2  0
 72 73  1  0
 25 74  1  0
 69 74  1  0
 73 74  2  0
M  END
