x2703-x0731-x0771-x2705-x3117
     RDKit          3D

 52 58  0  0  0  0  0  0  0  0999 V2000
    6.8290   -1.3410   21.9300 N   0  0  0  0  0  0  0  0  0  0  0  0
    6.7460   -4.5120   20.2730 C   0  0  2  0  0  0  0  0  0  0  0  0
    4.7280   -2.9250   21.3310 O   0  0  0  0  0  0  0  0  0  0  0  0
    6.8530   -3.6670   21.4530 C   0  0  2  0  0  0  0  0  0  0  0  0
    7.5560    2.1030   22.8730 N   0  0  0  0  0  0  0  0  0  0  0  0
    8.6380    1.3370   21.1050 O   0  0  0  0  0  0  0  0  0  0  0  0
    6.0070   -2.5640   21.5770 C   0  0  0  0  0  0  0  0  0  0  0  0
    6.5330    0.1060   21.5810 C   0  0  1  0  0  0  0  0  0  0  0  0
    7.6460    1.1980   21.8450 C   0  0  0  0  0  0  0  0  0  0  0  0
   10.2290    2.0730   23.9470 C   0  0  0  0  0  0  0  0  0  0  0  0
    9.3820    1.1940   24.8650 C   0  0  0  0  0  0  0  0  0  0  0  0
    6.2280    4.5840   21.9400 C   0  0  0  0  0  0  0  0  0  0  0  0
   11.9360   -1.5540   23.2120 C   0  0  0  0  0  0  0  0  0  0  0  0
   12.4780   -0.2150   23.7890 C   0  0  0  0  0  0  0  0  0  0  0  0
   12.4140   -2.7340   24.0970 C   0  0  0  0  0  0  0  0  0  0  0  0
   12.5880   -1.7600   21.8240 C   0  0  0  0  0  0  0  0  0  0  0  0
   13.3850   -2.4510   25.2150 C   0  0  0  0  0  0  0  0  0  0  0  0
    5.5020   -4.5600   19.6000 O   0  0  0  0  0  0  0  0  0  0  0  0
    0.5760   -1.4280   26.3410 C   0  0  0  0  0  0  0  0  0  0  0  0
    4.4230   -6.8970   25.5460 O   0  0  0  0  0  0  0  0  0  0  0  0
    5.9650   -5.2390   26.6360 O   0  0  0  0  0  0  0  0  0  0  0  0
    1.9040   -6.0600   24.9450 C   0  0  0  0  0  0  0  0  0  0  0  0
    4.9720   -5.5580   25.6370 S   0  0  0  0  0  0  0  0  0  0  0  0
    6.2820    0.3330   17.8320 N   0  0  0  0  0  0  0  0  0  0  0  0
    5.1570    1.0670   17.7740 C   0  0  0  0  0  0  0  0  0  0  0  0
    4.4340    1.4880   18.8470 C   0  0  0  0  0  0  0  0  0  0  0  0
    4.8970    1.1480   20.0840 C   0  0  0  0  0  0  0  0  0  0  0  0
    6.0650    0.4000   20.2030 C   0  0  0  0  0  0  0  0  0  0  0  0
    6.7210    0.0080   19.0520 C   0  0  0  0  0  0  0  0  0  0  0  0
    9.6730   -1.6420   24.2790 N   0  0  0  0  0  0  0  0  0  0  0  0
    8.3850   -1.5880   23.9040 N   0  0  0  0  0  0  0  0  0  0  0  0
    8.1590   -1.4500   22.5530 C   0  0  0  0  0  0  0  0  0  0  0  0
    9.4730   -1.4210   22.0460 C   0  0  0  0  0  0  0  0  0  0  0  0
   10.3820   -1.5380   23.1550 C   0  0  0  0  0  0  0  0  0  0  0  0
    9.5520    3.3530   23.4910 C   0  0  0  0  0  0  0  0  0  0  0  0
   10.2210    4.5900   23.5850 C   0  0  0  0  0  0  0  0  0  0  0  0
    9.6080    5.7720   23.1620 C   0  0  0  0  0  0  0  0  0  0  0  0
    8.3190    5.7360   22.6360 C   0  0  0  0  0  0  0  0  0  0  0  0
    7.6160    4.5190   22.5260 C   0  0  0  0  0  0  0  0  0  0  0  0
    8.2420    3.3330   22.9620 C   0  0  0  0  0  0  0  0  0  0  0  0
    1.6490   -2.4580   26.1530 C   0  0  0  0  0  0  0  0  0  0  0  0
    1.3300   -3.7320   25.6560 C   0  0  0  0  0  0  0  0  0  0  0  0
    2.3180   -4.7180   25.4800 C   0  0  0  0  0  0  0  0  0  0  0  0
    3.6430   -4.3940   25.8150 C   0  0  0  0  0  0  0  0  0  0  0  0
    3.9690   -3.1240   26.3050 C   0  0  0  0  0  0  0  0  0  0  0  0
    2.9740   -2.1610   26.4720 C   0  0  0  0  0  0  0  0  0  0  0  0
    6.8450   -5.1680   21.5840 C   0  0  1  0  0  0  0  0  0  0  0  0
    6.1070   -6.3530   21.9710 C   0  0  0  0  0  0  0  0  0  0  0  0
    4.9820   -5.8870   22.9150 C   0  0  0  0  0  0  0  0  0  0  0  0
    5.5360   -5.1110   24.0810 N   0  0  0  0  0  0  0  0  0  0  0  0
    7.0110   -4.8470   24.0390 C   0  0  0  0  0  0  0  0  0  0  0  0
    7.4310   -4.3950   22.6880 C   0  0  2  0  0  0  0  0  0  0  0  0
  2  4  1  0
  1  7  1  0
  3  7  2  0
  4  7  1  1
  1  8  1  0
  5  9  1  0
  6  9  2  0
  8  9  1  6
 10 11  1  0
 13 14  1  0
 13 15  1  0
 13 16  1  0
 15 17  1  0
  2 18  1  1
 20 23  2  0
 21 23  2  0
 24 25  2  0
 25 26  1  0
 26 27  2  0
  8 28  1  0
 27 28  1  0
 24 29  1  0
 28 29  2  0
 30 31  1  0
  1 32  1  0
 31 32  1  0
 32 33  2  0
 13 34  1  0
 30 34  2  0
 33 34  1  0
 10 35  1  0
 35 36  2  0
 36 37  1  0
 37 38  2  0
 12 39  1  0
 38 39  1  0
  5 40  1  0
 35 40  1  0
 39 40  2  0
 19 41  1  0
 41 42  2  0
 22 43  1  0
 42 43  1  0
 23 44  1  0
 43 44  2  0
 44 45  1  0
 41 46  1  0
 45 46  2  0
  2 47  1  0
  4 47  1  0
 47 48  1  1
 48 49  1  0
 23 50  1  0
 49 50  1  0
 50 51  1  0
  4 52  1  0
 47 52  1  0
 52 51  1  1
M  END
