x2705-x0691-x2649-x0786
     RDKit          3D

 58 64  0  0  0  0  0  0  0  0999 V2000
    6.8840   -1.4510   21.9800 N   0  0  0  0  0  0  0  0  0  0  0  0
    6.7290   -4.5250   20.3260 C   0  0  2  0  0  0  0  0  0  0  0  0
    4.7990   -3.0200   21.3560 O   0  0  0  0  0  0  0  0  0  0  0  0
    6.9660   -3.8250   21.5820 C   0  0  1  0  0  0  0  0  0  0  0  0
    7.4040    2.0600   22.7670 N   0  0  0  0  0  0  0  0  0  0  0  0
    8.9270    0.7750   21.5860 O   0  0  0  0  0  0  0  0  0  0  0  0
    6.0800   -2.6970   21.6400 C   0  0  0  0  0  0  0  0  0  0  0  0
    6.5990   -0.0110   21.6180 C   0  0  1  0  0  0  0  0  0  0  0  0
    7.7800    0.9560   21.9870 C   0  0  0  0  0  0  0  0  0  0  0  0
   10.1680    2.0580   23.9820 C   0  0  0  0  0  0  0  0  0  0  0  0
    9.3420    1.2000   24.9360 C   0  0  0  0  0  0  0  0  0  0  0  0
    6.1790    4.4720   21.8810 C   0  0  0  0  0  0  0  0  0  0  0  0
   12.0730   -1.5580   23.2410 C   0  0  0  0  0  0  0  0  0  0  0  0
   12.5850   -0.1570   23.6460 C   0  0  0  0  0  0  0  0  0  0  0  0
   12.6090   -2.5580   24.2850 C   0  0  0  0  0  0  0  0  0  0  0  0
   12.6800   -1.8880   21.9280 C   0  0  0  0  0  0  0  0  0  0  0  0
    5.4920   -4.4030   19.6470 O   0  0  0  0  0  0  0  0  0  0  0  0
    3.5070   -6.5150   25.0560 C   0  0  0  0  0  0  0  0  0  0  0  0
    5.4420   -6.0980   26.8530 O   0  0  0  0  0  0  0  0  0  0  0  0
    3.6370   -0.4480   25.9370 F   0  0  0  0  0  0  0  0  0  0  0  0
    4.7900   -5.5760   25.6760 S   0  0  2  0  0  0  0  0  0  0  0  0
    4.0870    1.7940   21.1010 C   0  0  0  0  0  0  0  0  0  0  0  0
    2.4610   -6.6240   23.9900 C   0  0  0  0  0  0  0  0  0  0  0  0
    6.3220    0.3680   17.8230 N   0  0  0  0  0  0  0  0  0  0  0  0
    5.2420    1.1580   17.7610 C   0  0  0  0  0  0  0  0  0  0  0  0
    4.5370    1.5950   18.8660 C   0  0  0  0  0  0  0  0  0  0  0  0
    5.0330    1.1640   20.0690 C   0  0  0  0  0  0  0  0  0  0  0  0
    6.1510    0.3500   20.2380 C   0  0  0  0  0  0  0  0  0  0  0  0
    6.7540   -0.0220   19.0420 C   0  0  0  0  0  0  0  0  0  0  0  0
    9.7190   -1.5590   24.2810 N   0  0  0  0  0  0  0  0  0  0  0  0
    8.3780   -1.5370   24.0070 N   0  0  0  0  0  0  0  0  0  0  0  0
    8.1990   -1.5070   22.6680 C   0  0  0  0  0  0  0  0  0  0  0  0
    9.5360   -1.5200   22.1820 C   0  0  0  0  0  0  0  0  0  0  0  0
   10.5350   -1.5470   23.1800 C   0  0  0  0  0  0  0  0  0  0  0  0
    9.4400    3.2910   23.4950 C   0  0  0  0  0  0  0  0  0  0  0  0
   10.0960    4.5040   23.6220 C   0  0  0  0  0  0  0  0  0  0  0  0
    9.4970    5.7050   23.1920 C   0  0  0  0  0  0  0  0  0  0  0  0
    8.1960    5.7110   22.6110 C   0  0  0  0  0  0  0  0  0  0  0  0
    7.5570    4.4550   22.4980 C   0  0  0  0  0  0  0  0  0  0  0  0
    8.1520    3.2680   22.9280 C   0  0  0  0  0  0  0  0  0  0  0  0
    3.2480   -1.7250   25.8660 C   0  0  0  0  0  0  0  0  0  0  0  0
    4.2160   -2.7550   25.8120 C   0  0  0  0  0  0  0  0  0  0  0  0
    3.8130   -4.0880   25.7420 C   0  0  0  0  0  0  0  0  0  0  0  0
    2.4450   -4.4160   25.7220 C   0  0  0  0  0  0  0  0  0  0  0  0
    1.3290   -3.3950   25.7720 C   0  0  0  0  0  0  0  0  0  0  0  0
    1.8740   -1.9860   25.8510 C   0  0  0  0  0  0  0  0  0  0  0  0
    6.6620   -5.2980   21.5870 C   0  0  0  0  0  0  0  0  0  0  0  0
    5.8190   -6.3230   21.9730 C   0  0  0  0  0  0  0  0  0  0  0  0
    4.9190   -6.0230   23.1440 C   0  0  0  0  0  0  0  0  0  0  0  0
    5.6670   -5.3320   24.2430 N   0  0  0  0  0  0  0  0  0  0  0  0
    6.4980   -4.1630   23.8370 C   0  0  0  0  0  0  0  0  0  0  0  0
    7.4440   -4.6560   22.7060 C   0  0  0  0  0  0  0  0  0  0  0  0
    0.5770   -6.8020   22.7710 C   0  0  0  0  0  0  0  0  0  0  0  0
    0.0380   -5.6070   23.3870 C   0  0  0  0  0  0  0  0  0  0  0  0
   -1.0970   -6.0950   24.7110 S   0  0  0  0  0  0  0  0  0  0  0  0
    0.0350   -7.2510   25.5780 C   0  0  0  0  0  0  0  0  0  0  0  0
    0.7000   -8.1490   24.7600 C   0  0  0  0  0  0  0  0  0  0  0  0
    1.4790   -7.4820   23.7060 N   0  0  0  0  0  0  0  0  0  0  0  0
  2  4  1  0
  1  7  1  0
  3  7  2  0
  4  7  1  1
  1  8  1  0
  5  9  1  0
  6  9  2  0
  8  9  1  6
 10 11  1  0
 13 14  1  0
 13 15  1  0
 13 16  1  0
  2 17  1  1
 18 21  2  0
 19 21  2  0
 18 23  2  0
 24 25  2  0
 25 26  1  0
 22 27  1  0
 26 27  2  0
  8 28  1  0
 27 28  1  0
 24 29  1  0
 28 29  2  0
 30 31  1  0
  1 32  1  0
 31 32  1  0
 32 33  2  0
 13 34  1  0
 30 34  2  0
 33 34  1  0
 10 35  1  0
 35 36  2  0
 36 37  1  0
 37 38  2  0
 12 39  1  0
 38 39  1  0
  5 40  1  0
 35 40  1  0
 39 40  2  0
 20 41  1  0
 41 42  2  0
 21 43  1  1
 42 43  1  0
 43 44  2  0
 44 45  1  0
 41 46  1  0
 45 46  2  0
  2 47  1  0
  4 47  1  0
 47 48  1  0
 48 49  1  0
 21 50  1  0
 49 50  1  0
 50 51  1  0
 47 52  1  0
 51 52  1  0
 53 54  1  0
 54 55  1  0
 55 56  1  0
 56 57  1  0
 23 58  1  0
 53 58  1  0
 57 58  1  0
M  END
