x2705-x3110-x1311-x0771-x2764
     RDKit          3D

 62 69  0  0  0  0  0  0  0  0999 V2000
    8.0010    2.1920   22.2080 C   0  0  2  0  0  0  0  0  0  0  0  0
   13.1770    5.3210   22.9330 C   0  0  0  0  0  0  0  0  0  0  0  0
   12.4740    2.9930   23.2960 O   0  0  0  0  0  0  0  0  0  0  0  0
   13.0620    3.9240   22.3740 C   0  0  0  0  0  0  0  0  0  0  0  0
    6.9250   -1.6680   21.7890 N   0  0  0  0  0  0  0  0  0  0  0  0
   10.7300    3.9640   22.3370 N   0  0  0  0  0  0  0  0  0  0  0  0
   11.1550    3.0460   23.1920 C   0  0  0  0  0  0  0  0  0  0  0  0
    9.1870    0.2850   21.9150 O   0  0  0  0  0  0  0  0  0  0  0  0
   10.0790    2.1800   23.9640 C   0  0  0  0  0  0  0  0  0  0  0  0
    4.7790   -2.9780   21.2870 O   0  0  0  0  0  0  0  0  0  0  0  0
    8.0520    0.7170   21.9140 C   0  0  0  0  0  0  0  0  0  0  0  0
    6.7780   -0.1390   21.5890 C   0  0  1  0  0  0  0  0  0  0  0  0
    6.0790   -2.8260   21.3340 C   0  0  0  0  0  0  0  0  0  0  0  0
    6.7100   -4.1630   20.8130 C   0  0  2  0  0  0  0  0  0  0  0  0
    8.2310   -3.8570   20.5060 C   0  0  0  0  0  0  0  0  0  0  0  0
   12.2430   -1.9160   24.2840 C   0  0  0  0  0  0  0  0  0  0  0  0
   12.4440   -0.6460   25.1100 C   0  0  0  0  0  0  0  0  0  0  0  0
   13.3550   -1.8960   23.2340 C   0  0  0  0  0  0  0  0  0  0  0  0
   12.5900   -3.0910   25.2120 C   0  0  0  0  0  0  0  0  0  0  0  0
    6.2300    4.6560   22.1290 C   0  0  0  0  0  0  0  0  0  0  0  0
    8.9450    1.4570   24.5950 C   0  0  0  0  0  0  0  0  0  0  0  0
   12.9840   -1.4410   21.8430 C   0  0  0  0  0  0  0  0  0  0  0  0
    5.8460   -4.7090   19.8370 O   0  0  0  0  0  0  0  0  0  0  0  0
    0.6270   -1.2950   26.1270 C   0  0  0  0  0  0  0  0  0  0  0  0
    4.2750   -7.0070   25.9470 O   0  0  0  0  0  0  0  0  0  0  0  0
    5.7960   -5.3080   27.0170 O   0  0  0  0  0  0  0  0  0  0  0  0
    1.8680   -6.1120   25.0290 C   0  0  0  0  0  0  0  0  0  0  0  0
    4.8790   -5.6930   25.9700 S   0  0  0  0  0  0  0  0  0  0  0  0
    6.3630    0.4110   17.8390 N   0  0  0  0  0  0  0  0  0  0  0  0
    5.2780    1.2010   17.8570 C   0  0  0  0  0  0  0  0  0  0  0  0
    4.5730    1.6220   19.0090 C   0  0  0  0  0  0  0  0  0  0  0  0
    5.1100    1.1450   20.1890 C   0  0  0  0  0  0  0  0  0  0  0  0
    6.2420    0.3220   20.2340 C   0  0  0  0  0  0  0  0  0  0  0  0
    6.8280   -0.0180   19.0180 C   0  0  0  0  0  0  0  0  0  0  0  0
    9.3830   -1.5540   21.7630 C   0  0  0  0  0  0  0  0  0  0  0  0
   10.6470   -1.6060   22.3290 C   0  0  0  0  0  0  0  0  0  0  0  0
   10.8210   -1.9130   23.6820 C   0  0  0  0  0  0  0  0  0  0  0  0
    9.6560   -2.1840   24.4230 C   0  0  0  0  0  0  0  0  0  0  0  0
    8.3690   -2.1330   23.8390 C   0  0  0  0  0  0  0  0  0  0  0  0
    8.2180   -1.8030   22.4800 C   0  0  0  0  0  0  0  0  0  0  0  0
    9.0240    2.9290   23.0860 C   0  0  1  0  0  0  0  0  0  0  0  0
    9.4040    4.2150   22.7480 C   0  0  1  0  0  0  0  0  0  0  0  0
    9.2250    5.2650   23.6220 C   0  0  0  0  0  0  0  0  0  0  0  0
    7.8880    5.5330   23.8420 C   0  0  0  0  0  0  0  0  0  0  0  0
    6.9540    4.3510   23.4360 C   0  0  2  0  0  0  0  0  0  0  0  0
    7.5530    2.9810   23.4300 C   0  0  1  0  0  0  0  0  0  0  0  0
    1.6450   -2.3930   26.0660 C   0  0  0  0  0  0  0  0  0  0  0  0
    1.2850   -3.6610   25.5950 C   0  0  0  0  0  0  0  0  0  0  0  0
    2.2900   -4.7610   25.5400 C   0  0  0  0  0  0  0  0  0  0  0  0
    3.5890   -4.4610   25.9790 C   0  0  0  0  0  0  0  0  0  0  0  0
    3.9210   -3.1760   26.4390 C   0  0  0  0  0  0  0  0  0  0  0  0
    2.9600   -2.1600   26.4810 C   0  0  0  0  0  0  0  0  0  0  0  0
    6.6290   -5.0780   21.9590 N   0  0  0  0  0  0  0  0  0  0  0  0
    5.7500   -6.2430   22.0450 C   0  0  0  0  0  0  0  0  0  0  0  0
    4.8690   -6.1480   23.2940 C   0  0  0  0  0  0  0  0  0  0  0  0
    5.5240   -5.3720   24.4090 N   0  0  0  0  0  0  0  0  0  0  0  0
    6.9610   -5.1960   24.3240 C   0  0  0  0  0  0  0  0  0  0  0  0
    7.4910   -5.0430   23.0540 C   0  0  0  0  0  0  0  0  0  0  0  0
    8.8510   -4.8670   22.9610 C   0  0  0  0  0  0  0  0  0  0  0  0
    9.6900   -4.8550   24.0620 C   0  0  0  0  0  0  0  0  0  0  0  0
    9.1780   -5.0190   25.3110 C   0  0  0  0  0  0  0  0  0  0  0  0
    7.8090   -5.1830   25.4490 C   0  0  0  0  0  0  0  0  0  0  0  0
  2  4  1  0
  3  4  1  0
  3  7  1  0
  6  7  1  0
  7  9  2  0
  1 11  1  1
  8 11  2  0
  5 12  1  0
 12 11  1  6
  5 13  1  0
 10 13  2  0
 13 14  1  0
 14 15  1  6
 16 17  1  0
 16 18  1  0
 16 19  1  0
  9 21  1  0
 18 22  1  0
 14 23  1  0
 25 28  2  0
 26 28  2  0
 29 30  2  0
 30 31  1  0
 31 32  2  0
 12 33  1  0
 32 33  1  0
 29 34  1  0
 33 34  2  0
 35 36  2  0
 16 37  1  0
 36 37  1  0
 37 38  2  0
 38 39  1  0
  5 40  1  0
 35 40  1  0
 39 40  2  0
  1 41  1  0
 41  9  1  1
  6 42  1  0
 41 42  1  0
 42 43  1  1
 43 44  1  0
 45 20  1  6
 44 45  1  0
  1 46  1  0
 41 46  1  0
 46 45  1  6
 24 47  1  0
 47 48  2  0
 27 49  1  0
 48 49  1  0
 28 50  1  0
 49 50  2  0
 50 51  1  0
 47 52  1  0
 51 52  2  0
 14 53  1  0
 53 54  1  0
 54 55  1  0
 28 56  1  0
 55 56  1  0
 56 57  1  0
 53 58  1  0
 57 58  2  0
 58 59  1  0
 59 60  2  0
 60 61  1  0
 57 62  1  0
 61 62  2  0
M  END
