x2703-x3124-x3117-x0731
     RDKit          3D

 51 57  0  0  0  0  0  0  0  0999 V2000
    6.9220   -1.7490   21.6910 N   0  0  0  0  0  0  0  0  0  0  0  0
    6.7440   -5.0010   20.4320 C   0  0  2  0  0  0  0  0  0  0  0  0
    4.7900   -2.9140   20.9740 O   0  0  0  0  0  0  0  0  0  0  0  0
    6.3820   -4.2640   21.7090 C   0  0  1  0  0  0  0  0  0  0  0  0
    7.3980    1.8510   22.7950 N   0  0  0  0  0  0  0  0  0  0  0  0
    8.7700    0.8290   21.3920 O   0  0  0  0  0  0  0  0  0  0  0  0
    5.9750   -2.8900   21.4270 C   0  0  0  0  0  0  0  0  0  0  0  0
    6.5600   -0.2720   21.5330 C   0  0  1  0  0  0  0  0  0  0  0  0
    7.6510    0.8170   21.9060 C   0  0  0  0  0  0  0  0  0  0  0  0
   10.0560    1.8720   24.0110 C   0  0  0  0  0  0  0  0  0  0  0  0
    9.2500    1.0970   25.0520 C   0  0  0  0  0  0  0  0  0  0  0  0
    6.1250    4.3410   21.7750 C   0  0  0  0  0  0  0  0  0  0  0  0
   12.1230   -1.9940   24.1320 C   0  0  0  0  0  0  0  0  0  0  0  0
   12.0770   -3.1700   25.1120 C   0  0  0  0  0  0  0  0  0  0  0  0
   12.4580   -0.6780   24.8850 C   0  0  0  0  0  0  0  0  0  0  0  0
   13.2190   -2.2390   23.0730 C   0  0  0  0  0  0  0  0  0  0  0  0
    5.6980   -5.6930   19.7720 O   0  0  0  0  0  0  0  0  0  0  0  0
    1.0090   -1.0310   26.1400 C   0  0  0  0  0  0  0  0  0  0  0  0
    6.4600   -4.8370   26.8260 O   0  0  0  0  0  0  0  0  0  0  0  0
    4.8440   -6.5260   25.8820 O   0  0  0  0  0  0  0  0  0  0  0  0
    5.4460   -5.2110   25.8670 S   0  0  0  0  0  0  0  0  0  0  0  0
    6.2980    0.5050   17.8720 N   0  0  0  0  0  0  0  0  0  0  0  0
    5.1530    1.1920   17.7820 C   0  0  0  0  0  0  0  0  0  0  0  0
    4.2570    1.4780   18.9540 C   0  0  0  0  0  0  0  0  0  0  0  0
    4.7580    0.9420   20.2700 C   0  0  0  0  0  0  0  0  0  0  0  0
    5.9560    0.2610   20.2700 C   0  0  0  0  0  0  0  0  0  0  0  0
    6.6700    0.0620   19.0900 C   0  0  0  0  0  0  0  0  0  0  0  0
   10.6130   -1.5440   22.2740 N   0  0  0  0  0  0  0  0  0  0  0  0
   10.7200   -1.9500   23.5200 C   0  0  0  0  0  0  0  0  0  0  0  0
    9.6250   -2.3300   24.2790 C   0  0  0  0  0  0  0  0  0  0  0  0
    8.3560   -2.2810   23.6960 C   0  0  0  0  0  0  0  0  0  0  0  0
    8.2150   -1.8500   22.3680 C   0  0  0  0  0  0  0  0  0  0  0  0
    9.4150   -1.4810   21.6920 C   0  0  0  0  0  0  0  0  0  0  0  0
    9.3790    3.1300   23.4900 C   0  0  0  0  0  0  0  0  0  0  0  0
   10.0410    4.3710   23.5890 C   0  0  0  0  0  0  0  0  0  0  0  0
    9.4480    5.5430   23.1190 C   0  0  0  0  0  0  0  0  0  0  0  0
    8.1830    5.4910   22.5390 C   0  0  0  0  0  0  0  0  0  0  0  0
    7.4860    4.2740   22.4210 C   0  0  0  0  0  0  0  0  0  0  0  0
    8.0880    3.0880   22.9010 C   0  0  0  0  0  0  0  0  0  0  0  0
    2.0770   -2.0730   26.0440 C   0  0  0  0  0  0  0  0  0  0  0  0
    1.8230   -3.3130   25.4330 C   0  0  0  0  0  0  0  0  0  0  0  0
    2.8550   -4.2540   25.3820 C   0  0  0  0  0  0  0  0  0  0  0  0
    4.1280   -4.0170   25.9130 C   0  0  0  0  0  0  0  0  0  0  0  0
    4.3720   -2.7770   26.5110 C   0  0  0  0  0  0  0  0  0  0  0  0
    3.3510   -1.8170   26.5740 C   0  0  0  0  0  0  0  0  0  0  0  0
    7.2210   -5.3250   21.7610 C   0  0  2  0  0  0  0  0  0  0  0  0
    7.7060   -4.5480   22.6970 C   0  0  2  0  0  0  0  0  0  0  0  0
    7.4920   -5.1770   24.0770 C   0  0  0  0  0  0  0  0  0  0  0  0
    6.0620   -4.9190   24.3150 N   0  0  0  0  0  0  0  0  0  0  0  0
    5.2220   -5.3220   23.1650 C   0  0  0  0  0  0  0  0  0  0  0  0
    6.0360   -6.0690   22.1740 C   0  0  0  0  0  0  0  0  0  0  0  0
  2  4  1  0
  1  7  1  0
  3  7  2  0
  4  7  1  6
  1  8  1  0
  5  9  1  0
  6  9  2  0
  8  9  1  6
 10 11  1  0
 13 14  1  0
 13 15  1  0
 13 16  1  0
  2 17  1  1
 19 21  2  0
 20 21  2  0
 22 23  2  0
 23 24  1  0
 24 25  2  0
  8 26  1  0
 25 26  1  0
 22 27  1  0
 26 27  2  0
 13 29  1  0
 28 29  2  0
 29 30  1  0
 30 31  2  0
  1 32  1  0
 31 32  1  0
 28 33  1  0
 32 33  2  0
 10 34  1  0
 34 35  2  0
 35 36  1  0
 36 37  2  0
 12 38  1  0
 37 38  1  0
  5 39  1  0
 34 39  1  0
 38 39  2  0
 18 40  1  0
 40 41  2  0
 41 42  1  0
 21 43  1  0
 42 43  2  0
 43 44  1  0
 40 45  1  0
 44 45  2  0
  2 46  1  0
  4 46  1  0
  4 47  1  0
 46 47  1  0
 47 48  1  1
 21 49  1  0
 48 49  1  0
 49 50  1  0
 46 51  1  1
 50 51  1  0
M  END
