x2705-x0691-x2649-x1493
     RDKit          3D

 52 57  0  0  0  0  0  0  0  0999 V2000
    6.9640   -1.4760   21.7630 N   0  0  0  0  0  0  0  0  0  0  0  0
    6.5640   -4.6390   20.3430 C   0  0  2  0  0  0  0  0  0  0  0  0
    4.7640   -2.8870   21.1360 O   0  0  0  0  0  0  0  0  0  0  0  0
    6.6340   -3.9590   21.6900 C   0  0  1  0  0  0  0  0  0  0  0  0
    7.5700    2.0010   22.8310 N   0  0  0  0  0  0  0  0  0  0  0  0
    8.7190    1.2580   21.0930 O   0  0  0  0  0  0  0  0  0  0  0  0
    6.0370   -2.6750   21.5120 C   0  0  0  0  0  0  0  0  0  0  0  0
    6.6120   -0.0190   21.5130 C   0  0  1  0  0  0  0  0  0  0  0  0
    7.7150    1.0940   21.8030 C   0  0  0  0  0  0  0  0  0  0  0  0
   10.1110    2.0260   23.9880 C   0  0  0  0  0  0  0  0  0  0  0  0
    9.3210    1.1550   24.9660 C   0  0  0  0  0  0  0  0  0  0  0  0
    6.1920    4.5190   21.8580 C   0  0  0  0  0  0  0  0  0  0  0  0
   12.0240   -1.5240   23.2270 C   0  0  0  0  0  0  0  0  0  0  0  0
   12.5020   -0.1250   23.6890 C   0  0  0  0  0  0  0  0  0  0  0  0
   12.5370   -2.5400   24.2910 C   0  0  0  0  0  0  0  0  0  0  0  0
   12.7310   -1.8170   21.8850 C   0  0  0  0  0  0  0  0  0  0  0  0
    5.3500   -4.5000   19.6150 O   0  0  0  0  0  0  0  0  0  0  0  0
    3.9170   -6.6650   26.2450 O   0  0  0  0  0  0  0  0  0  0  0  0
    6.0320   -5.5550   26.9770 C   0  0  0  0  0  0  0  0  0  0  0  0
    3.3700   -0.7310   26.0100 F   0  0  0  0  0  0  0  0  0  0  0  0
    4.8340   -5.6940   25.6980 S   0  0  2  0  0  0  0  0  0  0  0  0
    4.1950    1.6040   21.2670 C   0  0  0  0  0  0  0  0  0  0  0  0
    6.9350   -5.4880   27.7090 O   0  0  0  0  0  0  0  0  0  0  0  0
    6.3300    0.3490   17.7530 N   0  0  0  0  0  0  0  0  0  0  0  0
    5.2290    1.1100   17.7450 C   0  0  0  0  0  0  0  0  0  0  0  0
    4.5290    1.5160   18.8320 C   0  0  0  0  0  0  0  0  0  0  0  0
    4.9710    1.1360   20.0690 C   0  0  0  0  0  0  0  0  0  0  0  0
    6.1200    0.3490   20.1530 C   0  0  0  0  0  0  0  0  0  0  0  0
    6.7570   -0.0230   18.9770 C   0  0  0  0  0  0  0  0  0  0  0  0
    9.6460   -1.5660   24.1660 N   0  0  0  0  0  0  0  0  0  0  0  0
    8.3360   -1.5620   23.8400 N   0  0  0  0  0  0  0  0  0  0  0  0
    8.2330   -1.5180   22.5070 C   0  0  0  0  0  0  0  0  0  0  0  0
    9.5930   -1.4980   22.0100 C   0  0  0  0  0  0  0  0  0  0  0  0
   10.4820   -1.5290   23.0940 C   0  0  0  0  0  0  0  0  0  0  0  0
    9.4650    3.3240   23.5330 C   0  0  0  0  0  0  0  0  0  0  0  0
   10.1050    4.5700   23.6730 C   0  0  0  0  0  0  0  0  0  0  0  0
    9.4870    5.7460   23.2370 C   0  0  0  0  0  0  0  0  0  0  0  0
    8.2230    5.6930   22.6560 C   0  0  0  0  0  0  0  0  0  0  0  0
    7.5520    4.4680   22.5010 C   0  0  0  0  0  0  0  0  0  0  0  0
    8.1770    3.2740   22.9470 C   0  0  0  0  0  0  0  0  0  0  0  0
    3.0220   -2.0210   25.8760 C   0  0  0  0  0  0  0  0  0  0  0  0
    3.9580   -3.0510   25.8530 C   0  0  0  0  0  0  0  0  0  0  0  0
    3.6060   -4.3840   25.7170 C   0  0  0  0  0  0  0  0  0  0  0  0
    2.2440   -4.6930   25.5970 C   0  0  0  0  0  0  0  0  0  0  0  0
    1.2860   -3.6690   25.6180 C   0  0  0  0  0  0  0  0  0  0  0  0
    1.6660   -2.3310   25.7600 C   0  0  0  0  0  0  0  0  0  0  0  0
    6.4430   -5.4510   21.5790 C   0  0  0  0  0  0  0  0  0  0  0  0
    5.3220   -4.7910   22.1460 C   0  0  0  0  0  0  0  0  0  0  0  0
    4.5090   -5.6440   23.0350 C   0  0  0  0  0  0  0  0  0  0  0  0
    5.4080   -5.9810   24.1450 N   0  0  0  0  0  0  0  0  0  0  0  0
    6.8180   -5.5240   23.9190 C   0  0  0  0  0  0  0  0  0  0  0  0
    7.3210   -6.0640   22.5710 C   0  0  0  0  0  0  0  0  0  0  0  0
  2  4  1  0
  1  7  1  0
  3  7  2  0
  4  7  1  6
  1  8  1  0
  5  9  1  0
  6  9  2  0
  8  9  1  6
 10 11  1  0
 13 14  1  0
 13 15  1  0
 13 16  1  0
  2 17  1  6
 18 21  2  0
 19 21  2  0
 19 23  2  0
 24 25  2  0
 25 26  1  0
 22 27  1  0
 26 27  2  0
  8 28  1  0
 27 28  1  0
 24 29  1  0
 28 29  2  0
 30 31  1  0
  1 32  1  0
 31 32  1  0
 32 33  2  0
 13 34  1  0
 30 34  2  0
 33 34  1  0
 10 35  1  0
 35 36  2  0
 36 37  1  0
 37 38  2  0
 12 39  1  0
 38 39  1  0
  5 40  1  0
 35 40  1  0
 39 40  2  0
 20 41  1  0
 41 42  2  0
 21 43  1  6
 42 43  1  0
 43 44  2  0
 44 45  1  0
 41 46  1  0
 45 46  2  0
  2 47  1  0
  4 47  1  0
 47 48  1  0
 48 49  1  0
 21 50  1  0
 49 50  1  0
 50 51  1  0
 47 52  1  0
 51 52  1  0
M  END
