x2703-x2705-x0691-x2649
     RDKit          3D

 52 57  0  0  0  0  0  0  0  0999 V2000
    6.9700   -1.4470   21.8460 N   0  0  0  0  0  0  0  0  0  0  0  0
    6.6440   -4.5780   20.3910 C   0  0  2  0  0  0  0  0  0  0  0  0
    4.7880   -2.9610   21.2590 O   0  0  0  0  0  0  0  0  0  0  0  0
    6.8590   -3.8290   21.6750 C   0  0  1  0  0  0  0  0  0  0  0  0
    7.4840    2.0810   22.8210 N   0  0  0  0  0  0  0  0  0  0  0  0
    8.6910    1.3070   21.1280 O   0  0  0  0  0  0  0  0  0  0  0  0
    6.0700   -2.6690   21.5760 C   0  0  0  0  0  0  0  0  0  0  0  0
    6.6120    0.0000   21.5560 C   0  0  1  0  0  0  0  0  0  0  0  0
    7.6720    1.1470   21.8250 C   0  0  0  0  0  0  0  0  0  0  0  0
   10.2200    2.0840   23.9830 C   0  0  0  0  0  0  0  0  0  0  0  0
    9.3540    1.2090   24.8890 C   0  0  0  0  0  0  0  0  0  0  0  0
    6.2200    4.5230   21.9150 C   0  0  0  0  0  0  0  0  0  0  0  0
   12.0800   -1.4340   22.9470 C   0  0  0  0  0  0  0  0  0  0  0  0
   12.5080    0.0170   23.2980 C   0  0  0  0  0  0  0  0  0  0  0  0
   12.8850   -2.3710   23.8820 C   0  0  0  0  0  0  0  0  0  0  0  0
   12.6710   -1.7940   21.5720 C   0  0  0  0  0  0  0  0  0  0  0  0
   12.1490   -3.0100   24.9980 C   0  0  0  0  0  0  0  0  0  0  0  0
    5.4290   -4.4220   19.6670 O   0  0  0  0  0  0  0  0  0  0  0  0
    4.3560   -6.7900   25.9750 O   0  0  0  0  0  0  0  0  0  0  0  0
    5.7420   -4.8680   26.8060 O   0  0  0  0  0  0  0  0  0  0  0  0
    3.4440   -0.7500   26.0480 F   0  0  0  0  0  0  0  0  0  0  0  0
    4.8350   -5.4270   25.8370 S   0  0  0  0  0  0  0  0  0  0  0  0
    4.1830    1.5900   21.4250 C   0  0  0  0  0  0  0  0  0  0  0  0
    6.3580    0.3530   17.7860 N   0  0  0  0  0  0  0  0  0  0  0  0
    5.2160    1.1300   17.7490 C   0  0  0  0  0  0  0  0  0  0  0  0
    4.4760    1.5430   18.9750 C   0  0  0  0  0  0  0  0  0  0  0  0
    4.9250    1.1640   20.1900 C   0  0  0  0  0  0  0  0  0  0  0  0
    6.0730    0.3970   20.2190 C   0  0  0  0  0  0  0  0  0  0  0  0
    6.7400    0.0170   19.0340 C   0  0  0  0  0  0  0  0  0  0  0  0
    9.8150   -1.8720   24.0810 N   0  0  0  0  0  0  0  0  0  0  0  0
    8.4810   -1.8820   23.7970 N   0  0  0  0  0  0  0  0  0  0  0  0
    8.3110   -1.5590   22.4730 C   0  0  0  0  0  0  0  0  0  0  0  0
    9.6140   -1.3500   21.9370 C   0  0  0  0  0  0  0  0  0  0  0  0
   10.5010   -1.5560   22.9850 C   0  0  0  0  0  0  0  0  0  0  0  0
    9.5100    3.3330   23.5080 C   0  0  0  0  0  0  0  0  0  0  0  0
   10.1920    4.5710   23.6290 C   0  0  0  0  0  0  0  0  0  0  0  0
    9.5480    5.7480   23.1880 C   0  0  0  0  0  0  0  0  0  0  0  0
    8.2680    5.7010   22.6390 C   0  0  0  0  0  0  0  0  0  0  0  0
    7.6020    4.4850   22.5220 C   0  0  0  0  0  0  0  0  0  0  0  0
    8.2170    3.2970   22.9580 C   0  0  0  0  0  0  0  0  0  0  0  0
    3.0110   -2.0110   25.9060 C   0  0  0  0  0  0  0  0  0  0  0  0
    3.8980   -3.1080   25.9110 C   0  0  0  0  0  0  0  0  0  0  0  0
    3.2960   -4.3380   25.7570 C   0  0  0  0  0  0  0  0  0  0  0  0
    1.9810   -4.7270   25.5930 C   0  0  0  0  0  0  0  0  0  0  0  0
    1.1230   -3.6120   25.5930 C   0  0  0  0  0  0  0  0  0  0  0  0
    1.6110   -2.2850   25.7470 C   0  0  0  0  0  0  0  0  0  0  0  0
    6.4210   -5.2850   21.7620 C   0  0  0  0  0  0  0  0  0  0  0  0
    5.1300   -5.6840   21.9390 C   0  0  0  0  0  0  0  0  0  0  0  0
    4.7480   -6.0980   23.2560 C   0  0  0  0  0  0  0  0  0  0  0  0
    5.4870   -5.3000   24.2500 N   0  0  0  0  0  0  0  0  0  0  0  0
    6.9780   -5.3540   24.0340 C   0  0  0  0  0  0  0  0  0  0  0  0
    7.2760   -5.9650   22.7910 C   0  0  0  0  0  0  0  0  0  0  0  0
  2  4  1  0
  1  7  1  0
  3  7  2  0
  4  7  1  6
  1  8  1  0
  5  9  1  0
  6  9  2  0
  8  9  1  6
 10 11  1  0
 13 14  1  0
 13 15  1  0
 13 16  1  0
 15 17  1  0
  2 18  1  6
 19 22  2  0
 20 22  2  0
 24 25  2  0
 25 26  1  0
 23 27  1  0
 26 27  2  0
  8 28  1  0
 27 28  1  0
 24 29  1  0
 28 29  2  0
 30 31  1  0
  1 32  1  0
 31 32  2  0
 32 33  1  0
 13 34  1  0
 30 34  1  0
 33 34  2  0
 10 35  1  0
 35 36  2  0
 36 37  1  0
 37 38  2  0
 12 39  1  0
 38 39  1  0
  5 40  1  0
 35 40  1  0
 39 40  2  0
 21 41  1  0
 41 42  2  0
 22 43  1  0
 42 43  1  0
 43 44  2  0
 44 45  1  0
 41 46  1  0
 45 46  2  0
  2 47  1  0
  4 47  1  0
 47 48  1  0
 48 49  1  0
 22 50  1  0
 49 50  1  0
 50 51  1  0
 47 52  1  0
 51 52  1  0
M  END
