x2705-x0691-x2572-x2643
     RDKit          3D

 52 57  0  0  0  0  0  0  0  0999 V2000
    6.9960   -1.3230   21.7260 N   0  0  0  0  0  0  0  0  0  0  0  0
    6.6910   -4.2230   20.2860 C   0  0  2  0  0  0  0  0  0  0  0  0
    4.9090   -3.1820   21.3450 O   0  0  0  0  0  0  0  0  0  0  0  0
    6.6990   -3.2600   21.3790 C   0  0  1  0  0  0  0  0  0  0  0  0
    7.5800    2.0440   22.8510 N   0  0  0  0  0  0  0  0  0  0  0  0
    8.8550    1.2330   21.1080 O   0  0  0  0  0  0  0  0  0  0  0  0
    5.7630   -2.1830   21.5460 C   0  0  0  0  0  0  0  0  0  0  0  0
    6.6740    0.1280   21.5580 C   0  0  1  0  0  0  0  0  0  0  0  0
    7.8370    1.1600   21.8030 C   0  0  0  0  0  0  0  0  0  0  0  0
   10.1870    2.0590   23.9620 C   0  0  0  0  0  0  0  0  0  0  0  0
    9.2610    1.2710   24.8870 C   0  0  0  0  0  0  0  0  0  0  0  0
    6.2140    4.4870   21.9130 C   0  0  0  0  0  0  0  0  0  0  0  0
   11.9760   -1.5510   23.3180 C   0  0  0  0  0  0  0  0  0  0  0  0
   12.5070   -0.2150   23.8830 C   0  0  0  0  0  0  0  0  0  0  0  0
   12.4590   -2.6310   24.3110 C   0  0  0  0  0  0  0  0  0  0  0  0
   12.6960   -1.7820   21.9790 C   0  0  0  0  0  0  0  0  0  0  0  0
    5.5030   -4.2910   19.5060 O   0  0  0  0  0  0  0  0  0  0  0  0
    4.0960   -6.8230   25.8320 O   0  0  0  0  0  0  0  0  0  0  0  0
    5.7550   -5.2020   26.7770 O   0  0  0  0  0  0  0  0  0  0  0  0
    3.2600   -0.6860   25.9940 F   0  0  0  0  0  0  0  0  0  0  0  0
    4.7710   -5.5460   25.7800 S   0  0  0  0  0  0  0  0  0  0  0  0
    4.2120    1.6280   21.3930 C   0  0  0  0  0  0  0  0  0  0  0  0
   13.3080   -1.9160   21.0010 N   0  0  0  0  0  0  0  0  0  0  0  0
    6.3430    0.3900   17.8230 N   0  0  0  0  0  0  0  0  0  0  0  0
    5.2200    1.1040   17.7650 C   0  0  0  0  0  0  0  0  0  0  0  0
    4.4590    1.5390   18.9510 C   0  0  0  0  0  0  0  0  0  0  0  0
    4.9530    1.1950   20.1580 C   0  0  0  0  0  0  0  0  0  0  0  0
    6.1230    0.4660   20.2080 C   0  0  0  0  0  0  0  0  0  0  0  0
    6.8110    0.0570   19.0570 C   0  0  0  0  0  0  0  0  0  0  0  0
    9.6750   -1.7480   24.2720 N   0  0  0  0  0  0  0  0  0  0  0  0
    8.3840   -1.6920   23.8300 N   0  0  0  0  0  0  0  0  0  0  0  0
    8.2550   -1.4720   22.4580 C   0  0  0  0  0  0  0  0  0  0  0  0
    9.6210   -1.3980   22.0470 C   0  0  0  0  0  0  0  0  0  0  0  0
   10.4300   -1.5650   23.1880 C   0  0  0  0  0  0  0  0  0  0  0  0
    9.5010    3.3280   23.5100 C   0  0  0  0  0  0  0  0  0  0  0  0
   10.2150    4.6380   23.6540 C   0  0  0  0  0  0  0  0  0  0  0  0
    9.5190    5.7830   23.2020 C   0  0  0  0  0  0  0  0  0  0  0  0
    8.2420    5.7060   22.6500 C   0  0  0  0  0  0  0  0  0  0  0  0
    7.5890    4.4810   22.5240 C   0  0  0  0  0  0  0  0  0  0  0  0
    8.2160    3.3010   22.9560 C   0  0  0  0  0  0  0  0  0  0  0  0
    2.9070   -1.9730   25.8770 C   0  0  0  0  0  0  0  0  0  0  0  0
    3.8840   -2.9500   25.8840 C   0  0  0  0  0  0  0  0  0  0  0  0
    3.5080   -4.2920   25.7640 C   0  0  0  0  0  0  0  0  0  0  0  0
    2.1520   -4.6510   25.6340 C   0  0  0  0  0  0  0  0  0  0  0  0
    1.1730   -3.6340   25.6300 C   0  0  0  0  0  0  0  0  0  0  0  0
    1.5490   -2.2950   25.7520 C   0  0  0  0  0  0  0  0  0  0  0  0
    6.4900   -4.7520   21.7180 C   0  0  0  0  0  0  0  0  0  0  0  0
    5.2560   -5.3870   21.8800 C   0  0  0  0  0  0  0  0  0  0  0  0
    4.9900   -6.1650   23.0930 C   0  0  0  0  0  0  0  0  0  0  0  0
    5.4980   -5.4020   24.2350 N   0  0  0  0  0  0  0  0  0  0  0  0
    6.9600   -5.1320   24.1050 C   0  0  0  0  0  0  0  0  0  0  0  0
    7.4840   -5.2490   22.7430 C   0  0  0  0  0  0  0  0  0  0  0  0
  2  4  1  0
  1  7  1  0
  3  7  2  0
  4  7  1  6
  1  8  1  0
  5  9  1  0
  6  9  2  0
  8  9  1  6
 10 11  1  0
 13 14  1  0
 13 15  1  0
 13 16  1  0
  2 17  1  6
 18 21  2  0
 19 21  2  0
 16 23  3  0
 24 25  2  0
 25 26  1  0
 22 27  1  0
 26 27  2  0
  8 28  1  0
 27 28  1  0
 24 29  1  0
 28 29  2  0
 30 31  1  0
  1 32  1  0
 31 32  2  0
 32 33  1  0
 13 34  1  0
 30 34  1  0
 33 34  2  0
 10 35  1  0
 35 36  2  0
 36 37  1  0
 37 38  2  0
 12 39  1  0
 38 39  1  0
  5 40  1  0
 35 40  1  0
 39 40  2  0
 20 41  1  0
 41 42  2  0
 21 43  1  0
 42 43  1  0
 43 44  2  0
 44 45  1  0
 41 46  1  0
 45 46  2  0
  2 47  1  0
  4 47  1  0
 47 48  1  0
 48 49  1  0
 21 50  1  0
 49 50  1  0
 50 51  1  0
 47 52  1  0
 51 52  1  0
M  END
