x2705-x0995
     RDKit          3D

 34 36  0  0  0  0  0  0  0  0999 V2000
    7.0500   -1.6120   21.7900 N   0  0  0  0  0  0  0  0  0  0  0  0
    6.9450   -4.9750   20.5640 C   0  0  0  0  0  0  0  0  0  0  0  0
    4.8670   -3.0540   21.2500 O   0  0  0  0  0  0  0  0  0  0  0  0
    6.9160   -4.0850   21.7560 C   0  0  0  0  0  0  0  0  0  0  0  0
    7.3230    1.9120   22.8120 N   0  0  0  0  0  0  0  0  0  0  0  0
    8.8950    0.6560   21.6560 O   0  0  0  0  0  0  0  0  0  0  0  0
    6.1650   -2.8350   21.5800 C   0  0  0  0  0  0  0  0  0  0  0  0
    6.6140   -0.1690   21.6960 C   0  0  1  0  0  0  0  0  0  0  0  0
    7.7370    0.8040   22.0490 C   0  0  0  0  0  0  0  0  0  0  0  0
   10.1500    1.9480   23.9290 C   0  0  0  0  0  0  0  0  0  0  0  0
    9.2730    1.1580   24.9000 C   0  0  0  0  0  0  0  0  0  0  0  0
    6.1160    4.4190   21.9210 C   0  0  0  0  0  0  0  0  0  0  0  0
   12.0440   -1.5380   23.2810 C   0  0  0  0  0  0  0  0  0  0  0  0
   12.4910   -0.2820   23.7020 C   0  0  0  0  0  0  0  0  0  0  0  0
   12.5880   -2.5420   24.3240 C   0  0  0  0  0  0  0  0  0  0  0  0
   12.7150   -1.8460   21.9290 C   0  0  0  0  0  0  0  0  0  0  0  0
    3.3760    2.1800   18.9010 N   0  0  0  0  0  0  0  0  0  0  0  0
    6.2920    0.3130   17.7930 N   0  0  0  0  0  0  0  0  0  0  0  0
    5.2220    1.0380   17.8140 C   0  0  0  0  0  0  0  0  0  0  0  0
    4.4430    1.4570   18.9650 C   0  0  0  0  0  0  0  0  0  0  0  0
    5.0130    0.9720   20.2010 C   0  0  0  0  0  0  0  0  0  0  0  0
    6.1670    0.1970   20.2680 C   0  0  0  0  0  0  0  0  0  0  0  0
    6.8030   -0.1410   19.0740 C   0  0  0  0  0  0  0  0  0  0  0  0
    9.7320   -1.6710   24.2570 N   0  0  0  0  0  0  0  0  0  0  0  0
    8.4030   -1.6970   23.8670 N   0  0  0  0  0  0  0  0  0  0  0  0
    8.3300   -1.6330   22.4980 C   0  0  0  0  0  0  0  0  0  0  0  0
    9.6560   -1.5740   22.0940 C   0  0  0  0  0  0  0  0  0  0  0  0
   10.4980   -1.5950   23.1790 C   0  0  0  0  0  0  0  0  0  0  0  0
    9.3960    3.1750   23.4450 C   0  0  0  0  0  0  0  0  0  0  0  0
   10.0890    4.3910   23.5420 C   0  0  0  0  0  0  0  0  0  0  0  0
    9.4930    5.5800   23.1220 C   0  0  0  0  0  0  0  0  0  0  0  0
    8.1960    5.5600   22.5970 C   0  0  0  0  0  0  0  0  0  0  0  0
    7.5020    4.3400   22.5010 C   0  0  0  0  0  0  0  0  0  0  0  0
    8.0870    3.1300   22.9250 C   0  0  0  0  0  0  0  0  0  0  0  0
  2  4  1  0
  1  7  1  0
  3  7  2  0
  4  7  1  0
  1  8  1  0
  5  9  1  0
  6  9  2  0
  8  9  1  6
 10 11  1  0
 13 14  1  0
 13 15  1  0
 13 16  1  0
 18 19  2  0
 17 20  1  0
 19 20  1  0
 20 21  2  0
  8 22  1  0
 21 22  1  0
 18 23  1  0
 22 23  2  0
 24 25  1  0
  1 26  1  0
 25 26  1  0
 26 27  2  0
 13 28  1  0
 24 28  2  0
 27 28  1  0
 10 29  1  0
 29 30  2  0
 30 31  1  0
 31 32  2  0
 12 33  1  0
 32 33  1  0
  5 34  1  0
 29 34  1  0
 33 34  2  0
M  END
