x2703-x0820
     RDKit          3D

 45 50  0  0  0  0  0  0  0  0999 V2000
    7.0810   -1.9850   21.7210 C   0  0  2  0  0  0  0  0  0  0  0  0
    6.9330   -5.1330   20.5210 C   0  0  0  0  0  0  0  0  0  0  0  0
    4.8130   -2.9340   20.6640 O   0  0  0  0  0  0  0  0  0  0  0  0
    6.3900   -4.2550   21.5990 C   0  0  2  0  0  0  0  0  0  0  0  0
    7.2570    1.7850   22.8200 N   0  0  0  0  0  0  0  0  0  0  0  0
    8.2130    1.1180   20.6230 O   0  0  0  0  0  0  0  0  0  0  0  0
    5.9120   -2.9860   21.2160 C   0  0  0  0  0  0  0  0  0  0  0  0
    6.5560   -0.5500   21.8140 C   0  0  1  0  0  0  0  0  0  0  0  0
    7.3530    0.8300   21.7640 C   0  0  0  0  0  0  0  0  0  0  0  0
    9.9200    1.8220   24.0520 C   0  0  0  0  0  0  0  0  0  0  0  0
    9.1550    1.2520   25.0780 C   0  0  0  0  0  0  0  0  0  0  0  0
    6.0870    4.4750   21.7370 C   0  0  0  0  0  0  0  0  0  0  0  0
   12.1630   -1.6550   24.6440 C   0  0  0  0  0  0  0  0  0  0  0  0
   12.6200   -2.8820   24.9980 C   0  0  0  0  0  0  0  0  0  0  0  0
   13.1360   -1.0040   23.6970 C   0  0  0  0  0  0  0  0  0  0  0  0
    5.8630   -5.7440   19.8120 O   0  0  0  0  0  0  0  0  0  0  0  0
    7.0220   -3.3670   22.6830 C   0  0  2  0  0  0  0  0  0  0  0  0
    6.4970    0.4120   18.0040 N   0  0  0  0  0  0  0  0  0  0  0  0
    5.2840    1.2910   18.0590 C   0  0  0  0  0  0  0  0  0  0  0  0
    4.5870    1.5030   19.3400 C   0  0  0  0  0  0  0  0  0  0  0  0
    5.0680    0.8790   20.5020 C   0  0  0  0  0  0  0  0  0  0  0  0
    6.1990    0.0650   20.4260 C   0  0  0  0  0  0  0  0  0  0  0  0
    6.8620   -0.1360   19.1950 C   0  0  0  0  0  0  0  0  0  0  0  0
   10.9550   -2.1730   22.5340 N   0  0  0  0  0  0  0  0  0  0  0  0
   10.8820   -1.7730   23.8750 C   0  0  0  0  0  0  0  0  0  0  0  0
    9.7010   -1.4730   24.5080 C   0  0  0  0  0  0  0  0  0  0  0  0
    8.5770   -1.5750   23.7440 C   0  0  0  0  0  0  0  0  0  0  0  0
    8.5450   -1.9530   22.4140 C   0  0  0  0  0  0  0  0  0  0  0  0
    9.7750   -2.2490   21.8690 C   0  0  0  0  0  0  0  0  0  0  0  0
    9.2980    3.0790   23.5110 C   0  0  0  0  0  0  0  0  0  0  0  0
    9.9920    4.3110   23.5900 C   0  0  0  0  0  0  0  0  0  0  0  0
    9.4430    5.5050   23.0980 C   0  0  0  0  0  0  0  0  0  0  0  0
    8.1810    5.4950   22.5100 C   0  0  0  0  0  0  0  0  0  0  0  0
    7.4340    4.3330   22.3920 C   0  0  0  0  0  0  0  0  0  0  0  0
    8.0150    3.0250   22.9240 C   0  0  0  0  0  0  0  0  0  0  0  0
    6.1940   -3.6630   24.0190 C   0  0  0  0  0  0  0  0  0  0  0  0
    6.8480   -3.9590   25.3520 C   0  0  0  0  0  0  0  0  0  0  0  0
    5.9420   -4.2490   26.5370 C   0  0  0  0  0  0  0  0  0  0  0  0
    4.5490   -4.2290   26.3210 C   0  0  0  0  0  0  0  0  0  0  0  0
    3.9620   -3.9560   25.0770 C   0  0  0  0  0  0  0  0  0  0  0  0
    4.8020   -3.6780   23.9530 C   0  0  0  0  0  0  0  0  0  0  0  0
    6.4390   -4.5350   27.8220 C   0  0  0  0  0  0  0  0  0  0  0  0
    7.8900   -4.5830   28.1230 C   0  0  0  0  0  0  0  0  0  0  0  0
    8.8290   -4.3010   26.9470 C   0  0  0  0  0  0  0  0  0  0  0  0
    8.2390   -3.9870   25.5610 C   0  0  0  0  0  0  0  0  0  0  0  0
  4  2  1  6
  1  7  1  0
  3  7  2  0
  4  7  1  0
  1  8  1  0
  5  9  1  0
  6  9  2  0
  8  9  1  6
 10 11  1  0
 13 14  1  0
 13 15  1  0
  2 16  2  0
  1 17  1  0
  4 17  1  0
 18 19  2  0
 19 20  1  0
 20 21  2  0
  8 22  1  0
 21 22  1  0
 18 23  1  0
 22 23  2  0
 13 25  1  0
 24 25  2  0
 25 26  1  0
 26 27  2  0
  1 28  1  6
 27 28  1  0
 24 29  1  0
 28 29  2  0
 10 30  1  0
 30 31  2  0
 31 32  1  0
 32 33  2  0
 12 34  1  0
 33 34  1  0
  5 35  1  0
 30 35  1  0
 34 35  2  0
 17 36  1  1
 36 37  2  0
 37 38  1  0
 38 39  2  0
 39 40  1  0
 36 41  1  0
 40 41  2  0
 38 42  1  0
 42 43  2  0
 43 44  1  0
 37 45  1  0
 44 45  2  0
M  END
