x2705-x0691-x2643-x0395
     RDKit          3D

 55 61  0  0  0  0  0  0  0  0999 V2000
    7.1150   -1.4870   21.8690 N   0  0  0  0  0  0  0  0  0  0  0  0
    6.7040   -4.3010   20.3080 C   0  0  2  0  0  0  0  0  0  0  0  0
    4.9820   -3.3090   21.3730 O   0  0  0  0  0  0  0  0  0  0  0  0
    6.8000   -3.4420   21.4870 C   0  0  1  0  0  0  0  0  0  0  0  0
    7.5760    2.0550   22.8100 N   0  0  0  0  0  0  0  0  0  0  0  0
    8.8860    1.3180   21.0860 O   0  0  0  0  0  0  0  0  0  0  0  0
    5.8610   -2.3300   21.6230 C   0  0  0  0  0  0  0  0  0  0  0  0
    6.8290   -0.0150   21.5990 C   0  0  1  0  0  0  0  0  0  0  0  0
    7.8910    1.1650   21.7910 C   0  0  0  0  0  0  0  0  0  0  0  0
   10.2020    2.1240   23.9310 C   0  0  0  0  0  0  0  0  0  0  0  0
    9.3840    1.2690   24.8820 C   0  0  0  0  0  0  0  0  0  0  0  0
    6.1980    4.6430   21.9090 C   0  0  0  0  0  0  0  0  0  0  0  0
   12.1610   -1.2620   23.1000 C   0  0  0  0  0  0  0  0  0  0  0  0
   12.4980    0.2160   23.3640 C   0  0  0  0  0  0  0  0  0  0  0  0
   12.8100   -2.1160   24.2050 C   0  0  0  0  0  0  0  0  0  0  0  0
   12.8080   -1.7040   21.7740 C   0  0  0  0  0  0  0  0  0  0  0  0
    5.5000   -4.2200   19.5510 O   0  0  0  0  0  0  0  0  0  0  0  0
    3.9730   -6.9040   25.9310 O   0  0  0  0  0  0  0  0  0  0  0  0
    5.7200   -5.2910   26.7610 O   0  0  0  0  0  0  0  0  0  0  0  0
    3.3060   -0.7300   25.9690 F   0  0  0  0  0  0  0  0  0  0  0  0
    4.7100   -5.6630   25.7950 S   0  0  0  0  0  0  0  0  0  0  0  0
    9.3290   -5.3040   26.3050 C   0  0  0  0  0  0  0  0  0  0  0  0
    6.3370    0.2900   17.8560 N   0  0  0  0  0  0  0  0  0  0  0  0
    5.2030    1.0010   17.8310 C   0  0  0  0  0  0  0  0  0  0  0  0
    4.5190    1.4050   18.9410 C   0  0  0  0  0  0  0  0  0  0  0  0
    5.0450    1.0650   20.1690 C   0  0  0  0  0  0  0  0  0  0  0  0
    6.2280    0.3340   20.2570 C   0  0  0  0  0  0  0  0  0  0  0  0
    6.8280   -0.0340   19.0620 C   0  0  0  0  0  0  0  0  0  0  0  0
   10.1720   -2.0160   24.2190 N   0  0  0  0  0  0  0  0  0  0  0  0
    8.7730   -2.2930   23.9400 C   0  0  2  0  0  0  0  0  0  0  0  0
    8.4160   -1.6730   22.5690 C   0  0  0  0  0  0  0  0  0  0  0  0
    9.6220   -1.2490   22.0610 C   0  0  0  0  0  0  0  0  0  0  0  0
   10.6320   -1.5240   23.1350 C   0  0  0  0  0  0  0  0  0  0  0  0
    9.4800    3.3800   23.4880 C   0  0  0  0  0  0  0  0  0  0  0  0
   10.1500    4.6150   23.6440 C   0  0  0  0  0  0  0  0  0  0  0  0
    9.5380    5.7980   23.2460 C   0  0  0  0  0  0  0  0  0  0  0  0
    8.2590    5.7600   22.6910 C   0  0  0  0  0  0  0  0  0  0  0  0
    7.5690    4.5390   22.5260 C   0  0  0  0  0  0  0  0  0  0  0  0
    8.1800    3.3310   22.9310 C   0  0  0  0  0  0  0  0  0  0  0  0
    2.9320   -2.0130   25.8710 C   0  0  0  0  0  0  0  0  0  0  0  0
    3.8980   -3.0130   25.8750 C   0  0  0  0  0  0  0  0  0  0  0  0
    3.4910   -4.3500   25.7770 C   0  0  0  0  0  0  0  0  0  0  0  0
    2.1300   -4.6680   25.6720 C   0  0  0  0  0  0  0  0  0  0  0  0
    1.1780   -3.6460   25.6700 C   0  0  0  0  0  0  0  0  0  0  0  0
    1.5820   -2.3170   25.7730 C   0  0  0  0  0  0  0  0  0  0  0  0
    6.5280   -4.9650   21.6720 C   0  0  0  0  0  0  0  0  0  0  0  0
    5.2430   -5.6910   21.8320 C   0  0  0  0  0  0  0  0  0  0  0  0
    4.5210   -5.3330   23.1160 C   0  0  0  0  0  0  0  0  0  0  0  0
    5.4090   -5.6720   24.2490 N   0  0  0  0  0  0  0  0  0  0  0  0
    6.8080   -5.1660   24.1020 C   0  0  0  0  0  0  0  0  0  0  0  0
    7.4360   -5.5150   22.7200 C   0  0  0  0  0  0  0  0  0  0  0  0
    8.8330   -4.1040   25.5470 C   0  0  0  0  0  0  0  0  0  0  0  0
    8.3280   -3.0500   26.1030 N   0  0  0  0  0  0  0  0  0  0  0  0
    7.9890   -2.1030   25.1450 N   0  0  0  0  0  0  0  0  0  0  0  0
    8.9100   -4.0680   23.8210 S   0  0  0  0  0  0  0  0  0  0  0  0
  2  4  1  0
  1  7  1  0
  3  7  2  0
  4  7  1  6
  1  8  1  0
  5  9  1  0
  6  9  2  0
  8  9  1  6
 10 11  1  0
 13 14  1  0
 13 15  1  0
 13 16  1  0
  2 17  1  6
 18 21  2  0
 19 21  2  0
 23 24  2  0
 24 25  1  0
 25 26  2  0
  8 27  1  0
 26 27  1  0
 23 28  1  0
 27 28  2  0
 30 29  1  1
  1 31  1  0
 30 31  1  0
 31 32  2  0
 13 33  1  0
 29 33  2  0
 32 33  1  0
 10 34  1  0
 34 35  2  0
 35 36  1  0
 36 37  2  0
 12 38  1  0
 37 38  1  0
  5 39  1  0
 34 39  1  0
 38 39  2  0
 20 40  1  0
 40 41  2  0
 21 42  1  0
 41 42  1  0
 42 43  2  0
 43 44  1  0
 40 45  1  0
 44 45  2  0
  2 46  1  0
  4 46  1  0
 46 47  1  0
 47 48  1  0
 21 49  1  0
 48 49  1  0
 49 50  1  0
 46 51  1  0
 50 51  1  0
 22 52  1  0
 52 53  2  0
 30 54  1  0
 53 54  1  0
 30 55  1  0
 52 55  1  0
M  END
