x2705-x2572
     RDKit          3D

 35 37  0  0  0  0  0  0  0  0999 V2000
    7.0350   -1.6020   21.7730 N   0  0  0  0  0  0  0  0  0  0  0  0
    6.8940   -4.9530   20.4990 C   0  0  0  0  0  0  0  0  0  0  0  0
    4.8600   -3.0430   21.2410 O   0  0  0  0  0  0  0  0  0  0  0  0
    6.9080   -4.0720   21.7020 C   0  0  0  0  0  0  0  0  0  0  0  0
    7.3480    1.8890   22.7740 N   0  0  0  0  0  0  0  0  0  0  0  0
    8.8070    0.7430   21.3880 O   0  0  0  0  0  0  0  0  0  0  0  0
    6.1540   -2.8220   21.5520 C   0  0  0  0  0  0  0  0  0  0  0  0
    6.5640   -0.1730   21.6210 C   0  0  1  0  0  0  0  0  0  0  0  0
    7.6930    0.8290   21.9030 C   0  0  0  0  0  0  0  0  0  0  0  0
   10.1500    1.9770   23.9670 C   0  0  0  0  0  0  0  0  0  0  0  0
    9.2320    1.2190   24.9240 C   0  0  0  0  0  0  0  0  0  0  0  0
    6.1190    4.3680   21.8590 C   0  0  0  0  0  0  0  0  0  0  0  0
   12.0440   -1.5220   23.4210 C   0  0  0  0  0  0  0  0  0  0  0  0
   12.4650   -0.3170   23.9890 C   0  0  0  0  0  0  0  0  0  0  0  0
   12.5130   -2.6340   24.3830 C   0  0  0  0  0  0  0  0  0  0  0  0
   12.7670   -1.6890   22.0820 C   0  0  0  0  0  0  0  0  0  0  0  0
    4.2880    1.5560   21.1530 C   0  0  0  0  0  0  0  0  0  0  0  0
   13.5150   -1.7710   20.8270 N   0  0  0  0  0  0  0  0  0  0  0  0
    6.4110    0.2940   17.8850 N   0  0  0  0  0  0  0  0  0  0  0  0
    5.3480    1.1110   17.7820 C   0  0  0  0  0  0  0  0  0  0  0  0
    4.5810    1.5640   18.9180 C   0  0  0  0  0  0  0  0  0  0  0  0
    4.9770    1.1350   20.1660 C   0  0  0  0  0  0  0  0  0  0  0  0
    6.0770    0.2970   20.2980 C   0  0  0  0  0  0  0  0  0  0  0  0
    6.7620   -0.1020   19.1350 C   0  0  0  0  0  0  0  0  0  0  0  0
    9.5460   -1.5560   24.3170 N   0  0  0  0  0  0  0  0  0  0  0  0
    8.2530   -1.5840   23.8660 N   0  0  0  0  0  0  0  0  0  0  0  0
    8.2800   -1.6040   22.5010 C   0  0  0  0  0  0  0  0  0  0  0  0
    9.6490   -1.5970   22.1440 C   0  0  0  0  0  0  0  0  0  0  0  0
   10.5040   -1.5610   23.2270 C   0  0  0  0  0  0  0  0  0  0  0  0
    9.3830    3.1800   23.4670 C   0  0  0  0  0  0  0  0  0  0  0  0
   10.0410    4.4140   23.5780 C   0  0  0  0  0  0  0  0  0  0  0  0
    9.4480    5.6030   23.1480 C   0  0  0  0  0  0  0  0  0  0  0  0
    8.1680    5.5520   22.5920 C   0  0  0  0  0  0  0  0  0  0  0  0
    7.4920    4.3250   22.4720 C   0  0  0  0  0  0  0  0  0  0  0  0
    8.0880    3.1230   22.9110 C   0  0  0  0  0  0  0  0  0  0  0  0
  2  4  1  0
  1  7  1  0
  3  7  2  0
  4  7  1  0
  1  8  1  0
  5  9  1  0
  6  9  2  0
  8  9  1  6
 10 11  1  0
 13 14  1  0
 13 15  1  0
 13 16  1  0
 16 18  3  0
 19 20  2  0
 20 21  1  0
 17 22  1  0
 21 22  2  0
  8 23  1  0
 22 23  1  0
 19 24  1  0
 23 24  2  0
 25 26  1  0
  1 27  1  0
 26 27  2  0
 27 28  1  0
 13 29  1  0
 25 29  1  0
 28 29  2  0
 10 30  1  0
 30 31  2  0
 31 32  1  0
 32 33  2  0
 12 34  1  0
 33 34  1  0
  5 35  1  0
 30 35  1  0
 34 35  2  0
M  END
