x2705-x0691-x2912-x2643
     RDKit          3D

 52 57  0  0  0  0  0  0  0  0999 V2000
    6.8500   -1.4300   21.8880 N   0  0  0  0  0  0  0  0  0  0  0  0
    6.7060   -4.5390   20.2790 C   0  0  2  0  0  0  0  0  0  0  0  0
    4.7490   -2.9570   21.3470 O   0  0  0  0  0  0  0  0  0  0  0  0
    6.8550   -3.7460   21.4200 C   0  0  1  0  0  0  0  0  0  0  0  0
    7.5000    2.0960   23.0000 N   0  0  0  0  0  0  0  0  0  0  0  0
    8.6990    1.2670   21.0220 O   0  0  0  0  0  0  0  0  0  0  0  0
    6.0300   -2.6310   21.5660 C   0  0  0  0  0  0  0  0  0  0  0  0
    6.4800   -0.0210   21.5950 C   0  0  1  0  0  0  0  0  0  0  0  0
    7.5840    1.1070   21.9080 C   0  0  0  0  0  0  0  0  0  0  0  0
   10.1780    2.1380   24.0160 C   0  0  0  0  0  0  0  0  0  0  0  0
    9.2940    1.3010   24.9340 C   0  0  0  0  0  0  0  0  0  0  0  0
    6.1700    4.6660   22.0000 C   0  0  0  0  0  0  0  0  0  0  0  0
   11.9450   -1.5320   23.2650 C   0  0  0  0  0  0  0  0  0  0  0  0
   12.4450   -0.1910   23.8530 C   0  0  0  0  0  0  0  0  0  0  0  0
   12.4090   -2.6210   24.2620 C   0  0  0  0  0  0  0  0  0  0  0  0
   12.6720   -1.7520   21.9910 C   0  0  0  0  0  0  0  0  0  0  0  0
    5.5100   -4.4050   19.5210 O   0  0  0  0  0  0  0  0  0  0  0  0
    4.0080   -6.8380   25.8640 O   0  0  0  0  0  0  0  0  0  0  0  0
    5.6810   -5.2260   26.7940 O   0  0  0  0  0  0  0  0  0  0  0  0
    3.2220   -0.6610   26.0350 F   0  0  0  0  0  0  0  0  0  0  0  0
    4.7000   -5.5760   25.7970 S   0  0  0  0  0  0  0  0  0  0  0  0
   13.3090   -1.8730   21.0210 N   0  0  0  0  0  0  0  0  0  0  0  0
    3.9020    1.8520   21.4480 C   0  0  0  0  0  0  0  0  0  0  0  0
    6.3940    0.2360   17.8350 N   0  0  0  0  0  0  0  0  0  0  0  0
    5.3410    1.0240   17.7860 C   0  0  0  0  0  0  0  0  0  0  0  0
    4.5890    1.5090   18.8210 C   0  0  0  0  0  0  0  0  0  0  0  0
    4.7300    1.3050   20.3270 C   0  0  0  0  0  0  0  0  0  0  0  0
    5.9520    0.4100   20.2650 C   0  0  0  0  0  0  0  0  0  0  0  0
    6.7310   -0.0930   19.0460 C   0  0  0  0  0  0  0  0  0  0  0  0
    9.5820   -1.6670   24.1930 N   0  0  0  0  0  0  0  0  0  0  0  0
    8.2710   -1.6540   23.9030 N   0  0  0  0  0  0  0  0  0  0  0  0
    8.1580   -1.5170   22.5720 C   0  0  0  0  0  0  0  0  0  0  0  0
    9.4850   -1.4530   22.0450 C   0  0  0  0  0  0  0  0  0  0  0  0
   10.4000   -1.5470   23.1110 C   0  0  0  0  0  0  0  0  0  0  0  0
    9.4670    3.3850   23.5320 C   0  0  0  0  0  0  0  0  0  0  0  0
   10.1570    4.5820   23.5960 C   0  0  0  0  0  0  0  0  0  0  0  0
    9.5510    5.7730   23.1520 C   0  0  0  0  0  0  0  0  0  0  0  0
    8.2620    5.7600   22.6440 C   0  0  0  0  0  0  0  0  0  0  0  0
    7.5590    4.5610   22.5770 C   0  0  0  0  0  0  0  0  0  0  0  0
    8.1460    3.3600   23.0240 C   0  0  0  0  0  0  0  0  0  0  0  0
    2.8700   -1.9490   25.9080 C   0  0  0  0  0  0  0  0  0  0  0  0
    3.8660   -2.9500   25.9140 C   0  0  0  0  0  0  0  0  0  0  0  0
    3.4640   -4.2870   25.7800 C   0  0  0  0  0  0  0  0  0  0  0  0
    2.1060   -4.6370   25.6390 C   0  0  0  0  0  0  0  0  0  0  0  0
    1.1380   -3.6190   25.6370 C   0  0  0  0  0  0  0  0  0  0  0  0
    1.5250   -2.2740   25.7720 C   0  0  0  0  0  0  0  0  0  0  0  0
    6.5390   -5.2110   21.6540 C   0  0  0  0  0  0  0  0  0  0  0  0
    5.2860   -5.7390   21.8770 C   0  0  0  0  0  0  0  0  0  0  0  0
    4.9660   -6.3440   23.2030 C   0  0  0  0  0  0  0  0  0  0  0  0
    5.4600   -5.4600   24.2720 N   0  0  0  0  0  0  0  0  0  0  0  0
    6.9020   -5.1490   24.1960 C   0  0  0  0  0  0  0  0  0  0  0  0
    7.4680   -5.5160   22.8120 C   0  0  0  0  0  0  0  0  0  0  0  0
  2  4  1  0
  1  7  1  0
  3  7  2  0
  4  7  1  6
  1  8  1  0
  5  9  1  0
  6  9  2  0
  8  9  1  6
 10 11  1  0
 13 14  1  0
 13 15  1  0
 13 16  1  0
  2 17  1  6
 18 21  2  0
 19 21  2  0
 16 22  3  0
 24 25  2  0
 25 26  1  0
 23 27  1  0
 26 27  2  0
  8 28  1  0
 27 28  1  0
 24 29  1  0
 28 29  2  0
 30 31  1  0
  1 32  1  0
 31 32  2  0
 32 33  1  0
 13 34  1  0
 30 34  1  0
 33 34  2  0
 10 35  1  0
 35 36  2  0
 36 37  1  0
 37 38  2  0
 12 39  1  0
 38 39  1  0
  5 40  1  0
 35 40  1  0
 39 40  2  0
 20 41  1  0
 41 42  2  0
 21 43  1  0
 42 43  1  0
 43 44  2  0
 44 45  1  0
 41 46  1  0
 45 46  2  0
  2 47  1  0
  4 47  1  0
 47 48  1  0
 48 49  1  0
 21 50  1  0
 49 50  1  0
 50 51  1  0
 47 52  1  0
 51 52  1  0
M  END
