x2705-x1425-x1311-x2643
     RDKit          3D

 60 68  0  0  0  0  0  0  0  0999 V2000
    7.7070   -1.1710   21.3990 N   0  0  0  0  0  0  0  0  0  0  0  0
    7.1180   -4.5940   20.4280 C   0  0  0  0  0  0  0  0  0  0  0  0
    5.6270   -1.6740   21.0320 O   0  0  0  0  0  0  0  0  0  0  0  0
    7.6540    2.2010   22.7580 N   0  0  0  0  0  0  0  0  0  0  0  0
    8.9490    1.5490   21.0640 O   0  0  0  0  0  0  0  0  0  0  0  0
    6.8110   -2.4380   21.8940 S   0  0  0  0  0  0  0  0  0  0  0  0
    7.1320    0.1190   21.4530 C   0  0  1  0  0  0  0  0  0  0  0  0
    7.9420    1.3040   21.7530 C   0  0  0  0  0  0  0  0  0  0  0  0
   10.1970    2.2050   23.8810 C   0  0  0  0  0  0  0  0  0  0  0  0
    9.2920    1.3050   24.7800 C   0  0  0  0  0  0  0  0  0  0  0  0
    6.2770    4.6350   21.8840 C   0  0  0  0  0  0  0  0  0  0  0  0
   12.3750   -1.2870   23.3770 C   0  0  0  0  0  0  0  0  0  0  0  0
   12.7390    0.1360   23.7060 C   0  0  0  0  0  0  0  0  0  0  0  0
   12.8850   -2.2620   24.3830 C   0  0  0  0  0  0  0  0  0  0  0  0
   12.9460   -1.5980   22.0110 C   0  0  0  0  0  0  0  0  0  0  0  0
    6.0730   -5.6090   19.9950 C   0  0  0  0  0  0  0  0  0  0  0  0
    3.7920   -8.1460   25.2160 O   0  0  0  0  0  0  0  0  0  0  0  0
    2.1520   -5.8960   25.1070 O   0  0  0  0  0  0  0  0  0  0  0  0
    5.3760   -6.5030   19.4930 O   0  0  0  0  0  0  0  0  0  0  0  0
    1.3050   -2.2800   28.7910 C   0  0  0  0  0  0  0  0  0  0  0  0
    2.6840   -2.3980   28.6310 O   0  0  0  0  0  0  0  0  0  0  0  0
    6.2970    0.3620   17.7410 N   0  0  0  0  0  0  0  0  0  0  0  0
    5.2090    1.1540   17.7860 C   0  0  0  0  0  0  0  0  0  0  0  0
    4.6500    1.6530   18.9440 C   0  0  0  0  0  0  0  0  0  0  0  0
    5.2790    1.3140   20.2390 C   0  0  0  0  0  0  0  0  0  0  0  0
    6.3920    0.5150   20.2120 C   0  0  0  0  0  0  0  0  0  0  0  0
    6.8990    0.0240   18.8810 C   0  0  0  0  0  0  0  0  0  0  0  0
    9.8950   -1.3770   24.1810 N   0  0  0  0  0  0  0  0  0  0  0  0
    8.6530   -1.3430   23.6440 N   0  0  0  0  0  0  0  0  0  0  0  0
    8.7840   -1.2350   22.3040 C   0  0  0  0  0  0  0  0  0  0  0  0
   10.1310   -1.2070   22.0710 C   0  0  0  0  0  0  0  0  0  0  0  0
   10.8730   -1.2940   23.2380 C   0  0  0  0  0  0  0  0  0  0  0  0
    9.5500    3.4930   23.4750 C   0  0  0  0  0  0  0  0  0  0  0  0
   10.2060    4.7110   23.6520 C   0  0  0  0  0  0  0  0  0  0  0  0
    9.6010    5.9280   23.2610 C   0  0  0  0  0  0  0  0  0  0  0  0
    8.3220    5.8860   22.6870 C   0  0  0  0  0  0  0  0  0  0  0  0
    7.6610    4.6800   22.5090 C   0  0  0  0  0  0  0  0  0  0  0  0
    8.2620    3.4620   22.9020 C   0  0  0  0  0  0  0  0  0  0  0  0
    8.3670   -6.1980   23.2620 C   0  0  0  0  0  0  0  0  0  0  0  0
    9.4530   -6.2100   24.0560 C   0  0  0  0  0  0  0  0  0  0  0  0
    9.7990   -5.1490   24.8740 C   0  0  0  0  0  0  0  0  0  0  0  0
    8.9980   -4.0250   24.8760 C   0  0  0  0  0  0  0  0  0  0  0  0
    7.8830   -4.0190   24.0650 C   0  0  0  0  0  0  0  0  0  0  0  0
    7.5800   -5.1190   23.2600 C   0  0  0  0  0  0  0  0  0  0  0  0
    4.4580   -5.6850   22.3420 C   0  0  0  0  0  0  0  0  0  0  0  0
    5.2030   -4.9560   23.2400 C   0  0  2  0  0  0  0  0  0  0  0  0
    5.1500   -5.5010   24.6380 C   0  0  0  0  0  0  0  0  0  0  0  0
    3.7860   -6.6540   24.5780 S   0  0  0  0  0  0  0  0  0  0  0  0
    3.6830   -6.5950   22.7430 C   0  0  0  0  0  0  0  0  0  0  0  0
    3.2500   -2.6510   27.3960 C   0  0  0  0  0  0  0  0  0  0  0  0
    4.6390   -2.2500   26.9830 C   0  0  0  0  0  0  0  0  0  0  0  0
    5.1940   -2.5520   25.6130 C   0  0  0  0  0  0  0  0  0  0  0  0
    4.3700   -3.2210   24.7310 C   0  0  0  0  0  0  0  0  0  0  0  0
    2.9980   -3.6180   25.1490 C   0  0  0  0  0  0  0  0  0  0  0  0
    2.5280   -3.3200   26.4260 C   0  0  0  0  0  0  0  0  0  0  0  0
    6.4730   -3.8670   21.5030 C   0  0  1  0  0  0  0  0  0  0  0  0
    6.7240   -3.2990   22.7580 C   0  0  2  0  0  0  0  0  0  0  0  0
    5.7740   -2.3640   23.1730 C   0  0  2  0  0  0  0  0  0  0  0  0
    4.8780   -3.4940   23.4450 N   0  0  0  0  0  0  0  0  0  0  0  0
    6.4490   -5.0640   22.4810 C   0  0  1  0  0  0  0  0  0  0  0  0
  1  6  1  0
  3  6  2  0
  1  7  1  0
  4  8  1  0
  5  8  2  0
  7  8  1  6
  9 10  1  0
 12 13  1  0
 12 14  1  0
 12 15  1  0
  2 16  2  0
 16 19  2  0
 20 21  1  0
 22 23  2  0
 23 24  1  0
 24 25  2  0
  7 26  1  0
 25 26  1  0
 22 27  1  0
 26 27  2  0
 28 29  1  0
  1 30  1  0
 29 30  1  0
 30 31  2  0
 12 32  1  0
 28 32  2  0
 31 32  1  0
  9 33  1  0
 33 34  2  0
 34 35  1  0
 35 36  2  0
 11 37  1  0
 36 37  1  0
  4 38  1  0
 33 38  1  0
 37 38  2  0
 39 40  2  0
 40 41  1  0
 41 42  2  0
 42 43  1  0
 39 44  1  0
 43 44  2  0
 46 45  1  6
 46 47  1  0
 48 17  1  0
 18 48  1  0
 47 48  1  0
 45 49  2  0
 48 49  1  0
 21 50  1  0
 50 51  2  0
 51 52  1  0
 52 53  2  0
 53 54  1  0
 50 55  1  0
 54 55  2  0
 56  2  1  6
  6 56  1  0
 57  6  1  6
 56 57  1  0
  6 58  1  0
 57 58  1  0
 46 59  1  0
 53 59  1  0
 58 59  1  6
 60 44  1  1
 46 60  1  0
 56 60  1  0
M  END
