x2705-x0771
     RDKit          3D

 51 57  0  0  0  0  0  0  0  0999 V2000
    6.8920   -1.4080   21.9290 N   0  0  0  0  0  0  0  0  0  0  0  0
    6.7840   -4.5100   20.2960 C   0  0  2  0  0  0  0  0  0  0  0  0
    4.7790   -2.9660   21.2940 O   0  0  0  0  0  0  0  0  0  0  0  0
    6.9680   -3.7160   21.4980 C   0  0  2  0  0  0  0  0  0  0  0  0
    7.3930    2.0030   22.8230 N   0  0  0  0  0  0  0  0  0  0  0  0
    8.8870    0.7840   21.5330 O   0  0  0  0  0  0  0  0  0  0  0  0
    6.0650   -2.6250   21.5660 C   0  0  0  0  0  0  0  0  0  0  0  0
    6.5950    0.0270   21.6040 C   0  0  1  0  0  0  0  0  0  0  0  0
    7.7500    0.9420   21.9740 C   0  0  0  0  0  0  0  0  0  0  0  0
   10.0560    1.9870   23.9980 C   0  0  0  0  0  0  0  0  0  0  0  0
    9.2640    1.1580   25.0040 C   0  0  0  0  0  0  0  0  0  0  0  0
    6.1570    4.4150   21.8610 C   0  0  0  0  0  0  0  0  0  0  0  0
   11.9890   -1.5320   23.2360 C   0  0  0  0  0  0  0  0  0  0  0  0
   12.4910   -0.2930   23.6560 C   0  0  0  0  0  0  0  0  0  0  0  0
   12.4770   -2.5600   24.2880 C   0  0  0  0  0  0  0  0  0  0  0  0
   12.6470   -1.8760   21.8850 C   0  0  0  0  0  0  0  0  0  0  0  0
    5.5300   -4.4050   19.6490 O   0  0  0  0  0  0  0  0  0  0  0  0
    0.6890   -1.3250   26.1690 C   0  0  0  0  0  0  0  0  0  0  0  0
    4.5560   -6.9620   25.9260 O   0  0  0  0  0  0  0  0  0  0  0  0
    6.0670   -5.2720   26.8420 O   0  0  0  0  0  0  0  0  0  0  0  0
    1.9420   -6.1310   24.8870 C   0  0  0  0  0  0  0  0  0  0  0  0
    5.0880   -5.5610   25.7380 S   0  0  0  0  0  0  0  0  0  0  0  0
    6.3160    0.3940   17.8600 N   0  0  0  0  0  0  0  0  0  0  0  0
    5.1600    1.0900   17.7640 C   0  0  0  0  0  0  0  0  0  0  0  0
    4.4220    1.4350   18.8830 C   0  0  0  0  0  0  0  0  0  0  0  0
    4.8620    1.0850   20.1400 C   0  0  0  0  0  0  0  0  0  0  0  0
    6.0510    0.3860   20.2640 C   0  0  0  0  0  0  0  0  0  0  0  0
    6.7620    0.0370   19.1600 C   0  0  0  0  0  0  0  0  0  0  0  0
    9.6350   -1.5760   24.3210 N   0  0  0  0  0  0  0  0  0  0  0  0
    8.3120   -1.5520   23.9850 N   0  0  0  0  0  0  0  0  0  0  0  0
    8.2030   -1.4850   22.6070 C   0  0  0  0  0  0  0  0  0  0  0  0
    9.5300   -1.4780   22.1000 C   0  0  0  0  0  0  0  0  0  0  0  0
   10.4470   -1.5280   23.1440 C   0  0  0  0  0  0  0  0  0  0  0  0
    9.4090    3.2670   23.5110 C   0  0  0  0  0  0  0  0  0  0  0  0
   10.0860    4.5010   23.6200 C   0  0  0  0  0  0  0  0  0  0  0  0
    9.4750    5.6770   23.1600 C   0  0  0  0  0  0  0  0  0  0  0  0
    8.2020    5.6300   22.5930 C   0  0  0  0  0  0  0  0  0  0  0  0
    7.5270    4.4050   22.4840 C   0  0  0  0  0  0  0  0  0  0  0  0
    8.1120    3.2410   22.9360 C   0  0  0  0  0  0  0  0  0  0  0  0
    1.7310   -2.3900   26.0320 C   0  0  0  0  0  0  0  0  0  0  0  0
    1.3530   -3.7790   25.5110 C   0  0  0  0  0  0  0  0  0  0  0  0
    2.3290   -4.7710   25.3950 C   0  0  0  0  0  0  0  0  0  0  0  0
    3.7520   -4.3870   25.8120 C   0  0  0  0  0  0  0  0  0  0  0  0
    4.0480   -3.0940   26.2770 C   0  0  0  0  0  0  0  0  0  0  0  0
    3.0590   -2.1210   26.3830 C   0  0  0  0  0  0  0  0  0  0  0  0
    6.8170   -5.3010   21.5370 C   0  0  1  0  0  0  0  0  0  0  0  0
    5.7940   -6.1790   21.8190 C   0  0  0  0  0  0  0  0  0  0  0  0
    4.9590   -5.8130   23.0340 C   0  0  0  0  0  0  0  0  0  0  0  0
    5.8120   -5.4530   24.1920 N   0  0  0  0  0  0  0  0  0  0  0  0
    6.6190   -4.2620   23.9200 C   0  0  0  0  0  0  0  0  0  0  0  0
    7.4100   -4.4980   22.6480 C   0  0  2  0  0  0  0  0  0  0  0  0
  2  4  1  0
  1  7  1  0
  3  7  2  0
  4  7  1  1
  1  8  1  0
  5  9  1  0
  6  9  2  0
  8  9  1  6
 10 11  1  0
 13 14  1  0
 13 15  1  0
 13 16  1  0
  2 17  1  1
 19 22  2  0
 20 22  2  0
 23 24  2  0
 24 25  1  0
 25 26  2  0
  8 27  1  0
 26 27  1  0
 23 28  1  0
 27 28  2  0
 29 30  1  0
  1 31  1  0
 30 31  2  0
 31 32  1  0
 13 33  1  0
 29 33  1  0
 32 33  2  0
 10 34  1  0
 34 35  2  0
 35 36  1  0
 36 37  2  0
 12 38  1  0
 37 38  1  0
  5 39  1  0
 34 39  1  0
 38 39  2  0
 18 40  1  0
 40 41  2  0
 21 42  1  0
 41 42  1  0
 22 43  1  0
 42 43  2  0
 43 44  1  0
 40 45  1  0
 44 45  2  0
  2 46  1  0
  4 46  1  0
 46 47  1  1
 47 48  1  0
 22 49  1  0
 48 49  1  0
 49 50  1  0
  4 51  1  0
 46 51  1  0
 51 50  1  1
M  END
