x2705-x1119-x1311-x2643
     RDKit          3D

 72 78  0  0  0  0  0  0  0  0999 V2000
    6.9610   -1.2760   21.7360 N   0  0  0  0  0  0  0  0  0  0  0  0
    6.8230   -4.5970   20.7560 C   0  0  2  0  0  0  0  0  0  0  0  0
    4.8290   -2.9530   21.1720 O   0  0  0  0  0  0  0  0  0  0  0  0
    7.0390   -3.5750   21.7680 C   0  0  0  0  0  0  0  0  0  0  0  0
    7.5980    2.0530   22.8660 N   0  0  0  0  0  0  0  0  0  0  0  0
    8.6550    1.3780   21.0380 O   0  0  0  0  0  0  0  0  0  0  0  0
    6.1280   -2.5380   21.5210 C   0  0  0  0  0  0  0  0  0  0  0  0
    6.5520    0.1420   21.5220 C   0  0  1  0  0  0  0  0  0  0  0  0
    7.6810    1.2160   21.7880 C   0  0  0  0  0  0  0  0  0  0  0  0
   10.1690    2.0870   23.8190 C   0  0  0  0  0  0  0  0  0  0  0  0
    9.2600    1.2740   24.7330 C   0  0  0  0  0  0  0  0  0  0  0  0
    6.2200    4.5740   21.9900 C   0  0  0  0  0  0  0  0  0  0  0  0
   12.1380   -0.8050   22.9950 C   0  0  0  0  0  0  0  0  0  0  0  0
   12.5640    0.5840   22.3790 C   0  0  0  0  0  0  0  0  0  0  0  0
   12.7050   -1.0920   24.4170 C   0  0  0  0  0  0  0  0  0  0  0  0
   12.9040   -1.7000   22.0260 C   0  0  0  0  0  0  0  0  0  0  0  0
    5.5380   -4.6240   20.1160 O   0  0  0  0  0  0  0  0  0  0  0  0
    6.8210   -5.5150   21.9460 N   0  0  0  0  0  0  0  0  0  0  0  0
    4.1940   -7.6080   25.3820 O   0  0  0  0  0  0  0  0  0  0  0  0
    2.7500   -5.4240   24.9210 O   0  0  0  0  0  0  0  0  0  0  0  0
   21.6120    8.1350   22.3770 N   0  0  0  0  0  0  0  0  0  0  0  0
   21.3800    2.7870   25.5740 N   0  0  0  0  0  0  0  0  0  0  0  0
   23.4310    3.5040   26.9670 N   0  0  0  0  0  0  0  0  0  0  0  0
   23.9060    2.4060   24.7500 O   0  0  0  0  0  0  0  0  0  0  0  0
   22.8740    3.2070   25.3890 S   0  0  1  0  0  0  0  0  0  0  0  0
   13.6230    1.5270   22.8870 C   0  0  0  0  0  0  0  0  0  0  0  0
   14.6540    2.4260   22.0800 C   0  0  0  0  0  0  0  0  0  0  0  0
   15.8320    3.5170   22.4000 C   0  0  0  0  0  0  0  0  0  0  0  0
   17.2920    3.4330   23.1350 C   0  0  0  0  0  0  0  0  0  0  0  0
   17.9710    3.9200   24.2590 C   0  0  0  0  0  0  0  0  0  0  0  0
   19.1300    3.2250   24.9220 C   0  0  0  0  0  0  0  0  0  0  0  0
   20.4780    3.6620   24.9840 C   0  0  0  0  0  0  0  0  0  0  0  0
    6.2920    0.4540   17.8380 N   0  0  0  0  0  0  0  0  0  0  0  0
    5.1770    1.1740   17.7540 C   0  0  0  0  0  0  0  0  0  0  0  0
    4.3470    1.6360   18.7940 C   0  0  0  0  0  0  0  0  0  0  0  0
    4.7350    1.3180   20.0660 C   0  0  0  0  0  0  0  0  0  0  0  0
    6.0110    0.5090   20.2040 C   0  0  0  0  0  0  0  0  0  0  0  0
    6.6880    0.1350   19.0540 C   0  0  0  0  0  0  0  0  0  0  0  0
    9.9290   -1.4350   24.1100 N   0  0  0  0  0  0  0  0  0  0  0  0
    8.5970   -1.5500   23.7550 N   0  0  0  0  0  0  0  0  0  0  0  0
    8.3030   -1.2750   22.4210 C   0  0  0  0  0  0  0  0  0  0  0  0
    9.6190   -0.9800   21.9700 C   0  0  0  0  0  0  0  0  0  0  0  0
   10.6030   -1.0650   22.9980 C   0  0  0  0  0  0  0  0  0  0  0  0
    9.5360    3.3610   23.4340 C   0  0  0  0  0  0  0  0  0  0  0  0
   10.2030    4.5870   23.5440 C   0  0  0  0  0  0  0  0  0  0  0  0
    9.5680    5.7650   23.1550 C   0  0  0  0  0  0  0  0  0  0  0  0
    8.2750    5.7230   22.6550 C   0  0  0  0  0  0  0  0  0  0  0  0
    7.6000    4.4980   22.5440 C   0  0  0  0  0  0  0  0  0  0  0  0
    8.2340    3.3130   22.9420 C   0  0  0  0  0  0  0  0  0  0  0  0
    8.7830   -5.9650   23.2480 C   0  0  0  0  0  0  0  0  0  0  0  0
    9.6860   -5.6460   24.3830 C   0  0  0  0  0  0  0  0  0  0  0  0
    9.4300   -4.5490   25.2570 C   0  0  0  0  0  0  0  0  0  0  0  0
    8.2320   -3.7180   25.0110 C   0  0  0  0  0  0  0  0  0  0  0  0
    7.3980   -4.0240   23.9450 C   0  0  0  0  0  0  0  0  0  0  0  0
    7.6840   -5.2150   23.0050 C   0  0  0  0  0  0  0  0  0  0  0  0
    4.6540   -6.4880   22.1020 C   0  0  0  0  0  0  0  0  0  0  0  0
    5.5350   -5.4750   22.6510 C   0  0  1  0  0  0  0  0  0  0  0  0
    5.4310   -5.4560   24.1750 C   0  0  0  0  0  0  0  0  0  0  0  0
    3.9200   -6.3730   24.4140 S   0  0  0  0  0  0  0  0  0  0  0  0
    3.6990   -6.9920   22.9090 C   0  0  0  0  0  0  0  0  0  0  0  0
   21.9580    6.9710   23.0650 C   0  0  0  0  0  0  0  0  0  0  0  0
   22.8900    6.0730   22.5310 C   0  0  0  0  0  0  0  0  0  0  0  0
   23.2300    4.8910   23.2250 C   0  0  0  0  0  0  0  0  0  0  0  0
   22.6070    4.6540   24.4460 C   0  0  0  0  0  0  0  0  0  0  0  0
   21.6920    5.5510   24.9890 C   0  0  0  0  0  0  0  0  0  0  0  0
   21.3710    6.7040   24.2970 C   0  0  0  0  0  0  0  0  0  0  0  0
   24.7420    4.6900   28.5200 N   0  0  0  0  0  0  0  0  0  0  0  0
   25.7480    5.5400   28.8120 C   0  0  0  0  0  0  0  0  0  0  0  0
   26.5540    6.1340   27.8440 C   0  0  0  0  0  0  0  0  0  0  0  0
   26.2980    5.8240   26.5150 C   0  0  0  0  0  0  0  0  0  0  0  0
   25.2660    4.9500   26.1950 C   0  0  0  0  0  0  0  0  0  0  0  0
   24.5010    4.3960   27.2180 C   0  0  0  0  0  0  0  0  0  0  0  0
  2  4  1  0
  1  7  1  0
  3  7  2  0
  4  7  1  0
  1  8  1  0
  5  9  1  0
  6  9  2  0
  8  9  1  6
 10 11  1  0
 13 14  1  0
 13 15  1  0
 13 16  1  0
  2 17  1  1
  2 18  1  0
 22 25  2  0
 25 23  1  1
 24 25  2  0
 14 26  1  0
 26 27  1  0
 27 28  1  0
 28 29  1  0
 29 30  1  0
 30 31  1  0
 22 32  1  0
 31 32  1  0
 33 34  2  0
 34 35  1  0
 35 36  2  0
  8 37  1  0
 36 37  1  0
 33 38  1  0
 37 38  2  0
 39 40  1  0
  1 41  1  0
 40 41  1  0
 41 42  2  0
 13 43  1  0
 39 43  2  0
 42 43  1  0
 10 44  1  0
 44 45  2  0
 45 46  1  0
 46 47  2  0
 12 48  1  0
 47 48  1  0
  5 49  1  0
 44 49  1  0
 48 49  2  0
 50 51  2  0
 51 52  1  0
 52 53  2  0
 53 54  1  0
 18 55  1  0
 50 55  1  0
 54 55  2  0
 57 18  1  1
 56 57  1  0
 57 58  1  0
 59 19  1  0
 20 59  1  0
 58 59  1  0
 56 60  2  0
 59 60  1  0
 21 61  1  0
 61 62  2  0
 62 63  1  0
 25 64  1  0
 63 64  2  0
 64 65  1  0
 61 66  1  0
 65 66  2  0
 67 68  2  0
 68 69  1  0
 69 70  2  0
 70 71  1  0
 23 72  1  0
 67 72  1  0
 71 72  2  0
M  END
