x2705-x2643
     RDKit          3D

 33 35  0  0  0  0  0  0  0  0999 V2000
    7.0710   -1.4500   21.7000 N   0  0  0  0  0  0  0  0  0  0  0  0
    6.8070   -4.4420   20.3990 C   0  0  0  0  0  0  0  0  0  0  0  0
    5.0270   -3.3420   21.3010 O   0  0  0  0  0  0  0  0  0  0  0  0
    6.8800   -3.4390   21.5110 C   0  0  0  0  0  0  0  0  0  0  0  0
    7.5250    1.9610   22.7570 N   0  0  0  0  0  0  0  0  0  0  0  0
    8.9950    0.8180   21.3850 O   0  0  0  0  0  0  0  0  0  0  0  0
    5.8810   -2.3400   21.4870 C   0  0  0  0  0  0  0  0  0  0  0  0
    6.7350   -0.0050   21.5460 C   0  0  1  0  0  0  0  0  0  0  0  0
    7.8770    0.9310   21.8710 C   0  0  0  0  0  0  0  0  0  0  0  0
   10.2020    2.0540   23.9250 C   0  0  0  0  0  0  0  0  0  0  0  0
    9.3180    1.1870   24.8220 C   0  0  0  0  0  0  0  0  0  0  0  0
    6.1770    4.5280   21.8590 C   0  0  0  0  0  0  0  0  0  0  0  0
   12.1070   -1.5370   23.1960 C   0  0  0  0  0  0  0  0  0  0  0  0
   12.5300   -0.2750   23.6350 C   0  0  0  0  0  0  0  0  0  0  0  0
   12.6050   -2.5130   24.2930 C   0  0  0  0  0  0  0  0  0  0  0  0
   12.6430   -1.9460   22.0280 C   0  0  0  0  0  0  0  0  0  0  0  0
    6.3490    0.4410   17.8420 N   0  0  0  0  0  0  0  0  0  0  0  0
    5.2300    1.1820   17.7920 C   0  0  0  0  0  0  0  0  0  0  0  0
    4.4370    1.6190   18.9330 C   0  0  0  0  0  0  0  0  0  0  0  0
    4.9890    1.1790   20.2050 C   0  0  0  0  0  0  0  0  0  0  0  0
    6.1510    0.4240   20.2340 C   0  0  0  0  0  0  0  0  0  0  0  0
    6.7890    0.0740   19.0510 C   0  0  0  0  0  0  0  0  0  0  0  0
    9.7340   -1.8920   24.2630 N   0  0  0  0  0  0  0  0  0  0  0  0
    8.4520   -1.8590   23.8030 N   0  0  0  0  0  0  0  0  0  0  0  0
    8.3130   -1.5850   22.4660 C   0  0  0  0  0  0  0  0  0  0  0  0
    9.6440   -1.4410   22.0740 C   0  0  0  0  0  0  0  0  0  0  0  0
   10.5620   -1.6060   23.0990 C   0  0  0  0  0  0  0  0  0  0  0  0
    9.4550    3.2920   23.4620 C   0  0  0  0  0  0  0  0  0  0  0  0
   10.1110    4.5230   23.6150 C   0  0  0  0  0  0  0  0  0  0  0  0
    9.4940    5.7080   23.2060 C   0  0  0  0  0  0  0  0  0  0  0  0
    8.2150    5.6570   22.6420 C   0  0  0  0  0  0  0  0  0  0  0  0
    7.5430    4.4350   22.4820 C   0  0  0  0  0  0  0  0  0  0  0  0
    8.1510    3.2400   22.8890 C   0  0  0  0  0  0  0  0  0  0  0  0
  2  4  1  0
  1  7  1  0
  3  7  2  0
  4  7  1  0
  1  8  1  0
  5  9  1  0
  6  9  2  0
  8  9  1  6
 10 11  1  0
 13 14  1  0
 13 15  1  0
 13 16  1  0
 17 18  2  0
 18 19  1  0
 19 20  2  0
  8 21  1  0
 20 21  1  0
 17 22  1  0
 21 22  2  0
 23 24  1  0
  1 25  1  0
 24 25  1  0
 25 26  2  0
 13 27  1  0
 23 27  2  0
 26 27  1  0
 10 28  1  0
 28 29  2  0
 29 30  1  0
 30 31  2  0
 12 32  1  0
 31 32  1  0
  5 33  1  0
 28 33  1  0
 32 33  2  0
M  END
