x2705-x1311-x2572-x3124
     RDKit          3D

 51 55  0  0  0  0  0  0  0  0999 V2000
    6.7100   -1.2780   22.2140 N   0  0  0  0  0  0  0  0  0  0  0  0
    6.8860   -4.2630   20.3970 C   0  0  2  0  0  0  0  0  0  0  0  0
    4.7330   -3.0130   21.5100 O   0  0  0  0  0  0  0  0  0  0  0  0
    6.7880   -2.7910   20.4110 C   0  0  0  0  0  0  0  0  0  0  0  0
    7.4400    1.9780   23.0170 N   0  0  0  0  0  0  0  0  0  0  0  0
    8.6530    0.9480   21.3890 O   0  0  0  0  0  0  0  0  0  0  0  0
    5.9580   -2.3840   21.4400 C   0  0  0  0  0  0  0  0  0  0  0  0
    6.4680    0.0890   21.7610 C   0  0  1  0  0  0  0  0  0  0  0  0
    7.5960    1.0380   22.0690 C   0  0  0  0  0  0  0  0  0  0  0  0
   10.1300    2.0300   24.0340 C   0  0  0  0  0  0  0  0  0  0  0  0
    9.2890    1.2420   25.0300 C   0  0  0  0  0  0  0  0  0  0  0  0
    6.1370    4.5040   21.9430 C   0  0  0  0  0  0  0  0  0  0  0  0
   11.9510   -1.5200   23.2430 C   0  0  2  0  0  0  0  0  0  0  0  0
   12.5110   -0.3950   24.1020 C   0  0  0  0  0  0  0  0  0  0  0  0
   12.4210   -2.8060   23.9030 C   0  0  0  0  0  0  0  0  0  0  0  0
   12.6920   -1.5400   21.9500 C   0  0  0  0  0  0  0  0  0  0  0  0
   12.8330   -2.8360   25.3530 C   0  0  0  0  0  0  0  0  0  0  0  0
    5.7170   -4.7690   19.7540 O   0  0  0  0  0  0  0  0  0  0  0  0
    6.7210   -4.8180   21.8680 N   0  0  0  0  0  0  0  0  0  0  0  0
    4.3880   -7.4510   25.0970 O   0  0  0  0  0  0  0  0  0  0  0  0
    2.8830   -5.4690   24.7460 O   0  0  0  0  0  0  0  0  0  0  0  0
    4.0160    1.4720   21.3830 C   0  0  0  0  0  0  0  0  0  0  0  0
   13.3750   -1.5920   21.0050 N   0  0  0  0  0  0  0  0  0  0  0  0
    6.3870    0.3650   17.8860 N   0  0  0  0  0  0  0  0  0  0  0  0
    5.2350    1.0450   17.7940 C   0  0  0  0  0  0  0  0  0  0  0  0
    4.4450    1.4150   18.8700 C   0  0  0  0  0  0  0  0  0  0  0  0
    4.8690    1.0690   20.2200 C   0  0  0  0  0  0  0  0  0  0  0  0
    6.0330    0.3950   20.3680 C   0  0  0  0  0  0  0  0  0  0  0  0
    6.7930    0.0390   19.1060 C   0  0  0  0  0  0  0  0  0  0  0  0
    9.6340   -1.3490   24.3240 N   0  0  0  0  0  0  0  0  0  0  0  0
    8.3100   -1.2940   24.0840 N   0  0  0  0  0  0  0  0  0  0  0  0
    8.0930   -1.3650   22.7500 C   0  0  0  0  0  0  0  0  0  0  0  0
    9.3990   -1.4830   22.1510 C   0  0  0  0  0  0  0  0  0  0  0  0
   10.3970   -1.4620   23.1840 C   0  0  0  0  0  0  0  0  0  0  0  0
    9.4370    3.2710   23.5160 C   0  0  0  0  0  0  0  0  0  0  0  0
   10.1420    4.4680   23.5520 C   0  0  0  0  0  0  0  0  0  0  0  0
    9.5510    5.6190   23.0850 C   0  0  0  0  0  0  0  0  0  0  0  0
    8.2760    5.5860   22.5810 C   0  0  0  0  0  0  0  0  0  0  0  0
    7.5240    4.4020   22.5230 C   0  0  0  0  0  0  0  0  0  0  0  0
    8.1110    3.2410   23.0020 C   0  0  0  0  0  0  0  0  0  0  0  0
    8.4060   -5.9450   23.1220 C   0  0  0  0  0  0  0  0  0  0  0  0
    9.3430   -6.0070   24.1330 C   0  0  0  0  0  0  0  0  0  0  0  0
    9.5050   -4.8860   24.8980 C   0  0  0  0  0  0  0  0  0  0  0  0
    8.7590   -3.7440   24.6690 C   0  0  0  0  0  0  0  0  0  0  0  0
    7.8300   -3.7060   23.6570 C   0  0  0  0  0  0  0  0  0  0  0  0
    7.6620   -4.8240   22.8790 C   0  0  0  0  0  0  0  0  0  0  0  0
    4.7020   -6.0750   21.9830 C   0  0  0  0  0  0  0  0  0  0  0  0
    5.4180   -5.1050   22.5930 C   0  0  1  0  0  0  0  0  0  0  0  0
    5.5020   -5.2770   24.0130 C   0  0  0  0  0  0  0  0  0  0  0  0
    4.0310   -6.2570   24.3410 S   0  0  0  0  0  0  0  0  0  0  0  0
    3.8130   -6.7890   22.7010 C   0  0  0  0  0  0  0  0  0  0  0  0
  2  4  1  0
  1  7  1  0
  3  7  2  0
  4  7  1  0
  1  8  1  0
  5  9  1  0
  6  9  2  0
  8  9  1  6
 10 11  1  0
 13 14  1  1
 13 15  1  0
 13 16  1  0
 15 17  1  0
  2 18  1  6
  2 19  1  0
 16 23  3  0
 24 25  2  0
 25 26  1  0
 22 27  1  0
 26 27  2  0
  8 28  1  0
 27 28  1  0
 24 29  1  0
 28 29  2  0
 30 31  1  0
  1 32  1  0
 31 32  2  0
 32 33  1  0
 13 34  1  0
 30 34  1  0
 33 34  2  0
 10 35  1  0
 35 36  2  0
 36 37  1  0
 37 38  2  0
 12 39  1  0
 38 39  1  0
  5 40  1  0
 35 40  1  0
 39 40  2  0
 41 42  2  0
 42 43  1  0
 43 44  2  0
 44 45  1  0
 19 46  1  0
 41 46  1  0
 45 46  2  0
 48 19  1  6
 47 48  1  0
 48 49  1  0
 50 20  1  0
 21 50  1  0
 49 50  1  0
 47 51  2  0
 50 51  1  0
M  END
