x2703-x2705-x0691-x3117
     RDKit          3D

 51 56  0  0  0  0  0  0  0  0999 V2000
    6.7870   -1.3090   21.9960 N   0  0  0  0  0  0  0  0  0  0  0  0
    6.8040   -4.5210   20.3000 C   0  0  2  0  0  0  0  0  0  0  0  0
    4.7120   -2.8930   21.2940 O   0  0  0  0  0  0  0  0  0  0  0  0
    6.9250   -3.5280   21.3480 C   0  0  1  0  0  0  0  0  0  0  0  0
    7.5170    2.0910   22.9120 N   0  0  0  0  0  0  0  0  0  0  0  0
    8.4930    1.3410   21.0630 O   0  0  0  0  0  0  0  0  0  0  0  0
    5.9810   -2.5170   21.5470 C   0  0  0  0  0  0  0  0  0  0  0  0
    6.4190    0.1070   21.6530 C   0  0  1  0  0  0  0  0  0  0  0  0
    7.5370    1.2010   21.8690 C   0  0  0  0  0  0  0  0  0  0  0  0
   10.1750    2.0940   23.9850 C   0  0  0  0  0  0  0  0  0  0  0  0
    9.3070    1.2620   24.9180 C   0  0  0  0  0  0  0  0  0  0  0  0
    6.1890    4.5880   21.9320 C   0  0  0  0  0  0  0  0  0  0  0  0
   11.9060   -1.5590   23.2080 C   0  0  0  0  0  0  0  0  0  0  0  0
   12.4820   -0.2290   23.7400 C   0  0  0  0  0  0  0  0  0  0  0  0
   12.3800   -2.7090   24.1020 C   0  0  0  0  0  0  0  0  0  0  0  0
   12.5050   -1.8150   21.8730 C   0  0  0  0  0  0  0  0  0  0  0  0
   13.3530   -2.3630   25.1950 C   0  0  0  0  0  0  0  0  0  0  0  0
    5.5660   -4.4690   19.5990 O   0  0  0  0  0  0  0  0  0  0  0  0
    4.0400   -6.8730   26.0350 O   0  0  0  0  0  0  0  0  0  0  0  0
    5.7650   -5.2080   26.7290 O   0  0  0  0  0  0  0  0  0  0  0  0
    3.2670   -0.6490   25.9850 F   0  0  0  0  0  0  0  0  0  0  0  0
    4.7310   -5.6210   25.7990 S   0  0  0  0  0  0  0  0  0  0  0  0
    6.3570    0.3860   17.8870 N   0  0  0  0  0  0  0  0  0  0  0  0
    5.2340    1.1020   17.7570 C   0  0  0  0  0  0  0  0  0  0  0  0
    4.4490    1.4980   18.7880 C   0  0  0  0  0  0  0  0  0  0  0  0
    4.8030    1.1730   20.0740 C   0  0  0  0  0  0  0  0  0  0  0  0
    5.9740    0.4400   20.2620 C   0  0  0  0  0  0  0  0  0  0  0  0
    6.7130    0.0640   19.1430 C   0  0  0  0  0  0  0  0  0  0  0  0
    9.6660   -1.5760   24.2760 N   0  0  0  0  0  0  0  0  0  0  0  0
    8.3650   -1.5190   23.9400 N   0  0  0  0  0  0  0  0  0  0  0  0
    8.1300   -1.4180   22.5830 C   0  0  0  0  0  0  0  0  0  0  0  0
    9.4390   -1.4240   22.0500 C   0  0  0  0  0  0  0  0  0  0  0  0
   10.3660   -1.5190   23.1440 C   0  0  0  0  0  0  0  0  0  0  0  0
    9.4850    3.3550   23.5130 C   0  0  0  0  0  0  0  0  0  0  0  0
   10.1710    4.5810   23.6070 C   0  0  0  0  0  0  0  0  0  0  0  0
    9.5780    5.7630   23.1750 C   0  0  0  0  0  0  0  0  0  0  0  0
    8.2880    5.7380   22.6360 C   0  0  0  0  0  0  0  0  0  0  0  0
    7.5750    4.5260   22.5300 C   0  0  0  0  0  0  0  0  0  0  0  0
    8.1800    3.3340   22.9780 C   0  0  0  0  0  0  0  0  0  0  0  0
    2.9570   -1.9590   25.8750 C   0  0  0  0  0  0  0  0  0  0  0  0
    3.8910   -2.9390   25.8880 C   0  0  0  0  0  0  0  0  0  0  0  0
    3.4830   -4.3400   25.7670 C   0  0  0  0  0  0  0  0  0  0  0  0
    2.1830   -4.6890   25.6360 C   0  0  0  0  0  0  0  0  0  0  0  0
    1.1590   -3.6650   25.6180 C   0  0  0  0  0  0  0  0  0  0  0  0
    1.5520   -2.2850   25.7400 C   0  0  0  0  0  0  0  0  0  0  0  0
    6.7710   -5.0110   21.7460 C   0  0  0  0  0  0  0  0  0  0  0  0
    5.5250   -4.3390   22.2160 C   0  0  0  0  0  0  0  0  0  0  0  0
    4.6000   -5.1140   23.1090 C   0  0  0  0  0  0  0  0  0  0  0  0
    5.3750   -5.6850   24.2380 N   0  0  0  0  0  0  0  0  0  0  0  0
    6.8300   -5.6220   23.9970 C   0  0  0  0  0  0  0  0  0  0  0  0
    7.0430   -6.1750   22.5810 C   0  0  0  0  0  0  0  0  0  0  0  0
  2  4  1  0
  1  7  1  0
  3  7  2  0
  4  7  1  1
  1  8  1  0
  5  9  1  0
  6  9  2  0
  8  9  1  6
 10 11  1  0
 13 14  1  0
 13 15  1  0
 13 16  1  0
 15 17  1  0
  2 18  1  1
 19 22  2  0
 20 22  2  0
 23 24  2  0
 24 25  1  0
 25 26  2  0
  8 27  1  0
 26 27  1  0
 23 28  1  0
 27 28  2  0
 29 30  1  0
  1 31  1  0
 30 31  2  0
 31 32  1  0
 13 33  1  0
 29 33  1  0
 32 33  2  0
 10 34  1  0
 34 35  2  0
 35 36  1  0
 36 37  2  0
 12 38  1  0
 37 38  1  0
  5 39  1  0
 34 39  1  0
 38 39  2  0
 21 40  1  0
 40 41  2  0
 22 42  1  0
 41 42  1  0
 42 43  2  0
 43 44  1  0
 40 45  1  0
 44 45  2  0
  2 46  1  0
  4 46  1  0
 46 47  1  0
 47 48  1  0
 22 49  1  0
 48 49  1  0
 49 50  1  0
 46 51  1  0
 50 51  1  0
M  END
