x2705-x1311-x2572-x2649
     RDKit          3D

 50 54  0  0  0  0  0  0  0  0999 V2000
    6.7110   -1.3350   22.1430 N   0  0  0  0  0  0  0  0  0  0  0  0
    6.5810   -4.2300   20.3070 C   0  0  2  0  0  0  0  0  0  0  0  0
    4.6380   -3.0010   21.6420 O   0  0  0  0  0  0  0  0  0  0  0  0
    6.4010   -2.8260   20.3310 C   0  0  0  0  0  0  0  0  0  0  0  0
    7.4100    2.1400   22.7860 N   0  0  0  0  0  0  0  0  0  0  0  0
    8.8770    0.8890   21.5010 O   0  0  0  0  0  0  0  0  0  0  0  0
    5.8200   -2.3770   21.4760 C   0  0  0  0  0  0  0  0  0  0  0  0
    6.5560    0.0890   21.7080 C   0  0  1  0  0  0  0  0  0  0  0  0
    7.7590    1.0550   21.9810 C   0  0  0  0  0  0  0  0  0  0  0  0
   10.1850    2.1290   23.9450 C   0  0  0  0  0  0  0  0  0  0  0  0
    9.3460    1.2650   24.8820 C   0  0  0  0  0  0  0  0  0  0  0  0
    6.1740    4.6080   21.9020 C   0  0  0  0  0  0  0  0  0  0  0  0
   11.9280   -1.4680   23.3430 C   0  0  0  0  0  0  0  0  0  0  0  0
   12.4220   -0.1580   23.9900 C   0  0  0  0  0  0  0  0  0  0  0  0
   12.4180   -2.5990   24.2730 C   0  0  0  0  0  0  0  0  0  0  0  0
   12.6740   -1.5740   22.0560 C   0  0  0  0  0  0  0  0  0  0  0  0
    5.5060   -4.8250   19.6260 O   0  0  0  0  0  0  0  0  0  0  0  0
    6.5540   -4.9090   21.7000 N   0  0  0  0  0  0  0  0  0  0  0  0
    4.4510   -6.6610   25.4990 O   0  0  0  0  0  0  0  0  0  0  0  0
    2.6450   -5.2550   24.4080 O   0  0  0  0  0  0  0  0  0  0  0  0
    3.8570    1.4500   21.2370 C   0  0  0  0  0  0  0  0  0  0  0  0
   13.3510   -1.6710   21.1080 N   0  0  0  0  0  0  0  0  0  0  0  0
    6.3820    0.3200   17.9570 N   0  0  0  0  0  0  0  0  0  0  0  0
    5.2090    0.9420   17.8180 C   0  0  0  0  0  0  0  0  0  0  0  0
    4.3920    1.3020   18.8500 C   0  0  0  0  0  0  0  0  0  0  0  0
    4.7900    1.0250   20.1460 C   0  0  0  0  0  0  0  0  0  0  0  0
    6.0030    0.3960   20.3490 C   0  0  0  0  0  0  0  0  0  0  0  0
    6.7640    0.0550   19.2230 C   0  0  0  0  0  0  0  0  0  0  0  0
    9.5690   -1.3920   24.3240 N   0  0  0  0  0  0  0  0  0  0  0  0
    8.2540   -1.3660   24.0560 N   0  0  0  0  0  0  0  0  0  0  0  0
    8.0800   -1.4100   22.7160 C   0  0  0  0  0  0  0  0  0  0  0  0
    9.3920   -1.4800   22.1390 C   0  0  0  0  0  0  0  0  0  0  0  0
   10.3690   -1.4530   23.2240 C   0  0  0  0  0  0  0  0  0  0  0  0
    9.4600    3.3690   23.4740 C   0  0  0  0  0  0  0  0  0  0  0  0
   10.1370    4.6060   23.5910 C   0  0  0  0  0  0  0  0  0  0  0  0
    9.5390    5.7920   23.1740 C   0  0  0  0  0  0  0  0  0  0  0  0
    8.2570    5.7720   22.6300 C   0  0  0  0  0  0  0  0  0  0  0  0
    7.5580    4.5550   22.5020 C   0  0  0  0  0  0  0  0  0  0  0  0
    8.1600    3.3410   22.9300 C   0  0  0  0  0  0  0  0  0  0  0  0
    8.2620   -6.1420   22.8470 C   0  0  0  0  0  0  0  0  0  0  0  0
    9.3470   -6.2470   23.8140 C   0  0  0  0  0  0  0  0  0  0  0  0
    9.7500   -5.0660   24.5990 C   0  0  0  0  0  0  0  0  0  0  0  0
    9.0250   -3.8260   24.3690 C   0  0  0  0  0  0  0  0  0  0  0  0
    7.9220   -3.8310   23.3450 C   0  0  0  0  0  0  0  0  0  0  0  0
    7.5740   -4.9630   22.6150 C   0  0  0  0  0  0  0  0  0  0  0  0
    4.7280   -6.3680   22.1460 C   0  0  0  0  0  0  0  0  0  0  0  0
    5.2380   -5.1160   22.4060 C   0  0  1  0  0  0  0  0  0  0  0  0
    5.1880   -4.7630   23.7720 C   0  0  0  0  0  0  0  0  0  0  0  0
    3.9490   -5.8840   24.3800 S   0  0  0  0  0  0  0  0  0  0  0  0
    3.9540   -6.9160   23.1150 C   0  0  0  0  0  0  0  0  0  0  0  0
  2  4  1  0
  1  7  1  0
  3  7  2  0
  4  7  1  0
  1  8  1  0
  5  9  1  0
  6  9  2  0
  8  9  1  6
 10 11  1  0
 13 14  1  0
 13 15  1  0
 13 16  1  0
  2 17  1  6
  2 18  1  0
 16 22  3  0
 23 24  2  0
 24 25  1  0
 21 26  1  0
 25 26  2  0
  8 27  1  0
 26 27  1  0
 23 28  1  0
 27 28  2  0
 29 30  1  0
  1 31  1  0
 30 31  2  0
 31 32  1  0
 13 33  1  0
 29 33  1  0
 32 33  2  0
 10 34  1  0
 34 35  2  0
 35 36  1  0
 36 37  2  0
 12 38  1  0
 37 38  1  0
  5 39  1  0
 34 39  1  0
 38 39  2  0
 40 41  2  0
 41 42  1  0
 42 43  2  0
 43 44  1  0
 18 45  1  0
 40 45  1  0
 44 45  2  0
 47 18  1  1
 46 47  1  0
 47 48  1  0
 49 19  1  0
 20 49  1  0
 48 49  1  0
 46 50  2  0
 49 50  1  0
M  END
