x2705-x0691-x0786-x2643
     RDKit          3D

 57 63  0  0  0  0  0  0  0  0999 V2000
    6.9590   -1.3540   21.8670 N   0  0  0  0  0  0  0  0  0  0  0  0
    6.8390   -4.5380   20.2610 C   0  0  2  0  0  0  0  0  0  0  0  0
    4.7800   -2.9140   21.2260 O   0  0  0  0  0  0  0  0  0  0  0  0
    6.9900   -3.6930   21.3840 C   0  0  1  0  0  0  0  0  0  0  0  0
    7.6260    2.0920   22.7090 N   0  0  0  0  0  0  0  0  0  0  0  0
    8.9590    0.9990   21.2170 O   0  0  0  0  0  0  0  0  0  0  0  0
    6.1140   -2.5650   21.4920 C   0  0  0  0  0  0  0  0  0  0  0  0
    6.6910    0.0820   21.4460 C   0  0  1  0  0  0  0  0  0  0  0  0
    7.8630    1.0780   21.7980 C   0  0  0  0  0  0  0  0  0  0  0  0
   10.2880    2.1470   24.1330 C   0  0  0  0  0  0  0  0  0  0  0  0
    9.4280    1.3860   25.1490 C   0  0  0  0  0  0  0  0  0  0  0  0
    6.2870    4.4120   21.7600 C   0  0  0  0  0  0  0  0  0  0  0  0
   12.0910   -1.5360   23.2740 C   0  0  0  0  0  0  0  0  0  0  0  0
   12.6540   -0.1760   23.8330 C   0  0  0  0  0  0  0  0  0  0  0  0
   12.5230   -2.6390   24.3120 C   0  0  0  0  0  0  0  0  0  0  0  0
   12.8340   -1.8010   21.9500 C   0  0  0  0  0  0  0  0  0  0  0  0
    5.5760   -4.4040   19.5890 O   0  0  0  0  0  0  0  0  0  0  0  0
    3.3340   -5.9520   25.1360 C   0  0  0  0  0  0  0  0  0  0  0  0
    4.7920   -6.7960   24.4300 O   0  0  0  0  0  0  0  0  0  0  0  0
    3.1070   -0.7150   26.6270 F   0  0  0  0  0  0  0  0  0  0  0  0
    4.8680   -5.4800   24.7990 S   0  0  1  0  0  0  0  0  0  0  0  0
    2.0170   -6.3580   25.4250 C   0  0  0  0  0  0  0  0  0  0  0  0
    6.4660    0.2550   17.6470 N   0  0  0  0  0  0  0  0  0  0  0  0
    5.2080    0.9980   17.4990 C   0  0  0  0  0  0  0  0  0  0  0  0
    4.5530    1.3350   18.6800 C   0  0  0  0  0  0  0  0  0  0  0  0
    5.0350    1.0300   19.9180 C   0  0  0  0  0  0  0  0  0  0  0  0
    6.2130    0.3260   20.0450 C   0  0  0  0  0  0  0  0  0  0  0  0
    6.9170   -0.0540   18.8870 C   0  0  0  0  0  0  0  0  0  0  0  0
    9.6940   -1.4040   24.2350 N   0  0  0  0  0  0  0  0  0  0  0  0
    8.3790   -1.3640   23.8980 N   0  0  0  0  0  0  0  0  0  0  0  0
    8.2900   -1.4170   22.5420 C   0  0  0  0  0  0  0  0  0  0  0  0
    9.6380   -1.4980   22.0940 C   0  0  0  0  0  0  0  0  0  0  0  0
   10.5600   -1.4830   23.1540 C   0  0  0  0  0  0  0  0  0  0  0  0
    9.5140    3.3050   23.5620 C   0  0  0  0  0  0  0  0  0  0  0  0
   10.1360    4.5980   23.7370 C   0  0  0  0  0  0  0  0  0  0  0  0
    9.4890    5.7350   23.2570 C   0  0  0  0  0  0  0  0  0  0  0  0
    8.2620    5.6510   22.6250 C   0  0  0  0  0  0  0  0  0  0  0  0
    7.6260    4.4250   22.4510 C   0  0  0  0  0  0  0  0  0  0  0  0
    8.2500    3.2290   22.9030 C   0  0  0  0  0  0  0  0  0  0  0  0
    2.9170   -1.9970   26.2150 C   0  0  0  0  0  0  0  0  0  0  0  0
    4.0430   -2.7590   25.9120 C   0  0  0  0  0  0  0  0  0  0  0  0
    3.7750   -4.0380   25.4450 C   0  0  0  0  0  0  0  0  0  0  0  0
    2.5480   -4.6840   25.2640 C   0  0  0  0  0  0  0  0  0  0  0  0
    1.4080   -3.8690   25.6220 C   0  0  0  0  0  0  0  0  0  0  0  0
    1.6050   -2.5330   26.0840 C   0  0  0  0  0  0  0  0  0  0  0  0
    6.6990   -5.1190   21.6960 C   0  0  0  0  0  0  0  0  0  0  0  0
    5.5420   -5.2070   22.3720 C   0  0  0  0  0  0  0  0  0  0  0  0
    5.6300   -4.1180   23.4020 C   0  0  0  0  0  0  0  0  0  0  0  0
    6.2130   -4.6600   24.6400 N   0  0  0  0  0  0  0  0  0  0  0  0
    7.3760   -5.4080   24.1550 C   0  0  0  0  0  0  0  0  0  0  0  0
    7.7960   -5.5250   22.6570 C   0  0  0  0  0  0  0  0  0  0  0  0
    1.4540   -6.5460   23.2460 C   0  0  0  0  0  0  0  0  0  0  0  0
    0.5010   -5.4050   23.4560 C   0  0  0  0  0  0  0  0  0  0  0  0
   -1.1130   -5.9530   24.1040 S   0  0  0  0  0  0  0  0  0  0  0  0
   -0.6610   -7.3420   25.2130 C   0  0  0  0  0  0  0  0  0  0  0  0
    0.5250   -8.1640   24.7500 C   0  0  0  0  0  0  0  0  0  0  0  0
    1.6430   -7.2810   24.5130 N   0  0  0  0  0  0  0  0  0  0  0  0
  2  4  1  0
  1  7  1  0
  3  7  2  0
  4  7  1  6
  1  8  1  0
  5  9  1  0
  6  9  2  0
  8  9  1  6
 10 11  1  0
 13 14  1  0
 13 15  1  0
 13 16  1  0
  2 17  1  6
 18 21  2  0
 19 21  2  0
 18 22  2  0
 23 24  2  0
 24 25  1  0
 25 26  2  0
  8 27  1  0
 26 27  1  0
 23 28  1  0
 27 28  2  0
 29 30  1  0
  1 31  1  0
 30 31  2  0
 31 32  1  0
 13 33  1  0
 29 33  1  0
 32 33  2  0
 10 34  1  0
 34 35  2  0
 35 36  1  0
 36 37  2  0
 12 38  1  0
 37 38  1  0
  5 39  1  0
 34 39  1  0
 38 39  2  0
 20 40  1  0
 40 41  2  0
 21 42  1  6
 41 42  1  0
 42 43  2  0
 43 44  1  0
 40 45  1  0
 44 45  2  0
  2 46  1  0
  4 46  1  0
 46 47  1  0
 47 48  1  0
 21 49  1  0
 48 49  1  0
 49 50  1  0
 46 51  1  0
 50 51  1  0
 52 53  1  0
 53 54  1  0
 54 55  1  0
 55 56  1  0
 22 57  1  0
 52 57  1  0
 56 57  1  0
M  END
