x2705-x2764-x3110
     RDKit          3D

 40 44  0  0  0  0  0  0  0  0999 V2000
    7.9940    1.5380   23.1450 C   0  0  1  0  0  0  0  0  0  0  0  0
   13.1320    5.2830   23.0070 C   0  0  0  0  0  0  0  0  0  0  0  0
   12.5560    2.9600   23.3090 O   0  0  0  0  0  0  0  0  0  0  0  0
   13.1060    3.9110   22.3860 C   0  0  0  0  0  0  0  0  0  0  0  0
    7.0260   -1.6690   21.7300 N   0  0  0  0  0  0  0  0  0  0  0  0
   10.7640    3.8580   22.4040 N   0  0  0  0  0  0  0  0  0  0  0  0
   11.2390    2.9600   23.2440 C   0  0  0  0  0  0  0  0  0  0  0  0
    8.6380    1.2690   20.9290 O   0  0  0  0  0  0  0  0  0  0  0  0
   10.2570    2.0080   24.0730 C   0  0  0  0  0  0  0  0  0  0  0  0
    4.8950   -3.0550   21.1130 O   0  0  0  0  0  0  0  0  0  0  0  0
    7.8530    0.8810   21.7920 C   0  0  0  0  0  0  0  0  0  0  0  0
    6.7090   -0.1700   21.5200 C   0  0  1  0  0  0  0  0  0  0  0  0
    6.1730   -2.8980   21.4320 C   0  0  0  0  0  0  0  0  0  0  0  0
    6.8690   -4.2520   21.5410 C   0  0  0  0  0  0  0  0  0  0  0  0
    8.2810   -4.3450   20.9500 C   0  0  0  0  0  0  0  0  0  0  0  0
   12.2940   -1.8670   24.2400 C   0  0  0  0  0  0  0  0  0  0  0  0
   12.4620   -0.6120   25.0930 C   0  0  0  0  0  0  0  0  0  0  0  0
   13.3890   -1.8130   23.2100 C   0  0  0  0  0  0  0  0  0  0  0  0
   12.6280   -3.0520   25.1610 C   0  0  0  0  0  0  0  0  0  0  0  0
    5.6940    4.2530   22.2950 C   0  0  0  0  0  0  0  0  0  0  0  0
    9.2080    1.2010   24.7630 C   0  0  0  0  0  0  0  0  0  0  0  0
   13.0260   -1.6730   21.7440 C   0  0  0  0  0  0  0  0  0  0  0  0
    6.3020    0.4170   17.7950 N   0  0  0  0  0  0  0  0  0  0  0  0
    5.2050    1.1680   17.8080 C   0  0  0  0  0  0  0  0  0  0  0  0
    4.5230    1.5110   18.9470 C   0  0  0  0  0  0  0  0  0  0  0  0
    4.9660    1.0870   20.1830 C   0  0  0  0  0  0  0  0  0  0  0  0
    6.1520    0.2880   20.2020 C   0  0  0  0  0  0  0  0  0  0  0  0
    6.7360    0.0050   18.9830 C   0  0  0  0  0  0  0  0  0  0  0  0
    9.4900   -1.3430   21.7530 C   0  0  0  0  0  0  0  0  0  0  0  0
   10.7290   -1.3960   22.3580 C   0  0  0  0  0  0  0  0  0  0  0  0
   10.8800   -1.8810   23.6380 C   0  0  0  0  0  0  0  0  0  0  0  0
    9.7520   -2.3410   24.3330 C   0  0  0  0  0  0  0  0  0  0  0  0
    8.4700   -2.2940   23.7240 C   0  0  0  0  0  0  0  0  0  0  0  0
    8.3260   -1.7800   22.4080 C   0  0  0  0  0  0  0  0  0  0  0  0
    9.0730    2.6580   23.2920 C   0  0  1  0  0  0  0  0  0  0  0  0
    9.4210    4.0130   22.6860 C   0  0  1  0  0  0  0  0  0  0  0  0
    9.1690    5.2180   23.6230 C   0  0  0  0  0  0  0  0  0  0  0  0
    7.6710    5.4390   23.4300 C   0  0  0  0  0  0  0  0  0  0  0  0
    7.1770    4.1800   22.6330 C   0  0  1  0  0  0  0  0  0  0  0  0
    7.5570    2.9330   23.4260 C   0  0  1  0  0  0  0  0  0  0  0  0
  2  4  1  0
  3  4  1  0
  3  7  1  0
  6  7  1  0
  7  9  2  0
  1 11  1  6
  8 11  2  0
  5 12  1  0
 12 11  1  6
  5 13  1  0
 10 13  2  0
 13 14  1  0
 14 15  1  0
 16 17  1  0
 16 18  1  0
 16 19  1  0
  9 21  1  0
 18 22  1  0
 23 24  2  0
 24 25  1  0
 25 26  2  0
 12 27  1  0
 26 27  1  0
 23 28  1  0
 27 28  2  0
 29 30  2  0
 16 31  1  0
 30 31  1  0
 31 32  2  0
 32 33  1  0
  5 34  1  0
 29 34  1  0
 33 34  2  0
  1 35  1  0
 35  9  1  1
  6 36  1  0
 35 36  1  0
 36 37  1  1
 37 38  1  0
 39 20  1  1
 38 39  1  0
  1 40  1  0
 35 40  1  0
 40 39  1  6
M  END
