x2705-x0691-x2572-x2646
     RDKit          3D

 52 57  0  0  0  0  0  0  0  0999 V2000
    6.9350   -1.4180   21.7860 N   0  0  0  0  0  0  0  0  0  0  0  0
    6.6600   -4.5310   20.3450 C   0  0  2  0  0  0  0  0  0  0  0  0
    4.7690   -2.9400   21.2440 O   0  0  0  0  0  0  0  0  0  0  0  0
    6.8460   -3.7880   21.6260 C   0  0  1  0  0  0  0  0  0  0  0  0
    7.4980    2.0720   22.8150 N   0  0  0  0  0  0  0  0  0  0  0  0
    8.6630    1.3110   21.0930 O   0  0  0  0  0  0  0  0  0  0  0  0
    6.0490   -2.6380   21.5360 C   0  0  0  0  0  0  0  0  0  0  0  0
    6.5700    0.0290   21.5260 C   0  0  1  0  0  0  0  0  0  0  0  0
    7.6520    1.1520   21.8020 C   0  0  0  0  0  0  0  0  0  0  0  0
   10.2070    2.0990   23.9780 C   0  0  0  0  0  0  0  0  0  0  0  0
    9.3810    1.2090   24.9010 C   0  0  0  0  0  0  0  0  0  0  0  0
    6.2040    4.4970   21.8900 C   0  0  0  0  0  0  0  0  0  0  0  0
   11.9860   -1.5690   23.3140 C   0  0  0  0  0  0  0  0  0  0  0  0
   12.4550   -0.2000   23.8770 C   0  0  0  0  0  0  0  0  0  0  0  0
   12.5040   -2.6550   24.3090 C   0  0  0  0  0  0  0  0  0  0  0  0
   12.7270   -1.7540   21.9670 C   0  0  0  0  0  0  0  0  0  0  0  0
    5.4440   -4.3940   19.6240 O   0  0  0  0  0  0  0  0  0  0  0  0
    4.0480   -6.8420   25.8770 O   0  0  0  0  0  0  0  0  0  0  0  0
    5.7370   -5.2000   26.7470 O   0  0  0  0  0  0  0  0  0  0  0  0
    3.2410   -0.6660   25.9970 F   0  0  0  0  0  0  0  0  0  0  0  0
    4.7460   -5.5770   25.7690 S   0  0  0  0  0  0  0  0  0  0  0  0
    4.0840    1.6560   21.3790 C   0  0  0  0  0  0  0  0  0  0  0  0
   13.3290   -1.8770   20.9750 N   0  0  0  0  0  0  0  0  0  0  0  0
    6.3520    0.4630   17.8230 N   0  0  0  0  0  0  0  0  0  0  0  0
    5.2460    1.2220   17.7100 C   0  0  0  0  0  0  0  0  0  0  0  0
    4.4030    1.6690   18.8570 C   0  0  0  0  0  0  0  0  0  0  0  0
    4.8860    1.2190   20.1970 C   0  0  0  0  0  0  0  0  0  0  0  0
    6.0250    0.4620   20.2250 C   0  0  0  0  0  0  0  0  0  0  0  0
    6.7060    0.1080   19.0660 C   0  0  0  0  0  0  0  0  0  0  0  0
    9.6600   -1.7420   24.2890 N   0  0  0  0  0  0  0  0  0  0  0  0
    8.3880   -1.7000   23.8500 N   0  0  0  0  0  0  0  0  0  0  0  0
    8.2310   -1.5240   22.4920 C   0  0  0  0  0  0  0  0  0  0  0  0
    9.5920   -1.4540   22.0600 C   0  0  0  0  0  0  0  0  0  0  0  0
   10.4320   -1.5840   23.1750 C   0  0  0  0  0  0  0  0  0  0  0  0
    9.5000    3.3530   23.5070 C   0  0  0  0  0  0  0  0  0  0  0  0
   10.1660    4.6060   23.6340 C   0  0  0  0  0  0  0  0  0  0  0  0
    9.5280    5.7910   23.1950 C   0  0  0  0  0  0  0  0  0  0  0  0
    8.2400    5.7010   22.6350 C   0  0  0  0  0  0  0  0  0  0  0  0
    7.5860    4.4750   22.5120 C   0  0  0  0  0  0  0  0  0  0  0  0
    8.2060    3.3050   22.9480 C   0  0  0  0  0  0  0  0  0  0  0  0
    2.8950   -1.9550   25.8730 C   0  0  0  0  0  0  0  0  0  0  0  0
    3.8970   -2.9470   25.8800 C   0  0  0  0  0  0  0  0  0  0  0  0
    3.5100   -4.2900   25.7550 C   0  0  0  0  0  0  0  0  0  0  0  0
    2.1540   -4.6280   25.6220 C   0  0  0  0  0  0  0  0  0  0  0  0
    1.1610   -3.6310   25.6160 C   0  0  0  0  0  0  0  0  0  0  0  0
    1.5500   -2.2850   25.7450 C   0  0  0  0  0  0  0  0  0  0  0  0
    6.5100   -5.2700   21.6970 C   0  0  0  0  0  0  0  0  0  0  0  0
    5.2240   -5.7140   21.9450 C   0  0  0  0  0  0  0  0  0  0  0  0
    4.8800   -6.2400   23.1720 C   0  0  0  0  0  0  0  0  0  0  0  0
    5.4800   -5.4710   24.2660 N   0  0  0  0  0  0  0  0  0  0  0  0
    6.9430   -5.3170   24.1530 C   0  0  0  0  0  0  0  0  0  0  0  0
    7.4540   -5.7630   22.7480 C   0  0  0  0  0  0  0  0  0  0  0  0
  2  4  1  0
  1  7  1  0
  3  7  2  0
  4  7  1  1
  1  8  1  0
  5  9  1  0
  6  9  2  0
  8  9  1  6
 10 11  1  0
 13 14  1  0
 13 15  1  0
 13 16  1  0
  2 17  1  1
 18 21  2  0
 19 21  2  0
 16 23  3  0
 24 25  2  0
 25 26  1  0
 22 27  1  0
 26 27  2  0
  8 28  1  0
 27 28  1  0
 24 29  1  0
 28 29  2  0
 30 31  1  0
  1 32  1  0
 31 32  1  0
 32 33  2  0
 13 34  1  0
 30 34  2  0
 33 34  1  0
 10 35  1  0
 35 36  2  0
 36 37  1  0
 37 38  2  0
 12 39  1  0
 38 39  1  0
  5 40  1  0
 35 40  1  0
 39 40  2  0
 20 41  1  0
 41 42  2  0
 21 43  1  0
 42 43  1  0
 43 44  2  0
 44 45  1  0
 41 46  1  0
 45 46  2  0
  2 47  1  0
  4 47  1  0
 47 48  1  0
 48 49  1  0
 21 50  1  0
 49 50  1  0
 50 51  1  0
 47 52  1  0
 51 52  1  0
M  END
