x2705-x1119
     RDKit          3D

 57 61  0  0  0  0  0  0  0  0999 V2000
    7.0640   -1.5240   21.8390 N   0  0  0  0  0  0  0  0  0  0  0  0
    7.0070   -4.9990   20.7880 C   0  0  0  0  0  0  0  0  0  0  0  0
    4.8940   -3.0780   21.2530 O   0  0  0  0  0  0  0  0  0  0  0  0
    6.9970   -3.9990   21.8880 C   0  0  0  0  0  0  0  0  0  0  0  0
    7.4160    1.8840   22.8300 N   0  0  0  0  0  0  0  0  0  0  0  0
    8.7580    0.8510   21.2830 O   0  0  0  0  0  0  0  0  0  0  0  0
    6.2010   -2.7890   21.6300 C   0  0  0  0  0  0  0  0  0  0  0  0
    6.5680   -0.1220   21.6030 C   0  0  1  0  0  0  0  0  0  0  0  0
    7.6880    0.8840   21.8840 C   0  0  0  0  0  0  0  0  0  0  0  0
   10.0750    1.9570   24.0020 C   0  0  0  0  0  0  0  0  0  0  0  0
    9.1710    1.2370   24.9990 C   0  0  0  0  0  0  0  0  0  0  0  0
    6.0930    4.4180   21.8480 C   0  0  0  0  0  0  0  0  0  0  0  0
   12.2520   -0.7000   23.0190 C   0  0  0  0  0  0  0  0  0  0  0  0
   12.9100    0.6020   23.3700 C   0  0  0  0  0  0  0  0  0  0  0  0
   12.6810   -1.5650   24.2400 C   0  0  0  0  0  0  0  0  0  0  0  0
   12.9500   -1.4420   21.8860 C   0  0  0  0  0  0  0  0  0  0  0  0
   21.4320    7.8800   22.3180 N   0  0  0  0  0  0  0  0  0  0  0  0
   21.4270    2.6100   26.1380 N   0  0  0  0  0  0  0  0  0  0  0  0
   23.5120    3.5250   27.0990 N   0  0  0  0  0  0  0  0  0  0  0  0
   23.7860    2.3340   24.9600 O   0  0  0  0  0  0  0  0  0  0  0  0
   22.7930    3.1670   25.6110 S   0  0  1  0  0  0  0  0  0  0  0  0
   13.4100    2.0260   22.6150 C   0  0  0  0  0  0  0  0  0  0  0  0
   14.8890    2.4180   22.0450 C   0  0  0  0  0  0  0  0  0  0  0  0
   16.0910    3.5940   22.5340 C   0  0  0  0  0  0  0  0  0  0  0  0
   17.4630    3.3490   23.3080 C   0  0  0  0  0  0  0  0  0  0  0  0
   18.1310    3.7700   24.4610 C   0  0  0  0  0  0  0  0  0  0  0  0
   19.4610    3.2380   24.8340 C   0  0  0  0  0  0  0  0  0  0  0  0
   20.1950    3.2630   26.0230 C   0  0  0  0  0  0  0  0  0  0  0  0
    6.3300    0.3810   17.8730 N   0  0  0  0  0  0  0  0  0  0  0  0
    5.1920    1.1620   17.7600 C   0  0  0  0  0  0  0  0  0  0  0  0
    4.5230    1.4740   18.9230 C   0  0  0  0  0  0  0  0  0  0  0  0
    4.9570    1.0500   20.1600 C   0  0  0  0  0  0  0  0  0  0  0  0
    6.0950    0.2890   20.2420 C   0  0  0  0  0  0  0  0  0  0  0  0
    6.7570   -0.0340   19.0760 C   0  0  0  0  0  0  0  0  0  0  0  0
    9.9320   -1.3420   24.0750 N   0  0  0  0  0  0  0  0  0  0  0  0
    8.6030   -1.5750   23.8210 N   0  0  0  0  0  0  0  0  0  0  0  0
    8.3880   -1.4020   22.5030 C   0  0  0  0  0  0  0  0  0  0  0  0
    9.6780   -1.0620   21.9900 C   0  0  0  0  0  0  0  0  0  0  0  0
   10.6980   -1.0040   22.9740 C   0  0  0  0  0  0  0  0  0  0  0  0
    9.3570    3.1940   23.5050 C   0  0  0  0  0  0  0  0  0  0  0  0
   10.1400    4.5080   23.6670 C   0  0  0  0  0  0  0  0  0  0  0  0
    9.4430    5.7810   23.1670 C   0  0  0  0  0  0  0  0  0  0  0  0
    8.1670    5.7250   22.5980 C   0  0  0  0  0  0  0  0  0  0  0  0
    7.4580    4.3600   22.4780 C   0  0  0  0  0  0  0  0  0  0  0  0
    8.0680    3.1720   22.9300 C   0  0  0  0  0  0  0  0  0  0  0  0
   21.7600    6.7750   23.1070 C   0  0  0  0  0  0  0  0  0  0  0  0
   22.8040    5.8850   22.6530 C   0  0  0  0  0  0  0  0  0  0  0  0
   23.1650    4.7700   23.3950 C   0  0  0  0  0  0  0  0  0  0  0  0
   22.4220    4.5030   24.7070 C   0  0  0  0  0  0  0  0  0  0  0  0
   21.3460    5.4470   25.1680 C   0  0  0  0  0  0  0  0  0  0  0  0
   21.0550    6.5950   24.2950 C   0  0  0  0  0  0  0  0  0  0  0  0
   24.8480    4.7680   28.5510 N   0  0  0  0  0  0  0  0  0  0  0  0
   25.8480    5.6400   28.7920 C   0  0  0  0  0  0  0  0  0  0  0  0
   26.6130    6.2140   27.7980 C   0  0  0  0  0  0  0  0  0  0  0  0
   26.3330    5.8700   26.4810 C   0  0  0  0  0  0  0  0  0  0  0  0
   25.3010    4.9700   26.2060 C   0  0  0  0  0  0  0  0  0  0  0  0
   24.5720    4.4340   27.2700 C   0  0  0  0  0  0  0  0  0  0  0  0
  2  4  1  0
  1  7  1  0
  3  7  2  0
  4  7  1  0
  1  8  1  0
  5  9  1  0
  6  9  2  0
  8  9  1  6
 10 11  1  0
 13 14  1  0
 13 15  1  0
 13 16  1  0
 18 21  2  0
 21 19  1  1
 20 21  2  0
 14 22  1  0
 22 23  1  0
 23 24  1  0
 24 25  1  0
 25 26  1  0
 26 27  1  0
 18 28  1  0
 27 28  1  0
 29 30  2  0
 30 31  1  0
 31 32  2  0
  8 33  1  0
 32 33  1  0
 29 34  1  0
 33 34  2  0
 35 36  1  0
  1 37  1  0
 36 37  2  0
 37 38  1  0
 13 39  1  0
 35 39  1  0
 38 39  2  0
 10 40  1  0
 40 41  2  0
 41 42  1  0
 42 43  2  0
 12 44  1  0
 43 44  1  0
  5 45  1  0
 40 45  1  0
 44 45  2  0
 17 46  1  0
 46 47  2  0
 47 48  1  0
 21 49  1  0
 48 49  2  0
 49 50  1  0
 46 51  1  0
 50 51  2  0
 52 53  2  0
 53 54  1  0
 54 55  2  0
 55 56  1  0
 19 57  1  0
 52 57  1  0
 56 57  2  0
M  END
