x2705-x0691-x2572-x3124
     RDKit          3D

 53 58  0  0  0  0  0  0  0  0999 V2000
    6.8420   -1.3750   21.9710 N   0  0  0  0  0  0  0  0  0  0  0  0
    6.7660   -4.5720   20.3310 C   0  0  2  0  0  0  0  0  0  0  0  0
    4.7300   -2.9310   21.3400 O   0  0  0  0  0  0  0  0  0  0  0  0
    6.8690   -3.7040   21.4580 C   0  0  1  0  0  0  0  0  0  0  0  0
    7.3130    1.9720   22.7670 N   0  0  0  0  0  0  0  0  0  0  0  0
    8.7530    0.7780   21.3990 O   0  0  0  0  0  0  0  0  0  0  0  0
    6.0250   -2.6130   21.5910 C   0  0  0  0  0  0  0  0  0  0  0  0
    6.5870    0.0550   21.6090 C   0  0  1  0  0  0  0  0  0  0  0  0
    7.6350    0.9150   21.8990 C   0  0  0  0  0  0  0  0  0  0  0  0
   10.1170    1.9770   23.9490 C   0  0  0  0  0  0  0  0  0  0  0  0
    9.2230    1.1600   24.9160 C   0  0  0  0  0  0  0  0  0  0  0  0
    6.1220    4.4390   21.8660 C   0  0  0  0  0  0  0  0  0  0  0  0
   11.9120   -1.5640   23.2580 C   0  0  2  0  0  0  0  0  0  0  0  0
   12.4420   -0.2650   23.9090 C   0  0  0  0  0  0  0  0  0  0  0  0
   12.3840   -2.7360   24.1250 C   0  0  0  0  0  0  0  0  0  0  0  0
   12.6660   -1.7210   21.9240 C   0  0  0  0  0  0  0  0  0  0  0  0
   13.3890   -2.4120   25.2500 C   0  0  0  0  0  0  0  0  0  0  0  0
    5.5210   -4.5670   19.6430 O   0  0  0  0  0  0  0  0  0  0  0  0
    4.0740   -6.8410   25.8140 O   0  0  0  0  0  0  0  0  0  0  0  0
    5.8190   -5.1380   26.9010 O   0  0  0  0  0  0  0  0  0  0  0  0
    3.2880   -0.6740   26.0630 F   0  0  0  0  0  0  0  0  0  0  0  0
    4.7410   -5.5590   25.7490 S   0  0  0  0  0  0  0  0  0  0  0  0
    4.1090    1.5790   21.2980 C   0  0  0  0  0  0  0  0  0  0  0  0
   13.2980   -1.8440   20.9550 N   0  0  0  0  0  0  0  0  0  0  0  0
    6.3330    0.3510   17.8450 N   0  0  0  0  0  0  0  0  0  0  0  0
    5.2060    1.0700   17.7910 C   0  0  0  0  0  0  0  0  0  0  0  0
    4.4770    1.4670   18.8730 C   0  0  0  0  0  0  0  0  0  0  0  0
    4.9160    1.1260   20.1190 C   0  0  0  0  0  0  0  0  0  0  0  0
    6.0810    0.3950   20.2330 C   0  0  0  0  0  0  0  0  0  0  0  0
    6.7610    0.0180   19.0670 C   0  0  0  0  0  0  0  0  0  0  0  0
    9.6750   -1.7190   24.2910 N   0  0  0  0  0  0  0  0  0  0  0  0
    8.3800   -1.6710   23.9290 N   0  0  0  0  0  0  0  0  0  0  0  0
    8.1720   -1.4920   22.5830 C   0  0  0  0  0  0  0  0  0  0  0  0
    9.4880   -1.4320   22.0790 C   0  0  0  0  0  0  0  0  0  0  0  0
   10.3710   -1.5680   23.1630 C   0  0  0  0  0  0  0  0  0  0  0  0
    9.3850    3.2100   23.4660 C   0  0  0  0  0  0  0  0  0  0  0  0
   10.0740    4.4380   23.5910 C   0  0  0  0  0  0  0  0  0  0  0  0
    9.4600    5.6160   23.1580 C   0  0  0  0  0  0  0  0  0  0  0  0
    8.1860    5.6050   22.6040 C   0  0  0  0  0  0  0  0  0  0  0  0
    7.4950    4.3910   22.4780 C   0  0  0  0  0  0  0  0  0  0  0  0
    8.0800    3.1820   22.9100 C   0  0  0  0  0  0  0  0  0  0  0  0
    2.8850   -1.9420   25.9110 C   0  0  0  0  0  0  0  0  0  0  0  0
    3.8420   -2.9660   25.9000 C   0  0  0  0  0  0  0  0  0  0  0  0
    3.4690   -4.3040   25.7460 C   0  0  0  0  0  0  0  0  0  0  0  0
    2.1290   -4.7050   25.5930 C   0  0  0  0  0  0  0  0  0  0  0  0
    1.0060   -3.6420   25.5930 C   0  0  0  0  0  0  0  0  0  0  0  0
    1.5240   -2.1960   25.7720 C   0  0  0  0  0  0  0  0  0  0  0  0
    6.5890   -5.1630   21.7510 C   0  0  0  0  0  0  0  0  0  0  0  0
    5.2040   -5.8330   21.8760 C   0  0  0  0  0  0  0  0  0  0  0  0
    4.9540   -6.3740   23.2230 C   0  0  0  0  0  0  0  0  0  0  0  0
    5.4540   -5.3930   24.2030 N   0  0  0  0  0  0  0  0  0  0  0  0
    6.9350   -5.1830   24.1520 C   0  0  0  0  0  0  0  0  0  0  0  0
    7.5150   -5.5100   22.8940 C   0  0  0  0  0  0  0  0  0  0  0  0
  2  4  1  0
  1  7  1  0
  3  7  2  0
  4  7  1  6
  1  8  1  0
  5  9  1  0
  6  9  2  0
  8  9  1  6
 10 11  1  0
 13 14  1  1
 13 15  1  0
 13 16  1  0
 15 17  1  0
  2 18  1  6
 19 22  2  0
 20 22  2  0
 16 24  3  0
 25 26  2  0
 26 27  1  0
 23 28  1  0
 27 28  2  0
  8 29  1  0
 28 29  1  0
 25 30  1  0
 29 30  2  0
 31 32  1  0
  1 33  1  0
 32 33  1  0
 33 34  2  0
 13 35  1  0
 31 35  2  0
 34 35  1  0
 10 36  1  0
 36 37  2  0
 37 38  1  0
 38 39  2  0
 12 40  1  0
 39 40  1  0
  5 41  1  0
 36 41  1  0
 40 41  2  0
 21 42  1  0
 42 43  2  0
 22 44  1  0
 43 44  1  0
 44 45  2  0
 45 46  1  0
 42 47  1  0
 46 47  2  0
  2 48  1  0
  4 48  1  0
 48 49  1  0
 49 50  1  0
 22 51  1  0
 50 51  1  0
 51 52  1  0
 48 53  1  0
 52 53  1  0
M  END
