x2703-x0731
     RDKit          3D

 50 56  0  0  0  0  0  0  0  0999 V2000
    6.6990   -1.4910   22.0460 N   0  0  0  0  0  0  0  0  0  0  0  0
    6.7420   -4.6190   20.2670 C   0  0  2  0  0  0  0  0  0  0  0  0
    4.6880   -2.9610   21.4340 O   0  0  0  0  0  0  0  0  0  0  0  0
    6.8690   -3.6940   21.4220 C   0  0  2  0  0  0  0  0  0  0  0  0
    7.2330    1.9330   22.7960 N   0  0  0  0  0  0  0  0  0  0  0  0
    8.7230    0.6780   21.5440 O   0  0  0  0  0  0  0  0  0  0  0  0
    5.9270   -2.6680   21.6380 C   0  0  0  0  0  0  0  0  0  0  0  0
    6.4280   -0.0690   21.6430 C   0  0  1  0  0  0  0  0  0  0  0  0
    7.5870    0.8480   21.9810 C   0  0  0  0  0  0  0  0  0  0  0  0
    9.9900    1.9250   24.0520 C   0  0  0  0  0  0  0  0  0  0  0  0
    9.1350    1.2340   25.1080 C   0  0  0  0  0  0  0  0  0  0  0  0
    6.0990    4.3660   21.7820 C   0  0  0  0  0  0  0  0  0  0  0  0
   11.9760   -1.6560   24.5370 C   0  0  0  0  0  0  0  0  0  0  0  0
   12.4430   -2.9540   24.6460 C   0  0  0  0  0  0  0  0  0  0  0  0
   12.9910   -0.8520   23.7470 C   0  0  0  0  0  0  0  0  0  0  0  0
    5.5080   -4.6580   19.5660 O   0  0  0  0  0  0  0  0  0  0  0  0
    0.9050   -0.8490   26.1820 C   0  0  0  0  0  0  0  0  0  0  0  0
    6.3230   -4.8740   26.7010 O   0  0  0  0  0  0  0  0  0  0  0  0
    4.7250   -6.5730   25.9520 O   0  0  0  0  0  0  0  0  0  0  0  0
    5.2860   -5.2030   25.6640 S   0  0  0  0  0  0  0  0  0  0  0  0
    6.2660    0.4090   17.8370 N   0  0  0  0  0  0  0  0  0  0  0  0
    5.1320    1.1230   17.7910 C   0  0  0  0  0  0  0  0  0  0  0  0
    4.2880    1.5040   18.9130 C   0  0  0  0  0  0  0  0  0  0  0  0
    4.8210    1.0300   20.1730 C   0  0  0  0  0  0  0  0  0  0  0  0
    5.9990    0.3000   20.2520 C   0  0  0  0  0  0  0  0  0  0  0  0
    6.7480   -0.0450   19.1250 C   0  0  0  0  0  0  0  0  0  0  0  0
   10.4190   -1.9850   22.4160 N   0  0  0  0  0  0  0  0  0  0  0  0
   10.6000   -1.6510   23.8660 C   0  0  0  0  0  0  0  0  0  0  0  0
    9.4470   -1.3350   24.5000 C   0  0  0  0  0  0  0  0  0  0  0  0
    8.2050   -1.2990   23.9270 C   0  0  0  0  0  0  0  0  0  0  0  0
    8.0510   -1.5900   22.6000 C   0  0  0  0  0  0  0  0  0  0  0  0
    9.2130   -1.9430   21.8680 C   0  0  0  0  0  0  0  0  0  0  0  0
    9.3060    3.1470   23.4980 C   0  0  0  0  0  0  0  0  0  0  0  0
    9.9920    4.3660   23.5720 C   0  0  0  0  0  0  0  0  0  0  0  0
    9.4470    5.5560   23.0870 C   0  0  0  0  0  0  0  0  0  0  0  0
    8.1750    5.5260   22.5080 C   0  0  0  0  0  0  0  0  0  0  0  0
    7.4620    4.3190   22.4200 C   0  0  0  0  0  0  0  0  0  0  0  0
    8.0160    3.1310   22.9120 C   0  0  0  0  0  0  0  0  0  0  0  0
    1.9200   -1.9370   26.0210 C   0  0  0  0  0  0  0  0  0  0  0  0
    1.5620   -3.2610   25.3650 C   0  0  0  0  0  0  0  0  0  0  0  0
    2.6050   -4.3260   25.2290 C   0  0  0  0  0  0  0  0  0  0  0  0
    3.9920   -4.0230   25.7660 C   0  0  0  0  0  0  0  0  0  0  0  0
    4.2330   -2.7570   26.3600 C   0  0  0  0  0  0  0  0  0  0  0  0
    3.2440   -1.7630   26.4810 C   0  0  0  0  0  0  0  0  0  0  0  0
    6.6820   -5.2490   21.5200 C   0  0  2  0  0  0  0  0  0  0  0  0
    7.6110   -4.7030   22.3080 C   0  0  2  0  0  0  0  0  0  0  0  0
    7.2980   -4.8950   23.7480 C   0  0  0  0  0  0  0  0  0  0  0  0
    5.8130   -5.0430   24.0630 N   0  0  0  0  0  0  0  0  0  0  0  0
    5.0140   -5.8860   23.1060 C   0  0  0  0  0  0  0  0  0  0  0  0
    5.9250   -6.3850   21.9950 C   0  0  0  0  0  0  0  0  0  0  0  0
  2  4  1  0
  1  7  1  0
  3  7  2  0
  4  7  1  1
  1  8  1  0
  5  9  1  0
  6  9  2  0
  8  9  1  6
 10 11  1  0
 13 14  1  0
 13 15  1  0
  2 16  1  1
 18 20  2  0
 19 20  2  0
 21 22  2  0
 22 23  1  0
 23 24  2  0
  8 25  1  0
 24 25  1  0
 21 26  1  0
 25 26  2  0
 13 28  1  0
 27 28  2  0
 28 29  1  0
 29 30  2  0
  1 31  1  0
 30 31  1  0
 27 32  1  0
 31 32  2  0
 10 33  1  0
 33 34  2  0
 34 35  1  0
 35 36  2  0
 12 37  1  0
 36 37  1  0
  5 38  1  0
 33 38  1  0
 37 38  2  0
 17 39  1  0
 39 40  2  0
 40 41  1  0
 20 42  1  0
 41 42  2  0
 42 43  1  0
 39 44  1  0
 43 44  2  0
  2 45  1  0
  4 45  1  0
  4 46  1  0
 45 46  1  0
 46 47  1  1
 20 48  1  0
 47 48  1  0
 48 49  1  0
 45 50  1  1
 49 50  1  0
M  END
