x2705-x0691-x3117-x3124
     RDKit          3D

 51 56  0  0  0  0  0  0  0  0999 V2000
    6.8490   -1.4560   21.8750 N   0  0  0  0  0  0  0  0  0  0  0  0
    6.7670   -4.6470   20.2590 C   0  0  2  0  0  0  0  0  0  0  0  0
    4.7650   -2.9500   21.2680 O   0  0  0  0  0  0  0  0  0  0  0  0
    6.8760   -3.8650   21.4490 C   0  0  1  0  0  0  0  0  0  0  0  0
    7.4480    2.0020   22.8450 N   0  0  0  0  0  0  0  0  0  0  0  0
    8.8020    0.8960   21.3910 O   0  0  0  0  0  0  0  0  0  0  0  0
    6.0420   -2.6690   21.5260 C   0  0  0  0  0  0  0  0  0  0  0  0
    6.5140   -0.0170   21.5830 C   0  0  1  0  0  0  0  0  0  0  0  0
    7.7000    0.9840   21.9320 C   0  0  0  0  0  0  0  0  0  0  0  0
   10.1130    2.0310   23.9630 C   0  0  0  0  0  0  0  0  0  0  0  0
    9.2420    1.2300   24.9450 C   0  0  0  0  0  0  0  0  0  0  0  0
    6.1010    4.5210   21.8710 C   0  0  0  0  0  0  0  0  0  0  0  0
   11.9450   -1.5660   23.2600 C   0  0  0  0  0  0  0  0  0  0  0  0
   12.4860   -0.2290   23.8300 C   0  0  0  0  0  0  0  0  0  0  0  0
   12.4250   -2.7260   24.1600 C   0  0  0  0  0  0  0  0  0  0  0  0
   12.6120   -1.7580   21.8770 C   0  0  0  0  0  0  0  0  0  0  0  0
   13.4030   -2.4080   25.2610 C   0  0  0  0  0  0  0  0  0  0  0  0
    5.5780   -4.2480   19.6040 O   0  0  0  0  0  0  0  0  0  0  0  0
    3.9610   -7.0230   26.1150 O   0  0  0  0  0  0  0  0  0  0  0  0
    5.7310   -5.1450   26.9920 O   0  0  0  0  0  0  0  0  0  0  0  0
    3.3020   -0.7120   26.0020 F   0  0  0  0  0  0  0  0  0  0  0  0
    4.6680   -5.6160   25.8610 S   0  0  0  0  0  0  0  0  0  0  0  0
    6.3420    0.4020   17.7800 N   0  0  0  0  0  0  0  0  0  0  0  0
    5.2200    1.1550   17.7490 C   0  0  0  0  0  0  0  0  0  0  0  0
    4.3790    1.5980   18.8840 C   0  0  0  0  0  0  0  0  0  0  0  0
    4.7780    1.2150   20.1280 C   0  0  0  0  0  0  0  0  0  0  0  0
    6.0390    0.3770   20.2230 C   0  0  0  0  0  0  0  0  0  0  0  0
    6.7600    0.0080   18.9890 C   0  0  0  0  0  0  0  0  0  0  0  0
    9.6770   -1.6270   24.2660 N   0  0  0  0  0  0  0  0  0  0  0  0
    8.3680   -1.6070   23.9120 N   0  0  0  0  0  0  0  0  0  0  0  0
    8.1490   -1.5250   22.5470 C   0  0  0  0  0  0  0  0  0  0  0  0
    9.4900   -1.5030   22.0960 C   0  0  0  0  0  0  0  0  0  0  0  0
   10.4110   -1.5620   23.1430 C   0  0  0  0  0  0  0  0  0  0  0  0
    9.4140    3.2860   23.4860 C   0  0  0  0  0  0  0  0  0  0  0  0
   10.1260    4.4850   23.6160 C   0  0  0  0  0  0  0  0  0  0  0  0
    9.5170    5.6550   23.1840 C   0  0  0  0  0  0  0  0  0  0  0  0
    8.2430    5.6350   22.6360 C   0  0  0  0  0  0  0  0  0  0  0  0
    7.4760    4.4300   22.4820 C   0  0  0  0  0  0  0  0  0  0  0  0
    8.1050    3.2710   22.9290 C   0  0  0  0  0  0  0  0  0  0  0  0
    2.9000   -1.9890   25.8930 C   0  0  0  0  0  0  0  0  0  0  0  0
    3.8110   -3.0470   25.9140 C   0  0  0  0  0  0  0  0  0  0  0  0
    3.3740   -4.3800   25.8010 C   0  0  0  0  0  0  0  0  0  0  0  0
    1.9970   -4.5990   25.6610 C   0  0  0  0  0  0  0  0  0  0  0  0
    1.1110   -3.5290   25.6430 C   0  0  0  0  0  0  0  0  0  0  0  0
    1.5420   -2.2260   25.7600 C   0  0  0  0  0  0  0  0  0  0  0  0
    6.6110   -5.1430   21.8430 C   0  0  0  0  0  0  0  0  0  0  0  0
    5.2950   -5.7840   22.0410 C   0  0  0  0  0  0  0  0  0  0  0  0
    4.5660   -5.2820   23.2050 C   0  0  0  0  0  0  0  0  0  0  0  0
    5.4040   -5.6270   24.3590 N   0  0  0  0  0  0  0  0  0  0  0  0
    6.8430   -5.2030   24.2890 C   0  0  0  0  0  0  0  0  0  0  0  0
    7.5300   -5.5050   22.9580 C   0  0  0  0  0  0  0  0  0  0  0  0
  2  4  1  0
  1  7  1  0
  3  7  2  0
  4  7  1  6
  1  8  1  0
  5  9  1  0
  6  9  2  0
  8  9  1  6
 10 11  1  0
 13 14  1  0
 13 15  1  0
 13 16  1  0
 15 17  1  0
  2 18  1  6
 19 22  2  0
 20 22  2  0
 23 24  2  0
 24 25  1  0
 25 26  2  0
  8 27  1  0
 26 27  1  0
 23 28  1  0
 27 28  2  0
 29 30  1  0
  1 31  1  0
 30 31  2  0
 31 32  1  0
 13 33  1  0
 29 33  1  0
 32 33  2  0
 10 34  1  0
 34 35  2  0
 35 36  1  0
 36 37  2  0
 12 38  1  0
 37 38  1  0
  5 39  1  0
 34 39  1  0
 38 39  2  0
 21 40  1  0
 40 41  2  0
 22 42  1  0
 41 42  1  0
 42 43  2  0
 43 44  1  0
 40 45  1  0
 44 45  2  0
  2 46  1  0
  4 46  1  0
 46 47  1  0
 47 48  1  0
 22 49  1  0
 48 49  1  0
 49 50  1  0
 46 51  1  0
 50 51  1  0
M  END
