x2703-x2705-x0691-x2643
     RDKit          3D

 51 56  0  0  0  0  0  0  0  0999 V2000
    6.7960   -1.3800   22.0050 N   0  0  0  0  0  0  0  0  0  0  0  0
    6.8020   -4.5160   20.2440 C   0  0  2  0  0  0  0  0  0  0  0  0
    4.7310   -2.9430   21.3580 O   0  0  0  0  0  0  0  0  0  0  0  0
    6.8940   -3.6790   21.3500 C   0  0  1  0  0  0  0  0  0  0  0  0
    7.3740    1.9490   22.7970 N   0  0  0  0  0  0  0  0  0  0  0  0
    8.7280    0.7710   21.3430 O   0  0  0  0  0  0  0  0  0  0  0  0
    6.0220   -2.6150   21.5730 C   0  0  0  0  0  0  0  0  0  0  0  0
    6.5750    0.0560   21.6240 C   0  0  1  0  0  0  0  0  0  0  0  0
    7.6370    0.9060   21.8940 C   0  0  0  0  0  0  0  0  0  0  0  0
   10.0890    2.0100   23.9450 C   0  0  0  0  0  0  0  0  0  0  0  0
    9.2320    1.1710   24.9280 C   0  0  0  0  0  0  0  0  0  0  0  0
    6.1170    4.4950   21.8800 C   0  0  0  0  0  0  0  0  0  0  0  0
   11.8860   -1.5580   23.2220 C   0  0  0  0  0  0  0  0  0  0  0  0
   12.4880   -0.2590   23.8080 C   0  0  0  0  0  0  0  0  0  0  0  0
   12.3520   -2.7330   24.0870 C   0  0  0  0  0  0  0  0  0  0  0  0
   12.5280   -1.7790   21.8410 C   0  0  0  0  0  0  0  0  0  0  0  0
   13.3630   -2.4090   25.2040 C   0  0  0  0  0  0  0  0  0  0  0  0
    5.5570   -4.4450   19.5630 O   0  0  0  0  0  0  0  0  0  0  0  0
    3.7070   -6.8000   25.8600 O   0  0  0  0  0  0  0  0  0  0  0  0
    5.7880   -5.4720   26.8900 O   0  0  0  0  0  0  0  0  0  0  0  0
    3.0120   -0.4970   25.9850 F   0  0  0  0  0  0  0  0  0  0  0  0
    4.6030   -5.6670   25.7760 S   0  0  0  0  0  0  0  0  0  0  0  0
    6.3230    0.3280   17.8510 N   0  0  0  0  0  0  0  0  0  0  0  0
    5.1950    1.0570   17.8040 C   0  0  0  0  0  0  0  0  0  0  0  0
    4.4780    1.4620   18.8890 C   0  0  0  0  0  0  0  0  0  0  0  0
    4.9340    1.1160   20.1280 C   0  0  0  0  0  0  0  0  0  0  0  0
    6.0920    0.3790   20.2380 C   0  0  0  0  0  0  0  0  0  0  0  0
    6.7600   -0.0060   19.0790 C   0  0  0  0  0  0  0  0  0  0  0  0
    9.6880   -1.6760   24.3220 N   0  0  0  0  0  0  0  0  0  0  0  0
    8.3900   -1.6370   24.0160 N   0  0  0  0  0  0  0  0  0  0  0  0
    8.1140   -1.4850   22.6170 C   0  0  0  0  0  0  0  0  0  0  0  0
    9.4310   -1.4400   22.0690 C   0  0  0  0  0  0  0  0  0  0  0  0
   10.3490   -1.5550   23.1470 C   0  0  0  0  0  0  0  0  0  0  0  0
    9.3710    3.2430   23.4660 C   0  0  0  0  0  0  0  0  0  0  0  0
   10.0570    4.4570   23.5880 C   0  0  0  0  0  0  0  0  0  0  0  0
    9.4760    5.6610   23.1660 C   0  0  0  0  0  0  0  0  0  0  0  0
    8.1940    5.6230   22.6170 C   0  0  0  0  0  0  0  0  0  0  0  0
    7.4920    4.4250   22.4870 C   0  0  0  0  0  0  0  0  0  0  0  0
    8.0610    3.2110   22.9090 C   0  0  0  0  0  0  0  0  0  0  0  0
    2.8140   -1.8180   25.8970 C   0  0  0  0  0  0  0  0  0  0  0  0
    3.8990   -2.7080   25.9010 C   0  0  0  0  0  0  0  0  0  0  0  0
    3.6150   -4.0630   25.8090 C   0  0  0  0  0  0  0  0  0  0  0  0
    2.4000   -4.7320   25.7050 C   0  0  0  0  0  0  0  0  0  0  0  0
    1.2780   -3.8870   25.6970 C   0  0  0  0  0  0  0  0  0  0  0  0
    1.5130   -2.3570   25.8000 C   0  0  0  0  0  0  0  0  0  0  0  0
    6.6270   -5.1120   21.7180 C   0  0  0  0  0  0  0  0  0  0  0  0
    5.3050   -5.8400   21.8290 C   0  0  0  0  0  0  0  0  0  0  0  0
    4.5050   -5.3180   23.0350 C   0  0  0  0  0  0  0  0  0  0  0  0
    5.2980   -5.6690   24.2240 N   0  0  0  0  0  0  0  0  0  0  0  0
    6.7460   -5.2460   24.1970 C   0  0  0  0  0  0  0  0  0  0  0  0
    7.5250   -5.4410   22.8900 C   0  0  0  0  0  0  0  0  0  0  0  0
  2  4  1  0
  1  7  1  0
  3  7  2  0
  4  7  1  6
  1  8  1  0
  5  9  1  0
  6  9  2  0
  8  9  1  6
 10 11  1  0
 13 14  1  0
 13 15  1  0
 13 16  1  0
 15 17  1  0
  2 18  1  6
 19 22  2  0
 20 22  2  0
 23 24  2  0
 24 25  1  0
 25 26  2  0
  8 27  1  0
 26 27  1  0
 23 28  1  0
 27 28  2  0
 29 30  1  0
  1 31  1  0
 30 31  1  0
 31 32  2  0
 13 33  1  0
 29 33  2  0
 32 33  1  0
 10 34  1  0
 34 35  2  0
 35 36  1  0
 36 37  2  0
 12 38  1  0
 37 38  1  0
  5 39  1  0
 34 39  1  0
 38 39  2  0
 21 40  1  0
 40 41  2  0
 22 42  1  0
 41 42  1  0
 42 43  2  0
 43 44  1  0
 40 45  1  0
 44 45  2  0
  2 46  1  0
  4 46  1  0
 46 47  1  0
 47 48  1  0
 22 49  1  0
 48 49  1  0
 49 50  1  0
 46 51  1  0
 50 51  1  0
M  END
