x2705-x0691-x3117-x0305
     RDKit          3D

 54 59  0  0  0  0  0  0  0  0999 V2000
    6.9390   -1.4430   21.7430 N   0  0  0  0  0  0  0  0  0  0  0  0
    6.6060   -4.5540   20.4180 C   0  0  2  0  0  0  0  0  0  0  0  0
    4.7850   -2.9450   21.2210 O   0  0  0  0  0  0  0  0  0  0  0  0
    6.7660   -3.9000   21.7530 C   0  0  1  0  0  0  0  0  0  0  0  0
    7.4170    2.0850   22.8430 N   0  0  0  0  0  0  0  0  0  0  0  0
    8.6270    1.3120   21.1540 O   0  0  0  0  0  0  0  0  0  0  0  0
    6.0570   -2.6730   21.5550 C   0  0  0  0  0  0  0  0  0  0  0  0
    6.5410    0.0120   21.5310 C   0  0  1  0  0  0  0  0  0  0  0  0
    7.5980    1.1520   21.8420 C   0  0  0  0  0  0  0  0  0  0  0  0
    9.9010    1.9390   24.1550 C   0  0  0  0  0  0  0  0  0  0  0  0
    8.8850    1.3380   25.1410 C   0  0  0  0  0  0  0  0  0  0  0  0
    6.2680    4.6030   21.7650 C   0  0  0  0  0  0  0  0  0  0  0  0
   11.9830   -1.5260   23.2450 C   0  0  2  0  0  0  0  0  0  0  0  0
   12.4200   -0.1800   23.8850 C   0  0  0  0  0  0  0  0  0  0  0  0
   12.4460   -2.7150   24.1270 C   0  0  0  0  0  0  0  0  0  0  0  0
   12.7410   -1.6800   21.9080 C   0  0  0  0  0  0  0  0  0  0  0  0
   13.4070   -2.4500   25.2590 C   0  0  0  0  0  0  0  0  0  0  0  0
    5.3700   -4.4570   19.7210 O   0  0  0  0  0  0  0  0  0  0  0  0
    4.1070   -6.8460   25.8460 O   0  0  0  0  0  0  0  0  0  0  0  0
    5.8380   -5.2050   26.6500 O   0  0  0  0  0  0  0  0  0  0  0  0
    3.2470   -0.6580   25.9800 F   0  0  0  0  0  0  0  0  0  0  0  0
    4.8050   -5.5830   25.7110 S   0  0  0  0  0  0  0  0  0  0  0  0
    8.5360   -0.0340   27.2310 C   0  0  0  0  0  0  0  0  0  0  0  0
    9.2570    0.0500   25.8860 C   0  0  0  0  0  0  0  0  0  0  0  0
   13.3540   -1.8050   20.9270 N   0  0  0  0  0  0  0  0  0  0  0  0
    6.3120    0.3740   17.7810 N   0  0  0  0  0  0  0  0  0  0  0  0
    5.2020    1.1130   17.7650 C   0  0  0  0  0  0  0  0  0  0  0  0
    4.4620    1.5150   18.8360 C   0  0  0  0  0  0  0  0  0  0  0  0
    4.9040    1.1340   20.0720 C   0  0  0  0  0  0  0  0  0  0  0  0
    6.0690    0.3690   20.1670 C   0  0  0  0  0  0  0  0  0  0  0  0
    6.7230    0.0150   19.0000 C   0  0  0  0  0  0  0  0  0  0  0  0
    9.6880   -1.8630   24.1390 N   0  0  0  0  0  0  0  0  0  0  0  0
    8.4020   -1.8450   23.7410 N   0  0  0  0  0  0  0  0  0  0  0  0
    8.2390   -1.5500   22.4120 C   0  0  0  0  0  0  0  0  0  0  0  0
    9.5700   -1.3760   21.9690 C   0  0  0  0  0  0  0  0  0  0  0  0
   10.4400   -1.5810   23.0900 C   0  0  0  0  0  0  0  0  0  0  0  0
    9.3860    3.2650   23.6160 C   0  0  0  0  0  0  0  0  0  0  0  0
   10.1070    4.4700   23.7440 C   0  0  0  0  0  0  0  0  0  0  0  0
    9.5910    5.6710   23.2450 C   0  0  0  0  0  0  0  0  0  0  0  0
    8.3470    5.6800   22.6100 C   0  0  0  0  0  0  0  0  0  0  0  0
    7.6010    4.4940   22.4630 C   0  0  0  0  0  0  0  0  0  0  0  0
    8.1330    3.2930   22.9700 C   0  0  0  0  0  0  0  0  0  0  0  0
    2.9090   -1.9500   25.8620 C   0  0  0  0  0  0  0  0  0  0  0  0
    3.9020   -2.9450   25.8450 C   0  0  0  0  0  0  0  0  0  0  0  0
    3.5590   -4.3060   25.7230 C   0  0  0  0  0  0  0  0  0  0  0  0
    2.1970   -4.6530   25.6130 C   0  0  0  0  0  0  0  0  0  0  0  0
    1.2090   -3.6550   25.6300 C   0  0  0  0  0  0  0  0  0  0  0  0
    1.5670   -2.3120   25.7560 C   0  0  0  0  0  0  0  0  0  0  0  0
    6.5960   -5.3710   21.6430 C   0  0  0  0  0  0  0  0  0  0  0  0
    5.7530   -6.4840   21.9610 C   0  0  0  0  0  0  0  0  0  0  0  0
    4.7470   -5.9850   23.0270 C   0  0  0  0  0  0  0  0  0  0  0  0
    5.4790   -5.4650   24.1780 N   0  0  0  0  0  0  0  0  0  0  0  0
    6.3560   -4.3480   23.8100 C   0  0  0  0  0  0  0  0  0  0  0  0
    7.3430   -4.8640   22.7820 C   0  0  0  0  0  0  0  0  0  0  0  0
  2  4  1  0
  1  7  1  0
  3  7  2  0
  4  7  1  1
  1  8  1  0
  5  9  1  0
  6  9  2  0
  8  9  1  6
 10 11  1  0
 13 14  1  1
 13 15  1  0
 13 16  1  0
 15 17  1  0
  2 18  1  1
 19 22  2  0
 20 22  2  0
 11 24  1  0
 23 24  1  0
 16 25  3  0
 26 27  2  0
 27 28  1  0
 28 29  2  0
  8 30  1  0
 29 30  1  0
 26 31  1  0
 30 31  2  0
 32 33  1  0
  1 34  1  0
 33 34  2  0
 34 35  1  0
 13 36  1  0
 32 36  1  0
 35 36  2  0
 10 37  1  0
 37 38  2  0
 38 39  1  0
 39 40  2  0
 12 41  1  0
 40 41  1  0
  5 42  1  0
 37 42  1  0
 41 42  2  0
 21 43  1  0
 43 44  2  0
 22 45  1  0
 44 45  1  0
 45 46  2  0
 46 47  1  0
 43 48  1  0
 47 48  2  0
  2 49  1  0
  4 49  1  0
 49 50  1  0
 50 51  1  0
 22 52  1  0
 51 52  1  0
 52 53  1  0
 49 54  1  0
 53 54  1  0
M  END
