x2703-x1402
     RDKit          3D

 49 54  0  0  0  0  0  0  0  0999 V2000
    6.8040   -1.4870   21.8460 N   0  0  0  0  0  0  0  0  0  0  0  0
    6.7380   -4.6380   20.3050 C   0  0  2  0  0  0  0  0  0  0  0  0
    4.7440   -2.9480   21.2830 O   0  0  0  0  0  0  0  0  0  0  0  0
    6.8800   -3.7800   21.4650 C   0  0  1  0  0  0  0  0  0  0  0  0
    7.2580    1.9100   22.7990 N   0  0  0  0  0  0  0  0  0  0  0  0
    8.7300    0.7330   21.4480 O   0  0  0  0  0  0  0  0  0  0  0  0
    5.9950   -2.6760   21.5230 C   0  0  0  0  0  0  0  0  0  0  0  0
    6.4500   -0.0560   21.5700 C   0  0  1  0  0  0  0  0  0  0  0  0
    7.6020    0.8660   21.9210 C   0  0  0  0  0  0  0  0  0  0  0  0
    9.8710    1.9150   24.0620 C   0  0  0  0  0  0  0  0  0  0  0  0
    9.1160    1.1370   25.1290 C   0  0  0  0  0  0  0  0  0  0  0  0
    6.0910    4.3050   21.7350 C   0  0  0  0  0  0  0  0  0  0  0  0
   11.9030   -1.6720   24.4920 C   0  0  0  0  0  0  0  0  0  0  0  0
   12.5440   -2.8910   24.6230 C   0  0  0  0  0  0  0  0  0  0  0  0
   12.8770   -0.7380   23.7850 C   0  0  0  0  0  0  0  0  0  0  0  0
    5.4950   -4.6310   19.6150 O   0  0  0  0  0  0  0  0  0  0  0  0
    0.7820   -1.4760   26.1830 Cl  0  0  0  0  0  0  0  0  0  0  0  0
    4.0950   -6.4330   26.2200 O   0  0  0  0  0  0  0  0  0  0  0  0
    6.1610   -5.3090   26.9790 O   0  0  0  0  0  0  0  0  0  0  0  0
    5.0880   -5.3300   25.9250 S   0  0  0  0  0  0  0  0  0  0  0  0
    6.2940    0.4690   17.8830 N   0  0  0  0  0  0  0  0  0  0  0  0
    5.1340    1.1430   17.8060 C   0  0  0  0  0  0  0  0  0  0  0  0
    4.3050    1.4630   18.8580 C   0  0  0  0  0  0  0  0  0  0  0  0
    4.6670    1.0750   20.2100 C   0  0  0  0  0  0  0  0  0  0  0  0
    5.9400    0.3580   20.2600 C   0  0  0  0  0  0  0  0  0  0  0  0
    6.6760    0.0890   19.1070 C   0  0  0  0  0  0  0  0  0  0  0  0
   10.5640   -2.0130   22.4710 N   0  0  0  0  0  0  0  0  0  0  0  0
   10.6200   -1.6590   23.7740 C   0  0  0  0  0  0  0  0  0  0  0  0
    9.4730   -1.2740   24.4510 C   0  0  0  0  0  0  0  0  0  0  0  0
    8.2690   -1.2390   23.8220 C   0  0  0  0  0  0  0  0  0  0  0  0
    8.1100   -1.5680   22.4970 C   0  0  0  0  0  0  0  0  0  0  0  0
    9.3170   -1.9540   21.8840 C   0  0  0  0  0  0  0  0  0  0  0  0
    9.2780    3.1670   23.5110 C   0  0  0  0  0  0  0  0  0  0  0  0
    9.9610    4.3780   23.5910 C   0  0  0  0  0  0  0  0  0  0  0  0
    9.4090    5.5490   23.0850 C   0  0  0  0  0  0  0  0  0  0  0  0
    8.1510    5.5510   22.4760 C   0  0  0  0  0  0  0  0  0  0  0  0
    7.4560    4.3250   22.3910 C   0  0  0  0  0  0  0  0  0  0  0  0
    8.0110    3.1320   22.9060 C   0  0  0  0  0  0  0  0  0  0  0  0
    6.6610   -5.2440   21.7190 C   0  0  0  0  0  0  0  0  0  0  0  0
    7.6430   -5.5740   22.8000 C   0  0  0  0  0  0  0  0  0  0  0  0
    7.1160   -5.0860   24.1640 C   0  0  0  0  0  0  0  0  0  0  0  0
    5.7240   -5.5240   24.3850 N   0  0  0  0  0  0  0  0  0  0  0  0
    4.7650   -5.2690   23.3090 C   0  0  0  0  0  0  0  0  0  0  0  0
    5.3400   -5.8600   22.0290 C   0  0  0  0  0  0  0  0  0  0  0  0
    2.4710   -3.8810   26.0150 S   0  0  0  0  0  0  0  0  0  0  0  0
    4.1800   -3.8050   26.0100 C   0  0  0  0  0  0  0  0  0  0  0  0
    4.5990   -2.4930   26.0760 C   0  0  0  0  0  0  0  0  0  0  0  0
    3.5470   -1.5430   26.1360 C   0  0  0  0  0  0  0  0  0  0  0  0
    2.3400   -2.1930   26.1140 C   0  0  0  0  0  0  0  0  0  0  0  0
  2  4  1  0
  1  7  1  0
  3  7  2  0
  4  7  1  1
  1  8  1  0
  5  9  1  0
  6  9  2  0
  8  9  1  6
 10 11  1  0
 13 14  1  0
 13 15  1  0
  2 16  1  1
 18 20  2  0
 19 20  2  0
 21 22  2  0
 22 23  1  0
 23 24  2  0
  8 25  1  0
 24 25  1  0
 21 26  1  0
 25 26  2  0
 13 28  1  0
 27 28  2  0
 28 29  1  0
 29 30  2  0
  1 31  1  0
 30 31  1  0
 27 32  1  0
 31 32  2  0
 10 33  1  0
 33 34  2  0
 34 35  1  0
 35 36  2  0
 12 37  1  0
 36 37  1  0
  5 38  1  0
 33 38  1  0
 37 38  2  0
  2 39  1  0
  4 39  1  0
 39 40  1  0
 40 41  1  0
 20 42  1  0
 41 42  1  0
 42 43  1  0
 39 44  1  0
 43 44  1  0
 20 46  1  0
 45 46  1  0
 46 47  2  0
 47 48  1  0
 17 49  1  0
 45 49  1  0
 48 49  2  0
M  END
