x2705-x0691-x2572-x1493
     RDKit          3D

 53 58  0  0  0  0  0  0  0  0999 V2000
    6.8800   -1.4520   21.9170 N   0  0  0  0  0  0  0  0  0  0  0  0
    6.6510   -4.5790   20.2830 C   0  0  2  0  0  0  0  0  0  0  0  0
    4.7430   -2.9340   21.3130 O   0  0  0  0  0  0  0  0  0  0  0  0
    6.8030   -3.8540   21.5090 C   0  0  1  0  0  0  0  0  0  0  0  0
    7.4720    2.0930   22.7230 N   0  0  0  0  0  0  0  0  0  0  0  0
    8.8820    0.7750   21.5070 O   0  0  0  0  0  0  0  0  0  0  0  0
    6.0350   -2.6640   21.5820 C   0  0  0  0  0  0  0  0  0  0  0  0
    6.5740   -0.0140   21.5720 C   0  0  1  0  0  0  0  0  0  0  0  0
    7.7400    0.9720   21.9440 C   0  0  0  0  0  0  0  0  0  0  0  0
   10.2010    2.0190   23.8980 C   0  0  0  0  0  0  0  0  0  0  0  0
    9.3220    1.2450   24.8830 C   0  0  0  0  0  0  0  0  0  0  0  0
    6.1740    4.4630   21.8620 C   0  0  0  0  0  0  0  0  0  0  0  0
   12.0050   -1.5390   23.2690 C   0  0  0  0  0  0  0  0  0  0  0  0
   12.5100   -0.1730   23.8020 C   0  0  0  0  0  0  0  0  0  0  0  0
   12.4680   -2.6390   24.2870 C   0  0  0  0  0  0  0  0  0  0  0  0
   12.7400   -1.7700   21.9350 C   0  0  0  0  0  0  0  0  0  0  0  0
    5.4660   -4.3300   19.5420 O   0  0  0  0  0  0  0  0  0  0  0  0
    3.8130   -4.8210   24.7840 O   0  0  0  0  0  0  0  0  0  0  0  0
    5.6950   -4.9530   27.0750 C   0  0  0  0  0  0  0  0  0  0  0  0
    2.6450   -0.4660   26.2710 F   0  0  0  0  0  0  0  0  0  0  0  0
    4.9740   -5.2060   25.5170 S   0  0  1  0  0  0  0  0  0  0  0  0
    4.2220    1.6720   21.2910 C   0  0  0  0  0  0  0  0  0  0  0  0
   13.3410   -1.9240   20.9500 N   0  0  0  0  0  0  0  0  0  0  0  0
    6.2630   -4.8610   28.0820 O   0  0  0  0  0  0  0  0  0  0  0  0
    6.3330    0.3020   17.7970 N   0  0  0  0  0  0  0  0  0  0  0  0
    5.2080    1.1290   17.7760 C   0  0  0  0  0  0  0  0  0  0  0  0
    4.5490    1.5450   18.9000 C   0  0  0  0  0  0  0  0  0  0  0  0
    5.0020    1.1540   20.1270 C   0  0  0  0  0  0  0  0  0  0  0  0
    6.1170    0.3420   20.1900 C   0  0  0  0  0  0  0  0  0  0  0  0
    6.7500   -0.0670   19.0130 C   0  0  0  0  0  0  0  0  0  0  0  0
    9.7190   -1.5820   24.3060 N   0  0  0  0  0  0  0  0  0  0  0  0
    8.4110   -1.5670   23.9500 N   0  0  0  0  0  0  0  0  0  0  0  0
    8.1880   -1.5150   22.5910 C   0  0  0  0  0  0  0  0  0  0  0  0
    9.5430   -1.5080   22.1250 C   0  0  0  0  0  0  0  0  0  0  0  0
   10.4670   -1.5430   23.1710 C   0  0  0  0  0  0  0  0  0  0  0  0
    9.4560    3.2470   23.4380 C   0  0  0  0  0  0  0  0  0  0  0  0
   10.1350    4.4950   23.5860 C   0  0  0  0  0  0  0  0  0  0  0  0
    9.5010    5.6770   23.1730 C   0  0  0  0  0  0  0  0  0  0  0  0
    8.2250    5.6430   22.6210 C   0  0  0  0  0  0  0  0  0  0  0  0
    7.5520    4.4260   22.4720 C   0  0  0  0  0  0  0  0  0  0  0  0
    8.1540    3.2200   22.8800 C   0  0  0  0  0  0  0  0  0  0  0  0
    2.6110   -1.7910   26.0980 C   0  0  0  0  0  0  0  0  0  0  0  0
    3.8100   -2.4880   25.9670 C   0  0  0  0  0  0  0  0  0  0  0  0
    3.7100   -3.8360   25.7870 C   0  0  0  0  0  0  0  0  0  0  0  0
    2.5870   -4.6580   25.7150 C   0  0  0  0  0  0  0  0  0  0  0  0
    1.3730   -3.9230   25.8530 C   0  0  0  0  0  0  0  0  0  0  0  0
    1.3950   -2.5040   26.0420 C   0  0  0  0  0  0  0  0  0  0  0  0
    6.4180   -5.3130   21.6040 C   0  0  0  0  0  0  0  0  0  0  0  0
    5.1420   -5.7340   21.8710 C   0  0  0  0  0  0  0  0  0  0  0  0
    4.6570   -6.2630   23.1850 C   0  0  0  0  0  0  0  0  0  0  0  0
    5.5900   -6.1030   24.2790 N   0  0  0  0  0  0  0  0  0  0  0  0
    6.9270   -5.6560   23.8600 C   0  0  0  0  0  0  0  0  0  0  0  0
    7.3260   -6.0660   22.4640 C   0  0  0  0  0  0  0  0  0  0  0  0
  2  4  1  0
  1  7  1  0
  3  7  2  0
  4  7  1  6
  1  8  1  0
  5  9  1  0
  6  9  2  0
  8  9  1  6
 10 11  1  0
 13 14  1  0
 13 15  1  0
 13 16  1  0
  2 17  1  6
 18 21  2  0
 19 21  2  0
 16 23  3  0
 19 24  2  0
 25 26  2  0
 26 27  1  0
 22 28  1  0
 27 28  2  0
  8 29  1  0
 28 29  1  0
 25 30  1  0
 29 30  2  0
 31 32  1  0
  1 33  1  0
 32 33  2  0
 33 34  1  0
 13 35  1  0
 31 35  1  0
 34 35  2  0
 10 36  1  0
 36 37  2  0
 37 38  1  0
 38 39  2  0
 12 40  1  0
 39 40  1  0
  5 41  1  0
 36 41  1  0
 40 41  2  0
 20 42  1  0
 42 43  2  0
 21 44  1  6
 43 44  1  0
 44 45  2  0
 45 46  1  0
 42 47  1  0
 46 47  2  0
  2 48  1  0
  4 48  1  0
 48 49  1  0
 49 50  1  0
 21 51  1  0
 50 51  1  0
 51 52  1  0
 48 53  1  0
 52 53  1  0
M  END
