x2705-x0691-x3117-x1119
     RDKit          3D

 75 82  0  0  0  0  0  0  0  0999 V2000
    6.9680   -1.4380   21.8180 N   0  0  0  0  0  0  0  0  0  0  0  0
    6.7240   -4.6430   20.2600 C   0  0  2  0  0  0  0  0  0  0  0  0
    4.7860   -2.9460   21.2490 O   0  0  0  0  0  0  0  0  0  0  0  0
    6.8420   -3.9100   21.4920 C   0  0  1  0  0  0  0  0  0  0  0  0
    7.5290    1.9620   22.8770 N   0  0  0  0  0  0  0  0  0  0  0  0
    8.6590    1.2130   21.0620 O   0  0  0  0  0  0  0  0  0  0  0  0
    6.0890   -2.6660   21.5170 C   0  0  0  0  0  0  0  0  0  0  0  0
    6.5550   -0.0080   21.5610 C   0  0  1  0  0  0  0  0  0  0  0  0
    7.6850    1.0860   21.8150 C   0  0  0  0  0  0  0  0  0  0  0  0
   10.1690    2.0530   23.9840 C   0  0  0  0  0  0  0  0  0  0  0  0
    9.3030    1.2160   24.9410 C   0  0  0  0  0  0  0  0  0  0  0  0
    6.1700    4.5280   21.9200 C   0  0  0  0  0  0  0  0  0  0  0  0
   12.2610   -1.0090   22.8590 C   0  0  2  0  0  0  0  0  0  0  0  0
   12.9600    0.3780   23.3750 C   0  0  0  0  0  0  0  0  0  0  0  0
   12.8390   -2.1690   23.7300 C   0  0  0  0  0  0  0  0  0  0  0  0
   12.8570   -1.5210   21.5380 C   0  0  0  0  0  0  0  0  0  0  0  0
   12.7920   -2.0150   25.2120 C   0  0  0  0  0  0  0  0  0  0  0  0
    5.5460   -4.2190   19.6010 O   0  0  0  0  0  0  0  0  0  0  0  0
    3.9960   -6.9480   25.9490 O   0  0  0  0  0  0  0  0  0  0  0  0
    5.7920   -5.2400   27.0240 O   0  0  0  0  0  0  0  0  0  0  0  0
    3.1230   -0.6190   25.9920 F   0  0  0  0  0  0  0  0  0  0  0  0
    4.7230   -5.5310   25.8400 S   0  0  0  0  0  0  0  0  0  0  0  0
   21.4240    7.9530   22.2690 N   0  0  0  0  0  0  0  0  0  0  0  0
   21.3540    2.6020   25.9270 N   0  0  0  0  0  0  0  0  0  0  0  0
   23.3900    3.5460   27.0800 N   0  0  0  0  0  0  0  0  0  0  0  0
   23.8140    2.4510   24.8770 O   0  0  0  0  0  0  0  0  0  0  0  0
   22.7590    3.1940   25.5470 S   0  0  1  0  0  0  0  0  0  0  0  0
   13.2980    1.8570   22.7060 C   0  0  0  0  0  0  0  0  0  0  0  0
   14.7260    2.2540   22.0570 C   0  0  0  0  0  0  0  0  0  0  0  0
   15.7690    3.4700   22.3770 C   0  0  0  0  0  0  0  0  0  0  0  0
   17.3500    3.4130   23.1880 C   0  0  0  0  0  0  0  0  0  0  0  0
   18.0630    3.7960   24.4460 C   0  0  0  0  0  0  0  0  0  0  0  0
   19.3800    3.2280   24.8220 C   0  0  0  0  0  0  0  0  0  0  0  0
   20.1260    3.3170   26.0510 C   0  0  0  0  0  0  0  0  0  0  0  0
    6.3030    0.4200   17.8850 N   0  0  0  0  0  0  0  0  0  0  0  0
    5.1670    1.1160   17.7500 C   0  0  0  0  0  0  0  0  0  0  0  0
    4.4260    1.4400   18.8710 C   0  0  0  0  0  0  0  0  0  0  0  0
    4.8360    1.0770   20.1370 C   0  0  0  0  0  0  0  0  0  0  0  0
    6.0120    0.3800   20.2370 C   0  0  0  0  0  0  0  0  0  0  0  0
    6.7110    0.0630   19.1030 C   0  0  0  0  0  0  0  0  0  0  0  0
    9.9080   -1.5350   23.9930 N   0  0  0  0  0  0  0  0  0  0  0  0
    8.5560   -1.6620   23.7640 N   0  0  0  0  0  0  0  0  0  0  0  0
    8.3320   -1.4260   22.4480 C   0  0  0  0  0  0  0  0  0  0  0  0
    9.6230   -1.1590   21.9260 C   0  0  0  0  0  0  0  0  0  0  0  0
   10.6690   -1.2140   22.8840 C   0  0  0  0  0  0  0  0  0  0  0  0
    9.4450    3.2960   23.5090 C   0  0  0  0  0  0  0  0  0  0  0  0
   10.1230    4.5140   23.6340 C   0  0  0  0  0  0  0  0  0  0  0  0
    9.5130    5.6970   23.2090 C   0  0  0  0  0  0  0  0  0  0  0  0
    8.2300    5.6600   22.6590 C   0  0  0  0  0  0  0  0  0  0  0  0
    7.5440    4.4470   22.5310 C   0  0  0  0  0  0  0  0  0  0  0  0
    8.1530    3.2430   22.9640 C   0  0  0  0  0  0  0  0  0  0  0  0
    2.8710   -1.9350   25.9060 C   0  0  0  0  0  0  0  0  0  0  0  0
    4.0190   -2.9110   25.9250 C   0  0  0  0  0  0  0  0  0  0  0  0
    3.5770   -4.3090   25.8260 C   0  0  0  0  0  0  0  0  0  0  0  0
    2.1120   -4.6690   25.7140 C   0  0  0  0  0  0  0  0  0  0  0  0
    1.0930   -3.5530   25.7100 C   0  0  0  0  0  0  0  0  0  0  0  0
    1.5180   -2.2640   25.8070 C   0  0  0  0  0  0  0  0  0  0  0  0
    6.5100   -5.2050   21.8060 C   0  0  0  0  0  0  0  0  0  0  0  0
    5.2160   -5.6740   21.9380 C   0  0  0  0  0  0  0  0  0  0  0  0
    4.9140   -6.2980   23.2660 C   0  0  0  0  0  0  0  0  0  0  0  0
    5.4530   -5.4170   24.3060 N   0  0  0  0  0  0  0  0  0  0  0  0
    6.9340   -5.2860   24.2320 C   0  0  0  0  0  0  0  0  0  0  0  0
    7.4550   -5.6530   22.9030 C   0  0  0  0  0  0  0  0  0  0  0  0
   21.7600    6.8350   23.0380 C   0  0  0  0  0  0  0  0  0  0  0  0
   22.7760    5.9650   22.6290 C   0  0  0  0  0  0  0  0  0  0  0  0
   23.1010    4.8510   23.3970 C   0  0  0  0  0  0  0  0  0  0  0  0
   22.3980    4.6110   24.5750 C   0  0  0  0  0  0  0  0  0  0  0  0
   21.3960    5.4720   24.9950 C   0  0  0  0  0  0  0  0  0  0  0  0
   21.0790    6.5790   24.2260 C   0  0  0  0  0  0  0  0  0  0  0  0
   24.7740    4.7440   28.5630 N   0  0  0  0  0  0  0  0  0  0  0  0
   25.8030    5.5840   28.8030 C   0  0  0  0  0  0  0  0  0  0  0  0
   26.5850    6.1410   27.8110 C   0  0  0  0  0  0  0  0  0  0  0  0
   26.2900    5.8140   26.4940 C   0  0  0  0  0  0  0  0  0  0  0  0
   25.2290    4.9460   26.2200 C   0  0  0  0  0  0  0  0  0  0  0  0
   24.4800    4.4230   27.2820 C   0  0  0  0  0  0  0  0  0  0  0  0
  2  4  1  0
  1  7  1  0
  3  7  2  0
  4  7  1  6
  1  8  1  0
  5  9  1  0
  6  9  2  0
  8  9  1  6
 10 11  1  0
 13 14  1  0
 13 15  1  0
 13 16  1  6
 15 17  1  0
  2 18  1  6
 19 22  2  0
 20 22  2  0
 24 27  2  0
 27 25  1  1
 26 27  2  0
 14 28  1  0
 28 29  1  0
 29 30  1  0
 30 31  1  0
 31 32  1  0
 32 33  1  0
 24 34  1  0
 33 34  1  0
 35 36  2  0
 36 37  1  0
 37 38  2  0
  8 39  1  0
 38 39  1  0
 35 40  1  0
 39 40  2  0
 41 42  1  0
  1 43  1  0
 42 43  2  0
 43 44  1  0
 13 45  1  0
 41 45  1  0
 44 45  2  0
 10 46  1  0
 46 47  2  0
 47 48  1  0
 48 49  2  0
 12 50  1  0
 49 50  1  0
  5 51  1  0
 46 51  1  0
 50 51  2  0
 21 52  1  0
 52 53  2  0
 22 54  1  0
 53 54  1  0
 54 55  2  0
 55 56  1  0
 52 57  1  0
 56 57  2  0
  2 58  1  0
  4 58  1  0
 58 59  1  0
 59 60  1  0
 22 61  1  0
 60 61  1  0
 61 62  1  0
 58 63  1  0
 62 63  1  0
 23 64  1  0
 64 65  2  0
 65 66  1  0
 27 67  1  0
 66 67  2  0
 67 68  1  0
 64 69  1  0
 68 69  2  0
 70 71  2  0
 71 72  1  0
 72 73  2  0
 73 74  1  0
 25 75  1  0
 70 75  1  0
 74 75  2  0
M  END
