x2705-x0691-x3117-x0991
     RDKit          3D

 57 65  0  0  0  0  0  0  0  0999 V2000
    6.8510   -1.3360   21.9210 N   0  0  0  0  0  0  0  0  0  0  0  0
    6.8730   -4.5620   20.4700 C   0  0  2  0  0  0  0  0  0  0  0  0
    4.7670   -2.9300   21.2430 O   0  0  0  0  0  0  0  0  0  0  0  0
    6.9310   -3.6620   21.5740 C   0  0  2  0  0  0  0  0  0  0  0  0
    7.5480    2.2080   22.7120 N   0  0  0  0  0  0  0  0  0  0  0  0
    8.7400    1.2130   21.0620 O   0  0  0  0  0  0  0  0  0  0  0  0
    6.0320   -2.5720   21.5540 C   0  0  0  0  0  0  0  0  0  0  0  0
    6.5520    0.1140   21.5850 C   0  0  1  0  0  0  0  0  0  0  0  0
    7.7290    1.2070   21.7630 C   0  0  0  0  0  0  0  0  0  0  0  0
   10.1610    2.1090   23.9510 C   0  0  0  0  0  0  0  0  0  0  0  0
    9.3090    1.2450   24.8620 C   0  0  0  0  0  0  0  0  0  0  0  0
    6.1520    4.4990   21.8600 C   0  0  0  0  0  0  0  0  0  0  0  0
   12.0110   -1.4890   23.2010 C   0  0  0  0  0  0  0  0  0  0  0  0
   12.6030   -0.2090   23.8300 C   0  0  0  0  0  0  0  0  0  0  0  0
   12.4430   -2.7160   23.9950 C   0  0  0  0  0  0  0  0  0  0  0  0
   12.6620   -1.6760   21.8170 C   0  0  0  0  0  0  0  0  0  0  0  0
   13.3510   -2.5100   25.1820 C   0  0  0  0  0  0  0  0  0  0  0  0
    5.6660   -4.5110   19.7030 O   0  0  0  0  0  0  0  0  0  0  0  0
    3.8890   -6.9610   25.9960 O   0  0  0  0  0  0  0  0  0  0  0  0
    5.5780   -5.3710   26.9860 O   0  0  0  0  0  0  0  0  0  0  0  0
    3.3860   -0.7280   26.0370 F   0  0  0  0  0  0  0  0  0  0  0  0
    4.6400   -5.7230   25.9440 S   0  0  0  0  0  0  0  0  0  0  0  0
    9.5810   -6.1020   24.8340 N   0  0  0  0  0  0  0  0  0  0  0  0
    8.7700   -4.4200   23.4590 C   0  0  0  0  0  0  0  0  0  0  0  0
    7.8520   -4.4300   24.4710 C   0  0  1  0  0  0  0  0  0  0  0  0
    7.6970   -5.7500   26.4420 N   0  0  0  0  0  0  0  0  0  0  0  0
    8.3400   -5.4590   25.2940 C   0  0  0  0  0  0  0  0  0  0  0  0
    8.0040   -3.4650   22.6240 C   0  0  2  0  0  0  0  0  0  0  0  0
    6.2810    0.3920   17.8230 N   0  0  0  0  0  0  0  0  0  0  0  0
    5.1270    1.1100   17.7500 C   0  0  0  0  0  0  0  0  0  0  0  0
    4.3830    1.5040   18.8080 C   0  0  0  0  0  0  0  0  0  0  0  0
    4.8880    1.1280   20.1620 C   0  0  0  0  0  0  0  0  0  0  0  0
    6.0310    0.4350   20.2410 C   0  0  0  0  0  0  0  0  0  0  0  0
    6.7450    0.0470   19.0110 C   0  0  0  0  0  0  0  0  0  0  0  0
    9.6780   -1.3420   24.2230 N   0  0  0  0  0  0  0  0  0  0  0  0
    8.3020   -1.3040   23.9580 N   0  0  0  0  0  0  0  0  0  0  0  0
    8.1450   -1.3730   22.6180 C   0  0  0  0  0  0  0  0  0  0  0  0
    9.4880   -1.4570   22.1330 C   0  0  0  0  0  0  0  0  0  0  0  0
   10.4710   -1.4370   23.1230 C   0  0  0  0  0  0  0  0  0  0  0  0
    9.4280    3.3520   23.5060 C   0  0  0  0  0  0  0  0  0  0  0  0
   10.0630    4.5990   23.7020 C   0  0  0  0  0  0  0  0  0  0  0  0
    9.4120    5.7790   23.2960 C   0  0  0  0  0  0  0  0  0  0  0  0
    8.1470    5.7280   22.7040 C   0  0  0  0  0  0  0  0  0  0  0  0
    7.5120    4.5010   22.5070 C   0  0  0  0  0  0  0  0  0  0  0  0
    8.1450    3.3150   22.9070 C   0  0  0  0  0  0  0  0  0  0  0  0
    2.9400   -1.9840   25.9160 C   0  0  0  0  0  0  0  0  0  0  0  0
    3.8510   -3.0580   25.9690 C   0  0  0  0  0  0  0  0  0  0  0  0
    3.4470   -4.4080   25.8510 C   0  0  0  0  0  0  0  0  0  0  0  0
    1.9650   -4.7400   25.6510 C   0  0  0  0  0  0  0  0  0  0  0  0
    1.0010   -3.5770   25.5970 C   0  0  0  0  0  0  0  0  0  0  0  0
    1.5840   -2.1890   25.7440 C   0  0  0  0  0  0  0  0  0  0  0  0
    6.7280   -5.1110   21.9160 C   0  0  1  0  0  0  0  0  0  0  0  0
    5.5370   -6.0580   22.0700 C   0  0  0  0  0  0  0  0  0  0  0  0
    4.7000   -5.8920   23.2090 C   0  0  0  0  0  0  0  0  0  0  0  0
    5.4820   -5.6780   24.4700 N   0  0  0  0  0  0  0  0  0  0  0  0
    6.3530   -4.5170   24.3720 C   0  0  2  0  0  0  0  0  0  0  0  0
    7.0300   -4.3970   23.2040 C   0  0  1  0  0  0  0  0  0  0  0  0
  2  4  1  0
  1  7  1  0
  3  7  2  0
  4  7  1  6
  1  8  1  0
  5  9  1  0
  6  9  2  0
  8  9  1  6
 10 11  1  0
 13 14  1  0
 13 15  1  0
 13 16  1  0
 15 17  1  0
  2 18  1  6
 19 22  2  0
 20 22  2  0
 24 25  1  0
 23 27  2  3
 25 27  1  1
 26 27  1  0
  4 28  1  0
 28 24  1  6
 29 30  2  0
 30 31  1  0
 31 32  2  0
  8 33  1  0
 32 33  1  0
 29 34  1  0
 33 34  2  0
 35 36  1  0
  1 37  1  0
 36 37  2  0
 37 38  1  0
 13 39  1  0
 35 39  1  0
 38 39  2  0
 10 40  1  0
 40 41  2  0
 41 42  1  0
 42 43  2  0
 12 44  1  0
 43 44  1  0
  5 45  1  0
 40 45  1  0
 44 45  2  0
 21 46  1  0
 46 47  2  0
 22 48  1  0
 47 48  1  0
 48 49  2  0
 49 50  1  0
 46 51  1  0
 50 51  2  0
  2 52  1  0
  4 52  1  0
 52 53  1  6
 53 54  1  0
 22 55  1  0
 54 55  1  0
 25 56  1  0
 56 55  1  6
 57 25  1  0
 57 28  1  6
 52 57  1  0
 56 57  1  0
M  END
