x2705-x0691-x3117-x0978
     RDKit          3D

 59 67  0  0  0  0  0  0  0  0999 V2000
    6.9980   -1.7960   21.6780 N   0  0  0  0  0  0  0  0  0  0  0  0
    6.9930   -5.1010   20.4200 C   0  0  2  0  0  0  0  0  0  0  0  0
    4.7020   -2.8720   21.2350 O   0  0  0  0  0  0  0  0  0  0  0  0
    6.2180   -4.3270   21.2590 C   0  0  2  0  0  0  0  0  0  0  0  0
    7.4500    1.9010   22.5040 N   0  0  0  0  0  0  0  0  0  0  0  0
    8.9340    0.5370   21.3980 O   0  0  0  0  0  0  0  0  0  0  0  0
    5.9580   -2.9030   21.4080 C   0  0  0  0  0  0  0  0  0  0  0  0
    6.6320   -0.3290   21.5100 C   0  0  1  0  0  0  0  0  0  0  0  0
    7.7910    0.7250   21.7940 C   0  0  0  0  0  0  0  0  0  0  0  0
   10.1840    2.0290   23.8650 C   0  0  0  0  0  0  0  0  0  0  0  0
    9.3420    1.2050   24.8370 C   0  0  0  0  0  0  0  0  0  0  0  0
    6.1410    4.2160   21.7590 C   0  0  0  0  0  0  0  0  0  0  0  0
   12.0230   -1.6240   23.0040 C   0  0  0  0  0  0  0  0  0  0  0  0
   12.5160   -0.2930   23.6200 C   0  0  0  0  0  0  0  0  0  0  0  0
   12.6030   -2.7890   23.7930 C   0  0  0  0  0  0  0  0  0  0  0  0
   12.6240   -1.7860   21.6630 C   0  0  0  0  0  0  0  0  0  0  0  0
   13.0580   -2.4780   25.1720 C   0  0  0  0  0  0  0  0  0  0  0  0
    2.1240   -5.5700   23.5360 N   0  0  0  0  0  0  0  0  0  0  0  0
    2.4920   -7.4280   25.2450 C   0  0  0  0  0  0  0  0  0  0  0  0
    4.5610   -7.8260   24.3100 O   0  0  0  0  0  0  0  0  0  0  0  0
    3.5680   -6.9720   24.5020 C   0  0  1  0  0  0  0  0  0  0  0  0
    1.1330   -7.1480   22.1120 O   0  0  0  0  0  0  0  0  0  0  0  0
    3.3620   -6.1100   23.3880 C   0  0  2  0  0  0  0  0  0  0  0  0
    4.5700   -3.9490   23.7630 O   0  0  0  0  0  0  0  0  0  0  0  0
    1.0010   -6.0860   22.7730 C   0  0  0  0  0  0  0  0  0  0  0  0
   -0.2560   -5.4570   22.7230 C   0  0  0  0  0  0  0  0  0  0  0  0
    6.0000   -5.9660   19.8220 C   0  0  0  0  0  0  0  0  0  0  0  0
    5.2110   -6.1240   26.9170 O   0  0  0  0  0  0  0  0  0  0  0  0
    3.1190   -0.6300   26.0090 F   0  0  0  0  0  0  0  0  0  0  0  0
    4.4430   -5.4890   25.6890 S   0  0  0  0  0  0  0  0  0  0  0  0
    6.4080    0.4140   17.9290 N   0  0  0  0  0  0  0  0  0  0  0  0
    5.3160    1.1850   17.7760 C   0  0  0  0  0  0  0  0  0  0  0  0
    4.5130    1.5210   18.8950 C   0  0  0  0  0  0  0  0  0  0  0  0
    4.9650    0.9780   20.2380 C   0  0  0  0  0  0  0  0  0  0  0  0
    6.1330    0.1950   20.2500 C   0  0  0  0  0  0  0  0  0  0  0  0
    6.8210   -0.0710   19.0870 C   0  0  0  0  0  0  0  0  0  0  0  0
    9.7290   -1.9210   24.1940 N   0  0  0  0  0  0  0  0  0  0  0  0
    8.4120   -1.9750   23.8460 N   0  0  0  0  0  0  0  0  0  0  0  0
    8.1940   -1.8380   22.5230 C   0  0  0  0  0  0  0  0  0  0  0  0
    9.5380   -1.6950   22.0740 C   0  0  0  0  0  0  0  0  0  0  0  0
   10.5010   -1.7460   23.1240 C   0  0  0  0  0  0  0  0  0  0  0  0
    9.4100    3.2180   23.4290 C   0  0  0  0  0  0  0  0  0  0  0  0
   10.0890    4.5100   23.7070 C   0  0  0  0  0  0  0  0  0  0  0  0
    9.3910    5.7670   23.3020 C   0  0  0  0  0  0  0  0  0  0  0  0
    8.0640    5.6710   22.6480 C   0  0  0  0  0  0  0  0  0  0  0  0
    7.4690    4.2780   22.4170 C   0  0  0  0  0  0  0  0  0  0  0  0
    8.1420    3.0960   22.8040 C   0  0  0  0  0  0  0  0  0  0  0  0
    2.6750   -1.8950   25.9560 C   0  0  0  0  0  0  0  0  0  0  0  0
    3.6000   -2.9270   25.8710 C   0  0  0  0  0  0  0  0  0  0  0  0
    3.1780   -4.2590   25.8130 C   0  0  0  0  0  0  0  0  0  0  0  0
    1.8260   -4.5810   25.8400 C   0  0  0  0  0  0  0  0  0  0  0  0
    0.8880   -3.5460   25.9240 C   0  0  0  0  0  0  0  0  0  0  0  0
    1.3140   -2.2080   25.9820 C   0  0  0  0  0  0  0  0  0  0  0  0
    6.8550   -5.1490   22.0030 C   0  0  1  0  0  0  0  0  0  0  0  0
    5.3040   -5.3170   21.9320 C   0  0  1  0  0  0  0  0  0  0  0  0
    4.5320   -5.1880   23.1440 C   0  0  2  0  0  0  0  0  0  0  0  0
    5.3540   -4.8780   24.2920 C   0  0  1  0  0  0  0  0  0  0  0  0
    6.7630   -5.0180   24.4070 C   0  0  0  0  0  0  0  0  0  0  0  0
    7.5450   -5.4100   23.1870 C   0  0  0  0  0  0  0  0  0  0  0  0
  2  4  1  0
  1  7  1  0
  3  7  2  0
  4  7  1  1
  1  8  1  0
  5  9  1  0
  6  9  2  0
  8  9  1  6
 10 11  1  0
 13 14  1  0
 13 15  1  0
 13 16  1  0
 15 17  1  0
 21 19  1  1
 21 20  1  0
 23 18  1  1
 21 23  1  0
 18 25  1  0
 22 25  2  0
 25 26  1  0
  2 27  1  6
 21 30  1  0
 28 30  2  0
 31 32  2  0
 32 33  1  0
 33 34  2  0
  8 35  1  0
 34 35  1  0
 31 36  1  0
 35 36  2  0
 37 38  1  0
  1 39  1  0
 38 39  1  0
 39 40  2  0
 13 41  1  0
 37 41  2  0
 40 41  1  0
 10 42  1  0
 42 43  2  0
 43 44  1  0
 44 45  2  0
 12 46  1  0
 45 46  1  0
  5 47  1  0
 42 47  1  0
 46 47  2  0
 29 48  1  0
 48 49  2  0
 30 50  1  0
 49 50  1  0
 50 51  2  0
 51 52  1  0
 48 53  1  0
 52 53  2  0
  2 54  1  0
  4 54  1  0
 55  4  1  6
 54 55  1  0
 23 56  1  0
 56 24  1  6
 55 56  1  0
 57 24  1  0
 30 57  1  0
 56 57  1  0
 57 58  1  6
 54 59  1  1
 58 59  1  0
M  END
