x2705-x2776-x1311-x2643
     RDKit          3D

 51 55  0  0  0  0  0  0  0  0999 V2000
    6.6430   -1.2010   22.1780 N   0  0  0  0  0  0  0  0  0  0  0  0
    6.7920   -4.1740   20.3450 C   0  0  2  0  0  0  0  0  0  0  0  0
    4.6600   -2.9690   21.5670 O   0  0  0  0  0  0  0  0  0  0  0  0
    6.6250   -2.7770   20.4760 C   0  0  0  0  0  0  0  0  0  0  0  0
    7.5010    2.1130   22.9250 N   0  0  0  0  0  0  0  0  0  0  0  0
    8.6510    1.2030   21.1390 O   0  0  0  0  0  0  0  0  0  0  0  0
    5.8600   -2.3090   21.4930 C   0  0  0  0  0  0  0  0  0  0  0  0
    6.4470    0.2060   21.6800 C   0  0  1  0  0  0  0  0  0  0  0  0
    7.6580    1.2030   21.8930 C   0  0  0  0  0  0  0  0  0  0  0  0
   10.1430    2.0120   24.0390 C   0  0  0  0  0  0  0  0  0  0  0  0
    9.2630    1.2560   25.0250 C   0  0  0  0  0  0  0  0  0  0  0  0
    6.3110    4.7530   22.0070 C   0  0  0  0  0  0  0  0  0  0  0  0
   11.7550   -1.4580   23.5570 C   0  0  0  0  0  0  0  0  0  0  0  0
   12.3000   -0.2210   24.2920 C   0  0  0  0  0  0  0  0  0  0  0  0
   11.9920   -2.6600   24.5070 C   0  0  0  0  0  0  0  0  0  0  0  0
   12.5710   -1.5550   22.2530 C   0  0  0  0  0  0  0  0  0  0  0  0
   13.3900   -2.8010   25.1810 C   0  0  0  0  0  0  0  0  0  0  0  0
   10.5930    6.7780   23.6230 O   0  0  0  0  0  0  0  0  0  0  0  0
   11.5190    6.6160   24.4850 C   0  0  0  0  0  0  0  0  0  0  0  0
    5.6260   -4.5640   19.6550 O   0  0  0  0  0  0  0  0  0  0  0  0
    6.6490   -4.8830   21.7130 N   0  0  0  0  0  0  0  0  0  0  0  0
    4.4430   -6.6950   25.5370 O   0  0  0  0  0  0  0  0  0  0  0  0
    2.6050   -5.4080   24.3940 O   0  0  0  0  0  0  0  0  0  0  0  0
    6.3400    0.3040   17.9180 N   0  0  0  0  0  0  0  0  0  0  0  0
    5.1830    0.9880   17.7880 C   0  0  0  0  0  0  0  0  0  0  0  0
    4.3580    1.4360   18.7800 C   0  0  0  0  0  0  0  0  0  0  0  0
    4.8110    1.1410   20.0280 C   0  0  0  0  0  0  0  0  0  0  0  0
    5.9810    0.4590   20.2920 C   0  0  0  0  0  0  0  0  0  0  0  0
    6.7200    0.0490   19.1820 C   0  0  0  0  0  0  0  0  0  0  0  0
    9.4130   -1.3130   24.4190 N   0  0  0  0  0  0  0  0  0  0  0  0
    8.1040   -1.2550   24.1320 N   0  0  0  0  0  0  0  0  0  0  0  0
    7.9740   -1.2900   22.8010 C   0  0  0  0  0  0  0  0  0  0  0  0
    9.3280   -1.3880   22.2440 C   0  0  0  0  0  0  0  0  0  0  0  0
   10.2320   -1.3910   23.3340 C   0  0  0  0  0  0  0  0  0  0  0  0
    9.5050    3.3040   23.5970 C   0  0  0  0  0  0  0  0  0  0  0  0
   10.2460    4.4910   23.7580 C   0  0  0  0  0  0  0  0  0  0  0  0
    9.7330    5.7260   23.3760 C   0  0  0  0  0  0  0  0  0  0  0  0
    8.4520    5.7770   22.8080 C   0  0  0  0  0  0  0  0  0  0  0  0
    7.6770    4.5950   22.6300 C   0  0  0  0  0  0  0  0  0  0  0  0
    8.2120    3.3470   23.0410 C   0  0  0  0  0  0  0  0  0  0  0  0
    8.3730   -6.0250   22.9320 C   0  0  0  0  0  0  0  0  0  0  0  0
    9.3180   -6.0550   23.9450 C   0  0  0  0  0  0  0  0  0  0  0  0
    9.5290   -4.9650   24.7820 C   0  0  0  0  0  0  0  0  0  0  0  0
    8.7480   -3.8230   24.5650 C   0  0  0  0  0  0  0  0  0  0  0  0
    7.7920   -3.7980   23.5340 C   0  0  0  0  0  0  0  0  0  0  0  0
    7.6150   -4.9060   22.7220 C   0  0  0  0  0  0  0  0  0  0  0  0
    4.8130   -6.4010   22.1160 C   0  0  0  0  0  0  0  0  0  0  0  0
    5.2960   -5.0420   22.3250 C   0  0  1  0  0  0  0  0  0  0  0  0
    5.1630   -4.7460   23.8450 C   0  0  0  0  0  0  0  0  0  0  0  0
    3.9540   -5.9350   24.4010 S   0  0  0  0  0  0  0  0  0  0  0  0
    4.0880   -6.9300   23.1190 C   0  0  0  0  0  0  0  0  0  0  0  0
  2  4  1  0
  1  7  1  0
  3  7  2  0
  4  7  1  0
  1  8  1  0
  5  9  1  0
  6  9  2  0
  8  9  1  6
 10 11  1  0
 13 14  1  0
 13 15  1  0
 13 16  1  0
 15 17  1  0
 18 19  1  0
  2 20  1  6
  2 21  1  0
 24 25  2  0
 25 26  1  0
 26 27  2  0
  8 28  1  0
 27 28  1  0
 24 29  1  0
 28 29  2  0
 30 31  1  0
  1 32  1  0
 31 32  2  0
 32 33  1  0
 13 34  1  0
 30 34  1  0
 33 34  2  0
 10 35  1  0
 35 36  2  0
 18 37  1  0
 36 37  1  0
 37 38  2  0
 12 39  1  0
 38 39  1  0
  5 40  1  0
 35 40  1  0
 39 40  2  0
 41 42  2  0
 42 43  1  0
 43 44  2  0
 44 45  1  0
 21 46  1  0
 41 46  1  0
 45 46  2  0
 48 21  1  1
 47 48  1  0
 48 49  1  0
 50 22  1  0
 23 50  1  0
 49 50  1  0
 47 51  2  0
 50 51  1  0
M  END
