x2703-x0769
     RDKit          3D

 50 56  0  0  0  0  0  0  0  0999 V2000
    6.7930   -1.5520   21.8730 N   0  0  0  0  0  0  0  0  0  0  0  0
    6.6830   -4.5650   20.2820 C   0  0  2  0  0  0  0  0  0  0  0  0
    4.7660   -2.9700   21.2650 O   0  0  0  0  0  0  0  0  0  0  0  0
    6.9450   -3.9240   21.5510 C   0  0  2  0  0  0  0  0  0  0  0  0
    7.3820    1.9170   22.8190 N   0  0  0  0  0  0  0  0  0  0  0  0
    8.7910    0.7940   21.4500 O   0  0  0  0  0  0  0  0  0  0  0  0
    6.0160   -2.7430   21.5460 C   0  0  0  0  0  0  0  0  0  0  0  0
    6.4780   -0.1050   21.6040 C   0  0  1  0  0  0  0  0  0  0  0  0
    7.6670    0.8790   21.9410 C   0  0  0  0  0  0  0  0  0  0  0  0
   10.0060    1.9630   24.0290 C   0  0  0  0  0  0  0  0  0  0  0  0
    9.1290    1.2510   25.0520 C   0  0  0  0  0  0  0  0  0  0  0  0
    6.1280    4.4640   21.7650 C   0  0  0  0  0  0  0  0  0  0  0  0
   11.8990   -1.6000   24.5330 C   0  0  0  0  0  0  0  0  0  0  0  0
   12.5370   -2.9730   24.7460 C   0  0  0  0  0  0  0  0  0  0  0  0
   12.9180   -0.7250   23.8060 C   0  0  0  0  0  0  0  0  0  0  0  0
    5.4480   -4.4030   19.6040 O   0  0  0  0  0  0  0  0  0  0  0  0
    5.7450   -5.2980   26.9870 O   0  0  0  0  0  0  0  0  0  0  0  0
    3.7200   -6.6830   25.9760 O   0  0  0  0  0  0  0  0  0  0  0  0
    5.5270   -2.5570   26.2510 F   0  0  0  0  0  0  0  0  0  0  0  0
    4.6670   -5.4150   25.8250 S   0  0  0  0  0  0  0  0  0  0  0  0
    6.2890    0.4000   17.8890 N   0  0  0  0  0  0  0  0  0  0  0  0
    5.1190    1.0600   17.8160 C   0  0  0  0  0  0  0  0  0  0  0  0
    4.3180    1.3570   18.8970 C   0  0  0  0  0  0  0  0  0  0  0  0
    4.7230    0.9780   20.1470 C   0  0  0  0  0  0  0  0  0  0  0  0
    5.9280    0.3090   20.2680 C   0  0  0  0  0  0  0  0  0  0  0  0
    6.6730    0.0340   19.1180 C   0  0  0  0  0  0  0  0  0  0  0  0
   10.5130   -1.8850   22.4910 N   0  0  0  0  0  0  0  0  0  0  0  0
   10.5670   -1.6340   23.8170 C   0  0  0  0  0  0  0  0  0  0  0  0
    9.4300   -1.3880   24.5430 C   0  0  0  0  0  0  0  0  0  0  0  0
    8.2000   -1.3800   23.9050 C   0  0  0  0  0  0  0  0  0  0  0  0
    8.1060   -1.6160   22.5330 C   0  0  0  0  0  0  0  0  0  0  0  0
    9.3140   -1.8850   21.8360 C   0  0  0  0  0  0  0  0  0  0  0  0
    9.3340    3.2070   23.4980 C   0  0  0  0  0  0  0  0  0  0  0  0
   10.0200    4.4200   23.6080 C   0  0  0  0  0  0  0  0  0  0  0  0
    9.4540    5.5960   23.1360 C   0  0  0  0  0  0  0  0  0  0  0  0
    8.1860    5.5690   22.5430 C   0  0  0  0  0  0  0  0  0  0  0  0
    7.4810    4.3680   22.4230 C   0  0  0  0  0  0  0  0  0  0  0  0
    8.0410    3.1810   22.8980 C   0  0  0  0  0  0  0  0  0  0  0  0
    4.2010   -2.6670   26.0730 C   0  0  0  0  0  0  0  0  0  0  0  0
    3.6780   -3.9630   25.8610 C   0  0  0  0  0  0  0  0  0  0  0  0
    2.1970   -4.0000   25.6750 C   0  0  0  0  0  0  0  0  0  0  0  0
    1.2860   -2.7760   25.7050 C   0  0  0  0  0  0  0  0  0  0  0  0
    2.0690   -1.4670   25.9510 C   0  0  0  0  0  0  0  0  0  0  0  0
    3.4580   -1.4870   26.1160 C   0  0  0  0  0  0  0  0  0  0  0  0
    6.6060   -5.2790   21.7230 C   0  0  1  0  0  0  0  0  0  0  0  0
    5.5440   -6.1220   22.0410 C   0  0  0  0  0  0  0  0  0  0  0  0
    4.7050   -5.6540   23.0430 C   0  0  0  0  0  0  0  0  0  0  0  0
    5.4480   -5.4580   24.3140 N   0  0  0  0  0  0  0  0  0  0  0  0
    6.7140   -4.7150   24.1710 C   0  0  0  0  0  0  0  0  0  0  0  0
    7.3790   -4.9010   22.8170 C   0  0  2  0  0  0  0  0  0  0  0  0
  2  4  1  0
  1  7  1  0
  3  7  2  0
  4  7  1  1
  1  8  1  0
  5  9  1  0
  6  9  2  0
  8  9  1  6
 10 11  1  0
 13 14  1  0
 13 15  1  0
  2 16  1  1
 17 20  2  0
 18 20  2  0
 21 22  2  0
 22 23  1  0
 23 24  2  0
  8 25  1  0
 24 25  1  0
 21 26  1  0
 25 26  2  0
 13 28  1  0
 27 28  2  0
 28 29  1  0
 29 30  2  0
  1 31  1  0
 30 31  1  0
 27 32  1  0
 31 32  2  0
 10 33  1  0
 33 34  2  0
 34 35  1  0
 35 36  2  0
 12 37  1  0
 36 37  1  0
  5 38  1  0
 33 38  1  0
 37 38  2  0
 19 39  1  0
 20 40  1  0
 39 40  2  0
 40 41  1  0
 41 42  2  0
 42 43  1  0
 39 44  1  0
 43 44  2  0
  2 45  1  0
  4 45  1  0
 45 46  1  1
 46 47  1  0
 20 48  1  0
 47 48  1  0
 48 49  1  0
  4 50  1  0
 45 50  1  0
 50 49  1  1
M  END
