x2705-x3117
     RDKit          3D

 34 36  0  0  0  0  0  0  0  0999 V2000
    6.9660   -1.5610   21.8280 N   0  0  0  0  0  0  0  0  0  0  0  0
    6.8330   -4.8640   20.4880 C   0  0  0  0  0  0  0  0  0  0  0  0
    4.8650   -3.0670   21.2600 O   0  0  0  0  0  0  0  0  0  0  0  0
    6.9450   -4.0740   21.7780 C   0  0  0  0  0  0  0  0  0  0  0  0
    7.4100    1.9540   22.8190 N   0  0  0  0  0  0  0  0  0  0  0  0
    8.8350    0.7860   21.4450 O   0  0  0  0  0  0  0  0  0  0  0  0
    6.1410   -2.8180   21.5960 C   0  0  0  0  0  0  0  0  0  0  0  0
    6.5570   -0.1120   21.5710 C   0  0  1  0  0  0  0  0  0  0  0  0
    7.7180    0.9120   21.9460 C   0  0  0  0  0  0  0  0  0  0  0  0
   10.1010    2.0210   23.9680 C   0  0  0  0  0  0  0  0  0  0  0  0
    9.2690    1.2150   24.9580 C   0  0  0  0  0  0  0  0  0  0  0  0
    6.1180    4.5660   21.8680 C   0  0  0  0  0  0  0  0  0  0  0  0
   12.0030   -1.5830   23.2610 C   0  0  0  0  0  0  0  0  0  0  0  0
   12.5220   -0.2620   23.8910 C   0  0  0  0  0  0  0  0  0  0  0  0
   12.5030   -2.7740   24.1110 C   0  0  0  0  0  0  0  0  0  0  0  0
   12.6880   -1.7150   21.8800 C   0  0  0  0  0  0  0  0  0  0  0  0
   13.4330   -2.4800   25.2610 C   0  0  0  0  0  0  0  0  0  0  0  0
    6.3280    0.3700   17.8270 N   0  0  0  0  0  0  0  0  0  0  0  0
    5.2110    1.1110   17.7840 C   0  0  0  0  0  0  0  0  0  0  0  0
    4.4780    1.4680   18.8750 C   0  0  0  0  0  0  0  0  0  0  0  0
    4.9230    1.0490   20.1050 C   0  0  0  0  0  0  0  0  0  0  0  0
    6.0860    0.2860   20.2080 C   0  0  0  0  0  0  0  0  0  0  0  0
    6.7510   -0.0340   19.0340 C   0  0  0  0  0  0  0  0  0  0  0  0
    9.7170   -1.5620   24.2810 N   0  0  0  0  0  0  0  0  0  0  0  0
    8.4370   -1.5670   23.8830 N   0  0  0  0  0  0  0  0  0  0  0  0
    8.2710   -1.5910   22.5080 C   0  0  0  0  0  0  0  0  0  0  0  0
    9.6000   -1.6110   22.0540 C   0  0  0  0  0  0  0  0  0  0  0  0
   10.4660   -1.5870   23.1860 C   0  0  0  0  0  0  0  0  0  0  0  0
    9.3750    3.2580   23.4820 C   0  0  0  0  0  0  0  0  0  0  0  0
   10.0580    4.4880   23.6050 C   0  0  0  0  0  0  0  0  0  0  0  0
    9.4760    5.6770   23.1820 C   0  0  0  0  0  0  0  0  0  0  0  0
    8.2030    5.6540   22.6270 C   0  0  0  0  0  0  0  0  0  0  0  0
    7.4840    4.4440   22.4860 C   0  0  0  0  0  0  0  0  0  0  0  0
    8.0660    3.2260   22.9170 C   0  0  0  0  0  0  0  0  0  0  0  0
  2  4  1  0
  1  7  1  0
  3  7  2  0
  4  7  1  0
  1  8  1  0
  5  9  1  0
  6  9  2  0
  8  9  1  6
 10 11  1  0
 13 14  1  0
 13 15  1  0
 13 16  1  0
 15 17  1  0
 18 19  2  0
 19 20  1  0
 20 21  2  0
  8 22  1  0
 21 22  1  0
 18 23  1  0
 22 23  2  0
 24 25  1  0
  1 26  1  0
 25 26  2  0
 26 27  1  0
 13 28  1  0
 24 28  1  0
 27 28  2  0
 10 29  1  0
 29 30  2  0
 30 31  1  0
 31 32  2  0
 12 33  1  0
 32 33  1  0
  5 34  1  0
 29 34  1  0
 33 34  2  0
M  END
