x2705-x1311-x0991-x2643
     RDKit          3D

 51 58  0  0  0  0  0  0  0  0999 V2000
    6.9700   -1.3170   21.5490 N   0  0  0  0  0  0  0  0  0  0  0  0
    6.8210   -4.7510   20.9410 C   0  0  2  0  0  0  0  0  0  0  0  0
    4.8010   -2.8580   20.8550 O   0  0  0  0  0  0  0  0  0  0  0  0
    6.6000   -3.6320   21.8570 C   0  0  0  0  0  0  0  0  0  0  0  0
    7.4400    2.0200   22.8360 N   0  0  0  0  0  0  0  0  0  0  0  0
    8.7070    1.2790   21.0890 O   0  0  0  0  0  0  0  0  0  0  0  0
    6.0280   -2.5010   21.3450 C   0  0  0  0  0  0  0  0  0  0  0  0
    6.5790    0.1100   21.3690 C   0  0  1  0  0  0  0  0  0  0  0  0
    7.6690    1.1690   21.7720 C   0  0  0  0  0  0  0  0  0  0  0  0
   10.1680    2.0470   23.9590 C   0  0  0  0  0  0  0  0  0  0  0  0
    9.3600    1.2050   24.9480 C   0  0  0  0  0  0  0  0  0  0  0  0
    6.1460    4.4990   21.9200 C   0  0  0  0  0  0  0  0  0  0  0  0
   11.9900   -1.3790   23.3300 C   0  0  0  0  0  0  0  0  0  0  0  0
   12.4460    0.0370   23.7440 C   0  0  0  0  0  0  0  0  0  0  0  0
   12.4370   -2.3850   24.4500 C   0  0  0  0  0  0  0  0  0  0  0  0
   12.7610   -1.6990   22.0360 C   0  0  0  0  0  0  0  0  0  0  0  0
    5.6440   -5.2070   20.2710 O   0  0  0  0  0  0  0  0  0  0  0  0
    6.9970   -5.3020   22.3300 C   0  0  0  0  0  0  0  0  0  0  0  0
    4.1500   -7.8190   25.0440 O   0  0  0  0  0  0  0  0  0  0  0  0
    2.6860   -5.8520   24.9860 O   0  0  0  0  0  0  0  0  0  0  0  0
    7.1910   -3.9200   24.4760 C   0  0  0  0  0  0  0  0  0  0  0  0
    8.9210   -5.3800   26.3710 N   0  0  0  0  0  0  0  0  0  0  0  0
    6.7430   -3.3120   23.2350 C   0  0  0  0  0  0  0  0  0  0  0  0
    6.2820    0.5970   17.6720 N   0  0  0  0  0  0  0  0  0  0  0  0
    5.1630    1.3380   17.6730 C   0  0  0  0  0  0  0  0  0  0  0  0
    4.4440    1.6910   18.7770 C   0  0  0  0  0  0  0  0  0  0  0  0
    4.9070    1.2710   19.9910 C   0  0  0  0  0  0  0  0  0  0  0  0
    6.0690    0.5140   20.0450 C   0  0  0  0  0  0  0  0  0  0  0  0
    6.7060    0.2010   18.8660 C   0  0  0  0  0  0  0  0  0  0  0  0
    9.5280   -1.5370   24.1260 N   0  0  0  0  0  0  0  0  0  0  0  0
    8.2560   -1.5240   23.6670 N   0  0  0  0  0  0  0  0  0  0  0  0
    8.2440   -1.3870   22.3170 C   0  0  0  0  0  0  0  0  0  0  0  0
    9.6080   -1.3140   21.9480 C   0  0  0  0  0  0  0  0  0  0  0  0
   10.4380   -1.4100   23.1240 C   0  0  0  0  0  0  0  0  0  0  0  0
    9.4480    3.2900   23.4930 C   0  0  0  0  0  0  0  0  0  0  0  0
   10.1150    4.5280   23.6030 C   0  0  0  0  0  0  0  0  0  0  0  0
    9.5110    5.7120   23.1840 C   0  0  0  0  0  0  0  0  0  0  0  0
    8.2280    5.6810   22.6440 C   0  0  0  0  0  0  0  0  0  0  0  0
    7.5320    4.4630   22.5200 C   0  0  0  0  0  0  0  0  0  0  0  0
    8.1450    3.2590   22.9530 C   0  0  0  0  0  0  0  0  0  0  0  0
    9.0630   -4.1380   23.0140 C   0  0  0  0  0  0  0  0  0  0  0  0
    9.9510   -4.4540   24.0420 C   0  0  0  0  0  0  0  0  0  0  0  0
    9.4790   -5.5030   24.8090 C   0  0  1  0  0  0  0  0  0  0  0  0
    8.5810   -5.3560   25.2780 C   0  0  0  0  0  0  0  0  0  0  0  0
    7.8060   -5.2590   24.3980 C   0  0  1  0  0  0  0  0  0  0  0  0
    7.9600   -4.9370   23.1500 C   0  0  0  0  0  0  0  0  0  0  0  0
    4.7670   -6.5350   22.1170 C   0  0  0  0  0  0  0  0  0  0  0  0
    5.8650   -6.1630   22.9650 C   0  0  2  0  0  0  0  0  0  0  0  0
    5.2240   -5.6130   24.2470 C   0  0  0  0  0  0  0  0  0  0  0  0
    3.7690   -6.6010   24.3670 S   0  0  0  0  0  0  0  0  0  0  0  0
    3.5750   -6.8040   22.7310 C   0  0  0  0  0  0  0  0  0  0  0  0
  2  4  1  0
  1  7  1  0
  3  7  2  0
  4  7  1  0
  1  8  1  0
  5  9  1  0
  6  9  2  0
  8  9  1  6
 10 11  1  0
 13 14  1  0
 13 15  1  0
 13 16  1  0
  2 17  1  1
  2 18  1  0
  4 23  2  0
 21 23  1  0
 24 25  2  0
 25 26  1  0
 26 27  2  0
  8 28  1  0
 27 28  1  0
 24 29  1  0
 28 29  2  0
 30 31  1  0
  1 32  1  0
 31 32  1  0
 32 33  2  0
 13 34  1  0
 30 34  2  0
 33 34  1  0
 10 35  1  0
 35 36  2  0
 36 37  1  0
 37 38  2  0
 12 39  1  0
 38 39  1  0
  5 40  1  0
 35 40  1  0
 39 40  2  0
 41 42  2  0
 43 22  1  0
 43 42  1  6
 22 44  2  0
 43 44  1  0
 45 21  1  6
 43 45  1  0
 44 45  1  0
 18 46  2  0
 41 46  1  0
 45 46  1  0
 48 18  1  6
 47 48  1  0
 48 49  1  0
 50 19  1  0
 20 50  1  0
 49 50  1  0
 47 51  2  0
 50 51  1  0
M  END
