x2705-x2563
     RDKit          3D

 35 39  0  0  0  0  0  0  0  0999 V2000
    7.0290   -1.7250   21.2170 N   0  0  0  0  0  0  0  0  0  0  0  0
    6.9550   -5.0570   20.5750 C   0  0  0  0  0  0  0  0  0  0  0  0
    4.8300   -2.9880   21.1050 O   0  0  0  0  0  0  0  0  0  0  0  0
    6.7750   -4.1030   21.7120 C   0  0  0  0  0  0  0  0  0  0  0  0
    7.5120    1.6140   22.8040 N   0  0  0  0  0  0  0  0  0  0  0  0
    8.7480    0.9400   21.0670 O   0  0  0  0  0  0  0  0  0  0  0  0
    6.1000   -2.8560   21.3300 C   0  0  0  0  0  0  0  0  0  0  0  0
    6.7660   -0.2800   21.5250 C   0  0  1  0  0  0  0  0  0  0  0  0
    7.9520    0.5720   21.9370 C   0  0  2  0  0  0  0  0  0  0  0  0
   10.2390    1.9300   23.9750 C   0  0  0  0  0  0  0  0  0  0  0  0
    9.4310    1.0670   24.9420 C   0  0  0  0  0  0  0  0  0  0  0  0
    6.1160    4.0670   21.8270 C   0  0  0  0  0  0  0  0  0  0  0  0
   12.2910   -1.5590   23.4350 C   0  0  0  0  0  0  0  0  0  0  0  0
   12.8950   -0.4010   23.8940 C   0  0  0  0  0  0  0  0  0  0  0  0
   12.6200   -2.6760   24.4420 C   0  0  0  0  0  0  0  0  0  0  0  0
   12.8730   -1.8990   22.0510 C   0  0  0  0  0  0  0  0  0  0  0  0
    5.3960    1.3390   18.7060 C   0  0  1  0  0  0  0  0  0  0  0  0
    4.9370    0.1240   18.2230 C   0  0  0  0  0  0  0  0  0  0  0  0
    5.0240    0.0030   19.6260 C   0  0  1  0  0  0  0  0  0  0  0  0
    6.1720    0.3490   20.2530 C   0  0  0  0  0  0  0  0  0  0  0  0
    6.6640    1.3810   19.5630 C   0  0  0  0  0  0  0  0  0  0  0  0
    9.7200   -1.8590   24.0900 N   0  0  0  0  0  0  0  0  0  0  0  0
    8.5940   -1.2250   23.6210 N   0  0  0  0  0  0  0  0  0  0  0  0
    8.9340   -0.3230   22.6620 C   0  0  0  0  0  0  0  0  0  0  0  0
   10.2420   -0.3590   22.4890 C   0  0  0  0  0  0  0  0  0  0  0  0
   10.8180   -1.2530   23.3140 C   0  0  0  0  0  0  0  0  0  0  0  0
    9.4290    3.0920   23.4570 C   0  0  0  0  0  0  0  0  0  0  0  0
   10.0310    4.3540   23.5590 C   0  0  0  0  0  0  0  0  0  0  0  0
    9.3630    5.4900   23.1060 C   0  0  0  0  0  0  0  0  0  0  0  0
    8.0860    5.3600   22.5440 C   0  0  0  0  0  0  0  0  0  0  0  0
    7.4850    4.0860   22.4460 C   0  0  0  0  0  0  0  0  0  0  0  0
    8.1470    2.9230   22.9030 C   0  0  0  0  0  0  0  0  0  0  0  0
    4.3300    2.4060   19.1570 C   0  0  0  0  0  0  0  0  0  0  0  0
    3.6070    1.8690   20.1940 C   0  0  0  0  0  0  0  0  0  0  0  0
    3.9620    0.4590   20.5030 C   0  0  0  0  0  0  0  0  0  0  0  0
  2  4  1  0
  1  7  1  0
  3  7  2  0
  4  7  1  0
  8  1  1  6
  5  9  1  0
  9  6  1  6
  8  9  1  0
 10 11  1  0
 13 14  1  0
 13 15  1  0
 13 16  1  0
 17 18  1  6
 17 19  1  0
 19 18  1  6
  8 20  1  0
 19 20  1  0
 17 21  1  0
 20 21  2  0
 22 23  1  0
  9 24  1  0
 23 24  1  0
 24 25  2  0
 13 26  1  0
 22 26  2  0
 25 26  1  0
 10 27  1  0
 27 28  2  0
 28 29  1  0
 29 30  2  0
 12 31  1  0
 30 31  1  0
  5 32  1  0
 27 32  1  0
 31 32  2  0
 17 33  1  0
 33 34  1  0
 19 35  1  0
 34 35  2  0
M  END
