x2705-x1374
     RDKit          3D

 49 53  0  0  0  0  0  0  0  0999 V2000
    6.7990   -1.2580   22.0890 N   0  0  0  0  0  0  0  0  0  0  0  0
    6.8080   -4.4530   20.4690 C   0  0  1  0  0  0  0  0  0  0  0  0
    4.7770   -2.9880   21.3770 O   0  0  0  0  0  0  0  0  0  0  0  0
    7.1320   -3.4130   21.4050 C   0  0  1  0  0  0  0  0  0  0  0  0
    7.4260    2.0560   22.8640 N   0  0  0  0  0  0  0  0  0  0  0  0
    8.5770    1.1920   21.0560 O   0  0  0  0  0  0  0  0  0  0  0  0
    6.0640   -2.5090   21.6300 C   0  0  0  0  0  0  0  0  0  0  0  0
    6.4550    0.1410   21.6760 C   0  0  1  0  0  0  0  0  0  0  0  0
    7.5990    1.1460   21.8190 C   0  0  0  0  0  0  0  0  0  0  0  0
   10.2030    2.1300   23.9590 C   0  0  0  0  0  0  0  0  0  0  0  0
    9.3150    1.3570   24.9230 C   0  0  0  0  0  0  0  0  0  0  0  0
    6.1470    4.4810   21.9350 C   0  0  0  0  0  0  0  0  0  0  0  0
   12.0070   -1.3480   23.2340 C   0  0  0  0  0  0  0  0  0  0  0  0
   12.5520   -0.1440   23.6830 C   0  0  0  0  0  0  0  0  0  0  0  0
   12.4790   -2.4150   24.2460 C   0  0  0  0  0  0  0  0  0  0  0  0
   12.6460   -1.7090   21.8820 C   0  0  0  0  0  0  0  0  0  0  0  0
   10.2200   -4.9420   26.2430 C   0  0  0  0  0  0  0  0  0  0  0  0
    6.6000   -5.5340   21.4370 N   0  0  0  0  0  0  0  0  0  0  0  0
    2.5830   -6.4050   23.5570 O   0  0  0  0  0  0  0  0  0  0  0  0
    4.2830   -7.7210   24.9080 O   0  0  0  0  0  0  0  0  0  0  0  0
    5.5630   -4.3370   19.7790 O   0  0  0  0  0  0  0  0  0  0  0  0
    6.3870    0.3610   17.9440 N   0  0  0  0  0  0  0  0  0  0  0  0
    5.2340    1.0270   17.7800 C   0  0  0  0  0  0  0  0  0  0  0  0
    4.3640    1.4390   18.8530 C   0  0  0  0  0  0  0  0  0  0  0  0
    4.7590    1.1330   20.1290 C   0  0  0  0  0  0  0  0  0  0  0  0
    5.9500    0.4600   20.3290 C   0  0  0  0  0  0  0  0  0  0  0  0
    6.7330    0.0830   19.2220 C   0  0  0  0  0  0  0  0  0  0  0  0
    9.5980   -1.1350   24.3440 N   0  0  0  0  0  0  0  0  0  0  0  0
    8.2660   -1.1220   24.0250 N   0  0  0  0  0  0  0  0  0  0  0  0
    8.1440   -1.2630   22.6710 C   0  0  0  0  0  0  0  0  0  0  0  0
    9.4810   -1.3700   22.1450 C   0  0  0  0  0  0  0  0  0  0  0  0
   10.4410   -1.2950   23.1660 C   0  0  0  0  0  0  0  0  0  0  0  0
    9.4510    3.3450   23.4700 C   0  0  0  0  0  0  0  0  0  0  0  0
   10.1270    4.5680   23.5540 C   0  0  0  0  0  0  0  0  0  0  0  0
    9.5140    5.7530   23.1180 C   0  0  0  0  0  0  0  0  0  0  0  0
    8.2160    5.6940   22.5950 C   0  0  0  0  0  0  0  0  0  0  0  0
    7.5380    4.4680   22.5130 C   0  0  0  0  0  0  0  0  0  0  0  0
    8.1520    3.2870   22.9550 C   0  0  0  0  0  0  0  0  0  0  0  0
    9.3980   -4.6280   25.0620 C   0  0  0  0  0  0  0  0  0  0  0  0
    9.7830   -3.4320   24.2500 C   0  0  0  0  0  0  0  0  0  0  0  0
    8.9080   -3.1630   23.0420 C   0  0  0  0  0  0  0  0  0  0  0  0
    7.8290   -3.9330   22.6850 C   0  0  0  0  0  0  0  0  0  0  0  0
    7.5140   -5.1480   23.5880 C   0  0  0  0  0  0  0  0  0  0  0  0
    8.3100   -5.4180   24.7150 C   0  0  0  0  0  0  0  0  0  0  0  0
    5.3590   -4.6430   23.5030 C   0  0  0  0  0  0  0  0  0  0  0  0
    5.3540   -5.3970   22.2750 C   0  0  2  0  0  0  0  0  0  0  0  0
    4.9750   -6.6490   22.5670 C   0  0  0  0  0  0  0  0  0  0  0  0
    3.9540   -6.5530   24.0000 S   0  0  0  0  0  0  0  0  0  0  0  0
    4.6380   -5.1340   24.5410 C   0  0  0  0  0  0  0  0  0  0  0  0
  2  4  1  0
  1  7  1  0
  3  7  2  0
  4  7  1  1
  1  8  1  0
  5  9  1  0
  6  9  2  0
  8  9  1  6
 10 11  1  0
 13 14  1  0
 13 15  1  0
 13 16  1  0
  2 18  1  0
  2 21  1  1
 22 23  2  0
 23 24  1  0
 24 25  2  0
  8 26  1  0
 25 26  1  0
 22 27  1  0
 26 27  2  0
 28 29  1  0
  1 30  1  0
 29 30  2  0
 30 31  1  0
 13 32  1  0
 28 32  1  0
 31 32  2  0
 10 33  1  0
 33 34  2  0
 34 35  1  0
 35 36  2  0
 12 37  1  0
 36 37  1  0
  5 38  1  0
 33 38  1  0
 37 38  2  0
 17 39  1  0
 39 40  2  0
 40 41  1  0
  4 42  1  0
 41 42  2  0
 42 43  1  0
 39 44  1  0
 43 44  2  0
 46 18  1  1
 45 46  1  0
 46 47  1  0
 48 19  1  0
 20 48  1  0
 47 48  1  0
 45 49  2  0
 48 49  1  0
M  END
