x2705-x0731
     RDKit          3D

 50 56  0  0  0  0  0  0  0  0999 V2000
    6.8300   -1.3010   22.0150 N   0  0  0  0  0  0  0  0  0  0  0  0
    6.5800   -4.4700   20.2610 C   0  0  2  0  0  0  0  0  0  0  0  0
    4.7100   -2.9100   21.3650 O   0  0  0  0  0  0  0  0  0  0  0  0
    6.8880   -3.5410   21.4040 C   0  0  2  0  0  0  0  0  0  0  0  0
    7.4260    2.0280   22.8480 N   0  0  0  0  0  0  0  0  0  0  0  0
    8.6310    1.1790   21.0660 O   0  0  0  0  0  0  0  0  0  0  0  0
    6.0010   -2.4990   21.6070 C   0  0  0  0  0  0  0  0  0  0  0  0
    6.5070    0.1110   21.6290 C   0  0  1  0  0  0  0  0  0  0  0  0
    7.6370    1.1250   21.8050 C   0  0  0  0  0  0  0  0  0  0  0  0
   10.1530    2.0760   23.9910 C   0  0  0  0  0  0  0  0  0  0  0  0
    9.2980    1.2610   24.9600 C   0  0  0  0  0  0  0  0  0  0  0  0
    6.1620    4.4770   21.9070 C   0  0  0  0  0  0  0  0  0  0  0  0
   11.9640   -1.4890   23.2740 C   0  0  0  0  0  0  0  0  0  0  0  0
   12.4820   -0.2750   23.7410 C   0  0  0  0  0  0  0  0  0  0  0  0
   12.4200   -2.5670   24.2840 C   0  0  0  0  0  0  0  0  0  0  0  0
   12.6220   -1.7980   21.9150 C   0  0  0  0  0  0  0  0  0  0  0  0
    5.4410   -4.2430   19.4560 O   0  0  0  0  0  0  0  0  0  0  0  0
    1.0210   -0.8620   26.0910 C   0  0  0  0  0  0  0  0  0  0  0  0
    6.3180   -5.0250   26.5820 O   0  0  0  0  0  0  0  0  0  0  0  0
    4.6410   -6.6880   25.9940 O   0  0  0  0  0  0  0  0  0  0  0  0
    5.2420   -5.3660   25.5930 S   0  0  0  0  0  0  0  0  0  0  0  0
    6.3070    0.4280   17.8530 N   0  0  0  0  0  0  0  0  0  0  0  0
    5.2040    1.0980   17.7590 C   0  0  0  0  0  0  0  0  0  0  0  0
    4.3840    1.5010   18.8720 C   0  0  0  0  0  0  0  0  0  0  0  0
    4.8100    1.1620   20.1270 C   0  0  0  0  0  0  0  0  0  0  0  0
    5.9910    0.4570   20.2970 C   0  0  0  0  0  0  0  0  0  0  0  0
    6.7740    0.0560   19.1950 C   0  0  0  0  0  0  0  0  0  0  0  0
    9.6960   -1.4610   24.3300 N   0  0  0  0  0  0  0  0  0  0  0  0
    8.3740   -1.4190   24.0310 N   0  0  0  0  0  0  0  0  0  0  0  0
    8.1700   -1.3800   22.5940 C   0  0  0  0  0  0  0  0  0  0  0  0
    9.4870   -1.4130   22.0990 C   0  0  0  0  0  0  0  0  0  0  0  0
   10.4030   -1.4570   23.1780 C   0  0  0  0  0  0  0  0  0  0  0  0
    9.4280    3.3090   23.5040 C   0  0  0  0  0  0  0  0  0  0  0  0
   10.1040    4.5310   23.6150 C   0  0  0  0  0  0  0  0  0  0  0  0
    9.5080    5.7240   23.1800 C   0  0  0  0  0  0  0  0  0  0  0  0
    8.2210    5.6710   22.6280 C   0  0  0  0  0  0  0  0  0  0  0  0
    7.5400    4.4480   22.5160 C   0  0  0  0  0  0  0  0  0  0  0  0
    8.1420    3.2600   22.9600 C   0  0  0  0  0  0  0  0  0  0  0  0
    2.0190   -1.9670   25.9470 C   0  0  0  0  0  0  0  0  0  0  0  0
    1.6090   -3.2950   25.2990 C   0  0  0  0  0  0  0  0  0  0  0  0
    2.6990   -4.3740   25.2000 C   0  0  0  0  0  0  0  0  0  0  0  0
    3.9860   -4.1330   25.6850 C   0  0  0  0  0  0  0  0  0  0  0  0
    4.2850   -2.7710   26.3070 C   0  0  0  0  0  0  0  0  0  0  0  0
    3.3220   -1.7650   26.4140 C   0  0  0  0  0  0  0  0  0  0  0  0
    6.2000   -4.9610   21.6250 C   0  0  1  0  0  0  0  0  0  0  0  0
    7.3850   -4.7400   22.2720 C   0  0  2  0  0  0  0  0  0  0  0  0
    7.1660   -4.9010   23.6330 C   0  0  0  0  0  0  0  0  0  0  0  0
    5.7880   -5.4100   23.9600 N   0  0  0  0  0  0  0  0  0  0  0  0
    5.2910   -6.5430   23.1200 C   0  0  0  0  0  0  0  0  0  0  0  0
    5.9980   -6.3950   21.7920 C   0  0  0  0  0  0  0  0  0  0  0  0
  2  4  1  0
  1  7  1  0
  3  7  2  0
  4  7  1  6
  1  8  1  0
  5  9  1  0
  6  9  2  0
  8  9  1  6
 10 11  1  0
 13 14  1  0
 13 15  1  0
 13 16  1  0
  2 17  1  6
 19 21  2  0
 20 21  2  0
 22 23  2  0
 23 24  1  0
 24 25  2  0
  8 26  1  0
 25 26  1  0
 22 27  1  0
 26 27  2  0
 28 29  1  0
  1 30  1  0
 29 30  2  0
 30 31  1  0
 13 32  1  0
 28 32  1  0
 31 32  2  0
 10 33  1  0
 33 34  2  0
 34 35  1  0
 35 36  2  0
 12 37  1  0
 36 37  1  0
  5 38  1  0
 33 38  1  0
 37 38  2  0
 18 39  1  0
 39 40  2  0
 40 41  1  0
 21 42  1  0
 41 42  2  0
 42 43  1  0
 39 44  1  0
 43 44  2  0
  2 45  1  0
  4 45  1  0
  4 46  1  0
 45 46  1  0
 46 47  1  1
 21 48  1  0
 47 48  1  0
 48 49  1  0
 45 50  1  6
 49 50  1  0
M  END
