x2705-x0691-x2643-x1493
     RDKit          3D

 51 56  0  0  0  0  0  0  0  0999 V2000
    6.8220   -1.3880   21.9990 N   0  0  0  0  0  0  0  0  0  0  0  0
    6.7590   -4.4820   20.2410 C   0  0  2  0  0  0  0  0  0  0  0  0
    4.7240   -2.9380   21.3670 O   0  0  0  0  0  0  0  0  0  0  0  0
    6.8570   -3.7110   21.3890 C   0  0  1  0  0  0  0  0  0  0  0  0
    7.3760    1.9510   22.7760 N   0  0  0  0  0  0  0  0  0  0  0  0
    8.7520    0.7560   21.3540 O   0  0  0  0  0  0  0  0  0  0  0  0
    6.0200   -2.6230   21.5920 C   0  0  0  0  0  0  0  0  0  0  0  0
    6.5890    0.0520   21.6220 C   0  0  1  0  0  0  0  0  0  0  0  0
    7.6520    0.9000   21.8900 C   0  0  0  0  0  0  0  0  0  0  0  0
   10.0690    2.0020   23.9410 C   0  0  0  0  0  0  0  0  0  0  0  0
    9.2210    1.1900   24.9510 C   0  0  0  0  0  0  0  0  0  0  0  0
    6.1230    4.4910   21.8510 C   0  0  0  0  0  0  0  0  0  0  0  0
   11.9450   -1.5520   23.2210 C   0  0  0  0  0  0  0  0  0  0  0  0
   12.5350   -0.1950   23.6820 C   0  0  0  0  0  0  0  0  0  0  0  0
   12.4310   -2.5890   24.2600 C   0  0  0  0  0  0  0  0  0  0  0  0
   12.5930   -1.8870   21.8640 C   0  0  0  0  0  0  0  0  0  0  0  0
    5.5190   -4.3670   19.5510 O   0  0  0  0  0  0  0  0  0  0  0  0
    4.2330   -4.8490   26.9150 O   0  0  0  0  0  0  0  0  0  0  0  0
    5.9110   -6.1760   27.0250 C   0  0  0  0  0  0  0  0  0  0  0  0
    2.5620   -0.5370   25.8020 F   0  0  0  0  0  0  0  0  0  0  0  0
    5.0720   -5.2410   25.8210 S   0  0  2  0  0  0  0  0  0  0  0  0
    6.5070   -6.8210   27.7690 O   0  0  0  0  0  0  0  0  0  0  0  0
    6.3410    0.3180   17.8350 N   0  0  0  0  0  0  0  0  0  0  0  0
    5.2190    1.0520   17.8030 C   0  0  0  0  0  0  0  0  0  0  0  0
    4.5110    1.4590   18.8810 C   0  0  0  0  0  0  0  0  0  0  0  0
    4.9380    1.1290   20.1330 C   0  0  0  0  0  0  0  0  0  0  0  0
    6.0970    0.3820   20.2380 C   0  0  0  0  0  0  0  0  0  0  0  0
    6.7670   -0.0100   19.0720 C   0  0  0  0  0  0  0  0  0  0  0  0
    9.7290   -1.6270   24.3040 N   0  0  0  0  0  0  0  0  0  0  0  0
    8.4130   -1.5930   24.0330 N   0  0  0  0  0  0  0  0  0  0  0  0
    8.1480   -1.4810   22.6180 C   0  0  0  0  0  0  0  0  0  0  0  0
    9.4680   -1.4610   22.0750 C   0  0  0  0  0  0  0  0  0  0  0  0
   10.3960   -1.5440   23.1400 C   0  0  0  0  0  0  0  0  0  0  0  0
    9.3620    3.2440   23.4690 C   0  0  0  0  0  0  0  0  0  0  0  0
   10.0460    4.4560   23.6090 C   0  0  0  0  0  0  0  0  0  0  0  0
    9.4650    5.6610   23.1890 C   0  0  0  0  0  0  0  0  0  0  0  0
    8.1890    5.6230   22.6240 C   0  0  0  0  0  0  0  0  0  0  0  0
    7.4930    4.4250   22.4770 C   0  0  0  0  0  0  0  0  0  0  0  0
    8.0600    3.2130   22.8990 C   0  0  0  0  0  0  0  0  0  0  0  0
    2.5600   -1.8750   25.7390 C   0  0  0  0  0  0  0  0  0  0  0  0
    3.7700   -2.5580   25.7990 C   0  0  0  0  0  0  0  0  0  0  0  0
    3.7240   -3.9300   25.7390 C   0  0  0  0  0  0  0  0  0  0  0  0
    2.6470   -4.7760   25.6180 C   0  0  0  0  0  0  0  0  0  0  0  0
    1.3740   -4.1760   25.5440 C   0  0  0  0  0  0  0  0  0  0  0  0
    1.3490   -2.6090   25.6170 C   0  0  0  0  0  0  0  0  0  0  0  0
    6.5530   -5.1570   21.6770 C   0  0  0  0  0  0  0  0  0  0  0  0
    5.1840   -5.8180   21.8260 C   0  0  0  0  0  0  0  0  0  0  0  0
    4.7570   -6.1820   23.2610 C   0  0  0  0  0  0  0  0  0  0  0  0
    5.3000   -5.1610   24.1580 N   0  0  0  0  0  0  0  0  0  0  0  0
    6.7830   -5.1510   24.0940 C   0  0  0  0  0  0  0  0  0  0  0  0
    7.4710   -5.5490   22.7950 C   0  0  0  0  0  0  0  0  0  0  0  0
  2  4  1  0
  1  7  1  0
  3  7  2  0
  4  7  1  6
  1  8  1  0
  5  9  1  0
  6  9  2  0
  8  9  1  6
 10 11  1  0
 13 14  1  0
 13 15  1  0
 13 16  1  0
  2 17  1  6
 18 21  2  0
 19 21  2  0
 19 22  2  0
 23 24  2  0
 24 25  1  0
 25 26  2  0
  8 27  1  0
 26 27  1  0
 23 28  1  0
 27 28  2  0
 29 30  1  0
  1 31  1  0
 30 31  1  0
 31 32  2  0
 13 33  1  0
 29 33  2  0
 32 33  1  0
 10 34  1  0
 34 35  2  0
 35 36  1  0
 36 37  2  0
 12 38  1  0
 37 38  1  0
  5 39  1  0
 34 39  1  0
 38 39  2  0
 20 40  1  0
 40 41  2  0
 21 42  1  1
 41 42  1  0
 42 43  2  0
 43 44  1  0
 40 45  1  0
 44 45  2  0
  2 46  1  0
  4 46  1  0
 46 47  1  0
 47 48  1  0
 21 49  1  0
 48 49  1  0
 49 50  1  0
 46 51  1  0
 50 51  1  0
M  END
