x2705-x0691-x3117-x1493
     RDKit          3D

 52 57  0  0  0  0  0  0  0  0999 V2000
    7.0560   -1.4550   21.8350 N   0  0  0  0  0  0  0  0  0  0  0  0
    6.6710   -4.4940   20.2930 C   0  0  2  0  0  0  0  0  0  0  0  0
    4.8300   -2.9730   21.2110 O   0  0  0  0  0  0  0  0  0  0  0  0
    6.9270   -4.0010   21.6060 C   0  0  1  0  0  0  0  0  0  0  0  0
    7.5940    1.9040   22.7940 N   0  0  0  0  0  0  0  0  0  0  0  0
    8.8180    0.9730   21.1220 O   0  0  0  0  0  0  0  0  0  0  0  0
    6.1660   -2.7490   21.5410 C   0  0  0  0  0  0  0  0  0  0  0  0
    6.6930   -0.0610   21.4770 C   0  0  1  0  0  0  0  0  0  0  0  0
    7.7650    0.9750   21.8210 C   0  0  0  0  0  0  0  0  0  0  0  0
   10.2260    2.1130   24.1280 C   0  0  0  0  0  0  0  0  0  0  0  0
    9.4120    1.3000   25.1260 C   0  0  0  0  0  0  0  0  0  0  0  0
    6.2560    4.4100   21.7140 C   0  0  0  0  0  0  0  0  0  0  0  0
   12.1500   -1.5720   23.2100 C   0  0  0  0  0  0  0  0  0  0  0  0
   12.7120   -0.3730   23.9860 C   0  0  0  0  0  0  0  0  0  0  0  0
   12.6040   -2.8230   23.9640 C   0  0  0  0  0  0  0  0  0  0  0  0
   12.7890   -1.6560   21.8600 C   0  0  0  0  0  0  0  0  0  0  0  0
   12.9860   -2.6970   25.4200 C   0  0  0  0  0  0  0  0  0  0  0  0
    5.4310   -4.2570   19.6320 O   0  0  0  0  0  0  0  0  0  0  0  0
    5.1930   -7.0220   25.3220 O   0  0  0  0  0  0  0  0  0  0  0  0
    5.4590   -5.3040   27.1120 C   0  0  0  0  0  0  0  0  0  0  0  0
    3.4390   -0.6540   25.9170 F   0  0  0  0  0  0  0  0  0  0  0  0
    5.0870   -5.6080   25.4550 S   0  0  1  0  0  0  0  0  0  0  0  0
    5.7040   -5.1040   28.2040 O   0  0  0  0  0  0  0  0  0  0  0  0
    6.5020    0.3400   17.6450 N   0  0  0  0  0  0  0  0  0  0  0  0
    5.3260    0.9910   17.5700 C   0  0  0  0  0  0  0  0  0  0  0  0
    4.5280    1.3260   18.6600 C   0  0  0  0  0  0  0  0  0  0  0  0
    5.0070    0.9470   19.9980 C   0  0  0  0  0  0  0  0  0  0  0  0
    6.2010    0.2910   20.1150 C   0  0  0  0  0  0  0  0  0  0  0  0
    6.9620   -0.0160   18.8520 C   0  0  0  0  0  0  0  0  0  0  0  0
    9.8780   -1.4750   24.2530 N   0  0  0  0  0  0  0  0  0  0  0  0
    8.5860   -1.4520   23.8520 N   0  0  0  0  0  0  0  0  0  0  0  0
    8.3810   -1.5000   22.4840 C   0  0  0  0  0  0  0  0  0  0  0  0
    9.7220   -1.5680   22.0010 C   0  0  0  0  0  0  0  0  0  0  0  0
   10.6010   -1.5430   23.1290 C   0  0  0  0  0  0  0  0  0  0  0  0
    9.4690    3.3050   23.5640 C   0  0  0  0  0  0  0  0  0  0  0  0
   10.0840    4.5470   23.7070 C   0  0  0  0  0  0  0  0  0  0  0  0
    9.4670    5.6740   23.2220 C   0  0  0  0  0  0  0  0  0  0  0  0
    8.2540    5.5840   22.5940 C   0  0  0  0  0  0  0  0  0  0  0  0
    7.5870    4.3580   22.4230 C   0  0  0  0  0  0  0  0  0  0  0  0
    8.1950    3.2090   22.9120 C   0  0  0  0  0  0  0  0  0  0  0  0
    3.1880   -1.9610   25.7730 C   0  0  0  0  0  0  0  0  0  0  0  0
    4.2680   -2.8800   25.7110 C   0  0  0  0  0  0  0  0  0  0  0  0
    3.9500   -4.2230   25.5610 C   0  0  0  0  0  0  0  0  0  0  0  0
    2.5830   -4.6140   25.4790 C   0  0  0  0  0  0  0  0  0  0  0  0
    1.5360   -3.6960   25.5390 C   0  0  0  0  0  0  0  0  0  0  0  0
    1.8520   -2.3630   25.6880 C   0  0  0  0  0  0  0  0  0  0  0  0
    6.6050   -5.4550   21.5940 C   0  0  0  0  0  0  0  0  0  0  0  0
    5.2930   -5.9590   21.6910 C   0  0  0  0  0  0  0  0  0  0  0  0
    4.6790   -6.2580   22.9280 C   0  0  0  0  0  0  0  0  0  0  0  0
    4.5870   -5.1620   23.9350 N   0  0  0  0  0  0  0  0  0  0  0  0
    5.6000   -4.1090   23.5940 C   0  0  0  0  0  0  0  0  0  0  0  0
    6.8400   -4.6440   22.8350 C   0  0  0  0  0  0  0  0  0  0  0  0
  2  4  1  0
  1  7  1  0
  3  7  2  0
  4  7  1  1
  1  8  1  0
  5  9  1  0
  6  9  2  0
  8  9  1  6
 10 11  1  0
 13 14  1  0
 13 15  1  0
 13 16  1  0
 15 17  1  0
  2 18  1  1
 19 22  2  0
 20 22  2  0
 20 23  2  0
 24 25  2  0
 25 26  1  0
 26 27  2  0
  8 28  1  0
 27 28  1  0
 24 29  1  0
 28 29  2  0
 30 31  1  0
  1 32  1  0
 31 32  1  0
 32 33  2  0
 13 34  1  0
 30 34  2  0
 33 34  1  0
 10 35  1  0
 35 36  2  0
 36 37  1  0
 37 38  2  0
 12 39  1  0
 38 39  1  0
  5 40  1  0
 35 40  1  0
 39 40  2  0
 21 41  1  0
 41 42  2  0
 22 43  1  1
 42 43  1  0
 43 44  2  0
 44 45  1  0
 41 46  1  0
 45 46  2  0
  2 47  1  0
  4 47  1  0
 47 48  1  0
 48 49  1  0
 22 50  1  0
 49 50  1  0
 50 51  1  0
 47 52  1  0
 51 52  1  0
M  END
