x2705-x1311-x2572-x2643
     RDKit          3D

 50 54  0  0  0  0  0  0  0  0999 V2000
    6.8070   -1.2840   21.8930 N   0  0  0  0  0  0  0  0  0  0  0  0
    6.9890   -4.5880   20.7730 C   0  0  2  0  0  0  0  0  0  0  0  0
    4.8010   -2.9630   21.2550 O   0  0  0  0  0  0  0  0  0  0  0  0
    7.0620   -3.4830   21.5700 C   0  0  0  0  0  0  0  0  0  0  0  0
    7.5180    2.1650   22.9840 N   0  0  0  0  0  0  0  0  0  0  0  0
    8.6830    1.3050   21.0030 O   0  0  0  0  0  0  0  0  0  0  0  0
    6.0720   -2.5130   21.5560 C   0  0  0  0  0  0  0  0  0  0  0  0
    6.4300    0.0970   21.5940 C   0  0  1  0  0  0  0  0  0  0  0  0
    7.5640    1.1890   21.8930 C   0  0  0  0  0  0  0  0  0  0  0  0
   10.2080    2.1620   23.9740 C   0  0  0  0  0  0  0  0  0  0  0  0
    9.3520    1.3260   24.9180 C   0  0  0  0  0  0  0  0  0  0  0  0
    6.1990    4.7200   22.0090 C   0  0  0  0  0  0  0  0  0  0  0  0
   11.9260   -1.4650   23.2920 C   0  0  0  0  0  0  0  0  0  0  0  0
   12.4480   -0.1870   23.9860 C   0  0  0  0  0  0  0  0  0  0  0  0
   12.3570   -2.6420   24.1950 C   0  0  0  0  0  0  0  0  0  0  0  0
   12.6880   -1.5920   22.0290 C   0  0  0  0  0  0  0  0  0  0  0  0
    5.7390   -4.7390   20.0660 O   0  0  0  0  0  0  0  0  0  0  0  0
    7.0070   -5.5680   21.9260 N   0  0  0  0  0  0  0  0  0  0  0  0
    4.3030   -7.6080   25.0270 O   0  0  0  0  0  0  0  0  0  0  0  0
    2.8600   -5.5730   24.7660 O   0  0  0  0  0  0  0  0  0  0  0  0
    3.7860    1.9080   21.3980 C   0  0  0  0  0  0  0  0  0  0  0  0
   13.3380   -1.6780   21.0620 N   0  0  0  0  0  0  0  0  0  0  0  0
    6.4100    0.3430   17.8090 N   0  0  0  0  0  0  0  0  0  0  0  0
    5.3400    1.1030   17.7490 C   0  0  0  0  0  0  0  0  0  0  0  0
    4.5770    1.5530   18.7950 C   0  0  0  0  0  0  0  0  0  0  0  0
    4.6580    1.3760   20.3080 C   0  0  0  0  0  0  0  0  0  0  0  0
    5.9010    0.5160   20.2710 C   0  0  0  0  0  0  0  0  0  0  0  0
    6.7030    0.0430   19.0570 C   0  0  0  0  0  0  0  0  0  0  0  0
    9.6600   -1.3270   24.2730 N   0  0  0  0  0  0  0  0  0  0  0  0
    8.3560   -1.2840   23.9060 N   0  0  0  0  0  0  0  0  0  0  0  0
    8.1400   -1.3390   22.5520 C   0  0  0  0  0  0  0  0  0  0  0  0
    9.4730   -1.4280   22.0580 C   0  0  0  0  0  0  0  0  0  0  0  0
   10.3780   -1.4130   23.1410 C   0  0  0  0  0  0  0  0  0  0  0  0
    9.5020    3.4190   23.5070 C   0  0  0  0  0  0  0  0  0  0  0  0
   10.1990    4.6140   23.5720 C   0  0  0  0  0  0  0  0  0  0  0  0
    9.5910    5.8100   23.1370 C   0  0  0  0  0  0  0  0  0  0  0  0
    8.2990    5.8130   22.6380 C   0  0  0  0  0  0  0  0  0  0  0  0
    7.5920    4.6180   22.5720 C   0  0  0  0  0  0  0  0  0  0  0  0
    8.1790    3.4150   23.0110 C   0  0  0  0  0  0  0  0  0  0  0  0
    8.6780   -6.1150   23.5140 C   0  0  0  0  0  0  0  0  0  0  0  0
    9.4780   -5.7960   24.6230 C   0  0  0  0  0  0  0  0  0  0  0  0
    9.3870   -4.5650   25.2210 C   0  0  0  0  0  0  0  0  0  0  0  0
    8.4910   -3.6270   24.7340 C   0  0  0  0  0  0  0  0  0  0  0  0
    7.6990   -3.9520   23.6320 C   0  0  0  0  0  0  0  0  0  0  0  0
    7.7980   -5.2130   23.0120 C   0  0  0  0  0  0  0  0  0  0  0  0
    4.8770   -6.5090   21.9610 C   0  0  0  0  0  0  0  0  0  0  0  0
    5.8890   -6.1270   22.7390 C   0  0  2  0  0  0  0  0  0  0  0  0
    5.4170   -5.4110   24.0010 C   0  0  0  0  0  0  0  0  0  0  0  0
    3.9650   -6.3890   24.3230 S   0  0  0  0  0  0  0  0  0  0  0  0
    3.6980   -6.7440   22.6200 C   0  0  0  0  0  0  0  0  0  0  0  0
  2  4  1  0
  1  7  1  0
  3  7  2  0
  4  7  1  0
  1  8  1  0
  5  9  1  0
  6  9  2  0
  8  9  1  6
 10 11  1  0
 13 14  1  0
 13 15  1  0
 13 16  1  0
  2 17  1  1
  2 18  1  0
 16 22  3  0
 23 24  2  0
 24 25  1  0
 21 26  1  0
 25 26  2  0
  8 27  1  0
 26 27  1  0
 23 28  1  0
 27 28  2  0
 29 30  1  0
  1 31  1  0
 30 31  1  0
 31 32  2  0
 13 33  1  0
 29 33  2  0
 32 33  1  0
 10 34  1  0
 34 35  2  0
 35 36  1  0
 36 37  2  0
 12 38  1  0
 37 38  1  0
  5 39  1  0
 34 39  1  0
 38 39  2  0
 40 41  2  0
 41 42  1  0
 42 43  2  0
 43 44  1  0
 18 45  1  0
 40 45  1  0
 44 45  2  0
 47 18  1  6
 46 47  1  0
 47 48  1  0
 49 19  1  0
 20 49  1  0
 48 49  1  0
 46 50  2  0
 49 50  1  0
M  END
