x2703-x1493
     RDKit          3D

 43 48  0  0  0  0  0  0  0  0999 V2000
    6.8230   -1.5810   21.8470 N   0  0  0  0  0  0  0  0  0  0  0  0
    6.6470   -4.6010   20.1870 C   0  0  2  0  0  0  0  0  0  0  0  0
    4.7340   -2.9850   21.3810 O   0  0  0  0  0  0  0  0  0  0  0  0
    6.8150   -3.9370   21.3680 C   0  0  2  0  0  0  0  0  0  0  0  0
    7.3260    1.8030   22.8270 N   0  0  0  0  0  0  0  0  0  0  0  0
    8.7480    0.6070   21.4570 O   0  0  0  0  0  0  0  0  0  0  0  0
    6.0050   -2.7680   21.5440 C   0  0  0  0  0  0  0  0  0  0  0  0
    6.4590   -0.1470   21.6100 C   0  0  1  0  0  0  0  0  0  0  0  0
    7.6310    0.7550   21.9460 C   0  0  0  0  0  0  0  0  0  0  0  0
    9.9770    1.8970   24.0520 C   0  0  0  0  0  0  0  0  0  0  0  0
    9.1080    1.2450   25.1220 C   0  0  0  0  0  0  0  0  0  0  0  0
    6.0640    4.4930   21.7190 C   0  0  0  0  0  0  0  0  0  0  0  0
   12.0080   -1.6320   24.5390 C   0  0  0  0  0  0  0  0  0  0  0  0
   12.5470   -2.8950   24.6890 C   0  0  0  0  0  0  0  0  0  0  0  0
   12.9810   -0.7740   23.7520 C   0  0  0  0  0  0  0  0  0  0  0  0
    5.4460   -4.3380   19.4810 O   0  0  0  0  0  0  0  0  0  0  0  0
    5.0140   -6.1060   26.2560 C   0  0  0  0  0  0  0  0  0  0  0  0
    7.2040   -5.5380   26.4770 O   0  0  0  0  0  0  0  0  0  0  0  0
    6.2180   -5.6160   25.7520 C   0  0  0  0  0  0  0  0  0  0  0  0
    6.3120    0.5310   17.8640 N   0  0  0  0  0  0  0  0  0  0  0  0
    5.1520    1.2100   17.7410 C   0  0  0  0  0  0  0  0  0  0  0  0
    4.3560    1.4330   18.9350 C   0  0  0  0  0  0  0  0  0  0  0  0
    4.7280    1.0050   20.1760 C   0  0  0  0  0  0  0  0  0  0  0  0
    5.9220    0.3280   20.2990 C   0  0  0  0  0  0  0  0  0  0  0  0
    6.6410    0.1290   19.1100 C   0  0  0  0  0  0  0  0  0  0  0  0
   10.5660   -2.0430   22.4740 N   0  0  0  0  0  0  0  0  0  0  0  0
   10.6970   -1.6720   23.7830 C   0  0  0  0  0  0  0  0  0  0  0  0
    9.4900   -1.3130   24.3740 C   0  0  0  0  0  0  0  0  0  0  0  0
    8.2510   -1.2940   23.7880 C   0  0  0  0  0  0  0  0  0  0  0  0
    8.1300   -1.6490   22.4770 C   0  0  0  0  0  0  0  0  0  0  0  0
    9.3320   -2.0200   21.8790 C   0  0  0  0  0  0  0  0  0  0  0  0
    9.2850    3.1230   23.5000 C   0  0  0  0  0  0  0  0  0  0  0  0
   10.0020    4.3340   23.6160 C   0  0  0  0  0  0  0  0  0  0  0  0
    9.3980    5.4890   23.1170 C   0  0  0  0  0  0  0  0  0  0  0  0
    8.1460    5.5380   22.5150 C   0  0  0  0  0  0  0  0  0  0  0  0
    7.4090    4.3710   22.3810 C   0  0  0  0  0  0  0  0  0  0  0  0
    8.0030    3.0630   22.9080 C   0  0  0  0  0  0  0  0  0  0  0  0
    6.2570   -5.2530   24.4180 N   0  0  0  0  0  0  0  0  0  0  0  0
    7.4700   -4.5930   23.9370 C   0  0  0  0  0  0  0  0  0  0  0  0
    7.6380   -4.8690   22.4440 C   0  0  1  0  0  0  0  0  0  0  0  0
    6.5410   -5.2190   21.6560 C   0  0  2  0  0  0  0  0  0  0  0  0
    5.4370   -5.7480   22.3030 C   0  0  0  0  0  0  0  0  0  0  0  0
    5.0900   -5.2180   23.5270 C   0  0  0  0  0  0  0  0  0  0  0  0
  2  4  1  0
  1  7  1  0
  3  7  2  0
  4  7  1  6
  1  8  1  0
  5  9  1  0
  6  9  2  0
  8  9  1  6
 10 11  1  0
 13 14  1  0
 13 15  1  0
  2 16  1  1
 17 19  1  0
 18 19  2  0
 20 21  2  0
 21 22  1  0
 22 23  2  0
  8 24  1  0
 23 24  1  0
 20 25  1  0
 24 25  2  0
 13 27  1  0
 26 27  2  0
 27 28  1  0
 28 29  2  0
  1 30  1  0
 29 30  1  0
 26 31  1  0
 30 31  2  0
 10 32  1  0
 32 33  2  0
 33 34  1  0
 34 35  2  0
 12 36  1  0
 35 36  1  0
  5 37  1  0
 32 37  1  0
 36 37  2  0
 19 38  1  0
 38 39  1  0
  4 40  1  0
 40 39  1  1
  2 41  1  0
  4 41  1  0
 40 41  1  0
 41 42  1  1
 38 43  1  0
 42 43  1  0
M  END
