x2703-x0991
     RDKit          3D

 39 41  0  0  0  0  0  0  0  0999 V2000
    6.8020   -1.5440   22.1200 N   0  0  0  0  0  0  0  0  0  0  0  0
    6.8160   -4.4870   20.1080 C   0  0  0  0  0  0  0  0  0  0  0  0
    4.7960   -3.0420   21.3840 O   0  0  0  0  0  0  0  0  0  0  0  0
    7.0450   -3.7740   21.3630 C   0  0  1  0  0  0  0  0  0  0  0  0
    7.3460    1.8940   22.8090 N   0  0  0  0  0  0  0  0  0  0  0  0
    8.7990    0.6130   21.5530 O   0  0  0  0  0  0  0  0  0  0  0  0
    6.0690   -2.7320   21.6250 C   0  0  0  0  0  0  0  0  0  0  0  0
    6.4980   -0.1150   21.7250 C   0  0  1  0  0  0  0  0  0  0  0  0
    7.6730    0.7940   22.0110 C   0  0  0  0  0  0  0  0  0  0  0  0
   10.0410    1.8740   23.9720 C   0  0  0  0  0  0  0  0  0  0  0  0
    9.1660    1.2500   25.0570 C   0  0  0  0  0  0  0  0  0  0  0  0
    6.0820    4.3000   21.8290 C   0  0  0  0  0  0  0  0  0  0  0  0
   12.0250   -2.0410   24.1580 C   0  0  0  0  0  0  0  0  0  0  0  0
   11.8240   -3.0670   25.0700 C   0  0  0  0  0  0  0  0  0  0  0  0
   12.3230   -0.7250   24.8730 C   0  0  0  0  0  0  0  0  0  0  0  0
   10.0980   -5.3970   25.3820 N   0  0  0  0  0  0  0  0  0  0  0  0
    8.1090   -4.2460   23.6330 C   0  0  0  0  0  0  0  0  0  0  0  0
    7.7560   -4.8630   24.8220 C   0  0  0  0  0  0  0  0  0  0  0  0
    8.3700   -5.8670   26.9530 N   0  0  0  0  0  0  0  0  0  0  0  0
    8.7710   -5.3940   25.7410 C   0  0  0  0  0  0  0  0  0  0  0  0
    7.1770   -4.7500   22.5270 C   0  0  0  0  0  0  0  0  0  0  0  0
    6.2880    0.2680   17.9520 N   0  0  0  0  0  0  0  0  0  0  0  0
    5.1290    0.9920   17.8350 C   0  0  0  0  0  0  0  0  0  0  0  0
    4.4160    1.3200   18.9860 C   0  0  0  0  0  0  0  0  0  0  0  0
    4.8840    0.9290   20.2340 C   0  0  0  0  0  0  0  0  0  0  0  0
    6.0360    0.2270   20.3290 C   0  0  0  0  0  0  0  0  0  0  0  0
    6.7180   -0.0990   19.1800 C   0  0  0  0  0  0  0  0  0  0  0  0
   10.5750   -1.8180   21.9250 N   0  0  0  0  0  0  0  0  0  0  0  0
   10.7920   -1.8940   23.2200 C   0  0  0  0  0  0  0  0  0  0  0  0
    9.9440   -1.8720   24.3130 C   0  0  0  0  0  0  0  0  0  0  0  0
    8.5730   -1.7500   23.9690 C   0  0  0  0  0  0  0  0  0  0  0  0
    8.1960   -1.6650   22.5860 C   0  0  0  0  0  0  0  0  0  0  0  0
    9.2430   -1.7020   21.6390 C   0  0  0  0  0  0  0  0  0  0  0  0
    9.3630    3.1310   23.4680 C   0  0  0  0  0  0  0  0  0  0  0  0
   10.0900    4.3330   23.5790 C   0  0  0  0  0  0  0  0  0  0  0  0
    9.5720    5.5570   23.1450 C   0  0  0  0  0  0  0  0  0  0  0  0
    8.1850    5.6360   22.5240 C   0  0  0  0  0  0  0  0  0  0  0  0
    7.4430    4.2930   22.4300 C   0  0  0  0  0  0  0  0  0  0  0  0
    8.0640    3.1140   22.9070 C   0  0  0  0  0  0  0  0  0  0  0  0
  4  2  1  6
  1  7  1  0
  3  7  2  0
  4  7  1  0
  1  8  1  0
  5  9  1  0
  6  9  2  0
  8  9  1  6
 10 11  1  0
 13 14  1  0
 13 15  1  0
 17 18  1  0
 16 20  2  3
 18 20  1  0
 19 20  1  0
  4 21  1  0
 17 21  1  0
 22 23  2  0
 23 24  1  0
 24 25  2  0
  8 26  1  0
 25 26  1  0
 22 27  1  0
 26 27  2  0
 13 29  1  0
 28 29  2  0
 29 30  1  0
 30 31  2  0
  1 32  1  0
 31 32  1  0
 28 33  1  0
 32 33  2  0
 10 34  1  0
 34 35  2  0
 35 36  1  0
 36 37  2  0
 12 38  1  0
 37 38  1  0
  5 39  1  0
 34 39  1  0
 38 39  2  0
M  END
