x2705-x2600
     RDKit          3D

 34 36  0  0  0  0  0  0  0  0999 V2000
    7.0400   -1.5960   21.7690 N   0  0  0  0  0  0  0  0  0  0  0  0
    6.9170   -4.9490   20.5150 C   0  0  0  0  0  0  0  0  0  0  0  0
    4.8590   -3.0450   21.2510 O   0  0  0  0  0  0  0  0  0  0  0  0
    6.9050   -4.0740   21.7220 C   0  0  0  0  0  0  0  0  0  0  0  0
    7.3160    1.9070   22.8480 N   0  0  0  0  0  0  0  0  0  0  0  0
    8.8640    0.6710   21.6360 O   0  0  0  0  0  0  0  0  0  0  0  0
    6.1560   -2.8220   21.5620 C   0  0  0  0  0  0  0  0  0  0  0  0
    6.5870   -0.1540   21.6960 C   0  0  1  0  0  0  0  0  0  0  0  0
    7.7130    0.8140   22.0530 C   0  0  0  0  0  0  0  0  0  0  0  0
   10.1230    1.9850   24.0150 C   0  0  0  0  0  0  0  0  0  0  0  0
    9.2280    1.2040   24.9750 C   0  0  0  0  0  0  0  0  0  0  0  0
    6.1130    4.3990   21.8960 C   0  0  0  0  0  0  0  0  0  0  0  0
   11.9930   -1.5350   23.4220 C   0  0  0  0  0  0  0  0  0  0  0  0
   12.4210   -0.3230   23.9740 C   0  0  0  0  0  0  0  0  0  0  0  0
   12.5030   -2.6240   24.3880 C   0  0  0  0  0  0  0  0  0  0  0  0
   12.7210   -1.7040   22.0860 C   0  0  0  0  0  0  0  0  0  0  0  0
   13.4870   -1.8040   20.8420 N   0  0  0  0  0  0  0  0  0  0  0  0
    6.2900    0.4200   17.7610 N   0  0  0  0  0  0  0  0  0  0  0  0
    5.2020    1.1240   17.7520 C   0  0  0  0  0  0  0  0  0  0  0  0
    4.4070    1.4900   18.9190 C   0  0  0  0  0  0  0  0  0  0  0  0
    4.9460    1.0020   20.1860 C   0  0  0  0  0  0  0  0  0  0  0  0
    6.1200    0.2500   20.2790 C   0  0  0  0  0  0  0  0  0  0  0  0
    6.7280   -0.0100   19.0640 C   0  0  0  0  0  0  0  0  0  0  0  0
    9.6450   -1.5700   24.2910 N   0  0  0  0  0  0  0  0  0  0  0  0
    8.3260   -1.5950   23.8770 N   0  0  0  0  0  0  0  0  0  0  0  0
    8.3090   -1.6070   22.5050 C   0  0  0  0  0  0  0  0  0  0  0  0
    9.6540   -1.5990   22.1260 C   0  0  0  0  0  0  0  0  0  0  0  0
   10.4540   -1.5710   23.2440 C   0  0  0  0  0  0  0  0  0  0  0  0
    9.3690    3.1930   23.4940 C   0  0  0  0  0  0  0  0  0  0  0  0
   10.0440    4.4140   23.5790 C   0  0  0  0  0  0  0  0  0  0  0  0
    9.4650    5.5980   23.1320 C   0  0  0  0  0  0  0  0  0  0  0  0
    8.1760    5.5650   22.5840 C   0  0  0  0  0  0  0  0  0  0  0  0
    7.4890    4.3360   22.4970 C   0  0  0  0  0  0  0  0  0  0  0  0
    8.0690    3.1330   22.9510 C   0  0  0  0  0  0  0  0  0  0  0  0
  2  4  1  0
  1  7  1  0
  3  7  2  0
  4  7  1  0
  1  8  1  0
  5  9  1  0
  6  9  2  0
  8  9  1  6
 10 11  1  0
 13 14  1  0
 13 15  1  0
 13 16  1  0
 16 17  3  0
 18 19  2  0
 19 20  1  0
 20 21  2  0
  8 22  1  0
 21 22  1  0
 18 23  1  0
 22 23  2  0
 24 25  1  0
  1 26  1  0
 25 26  2  0
 26 27  1  0
 13 28  1  0
 24 28  1  0
 27 28  2  0
 10 29  1  0
 29 30  2  0
 30 31  1  0
 31 32  2  0
 12 33  1  0
 32 33  1  0
  5 34  1  0
 29 34  1  0
 33 34  2  0
M  END
