x2705-x1402
     RDKit          3D

 49 55  0  0  0  0  0  0  0  0999 V2000
    6.8550   -1.4550   22.0210 N   0  0  0  0  0  0  0  0  0  0  0  0
    6.7340   -4.6120   20.3200 C   0  0  2  0  0  0  0  0  0  0  0  0
    4.7250   -2.9710   21.4210 O   0  0  0  0  0  0  0  0  0  0  0  0
    6.8890   -3.7580   21.5160 C   0  0  2  0  0  0  0  0  0  0  0  0
    7.3190    2.0180   22.8750 N   0  0  0  0  0  0  0  0  0  0  0  0
    8.8420    0.7480   21.6650 O   0  0  0  0  0  0  0  0  0  0  0  0
    6.0100   -2.6610   21.6650 C   0  0  0  0  0  0  0  0  0  0  0  0
    6.5420   -0.0060   21.7510 C   0  0  1  0  0  0  0  0  0  0  0  0
    7.6970    0.9210   22.0880 C   0  0  0  0  0  0  0  0  0  0  0  0
   10.0990    2.0260   24.0140 C   0  0  0  0  0  0  0  0  0  0  0  0
    9.2770    1.1970   25.0000 C   0  0  0  0  0  0  0  0  0  0  0  0
    6.1460    4.5000   21.9040 C   0  0  0  0  0  0  0  0  0  0  0  0
   12.0120   -1.5410   23.2670 C   0  0  0  0  0  0  0  0  0  0  0  0
   12.5100   -0.3080   23.7150 C   0  0  0  0  0  0  0  0  0  0  0  0
   12.5300   -2.5860   24.2820 C   0  0  0  0  0  0  0  0  0  0  0  0
   12.6530   -1.8400   21.8980 C   0  0  0  0  0  0  0  0  0  0  0  0
    5.4980   -4.5410   19.6340 O   0  0  0  0  0  0  0  0  0  0  0  0
    0.7760   -1.2910   26.0430 Cl  0  0  0  0  0  0  0  0  0  0  0  0
    4.0750   -6.5340   25.8650 O   0  0  0  0  0  0  0  0  0  0  0  0
    5.9700   -5.3880   26.8240 O   0  0  0  0  0  0  0  0  0  0  0  0
    4.9760   -5.3320   25.7010 S   0  0  0  0  0  0  0  0  0  0  0  0
    6.3380    0.3630   17.8180 N   0  0  0  0  0  0  0  0  0  0  0  0
    5.1350    1.1800   17.7360 C   0  0  0  0  0  0  0  0  0  0  0  0
    4.3920    1.5670   18.9300 C   0  0  0  0  0  0  0  0  0  0  0  0
    4.9480    1.0990   20.1910 C   0  0  0  0  0  0  0  0  0  0  0  0
    6.1080    0.3300   20.3120 C   0  0  0  0  0  0  0  0  0  0  0  0
    6.7380   -0.0060   19.1260 C   0  0  0  0  0  0  0  0  0  0  0  0
    9.7800   -1.5620   24.3890 N   0  0  0  0  0  0  0  0  0  0  0  0
    8.4570   -1.5440   24.0790 N   0  0  0  0  0  0  0  0  0  0  0  0
    8.1990   -1.5100   22.6130 C   0  0  0  0  0  0  0  0  0  0  0  0
    9.5130   -1.5190   22.1600 C   0  0  0  0  0  0  0  0  0  0  0  0
   10.4580   -1.5420   23.2090 C   0  0  0  0  0  0  0  0  0  0  0  0
    9.3850    3.2600   23.5040 C   0  0  0  0  0  0  0  0  0  0  0  0
   10.0840    4.4680   23.5850 C   0  0  0  0  0  0  0  0  0  0  0  0
    9.5200    5.6620   23.1350 C   0  0  0  0  0  0  0  0  0  0  0  0
    8.2280    5.6470   22.5880 C   0  0  0  0  0  0  0  0  0  0  0  0
    7.5220    4.4290   22.5070 C   0  0  0  0  0  0  0  0  0  0  0  0
    8.0880    3.2240   22.9680 C   0  0  0  0  0  0  0  0  0  0  0  0
    6.6820   -5.3790   21.5240 C   0  0  2  0  0  0  0  0  0  0  0  0
    7.4680   -4.8240   22.4540 C   0  0  2  0  0  0  0  0  0  0  0  0
    7.0660   -4.8180   23.9440 C   0  0  0  0  0  0  0  0  0  0  0  0
    5.7200   -5.4210   24.1560 N   0  0  0  0  0  0  0  0  0  0  0  0
    4.8380   -5.5770   22.9680 C   0  0  0  0  0  0  0  0  0  0  0  0
    5.5880   -6.2410   21.9950 C   0  0  0  0  0  0  0  0  0  0  0  0
    2.2920   -3.8500   25.7540 S   0  0  0  0  0  0  0  0  0  0  0  0
    4.0050   -3.8490   25.8500 C   0  0  0  0  0  0  0  0  0  0  0  0
    4.5240   -2.5780   26.0510 C   0  0  0  0  0  0  0  0  0  0  0  0
    3.5720   -1.5900   26.1350 C   0  0  0  0  0  0  0  0  0  0  0  0
    2.2660   -2.1570   25.9890 C   0  0  0  0  0  0  0  0  0  0  0  0
  2  4  1  0
  1  7  1  0
  3  7  2  0
  4  7  1  1
  1  8  1  0
  5  9  1  0
  6  9  2  0
  8  9  1  6
 10 11  1  0
 13 14  1  0
 13 15  1  0
 13 16  1  0
  2 17  1  1
 19 21  2  0
 20 21  2  0
 22 23  2  0
 23 24  1  0
 24 25  2  0
  8 26  1  0
 25 26  1  0
 22 27  1  0
 26 27  2  0
 28 29  1  0
  1 30  1  0
 29 30  1  0
 30 31  2  0
 13 32  1  0
 28 32  2  0
 31 32  1  0
 10 33  1  0
 33 34  2  0
 34 35  1  0
 35 36  2  0
 12 37  1  0
 36 37  1  0
  5 38  1  0
 33 38  1  0
 37 38  2  0
  2 39  1  0
  4 39  1  0
  4 40  1  0
 39 40  1  0
 40 41  1  1
 21 42  1  0
 41 42  1  0
 42 43  1  0
 39 44  1  1
 43 44  1  0
 21 46  1  0
 45 46  1  0
 46 47  2  0
 47 48  1  0
 18 49  1  0
 45 49  1  0
 48 49  2  0
M  END
