x2705-x0691-x2572-x0731
     RDKit          3D

 53 58  0  0  0  0  0  0  0  0999 V2000
    6.9570   -1.5060   21.9590 N   0  0  0  0  0  0  0  0  0  0  0  0
    6.7360   -4.5300   20.2890 C   0  0  2  0  0  0  0  0  0  0  0  0
    4.8350   -3.0400   21.3090 O   0  0  0  0  0  0  0  0  0  0  0  0
    7.0140   -3.9670   21.5730 C   0  0  1  0  0  0  0  0  0  0  0  0
    7.4140    1.8880   22.8520 N   0  0  0  0  0  0  0  0  0  0  0  0
    8.7550    0.7690   21.4060 O   0  0  0  0  0  0  0  0  0  0  0  0
    6.1460   -2.7960   21.6070 C   0  0  0  0  0  0  0  0  0  0  0  0
    6.5680   -0.1300   21.6240 C   0  0  1  0  0  0  0  0  0  0  0  0
    7.6430    0.8770   21.9840 C   0  0  0  0  0  0  0  0  0  0  0  0
   10.0960    1.9850   23.9960 C   0  0  0  0  0  0  0  0  0  0  0  0
    9.2610    1.1900   24.9920 C   0  0  0  0  0  0  0  0  0  0  0  0
    6.1100    4.4370   21.8440 C   0  0  0  0  0  0  0  0  0  0  0  0
   12.0020   -1.5390   23.2910 C   0  0  0  0  0  0  0  0  0  0  0  0
   12.5130   -0.2370   23.9100 C   0  0  0  0  0  0  0  0  0  0  0  0
   12.4770   -2.6140   24.2680 C   0  0  0  0  0  0  0  0  0  0  0  0
   12.7100   -1.7780   21.9980 C   0  0  0  0  0  0  0  0  0  0  0  0
    5.4600   -4.3460   19.6800 O   0  0  0  0  0  0  0  0  0  0  0  0
    3.8740   -6.8050   25.6860 O   0  0  0  0  0  0  0  0  0  0  0  0
    5.6390   -5.3580   26.7900 O   0  0  0  0  0  0  0  0  0  0  0  0
    3.3370   -0.7310   26.2270 F   0  0  0  0  0  0  0  0  0  0  0  0
    4.6700   -5.5990   25.7420 S   0  0  0  0  0  0  0  0  0  0  0  0
    0.6260   -1.1760   25.9110 C   0  0  0  0  0  0  0  0  0  0  0  0
    4.1120    1.3660   21.4160 C   0  0  0  0  0  0  0  0  0  0  0  0
   13.3150   -1.9280   21.0150 N   0  0  0  0  0  0  0  0  0  0  0  0
    6.3620    0.4260   17.7880 N   0  0  0  0  0  0  0  0  0  0  0  0
    5.2280    1.1460   17.7720 C   0  0  0  0  0  0  0  0  0  0  0  0
    4.4900    1.4530   18.8980 C   0  0  0  0  0  0  0  0  0  0  0  0
    4.9300    1.0080   20.2150 C   0  0  0  0  0  0  0  0  0  0  0  0
    6.0840    0.2880   20.2800 C   0  0  0  0  0  0  0  0  0  0  0  0
    6.8040   -0.0050   18.9830 C   0  0  0  0  0  0  0  0  0  0  0  0
    9.6650   -1.6130   24.3560 N   0  0  0  0  0  0  0  0  0  0  0  0
    8.3780   -1.6060   23.9320 N   0  0  0  0  0  0  0  0  0  0  0  0
    8.2790   -1.5530   22.6040 C   0  0  0  0  0  0  0  0  0  0  0  0
    9.5780   -1.5260   22.0570 C   0  0  0  0  0  0  0  0  0  0  0  0
   10.4560   -1.5600   23.1820 C   0  0  0  0  0  0  0  0  0  0  0  0
    9.3770    3.2160   23.4920 C   0  0  0  0  0  0  0  0  0  0  0  0
   10.0520    4.4310   23.5990 C   0  0  0  0  0  0  0  0  0  0  0  0
    9.4490    5.5800   23.1510 C   0  0  0  0  0  0  0  0  0  0  0  0
    8.1970    5.5370   22.6000 C   0  0  0  0  0  0  0  0  0  0  0  0
    7.4750    4.3370   22.4700 C   0  0  0  0  0  0  0  0  0  0  0  0
    8.0690    3.1700   22.9250 C   0  0  0  0  0  0  0  0  0  0  0  0
    2.9690   -2.0040   26.0260 C   0  0  0  0  0  0  0  0  0  0  0  0
    3.9440   -3.0020   25.9900 C   0  0  0  0  0  0  0  0  0  0  0  0
    3.5110   -4.2970   25.7820 C   0  0  0  0  0  0  0  0  0  0  0  0
    2.1550   -4.6080   25.6070 C   0  0  0  0  0  0  0  0  0  0  0  0
    1.1960   -3.6040   25.6440 C   0  0  0  0  0  0  0  0  0  0  0  0
    1.6150   -2.2990   25.8580 C   0  0  0  0  0  0  0  0  0  0  0  0
    6.8570   -5.4260   21.6320 C   0  0  0  0  0  0  0  0  0  0  0  0
    5.6640   -6.0980   21.9420 C   0  0  0  0  0  0  0  0  0  0  0  0
    4.7830   -5.6180   22.9350 C   0  0  0  0  0  0  0  0  0  0  0  0
    5.4860   -5.5080   24.2320 N   0  0  0  0  0  0  0  0  0  0  0  0
    6.8270   -4.8940   24.1740 C   0  0  0  0  0  0  0  0  0  0  0  0
    7.1740   -4.4810   22.7550 C   0  0  0  0  0  0  0  0  0  0  0  0
  2  4  1  0
  1  7  1  0
  3  7  2  0
  4  7  1  1
  1  8  1  0
  5  9  1  0
  6  9  2  0
  8  9  1  6
 10 11  1  0
 13 14  1  0
 13 15  1  0
 13 16  1  0
  2 17  1  1
 18 21  2  0
 19 21  2  0
 16 24  3  0
 25 26  2  0
 26 27  1  0
 23 28  1  0
 27 28  2  0
  8 29  1  0
 28 29  1  0
 25 30  1  0
 29 30  2  0
 31 32  1  0
  1 33  1  0
 32 33  1  0
 33 34  2  0
 13 35  1  0
 31 35  2  0
 34 35  1  0
 10 36  1  0
 36 37  2  0
 37 38  1  0
 38 39  2  0
 12 40  1  0
 39 40  1  0
  5 41  1  0
 36 41  1  0
 40 41  2  0
 20 42  1  0
 42 43  2  0
 21 44  1  0
 43 44  1  0
 44 45  2  0
 45 46  1  0
 22 47  1  0
 42 47  1  0
 46 47  2  0
  2 48  1  0
  4 48  1  0
 48 49  1  0
 49 50  1  0
 21 51  1  0
 50 51  1  0
 51 52  1  0
 48 53  1  0
 52 53  1  0
M  END
