x2703-x0771
     RDKit          3D

 51 57  0  0  0  0  0  0  0  0999 V2000
    6.9130   -1.5010   21.7840 N   0  0  0  0  0  0  0  0  0  0  0  0
    6.7020   -4.3330   20.2890 C   0  0  2  0  0  0  0  0  0  0  0  0
    5.0080   -3.4160   21.4100 O   0  0  0  0  0  0  0  0  0  0  0  0
    6.7980   -3.4770   21.4870 C   0  0  2  0  0  0  0  0  0  0  0  0
    7.4490    1.8490   22.8050 N   0  0  0  0  0  0  0  0  0  0  0  0
    8.9140    0.7050   21.4360 O   0  0  0  0  0  0  0  0  0  0  0  0
    5.7710   -2.4110   21.5970 C   0  0  0  0  0  0  0  0  0  0  0  0
    6.6360   -0.0540   21.5760 C   0  0  1  0  0  0  0  0  0  0  0  0
    7.7940    0.8320   21.9160 C   0  0  0  0  0  0  0  0  0  0  0  0
   10.0870    1.9400   23.9900 C   0  0  0  0  0  0  0  0  0  0  0  0
    9.2060    1.1520   24.9600 C   0  0  0  0  0  0  0  0  0  0  0  0
    6.1290    4.5250   21.7690 C   0  0  0  0  0  0  0  0  0  0  0  0
   12.1770   -2.2470   24.1300 C   0  0  0  0  0  0  0  0  0  0  0  0
   12.0370   -3.1530   25.1580 C   0  0  0  0  0  0  0  0  0  0  0  0
   12.6880   -0.9120   24.6980 C   0  0  0  0  0  0  0  0  0  0  0  0
    5.4920   -4.3630   19.5500 O   0  0  0  0  0  0  0  0  0  0  0  0
    0.5920   -1.3770   26.1680 C   0  0  0  0  0  0  0  0  0  0  0  0
    4.5730   -6.8690   25.9790 O   0  0  0  0  0  0  0  0  0  0  0  0
    6.1840   -5.2060   26.8470 O   0  0  0  0  0  0  0  0  0  0  0  0
    2.2220   -6.1560   25.0360 C   0  0  0  0  0  0  0  0  0  0  0  0
    5.1900   -5.5080   25.7560 S   0  0  0  0  0  0  0  0  0  0  0  0
    6.3100    0.5180   17.8640 N   0  0  0  0  0  0  0  0  0  0  0  0
    5.1450    1.1810   17.7820 C   0  0  0  0  0  0  0  0  0  0  0  0
    4.3620    1.4610   18.9800 C   0  0  0  0  0  0  0  0  0  0  0  0
    4.8200    1.0590   20.2170 C   0  0  0  0  0  0  0  0  0  0  0  0
    6.0300    0.3920   20.2830 C   0  0  0  0  0  0  0  0  0  0  0  0
    6.7070    0.1520   19.0880 C   0  0  0  0  0  0  0  0  0  0  0  0
   10.5960   -1.7940   22.2580 N   0  0  0  0  0  0  0  0  0  0  0  0
   10.7860   -2.0710   23.5650 C   0  0  0  0  0  0  0  0  0  0  0  0
    9.6110   -2.1820   24.3370 C   0  0  0  0  0  0  0  0  0  0  0  0
    8.3380   -2.0150   23.7970 C   0  0  0  0  0  0  0  0  0  0  0  0
    8.1850   -1.7270   22.4560 C   0  0  0  0  0  0  0  0  0  0  0  0
    9.3550   -1.6280   21.7460 C   0  0  0  0  0  0  0  0  0  0  0  0
    9.3680    3.1730   23.4750 C   0  0  0  0  0  0  0  0  0  0  0  0
   10.0450    4.4000   23.5980 C   0  0  0  0  0  0  0  0  0  0  0  0
    9.4650    5.5980   23.1470 C   0  0  0  0  0  0  0  0  0  0  0  0
    8.1940    5.6050   22.5580 C   0  0  0  0  0  0  0  0  0  0  0  0
    7.4820    4.4170   22.4140 C   0  0  0  0  0  0  0  0  0  0  0  0
    8.0950    3.1110   22.9020 C   0  0  0  0  0  0  0  0  0  0  0  0
    1.6980   -2.3800   26.0520 C   0  0  0  0  0  0  0  0  0  0  0  0
    1.4090   -3.7810   25.5890 C   0  0  0  0  0  0  0  0  0  0  0  0
    2.5590   -4.7640   25.4990 C   0  0  0  0  0  0  0  0  0  0  0  0
    3.8630   -4.3200   25.8540 C   0  0  0  0  0  0  0  0  0  0  0  0
    4.0930   -2.9940   26.2760 C   0  0  0  0  0  0  0  0  0  0  0  0
    3.0080   -2.0490   26.3670 C   0  0  0  0  0  0  0  0  0  0  0  0
    6.7650   -5.0770   21.5450 C   0  0  1  0  0  0  0  0  0  0  0  0
    5.7320   -6.0740   21.8880 C   0  0  0  0  0  0  0  0  0  0  0  0
    4.9160   -5.6540   23.0890 C   0  0  0  0  0  0  0  0  0  0  0  0
    5.8780   -5.4030   24.2190 N   0  0  0  0  0  0  0  0  0  0  0  0
    6.7960   -4.2110   24.0100 C   0  0  0  0  0  0  0  0  0  0  0  0
    7.3970   -4.2450   22.6060 C   0  0  2  0  0  0  0  0  0  0  0  0
  2  4  1  0
  1  7  1  0
  3  7  2  0
  4  7  1  1
  1  8  1  0
  5  9  1  0
  6  9  2  0
  8  9  1  6
 10 11  1  0
 13 14  1  0
 13 15  1  0
  2 16  1  1
 18 21  2  0
 19 21  2  0
 22 23  2  0
 23 24  1  0
 24 25  2  0
  8 26  1  0
 25 26  1  0
 22 27  1  0
 26 27  2  0
 13 29  1  0
 28 29  2  0
 29 30  1  0
 30 31  2  0
  1 32  1  0
 31 32  1  0
 28 33  1  0
 32 33  2  0
 10 34  1  0
 34 35  2  0
 35 36  1  0
 36 37  2  0
 12 38  1  0
 37 38  1  0
  5 39  1  0
 34 39  1  0
 38 39  2  0
 17 40  1  0
 40 41  2  0
 20 42  1  0
 41 42  1  0
 21 43  1  0
 42 43  2  0
 43 44  1  0
 40 45  1  0
 44 45  2  0
  2 46  1  0
  4 46  1  0
 46 47  1  1
 47 48  1  0
 21 49  1  0
 48 49  1  0
 49 50  1  0
  4 51  1  0
 46 51  1  0
 51 50  1  1
M  END
