x2703-x0981
     RDKit          3D

 46 48  0  0  0  0  0  0  0  0999 V2000
    6.8810   -1.8190   21.9350 N   0  0  0  0  0  0  0  0  0  0  0  0
    6.4600   -4.9590   20.3370 C   0  0  0  0  0  0  0  0  0  0  0  0
    4.7320   -2.9580   21.3140 O   0  0  0  0  0  0  0  0  0  0  0  0
    6.4300   -4.3950   21.7050 C   0  0  1  0  0  0  0  0  0  0  0  0
    7.3060    1.6990   22.7930 N   0  0  0  0  0  0  0  0  0  0  0  0
    8.8350    0.4430   21.5880 O   0  0  0  0  0  0  0  0  0  0  0  0
    5.9550   -2.9800   21.6570 C   0  0  0  0  0  0  0  0  0  0  0  0
    6.5420   -0.3490   21.6350 C   0  0  1  0  0  0  0  0  0  0  0  0
    7.6850    0.5980   21.9950 C   0  0  0  0  0  0  0  0  0  0  0  0
    9.9730    1.7670   24.0000 C   0  0  0  0  0  0  0  0  0  0  0  0
    9.1010    1.1570   25.0930 C   0  0  0  0  0  0  0  0  0  0  0  0
    6.0550    4.2140   21.7480 C   0  0  0  0  0  0  0  0  0  0  0  0
   12.2930   -1.8900   23.9850 C   0  0  0  0  0  0  0  0  0  0  0  0
   12.6200   -2.9220   24.8400 C   0  0  0  0  0  0  0  0  0  0  0  0
   12.6070   -0.5470   24.6260 C   0  0  0  0  0  0  0  0  0  0  0  0
    1.3760   -8.4870   21.7180 C   0  0  0  0  0  0  0  0  0  0  0  0
    2.9750   -6.9290   22.7220 N   0  0  0  0  0  0  0  0  0  0  0  0
    0.5380   -6.3920   22.3650 O   0  0  0  0  0  0  0  0  0  0  0  0
    1.6840   -7.2480   22.3040 C   0  0  0  0  0  0  0  0  0  0  0  0
    2.4960   -8.2530   26.2480 N   0  0  0  0  0  0  0  0  0  0  0  0
    4.0000   -8.1700   24.6040 O   0  0  0  0  0  0  0  0  0  0  0  0
    3.1890   -5.8480   23.6000 C   0  0  1  0  0  0  0  0  0  0  0  0
    5.4940   -5.2980   22.3640 N   0  0  0  0  0  0  0  0  0  0  0  0
    4.8290   -4.1980   24.2890 O   0  0  0  0  0  0  0  0  0  0  0  0
    2.9820   -6.2420   25.0050 C   0  0  0  0  0  0  0  0  0  0  0  0
    3.1700   -7.5800   25.2830 C   0  0  0  0  0  0  0  0  0  0  0  0
    4.5530   -5.0500   23.4550 C   0  0  0  0  0  0  0  0  0  0  0  0
    5.8160   -6.0890   20.0450 C   0  0  0  0  0  0  0  0  0  0  0  0
    6.3020    0.2840   17.9190 N   0  0  0  0  0  0  0  0  0  0  0  0
    5.1490    0.9680   17.8730 C   0  0  0  0  0  0  0  0  0  0  0  0
    4.3600    1.2570   18.9660 C   0  0  0  0  0  0  0  0  0  0  0  0
    4.8030    0.8170   20.1890 C   0  0  0  0  0  0  0  0  0  0  0  0
    5.9960    0.1130   20.2980 C   0  0  0  0  0  0  0  0  0  0  0  0
    6.7160   -0.1390   19.1330 C   0  0  0  0  0  0  0  0  0  0  0  0
   10.6420   -2.1010   22.1970 N   0  0  0  0  0  0  0  0  0  0  0  0
   10.8490   -1.8920   23.5070 C   0  0  0  0  0  0  0  0  0  0  0  0
    9.7680   -1.6710   24.3710 C   0  0  0  0  0  0  0  0  0  0  0  0
    8.4490   -1.6610   23.8730 C   0  0  0  0  0  0  0  0  0  0  0  0
    8.2260   -1.8670   22.5100 C   0  0  0  0  0  0  0  0  0  0  0  0
    9.3550   -2.0860   21.7450 C   0  0  0  0  0  0  0  0  0  0  0  0
    9.2870    3.0030   23.4680 C   0  0  0  0  0  0  0  0  0  0  0  0
   10.0620    4.3270   23.5940 C   0  0  0  0  0  0  0  0  0  0  0  0
    9.4750    5.5070   23.1140 C   0  0  0  0  0  0  0  0  0  0  0  0
    8.0830    5.4050   22.4830 C   0  0  0  0  0  0  0  0  0  0  0  0
    7.4120    4.1620   22.3920 C   0  0  0  0  0  0  0  0  0  0  0  0
    7.9850    2.9740   22.8710 C   0  0  0  0  0  0  0  0  0  0  0  0
  4  2  1  6
  1  7  1  0
  3  7  2  0
  4  7  1  0
  1  8  1  0
  5  9  1  0
  6  9  2  0
  8  9  1  6
 10 11  1  0
 13 14  1  0
 13 15  1  0
 16 19  1  0
 17 19  1  0
 18 19  2  0
 17 22  1  0
  4 23  1  0
 22 25  1  1
 20 26  1  0
 21 26  2  0
 25 26  1  0
 22 27  1  0
 23 27  1  0
 24 27  2  0
  2 28  2  3
 29 30  2  0
 30 31  1  0
 31 32  2  0
  8 33  1  0
 32 33  1  0
 29 34  1  0
 33 34  2  0
 13 36  1  0
 35 36  2  0
 36 37  1  0
 37 38  2  0
  1 39  1  0
 38 39  1  0
 35 40  1  0
 39 40  2  0
 10 41  1  0
 41 42  2  0
 42 43  1  0
 43 44  2  0
 12 45  1  0
 44 45  1  0
  5 46  1  0
 41 46  1  0
 45 46  2  0
M  END
