x2705-x0691-x2643-x1119
     RDKit          3D

 74 81  0  0  0  0  0  0  0  0999 V2000
    6.9660   -1.4730   21.9040 N   0  0  0  0  0  0  0  0  0  0  0  0
    6.7000   -4.5680   20.2660 C   0  0  2  0  0  0  0  0  0  0  0  0
    4.7510   -2.9280   21.2810 O   0  0  0  0  0  0  0  0  0  0  0  0
    6.8520   -3.8980   21.5050 C   0  0  1  0  0  0  0  0  0  0  0  0
    7.3540    1.8980   22.8150 N   0  0  0  0  0  0  0  0  0  0  0  0
    8.7530    0.8100   21.3390 O   0  0  0  0  0  0  0  0  0  0  0  0
    6.0590   -2.6840   21.5550 C   0  0  0  0  0  0  0  0  0  0  0  0
    6.6400   -0.0160   21.6140 C   0  0  1  0  0  0  0  0  0  0  0  0
    7.6600    0.8870   21.9000 C   0  0  0  0  0  0  0  0  0  0  0  0
   10.1060    1.9950   23.9660 C   0  0  0  0  0  0  0  0  0  0  0  0
    9.2390    1.1380   24.9270 C   0  0  0  0  0  0  0  0  0  0  0  0
    6.0360    4.4100   21.8500 C   0  0  0  0  0  0  0  0  0  0  0  0
   12.1940   -1.0480   22.9680 C   0  0  0  0  0  0  0  0  0  0  0  0
   12.6770    0.3300   22.3350 C   0  0  0  0  0  0  0  0  0  0  0  0
   12.7400   -1.3360   24.3870 C   0  0  0  0  0  0  0  0  0  0  0  0
   12.7780   -2.0760   22.0810 C   0  0  0  0  0  0  0  0  0  0  0  0
    5.5050   -4.2000   19.6140 O   0  0  0  0  0  0  0  0  0  0  0  0
    4.0150   -6.9910   25.8880 O   0  0  0  0  0  0  0  0  0  0  0  0
    5.6920   -5.3140   26.8160 O   0  0  0  0  0  0  0  0  0  0  0  0
    3.1070   -0.5320   26.0050 F   0  0  0  0  0  0  0  0  0  0  0  0
    4.7310   -5.5730   25.7740 S   0  0  0  0  0  0  0  0  0  0  0  0
   21.4230    7.9650   22.2910 N   0  0  0  0  0  0  0  0  0  0  0  0
   21.3010    2.6800   26.1290 N   0  0  0  0  0  0  0  0  0  0  0  0
   23.5240    3.4800   27.1180 N   0  0  0  0  0  0  0  0  0  0  0  0
   23.6970    2.3330   24.9700 O   0  0  0  0  0  0  0  0  0  0  0  0
   22.7110    3.1590   25.6590 S   0  0  1  0  0  0  0  0  0  0  0  0
   13.6500    1.3880   22.8680 C   0  0  0  0  0  0  0  0  0  0  0  0
   14.7000    2.4330   22.0360 C   0  0  0  0  0  0  0  0  0  0  0  0
   15.8800    3.5550   22.4470 C   0  0  0  0  0  0  0  0  0  0  0  0
   17.3370    3.4280   23.1750 C   0  0  0  0  0  0  0  0  0  0  0  0
   17.9750    3.8360   24.3800 C   0  0  0  0  0  0  0  0  0  0  0  0
   19.3020    3.2880   24.7460 C   0  0  0  0  0  0  0  0  0  0  0  0
   20.0480    3.3100   25.9670 C   0  0  0  0  0  0  0  0  0  0  0  0
    6.3140    0.4090   17.8910 N   0  0  0  0  0  0  0  0  0  0  0  0
    5.1840    1.1210   17.7680 C   0  0  0  0  0  0  0  0  0  0  0  0
    4.4650    1.4680   18.8850 C   0  0  0  0  0  0  0  0  0  0  0  0
    4.9100    1.0990   20.1420 C   0  0  0  0  0  0  0  0  0  0  0  0
    6.0820    0.3780   20.2780 C   0  0  0  0  0  0  0  0  0  0  0  0
    6.7450    0.0510   19.1080 C   0  0  0  0  0  0  0  0  0  0  0  0
    9.8630   -1.5780   24.1060 N   0  0  0  0  0  0  0  0  0  0  0  0
    8.5050   -1.7100   23.8880 N   0  0  0  0  0  0  0  0  0  0  0  0
    8.3010   -1.4710   22.5510 C   0  0  0  0  0  0  0  0  0  0  0  0
    9.5980   -1.2070   22.0150 C   0  0  0  0  0  0  0  0  0  0  0  0
   10.6270   -1.2600   22.9850 C   0  0  0  0  0  0  0  0  0  0  0  0
    9.3730    3.2250   23.4740 C   0  0  0  0  0  0  0  0  0  0  0  0
   10.1060    4.4310   23.6100 C   0  0  0  0  0  0  0  0  0  0  0  0
    9.5370    5.6600   23.1820 C   0  0  0  0  0  0  0  0  0  0  0  0
    8.2670    5.7210   22.6240 C   0  0  0  0  0  0  0  0  0  0  0  0
    7.3890    4.4360   22.4360 C   0  0  0  0  0  0  0  0  0  0  0  0
    8.0720    3.1400   22.9300 C   0  0  0  0  0  0  0  0  0  0  0  0
    2.8240   -1.8340   25.9100 C   0  0  0  0  0  0  0  0  0  0  0  0
    3.9610   -2.8450   25.8980 C   0  0  0  0  0  0  0  0  0  0  0  0
    3.5010   -4.2860   25.7860 C   0  0  0  0  0  0  0  0  0  0  0  0
    2.1480   -4.6160   25.6980 C   0  0  0  0  0  0  0  0  0  0  0  0
    1.1620   -3.6170   25.7160 C   0  0  0  0  0  0  0  0  0  0  0  0
    1.4940   -2.2580   25.8210 C   0  0  0  0  0  0  0  0  0  0  0  0
    6.5410   -5.2710   21.7660 C   0  0  0  0  0  0  0  0  0  0  0  0
    5.2750   -5.8400   21.9420 C   0  0  0  0  0  0  0  0  0  0  0  0
    4.9590   -6.3150   23.2010 C   0  0  0  0  0  0  0  0  0  0  0  0
    5.4780   -5.4370   24.2570 N   0  0  0  0  0  0  0  0  0  0  0  0
    6.9440   -5.2600   24.2250 C   0  0  0  0  0  0  0  0  0  0  0  0
    7.5150   -5.6170   22.8540 C   0  0  0  0  0  0  0  0  0  0  0  0
   21.7750    6.7990   23.0860 C   0  0  0  0  0  0  0  0  0  0  0  0
   22.8070    5.9050   22.6630 C   0  0  0  0  0  0  0  0  0  0  0  0
   23.1020    4.7880   23.4660 C   0  0  0  0  0  0  0  0  0  0  0  0
   22.3930    4.5640   24.6450 C   0  0  0  0  0  0  0  0  0  0  0  0
   21.4070    5.4360   25.0480 C   0  0  0  0  0  0  0  0  0  0  0  0
   21.0960    6.5430   24.2790 C   0  0  0  0  0  0  0  0  0  0  0  0
   24.8520    4.7650   28.5530 N   0  0  0  0  0  0  0  0  0  0  0  0
   25.8430    5.6540   28.7850 C   0  0  0  0  0  0  0  0  0  0  0  0
   26.5980    6.2330   27.7830 C   0  0  0  0  0  0  0  0  0  0  0  0
   26.3180    5.8770   26.4720 C   0  0  0  0  0  0  0  0  0  0  0  0
   25.2960    4.9570   26.2100 C   0  0  0  0  0  0  0  0  0  0  0  0
   24.5750    4.4150   27.2760 C   0  0  0  0  0  0  0  0  0  0  0  0
  2  4  1  0
  1  7  1  0
  3  7  2  0
  4  7  1  1
  1  8  1  0
  5  9  1  0
  6  9  2  0
  8  9  1  6
 10 11  1  0
 13 14  1  0
 13 15  1  0
 13 16  1  0
  2 17  1  1
 18 21  2  0
 19 21  2  0
 23 26  2  0
 26 24  1  1
 25 26  2  0
 14 27  1  0
 27 28  1  0
 28 29  1  0
 29 30  1  0
 30 31  1  0
 31 32  1  0
 23 33  1  0
 32 33  1  0
 34 35  2  0
 35 36  1  0
 36 37  2  0
  8 38  1  0
 37 38  1  0
 34 39  1  0
 38 39  2  0
 40 41  1  0
  1 42  1  0
 41 42  2  0
 42 43  1  0
 13 44  1  0
 40 44  1  0
 43 44  2  0
 10 45  1  0
 45 46  2  0
 46 47  1  0
 47 48  2  0
 12 49  1  0
 48 49  1  0
  5 50  1  0
 45 50  1  0
 49 50  2  0
 20 51  1  0
 51 52  2  0
 21 53  1  0
 52 53  1  0
 53 54  2  0
 54 55  1  0
 51 56  1  0
 55 56  2  0
  2 57  1  0
  4 57  1  0
 57 58  1  0
 58 59  1  0
 21 60  1  0
 59 60  1  0
 60 61  1  0
 57 62  1  0
 61 62  1  0
 22 63  1  0
 63 64  2  0
 64 65  1  0
 26 66  1  0
 65 66  2  0
 66 67  1  0
 63 68  1  0
 67 68  2  0
 69 70  2  0
 70 71  1  0
 71 72  2  0
 72 73  1  0
 24 74  1  0
 69 74  1  0
 73 74  2  0
M  END
