x2754-x0107
     RDKit          3D

 31 33  0  0  0  0  0  0  0  0999 V2000
    4.9070   -3.2010   25.2420 C   0  0  0  0  0  0  0  0  0  0  0  0
    3.7310   -2.9930   24.9720 O   0  0  0  0  0  0  0  0  0  0  0  0
    5.5650   -2.9920   26.5620 N   0  0  0  0  0  0  0  0  0  0  0  0
    5.3460   -4.6690   19.9360 O   0  0  0  0  0  0  0  0  0  0  0  0
    6.3410   -4.0490   20.3860 C   0  0  0  0  0  0  0  0  0  0  0  0
    7.1760   -3.2030   19.4960 C   0  0  0  0  0  0  0  0  0  0  0  0
    4.9950   -2.1290   27.6180 C   0  0  0  0  0  0  0  0  0  0  0  0
    9.5990   -1.1630   22.3610 C   0  0  0  0  0  0  0  0  0  0  0  0
    8.5700   -0.3040   21.5910 C   0  0  0  0  0  0  0  0  0  0  0  0
    8.8100    0.9060   21.4970 O   0  0  0  0  0  0  0  0  0  0  0  0
    7.4420   -0.9260   21.0100 N   0  0  0  0  0  0  0  0  0  0  0  0
    5.1950    0.8400   21.9730 C   0  0  0  0  0  0  0  0  0  0  0  0
    7.9260   -2.0070   20.1650 C   0  0  0  0  0  0  0  0  0  0  0  0
    6.6640   -4.1890   21.7200 N   0  0  0  0  0  0  0  0  0  0  0  0
    7.2810   -3.1290   22.5140 C   0  0  0  0  0  0  0  0  0  0  0  0
    6.4310   -2.7070   23.5180 C   0  0  0  0  0  0  0  0  0  0  0  0
    5.8410   -3.7390   24.1410 C   0  0  0  0  0  0  0  0  0  0  0  0
    5.1920   -4.7120   23.3650 C   0  0  0  0  0  0  0  0  0  0  0  0
    6.0960   -5.2080   22.4100 C   0  0  0  0  0  0  0  0  0  0  0  0
    7.1520   -4.7210   27.6690 C   0  0  0  0  0  0  0  0  0  0  0  0
    8.5280   -5.2140   27.7710 C   0  0  0  0  0  0  0  0  0  0  0  0
    9.5400   -4.6160   27.0400 C   0  0  0  0  0  0  0  0  0  0  0  0
    9.2710   -3.5430   26.2010 C   0  0  0  0  0  0  0  0  0  0  0  0
    7.9720   -3.0280   26.0650 C   0  0  0  0  0  0  0  0  0  0  0  0
    6.8850   -3.5350   26.7340 C   0  0  0  0  0  0  0  0  0  0  0  0
    6.6430   -0.1510   20.1720 C   0  0  0  0  0  0  0  0  0  0  0  0
    5.6130    0.6660   20.5470 C   0  0  0  0  0  0  0  0  0  0  0  0
    4.8880    1.3930   19.5900 C   0  0  0  0  0  0  0  0  0  0  0  0
    5.1990    1.3030   18.2300 C   0  0  0  0  0  0  0  0  0  0  0  0
    6.1780    0.5450   17.7330 N   0  0  0  0  0  0  0  0  0  0  0  0
    6.9150   -0.1970   18.7180 C   0  0  0  0  0  0  0  0  0  0  0  0
  1  2  2  0
  1  3  1  0
  4  5  2  0
  5  6  1  0
  3  7  1  0
  8  9  1  0
  9 10  2  0
  9 11  1  0
  6 13  1  0
 11 13  1  0
  5 14  1  0
 14 15  1  0
 15 16  1  0
  1 17  1  0
 16 17  1  0
 17 18  1  0
 14 19  1  0
 18 19  1  0
 20 21  2  0
 21 22  1  0
 22 23  2  0
 23 24  1  0
  3 25  1  0
 20 25  1  0
 24 25  2  0
 11 26  1  0
 12 27  1  0
 26 27  2  0
 27 28  1  0
 28 29  2  0
 29 30  1  0
 26 31  1  0
 30 31  2  0
M  END
