x2754-x1458
     RDKit          3D

 20 21  0  0  0  0  0  0  0  0999 V2000
    4.5890   -4.0800   25.5160 C   0  0  0  0  0  0  0  0  0  0  0  0
    5.2530   -4.6320   19.9120 O   0  0  0  0  0  0  0  0  0  0  0  0
    6.2100   -5.9680   26.9310 C   0  0  0  0  0  0  0  0  0  0  0  0
    5.9110   -3.3440   25.3650 C   0  0  2  0  0  0  0  0  0  0  0  0
    6.2850   -4.0180   20.2600 C   0  0  0  0  0  0  0  0  0  0  0  0
    7.1040   -3.2770   19.2790 C   0  0  0  0  0  0  0  0  0  0  0  0
    3.4970   -3.5240   25.4320 O   0  0  0  0  0  0  0  0  0  0  0  0
    5.6080   -1.9140   25.4480 C   0  0  0  0  0  0  0  0  0  0  0  0
    6.7110   -4.0660   21.6010 N   0  0  0  0  0  0  0  0  0  0  0  0
    7.4220   -3.2880   22.1040 C   0  0  0  0  0  0  0  0  0  0  0  0
    6.8870   -2.8270   23.3020 C   0  0  0  0  0  0  0  0  0  0  0  0
    6.5090   -3.7700   24.2120 C   0  0  0  0  0  0  0  0  0  0  0  0
    5.7670   -4.7710   23.5770 C   0  0  0  0  0  0  0  0  0  0  0  0
    6.2970   -5.2120   22.4060 C   0  0  0  0  0  0  0  0  0  0  0  0
    7.0870   -4.7920   27.1580 C   0  0  0  0  0  0  0  0  0  0  0  0
    8.0660   -4.9690   28.1050 C   0  0  0  0  0  0  0  0  0  0  0  0
    8.9350   -3.8490   28.3830 C   0  0  0  0  0  0  0  0  0  0  0  0
    8.7460   -2.6040   27.6770 C   0  0  0  0  0  0  0  0  0  0  0  0
    7.7730   -2.4910   26.7350 C   0  0  0  0  0  0  0  0  0  0  0  0
    6.9450   -3.5700   26.4620 C   0  0  0  0  0  0  0  0  0  0  0  0
  4  1  1  0
  2  5  2  0
  5  6  1  0
  1  7  2  0
  4  8  1  6
  5  9  1  0
  9 10  1  0
 10 11  1  0
  4 12  1  0
 11 12  1  0
 12 13  1  0
  9 14  1  0
 13 14  1  0
  3 15  1  0
 15 16  2  0
 16 17  1  0
 17 18  2  0
 18 19  1  0
  4 20  1  0
 15 20  1  0
 19 20  2  0
M  END
