x2754-x0354
     RDKit          3D

 38 42  0  0  0  0  0  0  0  0999 V2000
    4.4640   -3.0610   24.8700 C   0  0  0  0  0  0  0  0  0  0  0  0
    3.2790   -3.1240   24.5310 O   0  0  0  0  0  0  0  0  0  0  0  0
    4.8560   -2.3840   26.1480 C   0  0  2  0  0  0  0  0  0  0  0  0
    5.1810   -4.4810   19.8370 O   0  0  0  0  0  0  0  0  0  0  0  0
    6.2460   -4.0060   20.1930 C   0  0  0  0  0  0  0  0  0  0  0  0
    7.0950   -3.2250   19.1850 C   0  0  0  0  0  0  0  0  0  0  0  0
    3.6530   -1.9990   26.9910 C   0  0  0  0  0  0  0  0  0  0  0  0
   13.0390   -1.3660   22.6410 C   0  0  0  0  0  0  0  0  0  0  0  0
    6.9790   -1.7250   25.5710 N   0  0  0  0  0  0  0  0  0  0  0  0
    7.4060   -0.4680   27.6520 O   0  0  0  0  0  0  0  0  0  0  0  0
    8.2170   -0.8540   25.4440 C   0  0  1  0  0  0  0  0  0  0  0  0
    8.4110   -0.1710   26.6750 C   0  0  0  0  0  0  0  0  0  0  0  0
    5.5270    3.7110   30.9470 C   0  0  0  0  0  0  0  0  0  0  0  0
    5.5850   -1.3180   25.8350 C   0  0  0  0  0  0  0  0  0  0  0  0
    6.7220   -4.1890   21.4650 N   0  0  0  0  0  0  0  0  0  0  0  0
    7.2850   -3.1130   22.2460 C   0  0  0  0  0  0  0  0  0  0  0  0
    6.2180   -2.6710   23.2370 C   0  0  0  0  0  0  0  0  0  0  0  0
    5.5770   -3.6880   24.0440 C   0  0  0  0  0  0  0  0  0  0  0  0
    5.0710   -4.8360   23.1770 C   0  0  0  0  0  0  0  0  0  0  0  0
    6.1760   -5.3200   22.2070 C   0  0  0  0  0  0  0  0  0  0  0  0
    5.6260   -4.2830   27.7740 C   0  0  0  0  0  0  0  0  0  0  0  0
    6.8560   -4.9350   28.3720 C   0  0  0  0  0  0  0  0  0  0  0  0
    8.0540   -4.4380   28.0100 C   0  0  0  0  0  0  0  0  0  0  0  0
    8.1310   -3.2690   27.0210 C   0  0  0  0  0  0  0  0  0  0  0  0
    6.9830   -2.7110   26.4700 C   0  0  0  0  0  0  0  0  0  0  0  0
    5.8040   -3.2290   26.8840 C   0  0  0  0  0  0  0  0  0  0  0  0
   12.0340   -1.4890   23.6950 N   0  0  0  0  0  0  0  0  0  0  0  0
   10.9890   -2.4630   23.3330 C   0  0  0  0  0  0  0  0  0  0  0  0
    9.6790   -2.2480   23.8240 C   0  0  0  0  0  0  0  0  0  0  0  0
    9.5710   -1.4100   25.0310 N   0  0  0  0  0  0  0  0  0  0  0  0
   10.6130   -0.3860   25.1360 C   0  0  0  0  0  0  0  0  0  0  0  0
   11.4330   -0.2070   24.0170 C   0  0  0  0  0  0  0  0  0  0  0  0
    7.6410    1.7930   28.4730 C   0  0  0  0  0  0  0  0  0  0  0  0
    7.1630    2.8100   29.2910 C   0  0  0  0  0  0  0  0  0  0  0  0
    6.0290    2.6080   30.0710 C   0  0  0  0  0  0  0  0  0  0  0  0
    5.3780    1.3740   30.0210 C   0  0  0  0  0  0  0  0  0  0  0  0
    5.8680    0.3580   29.1970 C   0  0  0  0  0  0  0  0  0  0  0  0
    7.0060    0.5700   28.4200 C   0  0  0  0  0  0  0  0  0  0  0  0
  1  2  2  0
  3  1  1  0
  4  5  2  0
  5  6  1  0
  3  7  1  1
  9 11  1  0
 10 12  1  0
 11 12  1  1
  3 14  1  0
  9 14  1  0
  5 15  1  0
 15 16  1  0
 16 17  1  0
  1 18  1  0
 17 18  1  0
 18 19  1  0
 15 20  1  0
 19 20  1  0
 21 22  1  0
 22 23  2  0
 23 24  1  0
  9 25  1  0
 24 25  2  0
  3 26  1  0
 21 26  2  0
 25 26  1  0
  8 27  1  0
 27 28  1  0
 28 29  1  0
 11 30  1  0
 29 30  1  0
 30 31  1  0
 27 32  1  0
 31 32  1  0
 33 34  2  0
 13 35  1  0
 34 35  1  0
 35 36  2  0
 36 37  1  0
 10 38  1  0
 33 38  1  0
 37 38  2  0
M  END
