x2754-x0426
     RDKit          3D

 39 42  0  0  0  0  0  0  0  0999 V2000
    5.2020   -2.9260   25.5420 C   0  0  0  0  0  0  0  0  0  0  0  0
    3.9760   -2.0750   25.5180 N   0  0  0  0  0  0  0  0  0  0  0  0
    5.7420   -3.2690   26.8350 N   0  0  0  0  0  0  0  0  0  0  0  0
    5.2610   -4.8110   19.9440 O   0  0  0  0  0  0  0  0  0  0  0  0
    6.1930   -4.0820   20.3180 C   0  0  0  0  0  0  0  0  0  0  0  0
    6.9440   -3.2650   19.3350 C   0  0  0  0  0  0  0  0  0  0  0  0
    5.2750   -2.4380   27.9470 C   0  0  0  0  0  0  0  0  0  0  0  0
    2.3700    1.8130   24.0290 C   0  0  0  0  0  0  0  0  0  0  0  0
    2.3590    0.3900   24.3780 N   0  0  0  0  0  0  0  0  0  0  0  0
    3.3000    2.5250   23.2580 N   0  0  0  0  0  0  0  0  0  0  0  0
    4.2680    1.8640   22.3800 C   0  0  0  0  0  0  0  0  0  0  0  0
    3.6160    1.3210   21.1130 C   0  0  0  0  0  0  0  0  0  0  0  0
    2.7280    4.3380   25.2720 F   0  0  0  0  0  0  0  0  0  0  0  0
    3.4310   -1.6960   24.2130 C   0  0  0  0  0  0  0  0  0  0  0  0
    3.4870   -0.3790   23.8480 C   0  0  0  0  0  0  0  0  0  0  0  0
    6.5640   -4.0650   21.6480 N   0  0  0  0  0  0  0  0  0  0  0  0
    7.0970   -2.8670   22.3050 C   0  0  0  0  0  0  0  0  0  0  0  0
    6.3340   -2.4640   23.3530 C   0  0  0  0  0  0  0  0  0  0  0  0
    5.9790   -3.4540   24.2760 C   0  0  0  0  0  0  0  0  0  0  0  0
    5.2390   -4.4060   23.5900 C   0  0  0  0  0  0  0  0  0  0  0  0
    5.9860   -5.0840   22.5180 C   0  0  0  0  0  0  0  0  0  0  0  0
    7.4230   -4.7900   27.6860 C   0  0  0  0  0  0  0  0  0  0  0  0
    8.7240   -5.2600   27.7400 C   0  0  0  0  0  0  0  0  0  0  0  0
    9.6920   -4.6360   26.9590 C   0  0  0  0  0  0  0  0  0  0  0  0
    9.3280   -3.5550   26.1450 C   0  0  0  0  0  0  0  0  0  0  0  0
    8.0310   -3.1190   26.1190 C   0  0  0  0  0  0  0  0  0  0  0  0
    7.0460   -3.7180   26.8820 C   0  0  0  0  0  0  0  0  0  0  0  0
    1.4880    3.8280   25.2140 C   0  0  0  0  0  0  0  0  0  0  0  0
    1.2340    2.5980   24.6170 C   0  0  0  0  0  0  0  0  0  0  0  0
   -0.0660    2.0870   24.5700 C   0  0  0  0  0  0  0  0  0  0  0  0
   -1.1240    2.8200   25.1290 C   0  0  0  0  0  0  0  0  0  0  0  0
   -0.8550    4.0590   25.7290 C   0  0  0  0  0  0  0  0  0  0  0  0
    0.4500    4.5640   25.7710 C   0  0  0  0  0  0  0  0  0  0  0  0
    5.6580    0.0840   20.2250 C   0  0  0  0  0  0  0  0  0  0  0  0
    6.5710   -0.1740   19.1860 C   0  0  0  0  0  0  0  0  0  0  0  0
    6.5300    0.4150   17.9740 N   0  0  0  0  0  0  0  0  0  0  0  0
    5.5590    1.3070   17.7530 C   0  0  0  0  0  0  0  0  0  0  0  0
    4.5300    1.6540   18.8060 C   0  0  0  0  0  0  0  0  0  0  0  0
    4.6160    1.0150   20.0300 C   0  0  0  0  0  0  0  0  0  0  0  0
  1  2  2  3
  1  3  1  0
  4  5  2  0
  5  6  1  0
  3  7  1  0
  8  9  2  3
  8 10  1  0
 10 11  1  0
 11 12  1  0
  2 14  1  0
  9 15  1  0
 14 15  1  0
  5 16  1  0
 16 17  1  0
 17 18  1  0
  1 19  1  0
 18 19  1  0
 19 20  1  0
 16 21  1  0
 20 21  1  0
 22 23  2  0
 23 24  1  0
 24 25  2  0
 25 26  1  0
  3 27  1  0
 22 27  1  0
 26 27  2  0
 13 28  1  0
  8 29  1  0
 28 29  2  0
 29 30  1  0
 30 31  2  0
 31 32  1  0
 28 33  1  0
 32 33  2  0
 34 35  2  0
 35 36  1  0
 36 37  2  0
 37 38  1  0
 12 39  1  0
 34 39  1  0
 38 39  2  0
M  END
