x2754-x0755
     RDKit          3D

 29 32  0  0  0  0  0  0  0  0999 V2000
    4.7550   -6.2300   26.6300 O   0  0  0  0  0  0  0  0  0  0  0  0
    5.9550   -4.1730   26.4220 N   0  0  0  0  0  0  0  0  0  0  0  0
    5.3100   -4.7300   19.9500 O   0  0  0  0  0  0  0  0  0  0  0  0
    6.3940   -4.5740   20.5490 C   0  0  0  0  0  0  0  0  0  0  0  0
    7.3290   -3.5120   20.0560 C   0  0  0  0  0  0  0  0  0  0  0  0
    1.7760   -5.7440   25.6360 F   0  0  0  0  0  0  0  0  0  0  0  0
    4.9600   -1.8570   26.2390 N   0  0  0  0  0  0  0  0  0  0  0  0
    4.7790   -5.1260   25.7010 S   0  0  0  0  0  0  0  0  0  0  0  0
    5.5890   -2.0030   25.0050 C   0  0  0  0  0  0  0  0  0  0  0  0
    4.9840   -2.5630   24.0740 O   0  0  0  0  0  0  0  0  0  0  0  0
    5.6920   -1.7740   27.4920 C   0  0  0  0  0  0  0  0  0  0  0  0
    2.0700   -4.4210   25.8540 C   0  0  0  0  0  0  0  0  0  0  0  0
    3.5320   -3.9810   25.9150 C   0  0  0  0  0  0  0  0  0  0  0  0
    3.6530   -2.4880   26.1600 C   0  0  0  0  0  0  0  0  0  0  0  0
    2.5340   -1.6980   26.3000 C   0  0  0  0  0  0  0  0  0  0  0  0
    1.2550   -2.1560   26.2350 C   0  0  0  0  0  0  0  0  0  0  0  0
    1.0180   -3.5120   26.0120 C   0  0  0  0  0  0  0  0  0  0  0  0
    6.6620   -5.4080   21.6480 N   0  0  0  0  0  0  0  0  0  0  0  0
    7.4120   -5.0560   22.7030 C   0  0  0  0  0  0  0  0  0  0  0  0
    6.8210   -4.7580   23.9640 C   0  0  0  0  0  0  0  0  0  0  0  0
    5.6680   -5.4360   24.2880 N   0  0  0  0  0  0  0  0  0  0  0  0
    4.9700   -5.7640   23.0740 C   0  0  0  0  0  0  0  0  0  0  0  0
    5.7670   -6.3250   21.9880 C   0  0  0  0  0  0  0  0  0  0  0  0
    7.2140   -4.5290   26.7430 C   0  0  0  0  0  0  0  0  0  0  0  0
    8.0290   -5.4430   27.3430 C   0  0  0  0  0  0  0  0  0  0  0  0
    9.3310   -5.0950   27.2540 C   0  0  0  0  0  0  0  0  0  0  0  0
    9.5800   -3.9010   26.5790 C   0  0  0  0  0  0  0  0  0  0  0  0
    8.5770   -3.0970   26.0380 C   0  0  0  0  0  0  0  0  0  0  0  0
    7.1910   -3.3510   26.0690 C   0  0  0  0  0  0  0  0  0  0  0  0
  3  4  2  0
  4  5  1  0
  1  8  2  0
  2  8  1  0
  7  9  1  0
  9 10  2  0
  7 11  1  0
  6 12  1  0
  8 13  1  0
 12 13  2  0
  7 14  1  0
 13 14  1  0
 14 15  2  0
 15 16  1  0
 12 17  1  0
 16 17  2  0
  4 18  1  0
 18 19  1  0
 19 20  1  0
  8 21  1  0
 20 21  1  0
 21 22  1  0
 18 23  1  0
 22 23  1  0
  2 24  1  0
 24 25  2  0
 25 26  1  0
 26 27  2  0
 27 28  1  0
  2 29  1  0
 24 29  1  0
 28 29  2  0
M  END
