x2754-x1249
     RDKit          3D

 39 42  0  0  0  0  0  0  0  0999 V2000
    5.1610   -3.2170   25.5350 C   0  0  0  0  0  0  0  0  0  0  0  0
    3.9860   -2.3720   25.3480 N   0  0  0  0  0  0  0  0  0  0  0  0
    5.5030   -3.5510   26.8880 N   0  0  0  0  0  0  0  0  0  0  0  0
    5.2760   -4.7760   19.9490 O   0  0  0  0  0  0  0  0  0  0  0  0
    6.2420   -4.0940   20.3390 C   0  0  0  0  0  0  0  0  0  0  0  0
    6.9860   -3.2550   19.3670 C   0  0  0  0  0  0  0  0  0  0  0  0
    4.9170   -2.6690   27.9000 C   0  0  0  0  0  0  0  0  0  0  0  0
    8.3030    0.7760   24.7800 N   0  0  0  0  0  0  0  0  0  0  0  0
    7.5110    1.6910   23.9670 C   0  0  0  0  0  0  0  0  0  0  0  0
    8.0030    2.6600   23.4040 O   0  0  0  0  0  0  0  0  0  0  0  0
    9.5130    1.0790   25.0660 C   0  0  0  0  0  0  0  0  0  0  0  0
   13.5400   -2.3670   20.7750 N   0  0  0  0  0  0  0  0  0  0  0  0
   12.9660   -1.7340   21.5020 C   0  0  0  0  0  0  0  0  0  0  0  0
    3.7970   -2.0690   23.9530 C   0  0  0  0  0  0  0  0  0  0  0  0
    4.4250   -0.9490   23.4900 C   0  0  0  0  0  0  0  0  0  0  0  0
    6.6490   -4.1600   21.6690 N   0  0  0  0  0  0  0  0  0  0  0  0
    7.2470   -3.0480   22.4040 C   0  0  0  0  0  0  0  0  0  0  0  0
    6.4540   -2.6890   23.4450 C   0  0  0  0  0  0  0  0  0  0  0  0
    6.0400   -3.7230   24.3200 C   0  0  0  0  0  0  0  0  0  0  0  0
    5.3100   -4.6730   23.5900 C   0  0  0  0  0  0  0  0  0  0  0  0
    6.1280   -5.2380   22.4960 C   0  0  0  0  0  0  0  0  0  0  0  0
    7.1080   -5.2020   27.5500 C   0  0  0  0  0  0  0  0  0  0  0  0
    8.4240   -5.5960   27.7550 C   0  0  0  0  0  0  0  0  0  0  0  0
    9.4450   -4.7000   27.5020 C   0  0  0  0  0  0  0  0  0  0  0  0
    9.0650   -3.4440   27.0510 C   0  0  0  0  0  0  0  0  0  0  0  0
    7.8160   -3.0330   26.8460 C   0  0  0  0  0  0  0  0  0  0  0  0
    6.7980   -3.9150   27.0930 C   0  0  0  0  0  0  0  0  0  0  0  0
    3.5240    1.2630   23.6680 O   0  0  0  0  0  0  0  0  0  0  0  0
    4.2690    1.7180   22.5270 C   0  0  0  0  0  0  0  0  0  0  0  0
    5.5960    1.2760   22.5490 C   0  0  0  0  0  0  0  0  0  0  0  0
    6.1770    1.3760   23.8920 N   0  0  0  0  0  0  0  0  0  0  0  0
    5.3920    0.7700   24.9680 C   0  0  0  0  0  0  0  0  0  0  0  0
    4.1920    0.2720   24.4620 C   0  0  2  0  0  0  0  0  0  0  0  0
   11.7120    0.8470   23.8400 C   0  0  0  0  0  0  0  0  0  0  0  0
   12.5640    0.1670   22.9760 C   0  0  0  0  0  0  0  0  0  0  0  0
   12.1440   -1.0200   22.3700 C   0  0  0  0  0  0  0  0  0  0  0  0
   10.9010   -1.5810   22.5680 C   0  0  0  0  0  0  0  0  0  0  0  0
    9.9180   -0.9170   23.4890 C   0  0  0  0  0  0  0  0  0  0  0  0
   10.4280    0.3680   24.1300 C   0  0  0  0  0  0  0  0  0  0  0  0
  1  2  2  3
  1  3  1  0
  4  5  2  0
  5  6  1  0
  3  7  1  0
  8  9  1  0
  9 10  2  0
  8 11  1  0
 12 13  3  0
  2 14  1  0
 14 15  1  0
  5 16  1  0
 16 17  1  0
 17 18  1  0
  1 19  1  0
 18 19  1  0
 19 20  1  0
 16 21  1  0
 20 21  1  0
 22 23  2  0
 23 24  1  0
 24 25  2  0
 25 26  1  0
  3 27  1  0
 22 27  1  0
 26 27  2  0
 28 29  1  0
 29 30  1  0
  9 31  1  0
 30 31  1  0
 31 32  1  0
 33 15  1  6
 28 33  1  0
 32 33  1  0
 34 35  2  0
 13 36  1  0
 35 36  1  0
 36 37  2  0
 37 38  1  0
 11 39  1  0
 34 39  1  0
 38 39  2  0
M  END
