x2754-x1336
     RDKit          3D

 23 24  0  0  0  0  0  0  0  0999 V2000
    5.7820   -5.6130   28.8650 C   0  0  0  0  0  0  0  0  0  0  0  0
    6.7940   -0.2210   25.0480 O   0  0  0  0  0  0  0  0  0  0  0  0
    6.1550   -1.6200   26.5110 C   0  0  0  0  0  0  0  0  0  0  0  0
    5.4520   -4.1600   19.7520 O   0  0  0  0  0  0  0  0  0  0  0  0
    9.7520   -3.4200   25.1370 C   0  0  0  0  0  0  0  0  0  0  0  0
    6.4510   -3.4580   19.9810 C   0  0  0  0  0  0  0  0  0  0  0  0
    7.3640   -3.0670   18.8200 C   0  0  0  0  0  0  0  0  0  0  0  0
    7.0910   -1.8210   25.0660 S   0  0  1  0  0  0  0  0  0  0  0  0
    6.3440   -2.9610   26.6370 C   0  0  0  0  0  0  0  0  0  0  0  0
    5.5010   -3.6640   26.0420 O   0  0  0  0  0  0  0  0  0  0  0  0
    5.4140   -1.8280   27.8440 C   0  0  0  0  0  0  0  0  0  0  0  0
    6.7600   -5.0320   27.8940 C   0  0  0  0  0  0  0  0  0  0  0  0
    6.3470   -3.8920   27.1120 C   0  0  0  0  0  0  0  0  0  0  0  0
    7.3320   -3.2620   26.1130 C   0  0  0  0  0  0  0  0  0  0  0  0
    8.6200   -3.8730   26.0270 C   0  0  0  0  0  0  0  0  0  0  0  0
    8.9360   -5.0870   26.9070 C   0  0  0  0  0  0  0  0  0  0  0  0
    7.9660   -5.6150   27.8180 C   0  0  0  0  0  0  0  0  0  0  0  0
    6.8250   -3.0270   21.2440 N   0  0  0  0  0  0  0  0  0  0  0  0
    6.4000   -3.8400   22.3690 C   0  0  0  0  0  0  0  0  0  0  0  0
    7.5070   -3.8470   23.4370 C   0  0  0  0  0  0  0  0  0  0  0  0
    8.0000   -2.5360   23.9040 N   0  0  0  0  0  0  0  0  0  0  0  0
    8.3740   -1.7470   22.8280 C   0  0  0  0  0  0  0  0  0  0  0  0
    8.0740   -2.3310   21.4550 C   0  0  0  0  0  0  0  0  0  0  0  0
  4  6  2  0
  6  7  1  0
  2  8  2  0
  3  8  2  0
  3  9  1  0
  9 10  2  0
  3 11  1  0
  1 12  1  0
 12 13  2  0
  8 14  1  1
 13 14  1  0
  5 15  1  0
 14 15  2  0
 15 16  1  0
 12 17  1  0
 16 17  2  0
  6 18  1  0
 18 19  1  0
 19 20  1  0
  8 21  1  0
 20 21  1  0
 21 22  1  0
 18 23  1  0
 22 23  1  0
M  END
