x2754-x1374
     RDKit          3D

 31 34  0  0  0  0  0  0  0  0999 V2000
    4.6420   -3.0580   25.5530 C   0  0  0  0  0  0  0  0  0  0  0  0
    3.4120   -3.1090   25.7030 O   0  0  0  0  0  0  0  0  0  0  0  0
    5.5520   -2.8050   26.7120 N   0  0  0  0  0  0  0  0  0  0  0  0
    5.1950   -4.7250   19.8780 O   0  0  0  0  0  0  0  0  0  0  0  0
    6.0320   -3.9100   20.2730 C   0  0  0  0  0  0  0  0  0  0  0  0
    6.9050   -3.1910   19.3080 C   0  0  0  0  0  0  0  0  0  0  0  0
    4.9160   -1.9440   27.7280 C   0  0  0  0  0  0  0  0  0  0  0  0
   10.8490   -4.0100   25.5280 C   0  0  0  0  0  0  0  0  0  0  0  0
    3.5460   -6.9160   22.7010 O   0  0  0  0  0  0  0  0  0  0  0  0
    4.0020   -7.6600   25.0930 O   0  0  0  0  0  0  0  0  0  0  0  0
    6.0750   -3.7330   21.6330 N   0  0  0  0  0  0  0  0  0  0  0  0
    6.9860   -2.9510   22.4740 C   0  0  1  0  0  0  0  0  0  0  0  0
    6.2690   -2.4130   23.7090 C   0  0  0  0  0  0  0  0  0  0  0  0
    5.1910   -3.2250   24.0920 C   0  0  1  0  0  0  0  0  0  0  0  0
    4.9810   -4.5020   23.5930 C   0  0  0  0  0  0  0  0  0  0  0  0
    4.9210   -4.4090   22.2480 C   0  0  0  0  0  0  0  0  0  0  0  0
    6.8960   -4.6300   27.6090 C   0  0  0  0  0  0  0  0  0  0  0  0
    8.1070   -5.3290   27.8100 C   0  0  0  0  0  0  0  0  0  0  0  0
    9.2540   -4.8270   27.2280 C   0  0  0  0  0  0  0  0  0  0  0  0
    9.1740   -3.6060   26.4260 C   0  0  0  0  0  0  0  0  0  0  0  0
    7.8940   -2.9390   26.2580 C   0  0  0  0  0  0  0  0  0  0  0  0
    6.7680   -3.4570   26.8570 C   0  0  0  0  0  0  0  0  0  0  0  0
    9.7480   -4.4260   24.5940 C   0  0  0  0  0  0  0  0  0  0  0  0
    8.8950   -3.5380   23.9560 C   0  0  0  0  0  0  0  0  0  0  0  0
    7.9030   -3.9150   23.1080 C   0  0  0  0  0  0  0  0  0  0  0  0
    7.6890   -5.2280   22.8100 C   0  0  0  0  0  0  0  0  0  0  0  0
    8.5010   -6.1300   23.4190 C   0  0  0  0  0  0  0  0  0  0  0  0
    9.5010   -5.7300   24.2960 C   0  0  0  0  0  0  0  0  0  0  0  0
    5.6880   -5.8300   23.9840 C   0  0  0  0  0  0  0  0  0  0  0  0
    4.1690   -6.6600   23.9660 S   0  0  0  0  0  0  0  0  0  0  0  0
    3.6860   -5.0740   24.3520 C   0  0  0  0  0  0  0  0  0  0  0  0
  1  2  2  0
  1  3  1  0
  4  5  2  0
  5  6  1  0
  3  7  1  0
  5 11  1  0
 11 12  1  0
 12 13  1  0
 14  1  1  1
 13 14  1  0
 14 15  1  0
 11 16  1  0
 15 16  1  0
 17 18  2  0
 18 19  1  0
 19 20  2  0
 20 21  1  0
  3 22  1  0
 17 22  1  0
 21 22  2  0
  8 23  1  0
 23 24  2  0
 12 25  1  1
 24 25  1  0
 25 26  2  0
 26 27  1  0
 23 28  1  0
 27 28  2  0
 15 29  1  0
 30  9  1  0
 10 30  1  0
 29 30  1  0
 15 31  1  0
 30 31  1  0
M  END
