x2754-x1375
     RDKit          3D

 32 36  0  0  0  0  0  0  0  0999 V2000
    4.4000   -2.9430   24.9460 C   0  0  2  0  0  0  0  0  0  0  0  0
    3.3060   -2.5150   25.3220 O   0  0  0  0  0  0  0  0  0  0  0  0
    5.4850   -2.4430   25.5560 N   0  0  0  0  0  0  0  0  0  0  0  0
    5.1990   -4.8660   19.8820 O   0  0  0  0  0  0  0  0  0  0  0  0
    5.9550   -4.0100   20.2410 C   0  0  0  0  0  0  0  0  0  0  0  0
    6.9620   -3.3170   19.3010 C   0  0  0  0  0  0  0  0  0  0  0  0
    5.3860   -1.0660   26.0140 C   0  0  0  0  0  0  0  0  0  0  0  0
    2.3070   -7.3310   24.3110 O   0  0  0  0  0  0  0  0  0  0  0  0
    4.8570   -7.7620   24.0670 O   0  0  0  0  0  0  0  0  0  0  0  0
   11.1330   -3.8060   24.3740 F   0  0  0  0  0  0  0  0  0  0  0  0
    5.9020   -3.6830   21.5210 N   0  0  0  0  0  0  0  0  0  0  0  0
    6.0690   -2.3840   21.9370 C   0  0  0  0  0  0  0  0  0  0  0  0
    5.4080   -2.0670   23.0990 C   0  0  0  0  0  0  0  0  0  0  0  0
    4.4810   -3.0740   23.4650 C   0  0  1  0  0  0  0  0  0  0  0  0
    4.6980   -4.4670   23.1880 C   0  0  1  0  0  0  0  0  0  0  0  0
    5.8900   -4.6870   22.4560 C   0  0  2  0  0  0  0  0  0  0  0  0
    5.9340   -4.5850   26.6440 C   0  0  0  0  0  0  0  0  0  0  0  0
    6.4550   -5.2210   27.7120 C   0  0  0  0  0  0  0  0  0  0  0  0
    7.0920   -4.4210   28.8120 C   0  0  0  0  0  0  0  0  0  0  0  0
    7.1850   -2.9560   28.8100 C   0  0  0  0  0  0  0  0  0  0  0  0
    6.6120   -2.3170   27.6350 C   0  0  0  0  0  0  0  0  0  0  0  0
    5.9950   -3.1850   26.5820 C   0  0  0  0  0  0  0  0  0  0  0  0
    7.7080   -3.2870   23.1980 C   0  0  0  0  0  0  0  0  0  0  0  0
    9.0910   -3.0130   23.6860 C   0  0  0  0  0  0  0  0  0  0  0  0
    9.8950   -4.0630   23.9380 C   0  0  0  0  0  0  0  0  0  0  0  0
    9.4210   -5.5100   23.7570 C   0  0  0  0  0  0  0  0  0  0  0  0
    8.0050   -5.7420   23.2540 C   0  0  0  0  0  0  0  0  0  0  0  0
    7.2570   -4.5860   23.0050 C   0  0  0  0  0  0  0  0  0  0  0  0
    4.2750   -4.4150   24.7010 C   0  0  0  0  0  0  0  0  0  0  0  0
    3.7040   -5.5890   22.8140 C   0  0  0  0  0  0  0  0  0  0  0  0
    3.7560   -6.6660   24.2480 S   0  0  0  0  0  0  0  0  0  0  0  0
    3.8780   -5.4750   25.4090 C   0  0  0  0  0  0  0  0  0  0  0  0
  1  2  1  6
  1  3  1  0
  4  5  2  0
  5  6  1  0
  3  7  1  0
  5 11  1  0
 11 12  1  0
 12 13  1  0
  1 14  1  0
 14 13  1  1
 14 15  1  0
 11 16  1  0
 15 16  1  0
 17 18  2  0
 18 19  1  0
 19 20  2  0
 20 21  1  0
  3 22  1  0
 17 22  1  0
 21 22  2  0
 23 24  2  0
 10 25  1  0
 24 25  1  0
 25 26  2  0
 26 27  1  0
 16 28  1  1
 23 28  1  0
 27 28  2  0
  1 29  1  0
 15 29  1  0
 15 30  1  6
 31  8  1  0
  9 31  1  0
 30 31  1  0
 29 32  2  0
 31 32  1  0
M  END
