x2754-x1382
     RDKit          3D

 31 34  0  0  0  0  0  0  0  0999 V2000
    4.9260   -3.3660   25.1850 C   0  0  0  0  0  0  0  0  0  0  0  0
    3.7910   -2.9840   24.8480 O   0  0  0  0  0  0  0  0  0  0  0  0
    5.4940   -3.0760   26.5260 N   0  0  0  0  0  0  0  0  0  0  0  0
    5.2620   -4.4340   19.8290 O   0  0  0  0  0  0  0  0  0  0  0  0
    6.3210   -3.9800   20.3090 C   0  0  0  0  0  0  0  0  0  0  0  0
    7.2680   -3.1420   19.5220 C   0  0  0  0  0  0  0  0  0  0  0  0
    4.7770   -2.1240   27.4000 C   0  0  0  0  0  0  0  0  0  0  0  0
   13.2240   -2.3860   21.1470 Cl  0  0  0  0  0  0  0  0  0  0  0  0
    7.6950   -0.4270   23.3800 C   0  0  0  0  0  0  0  0  0  0  0  0
    8.5850   -1.6120   23.0030 C   0  0  1  0  0  0  0  0  0  0  0  0
    8.0220   -2.4940   21.9290 N   0  0  0  0  0  0  0  0  0  0  0  0
    7.7900   -2.0320   20.5130 C   0  0  0  0  0  0  0  0  0  0  0  0
    7.9480   -0.8560   20.1680 O   0  0  0  0  0  0  0  0  0  0  0  0
    6.6330   -4.2520   21.6240 N   0  0  0  0  0  0  0  0  0  0  0  0
    6.7960   -3.1790   22.3800 C   0  0  1  0  0  0  0  0  0  0  0  0
    6.7220   -3.2510   23.7430 C   0  0  0  0  0  0  0  0  0  0  0  0
    5.7870   -4.1640   24.2390 C   0  0  2  0  0  0  0  0  0  0  0  0
    5.1470   -4.8760   23.2830 C   0  0  0  0  0  0  0  0  0  0  0  0
    5.9750   -5.2510   22.2140 C   0  0  0  0  0  0  0  0  0  0  0  0
    7.0940   -4.9390   26.6680 C   0  0  0  0  0  0  0  0  0  0  0  0
    8.3650   -5.5690   27.1090 C   0  0  0  0  0  0  0  0  0  0  0  0
    9.1820   -4.6820   27.9090 C   0  0  0  0  0  0  0  0  0  0  0  0
    8.7840   -3.4080   28.2040 C   0  0  0  0  0  0  0  0  0  0  0  0
    7.5990   -2.8740   27.7620 C   0  0  0  0  0  0  0  0  0  0  0  0
    6.7210   -3.6140   26.9880 C   0  0  0  0  0  0  0  0  0  0  0  0
   10.0190   -1.1390   22.8780 C   0  0  0  0  0  0  0  0  0  0  0  0
   10.9060   -1.8790   22.1470 C   0  0  0  0  0  0  0  0  0  0  0  0
   12.1890   -1.4400   22.0650 C   0  0  0  0  0  0  0  0  0  0  0  0
   12.5900   -0.2810   22.7030 C   0  0  0  0  0  0  0  0  0  0  0  0
   11.7390    0.5010   23.4440 C   0  0  0  0  0  0  0  0  0  0  0  0
   10.4120    0.0570   23.5300 C   0  0  0  0  0  0  0  0  0  0  0  0
  1  2  2  0
  1  3  1  0
  4  5  2  0
  5  6  1  0
  3  7  1  0
 10  9  1  6
 10 11  1  0
  6 12  1  0
 11 12  1  0
 12 13  2  0
  5 14  1  0
 11 15  1  0
 14 15  1  0
 15 16  1  1
 17  1  1  6
 16 17  1  0
 17 18  1  0
 14 19  1  0
 18 19  1  0
 20 21  2  0
 21 22  1  0
 22 23  2  0
 23 24  1  0
  3 25  1  0
 20 25  1  0
 24 25  2  0
 10 26  1  0
 26 27  2  0
  8 28  1  0
 27 28  1  0
 28 29  2  0
 29 30  1  0
 26 31  1  0
 30 31  2  0
M  END
