x2764-x0995
     RDKit          3D

 20 21  0  0  0  0  0  0  0  0999 V2000
    8.6640   -1.2690   21.3470 N   0  0  0  0  0  0  0  0  0  0  0  0
    7.3110   -1.3110   21.0870 C   0  0  0  0  0  0  0  0  0  0  0  0
    6.6230   -2.2120   21.5580 O   0  0  0  0  0  0  0  0  0  0  0  0
    9.0760   -2.0630   22.4960 C   0  0  0  0  0  0  0  0  0  0  0  0
    6.2560    1.3480   21.9860 O   0  0  0  0  0  0  0  0  0  0  0  0
    7.7890    4.3440   22.6390 N   0  0  0  0  0  0  0  0  0  0  0  0
    7.6350    1.7520   22.1840 C   0  0  0  0  0  0  0  0  0  0  0  0
    7.7110    3.2040   22.4320 C   0  0  0  0  0  0  0  0  0  0  0  0
    4.8490    3.0180   20.1960 N   0  0  0  0  0  0  0  0  0  0  0  0
   12.8100   -1.5880   22.4890 N   0  0  0  0  0  0  0  0  0  0  0  0
   11.6070   -1.8140   21.9780 C   0  0  0  0  0  0  0  0  0  0  0  0
   10.4960   -1.8250   22.8730 C   0  0  0  0  0  0  0  0  0  0  0  0
   10.9660   -1.5840   24.1530 C   0  0  0  0  0  0  0  0  0  0  0  0
   12.6630   -1.3780   24.1220 S   0  0  0  0  0  0  0  0  0  0  0  0
    6.4020   -0.6490   18.8910 C   0  0  0  0  0  0  0  0  0  0  0  0
    5.7200    0.2030   18.0340 C   0  0  0  0  0  0  0  0  0  0  0  0
    5.2180    1.4060   18.4730 C   0  0  0  0  0  0  0  0  0  0  0  0
    5.3890    1.7920   19.7920 C   0  0  0  0  0  0  0  0  0  0  0  0
    6.0910    0.9360   20.6780 C   0  0  0  0  0  0  0  0  0  0  0  0
    6.5970   -0.3040   20.2340 C   0  0  0  0  0  0  0  0  0  0  0  0
  1  2  1  0
  2  3  2  0
  1  4  1  0
  5  7  1  0
  6  8  3  0
  7  8  1  0
 10 11  2  0
  4 12  1  0
 11 12  1  0
 12 13  2  0
 10 14  1  0
 13 14  1  0
 15 16  2  0
 16 17  1  0
  9 18  1  0
 17 18  2  0
  5 19  1  0
 18 19  1  0
  2 20  1  0
 15 20  1  0
 19 20  2  0
M  END
