x2764-x0769
     RDKit          3D

 37 40  0  0  0  0  0  0  0  0999 V2000
    7.7790   -1.8600   22.0730 N   0  0  0  0  0  0  0  0  0  0  0  0
    7.2240   -2.1540   20.7870 C   0  0  0  0  0  0  0  0  0  0  0  0
    6.8150   -3.3660   20.1090 C   0  0  0  0  0  0  0  0  0  0  0  0
    8.8380   -2.5820   22.8030 C   0  0  0  0  0  0  0  0  0  0  0  0
    7.1850    0.6690   21.9750 O   0  0  0  0  0  0  0  0  0  0  0  0
    8.0390    4.1680   22.7120 N   0  0  0  0  0  0  0  0  0  0  0  0
    8.0270    1.7980   22.2850 C   0  0  0  0  0  0  0  0  0  0  0  0
    7.3190    3.1030   22.1760 C   0  0  0  0  0  0  0  0  0  0  0  0
    5.7360   -5.1860   26.7570 O   0  0  0  0  0  0  0  0  0  0  0  0
    3.7900   -6.4440   25.7540 O   0  0  0  0  0  0  0  0  0  0  0  0
    5.6620   -5.3440   20.0730 O   0  0  0  0  0  0  0  0  0  0  0  0
    6.4810   -4.6600   20.7610 C   0  0  0  0  0  0  0  0  0  0  0  0
    5.5050   -2.4230   26.2110 F   0  0  0  0  0  0  0  0  0  0  0  0
    4.6560   -5.2860   25.8050 S   0  0  0  0  0  0  0  0  0  0  0  0
   12.4120   -1.4790   22.3970 N   0  0  0  0  0  0  0  0  0  0  0  0
   11.2200   -1.9470   22.0090 C   0  0  0  0  0  0  0  0  0  0  0  0
   10.2540   -2.0590   23.0010 C   0  0  0  0  0  0  0  0  0  0  0  0
   10.7150   -1.6610   24.2210 C   0  0  0  0  0  0  0  0  0  0  0  0
   12.3470   -1.1740   24.0300 S   0  0  0  0  0  0  0  0  0  0  0  0
    6.3420   -0.9980   18.7210 C   0  0  0  0  0  0  0  0  0  0  0  0
    5.8730    0.0560   18.0370 C   0  0  0  0  0  0  0  0  0  0  0  0
    5.7850    1.3450   18.5250 C   0  0  0  0  0  0  0  0  0  0  0  0
    6.2240    1.5610   19.8190 C   0  0  0  0  0  0  0  0  0  0  0  0
    6.7630    0.4850   20.6810 C   0  0  0  0  0  0  0  0  0  0  0  0
    6.7970   -0.8770   20.0440 C   0  0  0  0  0  0  0  0  0  0  0  0
    4.1840   -2.5980   26.0840 C   0  0  0  0  0  0  0  0  0  0  0  0
    3.6300   -3.8600   25.8920 C   0  0  0  0  0  0  0  0  0  0  0  0
    2.2430   -3.9830   25.7640 C   0  0  0  0  0  0  0  0  0  0  0  0
    1.4610   -2.8640   25.8340 C   0  0  0  0  0  0  0  0  0  0  0  0
    1.9920   -1.5960   26.0280 C   0  0  0  0  0  0  0  0  0  0  0  0
    3.3680   -1.4500   26.1540 C   0  0  0  0  0  0  0  0  0  0  0  0
    6.8870   -5.1540   21.9900 N   0  0  0  0  0  0  0  0  0  0  0  0
    6.1310   -6.3580   22.3710 C   0  0  0  0  0  0  0  0  0  0  0  0
    5.0430   -6.1090   23.2150 C   0  0  0  0  0  0  0  0  0  0  0  0
    5.3610   -5.0850   24.2570 N   0  0  0  0  0  0  0  0  0  0  0  0
    6.8060   -4.7530   24.3310 C   0  0  0  0  0  0  0  0  0  0  0  0
    7.3060   -4.3280   23.1120 C   0  0  0  0  0  0  0  0  0  0  0  0
  1  2  1  0
  2  3  2  3
  1  4  1  0
  5  7  1  0
  6  8  3  0
  7  8  1  0
  3 12  1  0
 11 12  2  0
  9 14  2  0
 10 14  2  0
 15 16  2  0
  4 17  1  0
 16 17  1  0
 17 18  2  0
 15 19  1  0
 18 19  1  0
 20 21  2  0
 21 22  1  0
 22 23  2  0
  5 24  1  0
 23 24  1  0
  2 25  1  0
 20 25  1  0
 24 25  2  0
 13 26  1  0
 14 27  1  0
 26 27  2  0
 27 28  1  0
 28 29  2  0
 29 30  1  0
 26 31  1  0
 30 31  2  0
 12 32  1  0
 32 33  1  0
 33 34  1  0
 14 35  1  0
 34 35  1  0
 35 36  1  0
 32 37  1  0
 36 37  1  0
M  END
