x2764-x1380
     RDKit          3D

 37 41  0  0  0  0  0  0  0  0999 V2000
    8.2160   -0.6530   22.7960 N   0  0  0  0  0  0  0  0  0  0  0  0
    7.6510   -0.6900   21.5520 C   0  0  0  0  0  0  0  0  0  0  0  0
    7.5880   -1.8020   20.6980 N   0  0  0  0  0  0  0  0  0  0  0  0
    8.4950   -2.0190   23.2320 C   0  0  2  0  0  0  0  0  0  0  0  0
    6.3370    1.6620   22.0940 O   0  0  0  0  0  0  0  0  0  0  0  0
    7.8790    4.6970   22.5900 N   0  0  0  0  0  0  0  0  0  0  0  0
    7.6610    2.0660   22.4870 C   0  0  0  0  0  0  0  0  0  0  0  0
    7.8010    3.5430   22.5210 C   0  0  0  0  0  0  0  0  0  0  0  0
    7.0060   -3.4290   19.1660 C   0  0  0  0  0  0  0  0  0  0  0  0
    5.4890   -4.9280   20.0530 O   0  0  0  0  0  0  0  0  0  0  0  0
    6.4700   -4.1700   20.3250 C   0  0  0  0  0  0  0  0  0  0  0  0
    4.7300   -2.3890   25.6960 O   0  0  0  0  0  0  0  0  0  0  0  0
    5.7960   -3.2840   25.4310 C   0  0  0  0  0  0  0  0  0  0  0  0
    7.0210   -1.9690   19.4490 C   0  0  0  0  0  0  0  0  0  0  0  0
   12.2260   -2.0140   22.5020 N   0  0  0  0  0  0  0  0  0  0  0  0
   10.9220   -1.9790   22.1920 C   0  0  0  0  0  0  0  0  0  0  0  0
   10.0230   -2.0690   23.2470 C   0  0  0  0  0  0  0  0  0  0  0  0
   10.6720   -2.1830   24.4220 C   0  0  0  0  0  0  0  0  0  0  0  0
   12.3690   -2.1670   24.1630 S   0  0  0  0  0  0  0  0  0  0  0  0
    6.6550   -0.4190   19.1420 C   0  0  0  0  0  0  0  0  0  0  0  0
    5.8730    0.2760   18.2130 C   0  0  0  0  0  0  0  0  0  0  0  0
    5.1770    1.5240   18.5250 C   0  0  0  0  0  0  0  0  0  0  0  0
    5.3680    1.9790   19.9030 C   0  0  0  0  0  0  0  0  0  0  0  0
    6.1440    1.2630   20.8010 C   0  0  0  0  0  0  0  0  0  0  0  0
    6.7840    0.0840   20.4540 C   0  0  0  0  0  0  0  0  0  0  0  0
    7.1510   -4.0860   21.6110 N   0  0  0  0  0  0  0  0  0  0  0  0
    6.8190   -5.2710   22.4520 C   0  0  0  0  0  0  0  0  0  0  0  0
    6.7040   -4.8340   23.7290 C   0  0  0  0  0  0  0  0  0  0  0  0
    5.8490   -3.7830   23.9760 C   0  0  2  0  0  0  0  0  0  0  0  0
    6.1040   -2.6720   23.1660 C   0  0  0  0  0  0  0  0  0  0  0  0
    7.2550   -2.7410   22.3760 C   0  0  1  0  0  0  0  0  0  0  0  0
    7.9560   -4.2860   26.4110 C   0  0  0  0  0  0  0  0  0  0  0  0
    8.0400   -5.3670   27.2950 C   0  0  0  0  0  0  0  0  0  0  0  0
    7.4500   -5.1910   28.5380 C   0  0  0  0  0  0  0  0  0  0  0  0
    6.1390   -4.7170   28.5100 C   0  0  0  0  0  0  0  0  0  0  0  0
    6.0480   -3.5180   27.8150 C   0  0  0  0  0  0  0  0  0  0  0  0
    6.6470   -3.6260   26.4730 N   0  0  0  0  0  0  0  0  0  0  0  0
  1  2  1  0
  2  3  2  0
  1  4  1  0
  5  7  1  0
  6  8  3  0
  7  8  1  0
  9 11  1  0
 10 11  2  0
 12 13  2  0
  3 14  1  0
  9 14  1  0
 15 16  2  0
  4 17  1  6
 16 17  1  0
 17 18  2  0
 15 19  1  0
 18 19  1  0
 20 21  2  0
 21 22  1  0
 22 23  2  0
  5 24  1  0
 23 24  1  0
  2 25  1  0
 20 25  1  0
 24 25  2  0
 11 26  1  0
 26 27  1  0
 27 28  1  0
 29 13  1  1
 28 29  1  0
 29 30  1  0
  4 31  1  0
 26 31  1  0
 31 30  1  1
 32 33  1  0
 33 34  1  0
 34 35  1  0
 35 36  1  0
 13 37  1  0
 32 37  1  0
 36 37  1  0
M  END
