x2764-x0689
     RDKit          3D

 35 38  0  0  0  0  0  0  0  0999 V2000
    7.6430   -2.0320   22.1730 N   0  0  0  0  0  0  0  0  0  0  0  0
    7.1520   -2.2190   20.8370 C   0  0  0  0  0  0  0  0  0  0  0  0
    6.7890   -3.4020   20.1100 C   0  0  0  0  0  0  0  0  0  0  0  0
    8.7900   -2.1400   22.5280 C   0  0  0  0  0  0  0  0  0  0  0  0
    7.1880    0.6560   22.0150 O   0  0  0  0  0  0  0  0  0  0  0  0
    8.0200    4.1470   22.6760 N   0  0  0  0  0  0  0  0  0  0  0  0
    8.0560    1.7680   22.2840 C   0  0  0  0  0  0  0  0  0  0  0  0
    7.3090    3.0540   22.1790 C   0  0  0  0  0  0  0  0  0  0  0  0
    5.5870   -5.3610   20.0560 O   0  0  0  0  0  0  0  0  0  0  0  0
    6.4360   -4.7120   20.7360 C   0  0  0  0  0  0  0  0  0  0  0  0
    3.9280   -6.3440   25.8800 O   0  0  0  0  0  0  0  0  0  0  0  0
    5.7220   -4.7900   26.8110 O   0  0  0  0  0  0  0  0  0  0  0  0
    4.6800   -5.1180   25.7680 S   0  0  0  0  0  0  0  0  0  0  0  0
   12.4720   -1.6540   22.5360 N   0  0  0  0  0  0  0  0  0  0  0  0
   11.2400   -1.8870   22.0280 C   0  0  0  0  0  0  0  0  0  0  0  0
   10.1760   -1.9060   22.9120 C   0  0  0  0  0  0  0  0  0  0  0  0
   10.5740   -1.6810   24.1900 C   0  0  0  0  0  0  0  0  0  0  0  0
   12.2850   -1.4610   24.1840 S   0  0  0  0  0  0  0  0  0  0  0  0
    6.3110   -1.0250   18.7880 C   0  0  0  0  0  0  0  0  0  0  0  0
    5.8730    0.0320   18.0830 C   0  0  0  0  0  0  0  0  0  0  0  0
    5.8210    1.3280   18.5560 C   0  0  0  0  0  0  0  0  0  0  0  0
    6.2630    1.5410   19.8500 C   0  0  0  0  0  0  0  0  0  0  0  0
    6.7680    0.4580   20.7290 C   0  0  0  0  0  0  0  0  0  0  0  0
    6.7660   -0.9120   20.1070 C   0  0  0  0  0  0  0  0  0  0  0  0
    6.8440   -5.3090   21.9280 N   0  0  0  0  0  0  0  0  0  0  0  0
    6.0390   -6.3430   22.2890 C   0  0  0  0  0  0  0  0  0  0  0  0
    4.9900   -5.9300   23.1200 C   0  0  0  0  0  0  0  0  0  0  0  0
    5.5200   -5.1760   24.2870 N   0  0  0  0  0  0  0  0  0  0  0  0
    6.3930   -4.0450   23.8730 C   0  0  0  0  0  0  0  0  0  0  0  0
    7.3740   -4.5160   23.0360 C   0  0  0  0  0  0  0  0  0  0  0  0
    3.9020   -2.2020   26.0130 S   0  0  0  0  0  0  0  0  0  0  0  0
    3.4980   -3.8370   25.6850 C   0  0  0  0  0  0  0  0  0  0  0  0
    2.1680   -3.9730   25.3710 C   0  0  0  0  0  0  0  0  0  0  0  0
    1.4800   -2.7790   25.4000 C   0  0  0  0  0  0  0  0  0  0  0  0
    2.2830   -1.6900   25.7380 C   0  0  0  0  0  0  0  0  0  0  0  0
  1  2  1  0
  2  3  2  3
  1  4  1  0
  5  7  1  0
  6  8  3  0
  7  8  1  0
  3 10  1  0
  9 10  2  0
 11 13  2  0
 12 13  2  0
 14 15  2  0
  4 16  1  0
 15 16  1  0
 16 17  2  0
 14 18  1  0
 17 18  1  0
 19 20  2  0
 20 21  1  0
 21 22  2  0
  5 23  1  0
 22 23  1  0
  2 24  1  0
 19 24  1  0
 23 24  2  0
 10 25  1  0
 25 26  1  0
 26 27  1  0
 13 28  1  0
 27 28  1  0
 28 29  1  0
 25 30  1  0
 29 30  1  0
 13 32  1  0
 31 32  1  0
 32 33  2  0
 33 34  1  0
 31 35  1  0
 34 35  2  0
M  END
