x2764-x0749
     RDKit          3D

 31 35  0  0  0  0  0  0  0  0999 V2000
    8.7830   -1.2310   21.1780 N   0  0  0  0  0  0  0  0  0  0  0  0
    7.3670   -1.1360   20.9960 C   0  0  0  0  0  0  0  0  0  0  0  0
    6.6210   -1.9280   21.5560 O   0  0  0  0  0  0  0  0  0  0  0  0
    9.3000   -2.2630   22.0950 C   0  0  0  0  0  0  0  0  0  0  0  0
    6.4960    1.3290   22.0170 O   0  0  0  0  0  0  0  0  0  0  0  0
    7.8390    4.7650   22.6310 N   0  0  0  0  0  0  0  0  0  0  0  0
    7.8090    1.8360   22.3220 C   0  0  0  0  0  0  0  0  0  0  0  0
    7.8240    3.3150   22.4660 C   0  0  0  0  0  0  0  0  0  0  0  0
    7.4170   -3.2890   19.3760 C   0  0  0  0  0  0  0  0  0  0  0  0
    5.3580   -4.4270   19.8870 O   0  0  0  0  0  0  0  0  0  0  0  0
    6.4730   -4.0030   20.2930 C   0  0  0  0  0  0  0  0  0  0  0  0
   10.4240   -2.0620   23.4310 C   0  0  1  0  0  0  0  0  0  0  0  0
   11.5840   -1.9380   22.2340 C   0  0  0  0  0  0  0  0  0  0  0  0
   10.6350   -2.0710   22.5240 C   0  0  0  0  0  0  0  0  0  0  0  0
   11.4980   -1.9700   23.8740 C   0  0  1  0  0  0  0  0  0  0  0  0
   10.6130   -0.8310   24.6640 S   0  0  0  0  0  0  0  0  0  0  0  0
    6.4390   -0.4520   18.8260 C   0  0  0  0  0  0  0  0  0  0  0  0
    5.7530    0.4400   17.9880 C   0  0  0  0  0  0  0  0  0  0  0  0
    5.3070    1.6470   18.4980 C   0  0  0  0  0  0  0  0  0  0  0  0
    5.5250    2.0450   19.8960 C   0  0  0  0  0  0  0  0  0  0  0  0
    6.2490    1.0490   20.6910 C   0  0  0  0  0  0  0  0  0  0  0  0
    6.6770   -0.1480   20.1600 C   0  0  0  0  0  0  0  0  0  0  0  0
    6.8850   -4.2430   21.6250 N   0  0  0  0  0  0  0  0  0  0  0  0
    7.7410   -3.4840   22.3090 C   0  0  0  0  0  0  0  0  0  0  0  0
    8.6660   -4.2390   23.0280 C   0  0  2  0  0  0  0  0  0  0  0  0
    8.1520   -5.1980   23.8360 C   0  0  0  0  0  0  0  0  0  0  0  0
    7.1340   -5.9800   23.3150 C   0  0  0  0  0  0  0  0  0  0  0  0
    6.7790   -5.6140   22.0320 C   0  0  0  0  0  0  0  0  0  0  0  0
    9.9250   -3.5080   23.6800 C   0  0  2  0  0  0  0  0  0  0  0  0
   10.5130   -4.3590   25.2260 S   0  0  0  0  0  0  0  0  0  0  0  0
   11.7250   -3.0220   24.8850 C   0  0  0  0  0  0  0  0  0  0  0  0
  1  2  1  0
  2  3  2  0
  1  4  1  0
  5  7  1  0
  6  8  3  0
  7  8  1  0
  9 11  1  0
 10 11  2  0
 12 13  1  6
  4 14  1  0
 13 14  2  0
 12 15  1  0
 15 14  1  0
 12 16  1  0
 15 16  1  0
 17 18  2  0
 18 19  1  0
 19 20  2  0
  5 21  1  0
 20 21  1  0
  2 22  1  0
 17 22  1  0
 21 22  2  0
 11 23  1  0
 23 24  1  0
 25 24  1  1
 25 26  1  0
 26 27  1  0
 23 28  1  0
 27 28  1  0
 12 29  1  0
 25 29  1  0
 29 30  1  1
 15 31  1  1
 30 31  2  0
M  END
