x2764-x1425
     RDKit          3D

 37 41  0  0  0  0  0  0  0  0999 V2000
    8.5880   -0.5480   22.1150 N   0  0  0  0  0  0  0  0  0  0  0  0
    7.5930   -0.9520   21.3000 C   0  0  0  0  0  0  0  0  0  0  0  0
    7.0520   -2.3130   21.2900 C   0  0  0  0  0  0  0  0  0  0  0  0
    9.1910   -1.5580   22.9930 C   0  0  0  0  0  0  0  0  0  0  0  0
    6.4940    1.5010   22.0800 O   0  0  0  0  0  0  0  0  0  0  0  0
    7.8800    4.6630   22.6580 N   0  0  0  0  0  0  0  0  0  0  0  0
    7.8160    2.0020   22.3560 C   0  0  0  0  0  0  0  0  0  0  0  0
    7.8650    3.5130   22.5140 C   0  0  0  0  0  0  0  0  0  0  0  0
    1.3660   -2.3120   28.3650 C   0  0  0  0  0  0  0  0  0  0  0  0
    2.7620   -2.0680   28.2720 O   0  0  0  0  0  0  0  0  0  0  0  0
    5.3300   -5.6470   20.0040 O   0  0  0  0  0  0  0  0  0  0  0  0
    6.1070   -4.8070   20.3540 C   0  0  0  0  0  0  0  0  0  0  0  0
    6.5230   -3.7220   19.4730 C   0  0  0  0  0  0  0  0  0  0  0  0
    6.0510   -2.5660   20.2910 C   0  0  0  0  0  0  0  0  0  0  0  0
   12.8680   -1.6590   22.5080 N   0  0  0  0  0  0  0  0  0  0  0  0
   11.5860   -1.6450   22.1520 C   0  0  0  0  0  0  0  0  0  0  0  0
   10.6590   -1.5860   23.1720 C   0  0  0  0  0  0  0  0  0  0  0  0
   11.2620   -1.5570   24.4200 C   0  0  0  0  0  0  0  0  0  0  0  0
   12.9470   -1.6030   24.1740 S   0  0  0  0  0  0  0  0  0  0  0  0
    6.6940   -0.4120   18.9970 C   0  0  0  0  0  0  0  0  0  0  0  0
    5.9630    0.4230   18.1370 C   0  0  0  0  0  0  0  0  0  0  0  0
    5.4240    1.6050   18.5900 C   0  0  0  0  0  0  0  0  0  0  0  0
    5.5960    1.9860   19.9020 C   0  0  0  0  0  0  0  0  0  0  0  0
    6.3140    1.1620   20.7710 C   0  0  0  0  0  0  0  0  0  0  0  0
    6.8700   -0.0430   20.3460 C   0  0  0  0  0  0  0  0  0  0  0  0
    3.3880   -2.5650   27.1680 C   0  0  0  0  0  0  0  0  0  0  0  0
    4.7020   -2.1420   26.9910 C   0  0  0  0  0  0  0  0  0  0  0  0
    5.4510   -2.5850   25.8970 C   0  0  0  0  0  0  0  0  0  0  0  0
    4.8990   -3.4630   24.9530 C   0  0  0  0  0  0  0  0  0  0  0  0
    3.5770   -3.8720   25.1490 C   0  0  0  0  0  0  0  0  0  0  0  0
    2.8260   -3.4330   26.2410 C   0  0  0  0  0  0  0  0  0  0  0  0
    6.7850   -4.7670   21.5790 N   0  0  0  0  0  0  0  0  0  0  0  0
    7.3900   -3.5240   22.1560 C   0  0  2  0  0  0  0  0  0  0  0  0
    6.9430   -3.3650   23.6340 C   0  0  0  0  0  0  0  0  0  0  0  0
    5.5870   -3.9400   23.8570 N   0  0  0  0  0  0  0  0  0  0  0  0
    5.4340   -5.3680   23.5050 C   0  0  0  0  0  0  0  0  0  0  0  0
    6.5100   -5.8380   22.5160 C   0  0  0  0  0  0  0  0  0  0  0  0
  1  2  1  0
  2  3  2  3
  1  4  1  0
  5  7  1  0
  6  8  3  0
  7  8  1  0
  9 10  1  0
 11 12  2  0
 12 13  1  0
  3 14  1  0
 13 14  1  0
 15 16  2  0
  4 17  1  0
 16 17  1  0
 17 18  2  0
 15 19  1  0
 18 19  1  0
 20 21  2  0
 21 22  1  0
 22 23  2  0
  5 24  1  0
 23 24  1  0
  2 25  1  0
 20 25  1  0
 24 25  2  0
 10 26  1  0
 26 27  2  0
 27 28  1  0
 28 29  2  0
 29 30  1  0
 26 31  1  0
 30 31  2  0
 12 32  1  0
  3 33  1  0
 32 33  1  0
 33 34  1  1
 29 35  1  0
 34 35  1  0
 35 36  1  0
 32 37  1  0
 36 37  1  0
M  END
