x2764-x1351
     RDKit          3D

 38 44  0  0  0  0  0  0  0  0999 V2000
    8.8000   -1.2150   21.0770 N   0  0  0  0  0  0  0  0  0  0  0  0
    7.4060   -1.1060   20.9950 C   0  0  0  0  0  0  0  0  0  0  0  0
    6.5390   -2.0430   21.7420 C   0  0  0  0  0  0  0  0  0  0  0  0
    9.2910   -1.8090   21.9630 C   0  0  0  0  0  0  0  0  0  0  0  0
    6.5000    1.3090   22.0750 O   0  0  0  0  0  0  0  0  0  0  0  0
    7.7430    4.3250   22.8860 N   0  0  0  0  0  0  0  0  0  0  0  0
    7.7160    1.9460   22.4890 C   0  0  0  0  0  0  0  0  0  0  0  0
    7.7780    3.3200   21.9220 C   0  0  0  0  0  0  0  0  0  0  0  0
    6.9150   -3.3570   19.4090 C   0  0  0  0  0  0  0  0  0  0  0  0
    5.3740   -5.1090   20.0030 O   0  0  0  0  0  0  0  0  0  0  0  0
    6.2080   -4.2600   20.3690 C   0  0  0  0  0  0  0  0  0  0  0  0
    5.6200   -3.1700   25.5000 N   0  0  0  0  0  0  0  0  0  0  0  0
    7.8370   -2.9940   26.3680 O   0  0  0  0  0  0  0  0  0  0  0  0
    6.7230   -2.4990   26.2420 C   0  0  0  0  0  0  0  0  0  0  0  0
    5.8350   -3.0180   22.5130 C   0  0  2  0  0  0  0  0  0  0  0  0
   12.9720   -1.1990   22.4110 N   0  0  0  0  0  0  0  0  0  0  0  0
   11.7700   -1.7970   21.8450 C   0  0  0  0  0  0  0  0  0  0  0  0
   10.6380   -1.3530   22.3910 C   0  0  0  0  0  0  0  0  0  0  0  0
   10.8210   -0.4120   23.4040 C   0  0  0  0  0  0  0  0  0  0  0  0
   12.4980   -0.1180   23.5910 S   0  0  0  0  0  0  0  0  0  0  0  0
    6.4690   -0.3680   18.8450 C   0  0  0  0  0  0  0  0  0  0  0  0
    5.7410    0.5590   17.9710 C   0  0  0  0  0  0  0  0  0  0  0  0
    5.2810    1.7820   18.6160 C   0  0  0  0  0  0  0  0  0  0  0  0
    5.5300    2.0290   19.9490 C   0  0  0  0  0  0  0  0  0  0  0  0
    6.2280    1.1160   20.7440 C   0  0  0  0  0  0  0  0  0  0  0  0
    6.6960   -0.0880   20.2000 C   0  0  0  0  0  0  0  0  0  0  0  0
    6.5370   -4.1390   21.8410 C   0  0  2  0  0  0  0  0  0  0  0  0
    7.3150   -3.0920   22.3860 C   0  0  1  0  0  0  0  0  0  0  0  0
    6.8580   -2.8040   23.6410 C   0  0  2  0  0  0  0  0  0  0  0  0
    5.7330   -3.4770   24.0790 C   0  0  1  0  0  0  0  0  0  0  0  0
    5.6880   -4.8810   23.8490 C   0  0  0  0  0  0  0  0  0  0  0  0
    6.3130   -5.3700   22.6760 C   0  0  0  0  0  0  0  0  0  0  0  0
    7.1140   -0.7430   28.0210 C   0  0  0  0  0  0  0  0  0  0  0  0
    6.8510    0.5030   28.6070 C   0  0  0  0  0  0  0  0  0  0  0  0
    5.9050    1.3900   28.0800 C   0  0  0  0  0  0  0  0  0  0  0  0
    5.1720    1.0740   26.9350 C   0  0  0  0  0  0  0  0  0  0  0  0
    5.3840   -0.2580   26.2210 C   0  0  0  0  0  0  0  0  0  0  0  0
    6.4370   -1.1690   26.8650 C   0  0  0  0  0  0  0  0  0  0  0  0
  1  2  1  0
  2  3  2  3
  1  4  1  0
  5  7  1  0
  6  8  3  0
  7  8  1  0
  9 11  1  0
 10 11  2  0
 12 14  1  0
 13 14  2  0
 15  3  1  6
 16 17  2  0
  4 18  1  0
 17 18  1  0
 18 19  2  0
 16 20  1  0
 19 20  1  0
 21 22  2  0
 22 23  1  0
 23 24  2  0
  5 25  1  0
 24 25  1  0
  2 26  1  0
 21 26  1  0
 25 26  2  0
 27 11  1  6
 15 27  1  0
 28  3  1  6
 15 28  1  0
 27 28  1  0
 15 29  1  0
 28 29  1  0
 30 12  1  1
 29 30  1  1
 30 31  1  0
 27 32  1  0
 31 32  1  0
 33 34  2  0
 34 35  1  0
 35 36  2  0
 36 37  1  0
 14 38  1  0
 33 38  1  0
 37 38  2  0
M  END
