x2764-x0946
     RDKit          3D

 28 30  0  0  0  0  0  0  0  0999 V2000
    8.6200   -1.2150   21.3910 N   0  0  0  0  0  0  0  0  0  0  0  0
    7.2360   -1.2340   21.0870 C   0  0  0  0  0  0  0  0  0  0  0  0
    6.5300   -2.1400   21.5190 O   0  0  0  0  0  0  0  0  0  0  0  0
    9.0370   -2.0520   22.5020 C   0  0  0  0  0  0  0  0  0  0  0  0
    6.3340    1.5910   21.9090 O   0  0  0  0  0  0  0  0  0  0  0  0
    8.7250    4.1270   22.9920 C   0  0  0  0  0  0  0  0  0  0  0  0
    7.6720    1.7730   22.3160 C   0  0  0  0  0  0  0  0  0  0  0  0
    8.0780    3.1780   22.6250 C   0  0  0  0  0  0  0  0  0  0  0  0
    9.8310    5.0830   25.0670 O   0  0  0  0  0  0  0  0  0  0  0  0
   10.3660    6.2040   22.7680 O   0  0  0  0  0  0  0  0  0  0  0  0
   10.1500    5.0010   23.6520 S   0  0  0  0  0  0  0  0  0  0  0  0
   12.8440   -1.6680   22.5040 N   0  0  0  0  0  0  0  0  0  0  0  0
   11.6600   -1.8640   21.9430 C   0  0  0  0  0  0  0  0  0  0  0  0
   10.4690   -1.8540   22.8750 C   0  0  0  0  0  0  0  0  0  0  0  0
   10.9410   -1.6300   24.1610 C   0  0  0  0  0  0  0  0  0  0  0  0
   12.6450   -1.4640   24.1430 S   0  0  0  0  0  0  0  0  0  0  0  0
    6.3350   -0.5780   18.9030 C   0  0  0  0  0  0  0  0  0  0  0  0
    5.7070    0.2790   18.0120 C   0  0  0  0  0  0  0  0  0  0  0  0
    5.3110    1.5040   18.4040 C   0  0  0  0  0  0  0  0  0  0  0  0
    5.4960    1.9960   19.7000 C   0  0  0  0  0  0  0  0  0  0  0  0
    6.1210    1.1730   20.6260 C   0  0  0  0  0  0  0  0  0  0  0  0
    6.5670   -0.1900   20.2250 C   0  0  0  0  0  0  0  0  0  0  0  0
   12.5390    1.2620   22.6740 C   0  0  0  0  0  0  0  0  0  0  0  0
   13.1930    2.6210   22.6490 C   0  0  0  0  0  0  0  0  0  0  0  0
   12.4860    3.7580   22.9390 C   0  0  0  0  0  0  0  0  0  0  0  0
   11.1470    3.6420   23.2550 C   0  0  0  0  0  0  0  0  0  0  0  0
   10.5330    2.4070   23.2620 C   0  0  0  0  0  0  0  0  0  0  0  0
   11.1960    1.2160   22.9810 C   0  0  0  0  0  0  0  0  0  0  0  0
  1  2  1  0
  2  3  2  0
  1  4  1  0
  5  7  1  0
  6  8  3  0
  7  8  1  0
 11  6  1  0
  9 11  2  0
 10 11  2  0
 12 13  2  0
  4 14  1  0
 13 14  1  0
 14 15  2  0
 12 16  1  0
 15 16  1  0
 17 18  2  0
 18 19  1  0
 19 20  2  0
  5 21  1  0
 20 21  1  0
  2 22  1  0
 17 22  1  0
 21 22  2  0
 23 24  2  0
 24 25  1  0
 11 26  1  0
 25 26  2  0
 26 27  1  0
 23 28  1  0
 27 28  2  0
M  END
