x2764-x1478
     RDKit          3D

 29 31  0  0  0  0  0  0  0  0999 V2000
    7.4380   -1.2050   22.7320 N   0  0  0  0  0  0  0  0  0  0  0  0
    6.9160   -1.3570   21.3980 C   0  0  0  0  0  0  0  0  0  0  0  0
    6.5410   -2.5610   20.6030 C   0  0  0  0  0  0  0  0  0  0  0  0
    8.2760   -1.9320   23.2410 C   0  0  0  0  0  0  0  0  0  0  0  0
    6.6300    1.3080   22.1480 O   0  0  0  0  0  0  0  0  0  0  0  0
    8.1870    4.4530   22.5280 N   0  0  0  0  0  0  0  0  0  0  0  0
    7.7890    2.0860   22.4310 C   0  0  0  0  0  0  0  0  0  0  0  0
    7.3500    3.4150   22.9230 C   0  0  0  0  0  0  0  0  0  0  0  0
    7.5330   -4.7250   20.4310 C   0  0  0  0  0  0  0  0  0  0  0  0
    5.2240   -4.3730   19.8280 O   0  0  0  0  0  0  0  0  0  0  0  0
    6.3030   -3.9450   20.2710 C   0  0  0  0  0  0  0  0  0  0  0  0
    7.2550   -5.8470   22.4760 Cl  0  0  0  0  0  0  0  0  0  0  0  0
   12.0890   -1.4390   22.4300 N   0  0  0  0  0  0  0  0  0  0  0  0
   10.6430   -1.6390   22.1000 C   0  0  0  0  0  0  0  0  0  0  0  0
    9.8130   -1.7130   23.1900 C   0  0  0  0  0  0  0  0  0  0  0  0
   10.5950   -1.5700   24.3180 C   0  0  0  0  0  0  0  0  0  0  0  0
   12.2590   -1.3610   24.0720 S   0  0  0  0  0  0  0  0  0  0  0  0
    6.3210   -0.6790   19.1410 C   0  0  0  0  0  0  0  0  0  0  0  0
    5.8720    0.2080   18.1610 C   0  0  0  0  0  0  0  0  0  0  0  0
    5.6550    1.5170   18.5120 C   0  0  0  0  0  0  0  0  0  0  0  0
    5.8930    2.0230   19.8770 C   0  0  0  0  0  0  0  0  0  0  0  0
    6.3670    1.0280   20.8430 C   0  0  0  0  0  0  0  0  0  0  0  0
    6.5520   -0.2740   20.4640 C   0  0  0  0  0  0  0  0  0  0  0  0
    6.2480   -4.2500   24.1310 N   0  0  0  0  0  0  0  0  0  0  0  0
    6.6410   -4.2830   22.8190 C   0  0  0  0  0  0  0  0  0  0  0  0
    6.4200   -3.0880   22.0770 C   0  0  0  0  0  0  0  0  0  0  0  0
    5.8750   -1.9200   22.4840 C   0  0  0  0  0  0  0  0  0  0  0  0
    5.4980   -1.9450   23.8170 C   0  0  0  0  0  0  0  0  0  0  0  0
    5.6890   -3.0880   24.5960 C   0  0  0  0  0  0  0  0  0  0  0  0
  1  2  1  0
  2  3  2  3
  1  4  1  0
  5  7  1  0
  6  8  3  0
  7  8  1  0
  3 11  1  0
  9 11  1  0
 10 11  2  0
 13 14  2  0
  4 15  1  0
 14 15  1  0
 15 16  2  0
 13 17  1  0
 16 17  1  0
 18 19  2  0
 19 20  1  0
 20 21  2  0
  5 22  1  0
 21 22  1  0
  2 23  1  0
 18 23  1  0
 22 23  2  0
 12 25  1  0
 24 25  2  0
  3 26  1  0
 25 26  1  0
 26 27  2  0
 27 28  1  0
 24 29  1  0
 28 29  2  0
M  END
