x2764-x3110
     RDKit          3D

 33 34  0  0  0  0  0  0  0  0999 V2000
    7.8030    1.4940   22.9440 N   0  0  0  0  0  0  0  0  0  0  0  0
   13.3860    5.1300   22.8930 C   0  0  0  0  0  0  0  0  0  0  0  0
   11.8990    3.2590   22.4890 O   0  0  0  0  0  0  0  0  0  0  0  0
   12.4030    4.4870   21.9430 C   0  0  0  0  0  0  0  0  0  0  0  0
    7.0050   -1.7540   21.7680 N   0  0  0  0  0  0  0  0  0  0  0  0
   10.8180    4.5890   24.3310 O   0  0  0  0  0  0  0  0  0  0  0  0
   10.9800    3.4520   23.4700 C   0  0  0  0  0  0  0  0  0  0  0  0
    8.8380    0.5790   21.2100 O   0  0  0  0  0  0  0  0  0  0  0  0
   10.0010    2.3650   23.6800 C   0  0  0  0  0  0  0  0  0  0  0  0
    4.8910   -3.0700   21.1420 O   0  0  0  0  0  0  0  0  0  0  0  0
    8.7320    2.6040   22.8520 C   0  0  2  0  0  0  0  0  0  0  0  0
    7.8290    0.5850   21.8980 C   0  0  0  0  0  0  0  0  0  0  0  0
    6.7290   -0.2550   21.5910 C   0  0  1  0  0  0  0  0  0  0  0  0
    6.1700   -2.9550   21.4640 C   0  0  0  0  0  0  0  0  0  0  0  0
    6.8780   -4.3060   21.5580 C   0  0  0  0  0  0  0  0  0  0  0  0
    8.2860   -4.4020   20.9580 C   0  0  0  0  0  0  0  0  0  0  0  0
   12.3560   -1.8850   24.2580 C   0  0  0  0  0  0  0  0  0  0  0  0
   12.5220   -0.6660   24.9350 C   0  0  0  0  0  0  0  0  0  0  0  0
   13.3420   -1.9460   23.0920 C   0  0  0  0  0  0  0  0  0  0  0  0
   12.7960   -2.9990   25.2260 C   0  0  0  0  0  0  0  0  0  0  0  0
    7.9300    3.7530   23.2720 N   0  0  0  0  0  0  0  0  0  0  0  0
    6.3450    0.3500   17.8670 N   0  0  0  0  0  0  0  0  0  0  0  0
    5.2280    1.0960   17.8510 C   0  0  0  0  0  0  0  0  0  0  0  0
    4.5190    1.4410   18.9670 C   0  0  0  0  0  0  0  0  0  0  0  0
    4.9820    1.0010   20.1970 C   0  0  0  0  0  0  0  0  0  0  0  0
    6.1460    0.2280   20.2710 C   0  0  0  0  0  0  0  0  0  0  0  0
    6.7820   -0.0710   19.0710 C   0  0  0  0  0  0  0  0  0  0  0  0
    9.4600   -1.5160   21.7590 C   0  0  0  0  0  0  0  0  0  0  0  0
   10.7330   -1.5460   22.3400 C   0  0  0  0  0  0  0  0  0  0  0  0
   10.9250   -1.9090   23.6800 C   0  0  0  0  0  0  0  0  0  0  0  0
    9.7700   -2.2540   24.3860 C   0  0  0  0  0  0  0  0  0  0  0  0
    8.4800   -2.2300   23.7980 C   0  0  0  0  0  0  0  0  0  0  0  0
    8.3050   -1.8480   22.4570 C   0  0  0  0  0  0  0  0  0  0  0  0
  2  4  1  0
  3  4  1  0
  3  7  1  0
  6  7  2  0
  7  9  1  0
  1 11  1  0
  9 11  1  0
  1 12  1  0
  8 12  2  0
  5 13  1  0
 13 12  1  6
  5 14  1  0
 10 14  2  0
 14 15  1  0
 15 16  1  0
 17 18  1  0
 17 19  1  0
 17 20  1  0
 11 21  1  1
 22 23  2  0
 23 24  1  0
 24 25  2  0
 13 26  1  0
 25 26  1  0
 22 27  1  0
 26 27  2  0
 28 29  2  0
 17 30  1  0
 29 30  1  0
 30 31  2  0
 31 32  1  0
  5 33  1  0
 28 33  1  0
 32 33  2  0
M  END
