x2764-x0786
     RDKit          3D

 38 41  0  0  0  0  0  0  0  0999 V2000
    8.6960   -0.8410   21.4950 N   0  0  0  0  0  0  0  0  0  0  0  0
    7.3750   -1.0030   21.0230 C   0  0  0  0  0  0  0  0  0  0  0  0
    6.6200   -2.1720   21.3720 N   0  0  0  0  0  0  0  0  0  0  0  0
    9.2570   -1.9260   22.2830 C   0  0  0  0  0  0  0  0  0  0  0  0
    6.5210    1.4190   21.9940 O   0  0  0  0  0  0  0  0  0  0  0  0
    7.8070    4.4960   22.6640 N   0  0  0  0  0  0  0  0  0  0  0  0
    7.8470    1.8750   22.2790 C   0  0  0  0  0  0  0  0  0  0  0  0
    7.8290    3.3500   22.4810 C   0  0  0  0  0  0  0  0  0  0  0  0
    6.3590   -4.2130   22.0070 N   0  0  0  0  0  0  0  0  0  0  0  0
    7.2230   -5.3380   20.1070 C   0  0  0  0  0  0  0  0  0  0  0  0
    5.1530   -4.4960   19.9230 O   0  0  0  0  0  0  0  0  0  0  0  0
    6.1320   -4.6580   20.6980 C   0  0  0  0  0  0  0  0  0  0  0  0
    3.6770   -8.1920   24.9450 O   0  0  0  0  0  0  0  0  0  0  0  0
    3.1590   -7.0320   24.3260 C   0  0  0  0  0  0  0  0  0  0  0  0
    7.1550   -3.2150   22.1760 C   0  0  0  0  0  0  0  0  0  0  0  0
   12.9300   -1.5940   22.6190 N   0  0  0  0  0  0  0  0  0  0  0  0
   11.7630   -1.7520   21.9940 C   0  0  0  0  0  0  0  0  0  0  0  0
   10.6430   -1.7610   22.7980 C   0  0  0  0  0  0  0  0  0  0  0  0
   10.9580   -1.6110   24.0940 C   0  0  0  0  0  0  0  0  0  0  0  0
   12.6490   -1.4620   24.2570 S   0  0  0  0  0  0  0  0  0  0  0  0
    6.4370   -0.4010   18.8550 C   0  0  0  0  0  0  0  0  0  0  0  0
    5.7400    0.4410   18.0060 C   0  0  0  0  0  0  0  0  0  0  0  0
    5.2080    1.7460   18.4090 C   0  0  0  0  0  0  0  0  0  0  0  0
    5.4550    2.1500   19.8030 C   0  0  0  0  0  0  0  0  0  0  0  0
    6.2240    1.1820   20.6840 C   0  0  0  0  0  0  0  0  0  0  0  0
    6.6640   -0.0290   20.1710 C   0  0  0  0  0  0  0  0  0  0  0  0
    5.5620   -4.5010   23.1300 C   0  0  0  0  0  0  0  0  0  0  0  0
    4.7800   -5.5920   23.1760 C   0  0  0  0  0  0  0  0  0  0  0  0
    4.0110   -5.8500   24.2820 C   0  0  0  0  0  0  0  0  0  0  0  0
    4.0490   -4.9750   25.3570 C   0  0  0  0  0  0  0  0  0  0  0  0
    4.8410   -3.8280   25.3700 C   0  0  0  0  0  0  0  0  0  0  0  0
    5.5930   -3.6220   24.2230 C   0  0  0  0  0  0  0  0  0  0  0  0
    1.4180   -5.6140   23.3880 C   0  0  0  0  0  0  0  0  0  0  0  0
    0.5440   -5.0900   24.3520 C   0  0  0  0  0  0  0  0  0  0  0  0
   -0.9700   -6.0970   24.4470 S   0  0  0  0  0  0  0  0  0  0  0  0
   -0.1160   -7.6670   24.8310 C   0  0  0  0  0  0  0  0  0  0  0  0
    0.8640   -7.9830   23.8790 C   0  0  0  0  0  0  0  0  0  0  0  0
    1.8920   -6.9450   23.7570 N   0  0  0  0  0  0  0  0  0  0  0  0
  1  2  1  0
  2  3  2  3
  1  4  1  0
  5  7  1  0
  6  8  3  0
  7  8  1  0
  9 12  1  0
 10 12  1  0
 11 12  2  0
 13 14  2  0
  3 15  1  0
  9 15  1  0
 16 17  2  0
  4 18  1  0
 17 18  1  0
 18 19  2  0
 16 20  1  0
 19 20  1  0
 21 22  2  0
 22 23  1  0
 23 24  2  0
  5 25  1  0
 24 25  1  0
  2 26  1  0
 21 26  1  0
 25 26  2  0
  9 27  1  0
 27 28  2  0
 14 29  1  0
 28 29  1  0
 29 30  2  0
 30 31  1  0
 27 32  1  0
 31 32  2  0
 33 34  1  0
 34 35  1  0
 35 36  1  0
 36 37  1  0
 14 38  1  0
 33 38  1  0
 37 38  1  0
M  END
