x2764-x0387
     RDKit          3D

 26 28  0  0  0  0  0  0  0  0999 V2000
    8.5570   -1.3770   21.3160 N   0  0  0  0  0  0  0  0  0  0  0  0
    7.1850   -1.3630   20.9910 C   0  0  0  0  0  0  0  0  0  0  0  0
    6.4570   -2.2790   21.3650 O   0  0  0  0  0  0  0  0  0  0  0  0
    8.9170   -2.3450   22.3230 C   0  0  0  0  0  0  0  0  0  0  0  0
    6.4620    1.3020   22.0100 O   0  0  0  0  0  0  0  0  0  0  0  0
    7.7190    4.4840   22.5510 N   0  0  0  0  0  0  0  0  0  0  0  0
    7.7610    1.8450   22.3200 C   0  0  0  0  0  0  0  0  0  0  0  0
    7.7260    3.3290   22.4420 C   0  0  0  0  0  0  0  0  0  0  0  0
    8.1100   -5.5440   27.6120 O   0  0  0  0  0  0  0  0  0  0  0  0
   12.6920   -1.4000   22.6980 N   0  0  0  0  0  0  0  0  0  0  0  0
   11.4140   -1.5890   22.0070 C   0  0  0  0  0  0  0  0  0  0  0  0
   10.2770   -2.0980   22.8430 C   0  0  0  0  0  0  0  0  0  0  0  0
   10.7920   -2.3120   24.2380 C   0  0  0  0  0  0  0  0  0  0  0  0
   12.4820   -1.8460   24.2830 S   0  0  0  0  0  0  0  0  0  0  0  0
    6.3080   -0.5560   18.8490 C   0  0  0  0  0  0  0  0  0  0  0  0
    5.7180    0.3630   18.0230 C   0  0  0  0  0  0  0  0  0  0  0  0
    5.3660    1.6030   18.5090 C   0  0  0  0  0  0  0  0  0  0  0  0
    5.6140    1.8960   19.8020 C   0  0  0  0  0  0  0  0  0  0  0  0
    6.2170    0.9950   20.6970 C   0  0  0  0  0  0  0  0  0  0  0  0
    6.5640   -0.2590   20.1980 C   0  0  0  0  0  0  0  0  0  0  0  0
    8.7600   -4.5190   26.9030 C   0  0  0  0  0  0  0  0  0  0  0  0
    8.0120   -4.1210   25.7300 C   0  0  0  0  0  0  0  0  0  0  0  0
    8.6240   -2.8500   25.1670 C   0  0  0  0  0  0  0  0  0  0  0  0
   10.1050   -2.8080   25.3010 N   0  0  0  0  0  0  0  0  0  0  0  0
   10.8050   -4.0410   25.6990 C   0  0  0  0  0  0  0  0  0  0  0  0
   10.1550   -4.9320   26.5570 C   0  0  0  0  0  0  0  0  0  0  0  0
  1  2  1  0
  2  3  2  0
  1  4  1  0
  5  7  1  0
  6  8  3  0
  7  8  1  0
 10 11  2  0
  4 12  1  0
 11 12  1  0
 12 13  2  0
 10 14  1  0
 13 14  1  0
 15 16  2  0
 16 17  1  0
 17 18  2  0
  5 19  1  0
 18 19  1  0
  2 20  1  0
 15 20  1  0
 19 20  2  0
  9 21  1  0
 21 22  1  0
 22 23  1  0
 13 24  1  0
 23 24  1  0
 24 25  1  0
 21 26  1  0
 25 26  1  0
M  END
