x2764-x3298
     RDKit          3D

 30 32  0  0  0  0  0  0  0  0999 V2000
    7.2550    1.9960   22.1440 N   0  0  0  0  0  0  0  0  0  0  0  0
    7.4130   -0.1340   21.2930 C   0  0  1  0  0  0  0  0  0  0  0  0
    6.6550   -0.3870   22.2230 O   0  0  0  0  0  0  0  0  0  0  0  0
    8.0600    0.9940   21.5150 C   0  0  0  0  0  0  0  0  0  0  0  0
    8.5420    1.2370   24.2660 N   0  0  0  0  0  0  0  0  0  0  0  0
    9.1950    1.2400   21.1680 O   0  0  0  0  0  0  0  0  0  0  0  0
   10.7370    1.8690   24.5520 O   0  0  0  0  0  0  0  0  0  0  0  0
    9.9060   -0.1820   25.9890 O   0  0  0  0  0  0  0  0  0  0  0  0
   13.6910   -1.7990   20.8670 F   0  0  0  0  0  0  0  0  0  0  0  0
   10.0590    0.6100   24.7030 S   0  0  0  0  0  0  0  0  0  0  0  0
    8.2320   -1.3450   21.0970 N   0  0  0  0  0  0  0  0  0  0  0  0
    8.5860   -2.1730   22.2400 C   0  0  0  0  0  0  0  0  0  0  0  0
    6.2140    0.3240   17.6760 N   0  0  0  0  0  0  0  0  0  0  0  0
    6.9160   -0.0310   18.7350 C   0  0  0  0  0  0  0  0  0  0  0  0
    6.5850    0.2370   20.1240 C   0  0  0  0  0  0  0  0  0  0  0  0
    5.2640    0.9930   20.3010 C   0  0  0  0  0  0  0  0  0  0  0  0
    4.5040    1.3700   19.0420 C   0  0  0  0  0  0  0  0  0  0  0  0
    5.0960    0.9820   17.8480 C   0  0  0  0  0  0  0  0  0  0  0  0
    7.8950    4.4650   22.4280 C   0  0  0  0  0  0  0  0  0  0  0  0
    8.6140    5.3640   23.2210 C   0  0  0  0  0  0  0  0  0  0  0  0
    9.2790    4.8960   24.3160 C   0  0  0  0  0  0  0  0  0  0  0  0
    9.2860    3.5370   24.7060 C   0  0  0  0  0  0  0  0  0  0  0  0
    8.5780    2.6380   23.9330 C   0  0  0  0  0  0  0  0  0  0  0  0
    7.8820    3.1130   22.7820 C   0  0  0  0  0  0  0  0  0  0  0  0
   12.3170    0.4620   23.4380 C   0  0  0  0  0  0  0  0  0  0  0  0
   13.2780   -0.1240   22.4710 C   0  0  0  0  0  0  0  0  0  0  0  0
   12.8820   -1.2500   21.7510 C   0  0  0  0  0  0  0  0  0  0  0  0
   11.6180   -1.8060   21.9430 C   0  0  0  0  0  0  0  0  0  0  0  0
   10.7700   -1.2390   22.8350 C   0  0  0  0  0  0  0  0  0  0  0  0
   11.0860   -0.1350   23.5740 C   0  0  0  0  0  0  0  0  0  0  0  0
  2  3  1  1
  1  4  1  0
  2  4  1  0
  4  6  2  0
 10  5  1  0
  7 10  2  0
  8 10  2  0
  2 11  1  0
 11 12  1  0
 13 14  2  0
  2 15  1  0
 14 15  1  0
 15 16  2  0
 16 17  1  0
 13 18  1  0
 17 18  2  0
 19 20  2  0
 20 21  1  0
 21 22  2  0
  5 23  1  0
 22 23  1  0
  1 24  1  0
 19 24  1  0
 23 24  2  0
 25 26  2  0
  9 27  1  0
 26 27  1  0
 27 28  2  0
 28 29  1  0
 10 30  1  0
 25 30  1  0
 29 30  2  0
M  END
