x2764-x0731
     RDKit          3D

 37 40  0  0  0  0  0  0  0  0999 V2000
    7.8260   -2.1050   22.0900 N   0  0  0  0  0  0  0  0  0  0  0  0
    7.2450   -2.2130   20.7810 C   0  0  0  0  0  0  0  0  0  0  0  0
    6.8510   -3.3930   20.0540 C   0  0  0  0  0  0  0  0  0  0  0  0
    8.6260   -1.2800   22.3950 C   0  0  0  0  0  0  0  0  0  0  0  0
    7.2210    0.5670   21.9600 O   0  0  0  0  0  0  0  0  0  0  0  0
    8.0260    4.0820   22.6320 N   0  0  0  0  0  0  0  0  0  0  0  0
    8.0600    1.6970   22.2640 C   0  0  0  0  0  0  0  0  0  0  0  0
    7.2780    2.9680   22.2460 C   0  0  0  0  0  0  0  0  0  0  0  0
    1.0120   -0.9510   26.0710 C   0  0  0  0  0  0  0  0  0  0  0  0
    6.3150   -4.9050   26.8580 O   0  0  0  0  0  0  0  0  0  0  0  0
    4.6460   -6.5890   26.0230 O   0  0  0  0  0  0  0  0  0  0  0  0
    5.6970   -5.3960   20.0780 O   0  0  0  0  0  0  0  0  0  0  0  0
    6.5590   -4.6890   20.7010 C   0  0  0  0  0  0  0  0  0  0  0  0
    5.3120   -5.3160   25.9150 S   0  0  0  0  0  0  0  0  0  0  0  0
   12.4420   -1.9960   22.6990 N   0  0  0  0  0  0  0  0  0  0  0  0
   11.1560   -1.7700   22.0330 C   0  0  0  0  0  0  0  0  0  0  0  0
   10.0690   -1.5680   22.8400 C   0  0  0  0  0  0  0  0  0  0  0  0
   10.4460   -1.6330   24.1770 C   0  0  0  0  0  0  0  0  0  0  0  0
   12.1370   -1.9340   24.3230 S   0  0  0  0  0  0  0  0  0  0  0  0
    6.3380   -1.0250   18.7680 C   0  0  0  0  0  0  0  0  0  0  0  0
    5.8390    0.0550   18.0270 C   0  0  0  0  0  0  0  0  0  0  0  0
    5.8010    1.3030   18.5810 C   0  0  0  0  0  0  0  0  0  0  0  0
    6.2710    1.5670   19.9360 C   0  0  0  0  0  0  0  0  0  0  0  0
    6.7830    0.3930   20.6720 C   0  0  0  0  0  0  0  0  0  0  0  0
    6.8100   -0.9090   20.0790 C   0  0  0  0  0  0  0  0  0  0  0  0
    2.0530   -2.0190   26.0030 C   0  0  0  0  0  0  0  0  0  0  0  0
    1.8570   -3.2830   25.4240 C   0  0  0  0  0  0  0  0  0  0  0  0
    2.8180   -4.2440   25.3910 C   0  0  0  0  0  0  0  0  0  0  0  0
    4.0870   -4.0850   25.9210 C   0  0  0  0  0  0  0  0  0  0  0  0
    4.2960   -2.8340   26.4830 C   0  0  0  0  0  0  0  0  0  0  0  0
    3.3120   -1.8450   26.5180 C   0  0  0  0  0  0  0  0  0  0  0  0
    7.1260   -5.1660   21.8660 N   0  0  0  0  0  0  0  0  0  0  0  0
    7.6510   -4.3650   22.9570 C   0  0  0  0  0  0  0  0  0  0  0  0
    6.6590   -4.0170   23.8700 C   0  0  0  0  0  0  0  0  0  0  0  0
    6.0310   -5.2510   24.3830 N   0  0  0  0  0  0  0  0  0  0  0  0
    5.4830   -6.1000   23.3190 C   0  0  0  0  0  0  0  0  0  0  0  0
    6.4290   -6.3760   22.3380 C   0  0  0  0  0  0  0  0  0  0  0  0
  1  2  1  0
  2  3  2  3
  1  4  1  0
  5  7  1  0
  6  8  3  0
  7  8  1  0
  3 13  1  0
 12 13  2  0
 10 14  2  0
 11 14  2  0
 15 16  2  0
  4 17  1  0
 16 17  1  0
 17 18  2  0
 15 19  1  0
 18 19  1  0
 20 21  2  0
 21 22  1  0
 22 23  2  0
  5 24  1  0
 23 24  1  0
  2 25  1  0
 20 25  1  0
 24 25  2  0
  9 26  1  0
 26 27  2  0
 27 28  1  0
 14 29  1  0
 28 29  2  0
 29 30  1  0
 26 31  1  0
 30 31  2  0
 13 32  1  0
 32 33  1  0
 33 34  1  0
 14 35  1  0
 34 35  1  0
 35 36  1  0
 32 37  1  0
 36 37  1  0
M  END
