x2764-x2119
     RDKit          3D

 25 27  0  0  0  0  0  0  0  0999 V2000
    8.6830   -1.4970   21.2500 N   0  0  0  0  0  0  0  0  0  0  0  0
    7.3840   -0.9850   21.2110 C   0  0  1  0  0  0  0  0  0  0  0  0
    9.1730   -2.2460   22.4060 C   0  0  0  0  0  0  0  0  0  0  0  0
    6.4430    1.4780   21.9250 O   0  0  0  0  0  0  0  0  0  0  0  0
    7.9220    4.7910   22.7360 N   0  0  0  0  0  0  0  0  0  0  0  0
    7.7790    1.8940   22.2610 C   0  0  0  0  0  0  0  0  0  0  0  0
    7.8570    3.3560   22.4910 C   0  0  0  0  0  0  0  0  0  0  0  0
    5.8180   -5.2960   20.0090 N   0  0  0  0  0  0  0  0  0  0  0  0
    6.4220   -4.1530   20.0440 C   0  0  0  0  0  0  0  0  0  0  0  0
   13.0660   -1.5620   22.6730 N   0  0  0  0  0  0  0  0  0  0  0  0
   11.8350   -1.8590   21.9700 C   0  0  0  0  0  0  0  0  0  0  0  0
   10.6120   -1.9520   22.8240 C   0  0  0  0  0  0  0  0  0  0  0  0
   10.9680   -1.7210   24.1360 C   0  0  0  0  0  0  0  0  0  0  0  0
   12.6840   -1.4200   24.2950 S   0  0  0  0  0  0  0  0  0  0  0  0
    6.4790   -0.5630   18.8700 C   0  0  0  0  0  0  0  0  0  0  0  0
    5.7880    0.2950   18.0140 C   0  0  0  0  0  0  0  0  0  0  0  0
    5.3480    1.4820   18.4540 C   0  0  0  0  0  0  0  0  0  0  0  0
    5.5140    1.9810   19.7430 C   0  0  0  0  0  0  0  0  0  0  0  0
    6.1960    1.1490   20.6250 C   0  0  0  0  0  0  0  0  0  0  0  0
    6.6950   -0.1620   20.1890 C   0  0  0  0  0  0  0  0  0  0  0  0
    6.0610   -3.3080   21.1800 C   0  0  0  0  0  0  0  0  0  0  0  0
    5.1220   -3.8200   21.9970 N   0  0  0  0  0  0  0  0  0  0  0  0
    4.9140   -2.9220   22.9950 C   0  0  0  0  0  0  0  0  0  0  0  0
    5.7220   -1.8340   22.7950 C   0  0  0  0  0  0  0  0  0  0  0  0
    6.4500   -2.0240   21.6680 N   0  0  0  0  0  0  0  0  0  0  0  0
  2  1  1  6
  1  3  1  0
  4  6  1  0
  5  7  3  0
  6  7  1  0
  8  9  2  3
 10 11  2  0
  3 12  1  0
 11 12  1  0
 12 13  2  0
 10 14  1  0
 13 14  1  0
 15 16  2  0
 16 17  1  0
 17 18  2  0
  4 19  1  0
 18 19  1  0
  2 20  1  0
 15 20  1  0
 19 20  2  0
  9 21  1  0
 21 22  2  0
 22 23  1  0
 23 24  2  0
  2 25  1  0
 21 25  1  0
 24 25  1  0
M  END
