x2779-x0354
     RDKit          3D

 28 31  0  0  0  0  0  0  0  0999 V2000
   13.0570   -1.5990   22.2950 C   0  0  0  0  0  0  0  0  0  0  0  0
    7.8820   -1.8080   25.1180 O   0  0  0  0  0  0  0  0  0  0  0  0
    7.5060   -0.4490   27.5920 O   0  0  0  0  0  0  0  0  0  0  0  0
    8.7940   -1.1390   25.6110 C   0  0  0  0  0  0  0  0  0  0  0  0
    8.4870   -0.0520   26.6420 C   0  0  0  0  0  0  0  0  0  0  0  0
    5.6720    3.8850   30.9250 C   0  0  0  0  0  0  0  0  0  0  0  0
    7.2980   -3.0100   18.8380 C   0  0  0  0  0  0  0  0  0  0  0  0
    5.3830   -4.1480   19.7270 O   0  0  0  0  0  0  0  0  0  0  0  0
    6.3400   -3.3600   19.9320 C   0  0  0  0  0  0  0  0  0  0  0  0
   10.1430   -2.0190   22.8330 C   0  0  2  0  0  0  0  0  0  0  0  0
   12.3200   -1.6590   23.5810 N   0  0  0  0  0  0  0  0  0  0  0  0
   11.1440   -2.5420   23.4530 C   0  0  1  0  0  0  0  0  0  0  0  0
   10.2960   -2.4720   24.3920 C   0  0  1  0  0  0  0  0  0  0  0  0
   10.1330   -1.3840   25.2860 N   0  0  0  0  0  0  0  0  0  0  0  0
   11.1040   -0.3210   25.0590 C   0  0  0  0  0  0  0  0  0  0  0  0
   11.8380   -0.3210   23.9250 C   0  0  0  0  0  0  0  0  0  0  0  0
    7.7020    1.6820   28.4480 C   0  0  0  0  0  0  0  0  0  0  0  0
    7.3040    2.7560   29.2350 C   0  0  0  0  0  0  0  0  0  0  0  0
    6.0890    2.7000   30.0740 C   0  0  0  0  0  0  0  0  0  0  0  0
    5.3760    1.4160   29.9770 C   0  0  0  0  0  0  0  0  0  0  0  0
    5.8230    0.3690   29.1700 C   0  0  0  0  0  0  0  0  0  0  0  0
    6.9810    0.5010   28.4080 C   0  0  0  0  0  0  0  0  0  0  0  0
    6.5480   -2.8180   21.1820 N   0  0  0  0  0  0  0  0  0  0  0  0
    7.0360   -1.4680   21.3830 C   0  0  0  0  0  0  0  0  0  0  0  0
    8.3910   -1.4230   21.4630 C   0  0  0  0  0  0  0  0  0  0  0  0
    9.0440   -2.6000   22.0670 N   0  0  0  0  0  0  0  0  0  0  0  0
    8.1510   -3.4920   22.8390 C   0  0  0  0  0  0  0  0  0  0  0  0
    6.9340   -3.7100   22.2200 C   0  0  0  0  0  0  0  0  0  0  0  0
  2  4  2  0
  3  5  1  0
  4  5  1  0
  7  9  1  0
  8  9  2  0
  1 11  1  0
 10 12  1  0
 12 11  1  1
 10 13  1  0
 12 13  1  0
  4 14  1  0
 13 14  1  1
 14 15  1  0
 11 16  1  0
 15 16  1  0
 17 18  2  0
  6 19  1  0
 18 19  1  0
 19 20  2  0
 20 21  1  0
  3 22  1  0
 17 22  1  0
 21 22  2  0
  9 23  1  0
 23 24  1  0
 24 25  1  0
 10 26  1  6
 25 26  1  0
 26 27  1  0
 23 28  1  0
 27 28  1  0
M  END
