x2776-x0769
     RDKit          3D

 51 57  0  0  0  0  0  0  0  0999 V2000
    6.8190   -1.4930   21.9190 N   0  0  0  0  0  0  0  0  0  0  0  0
    6.6500   -4.5790   20.2470 C   0  0  2  0  0  0  0  0  0  0  0  0
    4.7390   -2.9200   21.2460 O   0  0  0  0  0  0  0  0  0  0  0  0
    6.7980   -3.8690   21.4700 C   0  0  2  0  0  0  0  0  0  0  0  0
    7.6180    1.8710   22.8160 N   0  0  0  0  0  0  0  0  0  0  0  0
    8.9410    0.5960   21.4200 O   0  0  0  0  0  0  0  0  0  0  0  0
    5.9890   -2.6870   21.5360 C   0  0  0  0  0  0  0  0  0  0  0  0
   10.6890    6.5440   23.8160 O   0  0  0  0  0  0  0  0  0  0  0  0
    6.6040   -0.0360   21.5650 C   0  0  1  0  0  0  0  0  0  0  0  0
   12.3480   -2.9010   24.8470 O   0  0  0  0  0  0  0  0  0  0  0  0
    7.8380    0.8080   21.9150 C   0  0  0  0  0  0  0  0  0  0  0  0
   10.3910    1.6160   23.9000 C   0  0  0  0  0  0  0  0  0  0  0  0
   11.7820    6.5110   24.7370 C   0  0  0  0  0  0  0  0  0  0  0  0
   12.0190   -1.5680   24.4760 C   0  0  1  0  0  0  0  0  0  0  0  0
   12.9710   -1.0430   23.6340 C   0  0  0  0  0  0  0  0  0  0  0  0
   13.6260   -2.9730   25.4180 C   0  0  0  0  0  0  0  0  0  0  0  0
    5.4160   -4.3790   19.5800 O   0  0  0  0  0  0  0  0  0  0  0  0
    5.8120   -5.0670   26.7690 O   0  0  0  0  0  0  0  0  0  0  0  0
    4.0120   -6.4970   25.7880 O   0  0  0  0  0  0  0  0  0  0  0  0
    5.5740   -2.3090   26.2620 F   0  0  0  0  0  0  0  0  0  0  0  0
    4.8300   -5.3050   25.7420 S   0  0  0  0  0  0  0  0  0  0  0  0
    6.3430    0.5210   17.7310 N   0  0  0  0  0  0  0  0  0  0  0  0
    5.2410    1.2810   17.7390 C   0  0  0  0  0  0  0  0  0  0  0  0
    4.4930    1.6630   18.8450 C   0  0  0  0  0  0  0  0  0  0  0  0
    4.9350    1.2240   20.0770 C   0  0  0  0  0  0  0  0  0  0  0  0
    6.1390    0.3900   20.2060 C   0  0  0  0  0  0  0  0  0  0  0  0
    6.7780    0.0860   18.9250 C   0  0  0  0  0  0  0  0  0  0  0  0
    9.7340    2.9290   23.5830 C   0  0  0  0  0  0  0  0  0  0  0  0
   10.4740    4.0810   23.8200 C   0  0  0  0  0  0  0  0  0  0  0  0
   10.0100    5.3650   23.5900 C   0  0  0  0  0  0  0  0  0  0  0  0
    8.7420    5.4780   23.0840 C   0  0  0  0  0  0  0  0  0  0  0  0
    7.9410    4.3440   22.8170 C   0  0  0  0  0  0  0  0  0  0  0  0
    8.4190    3.0460   23.0650 C   0  0  0  0  0  0  0  0  0  0  0  0
    9.2790   -1.9640   21.8180 C   0  0  0  0  0  0  0  0  0  0  0  0
   10.5390   -1.9750   22.4420 C   0  0  0  0  0  0  0  0  0  0  0  0
   10.6780   -1.5910   23.7800 C   0  0  0  0  0  0  0  0  0  0  0  0
    9.5410   -1.2120   24.4830 C   0  0  0  0  0  0  0  0  0  0  0  0
    8.2880   -1.2010   23.8660 C   0  0  0  0  0  0  0  0  0  0  0  0
    8.1380   -1.5670   22.5280 C   0  0  0  0  0  0  0  0  0  0  0  0
    4.2590   -2.4860   26.0990 C   0  0  0  0  0  0  0  0  0  0  0  0
    3.7270   -3.9000   25.8360 C   0  0  0  0  0  0  0  0  0  0  0  0
    2.2060   -4.0270   25.6610 C   0  0  0  0  0  0  0  0  0  0  0  0
    1.4250   -2.8880   25.7500 C   0  0  0  0  0  0  0  0  0  0  0  0
    2.0220   -1.5090   26.0140 C   0  0  0  0  0  0  0  0  0  0  0  0
    3.4090   -1.3710   26.1740 C   0  0  0  0  0  0  0  0  0  0  0  0
    6.6210   -5.3570   21.6070 C   0  0  1  0  0  0  0  0  0  0  0  0
    5.5560   -6.1740   22.0780 C   0  0  0  0  0  0  0  0  0  0  0  0
    4.7640   -5.5790   23.0090 C   0  0  0  0  0  0  0  0  0  0  0  0
    5.5740   -5.2900   24.2210 N   0  0  0  0  0  0  0  0  0  0  0  0
    6.8850   -4.6100   24.0330 C   0  0  0  0  0  0  0  0  0  0  0  0
    7.3910   -4.6190   22.5860 C   0  0  2  0  0  0  0  0  0  0  0  0
  2  4  1  0
  1  7  1  0
  3  7  2  0
  4  7  1  1
  1  9  1  0
  5 11  1  0
  6 11  2  0
  9 11  1  6
  8 13  1  0
 10 14  1  0
 14 15  1  6
 10 16  1  0
  2 17  1  1
 18 21  2  0
 19 21  2  0
 22 23  2  0
 23 24  1  0
 24 25  2  0
  9 26  1  0
 25 26  1  0
 22 27  1  0
 26 27  2  0
 12 28  1  0
 28 29  2  0
  8 30  1  0
 29 30  1  0
 30 31  2  0
 31 32  1  0
  5 33  1  0
 28 33  1  0
 32 33  2  0
 34 35  2  0
 14 36  1  0
 35 36  1  0
 36 37  2  0
 37 38  1  0
  1 39  1  0
 34 39  1  0
 38 39  2  0
 20 40  1  0
 21 41  1  0
 40 41  2  0
 41 42  1  0
 42 43  2  0
 43 44  1  0
 40 45  1  0
 44 45  2  0
  2 46  1  0
  4 46  1  0
 46 47  1  1
 47 48  1  0
 21 49  1  0
 48 49  1  0
 49 50  1  0
  4 51  1  0
 46 51  1  0
 51 50  1  1
M  END
