x2779-x0831
     RDKit          3D

 18 19  0  0  0  0  0  0  0  0999 V2000
   12.8070   -2.0970   22.1730 C   0  0  0  0  0  0  0  0  0  0  0  0
    5.3150   -4.2550   19.7690 O   0  0  0  0  0  0  0  0  0  0  0  0
    9.9480   -2.2420   23.5400 C   0  0  0  0  0  0  0  0  0  0  0  0
    6.2420   -3.4310   19.9770 C   0  0  0  0  0  0  0  0  0  0  0  0
    7.1820   -3.0530   18.8950 C   0  0  0  0  0  0  0  0  0  0  0  0
   12.1620   -0.9280   22.8570 C   0  0  0  0  0  0  0  0  0  0  0  0
   10.7930   -1.0000   23.5140 C   0  0  0  0  0  0  0  0  0  0  0  0
   10.2270    0.2430   24.1740 C   0  0  0  0  0  0  0  0  0  0  0  0
   11.0410    1.3730   24.1010 C   0  0  0  0  0  0  0  0  0  0  0  0
   12.2810    1.4090   23.4950 C   0  0  0  0  0  0  0  0  0  0  0  0
   12.8340    0.2880   22.8910 C   0  0  0  0  0  0  0  0  0  0  0  0
    6.4120   -2.9070   21.2770 N   0  0  0  0  0  0  0  0  0  0  0  0
    6.3130   -1.4590   21.4690 C   0  0  0  0  0  0  0  0  0  0  0  0
    7.5340   -0.7860   21.2530 C   0  0  0  0  0  0  0  0  0  0  0  0
    8.6180   -1.5520   21.6670 C   0  0  0  0  0  0  0  0  0  0  0  0
    8.5830   -1.9390   23.0850 N   0  0  0  0  0  0  0  0  0  0  0  0
    7.6370   -3.0010   23.4660 C   0  0  0  0  0  0  0  0  0  0  0  0
    6.9530   -3.7210   22.3840 C   0  0  0  0  0  0  0  0  0  0  0  0
  2  4  2  0
  4  5  1  0
  1  6  1  0
  3  7  1  0
  6  7  2  0
  7  8  1  0
  8  9  2  0
  9 10  1  0
  6 11  1  0
 10 11  2  0
  4 12  1  0
 12 13  1  0
 13 14  1  0
 14 15  1  0
  3 16  1  0
 15 16  1  0
 16 17  1  0
 12 18  1  0
 17 18  1  0
M  END
