x2776-x0991
     RDKit          3D

 40 42  0  0  0  0  0  0  0  0999 V2000
    6.9290   -1.5770   21.7440 N   0  0  0  0  0  0  0  0  0  0  0  0
    6.7630   -4.9370   20.4520 C   0  0  0  0  0  0  0  0  0  0  0  0
    4.8250   -2.9760   21.1350 O   0  0  0  0  0  0  0  0  0  0  0  0
    6.7650   -4.0850   21.6830 C   0  0  2  0  0  0  0  0  0  0  0  0
    7.6720    1.9420   22.4630 N   0  0  0  0  0  0  0  0  0  0  0  0
    8.9770    0.3690   21.4230 O   0  0  0  0  0  0  0  0  0  0  0  0
    6.0810   -2.7940   21.5000 C   0  0  0  0  0  0  0  0  0  0  0  0
   10.6120    6.5940   23.9360 O   0  0  0  0  0  0  0  0  0  0  0  0
    6.6150   -0.1160   21.5040 C   0  0  1  0  0  0  0  0  0  0  0  0
   12.7790   -2.9130   24.3520 O   0  0  0  0  0  0  0  0  0  0  0  0
    7.8610    0.7190   21.7910 C   0  0  0  0  0  0  0  0  0  0  0  0
   10.7030    1.7560   23.8100 C   0  0  0  0  0  0  0  0  0  0  0  0
   11.7610    6.4580   24.7780 C   0  0  0  0  0  0  0  0  0  0  0  0
   12.2460   -1.5870   24.3180 C   0  0  1  0  0  0  0  0  0  0  0  0
   13.0110   -0.8440   23.4550 C   0  0  0  0  0  0  0  0  0  0  0  0
   13.2060   -3.3110   25.6400 C   0  0  0  0  0  0  0  0  0  0  0  0
   10.1210   -5.4140   25.4360 N   0  0  0  0  0  0  0  0  0  0  0  0
    8.1900   -3.8910   23.8710 C   0  0  0  0  0  0  0  0  0  0  0  0
    7.9630   -5.1690   24.4110 C   0  0  0  0  0  0  0  0  0  0  0  0
    8.1890   -5.7820   26.7680 N   0  0  0  0  0  0  0  0  0  0  0  0
    8.7840   -5.4460   25.5020 C   0  0  0  0  0  0  0  0  0  0  0  0
    8.1450   -4.0710   22.3530 C   0  0  0  0  0  0  0  0  0  0  0  0
    6.3190    0.5450   17.7160 N   0  0  0  0  0  0  0  0  0  0  0  0
    5.2080    1.2950   17.7450 C   0  0  0  0  0  0  0  0  0  0  0  0
    4.5130    1.5980   18.9000 C   0  0  0  0  0  0  0  0  0  0  0  0
    4.9700    1.1230   20.1200 C   0  0  0  0  0  0  0  0  0  0  0  0
    6.1290    0.3450   20.1580 C   0  0  0  0  0  0  0  0  0  0  0  0
    6.7800    0.0560   19.0020 C   0  0  0  0  0  0  0  0  0  0  0  0
    9.9770    3.0490   23.5270 C   0  0  0  0  0  0  0  0  0  0  0  0
   10.5990    4.2580   23.8400 C   0  0  0  0  0  0  0  0  0  0  0  0
    9.9270    5.4590   23.5860 C   0  0  0  0  0  0  0  0  0  0  0  0
    8.6510    5.4960   23.0160 C   0  0  0  0  0  0  0  0  0  0  0  0
    8.0140    4.2840   22.6900 C   0  0  0  0  0  0  0  0  0  0  0  0
    8.7000    3.0950   22.9600 C   0  0  0  0  0  0  0  0  0  0  0  0
    9.4290   -2.0290   21.8090 C   0  0  0  0  0  0  0  0  0  0  0  0
   10.6830   -2.0140   22.4490 C   0  0  0  0  0  0  0  0  0  0  0  0
   10.8450   -1.5770   23.7660 C   0  0  0  0  0  0  0  0  0  0  0  0
    9.6240   -1.1170   24.5360 C   0  0  0  0  0  0  0  0  0  0  0  0
    8.3070   -1.1680   23.7540 C   0  0  0  0  0  0  0  0  0  0  0  0
    8.2460   -1.6080   22.4300 C   0  0  0  0  0  0  0  0  0  0  0  0
  4  2  1  6
  1  7  1  0
  3  7  2  0
  4  7  1  0
  1  9  1  0
  5 11  1  0
  6 11  2  0
  9 11  1  6
  8 13  1  0
 10 14  1  0
 14 15  1  6
 10 16  1  0
 18 19  1  0
 17 21  2  3
 19 21  1  0
 20 21  1  0
  4 22  1  0
 18 22  1  0
 23 24  2  0
 24 25  1  0
 25 26  2  0
  9 27  1  0
 26 27  1  0
 23 28  1  0
 27 28  2  0
 12 29  1  0
 29 30  2  0
  8 31  1  0
 30 31  1  0
 31 32  2  0
 32 33  1  0
  5 34  1  0
 29 34  1  0
 33 34  2  0
 35 36  2  0
 14 37  1  0
 36 37  1  0
 37 38  2  0
 38 39  1  0
  1 40  1  0
 35 40  1  0
 39 40  2  0
M  END
