x2776-x0995
     RDKit          3D

 35 37  0  0  0  0  0  0  0  0999 V2000
    6.7280   -1.4510   21.8520 N   0  0  0  0  0  0  0  0  0  0  0  0
    7.6580   -3.8890   20.2450 C   0  0  0  0  0  0  0  0  0  0  0  0
    4.7590   -3.0700   21.4970 O   0  0  0  0  0  0  0  0  0  0  0  0
    6.4510   -3.0040   19.9230 C   0  0  0  0  0  0  0  0  0  0  0  0
    8.0420    1.5750   23.0720 N   0  0  0  0  0  0  0  0  0  0  0  0
    8.3470    1.1670   21.2330 O   0  0  0  0  0  0  0  0  0  0  0  0
    5.8980   -2.4930   21.1830 C   0  0  0  0  0  0  0  0  0  0  0  0
   10.6870    6.5830   23.6710 O   0  0  0  0  0  0  0  0  0  0  0  0
    6.5450   -0.0640   21.5960 C   0  0  1  0  0  0  0  0  0  0  0  0
   12.3850   -2.9150   24.8390 O   0  0  0  0  0  0  0  0  0  0  0  0
    7.5910    0.9320   22.1920 C   0  0  0  0  0  0  0  0  0  0  0  0
   10.7600    1.6220   23.8640 C   0  0  0  0  0  0  0  0  0  0  0  0
   11.7520    6.6450   24.6240 C   0  0  0  0  0  0  0  0  0  0  0  0
   12.0220   -1.5970   24.4440 C   0  0  1  0  0  0  0  0  0  0  0  0
   12.9890   -1.0890   23.5760 C   0  0  0  0  0  0  0  0  0  0  0  0
   13.6540   -2.9400   25.4440 C   0  0  0  0  0  0  0  0  0  0  0  0
    3.3480    2.3130   18.8620 N   0  0  0  0  0  0  0  0  0  0  0  0
    6.3920    0.4850   17.8420 N   0  0  0  0  0  0  0  0  0  0  0  0
    5.2590    1.2250   17.8070 C   0  0  0  0  0  0  0  0  0  0  0  0
    4.5080    1.5580   18.9310 C   0  0  0  0  0  0  0  0  0  0  0  0
    4.9370    1.1210   20.1580 C   0  0  0  0  0  0  0  0  0  0  0  0
    6.0920    0.3720   20.2350 C   0  0  0  0  0  0  0  0  0  0  0  0
    6.7830    0.0720   19.0670 C   0  0  0  0  0  0  0  0  0  0  0  0
   10.0040    2.8890   23.5810 C   0  0  0  0  0  0  0  0  0  0  0  0
   10.6450    4.1110   23.7290 C   0  0  0  0  0  0  0  0  0  0  0  0
   10.0750    5.3610   23.5130 C   0  0  0  0  0  0  0  0  0  0  0  0
    8.7370    5.3440   23.0940 C   0  0  0  0  0  0  0  0  0  0  0  0
    8.0390    4.1240   22.9260 C   0  0  0  0  0  0  0  0  0  0  0  0
    8.6580    2.8710   23.1750 C   0  0  0  0  0  0  0  0  0  0  0  0
    9.2210   -1.9150   21.7970 C   0  0  0  0  0  0  0  0  0  0  0  0
   10.4960   -1.9430   22.4210 C   0  0  0  0  0  0  0  0  0  0  0  0
   10.6660   -1.5930   23.7720 C   0  0  0  0  0  0  0  0  0  0  0  0
    9.5610   -1.2240   24.5130 C   0  0  0  0  0  0  0  0  0  0  0  0
    8.1700   -1.1980   23.8270 C   0  0  0  0  0  0  0  0  0  0  0  0
    8.0480   -1.5400   22.4760 C   0  0  0  0  0  0  0  0  0  0  0  0
  2  4  1  0
  1  7  1  0
  3  7  2  0
  4  7  1  0
  1  9  1  0
  5 11  1  0
  6 11  2  0
  9 11  1  6
  8 13  1  0
 10 14  1  0
 14 15  1  6
 10 16  1  0
 18 19  2  0
 17 20  1  0
 19 20  1  0
 20 21  2  0
  9 22  1  0
 21 22  1  0
 18 23  1  0
 22 23  2  0
 12 24  1  0
 24 25  2  0
  8 26  1  0
 25 26  1  0
 26 27  2  0
 27 28  1  0
  5 29  1  0
 24 29  1  0
 28 29  2  0
 30 31  2  0
 14 32  1  0
 31 32  1  0
 32 33  2  0
 33 34  1  0
  1 35  1  0
 30 35  1  0
 34 35  2  0
M  END
