x2776-x3113
     RDKit          3D

 37 41  0  0  0  0  0  0  0  0999 V2000
    6.8960   -1.5830   21.9800 N   0  0  0  0  0  0  0  0  0  0  0  0
    8.1570   -3.6950   20.3970 C   0  0  0  0  0  0  0  0  0  0  0  0
    4.7480   -3.0170   21.4510 O   0  0  0  0  0  0  0  0  0  0  0  0
    6.6970   -3.7520   20.5760 C   0  0  0  0  0  0  0  0  0  0  0  0
    8.4600    1.4360   23.2690 C   0  0  1  0  0  0  0  0  0  0  0  0
    8.4790    1.3550   20.8890 O   0  0  0  0  0  0  0  0  0  0  0  0
    6.0370   -2.7200   21.3870 C   0  0  0  0  0  0  0  0  0  0  0  0
   12.0530    4.3260   23.1110 O   0  0  0  0  0  0  0  0  0  0  0  0
    6.6940   -0.1400   21.6890 C   0  0  1  0  0  0  0  0  0  0  0  0
    7.9160    0.9020   21.9010 C   0  0  0  0  0  0  0  0  0  0  0  0
   10.8380    1.8470   23.7030 C   0  0  0  0  0  0  0  0  0  0  0  0
   11.6950    2.9850   23.4460 C   0  0  0  0  0  0  0  0  0  0  0  0
   13.2180    4.4580   22.7490 C   0  0  0  0  0  0  0  0  0  0  0  0
   12.4020   -1.9150   24.1560 C   0  0  0  0  0  0  0  0  0  0  0  0
   13.3240   -1.9720   23.1770 C   0  0  0  0  0  0  0  0  0  0  0  0
   12.7480   -3.0850   25.0620 C   0  0  0  0  0  0  0  0  0  0  0  0
   12.6060   -0.6170   24.9160 C   0  0  0  0  0  0  0  0  0  0  0  0
   10.7030    6.0400   23.2010 O   0  0  0  0  0  0  0  0  0  0  0  0
   11.3630    6.2720   24.4620 C   0  0  0  0  0  0  0  0  0  0  0  0
    6.3690    0.2200   17.8930 N   0  0  0  0  0  0  0  0  0  0  0  0
    5.2040    1.0690   17.8710 C   0  0  0  0  0  0  0  0  0  0  0  0
    4.5790    1.4590   19.0310 C   0  0  0  0  0  0  0  0  0  0  0  0
    5.0840    1.0370   20.2510 C   0  0  0  0  0  0  0  0  0  0  0  0
    6.2230    0.2160   20.3120 C   0  0  0  0  0  0  0  0  0  0  0  0
    6.8790   -0.2130   19.1880 C   0  0  0  0  0  0  0  0  0  0  0  0
    9.3880   -2.0380   21.7780 C   0  0  0  0  0  0  0  0  0  0  0  0
   10.6770   -2.1240   22.2350 C   0  0  0  0  0  0  0  0  0  0  0  0
   11.0230   -1.8910   23.5460 C   0  0  0  0  0  0  0  0  0  0  0  0
    9.9370   -1.5760   24.3810 C   0  0  0  0  0  0  0  0  0  0  0  0
    8.5940   -1.4900   23.9000 C   0  0  0  0  0  0  0  0  0  0  0  0
    8.2830   -1.7150   22.5400 C   0  0  0  0  0  0  0  0  0  0  0  0
    9.6660    2.3960   23.4260 C   0  0  1  0  0  0  0  0  0  0  0  0
   10.3090    3.6120   23.3270 C   0  0  0  0  0  0  0  0  0  0  0  0
    9.7640    4.9220   23.2080 C   0  0  0  0  0  0  0  0  0  0  0  0
    8.2880    5.1910   23.1050 C   0  0  0  0  0  0  0  0  0  0  0  0
    7.7090    3.7860   23.0570 C   0  0  0  0  0  0  0  0  0  0  0  0
    8.3360    2.7950   23.8250 C   0  0  1  0  0  0  0  0  0  0  0  0
  2  4  1  0
  1  7  1  0
  3  7  2  0
  4  7  1  0
  1  9  1  0
  5 10  1  6
  6 10  2  0
  9 10  1  6
  8 12  1  0
 11 12  2  0
  8 13  1  0
 14 15  1  0
 14 16  1  0
 14 17  1  0
 18 19  1  0
 20 21  2  0
 21 22  1  0
 22 23  2  0
  9 24  1  0
 23 24  1  0
 20 25  1  0
 24 25  2  0
 26 27  2  0
 14 28  1  0
 27 28  1  0
 28 29  2  0
 29 30  1  0
  1 31  1  0
 26 31  1  0
 30 31  2  0
  5 32  1  0
 32 11  1  1
 12 33  1  0
 32 33  1  0
 18 34  1  0
 33 34  2  0
 34 35  1  0
 35 36  1  0
  5 37  1  0
 32 37  1  0
 37 36  1  6
M  END
