x2779-x1418
     RDKit          3D

 15 16  0  0  0  0  0  0  0  0999 V2000
    7.3330   -2.9800   18.7400 C   0  0  0  0  0  0  0  0  0  0  0  0
    5.4650   -4.1000   19.7360 O   0  0  0  0  0  0  0  0  0  0  0  0
    6.4000   -3.2520   19.8560 C   0  0  0  0  0  0  0  0  0  0  0  0
   10.1220   -2.6010   23.4540 C   0  0  0  0  0  0  0  0  0  0  0  0
    6.5940   -2.5590   21.0810 N   0  0  0  0  0  0  0  0  0  0  0  0
    7.5130   -1.4010   21.0340 C   0  0  0  0  0  0  0  0  0  0  0  0
    8.8200   -1.7680   21.6310 C   0  0  0  0  0  0  0  0  0  0  0  0
    8.7650   -2.2340   23.0270 N   0  0  0  0  0  0  0  0  0  0  0  0
    7.8590   -3.4030   23.0910 C   0  0  0  0  0  0  0  0  0  0  0  0
    6.5100   -3.2160   22.3870 C   0  0  0  0  0  0  0  0  0  0  0  0
   12.4470   -1.5460   23.0730 C   0  0  0  0  0  0  0  0  0  0  0  0
   11.0950   -1.4910   23.2630 C   0  0  0  0  0  0  0  0  0  0  0  0
   10.5400    0.1140   23.2560 S   0  0  0  0  0  0  0  0  0  0  0  0
   12.1110    0.7250   23.0070 C   0  0  0  0  0  0  0  0  0  0  0  0
   13.0230   -0.2560   22.9250 C   0  0  0  0  0  0  0  0  0  0  0  0
  1  3  1  0
  2  3  2  0
  3  5  1  0
  5  6  1  0
  6  7  1  0
  4  8  1  0
  7  8  1  0
  8  9  1  0
  5 10  1  0
  9 10  1  0
  4 12  1  0
 11 12  2  0
 12 13  1  0
 13 14  1  0
 11 15  1  0
 14 15  2  0
M  END
