x2776-x0820
     RDKit          3D

 46 51  0  0  0  0  0  0  0  0999 V2000
    7.0360   -1.4920   21.9280 C   0  0  1  0  0  0  0  0  0  0  0  0
    7.0470   -4.5270   20.6050 C   0  0  0  0  0  0  0  0  0  0  0  0
    5.1020   -3.3530   20.8030 O   0  0  0  0  0  0  0  0  0  0  0  0
    7.0300   -3.2160   21.3120 C   0  0  1  0  0  0  0  0  0  0  0  0
    7.6600    1.8810   22.6710 N   0  0  0  0  0  0  0  0  0  0  0  0
    9.3640    0.5190   21.4640 O   0  0  0  0  0  0  0  0  0  0  0  0
    5.8090   -2.4320   21.2990 C   0  0  0  0  0  0  0  0  0  0  0  0
   10.5820    6.5200   23.9250 O   0  0  0  0  0  0  0  0  0  0  0  0
    6.8560    0.0410   21.9140 C   0  0  1  0  0  0  0  0  0  0  0  0
   13.0760   -2.7000   24.2570 O   0  0  0  0  0  0  0  0  0  0  0  0
    8.2560    0.7850   21.9210 C   0  0  0  0  0  0  0  0  0  0  0  0
   10.4020    1.7640   23.9120 C   0  0  0  0  0  0  0  0  0  0  0  0
   11.7730    6.3750   24.7230 C   0  0  0  0  0  0  0  0  0  0  0  0
   12.4900   -1.4050   24.1660 C   0  0  1  0  0  0  0  0  0  0  0  0
   13.1910   -0.7110   23.2020 C   0  0  0  0  0  0  0  0  0  0  0  0
   13.7470   -2.8600   25.4860 C   0  0  0  0  0  0  0  0  0  0  0  0
    5.7670   -4.9940   20.1400 O   0  0  0  0  0  0  0  0  0  0  0  0
    6.9400   -2.8510   22.7880 C   0  0  2  0  0  0  0  0  0  0  0  0
    6.4500    0.3490   18.0130 N   0  0  0  0  0  0  0  0  0  0  0  0
    5.2190    1.1690   17.8930 C   0  0  0  0  0  0  0  0  0  0  0  0
    4.5230    1.6020   19.1190 C   0  0  0  0  0  0  0  0  0  0  0  0
    5.0720    1.2150   20.4360 C   0  0  0  0  0  0  0  0  0  0  0  0
    6.2310    0.4500   20.5610 C   0  0  0  0  0  0  0  0  0  0  0  0
    6.8570    0.0540   19.3780 C   0  0  0  0  0  0  0  0  0  0  0  0
    9.7020    3.0550   23.5740 C   0  0  0  0  0  0  0  0  0  0  0  0
   10.3950    4.2150   23.8660 C   0  0  0  0  0  0  0  0  0  0  0  0
    9.8470    5.4530   23.6060 C   0  0  0  0  0  0  0  0  0  0  0  0
    8.5940    5.5430   23.0400 C   0  0  0  0  0  0  0  0  0  0  0  0
    7.8840    4.3690   22.7350 C   0  0  0  0  0  0  0  0  0  0  0  0
    8.4090    3.0870   22.9910 C   0  0  0  0  0  0  0  0  0  0  0  0
    9.6600   -2.1850   21.7760 C   0  0  0  0  0  0  0  0  0  0  0  0
   10.9250   -2.1250   22.3590 C   0  0  0  0  0  0  0  0  0  0  0  0
   11.1290   -1.4720   23.5750 C   0  0  0  0  0  0  0  0  0  0  0  0
   10.0970   -0.8670   24.2570 C   0  0  0  0  0  0  0  0  0  0  0  0
    8.8300   -0.8880   23.7430 C   0  0  0  0  0  0  0  0  0  0  0  0
    8.5790   -1.5770   22.4210 C   0  0  0  0  0  0  0  0  0  0  0  0
    6.0020   -3.3860   23.8650 C   0  0  0  0  0  0  0  0  0  0  0  0
    6.4640   -4.1470   24.9660 C   0  0  0  0  0  0  0  0  0  0  0  0
    5.4640   -4.5720   26.0250 C   0  0  0  0  0  0  0  0  0  0  0  0
    4.1220   -4.2540   25.8910 C   0  0  0  0  0  0  0  0  0  0  0  0
    3.6780   -3.5370   24.7860 C   0  0  0  0  0  0  0  0  0  0  0  0
    4.6340   -3.1120   23.7950 C   0  0  0  0  0  0  0  0  0  0  0  0
    5.7700   -5.3450   27.2780 C   0  0  0  0  0  0  0  0  0  0  0  0
    7.1600   -5.7740   27.5320 C   0  0  0  0  0  0  0  0  0  0  0  0
    8.1740   -5.3970   26.4770 C   0  0  0  0  0  0  0  0  0  0  0  0
    7.7780   -4.5770   25.2190 C   0  0  0  0  0  0  0  0  0  0  0  0
  4  2  1  1
  1  7  1  0
  3  7  2  0
  4  7  1  0
  1  9  1  0
  5 11  1  0
  6 11  2  0
  9 11  1  6
  8 13  1  0
 10 14  1  0
 14 15  1  6
 10 16  1  0
  2 17  2  0
  1 18  1  0
  4 18  1  0
 19 20  2  0
 20 21  1  0
 21 22  2  0
  9 23  1  0
 22 23  1  0
 19 24  1  0
 23 24  2  0
 12 25  1  0
 25 26  2  0
  8 27  1  0
 26 27  1  0
 27 28  2  0
 28 29  1  0
  5 30  1  0
 25 30  1  0
 29 30  2  0
 31 32  2  0
 14 33  1  0
 32 33  1  0
 33 34  2  0
 34 35  1  0
  1 36  1  6
 31 36  1  0
 35 36  2  0
 18 37  1  6
 37 38  2  0
 38 39  1  0
 39 40  2  0
 40 41  1  0
 37 42  1  0
 41 42  2  0
 39 43  1  0
 43 44  2  0
 44 45  1  0
 38 46  1  0
 45 46  2  0
M  END
