x2779-x0736
     RDKit          3D

 22 24  0  0  0  0  0  0  0  0999 V2000
    7.3400   -2.9890   18.8950 C   0  0  0  0  0  0  0  0  0  0  0  0
    5.4200   -4.1020   19.7280 O   0  0  0  0  0  0  0  0  0  0  0  0
    6.4350   -3.4020   19.9990 C   0  0  0  0  0  0  0  0  0  0  0  0
    6.0170   -2.3900   24.7250 O   0  0  0  0  0  0  0  0  0  0  0  0
    7.2400   -2.3130   24.6190 C   0  0  0  0  0  0  0  0  0  0  0  0
    9.2730   -1.4050   23.6340 C   0  0  0  0  0  0  0  0  0  0  0  0
    6.7050   -3.1000   21.3660 N   0  0  0  0  0  0  0  0  0  0  0  0
    7.7330   -2.1860   21.7100 C   0  0  0  0  0  0  0  0  0  0  0  0
    8.6140   -2.5990   22.9310 C   0  0  2  0  0  0  0  0  0  0  0  0
    7.9460   -3.1560   23.7340 N   0  0  0  0  0  0  0  0  0  0  0  0
    7.2500   -4.3500   23.2640 C   0  0  0  0  0  0  0  0  0  0  0  0
    6.2120   -4.0160   22.4000 C   0  0  0  0  0  0  0  0  0  0  0  0
    8.3170    0.0290   25.1480 O   0  0  0  0  0  0  0  0  0  0  0  0
    8.0100   -1.2890   25.4670 C   0  0  0  0  0  0  0  0  0  0  0  0
    8.4990   -1.5880   26.7240 C   0  0  0  0  0  0  0  0  0  0  0  0
    9.0960   -0.5110   27.1880 C   0  0  0  0  0  0  0  0  0  0  0  0
    9.0010    0.5000   26.2460 C   0  0  0  0  0  0  0  0  0  0  0  0
   11.6370   -1.5130   22.3520 C   0  0  0  0  0  0  0  0  0  0  0  0
   10.6820   -0.9530   23.3080 C   0  0  0  0  0  0  0  0  0  0  0  0
   11.3570    0.3790   24.1130 S   0  0  0  0  0  0  0  0  0  0  0  0
   12.7900    0.1860   23.2200 C   0  0  0  0  0  0  0  0  0  0  0  0
   12.7600   -0.8880   22.3220 C   0  0  0  0  0  0  0  0  0  0  0  0
  1  3  1  0
  2  3  2  0
  4  5  2  0
  3  7  1  0
  7  8  1  0
  9  6  1  1
  8  9  1  0
  5 10  1  0
  9 10  1  0
 10 11  1  0
  7 12  1  0
 11 12  1  0
  5 14  1  0
 13 14  1  0
 14 15  2  0
 15 16  1  0
 13 17  1  0
 16 17  2  0
  6 19  1  0
 18 19  2  0
 19 20  1  0
 20 21  1  0
 18 22  1  0
 21 22  2  0
M  END
