x2776-x1308
     RDKit          3D

 51 57  0  0  0  0  0  0  0  0999 V2000
    6.7370   -1.4450   21.8820 N   0  0  0  0  0  0  0  0  0  0  0  0
    6.7440   -4.5210   20.3030 C   0  0  2  0  0  0  0  0  0  0  0  0
    4.7450   -2.9380   21.2600 O   0  0  0  0  0  0  0  0  0  0  0  0
    6.9380   -3.7550   21.5640 C   0  0  2  0  0  0  0  0  0  0  0  0
    7.6980    1.8740   22.9270 N   0  0  0  0  0  0  0  0  0  0  0  0
    8.9600    0.6170   21.4870 O   0  0  0  0  0  0  0  0  0  0  0  0
    5.9840   -2.6450   21.5550 C   0  0  0  0  0  0  0  0  0  0  0  0
   10.7270    6.5770   23.7460 O   0  0  0  0  0  0  0  0  0  0  0  0
    6.5430    0.0010   21.5580 C   0  0  1  0  0  0  0  0  0  0  0  0
   12.3620   -2.9220   24.8150 O   0  0  0  0  0  0  0  0  0  0  0  0
    7.8550    0.8440   21.9930 C   0  0  0  0  0  0  0  0  0  0  0  0
   10.4960    1.6410   23.8560 C   0  0  0  0  0  0  0  0  0  0  0  0
   11.7950    6.5680   24.6970 C   0  0  0  0  0  0  0  0  0  0  0  0
   11.9870   -1.5940   24.4630 C   0  0  1  0  0  0  0  0  0  0  0  0
   13.0260   -1.0760   23.4580 C   0  0  0  0  0  0  0  0  0  0  0  0
   13.6330   -2.9660   25.4140 C   0  0  0  0  0  0  0  0  0  0  0  0
    5.4940   -4.4210   19.6530 O   0  0  0  0  0  0  0  0  0  0  0  0
    0.6220   -1.2030   26.4590 Cl  0  0  0  0  0  0  0  0  0  0  0  0
    6.1540   -5.3590   26.9500 O   0  0  0  0  0  0  0  0  0  0  0  0
    4.4050   -7.0210   25.8910 O   0  0  0  0  0  0  0  0  0  0  0  0
    5.1090   -5.6030   25.7850 S   0  0  0  0  0  0  0  0  0  0  0  0
    6.2980    0.6470   17.7160 N   0  0  0  0  0  0  0  0  0  0  0  0
    5.2290    1.3600   17.6880 C   0  0  0  0  0  0  0  0  0  0  0  0
    4.4820    1.6860   18.7930 C   0  0  0  0  0  0  0  0  0  0  0  0
    4.9260    1.2050   20.1350 C   0  0  0  0  0  0  0  0  0  0  0  0
    6.0570    0.4600   20.2210 C   0  0  0  0  0  0  0  0  0  0  0  0
    6.7130    0.2030   18.9100 C   0  0  0  0  0  0  0  0  0  0  0  0
    9.8220    2.9610   23.5710 C   0  0  0  0  0  0  0  0  0  0  0  0
   10.5850    4.1230   23.7760 C   0  0  0  0  0  0  0  0  0  0  0  0
   10.0570    5.3930   23.5560 C   0  0  0  0  0  0  0  0  0  0  0  0
    8.7420    5.5090   23.1060 C   0  0  0  0  0  0  0  0  0  0  0  0
    7.9650    4.3580   22.8900 C   0  0  0  0  0  0  0  0  0  0  0  0
    8.4790    3.0690   23.1210 C   0  0  0  0  0  0  0  0  0  0  0  0
    9.2310   -1.9200   21.8500 C   0  0  0  0  0  0  0  0  0  0  0  0
   10.4940   -1.9550   22.4610 C   0  0  0  0  0  0  0  0  0  0  0  0
   10.6480   -1.5940   23.7630 C   0  0  0  0  0  0  0  0  0  0  0  0
    9.4590   -1.1750   24.5270 C   0  0  0  0  0  0  0  0  0  0  0  0
    8.1800   -1.1240   23.9750 C   0  0  0  0  0  0  0  0  0  0  0  0
    8.0580   -1.5200   22.5250 C   0  0  0  0  0  0  0  0  0  0  0  0
    6.7680   -5.3310   21.5380 C   0  0  2  0  0  0  0  0  0  0  0  0
    7.5550   -4.5890   22.6170 C   0  0  2  0  0  0  0  0  0  0  0  0
    7.0820   -4.7350   24.0600 C   0  0  0  0  0  0  0  0  0  0  0  0
    5.7670   -5.4100   24.2220 N   0  0  0  0  0  0  0  0  0  0  0  0
    4.9050   -5.5450   23.0160 C   0  0  0  0  0  0  0  0  0  0  0  0
    5.6600   -6.1740   22.0290 C   0  0  0  0  0  0  0  0  0  0  0  0
    4.2900   -3.0510   26.3460 C   0  0  0  0  0  0  0  0  0  0  0  0
    3.1990   -1.9860   26.5080 C   0  0  0  0  0  0  0  0  0  0  0  0
    1.8780   -2.3620   26.2710 C   0  0  0  0  0  0  0  0  0  0  0  0
    1.5550   -3.6670   25.8880 C   0  0  0  0  0  0  0  0  0  0  0  0
    2.5440   -4.6440   25.7370 C   0  0  0  0  0  0  0  0  0  0  0  0
    3.8900   -4.3340   25.9680 C   0  0  0  0  0  0  0  0  0  0  0  0
  2  4  1  0
  1  7  1  0
  3  7  2  0
  4  7  1  1
  1  9  1  0
  5 11  1  0
  6 11  2  0
  9 11  1  6
  8 13  1  0
 10 14  1  0
 14 15  1  6
 10 16  1  0
  2 17  1  1
 19 21  2  0
 20 21  2  0
 22 23  2  0
 23 24  1  0
 24 25  2  0
  9 26  1  0
 25 26  1  0
 22 27  1  0
 26 27  2  0
 12 28  1  0
 28 29  2  0
  8 30  1  0
 29 30  1  0
 30 31  2  0
 31 32  1  0
  5 33  1  0
 28 33  1  0
 32 33  2  0
 34 35  2  0
 14 36  1  0
 35 36  1  0
 36 37  2  0
 37 38  1  0
  1 39  1  0
 34 39  1  0
 38 39  2  0
  2 40  1  0
  4 40  1  0
  4 41  1  0
 40 41  1  0
 41 42  1  1
 21 43  1  0
 42 43  1  0
 43 44  1  0
 40 45  1  1
 44 45  1  0
 46 47  2  0
 18 48  1  0
 47 48  1  0
 48 49  2  0
 49 50  1  0
 21 51  1  0
 46 51  1  0
 50 51  2  0
M  END
