x2776-x0689
     RDKit          3D

 49 55  0  0  0  0  0  0  0  0999 V2000
    6.7820   -1.4550   21.9840 N   0  0  0  0  0  0  0  0  0  0  0  0
    6.7430   -4.5810   20.2600 C   0  0  2  0  0  0  0  0  0  0  0  0
    4.7530   -2.9400   21.2610 O   0  0  0  0  0  0  0  0  0  0  0  0
    6.9080   -3.7620   21.4510 C   0  0  2  0  0  0  0  0  0  0  0  0
    7.6350    1.8850   22.8300 N   0  0  0  0  0  0  0  0  0  0  0  0
    8.9310    0.6020   21.4130 O   0  0  0  0  0  0  0  0  0  0  0  0
    6.0030   -2.6540   21.5580 C   0  0  0  0  0  0  0  0  0  0  0  0
   10.6780    6.5600   23.7980 O   0  0  0  0  0  0  0  0  0  0  0  0
    6.5930   -0.0070   21.5880 C   0  0  1  0  0  0  0  0  0  0  0  0
   12.3530   -2.9000   24.8700 O   0  0  0  0  0  0  0  0  0  0  0  0
    7.8360    0.8240   21.9230 C   0  0  0  0  0  0  0  0  0  0  0  0
   10.4030    1.6330   23.8660 C   0  0  0  0  0  0  0  0  0  0  0  0
   11.7740    6.5330   24.7150 C   0  0  0  0  0  0  0  0  0  0  0  0
   12.0340   -1.5760   24.4610 C   0  0  1  0  0  0  0  0  0  0  0  0
   12.9920   -1.0560   23.6230 C   0  0  0  0  0  0  0  0  0  0  0  0
   13.6280   -2.9700   25.4430 C   0  0  0  0  0  0  0  0  0  0  0  0
    5.4800   -4.4750   19.6140 O   0  0  0  0  0  0  0  0  0  0  0  0
    3.8810   -6.3840   25.9220 O   0  0  0  0  0  0  0  0  0  0  0  0
    5.5620   -4.6600   26.6770 O   0  0  0  0  0  0  0  0  0  0  0  0
    4.6130   -5.1580   25.7030 S   0  0  0  0  0  0  0  0  0  0  0  0
    6.3230    0.5380   17.7670 N   0  0  0  0  0  0  0  0  0  0  0  0
    5.2140    1.2950   17.7500 C   0  0  0  0  0  0  0  0  0  0  0  0
    4.4650    1.6700   18.8690 C   0  0  0  0  0  0  0  0  0  0  0  0
    4.9240    1.2280   20.0960 C   0  0  0  0  0  0  0  0  0  0  0  0
    6.1310    0.4060   20.2250 C   0  0  0  0  0  0  0  0  0  0  0  0
    6.7650    0.1070   18.9520 C   0  0  0  0  0  0  0  0  0  0  0  0
    9.7530    2.9580   23.5680 C   0  0  0  0  0  0  0  0  0  0  0  0
   10.5320    4.0960   23.8140 C   0  0  0  0  0  0  0  0  0  0  0  0
   10.0150    5.3750   23.5810 C   0  0  0  0  0  0  0  0  0  0  0  0
    8.7410    5.4790   23.0970 C   0  0  0  0  0  0  0  0  0  0  0  0
    7.9510    4.3570   22.8400 C   0  0  0  0  0  0  0  0  0  0  0  0
    8.4270    3.0620   23.0710 C   0  0  0  0  0  0  0  0  0  0  0  0
    9.2480   -1.9280   21.8240 C   0  0  0  0  0  0  0  0  0  0  0  0
   10.5240   -1.9520   22.4310 C   0  0  0  0  0  0  0  0  0  0  0  0
   10.6890   -1.5890   23.7800 C   0  0  0  0  0  0  0  0  0  0  0  0
    9.5550   -1.2230   24.4890 C   0  0  0  0  0  0  0  0  0  0  0  0
    8.3050   -1.2010   23.8970 C   0  0  0  0  0  0  0  0  0  0  0  0
    8.1120   -1.5400   22.5610 C   0  0  0  0  0  0  0  0  0  0  0  0
    6.7660   -5.2310   21.6130 C   0  0  1  0  0  0  0  0  0  0  0  0
    5.5460   -6.0510   22.0080 C   0  0  0  0  0  0  0  0  0  0  0  0
    4.6180   -5.3250   22.9740 C   0  0  0  0  0  0  0  0  0  0  0  0
    5.3920   -5.2310   24.2090 N   0  0  0  0  0  0  0  0  0  0  0  0
    6.7080   -4.5620   24.0960 C   0  0  0  0  0  0  0  0  0  0  0  0
    7.4160   -4.6170   22.7240 C   0  0  2  0  0  0  0  0  0  0  0  0
    3.8550   -2.2800   26.0090 S   0  0  0  0  0  0  0  0  0  0  0  0
    3.3690   -3.8830   25.6570 C   0  0  0  0  0  0  0  0  0  0  0  0
    2.0160   -3.9500   25.3770 C   0  0  0  0  0  0  0  0  0  0  0  0
    1.3850   -2.6800   25.4590 C   0  0  0  0  0  0  0  0  0  0  0  0
    2.2810   -1.6990   25.7940 C   0  0  0  0  0  0  0  0  0  0  0  0
  2  4  1  0
  1  7  1  0
  3  7  2  0
  4  7  1  1
  1  9  1  0
  5 11  1  0
  6 11  2  0
  9 11  1  6
  8 13  1  0
 10 14  1  0
 14 15  1  6
 10 16  1  0
  2 17  1  1
 18 20  2  0
 19 20  2  0
 21 22  2  0
 22 23  1  0
 23 24  2  0
  9 25  1  0
 24 25  1  0
 21 26  1  0
 25 26  2  0
 12 27  1  0
 27 28  2  0
  8 29  1  0
 28 29  1  0
 29 30  2  0
 30 31  1  0
  5 32  1  0
 27 32  1  0
 31 32  2  0
 33 34  2  0
 14 35  1  0
 34 35  1  0
 35 36  2  0
 36 37  1  0
  1 38  1  0
 33 38  1  0
 37 38  2  0
  2 39  1  0
  4 39  1  0
 39 40  1  1
 40 41  1  0
 20 42  1  0
 41 42  1  0
 42 43  1  0
  4 44  1  0
 39 44  1  0
 44 43  1  1
 20 46  1  0
 45 46  1  0
 46 47  2  0
 47 48  1  0
 45 49  1  0
 48 49  2  0
M  END
