x2779-x0830
     RDKit          3D

 20 22  0  0  0  0  0  0  0  0999 V2000
    7.7220   -3.5980   19.5950 C   0  0  0  0  0  0  0  0  0  0  0  0
    5.4720   -3.1880   19.1360 O   0  0  0  0  0  0  0  0  0  0  0  0
    6.4910   -2.8950   19.8410 C   0  0  0  0  0  0  0  0  0  0  0  0
    9.8580   -2.4510   23.6460 C   0  0  0  0  0  0  0  0  0  0  0  0
    6.5200   -1.9850   20.9140 N   0  0  0  0  0  0  0  0  0  0  0  0
    6.3210   -2.6710   22.2160 C   0  0  0  0  0  0  0  0  0  0  0  0
    7.6210   -3.1210   22.8110 C   0  0  0  0  0  0  0  0  0  0  0  0
    8.6100   -2.0420   22.9750 N   0  0  0  0  0  0  0  0  0  0  0  0
    8.8720   -1.4810   21.6390 C   0  0  0  0  0  0  0  0  0  0  0  0
    7.5960   -0.9800   20.9560 C   0  0  0  0  0  0  0  0  0  0  0  0
   12.1600   -1.9320   22.7130 C   0  0  0  0  0  0  0  0  0  0  0  0
   13.1340   -1.0170   22.4480 C   0  0  0  0  0  0  0  0  0  0  0  0
   13.0000    0.3230   22.7710 C   0  0  0  0  0  0  0  0  0  0  0  0
   11.8590    0.7020   23.3630 C   0  0  0  0  0  0  0  0  0  0  0  0
   10.8270   -0.1840   23.6790 C   0  0  0  0  0  0  0  0  0  0  0  0
   10.9830   -1.5100   23.3390 C   0  0  0  0  0  0  0  0  0  0  0  0
   11.7000    2.0410   23.6650 C   0  0  0  0  0  0  0  0  0  0  0  0
   10.4750    2.5020   24.3080 C   0  0  0  0  0  0  0  0  0  0  0  0
    9.4850    1.5960   24.6290 C   0  0  0  0  0  0  0  0  0  0  0  0
    9.6540    0.2540   24.3160 C   0  0  0  0  0  0  0  0  0  0  0  0
  1  3  1  0
  2  3  2  0
  3  5  1  0
  5  6  1  0
  6  7  1  0
  4  8  1  0
  7  8  1  0
  8  9  1  0
  5 10  1  0
  9 10  1  0
 11 12  2  0
 12 13  1  0
 13 14  2  0
 14 15  1  0
  4 16  1  0
 11 16  1  0
 15 16  2  0
 14 17  1  0
 17 18  2  0
 18 19  1  0
 15 20  1  0
 19 20  2  0
M  END
