x2779-x0946
     RDKit          3D

 25 27  0  0  0  0  0  0  0  0999 V2000
    7.2710   -2.9410   18.7090 C   0  0  0  0  0  0  0  0  0  0  0  0
    5.4310   -4.0980   19.7200 O   0  0  0  0  0  0  0  0  0  0  0  0
    6.3990   -3.2970   19.8490 C   0  0  0  0  0  0  0  0  0  0  0  0
    9.9890   -3.1120   23.6240 C   0  0  0  0  0  0  0  0  0  0  0  0
    9.0790    5.4220   22.6830 N   0  0  0  0  0  0  0  0  0  0  0  0
    9.9730    5.7330   24.9830 O   0  0  0  0  0  0  0  0  0  0  0  0
   11.2480    6.6660   23.0130 O   0  0  0  0  0  0  0  0  0  0  0  0
   10.4450    5.6380   23.6190 S   0  0  0  0  0  0  0  0  0  0  0  0
    6.7130   -2.7390   21.0800 N   0  0  0  0  0  0  0  0  0  0  0  0
    7.5990   -1.5700   21.1440 C   0  0  0  0  0  0  0  0  0  0  0  0
    8.8550   -1.8320   21.8960 C   0  0  0  0  0  0  0  0  0  0  0  0
    8.9140   -3.1190   22.6290 N   0  0  0  0  0  0  0  0  0  0  0  0
    7.6650   -3.5010   23.2840 C   0  0  0  0  0  0  0  0  0  0  0  0
    6.4700   -3.4310   22.3400 C   0  0  0  0  0  0  0  0  0  0  0  0
   11.5360   -1.4640   22.4650 C   0  0  0  0  0  0  0  0  0  0  0  0
   10.8020   -1.9070   23.4520 C   0  0  0  0  0  0  0  0  0  0  0  0
   10.8760   -0.8080   24.6730 S   0  0  0  0  0  0  0  0  0  0  0  0
   11.8480    0.4430   23.9800 C   0  0  0  0  0  0  0  0  0  0  0  0
   12.0800   -0.2100   22.7720 C   0  0  0  0  0  0  0  0  0  0  0  0
   12.6530    1.3980   23.3080 C   0  0  0  0  0  0  0  0  0  0  0  0
   13.1030    2.6370   22.7700 C   0  0  0  0  0  0  0  0  0  0  0  0
   12.5330    3.9890   22.7780 C   0  0  0  0  0  0  0  0  0  0  0  0
   11.2810    4.1090   23.4410 C   0  0  0  0  0  0  0  0  0  0  0  0
   10.7530    3.0090   23.9470 C   0  0  0  0  0  0  0  0  0  0  0  0
   11.4090    1.8130   23.8650 C   0  0  0  0  0  0  0  0  0  0  0  0
  1  3  1  0
  2  3  2  0
  8  5  1  0
  6  8  2  0
  7  8  2  0
  3  9  1  0
  9 10  1  0
 10 11  1  0
  4 12  1  0
 11 12  1  0
 12 13  1  0
  9 14  1  0
 13 14  1  0
  4 16  1  0
 15 16  2  0
 16 17  1  0
 17 18  1  0
 15 19  1  0
 18 19  2  0
 18 20  1  0
 20 21  2  0
 21 22  1  0
  8 23  1  0
 22 23  2  0
 23 24  1  0
 20 25  1  0
 24 25  2  0
M  END
