x2776-x2643
     RDKit          3D

 34 36  0  0  0  0  0  0  0  0999 V2000
    6.9770   -1.6760   21.1620 N   0  0  0  0  0  0  0  0  0  0  0  0
    6.9030   -4.9910   20.5470 C   0  0  0  0  0  0  0  0  0  0  0  0
    4.8040   -2.9420   21.0420 O   0  0  0  0  0  0  0  0  0  0  0  0
    6.7030   -4.0600   21.6950 C   0  0  0  0  0  0  0  0  0  0  0  0
    7.7500    1.7660   22.8670 N   0  0  0  0  0  0  0  0  0  0  0  0
    8.3740    1.2390   20.7200 O   0  0  0  0  0  0  0  0  0  0  0  0
    6.0570   -2.8090   21.2910 C   0  0  0  0  0  0  0  0  0  0  0  0
   10.6320    6.5770   23.7810 O   0  0  0  0  0  0  0  0  0  0  0  0
    6.8140   -0.3100   21.7770 C   0  0  1  0  0  0  0  0  0  0  0  0
   12.2400   -2.8930   24.7350 O   0  0  0  0  0  0  0  0  0  0  0  0
    7.7210    0.9460   21.7170 C   0  0  0  0  0  0  0  0  0  0  0  0
   10.5330    1.6420   23.8440 C   0  0  0  0  0  0  0  0  0  0  0  0
   11.7520    6.5810   24.6710 C   0  0  0  0  0  0  0  0  0  0  0  0
   12.0280   -1.5250   24.4320 C   0  0  1  0  0  0  0  0  0  0  0  0
   13.0160   -1.1050   23.5780 C   0  0  0  0  0  0  0  0  0  0  0  0
   13.5230   -3.0280   25.3070 C   0  0  0  0  0  0  0  0  0  0  0  0
    6.4350    0.3890   17.8650 N   0  0  0  0  0  0  0  0  0  0  0  0
    5.3620    1.1850   17.9030 C   0  0  0  0  0  0  0  0  0  0  0  0
    4.7080    1.5430   19.0660 C   0  0  0  0  0  0  0  0  0  0  0  0
    5.1300    1.0940   20.3110 C   0  0  0  0  0  0  0  0  0  0  0  0
    6.3160    0.2040   20.4100 C   0  0  0  0  0  0  0  0  0  0  0  0
    6.8860   -0.0790   19.0660 C   0  0  0  0  0  0  0  0  0  0  0  0
    9.8300    2.9370   23.5620 C   0  0  0  0  0  0  0  0  0  0  0  0
   10.5770    4.1080   23.7960 C   0  0  0  0  0  0  0  0  0  0  0  0
   10.0040    5.3680   23.5730 C   0  0  0  0  0  0  0  0  0  0  0  0
    8.7170    5.4250   23.1140 C   0  0  0  0  0  0  0  0  0  0  0  0
    7.9860    4.2600   22.8790 C   0  0  0  0  0  0  0  0  0  0  0  0
    8.4930    2.9820   23.0910 C   0  0  0  0  0  0  0  0  0  0  0  0
    9.3110   -1.1430   21.7180 C   0  0  0  0  0  0  0  0  0  0  0  0
   10.5320   -1.4280   22.3500 C   0  0  0  0  0  0  0  0  0  0  0  0
   10.7040   -1.2850   23.7340 C   0  0  0  0  0  0  0  0  0  0  0  0
    9.6080   -0.8790   24.4960 C   0  0  0  0  0  0  0  0  0  0  0  0
    8.3880   -0.5970   23.8510 C   0  0  0  0  0  0  0  0  0  0  0  0
    8.2190   -0.7060   22.4620 C   0  0  0  0  0  0  0  0  0  0  0  0
  2  4  1  0
  1  7  1  0
  3  7  2  0
  4  7  1  0
  9  1  1  6
  5 11  1  0
  6 11  2  0
  9 11  1  0
  8 13  1  0
 10 14  1  0
 14 15  1  6
 10 16  1  0
 17 18  2  0
 18 19  1  0
 19 20  2  0
  9 21  1  0
 20 21  1  0
 17 22  1  0
 21 22  2  0
 12 23  1  0
 23 24  2  0
  8 25  1  0
 24 25  1  0
 25 26  2  0
 26 27  1  0
  5 28  1  0
 23 28  1  0
 27 28  2  0
 29 30  2  0
 14 31  1  0
 30 31  1  0
 31 32  2  0
 32 33  1  0
  9 34  1  0
 29 34  1  0
 33 34  2  0
M  END
