x2908-x1478
     RDKit          3D

 30 32  0  0  0  0  0  0  0  0999 V2000
    4.7920    1.3700   21.5180 C   0  0  0  0  0  0  0  0  0  0  0  0
    8.8410    1.5520   21.0620 O   0  0  0  0  0  0  0  0  0  0  0  0
   13.1940   -2.4060   21.3300 Cl  0  0  0  0  0  0  0  0  0  0  0  0
    7.2180   -0.4010   20.9670 N   0  0  0  0  0  0  0  0  0  0  0  0
    8.7470   -0.3550   22.6400 N   0  0  0  0  0  0  0  0  0  0  0  0
    8.2810    0.3070   21.5370 C   0  0  0  0  0  0  0  0  0  0  0  0
    6.4880   -2.6790   21.4970 N   0  0  0  0  0  0  0  0  0  0  0  0
    7.7050   -3.5900   19.6220 C   0  0  0  0  0  0  0  0  0  0  0  0
    5.4220   -3.5880   19.5260 O   0  0  0  0  0  0  0  0  0  0  0  0
    6.3540   -5.9870   22.2860 Cl  0  0  0  0  0  0  0  0  0  0  0  0
    6.4410   -3.2560   20.2200 C   0  0  0  0  0  0  0  0  0  0  0  0
    6.4250   -1.2410   21.7290 C   0  0  0  0  0  0  0  0  0  0  0  0
    6.2720    0.7130   17.4620 N   0  0  0  0  0  0  0  0  0  0  0  0
    6.9430    0.0630   18.5540 C   0  0  0  0  0  0  0  0  0  0  0  0
    6.4700    0.2690   19.9490 C   0  0  0  0  0  0  0  0  0  0  0  0
    5.3650    1.0970   20.0800 C   0  0  0  0  0  0  0  0  0  0  0  0
    4.7150    1.7210   19.0510 C   0  0  0  0  0  0  0  0  0  0  0  0
    5.1350    1.5650   17.7420 C   0  0  0  0  0  0  0  0  0  0  0  0
   10.7140    0.5490   23.6990 C   0  0  0  0  0  0  0  0  0  0  0  0
   12.0910    0.5650   23.8660 C   0  0  0  0  0  0  0  0  0  0  0  0
   12.8600   -0.3350   23.1500 C   0  0  0  0  0  0  0  0  0  0  0  0
   12.2760   -1.3090   22.2200 C   0  0  0  0  0  0  0  0  0  0  0  0
   10.8430   -1.2410   22.1230 C   0  0  0  0  0  0  0  0  0  0  0  0
   10.1120   -0.3330   22.8450 C   0  0  0  0  0  0  0  0  0  0  0  0
    4.8780   -4.9310   24.0490 N   0  0  0  0  0  0  0  0  0  0  0  0
    5.6310   -4.6010   22.9910 C   0  0  0  0  0  0  0  0  0  0  0  0
    5.7400   -3.2650   22.6050 C   0  0  0  0  0  0  0  0  0  0  0  0
    5.1160   -2.2710   23.2670 C   0  0  0  0  0  0  0  0  0  0  0  0
    4.3320   -2.5330   24.3630 C   0  0  0  0  0  0  0  0  0  0  0  0
    4.1810   -3.8500   24.7920 C   0  0  0  0  0  0  0  0  0  0  0  0
  2  6  2  0
  4  6  1  0
  5  6  1  0
  7 11  1  0
  8 11  1  0
  9 11  2  0
  4 12  1  0
  7 12  1  0
 13 14  2  0
  4 15  1  0
 14 15  1  0
  1 16  1  0
 15 16  2  0
 16 17  1  0
 13 18  1  0
 17 18  2  0
 19 20  2  0
 20 21  1  0
  3 22  1  0
 21 22  2  0
 22 23  1  0
  5 24  1  0
 19 24  1  0
 23 24  2  0
 10 26  1  0
 25 26  2  0
  7 27  1  0
 26 27  1  0
 27 28  2  0
 28 29  1  0
 25 30  1  0
 29 30  2  0
M  END
