x2908-x1351
     RDKit          3D

 37 40  0  0  0  0  0  0  0  0999 V2000
    7.5880   -3.3630   20.0140 C   0  0  0  0  0  0  0  0  0  0  0  0
    5.4920   -4.6440   19.9540 O   0  0  0  0  0  0  0  0  0  0  0  0
    6.5250   -4.2480   20.5710 C   0  0  0  0  0  0  0  0  0  0  0  0
    5.8190   -2.9810   25.2260 N   0  0  0  0  0  0  0  0  0  0  0  0
    7.8200   -3.0030   26.5130 O   0  0  0  0  0  0  0  0  0  0  0  0
    6.7710   -2.4330   26.2170 C   0  0  0  0  0  0  0  0  0  0  0  0
    4.4540    0.7200   21.4360 C   0  0  0  0  0  0  0  0  0  0  0  0
    8.3460    0.8380   20.9910 O   0  0  0  0  0  0  0  0  0  0  0  0
   13.3240   -1.9540   21.3430 Cl  0  0  0  0  0  0  0  0  0  0  0  0
    6.9200   -0.8370   20.5310 N   0  0  0  0  0  0  0  0  0  0  0  0
    8.6980   -0.9660   22.3940 N   0  0  0  0  0  0  0  0  0  0  0  0
    7.9850   -0.3160   21.2890 C   0  0  0  0  0  0  0  0  0  0  0  0
    7.1630   -1.9470   19.5670 C   0  0  0  0  0  0  0  0  0  0  0  0
    6.8180   -4.6000   21.8820 N   0  0  0  0  0  0  0  0  0  0  0  0
    7.8950   -3.9510   22.6190 C   0  0  0  0  0  0  0  0  0  0  0  0
    7.5100   -3.2330   23.7230 C   0  0  0  0  0  0  0  0  0  0  0  0
    6.1580   -3.0070   23.7930 C   0  0  0  0  0  0  0  0  0  0  0  0
    5.2800   -3.8750   23.0680 C   0  0  0  0  0  0  0  0  0  0  0  0
    5.7680   -5.1280   22.7760 C   0  0  0  0  0  0  0  0  0  0  0  0
    7.0490   -0.7530   28.0930 C   0  0  0  0  0  0  0  0  0  0  0  0
    6.7260    0.4590   28.7140 C   0  0  0  0  0  0  0  0  0  0  0  0
    5.7380    1.3730   28.1320 C   0  0  0  0  0  0  0  0  0  0  0  0
    5.1240    0.9440   26.8840 C   0  0  0  0  0  0  0  0  0  0  0  0
    5.4820   -0.2760   26.3070 C   0  0  0  0  0  0  0  0  0  0  0  0
    6.4330   -1.1390   26.8850 C   0  0  0  0  0  0  0  0  0  0  0  0
    6.1530    1.0180   17.5020 N   0  0  0  0  0  0  0  0  0  0  0  0
    6.7940    0.1250   18.4790 C   0  0  0  0  0  0  0  0  0  0  0  0
    6.2360    0.0510   19.6970 C   0  0  0  0  0  0  0  0  0  0  0  0
    5.1250    0.7560   20.0780 C   0  0  0  0  0  0  0  0  0  0  0  0
    4.6030    1.5580   19.0980 C   0  0  0  0  0  0  0  0  0  0  0  0
    5.0880    1.7100   17.8110 C   0  0  0  0  0  0  0  0  0  0  0  0
   10.3680    0.4240   23.6380 C   0  0  0  0  0  0  0  0  0  0  0  0
   11.7340    0.6910   23.8320 C   0  0  0  0  0  0  0  0  0  0  0  0
   12.6900   -0.0410   23.1290 C   0  0  0  0  0  0  0  0  0  0  0  0
   12.2610   -1.0240   22.2510 C   0  0  0  0  0  0  0  0  0  0  0  0
   10.9390   -1.2900   22.0600 C   0  0  0  0  0  0  0  0  0  0  0  0
   10.0010   -0.5940   22.7210 C   0  0  0  0  0  0  0  0  0  0  0  0
  1  3  1  0
  2  3  2  0
  4  6  1  0
  5  6  2  0
  8 12  2  0
 10 12  1  0
 11 12  1  0
  1 13  1  0
 10 13  1  0
  3 14  1  0
 14 15  1  0
 15 16  1  0
  4 17  1  0
 16 17  1  0
 17 18  1  0
 14 19  1  0
 18 19  1  0
 20 21  2  0
 21 22  1  0
 22 23  2  0
 23 24  1  0
  6 25  1  0
 20 25  1  0
 24 25  2  0
 26 27  2  0
 10 28  1  0
 27 28  1  0
  7 29  1  0
 28 29  2  0
 29 30  1  0
 26 31  1  0
 30 31  2  0
 32 33  2  0
 33 34  1  0
  9 35  1  0
 34 35  2  0
 35 36  1  0
 11 37  1  0
 32 37  1  0
 36 37  2  0
M  END
