x2908-x2649
     RDKit          3D

 19 20  0  0  0  0  0  0  0  0999 V2000
    7.0320   -0.7350   20.8810 N   0  0  0  0  0  0  0  0  0  0  0  0
    8.6830   -1.1210   23.9760 C   0  0  0  0  0  0  0  0  0  0  0  0
    8.7190    0.8450   21.3560 O   0  0  0  0  0  0  0  0  0  0  0  0
   13.1400   -2.3240   21.1050 Cl  0  0  0  0  0  0  0  0  0  0  0  0
    8.8830   -1.2130   22.4500 C   0  0  1  0  0  0  0  0  0  0  0  0
    8.2390   -0.2710   21.5360 C   0  0  0  0  0  0  0  0  0  0  0  0
    4.8830    1.0950   21.7880 C   0  0  0  0  0  0  0  0  0  0  0  0
    6.2010    0.6360   17.5360 N   0  0  0  0  0  0  0  0  0  0  0  0
    5.1890    1.5280   17.7940 C   0  0  0  0  0  0  0  0  0  0  0  0
    4.7200    1.6980   19.2120 C   0  0  0  0  0  0  0  0  0  0  0  0
    5.3190    0.9350   20.3620 C   0  0  0  0  0  0  0  0  0  0  0  0
    6.3410    0.0570   19.9670 C   0  0  0  0  0  0  0  0  0  0  0  0
    6.7730   -0.1070   18.6680 C   0  0  0  0  0  0  0  0  0  0  0  0
   10.6860   -0.0080   24.1920 C   0  0  0  0  0  0  0  0  0  0  0  0
   12.0320   -0.0110   24.2250 C   0  0  0  0  0  0  0  0  0  0  0  0
   12.8260   -0.7060   23.2930 C   0  0  0  0  0  0  0  0  0  0  0  0
   12.2660   -1.4570   22.2550 C   0  0  0  0  0  0  0  0  0  0  0  0
   10.8100   -1.5050   22.1450 C   0  0  0  0  0  0  0  0  0  0  0  0
   10.1470   -0.7400   23.1690 C   0  0  0  0  0  0  0  0  0  0  0  0
  5  2  1  1
  1  6  1  0
  3  6  2  0
  5  6  1  0
  8  9  2  0
  9 10  1  0
  7 11  1  0
 10 11  2  0
  1 12  1  0
 11 12  1  0
  8 13  1  0
 12 13  2  0
 14 15  2  0
 15 16  1  0
  4 17  1  0
 16 17  2  0
 17 18  1  0
  5 19  1  0
 14 19  1  0
 18 19  2  0
M  END
