x2908-x2705-x1311-x2703
     RDKit          3D

 50 54  0  0  0  0  0  0  0  0999 V2000
    7.0170   -1.3530   21.8590 N   0  0  0  0  0  0  0  0  0  0  0  0
    6.6290   -4.1090   20.4680 C   0  0  2  0  0  0  0  0  0  0  0  0
    4.8850   -3.1990   21.4650 O   0  0  0  0  0  0  0  0  0  0  0  0
    6.3980   -2.7060   20.6480 C   0  0  0  0  0  0  0  0  0  0  0  0
    7.5700    2.0590   22.8530 N   0  0  0  0  0  0  0  0  0  0  0  0
    8.8020    1.2540   21.0900 O   0  0  0  0  0  0  0  0  0  0  0  0
    5.8000   -2.2700   21.8760 C   0  0  0  0  0  0  0  0  0  0  0  0
    6.7040    0.0800   21.5650 C   0  0  1  0  0  0  0  0  0  0  0  0
    7.8050    1.1680   21.8170 C   0  0  0  0  0  0  0  0  0  0  0  0
   10.1690    2.1010   24.0010 C   0  0  0  0  0  0  0  0  0  0  0  0
    9.3180    1.2760   24.9690 C   0  0  0  0  0  0  0  0  0  0  0  0
    6.2120    4.5880   21.8800 C   0  0  0  0  0  0  0  0  0  0  0  0
   12.0860   -1.3040   23.3420 C   0  0  0  0  0  0  0  0  0  0  0  0
   12.4940    0.1200   23.7450 C   0  0  0  0  0  0  0  0  0  0  0  0
   12.7200   -2.3060   24.3630 C   0  0  0  0  0  0  0  0  0  0  0  0
   12.8330   -1.5340   22.0000 C   0  0  0  0  0  0  0  0  0  0  0  0
   11.7880   -3.1790   25.1840 C   0  0  0  0  0  0  0  0  0  0  0  0
    5.5500   -4.6500   19.7310 O   0  0  0  0  0  0  0  0  0  0  0  0
    6.5750   -4.8550   21.8560 N   0  0  0  0  0  0  0  0  0  0  0  0
    4.2040   -7.4250   25.2020 O   0  0  0  0  0  0  0  0  0  0  0  0
    2.6710   -5.5160   24.6700 O   0  0  0  0  0  0  0  0  0  0  0  0
    4.2500    1.6500   21.3350 C   0  0  0  0  0  0  0  0  0  0  0  0
    6.3320    0.3170   17.8270 N   0  0  0  0  0  0  0  0  0  0  0  0
    5.2200    1.0540   17.7780 C   0  0  0  0  0  0  0  0  0  0  0  0
    4.5320    1.4870   18.8800 C   0  0  0  0  0  0  0  0  0  0  0  0
    5.0030    1.1630   20.1390 C   0  0  0  0  0  0  0  0  0  0  0  0
    6.1470    0.4180   20.2200 C   0  0  0  0  0  0  0  0  0  0  0  0
    6.7710    0.0140   19.0540 C   0  0  0  0  0  0  0  0  0  0  0  0
    9.7040   -1.4850   24.2890 N   0  0  0  0  0  0  0  0  0  0  0  0
    8.3930   -1.5090   23.9540 N   0  0  0  0  0  0  0  0  0  0  0  0
    8.2900   -1.4170   22.6100 C   0  0  0  0  0  0  0  0  0  0  0  0
    9.6300   -1.3410   22.1290 C   0  0  0  0  0  0  0  0  0  0  0  0
   10.5330   -1.3790   23.2480 C   0  0  0  0  0  0  0  0  0  0  0  0
    9.4740    3.3580   23.5270 C   0  0  0  0  0  0  0  0  0  0  0  0
   10.1460    4.5680   23.6660 C   0  0  0  0  0  0  0  0  0  0  0  0
    9.5500    5.7520   23.2360 C   0  0  0  0  0  0  0  0  0  0  0  0
    8.2640    5.7180   22.6590 C   0  0  0  0  0  0  0  0  0  0  0  0
    7.5790    4.5080   22.5150 C   0  0  0  0  0  0  0  0  0  0  0  0
    8.1840    3.3290   22.9530 C   0  0  0  0  0  0  0  0  0  0  0  0
    8.3230   -6.0070   22.9030 C   0  0  0  0  0  0  0  0  0  0  0  0
    9.3320   -6.1190   23.8600 C   0  0  0  0  0  0  0  0  0  0  0  0
    9.5990   -5.0850   24.7470 C   0  0  0  0  0  0  0  0  0  0  0  0
    8.8270   -3.9260   24.6520 C   0  0  0  0  0  0  0  0  0  0  0  0
    7.8110   -3.8080   23.6910 C   0  0  0  0  0  0  0  0  0  0  0  0
    7.5720   -4.8690   22.8150 C   0  0  0  0  0  0  0  0  0  0  0  0
    4.6690   -6.1220   22.0630 C   0  0  0  0  0  0  0  0  0  0  0  0
    5.2930   -5.0650   22.6140 C   0  0  1  0  0  0  0  0  0  0  0  0
    5.2710   -5.2580   24.1420 C   0  0  0  0  0  0  0  0  0  0  0  0
    3.8380   -6.2960   24.3530 S   0  0  0  0  0  0  0  0  0  0  0  0
    3.7950   -6.8380   22.8080 C   0  0  0  0  0  0  0  0  0  0  0  0
  2  4  1  0
  1  7  1  0
  3  7  2  0
  4  7  1  0
  1  8  1  0
  5  9  1  0
  6  9  2  0
  8  9  1  6
 10 11  1  0
 13 14  1  0
 13 15  1  0
 13 16  1  0
 15 17  1  0
  2 18  1  6
  2 19  1  0
 23 24  2  0
 24 25  1  0
 22 26  1  0
 25 26  2  0
  8 27  1  0
 26 27  1  0
 23 28  1  0
 27 28  2  0
 29 30  1  0
  1 31  1  0
 30 31  2  0
 31 32  1  0
 13 33  1  0
 29 33  1  0
 32 33  2  0
 10 34  1  0
 34 35  2  0
 35 36  1  0
 36 37  2  0
 12 38  1  0
 37 38  1  0
  5 39  1  0
 34 39  1  0
 38 39  2  0
 40 41  2  0
 41 42  1  0
 42 43  2  0
 43 44  1  0
 19 45  1  0
 40 45  1  0
 44 45  2  0
 47 19  1  6
 46 47  1  0
 47 48  1  0
 49 20  1  0
 21 49  1  0
 48 49  1  0
 46 50  2  0
 49 50  1  0
M  END
