x2908-x2705-x0691-x2572
     RDKit          3D

 52 57  0  0  0  0  0  0  0  0999 V2000
    6.8390   -1.4240   21.9070 N   0  0  0  0  0  0  0  0  0  0  0  0
    6.7070   -4.5210   20.2840 C   0  0  2  0  0  0  0  0  0  0  0  0
    4.7430   -2.9540   21.3580 O   0  0  0  0  0  0  0  0  0  0  0  0
    6.8530   -3.7330   21.4260 C   0  0  1  0  0  0  0  0  0  0  0  0
    7.5150    2.0930   22.9890 N   0  0  0  0  0  0  0  0  0  0  0  0
    8.7070    1.2490   21.0190 O   0  0  0  0  0  0  0  0  0  0  0  0
    6.0240   -2.6260   21.5780 C   0  0  0  0  0  0  0  0  0  0  0  0
    6.4780   -0.0190   21.6030 C   0  0  1  0  0  0  0  0  0  0  0  0
    7.5900    1.1030   21.9060 C   0  0  0  0  0  0  0  0  0  0  0  0
   10.1780    2.1340   24.0160 C   0  0  0  0  0  0  0  0  0  0  0  0
    9.2920    1.3040   24.9370 C   0  0  0  0  0  0  0  0  0  0  0  0
    6.1830    4.6600   21.9790 C   0  0  0  0  0  0  0  0  0  0  0  0
   11.9520   -1.5370   23.2580 C   0  0  0  0  0  0  0  0  0  0  0  0
   12.4600   -0.1940   23.8360 C   0  0  0  0  0  0  0  0  0  0  0  0
   12.4190   -2.6260   24.2540 C   0  0  0  0  0  0  0  0  0  0  0  0
   12.6730   -1.7620   21.9850 C   0  0  0  0  0  0  0  0  0  0  0  0
    5.5080   -4.3940   19.5260 O   0  0  0  0  0  0  0  0  0  0  0  0
    4.0090   -6.8430   25.8650 O   0  0  0  0  0  0  0  0  0  0  0  0
    5.6790   -5.2340   26.8000 O   0  0  0  0  0  0  0  0  0  0  0  0
    3.2320   -0.6650   26.0280 F   0  0  0  0  0  0  0  0  0  0  0  0
    4.7050   -5.5820   25.8000 S   0  0  0  0  0  0  0  0  0  0  0  0
    3.8340    1.7830   21.4300 C   0  0  0  0  0  0  0  0  0  0  0  0
   13.3140   -1.8940   21.0220 N   0  0  0  0  0  0  0  0  0  0  0  0
    6.4300    0.2620   17.8490 N   0  0  0  0  0  0  0  0  0  0  0  0
    5.3570    1.0190   17.7850 C   0  0  0  0  0  0  0  0  0  0  0  0
    4.5740    1.4760   18.8120 C   0  0  0  0  0  0  0  0  0  0  0  0
    4.6940    1.2670   20.3220 C   0  0  0  0  0  0  0  0  0  0  0  0
    5.9440    0.4100   20.2740 C   0  0  0  0  0  0  0  0  0  0  0  0
    6.7570   -0.0620   19.0630 C   0  0  0  0  0  0  0  0  0  0  0  0
    9.5970   -1.7000   24.1980 N   0  0  0  0  0  0  0  0  0  0  0  0
    8.2900   -1.6840   23.9050 N   0  0  0  0  0  0  0  0  0  0  0  0
    8.1550   -1.5190   22.5810 C   0  0  0  0  0  0  0  0  0  0  0  0
    9.4810   -1.4370   22.0500 C   0  0  0  0  0  0  0  0  0  0  0  0
   10.4060   -1.5530   23.1130 C   0  0  0  0  0  0  0  0  0  0  0  0
    9.4710    3.3850   23.5350 C   0  0  0  0  0  0  0  0  0  0  0  0
   10.1580    4.5850   23.6100 C   0  0  0  0  0  0  0  0  0  0  0  0
    9.5520    5.7770   23.1640 C   0  0  0  0  0  0  0  0  0  0  0  0
    8.2680    5.7590   22.6450 C   0  0  0  0  0  0  0  0  0  0  0  0
    7.5670    4.5610   22.5670 C   0  0  0  0  0  0  0  0  0  0  0  0
    8.1550    3.3590   23.0170 C   0  0  0  0  0  0  0  0  0  0  0  0
    2.8800   -1.9520   25.9000 C   0  0  0  0  0  0  0  0  0  0  0  0
    3.8750   -2.9560   25.9120 C   0  0  0  0  0  0  0  0  0  0  0  0
    3.4730   -4.2920   25.7770 C   0  0  0  0  0  0  0  0  0  0  0  0
    2.1140   -4.6400   25.6290 C   0  0  0  0  0  0  0  0  0  0  0  0
    1.1460   -3.6210   25.6190 C   0  0  0  0  0  0  0  0  0  0  0  0
    1.5350   -2.2770   25.7570 C   0  0  0  0  0  0  0  0  0  0  0  0
    6.5460   -5.2000   21.6550 C   0  0  0  0  0  0  0  0  0  0  0  0
    5.2980   -5.7410   21.8760 C   0  0  0  0  0  0  0  0  0  0  0  0
    4.9780   -6.3500   23.2040 C   0  0  0  0  0  0  0  0  0  0  0  0
    5.4680   -5.4710   24.2780 N   0  0  0  0  0  0  0  0  0  0  0  0
    6.9070   -5.1440   24.2050 C   0  0  0  0  0  0  0  0  0  0  0  0
    7.4770   -5.4900   22.8160 C   0  0  0  0  0  0  0  0  0  0  0  0
  2  4  1  0
  1  7  1  0
  3  7  2  0
  4  7  1  6
  1  8  1  0
  5  9  1  0
  6  9  2  0
  8  9  1  6
 10 11  1  0
 13 14  1  0
 13 15  1  0
 13 16  1  0
  2 17  1  6
 18 21  2  0
 19 21  2  0
 16 23  3  0
 24 25  2  0
 25 26  1  0
 22 27  1  0
 26 27  2  0
  8 28  1  0
 27 28  1  0
 24 29  1  0
 28 29  2  0
 30 31  1  0
  1 32  1  0
 31 32  1  0
 32 33  2  0
 13 34  1  0
 30 34  2  0
 33 34  1  0
 10 35  1  0
 35 36  2  0
 36 37  1  0
 37 38  2  0
 12 39  1  0
 38 39  1  0
  5 40  1  0
 35 40  1  0
 39 40  2  0
 20 41  1  0
 41 42  2  0
 21 43  1  0
 42 43  1  0
 43 44  2  0
 44 45  1  0
 41 46  1  0
 45 46  2  0
  2 47  1  0
  4 47  1  0
 47 48  1  0
 48 49  1  0
 21 50  1  0
 49 50  1  0
 50 51  1  0
 47 52  1  0
 51 52  1  0
M  END
