x2908-x1493
     RDKit          3D

 32 34  0  0  0  0  0  0  0  0999 V2000
    4.6380    1.4670   21.4660 C   0  0  0  0  0  0  0  0  0  0  0  0
    8.7930    1.6670   21.1010 O   0  0  0  0  0  0  0  0  0  0  0  0
   13.1620   -2.3490   21.4000 Cl  0  0  0  0  0  0  0  0  0  0  0  0
    7.0690   -0.1360   21.0480 N   0  0  0  0  0  0  0  0  0  0  0  0
    8.7270   -0.3190   22.5810 N   0  0  0  0  0  0  0  0  0  0  0  0
    8.2000    0.4380   21.5640 C   0  0  0  0  0  0  0  0  0  0  0  0
    4.9430   -6.2450   26.2240 C   0  0  0  0  0  0  0  0  0  0  0  0
    7.0590   -5.4080   26.2110 O   0  0  0  0  0  0  0  0  0  0  0  0
    6.0060   -5.5780   25.6090 C   0  0  0  0  0  0  0  0  0  0  0  0
    5.5970   -4.6000   19.9450 O   0  0  0  0  0  0  0  0  0  0  0  0
    6.6480   -4.4910   20.5890 C   0  0  0  0  0  0  0  0  0  0  0  0
    7.7700   -3.5580   20.0700 C   0  0  0  0  0  0  0  0  0  0  0  0
    6.9720   -1.5660   21.1460 C   0  0  0  0  0  0  0  0  0  0  0  0
    7.2090   -2.2050   19.8030 C   0  0  0  0  0  0  0  0  0  0  0  0
    6.2850    0.7270   17.5810 N   0  0  0  0  0  0  0  0  0  0  0  0
    6.8480    0.2290   18.6850 C   0  0  0  0  0  0  0  0  0  0  0  0
    6.3830    0.4280   19.9610 C   0  0  0  0  0  0  0  0  0  0  0  0
    5.2480    1.1840   20.1300 C   0  0  0  0  0  0  0  0  0  0  0  0
    4.6300    1.7210   19.0060 C   0  0  0  0  0  0  0  0  0  0  0  0
    5.1870    1.4690   17.7610 C   0  0  0  0  0  0  0  0  0  0  0  0
   10.6470    0.5580   23.6390 C   0  0  0  0  0  0  0  0  0  0  0  0
   12.0170    0.5780   23.8360 C   0  0  0  0  0  0  0  0  0  0  0  0
   12.8440   -0.3120   23.1630 C   0  0  0  0  0  0  0  0  0  0  0  0
   12.2560   -1.2270   22.2830 C   0  0  0  0  0  0  0  0  0  0  0  0
   10.8880   -1.2490   22.0880 C   0  0  0  0  0  0  0  0  0  0  0  0
   10.0960   -0.3650   22.7550 C   0  0  0  0  0  0  0  0  0  0  0  0
    5.8130   -5.1340   24.3110 N   0  0  0  0  0  0  0  0  0  0  0  0
    6.6540   -4.0430   23.8410 C   0  0  0  0  0  0  0  0  0  0  0  0
    7.5020   -4.5260   22.8710 C   0  0  0  0  0  0  0  0  0  0  0  0
    6.7960   -5.1920   21.7720 N   0  0  0  0  0  0  0  0  0  0  0  0
    5.9210   -6.2790   22.2050 C   0  0  0  0  0  0  0  0  0  0  0  0
    5.0970   -5.8880   23.2650 C   0  0  0  0  0  0  0  0  0  0  0  0
  2  6  2  0
  4  6  1  0
  5  6  1  0
  7  9  1  0
  8  9  2  0
 10 11  2  0
 11 12  1  0
  4 13  1  0
 12 14  1  0
 13 14  1  0
 15 16  2  0
  4 17  1  0
 16 17  1  0
  1 18  1  0
 17 18  2  0
 18 19  1  0
 15 20  1  0
 19 20  2  0
 21 22  2  0
 22 23  1  0
  3 24  1  0
 23 24  2  0
 24 25  1  0
  5 26  1  0
 21 26  1  0
 25 26  2  0
  9 27  1  0
 27 28  1  0
 28 29  1  0
 11 30  1  0
 29 30  1  0
 30 31  1  0
 27 32  1  0
 31 32  1  0
M  END
