x2908-x0161
     RDKit          3D

 29 32  0  0  0  0  0  0  0  0999 V2000
   13.4040   -2.1540   25.0960 C   0  0  0  0  0  0  0  0  0  0  0  0
   13.0090   -0.9790   25.0600 O   0  0  0  0  0  0  0  0  0  0  0  0
   13.3590   -0.8670   22.6360 N   0  0  0  0  0  0  0  0  0  0  0  0
   10.0700    5.2050   23.6810 S   0  0  0  0  0  0  0  0  0  0  0  0
   10.9440    6.1500   23.0090 O   0  0  0  0  0  0  0  0  0  0  0  0
    9.4750    5.5420   24.9550 O   0  0  0  0  0  0  0  0  0  0  0  0
    8.7660    4.9670   22.6510 N   0  0  0  0  0  0  0  0  0  0  0  0
    4.8590    1.2710   21.6470 C   0  0  0  0  0  0  0  0  0  0  0  0
    8.8000    1.3760   21.2680 O   0  0  0  0  0  0  0  0  0  0  0  0
    7.2390   -0.2590   20.9850 N   0  0  0  0  0  0  0  0  0  0  0  0
    9.3700   -0.8360   21.3000 N   0  0  0  0  0  0  0  0  0  0  0  0
    8.4960    0.1870   21.2150 C   0  0  0  0  0  0  0  0  0  0  0  0
   11.7470    0.7950   23.6860 C   0  0  2  0  0  0  0  0  0  0  0  0
   12.1940    1.6620   22.6350 C   0  0  0  0  0  0  0  0  0  0  0  0
   11.7250    3.1100   22.7210 C   0  0  0  0  0  0  0  0  0  0  0  0
   10.8600    3.6110   23.8460 C   0  0  2  0  0  0  0  0  0  0  0  0
   10.2220    2.5020   24.4760 C   0  0  0  0  0  0  0  0  0  0  0  0
   10.6480    1.1580   24.4360 C   0  0  0  0  0  0  0  0  0  0  0  0
    6.2740    0.5260   17.6390 N   0  0  0  0  0  0  0  0  0  0  0  0
    6.9200    0.0320   18.7120 C   0  0  0  0  0  0  0  0  0  0  0  0
    6.5080    0.2510   19.9840 C   0  0  0  0  0  0  0  0  0  0  0  0
    5.3540    1.0060   20.2840 C   0  0  0  0  0  0  0  0  0  0  0  0
    4.6820    1.5170   19.1870 C   0  0  0  0  0  0  0  0  0  0  0  0
    5.1910    1.2520   17.8630 C   0  0  0  0  0  0  0  0  0  0  0  0
   10.7540    0.5660   22.6740 C   0  0  0  0  0  0  0  0  0  0  0  0
   12.4750   -0.5990   23.7750 C   0  0  2  0  0  0  0  0  0  0  0  0
   12.2940   -1.6670   23.1260 C   0  0  1  0  0  0  0  0  0  0  0  0
   11.0070   -1.8250   22.6120 C   0  0  0  0  0  0  0  0  0  0  0  0
   10.3670   -0.7050   22.1830 C   0  0  0  0  0  0  0  0  0  0  0  0
  1  2  1  0
  4  5  2  0
  4  6  2  0
  4  7  1  0
  9 12  2  0
 10 12  1  0
 11 12  1  0
 13 14  1  6
 14 15  2  0
 16  4  1  6
 15 16  1  0
 16 17  1  0
 13 18  1  0
 17 18  2  0
 19 20  2  0
 10 21  1  0
 20 21  1  0
  8 22  1  0
 21 22  2  0
 22 23  1  0
 19 24  1  0
 23 24  2  0
 13 25  1  0
 26  2  1  1
  3 26  1  0
 13 26  1  0
  3 27  1  0
 26 27  1  0
 27 28  1  6
 11 29  1  0
 25 29  2  0
 28 29  1  0
M  END
