x2908-x2705-x1311-x2646
     RDKit          3D

 49 53  0  0  0  0  0  0  0  0999 V2000
    7.0610   -1.3150   21.6250 N   0  0  0  0  0  0  0  0  0  0  0  0
    6.7720   -4.4720   20.8800 C   0  0  2  0  0  0  0  0  0  0  0  0
    5.0050   -3.2540   21.2300 O   0  0  0  0  0  0  0  0  0  0  0  0
    6.8190   -3.2530   21.7700 C   0  0  0  0  0  0  0  0  0  0  0  0
    7.6220    2.0810   22.8250 N   0  0  0  0  0  0  0  0  0  0  0  0
    8.8790    1.3710   21.1410 O   0  0  0  0  0  0  0  0  0  0  0  0
    5.8590   -2.2190   21.3680 C   0  0  0  0  0  0  0  0  0  0  0  0
    6.7370    0.1370   21.4440 C   0  0  1  0  0  0  0  0  0  0  0  0
    7.8360    1.2120   21.7860 C   0  0  0  0  0  0  0  0  0  0  0  0
   10.1910    2.1080   23.9240 C   0  0  0  0  0  0  0  0  0  0  0  0
    9.4210    1.2000   24.8820 C   0  0  0  0  0  0  0  0  0  0  0  0
    6.2200    4.5640   21.8940 C   0  0  0  0  0  0  0  0  0  0  0  0
   12.0130   -1.3900   23.4030 C   0  0  0  0  0  0  0  0  0  0  0  0
   12.4460   -0.0450   24.0190 C   0  0  0  0  0  0  0  0  0  0  0  0
   12.5010   -2.4830   24.3990 C   0  0  0  0  0  0  0  0  0  0  0  0
   12.7840   -1.5100   22.0700 C   0  0  0  0  0  0  0  0  0  0  0  0
    5.5280   -4.6920   20.1840 O   0  0  0  0  0  0  0  0  0  0  0  0
    6.9890   -5.4620   22.0210 N   0  0  0  0  0  0  0  0  0  0  0  0
    4.3580   -7.5480   25.0060 O   0  0  0  0  0  0  0  0  0  0  0  0
    2.7770   -5.6480   24.7670 O   0  0  0  0  0  0  0  0  0  0  0  0
    4.2700    1.5090   21.3360 C   0  0  0  0  0  0  0  0  0  0  0  0
    6.3360    0.4210   17.7850 N   0  0  0  0  0  0  0  0  0  0  0  0
    5.1750    1.0980   17.7940 C   0  0  0  0  0  0  0  0  0  0  0  0
    4.4780    1.4640   18.8610 C   0  0  0  0  0  0  0  0  0  0  0  0
    4.9970    1.1280   20.0760 C   0  0  0  0  0  0  0  0  0  0  0  0
    6.1860    0.4490   20.1010 C   0  0  0  0  0  0  0  0  0  0  0  0
    6.8220    0.1040   18.9160 C   0  0  0  0  0  0  0  0  0  0  0  0
    9.6010   -1.6060   24.2730 N   0  0  0  0  0  0  0  0  0  0  0  0
    8.3050   -1.5850   23.7740 N   0  0  0  0  0  0  0  0  0  0  0  0
    8.2710   -1.4140   22.4440 C   0  0  0  0  0  0  0  0  0  0  0  0
    9.6120   -1.3190   22.0440 C   0  0  0  0  0  0  0  0  0  0  0  0
   10.4690   -1.4330   23.1870 C   0  0  0  0  0  0  0  0  0  0  0  0
    9.5250    3.4050   23.4850 C   0  0  0  0  0  0  0  0  0  0  0  0
   10.2390    4.7470   23.6350 C   0  0  0  0  0  0  0  0  0  0  0  0
    9.5140    5.8700   23.1810 C   0  0  0  0  0  0  0  0  0  0  0  0
    8.2310    5.7720   22.6310 C   0  0  0  0  0  0  0  0  0  0  0  0
    7.5950    4.5400   22.5040 C   0  0  0  0  0  0  0  0  0  0  0  0
    8.2250    3.3600   22.9270 C   0  0  0  0  0  0  0  0  0  0  0  0
    8.9390   -5.9090   23.3710 C   0  0  0  0  0  0  0  0  0  0  0  0
    9.7420   -5.5730   24.4450 C   0  0  0  0  0  0  0  0  0  0  0  0
    9.4710   -4.4920   25.2420 C   0  0  0  0  0  0  0  0  0  0  0  0
    8.3750   -3.7280   24.9620 C   0  0  0  0  0  0  0  0  0  0  0  0
    7.5590   -4.0510   23.8870 C   0  0  0  0  0  0  0  0  0  0  0  0
    7.8410   -5.1590   23.0730 C   0  0  0  0  0  0  0  0  0  0  0  0
    4.8030   -6.5030   21.9870 C   0  0  0  0  0  0  0  0  0  0  0  0
    5.8380   -6.0100   22.8230 C   0  0  2  0  0  0  0  0  0  0  0  0
    5.2970   -5.3030   23.9780 C   0  0  0  0  0  0  0  0  0  0  0  0
    3.9030   -6.3980   24.2470 S   0  0  0  0  0  0  0  0  0  0  0  0
    3.6470   -6.7750   22.6510 C   0  0  0  0  0  0  0  0  0  0  0  0
  2  4  1  0
  1  7  1  0
  3  7  2  0
  4  7  1  0
  1  8  1  0
  5  9  1  0
  6  9  2  0
  8  9  1  6
 10 11  1  0
 13 14  1  0
 13 15  1  0
 13 16  1  0
  2 17  1  1
  2 18  1  0
 22 23  2  0
 23 24  1  0
 21 25  1  0
 24 25  2  0
  8 26  1  0
 25 26  1  0
 22 27  1  0
 26 27  2  0
 28 29  1  0
  1 30  1  0
 29 30  1  0
 30 31  2  0
 13 32  1  0
 28 32  2  0
 31 32  1  0
 10 33  1  0
 33 34  2  0
 34 35  1  0
 35 36  2  0
 12 37  1  0
 36 37  1  0
  5 38  1  0
 33 38  1  0
 37 38  2  0
 39 40  2  0
 40 41  1  0
 41 42  2  0
 42 43  1  0
 18 44  1  0
 39 44  1  0
 43 44  2  0
 46 18  1  6
 45 46  1  0
 46 47  1  0
 48 19  1  0
 20 48  1  0
 47 48  1  0
 45 49  2  0
 48 49  1  0
M  END
