x2908-x0820
     RDKit          3D

 35 38  0  0  0  0  0  0  0  0999 V2000
    6.8650   -4.9690   21.8160 N   0  0  0  0  0  0  0  0  0  0  0  0
    7.4430   -2.6140   22.2940 C   0  0  0  0  0  0  0  0  0  0  0  0
    5.3670   -5.2550   20.0350 O   0  0  0  0  0  0  0  0  0  0  0  0
    7.2880   -4.0420   22.8230 C   0  0  1  0  0  0  0  0  0  0  0  0
    6.3200   -4.6510   20.5690 C   0  0  0  0  0  0  0  0  0  0  0  0
    6.9440   -3.5480   19.7900 C   0  0  0  0  0  0  0  0  0  0  0  0
    4.8820    1.1570   21.6700 C   0  0  0  0  0  0  0  0  0  0  0  0
    8.7520    1.3670   21.0880 O   0  0  0  0  0  0  0  0  0  0  0  0
   13.1940   -2.2250   21.3200 Cl  0  0  0  0  0  0  0  0  0  0  0  0
    7.1110   -0.5340   20.9020 N   0  0  0  0  0  0  0  0  0  0  0  0
    8.7400   -0.5220   22.5690 N   0  0  0  0  0  0  0  0  0  0  0  0
    8.2440    0.1490   21.5210 C   0  0  0  0  0  0  0  0  0  0  0  0
    8.0370   -1.5890   23.2860 C   0  0  0  0  0  0  0  0  0  0  0  0
    6.3360   -4.2130   23.9740 C   0  0  0  0  0  0  0  0  0  0  0  0
    6.8460   -4.2980   25.2620 C   0  0  0  0  0  0  0  0  0  0  0  0
    5.9620   -4.4580   26.3490 C   0  0  0  0  0  0  0  0  0  0  0  0
    4.6350   -4.5240   26.0930 C   0  0  0  0  0  0  0  0  0  0  0  0
    4.0940   -4.4420   24.8030 C   0  0  0  0  0  0  0  0  0  0  0  0
    4.9510   -4.2840   23.7270 C   0  0  0  0  0  0  0  0  0  0  0  0
    6.4120   -4.5510   27.6830 C   0  0  0  0  0  0  0  0  0  0  0  0
    7.8400   -4.4870   27.9930 C   0  0  0  0  0  0  0  0  0  0  0  0
    8.7580   -4.3310   26.9600 C   0  0  0  0  0  0  0  0  0  0  0  0
    8.3150   -4.2360   25.6400 C   0  0  0  0  0  0  0  0  0  0  0  0
    6.2810    0.6340   17.5070 N   0  0  0  0  0  0  0  0  0  0  0  0
    6.8130    0.0400   18.5920 C   0  0  0  0  0  0  0  0  0  0  0  0
    6.4190    0.1700   19.8850 C   0  0  0  0  0  0  0  0  0  0  0  0
    5.3440    0.9910   20.2340 C   0  0  0  0  0  0  0  0  0  0  0  0
    4.7540    1.6310   19.1600 C   0  0  0  0  0  0  0  0  0  0  0  0
    5.1820    1.4800   17.8690 C   0  0  0  0  0  0  0  0  0  0  0  0
   10.6420    0.5690   23.6750 C   0  0  0  0  0  0  0  0  0  0  0  0
   12.0280    0.6430   23.8200 C   0  0  0  0  0  0  0  0  0  0  0  0
   12.8430   -0.2220   23.0970 C   0  0  0  0  0  0  0  0  0  0  0  0
   12.2740   -1.1490   22.2410 C   0  0  0  0  0  0  0  0  0  0  0  0
   10.9150   -1.2000   22.1180 C   0  0  0  0  0  0  0  0  0  0  0  0
   10.0970   -0.3770   22.7980 C   0  0  0  0  0  0  0  0  0  0  0  0
  1  4  1  0
  4  2  1  6
  1  5  1  0
  3  5  2  0
  5  6  1  0
  8 12  2  0
 10 12  1  0
 11 12  1  0
  2 13  1  0
 11 13  1  0
  4 14  1  0
 14 15  2  0
 15 16  1  0
 16 17  2  0
 17 18  1  0
 14 19  1  0
 18 19  2  0
 16 20  1  0
 20 21  2  0
 21 22  1  0
 15 23  1  0
 22 23  2  0
 24 25  2  0
 10 26  1  0
 25 26  1  0
  7 27  1  0
 26 27  2  0
 27 28  1  0
 24 29  1  0
 28 29  2  0
 30 31  2  0
 31 32  1  0
  9 33  1  0
 32 33  2  0
 33 34  1  0
 11 35  1  0
 30 35  1  0
 34 35  2  0
M  END
