x2908-x2694
     RDKit          3D

 34 36  0  0  0  0  0  0  0  0999 V2000
    6.0490   -0.9390   22.2380 N   0  0  0  0  0  0  0  0  0  0  0  0
    6.8110   -4.0440   20.1600 C   0  0  0  0  0  0  0  0  0  0  0  0
    4.6910   -2.9710   21.4650 O   0  0  0  0  0  0  0  0  0  0  0  0
    7.0350   -3.0060   21.2150 C   0  0  0  0  0  0  0  0  0  0  0  0
    7.5080    2.0290   23.1570 N   0  0  0  0  0  0  0  0  0  0  0  0
    8.2380    1.8530   21.0180 O   0  0  0  0  0  0  0  0  0  0  0  0
    5.8190   -2.2950   21.6500 C   0  0  0  0  0  0  0  0  0  0  0  0
   10.8220    6.6020   23.7560 O   0  0  0  0  0  0  0  0  0  0  0  0
    7.3130   -0.1850   21.8080 C   0  0  2  0  0  0  0  0  0  0  0  0
    7.6840    1.2980   21.9820 C   0  0  0  0  0  0  0  0  0  0  0  0
   10.3520    1.7260   24.0620 C   0  0  0  0  0  0  0  0  0  0  0  0
   11.8500    6.5870   24.7490 C   0  0  0  0  0  0  0  0  0  0  0  0
   12.2740   -1.5500   23.0920 C   0  0  0  0  0  0  0  0  0  0  0  0
   12.8130   -0.3000   23.3230 C   0  0  0  0  0  0  0  0  0  0  0  0
   12.8430   -1.9900   21.9240 C   0  0  0  0  0  0  0  0  0  0  0  0
   12.6030   -2.4470   24.1620 C   0  0  0  0  0  0  0  0  0  0  0  0
    5.0860    1.4660   21.5510 C   0  0  0  0  0  0  0  0  0  0  0  0
    6.5440   -0.1100   17.8460 N   0  0  0  0  0  0  0  0  0  0  0  0
    5.4000    0.7830   17.8810 C   0  0  0  0  0  0  0  0  0  0  0  0
    4.9150    1.3060   19.1260 C   0  0  0  0  0  0  0  0  0  0  0  0
    5.6750    0.8640   20.3030 C   0  0  0  0  0  0  0  0  0  0  0  0
    6.8160   -0.0090   20.3200 C   0  0  0  0  0  0  0  0  0  0  0  0
    7.2000   -0.4680   19.0780 C   0  0  0  0  0  0  0  0  0  0  0  0
    8.5770   -1.7740   23.3900 N   0  0  0  0  0  0  0  0  0  0  0  0
    9.9170   -2.0980   23.7110 O   0  0  0  0  0  0  0  0  0  0  0  0
   10.7800   -1.3920   22.9120 C   0  0  0  0  0  0  0  0  0  0  0  0
    9.9290   -0.6780   22.1340 C   0  0  0  0  0  0  0  0  0  0  0  0
    8.6030   -0.8490   22.3790 C   0  0  0  0  0  0  0  0  0  0  0  0
    9.7070    3.0550   23.7320 C   0  0  0  0  0  0  0  0  0  0  0  0
   10.5360    4.1710   23.8760 C   0  0  0  0  0  0  0  0  0  0  0  0
   10.0780    5.4540   23.6210 C   0  0  0  0  0  0  0  0  0  0  0  0
    8.7540    5.6190   23.1920 C   0  0  0  0  0  0  0  0  0  0  0  0
    7.9100    4.4910   23.0360 C   0  0  0  0  0  0  0  0  0  0  0  0
    8.3740    3.1850   23.3110 C   0  0  0  0  0  0  0  0  0  0  0  0
  2  4  1  0
  1  7  1  0
  3  7  2  0
  4  7  1  0
  9  1  1  1
  5 10  1  0
  6 10  2  0
  9 10  1  0
  8 12  1  0
 13 14  1  0
 13 15  1  0
 13 16  1  0
 18 19  2  0
 19 20  1  0
 17 21  1  0
 20 21  2  0
  9 22  1  0
 21 22  1  0
 18 23  1  0
 22 23  2  0
 24 25  1  0
 13 26  1  0
 25 26  1  0
 26 27  2  0
  9 28  1  0
 24 28  2  0
 27 28  1  0
 11 29  1  0
 29 30  2  0
  8 31  1  0
 30 31  1  0
 31 32  2  0
 32 33  1  0
  5 34  1  0
 29 34  1  0
 33 34  2  0
M  END
