x2908-x2572
     RDKit          3D

 19 20  0  0  0  0  0  0  0  0999 V2000
    4.6550    1.4930   21.7520 C   0  0  0  0  0  0  0  0  0  0  0  0
    8.7770    1.3690   21.2050 O   0  0  0  0  0  0  0  0  0  0  0  0
    7.2920   -0.4280   21.0520 N   0  0  0  0  0  0  0  0  0  0  0  0
   13.5390   -3.1390   20.6900 N   0  0  0  0  0  0  0  0  0  0  0  0
    8.2680    0.3210   21.6430 C   0  0  0  0  0  0  0  0  0  0  0  0
    8.6860   -0.2920   22.9560 C   0  0  0  0  0  0  0  0  0  0  0  0
   13.0050   -2.1590   21.4680 C   0  0  0  0  0  0  0  0  0  0  0  0
    6.3030    0.5490   17.6060 N   0  0  0  0  0  0  0  0  0  0  0  0
    6.9500   -0.0290   18.7700 C   0  0  0  0  0  0  0  0  0  0  0  0
    6.4430    0.2590   20.1590 C   0  0  0  0  0  0  0  0  0  0  0  0
    5.2410    1.1440   20.3810 C   0  0  0  0  0  0  0  0  0  0  0  0
    4.6930    1.6450   19.1970 C   0  0  0  0  0  0  0  0  0  0  0  0
    5.1560    1.3940   17.9270 C   0  0  0  0  0  0  0  0  0  0  0  0
   10.8550    0.6570   23.7530 C   0  0  0  0  0  0  0  0  0  0  0  0
   12.1840    0.6480   23.7450 C   0  0  0  0  0  0  0  0  0  0  0  0
   12.9330   -0.2530   23.0150 C   0  0  0  0  0  0  0  0  0  0  0  0
   12.3200   -1.2100   22.2420 C   0  0  0  0  0  0  0  0  0  0  0  0
   10.8630   -1.2890   22.1780 C   0  0  0  0  0  0  0  0  0  0  0  0
   10.1730   -0.2840   22.9880 C   0  0  0  0  0  0  0  0  0  0  0  0
  2  5  2  0
  3  5  1  0
  5  6  1  0
  4  7  3  0
  8  9  2  0
  3 10  1  0
  9 10  1  0
  1 11  1  0
 10 11  2  0
 11 12  1  0
  8 13  1  0
 12 13  2  0
 14 15  2  0
 15 16  1  0
  7 17  1  0
 16 17  2  0
 17 18  1  0
  6 19  1  0
 14 19  1  0
 18 19  2  0
M  END
