x2908-x2705-x1311-x0305
     RDKit          3D

 52 56  0  0  0  0  0  0  0  0999 V2000
    6.8340   -1.2840   21.9430 N   0  0  0  0  0  0  0  0  0  0  0  0
    6.7480   -4.5070   20.6070 C   0  0  2  0  0  0  0  0  0  0  0  0
    4.7500   -2.8980   21.2330 O   0  0  0  0  0  0  0  0  0  0  0  0
    6.9360   -3.5260   21.6000 C   0  0  0  0  0  0  0  0  0  0  0  0
    7.3350    2.1870   22.7840 N   0  0  0  0  0  0  0  0  0  0  0  0
    8.7230    1.3370   21.1480 O   0  0  0  0  0  0  0  0  0  0  0  0
    6.0180   -2.4900   21.5670 C   0  0  0  0  0  0  0  0  0  0  0  0
    6.5640    0.1410   21.5660 C   0  0  1  0  0  0  0  0  0  0  0  0
    7.6750    1.2630   21.8050 C   0  0  0  0  0  0  0  0  0  0  0  0
    9.8820    1.9670   24.1630 C   0  0  0  0  0  0  0  0  0  0  0  0
    8.8490    1.3920   25.1410 C   0  0  0  0  0  0  0  0  0  0  0  0
    6.2870    4.6660   21.7760 C   0  0  0  0  0  0  0  0  0  0  0  0
   12.0260   -1.3690   23.2860 C   0  0  0  0  0  0  0  0  0  0  0  0
   12.5110   -0.0430   23.8930 C   0  0  0  0  0  0  0  0  0  0  0  0
   12.4470   -2.4950   24.2410 C   0  0  0  0  0  0  0  0  0  0  0  0
   12.8060   -1.5340   21.9660 C   0  0  0  0  0  0  0  0  0  0  0  0
    5.5140   -4.4650   19.8870 O   0  0  0  0  0  0  0  0  0  0  0  0
    6.6240   -5.5180   21.7100 N   0  0  0  0  0  0  0  0  0  0  0  0
    4.2840   -7.3490   25.2980 O   0  0  0  0  0  0  0  0  0  0  0  0
    2.8200   -5.3670   24.7150 O   0  0  0  0  0  0  0  0  0  0  0  0
    3.8770    1.4630   21.2800 C   0  0  0  0  0  0  0  0  0  0  0  0
    8.5620    0.0540   27.1010 C   0  0  0  0  0  0  0  0  0  0  0  0
    9.2350    0.1110   25.8970 C   0  0  0  0  0  0  0  0  0  0  0  0
   13.4210   -1.6570   20.9870 N   0  0  0  0  0  0  0  0  0  0  0  0
    6.3120    0.4020   17.8080 N   0  0  0  0  0  0  0  0  0  0  0  0
    5.1240    1.0230   17.7540 C   0  0  0  0  0  0  0  0  0  0  0  0
    4.3490    1.3530   18.8440 C   0  0  0  0  0  0  0  0  0  0  0  0
    4.7410    1.0820   20.1190 C   0  0  0  0  0  0  0  0  0  0  0  0
    5.9460    0.4670   20.2650 C   0  0  0  0  0  0  0  0  0  0  0  0
    6.7370    0.1180   19.0190 C   0  0  0  0  0  0  0  0  0  0  0  0
    9.6580   -1.4260   24.2130 N   0  0  0  0  0  0  0  0  0  0  0  0
    8.2790   -1.4100   23.9330 N   0  0  0  0  0  0  0  0  0  0  0  0
    8.1400   -1.3400   22.6050 C   0  0  0  0  0  0  0  0  0  0  0  0
    9.5260   -1.3190   22.0790 C   0  0  0  0  0  0  0  0  0  0  0  0
   10.4860   -1.3700   23.1270 C   0  0  0  0  0  0  0  0  0  0  0  0
    9.3570    3.2860   23.6170 C   0  0  0  0  0  0  0  0  0  0  0  0
   10.1140    4.4490   23.7710 C   0  0  0  0  0  0  0  0  0  0  0  0
    9.6260    5.6670   23.2820 C   0  0  0  0  0  0  0  0  0  0  0  0
    8.3770    5.7420   22.6310 C   0  0  0  0  0  0  0  0  0  0  0  0
    7.6200    4.5600   22.4760 C   0  0  0  0  0  0  0  0  0  0  0  0
    8.1150    3.3520   22.9640 C   0  0  0  0  0  0  0  0  0  0  0  0
    8.3920   -6.4720   23.0650 C   0  0  0  0  0  0  0  0  0  0  0  0
    9.3910   -6.2820   23.9430 C   0  0  0  0  0  0  0  0  0  0  0  0
    9.7490   -5.0620   24.4440 C   0  0  0  0  0  0  0  0  0  0  0  0
    9.0560   -3.9240   24.0530 C   0  0  0  0  0  0  0  0  0  0  0  0
    8.0140   -4.0140   23.1610 C   0  0  0  0  0  0  0  0  0  0  0  0
    7.7140   -5.4060   22.6630 C   0  0  0  0  0  0  0  0  0  0  0  0
    4.5960   -6.5160   22.1470 C   0  0  0  0  0  0  0  0  0  0  0  0
    5.4040   -5.3760   22.5610 C   0  0  1  0  0  0  0  0  0  0  0  0
    5.4260   -5.3330   23.9800 C   0  0  0  0  0  0  0  0  0  0  0  0
    3.9300   -6.2420   24.4160 S   0  0  0  0  0  0  0  0  0  0  0  0
    3.7170   -7.0310   23.0100 C   0  0  0  0  0  0  0  0  0  0  0  0
  2  4  1  0
  1  7  1  0
  3  7  2  0
  4  7  1  0
  1  8  1  0
  5  9  1  0
  6  9  2  0
  8  9  1  6
 10 11  1  0
 13 14  1  0
 13 15  1  0
 13 16  1  0
  2 17  1  1
  2 18  1  0
 11 23  1  0
 22 23  1  0
 16 24  3  0
 25 26  2  0
 26 27  1  0
 21 28  1  0
 27 28  2  0
  8 29  1  0
 28 29  1  0
 25 30  1  0
 29 30  2  0
 31 32  1  0
  1 33  1  0
 32 33  2  0
 33 34  1  0
 13 35  1  0
 31 35  1  0
 34 35  2  0
 10 36  1  0
 36 37  2  0
 37 38  1  0
 38 39  2  0
 12 40  1  0
 39 40  1  0
  5 41  1  0
 36 41  1  0
 40 41  2  0
 42 43  2  0
 43 44  1  0
 44 45  2  0
 45 46  1  0
 18 47  1  0
 42 47  1  0
 46 47  2  0
 49 18  1  1
 48 49  1  0
 49 50  1  0
 51 19  1  0
 20 51  1  0
 50 51  1  0
 48 52  2  0
 51 52  1  0
M  END
