x2908-x1311
     RDKit          3D

 37 40  0  0  0  0  0  0  0  0999 V2000
    5.4790   -5.2270   20.0510 O   0  0  0  0  0  0  0  0  0  0  0  0
    6.2660   -4.6160   20.7660 C   0  0  0  0  0  0  0  0  0  0  0  0
    7.1680   -3.5880   20.0440 C   0  0  0  0  0  0  0  0  0  0  0  0
    6.2710   -4.7820   22.1870 N   0  0  0  0  0  0  0  0  0  0  0  0
    4.0610   -7.4880   25.3580 O   0  0  0  0  0  0  0  0  0  0  0  0
    2.4720   -5.6180   24.7590 O   0  0  0  0  0  0  0  0  0  0  0  0
    4.8170    1.2660   21.5850 C   0  0  0  0  0  0  0  0  0  0  0  0
    8.4930    1.4970   21.1820 O   0  0  0  0  0  0  0  0  0  0  0  0
   13.3120   -1.7440   21.4070 Cl  0  0  0  0  0  0  0  0  0  0  0  0
    7.2770   -0.3660   20.9190 N   0  0  0  0  0  0  0  0  0  0  0  0
    8.6820   -0.1670   22.7180 N   0  0  0  0  0  0  0  0  0  0  0  0
    8.1270    0.3730   21.5840 C   0  0  0  0  0  0  0  0  0  0  0  0
    7.6030   -2.6230   21.1110 C   0  0  0  0  0  0  0  0  0  0  0  0
    7.9200   -1.4500   20.4800 C   0  0  0  0  0  0  0  0  0  0  0  0
    8.1230   -6.0060   23.0960 C   0  0  0  0  0  0  0  0  0  0  0  0
    9.2530   -6.0620   24.0900 C   0  0  0  0  0  0  0  0  0  0  0  0
    9.4860   -5.0060   24.9220 C   0  0  0  0  0  0  0  0  0  0  0  0
    8.7030   -3.8680   24.8680 C   0  0  0  0  0  0  0  0  0  0  0  0
    7.6490   -3.8040   23.9490 C   0  0  0  0  0  0  0  0  0  0  0  0
    7.3580   -4.8630   23.0740 C   0  0  0  0  0  0  0  0  0  0  0  0
    4.5060   -6.2100   22.2530 C   0  0  0  0  0  0  0  0  0  0  0  0
    5.0310   -5.1500   22.9040 C   0  0  1  0  0  0  0  0  0  0  0  0
    5.0550   -5.2830   24.2960 C   0  0  0  0  0  0  0  0  0  0  0  0
    3.6670   -6.3880   24.4950 S   0  0  0  0  0  0  0  0  0  0  0  0
    3.6470   -6.9600   22.9590 C   0  0  0  0  0  0  0  0  0  0  0  0
    6.2480    0.7030   17.5670 N   0  0  0  0  0  0  0  0  0  0  0  0
    6.8760    0.1480   18.6090 C   0  0  0  0  0  0  0  0  0  0  0  0
    6.4930    0.2790   19.9260 C   0  0  0  0  0  0  0  0  0  0  0  0
    5.3710    1.0290   20.2110 C   0  0  0  0  0  0  0  0  0  0  0  0
    4.6920    1.6250   19.1390 C   0  0  0  0  0  0  0  0  0  0  0  0
    5.1690    1.4360   17.8480 C   0  0  0  0  0  0  0  0  0  0  0  0
   10.5580    0.7550   23.7660 C   0  0  0  0  0  0  0  0  0  0  0  0
   11.9120    0.8550   23.9270 C   0  0  0  0  0  0  0  0  0  0  0  0
   12.7770    0.0820   23.2080 C   0  0  0  0  0  0  0  0  0  0  0  0
   12.2610   -0.8130   22.3110 C   0  0  0  0  0  0  0  0  0  0  0  0
   10.9070   -0.9520   22.1210 C   0  0  0  0  0  0  0  0  0  0  0  0
   10.0520   -0.1510   22.8520 C   0  0  0  0  0  0  0  0  0  0  0  0
  1  2  2  0
  2  3  1  0
  2  4  1  0
  8 12  2  0
 10 12  1  0
 11 12  1  0
  3 13  1  0
 10 14  1  0
 13 14  1  0
 15 16  2  0
 16 17  1  0
 17 18  2  0
 18 19  1  0
  4 20  1  0
 15 20  1  0
 19 20  2  0
 22  4  1  6
 21 22  1  0
 22 23  1  0
 24  5  1  0
  6 24  1  0
 23 24  1  0
 21 25  2  0
 24 25  1  0
 26 27  2  0
 10 28  1  0
 27 28  1  0
  7 29  1  0
 28 29  2  0
 29 30  1  0
 26 31  1  0
 30 31  2  0
 32 33  2  0
 33 34  1  0
  9 35  1  0
 34 35  2  0
 35 36  1  0
 11 37  1  0
 32 37  1  0
 36 37  2  0
M  END
