x2908-x1412
     RDKit          3D

 34 38  0  0  0  0  0  0  0  0999 V2000
    4.4840    1.4460   21.5250 C   0  0  0  0  0  0  0  0  0  0  0  0
    8.8370    1.1490   21.1400 O   0  0  0  0  0  0  0  0  0  0  0  0
   13.3930   -1.9300   21.1980 Cl  0  0  0  0  0  0  0  0  0  0  0  0
    6.8500   -0.3840   21.5130 N   0  0  0  0  0  0  0  0  0  0  0  0
    8.8970   -0.7470   22.7580 N   0  0  0  0  0  0  0  0  0  0  0  0
    8.2040    0.0050   21.7920 C   0  0  0  0  0  0  0  0  0  0  0  0
    7.3270   -3.0380   18.8450 C   0  0  0  0  0  0  0  0  0  0  0  0
    5.4130   -4.1740   19.7550 O   0  0  0  0  0  0  0  0  0  0  0  0
    6.3420   -3.3370   19.9230 C   0  0  0  0  0  0  0  0  0  0  0  0
    8.1900   -1.5180   24.8610 O   0  0  0  0  0  0  0  0  0  0  0  0
    8.3310   -2.6970   24.4950 C   0  0  0  0  0  0  0  0  0  0  0  0
    6.3320    0.3670   17.7540 N   0  0  0  0  0  0  0  0  0  0  0  0
    6.8200   -0.1320   18.8970 C   0  0  0  0  0  0  0  0  0  0  0  0
    6.2670    0.1600   20.2750 C   0  0  0  0  0  0  0  0  0  0  0  0
    5.1810    1.0150   20.1960 C   0  0  0  0  0  0  0  0  0  0  0  0
    4.6660    1.5290   19.0370 C   0  0  0  0  0  0  0  0  0  0  0  0
    5.2730    1.1810   17.8460 C   0  0  0  0  0  0  0  0  0  0  0  0
   10.6640    0.5690   23.7930 C   0  0  0  0  0  0  0  0  0  0  0  0
   12.0360    0.8010   23.8490 C   0  0  0  0  0  0  0  0  0  0  0  0
   12.9010    0.0510   23.0700 C   0  0  0  0  0  0  0  0  0  0  0  0
   12.4240   -0.9950   22.1800 C   0  0  0  0  0  0  0  0  0  0  0  0
   11.0230   -1.1600   22.1880 C   0  0  0  0  0  0  0  0  0  0  0  0
   10.1990   -0.4040   22.9590 C   0  0  0  0  0  0  0  0  0  0  0  0
    6.5250   -2.6720   21.1320 N   0  0  0  0  0  0  0  0  0  0  0  0
    7.5290   -1.5970   21.2560 C   0  0  2  0  0  0  0  0  0  0  0  0
    8.5240   -1.9770   22.1570 C   0  0  2  0  0  0  0  0  0  0  0  0
    8.3100   -3.0930   23.1390 N   0  0  0  0  0  0  0  0  0  0  0  0
    7.2390   -3.9890   22.7360 C   0  0  0  0  0  0  0  0  0  0  0  0
    6.1610   -3.2510   22.2980 C   0  0  0  0  0  0  0  0  0  0  0  0
    9.3600   -4.9580   25.3030 C   0  0  0  0  0  0  0  0  0  0  0  0
    8.5500   -3.8440   25.4570 C   0  0  0  0  0  0  0  0  0  0  0  0
    7.7600   -3.9140   26.9800 S   0  0  0  0  0  0  0  0  0  0  0  0
    8.5120   -5.3960   27.3750 C   0  0  0  0  0  0  0  0  0  0  0  0
    9.3650   -5.8560   26.3630 C   0  0  0  0  0  0  0  0  0  0  0  0
  2  6  2  0
  4  6  1  0
  5  6  1  0
  7  9  1  0
  8  9  2  0
 10 11  2  0
 12 13  2  0
  4 14  1  0
 13 14  1  0
  1 15  1  0
 14 15  2  0
 15 16  1  0
 12 17  1  0
 16 17  2  0
 18 19  2  0
 19 20  1  0
  3 21  1  0
 20 21  2  0
 21 22  1  0
  5 23  1  0
 18 23  1  0
 22 23  2  0
  9 24  1  0
 25  4  1  1
 24 25  1  0
 26  5  1  1
 25 26  1  0
 11 27  1  0
 26 27  1  0
 27 28  1  0
 24 29  1  0
 28 29  1  0
 11 31  1  0
 30 31  2  0
 31 32  1  0
 32 33  1  0
 30 34  1  0
 33 34  2  0
M  END
