x2908-x0434
     RDKit          3D

 18 19  0  0  0  0  0  0  0  0999 V2000
    4.8980    1.1620   21.7930 C   0  0  0  0  0  0  0  0  0  0  0  0
    8.8660    1.3870   21.1770 O   0  0  0  0  0  0  0  0  0  0  0  0
   13.1890   -2.2310   21.3720 Cl  0  0  0  0  0  0  0  0  0  0  0  0
    7.1630   -0.5120   21.0390 N   0  0  0  0  0  0  0  0  0  0  0  0
    8.6290   -0.5230   22.7840 N   0  0  0  0  0  0  0  0  0  0  0  0
    8.2420    0.1590   21.6500 C   0  0  0  0  0  0  0  0  0  0  0  0
    6.2890    0.6300   17.5170 N   0  0  0  0  0  0  0  0  0  0  0  0
    6.8580    0.0330   18.5620 C   0  0  0  0  0  0  0  0  0  0  0  0
    6.4700    0.1580   19.9550 C   0  0  0  0  0  0  0  0  0  0  0  0
    5.3310    1.0030   20.3740 C   0  0  0  0  0  0  0  0  0  0  0  0
    4.6440    1.7100   19.1910 C   0  0  0  0  0  0  0  0  0  0  0  0
    5.1520    1.5050   17.7760 C   0  0  0  0  0  0  0  0  0  0  0  0
   10.6590    0.5570   23.6830 C   0  0  0  0  0  0  0  0  0  0  0  0
   12.0210    0.6510   23.7530 C   0  0  0  0  0  0  0  0  0  0  0  0
   12.8100   -0.2220   23.0330 C   0  0  0  0  0  0  0  0  0  0  0  0
   12.2320   -1.1630   22.2670 C   0  0  0  0  0  0  0  0  0  0  0  0
   10.8640   -1.3100   22.1530 C   0  0  0  0  0  0  0  0  0  0  0  0
   10.0810   -0.4360   22.8700 C   0  0  0  0  0  0  0  0  0  0  0  0
  2  6  2  0
  4  6  1  0
  5  6  1  0
  7  8  2  0
  4  9  1  0
  8  9  1  0
  1 10  1  0
  9 10  2  0
 10 11  1  0
  7 12  1  0
 11 12  2  0
 13 14  2  0
 14 15  1  0
  3 16  1  0
 15 16  2  0
 16 17  1  0
  5 18  1  0
 13 18  1  0
 17 18  2  0
M  END
