x2908-x0736
     RDKit          3D

 34 39  0  0  0  0  0  0  0  0999 V2000
    4.9040    1.0460   21.6500 C   0  0  0  0  0  0  0  0  0  0  0  0
    8.7620    1.2070   21.2810 O   0  0  0  0  0  0  0  0  0  0  0  0
   13.2060   -2.3530   21.2570 Cl  0  0  0  0  0  0  0  0  0  0  0  0
    7.0420   -0.5230   21.1250 N   0  0  0  0  0  0  0  0  0  0  0  0
    8.6360   -0.7810   22.4960 C   0  0  1  0  0  0  0  0  0  0  0  0
    8.1600    0.1440   21.5420 C   0  0  0  0  0  0  0  0  0  0  0  0
    7.4300   -2.9750   18.8280 C   0  0  0  0  0  0  0  0  0  0  0  0
    5.4650   -3.9890   19.6730 O   0  0  0  0  0  0  0  0  0  0  0  0
    6.4730   -3.2590   19.9130 C   0  0  0  0  0  0  0  0  0  0  0  0
    5.8610   -2.3910   25.0890 O   0  0  0  0  0  0  0  0  0  0  0  0
    7.0410   -2.2310   24.7850 C   0  0  0  0  0  0  0  0  0  0  0  0
    6.2400    0.4570   17.5710 N   0  0  0  0  0  0  0  0  0  0  0  0
    6.8950   -0.1850   18.7000 C   0  0  0  0  0  0  0  0  0  0  0  0
    6.4450    0.0250   19.9830 C   0  0  0  0  0  0  0  0  0  0  0  0
    5.3580    0.8410   20.2250 C   0  0  0  0  0  0  0  0  0  0  0  0
    4.6930    1.4770   19.1740 C   0  0  0  0  0  0  0  0  0  0  0  0
    5.1160    1.2980   17.9100 C   0  0  0  0  0  0  0  0  0  0  0  0
   10.6040    0.4860   23.5260 C   0  0  0  0  0  0  0  0  0  0  0  0
   11.9700    0.6710   23.6710 C   0  0  0  0  0  0  0  0  0  0  0  0
   12.9380   -0.1950   22.9800 C   0  0  0  0  0  0  0  0  0  0  0  0
   12.3140   -1.2380   22.1530 C   0  0  0  0  0  0  0  0  0  0  0  0
   10.9620   -1.3640   22.0540 C   0  0  0  0  0  0  0  0  0  0  0  0
   10.1190   -0.5280   22.7160 C   0  0  0  0  0  0  0  0  0  0  0  0
    6.6930   -2.7960   21.2000 N   0  0  0  0  0  0  0  0  0  0  0  0
    7.7610   -1.7430   21.5600 C   0  0  2  0  0  0  0  0  0  0  0  0
    8.3160   -2.3000   22.7120 C   0  0  2  0  0  0  0  0  0  0  0  0
    7.5680   -2.9310   23.5940 N   0  0  0  0  0  0  0  0  0  0  0  0
    6.9670   -4.0050   23.1390 C   0  0  0  0  0  0  0  0  0  0  0  0
    6.0910   -3.5280   22.2480 C   0  0  0  0  0  0  0  0  0  0  0  0
    8.4200   -0.1250   25.2140 O   0  0  0  0  0  0  0  0  0  0  0  0
    7.9290   -1.3510   25.6050 C   0  0  0  0  0  0  0  0  0  0  0  0
    8.3750   -1.6290   26.8740 C   0  0  0  0  0  0  0  0  0  0  0  0
    9.1350   -0.5850   27.2820 C   0  0  0  0  0  0  0  0  0  0  0  0
    9.1690    0.3450   26.2670 C   0  0  0  0  0  0  0  0  0  0  0  0
  2  6  2  0
  4  6  1  0
  5  6  1  0
  7  9  1  0
  8  9  2  0
 10 11  2  0
 12 13  2  0
  4 14  1  0
 13 14  1  0
  1 15  1  0
 14 15  2  0
 15 16  1  0
 12 17  1  0
 16 17  2  0
 18 19  2  0
 19 20  1  0
  3 21  1  0
 20 21  2  0
 21 22  1  0
  5 23  1  6
 18 23  1  0
 22 23  2  0
  9 24  1  0
 25  4  1  6
  5 25  1  0
 24 25  1  0
  5 26  1  0
 25 26  1  0
 11 27  1  0
 26 27  1  1
 27 28  1  0
 24 29  1  0
 28 29  1  0
 11 31  1  0
 30 31  1  0
 31 32  2  0
 32 33  1  0
 30 34  1  0
 33 34  2  0
M  END
