x2908-x3110-x1311-x0771-x2705
     RDKit          3D

 63 70  0  0  0  0  0  0  0  0999 V2000
    7.9100    1.9570   23.0520 C   0  0  1  0  0  0  0  0  0  0  0  0
   13.2080    5.2880   22.9640 C   0  0  0  0  0  0  0  0  0  0  0  0
   12.6040    2.9160   23.1900 O   0  0  0  0  0  0  0  0  0  0  0  0
   13.1150    3.9720   22.3360 C   0  0  0  0  0  0  0  0  0  0  0  0
    6.9270   -1.5980   21.7790 N   0  0  0  0  0  0  0  0  0  0  0  0
   10.8830    4.3130   23.0820 N   0  0  0  0  0  0  0  0  0  0  0  0
   11.3000    3.0820   23.3390 C   0  0  0  0  0  0  0  0  0  0  0  0
    8.9760    0.7190   21.3870 O   0  0  0  0  0  0  0  0  0  0  0  0
   10.2830    1.9820   23.8070 C   0  0  0  0  0  0  0  0  0  0  0  0
    4.7910   -2.9590   21.2210 O   0  0  0  0  0  0  0  0  0  0  0  0
    7.9220    0.8350   22.0020 C   0  0  0  0  0  0  0  0  0  0  0  0
    6.6730   -0.0800   21.6470 C   0  0  1  0  0  0  0  0  0  0  0  0
    6.1020   -2.7830   21.3710 C   0  0  0  0  0  0  0  0  0  0  0  0
    6.7370   -4.1930   21.0460 C   0  0  2  0  0  0  0  0  0  0  0  0
    8.2820   -4.0060   20.6980 C   0  0  0  0  0  0  0  0  0  0  0  0
   12.2240   -1.8480   24.2900 C   0  0  0  0  0  0  0  0  0  0  0  0
   12.3490   -0.6860   25.0310 C   0  0  0  0  0  0  0  0  0  0  0  0
   13.3340   -1.8110   23.2860 C   0  0  0  0  0  0  0  0  0  0  0  0
   12.5350   -3.0530   25.1830 C   0  0  0  0  0  0  0  0  0  0  0  0
    5.9340    4.3490   21.6280 C   0  0  0  0  0  0  0  0  0  0  0  0
    9.2040    1.0650   24.2290 C   0  0  0  0  0  0  0  0  0  0  0  0
   12.9940   -1.4080   21.8770 C   0  0  0  0  0  0  0  0  0  0  0  0
    5.9680   -4.8660   20.0440 O   0  0  0  0  0  0  0  0  0  0  0  0
    0.5290   -1.2060   26.0710 C   0  0  0  0  0  0  0  0  0  0  0  0
    4.0150   -7.1500   25.6710 O   0  0  0  0  0  0  0  0  0  0  0  0
    5.6600   -5.3830   26.8380 O   0  0  0  0  0  0  0  0  0  0  0  0
    1.6570   -6.0350   24.9180 C   0  0  0  0  0  0  0  0  0  0  0  0
    4.7290   -5.6930   25.7710 S   0  0  0  0  0  0  0  0  0  0  0  0
    4.0660    1.5330   21.3560 C   0  0  0  0  0  0  0  0  0  0  0  0
    6.4300    0.4410   17.9340 N   0  0  0  0  0  0  0  0  0  0  0  0
    5.2970    1.1640   17.8490 C   0  0  0  0  0  0  0  0  0  0  0  0
    4.5330    1.5140   18.9420 C   0  0  0  0  0  0  0  0  0  0  0  0
    4.9390    1.1200   20.2140 C   0  0  0  0  0  0  0  0  0  0  0  0
    6.1030    0.3900   20.3190 C   0  0  0  0  0  0  0  0  0  0  0  0
    6.8080    0.0680   19.1730 C   0  0  0  0  0  0  0  0  0  0  0  0
    9.3760   -1.4610   21.7570 C   0  0  0  0  0  0  0  0  0  0  0  0
   10.6320   -1.5150   22.3300 C   0  0  0  0  0  0  0  0  0  0  0  0
   10.7840   -1.8380   23.6700 C   0  0  0  0  0  0  0  0  0  0  0  0
    9.6490   -2.1200   24.4100 C   0  0  0  0  0  0  0  0  0  0  0  0
    8.3650   -2.0700   23.8290 C   0  0  0  0  0  0  0  0  0  0  0  0
    8.2170   -1.7270   22.4760 C   0  0  0  0  0  0  0  0  0  0  0  0
    9.0950    2.9440   23.5370 C   0  0  2  0  0  0  0  0  0  0  0  0
    9.5140    4.2640   23.2600 C   0  0  1  0  0  0  0  0  0  0  0  0
    8.8890    5.3450   23.8230 C   0  0  0  0  0  0  0  0  0  0  0  0
    7.6030    5.5300   23.0990 C   0  0  0  0  0  0  0  0  0  0  0  0
    6.9450    4.2270   22.7680 C   0  0  2  0  0  0  0  0  0  0  0  0
    8.0490    3.2780   22.4690 C   0  0  2  0  0  0  0  0  0  0  0  0
    1.5620   -2.2880   26.0000 C   0  0  0  0  0  0  0  0  0  0  0  0
    1.1750   -3.6810   25.4950 C   0  0  0  0  0  0  0  0  0  0  0  0
    2.1030   -4.6900   25.4230 C   0  0  0  0  0  0  0  0  0  0  0  0
    3.5060   -4.4200   25.8450 C   0  0  0  0  0  0  0  0  0  0  0  0
    3.8970   -3.1680   26.3060 C   0  0  0  0  0  0  0  0  0  0  0  0
    2.8780   -2.0460   26.3880 C   0  0  0  0  0  0  0  0  0  0  0  0
    6.5000   -4.9790   22.2860 N   0  0  0  0  0  0  0  0  0  0  0  0
    5.9650   -6.3250   22.1580 C   0  0  0  0  0  0  0  0  0  0  0  0
    5.1160   -6.4340   23.3130 C   0  0  0  0  0  0  0  0  0  0  0  0
    5.5440   -5.4150   24.3310 N   0  0  0  0  0  0  0  0  0  0  0  0
    6.9300   -5.2700   24.7550 C   0  0  0  0  0  0  0  0  0  0  0  0
    7.3940   -4.9980   23.3860 C   0  0  0  0  0  0  0  0  0  0  0  0
    8.7920   -4.7260   23.0410 C   0  0  0  0  0  0  0  0  0  0  0  0
    9.8880   -4.6870   23.9480 C   0  0  0  0  0  0  0  0  0  0  0  0
    9.4870   -4.9460   25.1630 C   0  0  0  0  0  0  0  0  0  0  0  0
    8.2220   -5.0890   24.8470 C   0  0  0  0  0  0  0  0  0  0  0  0
  2  4  1  0
  3  4  1  0
  3  7  1  0
  6  7  1  0
  7  9  2  0
  1 11  1  6
  8 11  2  0
  5 12  1  0
 12 11  1  6
  5 13  1  0
 10 13  2  0
 13 14  1  0
 14 15  1  6
 16 17  1  0
 16 18  1  0
 16 19  1  0
  9 21  1  0
 18 22  1  0
 14 23  1  0
 25 28  2  0
 26 28  2  0
 30 31  2  0
 31 32  1  0
 29 33  1  0
 32 33  2  0
 12 34  1  0
 33 34  1  0
 30 35  1  0
 34 35  2  0
 36 37  2  0
 16 38  1  0
 37 38  1  0
 38 39  2  0
 39 40  1  0
  5 41  1  0
 36 41  1  0
 40 41  2  0
  1 42  1  0
 42  9  1  1
  6 43  1  0
 42 43  1  0
 43 44  1  1
 44 45  1  0
 46 20  1  6
 45 46  1  0
  1 47  1  0
 42 47  1  0
 47 46  1  1
 24 48  1  0
 48 49  2  0
 27 50  1  0
 49 50  1  0
 28 51  1  0
 50 51  2  0
 51 52  1  0
 48 53  1  0
 52 53  2  0
 14 54  1  0
 54 55  1  0
 55 56  1  0
 28 57  1  0
 56 57  1  0
 57 58  1  0
 54 59  1  0
 58 59  2  0
 59 60  1  0
 60 61  2  0
 61 62  1  0
 58 63  1  0
 62 63  2  0
M  END
