x2912-x1478
     RDKit          3D

 32 34  0  0  0  0  0  0  0  0999 V2000
    7.4090   -0.4690   20.9090 N   0  0  0  0  0  0  0  0  0  0  0  0
    7.8850   -1.3800   23.7500 C   0  0  0  0  0  0  0  0  0  0  0  0
    8.9230    1.2870   21.1780 O   0  0  0  0  0  0  0  0  0  0  0  0
    8.8150   -1.0380   22.5960 C   0  0  1  0  0  0  0  0  0  0  0  0
    8.3500   -0.0140   21.4870 C   0  0  0  0  0  0  0  0  0  0  0  0
   13.5070   -3.0880   20.7180 N   0  0  0  0  0  0  0  0  0  0  0  0
    4.9070    1.5890   21.6610 C   0  0  0  0  0  0  0  0  0  0  0  0
   12.8780   -2.1190   21.4590 C   0  0  0  0  0  0  0  0  0  0  0  0
    6.6050   -2.7070   21.5040 N   0  0  0  0  0  0  0  0  0  0  0  0
    7.7450   -3.6910   19.6410 C   0  0  0  0  0  0  0  0  0  0  0  0
    5.4760   -3.5350   19.5380 O   0  0  0  0  0  0  0  0  0  0  0  0
    6.4310   -5.9450   22.3310 Cl  0  0  0  0  0  0  0  0  0  0  0  0
    6.5250   -3.2700   20.2280 C   0  0  0  0  0  0  0  0  0  0  0  0
    6.5280   -1.2540   21.6120 C   0  0  0  0  0  0  0  0  0  0  0  0
    6.4530    0.4420   17.8070 N   0  0  0  0  0  0  0  0  0  0  0  0
    5.4220    1.2900   17.9680 C   0  0  0  0  0  0  0  0  0  0  0  0
    4.8960    1.6850   19.2030 C   0  0  0  0  0  0  0  0  0  0  0  0
    5.4550    1.1870   20.3220 C   0  0  0  0  0  0  0  0  0  0  0  0
    6.5140    0.3150   20.1430 C   0  0  0  0  0  0  0  0  0  0  0  0
    7.0170   -0.0660   18.9280 C   0  0  0  0  0  0  0  0  0  0  0  0
   10.6480    0.7740   23.6660 C   0  0  0  0  0  0  0  0  0  0  0  0
   12.1040    0.8530   23.5870 C   0  0  0  0  0  0  0  0  0  0  0  0
   12.8200   -0.0980   22.8670 C   0  0  0  0  0  0  0  0  0  0  0  0
   12.1590   -1.1580   22.1960 C   0  0  0  0  0  0  0  0  0  0  0  0
   10.7540   -1.2670   22.2480 C   0  0  0  0  0  0  0  0  0  0  0  0
   10.1460   -0.3060   22.9650 C   0  0  0  0  0  0  0  0  0  0  0  0
    4.8680   -4.9200   24.0390 N   0  0  0  0  0  0  0  0  0  0  0  0
    5.6720   -4.5520   22.9910 C   0  0  0  0  0  0  0  0  0  0  0  0
    5.8200   -3.2190   22.5620 C   0  0  0  0  0  0  0  0  0  0  0  0
    5.1120   -2.2540   23.2570 C   0  0  0  0  0  0  0  0  0  0  0  0
    4.3150   -2.5930   24.3000 C   0  0  0  0  0  0  0  0  0  0  0  0
    4.2140   -3.9170   24.6600 C   0  0  0  0  0  0  0  0  0  0  0  0
  4  2  1  1
  1  5  1  0
  3  5  2  0
  4  5  1  0
  6  8  3  0
  9 13  1  0
 10 13  1  0
 11 13  2  0
  1 14  1  0
  9 14  1  0
 15 16  2  0
 16 17  1  0
  7 18  1  0
 17 18  2  0
  1 19  1  0
 18 19  1  0
 15 20  1  0
 19 20  2  0
 21 22  2  0
 22 23  1  0
  8 24  1  0
 23 24  2  0
 24 25  1  0
  4 26  1  0
 21 26  1  0
 25 26  2  0
 12 28  1  0
 27 28  2  0
  9 29  1  0
 28 29  1  0
 29 30  2  0
 30 31  1  0
 27 32  1  0
 31 32  2  0
M  END
