x2910-x0426
     RDKit          3D

 37 43  0  0  0  0  0  0  0  0999 V2000
    7.2300   -1.3840   21.5320 N   0  0  0  0  0  0  0  0  0  0  0  0
   10.4960    2.4170   23.9170 C   0  0  0  0  0  0  0  0  0  0  0  0
   10.2830    1.2440   23.5730 O   0  0  0  0  0  0  0  0  0  0  0  0
    9.7770   -1.1580   22.7720 O   0  0  0  0  0  0  0  0  0  0  0  0
    5.3140   -2.5680   20.7630 O   0  0  0  0  0  0  0  0  0  0  0  0
    6.5630    1.2080   16.6590 O   0  0  0  0  0  0  0  0  0  0  0  0
    9.4290   -2.4190   22.1990 C   0  0  0  0  0  0  0  0  0  0  0  0
    7.9170   -2.5280   22.0880 C   0  0  0  0  0  0  0  0  0  0  0  0
    6.0140   -1.5570   20.7410 C   0  0  0  0  0  0  0  0  0  0  0  0
    2.2670    1.6050   24.1770 C   0  0  0  0  0  0  0  0  0  0  0  0
    3.0760    0.9770   24.8000 O   0  0  0  0  0  0  0  0  0  0  0  0
    2.1030    1.5330   22.8480 N   0  0  0  0  0  0  0  0  0  0  0  0
    3.0860    0.8890   22.1950 C   0  0  0  0  0  0  0  0  0  0  0  0
    3.5730    1.4330   20.7800 C   0  0  0  0  0  0  0  0  0  0  0  0
    2.8650    4.1870   25.2820 F   0  0  0  0  0  0  0  0  0  0  0  0
   11.3570    0.5350   23.0970 C   0  0  0  0  0  0  0  0  0  0  0  0
   11.0670   -0.7570   22.6630 C   0  0  0  0  0  0  0  0  0  0  0  0
   12.0980   -1.5310   22.1600 C   0  0  0  0  0  0  0  0  0  0  0  0
   13.3360   -1.0530   22.0930 C   0  0  0  0  0  0  0  0  0  0  0  0
   13.6770    0.2350   22.5160 C   0  0  0  0  0  0  0  0  0  0  0  0
   12.6710    1.0380   23.0240 C   0  0  0  0  0  0  0  0  0  0  0  0
    4.9570    1.8910   18.1330 N   0  0  0  0  0  0  0  0  0  0  0  0
    4.3780    1.6590   19.2800 C   0  0  0  0  0  0  0  0  0  0  0  0
    4.6410    0.5210   20.3120 C   0  0  0  0  0  0  0  0  0  0  0  0
    5.6550   -0.3660   19.8600 C   0  0  0  0  0  0  0  0  0  0  0  0
    6.3170   -0.1660   18.6290 C   0  0  0  0  0  0  0  0  0  0  0  0
    5.9750    0.9280   17.8210 C   0  0  0  0  0  0  0  0  0  0  0  0
    3.3970    2.5220   19.6500 C   0  0  0  0  0  0  0  0  0  0  0  0
    2.7140    2.4880   20.7220 C   0  0  0  0  0  0  0  0  0  0  0  0
    2.8630    1.6200   21.6110 C   0  0  0  0  0  0  0  0  0  0  0  0
    3.9120    0.3480   21.6470 C   0  0  0  0  0  0  0  0  0  0  0  0
    1.5910    3.7630   25.3090 C   0  0  0  0  0  0  0  0  0  0  0  0
    1.2490    2.5030   24.7790 C   0  0  0  0  0  0  0  0  0  0  0  0
   -0.0890    2.0620   24.8000 C   0  0  0  0  0  0  0  0  0  0  0  0
   -1.1180    2.8420   25.3410 C   0  0  0  0  0  0  0  0  0  0  0  0
   -0.8390    4.0980   25.8870 C   0  0  0  0  0  0  0  0  0  0  0  0
    0.6070    4.6020   25.8710 C   0  0  0  0  0  0  0  0  0  0  0  0
  2  3  1  0
  4  7  1  0
  1  8  1  0
  7  8  1  0
  1  9  1  0
  5  9  2  0
 10 11  2  0
 10 12  1  0
 12 13  1  0
 13 14  1  0
  3 16  1  0
  4 17  1  0
 16 17  2  0
 17 18  1  0
 18 19  2  0
 19 20  1  0
 16 21  1  0
 20 21  2  0
 22 23  2  0
 23 24  1  0
  9 25  1  0
 24 25  2  0
 25 26  1  0
  6 27  1  0
 22 27  1  0
 26 27  2  0
 14 28  2  0
 23 28  1  0
 14 29  1  0
 28 29  1  0
 12 30  1  0
 29 30  2  0
 13 31  2  0
 24 31  1  0
 30 31  1  0
 15 32  1  0
 10 33  1  0
 32 33  2  0
 33 34  1  0
 34 35  2  0
 35 36  1  0
 32 37  1  0
 36 37  2  0
M  END
