x2912-x1402
     RDKit          3D

 40 43  0  0  0  0  0  0  0  0999 V2000
    7.2310   -0.3390   21.1840 N   0  0  0  0  0  0  0  0  0  0  0  0
    7.5470   -1.1030   23.8050 C   0  0  0  0  0  0  0  0  0  0  0  0
    8.8290    1.3440   21.1930 O   0  0  0  0  0  0  0  0  0  0  0  0
    8.6760   -0.7930   22.8380 C   0  0  1  0  0  0  0  0  0  0  0  0
    8.2000    0.1190   21.6600 C   0  0  0  0  0  0  0  0  0  0  0  0
   13.6340   -2.4200   20.6250 N   0  0  0  0  0  0  0  0  0  0  0  0
    4.8430    1.4030   21.6990 C   0  0  0  0  0  0  0  0  0  0  0  0
   12.9420   -1.7030   21.4990 C   0  0  0  0  0  0  0  0  0  0  0  0
    7.6490   -3.7180   20.3020 C   0  0  0  0  0  0  0  0  0  0  0  0
    5.5200   -4.8780   19.9920 O   0  0  0  0  0  0  0  0  0  0  0  0
    0.7620   -1.3570   26.1510 Cl  0  0  0  0  0  0  0  0  0  0  0  0
    6.5780   -4.7160   20.6510 C   0  0  0  0  0  0  0  0  0  0  0  0
    3.9660   -6.3970   25.8080 O   0  0  0  0  0  0  0  0  0  0  0  0
    6.0650   -5.2810   26.7660 O   0  0  0  0  0  0  0  0  0  0  0  0
    4.9790   -5.3740   25.7250 S   0  0  0  0  0  0  0  0  0  0  0  0
    6.9200   -1.6760   21.1920 C   0  0  0  0  0  0  0  0  0  0  0  0
    7.0890   -2.3500   20.0350 C   0  0  0  0  0  0  0  0  0  0  0  0
    6.2820    0.6440   17.7220 N   0  0  0  0  0  0  0  0  0  0  0  0
    5.2060    1.4370   17.9200 C   0  0  0  0  0  0  0  0  0  0  0  0
    4.8030    1.6350   19.2020 C   0  0  0  0  0  0  0  0  0  0  0  0
    5.4120    1.0910   20.3500 C   0  0  0  0  0  0  0  0  0  0  0  0
    6.5140    0.2870   20.1500 C   0  0  0  0  0  0  0  0  0  0  0  0
    6.9430    0.0660   18.7810 C   0  0  0  0  0  0  0  0  0  0  0  0
   10.5350    0.7220   23.9650 C   0  0  0  0  0  0  0  0  0  0  0  0
   11.9060    0.8660   23.9280 C   0  0  0  0  0  0  0  0  0  0  0  0
   12.7330    0.0930   23.1440 C   0  0  0  0  0  0  0  0  0  0  0  0
   12.1820   -0.8770   22.3460 C   0  0  0  0  0  0  0  0  0  0  0  0
   10.8510   -1.0980   22.3080 C   0  0  0  0  0  0  0  0  0  0  0  0
    9.9910   -0.3640   23.0640 C   0  0  0  0  0  0  0  0  0  0  0  0
    6.7760   -5.4810   21.8020 N   0  0  0  0  0  0  0  0  0  0  0  0
    7.4890   -5.0620   22.8660 C   0  0  0  0  0  0  0  0  0  0  0  0
    6.6920   -4.4110   23.8000 C   0  0  0  0  0  0  0  0  0  0  0  0
    5.7000   -5.4300   24.1830 N   0  0  0  0  0  0  0  0  0  0  0  0
    4.9650   -5.9090   23.1500 C   0  0  0  0  0  0  0  0  0  0  0  0
    5.7980   -6.3720   22.1140 C   0  0  0  0  0  0  0  0  0  0  0  0
    2.3860   -3.8590   25.8760 S   0  0  0  0  0  0  0  0  0  0  0  0
    4.1180   -3.8290   25.8820 C   0  0  0  0  0  0  0  0  0  0  0  0
    4.5620   -2.5170   26.0160 C   0  0  0  0  0  0  0  0  0  0  0  0
    3.5440   -1.6030   26.1100 C   0  0  0  0  0  0  0  0  0  0  0  0
    2.2780   -2.1510   26.0560 C   0  0  0  0  0  0  0  0  0  0  0  0
  4  2  1  1
  1  5  1  0
  3  5  2  0
  4  5  1  0
  6  8  3  0
  9 12  1  0
 10 12  2  0
 13 15  2  0
 14 15  2  0
  1 16  1  0
  9 17  1  0
 16 17  1  0
 18 19  2  0
 19 20  1  0
  7 21  1  0
 20 21  2  0
  1 22  1  0
 21 22  1  0
 18 23  1  0
 22 23  2  0
 24 25  2  0
 25 26  1  0
  8 27  1  0
 26 27  2  0
 27 28  1  0
  4 29  1  0
 24 29  1  0
 28 29  2  0
 12 30  1  0
 30 31  1  0
 31 32  1  0
 15 33  1  0
 32 33  1  0
 33 34  1  0
 30 35  1  0
 34 35  1  0
 15 37  1  0
 36 37  1  0
 37 38  2  0
 38 39  1  0
 11 40  1  0
 36 40  1  0
 39 40  2  0
M  END
