x2910-x0820
     RDKit          3D

 40 44  0  0  0  0  0  0  0  0999 V2000
    6.8840   -1.6580   22.0920 N   0  0  0  0  0  0  0  0  0  0  0  0
   10.2480    2.6260   23.6030 C   0  0  0  0  0  0  0  0  0  0  0  0
   10.0890    1.4090   23.7120 O   0  0  0  0  0  0  0  0  0  0  0  0
    9.4650   -0.9810   22.9650 O   0  0  0  0  0  0  0  0  0  0  0  0
    5.1110   -2.7680   20.9490 O   0  0  0  0  0  0  0  0  0  0  0  0
    6.4140    1.1250   17.0620 O   0  0  0  0  0  0  0  0  0  0  0  0
    9.1820   -2.3670   22.9730 C   0  0  0  0  0  0  0  0  0  0  0  0
    7.8840   -2.7150   22.2710 C   0  0  1  0  0  0  0  0  0  0  0  0
    5.7950   -1.7620   21.0820 C   0  0  0  0  0  0  0  0  0  0  0  0
    6.8950   -4.8520   21.6630 N   0  0  0  0  0  0  0  0  0  0  0  0
    5.4080   -5.1160   20.0200 O   0  0  0  0  0  0  0  0  0  0  0  0
    7.4700   -4.1160   22.6870 C   0  0  2  0  0  0  0  0  0  0  0  0
    6.4160   -4.4990   20.4310 C   0  0  0  0  0  0  0  0  0  0  0  0
    7.0660   -3.4710   19.5690 C   0  0  0  0  0  0  0  0  0  0  0  0
   11.1100    0.6350   23.2310 C   0  0  0  0  0  0  0  0  0  0  0  0
   10.7700   -0.6470   22.8310 C   0  0  0  0  0  0  0  0  0  0  0  0
   11.7720   -1.4820   22.3310 C   0  0  0  0  0  0  0  0  0  0  0  0
   13.0250   -1.0570   22.2380 C   0  0  0  0  0  0  0  0  0  0  0  0
   13.3910    0.2220   22.6260 C   0  0  0  0  0  0  0  0  0  0  0  0
   12.4320    1.0610   23.1230 C   0  0  0  0  0  0  0  0  0  0  0  0
    4.7790    1.7670   18.5630 N   0  0  0  0  0  0  0  0  0  0  0  0
    4.1700    1.4810   19.7040 C   0  0  0  0  0  0  0  0  0  0  0  0
    4.4810    0.3270   20.5820 C   0  0  0  0  0  0  0  0  0  0  0  0
    5.5000   -0.5500   20.1730 C   0  0  0  0  0  0  0  0  0  0  0  0
    6.1790   -0.3020   18.9750 C   0  0  0  0  0  0  0  0  0  0  0  0
    5.8180    0.8190   18.2130 C   0  0  0  0  0  0  0  0  0  0  0  0
    3.1530    2.3620   20.0830 C   0  0  0  0  0  0  0  0  0  0  0  0
    2.4290    2.2030   21.2440 C   0  0  0  0  0  0  0  0  0  0  0  0
    2.7390    1.1300   22.0440 C   0  0  0  0  0  0  0  0  0  0  0  0
    3.7240    0.1910   21.7700 C   0  0  0  0  0  0  0  0  0  0  0  0
    6.5640   -4.3130   23.9270 C   0  0  0  0  0  0  0  0  0  0  0  0
    7.0550   -4.3970   25.2500 C   0  0  0  0  0  0  0  0  0  0  0  0
    6.1400   -4.6010   26.3320 C   0  0  0  0  0  0  0  0  0  0  0  0
    4.7710   -4.7290   26.1280 C   0  0  0  0  0  0  0  0  0  0  0  0
    4.2520   -4.6660   24.8530 C   0  0  0  0  0  0  0  0  0  0  0  0
    5.1960   -4.4370   23.6670 C   0  0  0  0  0  0  0  0  0  0  0  0
    6.5900   -4.6890   27.6550 C   0  0  0  0  0  0  0  0  0  0  0  0
    8.0610   -4.5840   27.9960 C   0  0  0  0  0  0  0  0  0  0  0  0
    8.9800   -4.3950   26.9890 C   0  0  0  0  0  0  0  0  0  0  0  0
    8.4460   -4.2940   25.5580 C   0  0  0  0  0  0  0  0  0  0  0  0
  2  3  1  0
  4  7  1  0
  1  8  1  0
  8  7  1  1
  1  9  1  0
  5  9  2  0
  8 12  1  0
 12 10  1  6
 10 13  1  0
 11 13  2  0
 13 14  1  0
  3 15  1  0
  4 16  1  0
 15 16  2  0
 16 17  1  0
 17 18  2  0
 18 19  1  0
 15 20  1  0
 19 20  2  0
 21 22  2  0
 22 23  1  0
  9 24  1  0
 23 24  2  0
 24 25  1  0
  6 26  1  0
 21 26  1  0
 25 26  2  0
 22 27  1  0
 27 28  2  0
 28 29  1  0
 23 30  1  0
 29 30  2  0
 12 31  1  0
 31 32  2  0
 32 33  1  0
 33 34  2  0
 34 35  1  0
 31 36  1  0
 35 36  2  0
 33 37  1  0
 37 38  2  0
 38 39  1  0
 32 40  1  0
 39 40  2  0
M  END
