x2912-x0426
     RDKit          3D

 31 33  0  0  0  0  0  0  0  0999 V2000
    7.0140   -0.3370   21.2610 N   0  0  0  0  0  0  0  0  0  0  0  0
    8.3020   -0.9420   24.0610 C   0  0  0  0  0  0  0  0  0  0  0  0
    8.6800    1.2770   21.0670 O   0  0  0  0  0  0  0  0  0  0  0  0
    8.6970   -0.9280   22.5940 C   0  0  1  0  0  0  0  0  0  0  0  0
    8.0730    0.0540   21.5730 C   0  0  0  0  0  0  0  0  0  0  0  0
   13.5650   -3.1400   20.6520 N   0  0  0  0  0  0  0  0  0  0  0  0
    4.5700    1.2830   21.9610 C   0  0  1  0  0  0  0  0  0  0  0  0
   12.9670   -2.1820   21.4290 C   0  0  0  0  0  0  0  0  0  0  0  0
    2.4660    1.6690   23.4070 C   0  0  0  0  0  0  0  0  0  0  0  0
    2.4480    0.4890   23.7350 O   0  0  0  0  0  0  0  0  0  0  0  0
    3.4400    2.1190   22.3080 N   0  0  0  0  0  0  0  0  0  0  0  0
    3.1190    4.1600   24.8650 F   0  0  0  0  0  0  0  0  0  0  0  0
    4.0830   -0.0720   22.3000 C   0  0  0  0  0  0  0  0  0  0  0  0
    6.2560    0.7590   17.8580 N   0  0  0  0  0  0  0  0  0  0  0  0
    5.0330    1.5980   18.1550 C   0  0  0  0  0  0  0  0  0  0  0  0
    4.5200    1.7580   19.4260 C   0  0  0  0  0  0  0  0  0  0  0  0
    5.0960    1.1570   20.5450 C   0  0  0  0  0  0  0  0  0  0  0  0
    6.2220    0.3930   20.2710 C   0  0  0  0  0  0  0  0  0  0  0  0
    6.7610    0.2110   18.9780 C   0  0  0  0  0  0  0  0  0  0  0  0
   10.6250    0.4610   23.7610 C   0  0  0  0  0  0  0  0  0  0  0  0
   12.0820    0.6070   23.8500 C   0  0  0  0  0  0  0  0  0  0  0  0
   12.8310   -0.3390   23.0160 C   0  0  0  0  0  0  0  0  0  0  0  0
   12.2240   -1.2880   22.2180 C   0  0  0  0  0  0  0  0  0  0  0  0
   10.8450   -1.3920   22.1630 C   0  0  0  0  0  0  0  0  0  0  0  0
   10.0920   -0.5190   22.9290 C   0  0  0  0  0  0  0  0  0  0  0  0
    1.8710    3.6870   24.8270 C   0  0  0  0  0  0  0  0  0  0  0  0
    1.5490    2.4970   24.1250 C   0  0  0  0  0  0  0  0  0  0  0  0
    0.2080    2.0890   24.1560 C   0  0  0  0  0  0  0  0  0  0  0  0
   -0.7900    2.7880   24.8320 C   0  0  0  0  0  0  0  0  0  0  0  0
   -0.5160    3.9450   25.5220 C   0  0  0  0  0  0  0  0  0  0  0  0
    0.7680    4.4720   25.5800 C   0  0  0  0  0  0  0  0  0  0  0  0
  4  2  1  1
  1  5  1  0
  3  5  2  0
  4  5  1  0
  6  8  3  0
  9 10  2  0
  7 11  1  0
  9 11  1  0
  7 13  1  6
 14 15  2  0
 15 16  1  0
  7 17  1  0
 16 17  2  0
  1 18  1  0
 17 18  1  0
 14 19  1  0
 18 19  2  0
 20 21  2  0
 21 22  1  0
  8 23  1  0
 22 23  2  0
 23 24  1  0
  4 25  1  0
 20 25  1  0
 24 25  2  0
 12 26  1  0
  9 27  1  0
 26 27  2  0
 27 28  1  0
 28 29  2  0
 29 30  1  0
 26 31  1  0
 30 31  2  0
M  END
