x2910-x0161
     RDKit          3D

 36 42  0  0  0  0  0  0  0  0999 V2000
    7.0740   -1.5710   21.5390 N   0  0  0  0  0  0  0  0  0  0  0  0
    9.9600    1.2160   24.0970 N   0  0  0  0  0  0  0  0  0  0  0  0
    9.5720   -1.5670   23.2040 O   0  0  0  0  0  0  0  0  0  0  0  0
    5.2390   -2.7590   20.6530 O   0  0  0  0  0  0  0  0  0  0  0  0
    6.3110    1.3050   16.8660 O   0  0  0  0  0  0  0  0  0  0  0  0
    9.1000   -2.6290   22.4100 C   0  0  0  0  0  0  0  0  0  0  0  0
    7.5950   -2.6540   22.2670 C   0  0  0  0  0  0  0  0  0  0  0  0
    5.9000   -1.7180   20.7320 C   0  0  0  0  0  0  0  0  0  0  0  0
   12.7740   -2.5880   24.7830 C   0  0  0  0  0  0  0  0  0  0  0  0
   12.3620   -1.2510   24.5090 O   0  0  0  0  0  0  0  0  0  0  0  0
   13.2530   -0.7930   23.8690 C   0  0  1  0  0  0  0  0  0  0  0  0
   10.0060    5.4620   23.7880 S   0  0  0  0  0  0  0  0  0  0  0  0
   10.7940    6.5090   23.1720 O   0  0  0  0  0  0  0  0  0  0  0  0
    9.3580    5.7060   25.0560 O   0  0  0  0  0  0  0  0  0  0  0  0
    8.7700    4.9940   22.7190 N   0  0  0  0  0  0  0  0  0  0  0  0
   10.9270    0.5140   23.2760 C   0  0  0  0  0  0  0  0  0  0  0  0
   10.6900   -0.8920   22.8650 C   0  0  0  0  0  0  0  0  0  0  0  0
   11.7590   -1.4190   22.1710 C   0  0  0  0  0  0  0  0  0  0  0  0
   12.9680   -0.7760   22.3760 C   0  0  1  0  0  0  0  0  0  0  0  0
   13.1330    0.4870   23.0780 C   0  0  1  0  0  0  0  0  0  0  0  0
   12.1050    1.4000   23.0560 C   0  0  1  0  0  0  0  0  0  0  0  0
    4.6920    1.8670   18.4560 N   0  0  0  0  0  0  0  0  0  0  0  0
    4.1080    1.5560   19.6010 C   0  0  0  0  0  0  0  0  0  0  0  0
    4.4410    0.4410   20.3790 C   0  0  0  0  0  0  0  0  0  0  0  0
    5.4930   -0.5170   19.9750 C   0  0  0  0  0  0  0  0  0  0  0  0
    6.1550   -0.1970   18.7070 C   0  0  0  0  0  0  0  0  0  0  0  0
    5.7520    0.9400   18.0190 C   0  0  0  0  0  0  0  0  0  0  0  0
    3.0980    2.4160   20.0340 C   0  0  0  0  0  0  0  0  0  0  0  0
    2.3940    2.2240   21.2260 C   0  0  0  0  0  0  0  0  0  0  0  0
    2.7190    1.1450   21.9910 C   0  0  0  0  0  0  0  0  0  0  0  0
    3.7140    0.2750   21.5840 C   0  0  0  0  0  0  0  0  0  0  0  0
   12.3340    2.7200   22.3770 C   0  0  0  0  0  0  0  0  0  0  0  0
   11.8000    3.8670   22.8280 C   0  0  0  0  0  0  0  0  0  0  0  0
   11.0100    3.9700   23.9220 C   0  0  2  0  0  0  0  0  0  0  0  0
   10.1820    2.8810   24.2870 C   0  0  0  0  0  0  0  0  0  0  0  0
   10.8980    1.9880   23.7950 C   0  0  0  0  0  0  0  0  0  0  0  0
  3  6  1  0
  1  7  1  0
  6  7  1  0
  1  8  1  0
  4  8  2  0
  9 10  1  0
 11 10  1  1
 12 13  2  0
 12 14  2  0
 12 15  1  0
  2 16  1  0
  3 17  1  0
 16 17  2  0
 17 18  1  0
 11 19  1  0
 19 18  1  1
 11 20  1  0
 19 20  1  0
 16 21  1  0
 20 21  1  1
 22 23  2  0
 23 24  1  0
  8 25  1  0
 24 25  2  0
 25 26  1  0
  5 27  1  0
 22 27  1  0
 26 27  2  0
 23 28  1  0
 28 29  2  0
 29 30  1  0
 24 31  1  0
 30 31  2  0
 21 32  1  6
 32 33  2  0
 34 12  1  6
 33 34  1  0
  2 35  1  0
 34 35  1  0
  2 36  1  0
 21 36  1  0
 35 36  2  0
M  END
