x2910-x3305
     RDKit          3D

 33 36  0  0  0  0  0  0  0  0999 V2000
    7.1290   -1.6530   21.4830 N   0  0  0  0  0  0  0  0  0  0  0  0
   10.2100    2.5160   23.6940 C   0  0  0  0  0  0  0  0  0  0  0  0
   10.0150    1.2950   23.6360 O   0  0  0  0  0  0  0  0  0  0  0  0
    9.4850   -1.1840   22.9870 O   0  0  0  0  0  0  0  0  0  0  0  0
    5.1620   -2.7920   20.7570 O   0  0  0  0  0  0  0  0  0  0  0  0
    6.3480    1.3520   16.7610 O   0  0  0  0  0  0  0  0  0  0  0  0
    9.1830   -2.5270   22.6200 C   0  0  0  0  0  0  0  0  0  0  0  0
    7.7040   -2.7330   22.2910 C   0  0  1  0  0  0  0  0  0  0  0  0
    5.8470   -1.7780   20.7840 C   0  0  0  0  0  0  0  0  0  0  0  0
    7.9900   -0.9660   20.6230 C   0  0  0  0  0  0  0  0  0  0  0  0
    3.7190   -7.0650   23.9760 C   0  0  0  0  0  0  0  0  0  0  0  0
    6.8310   -3.0540   23.4950 C   0  0  0  0  0  0  0  0  0  0  0  0
   11.0650    0.5390   23.1880 C   0  0  0  0  0  0  0  0  0  0  0  0
   10.7800   -0.7800   22.8400 C   0  0  0  0  0  0  0  0  0  0  0  0
   11.8150   -1.5890   22.3700 C   0  0  0  0  0  0  0  0  0  0  0  0
   13.0480   -1.1030   22.2620 C   0  0  0  0  0  0  0  0  0  0  0  0
   13.3620    0.2040   22.6020 C   0  0  0  0  0  0  0  0  0  0  0  0
   12.3690    1.0220   23.0650 C   0  0  0  0  0  0  0  0  0  0  0  0
    4.8510    1.6140   18.5650 N   0  0  0  0  0  0  0  0  0  0  0  0
    4.1600    1.3780   19.7890 C   0  0  0  0  0  0  0  0  0  0  0  0
    4.4400    0.2690   20.6010 C   0  0  0  0  0  0  0  0  0  0  0  0
    5.4140   -0.5030   20.0430 C   0  0  0  0  0  0  0  0  0  0  0  0
    6.0110   -0.1470   18.8160 C   0  0  0  0  0  0  0  0  0  0  0  0
    5.8120    0.9720   17.9060 C   0  0  0  0  0  0  0  0  0  0  0  0
    3.1710    2.3070   20.1630 C   0  0  0  0  0  0  0  0  0  0  0  0
    2.4260    2.1970   21.3400 C   0  0  0  0  0  0  0  0  0  0  0  0
    2.7600    1.0850   22.1020 C   0  0  0  0  0  0  0  0  0  0  0  0
    3.7190    0.1390   21.7820 C   0  0  0  0  0  0  0  0  0  0  0  0
    4.7600   -6.2140   23.6240 N   0  0  0  0  0  0  0  0  0  0  0  0
    5.0000   -4.8570   24.0130 C   0  0  0  0  0  0  0  0  0  0  0  0
    6.1480   -4.3900   23.4230 C   0  0  0  0  0  0  0  0  0  0  0  0
    6.6350   -5.5670   22.6220 N   0  0  0  0  0  0  0  0  0  0  0  0
    5.7650   -6.5960   22.7920 N   0  0  0  0  0  0  0  0  0  0  0  0
  2  3  1  0
  4  7  1  0
  1  8  1  0
  8  7  1  1
  1  9  1  0
  5  9  2  0
  1 10  1  0
  8 12  1  0
  3 13  1  0
  4 14  1  0
 13 14  2  0
 14 15  1  0
 15 16  2  0
 16 17  1  0
 13 18  1  0
 17 18  2  0
 19 20  2  0
 20 21  1  0
  9 22  1  0
 21 22  2  0
 22 23  1  0
  6 24  1  0
 19 24  1  0
 23 24  2  0
 20 25  1  0
 25 26  2  0
 26 27  1  0
 21 28  1  0
 27 28  2  0
 11 29  1  0
 29 30  1  0
 12 31  1  0
 30 31  2  0
 31 32  1  0
 29 33  1  0
 32 33  2  0
M  END
