x2912-x2563
     RDKit          3D

 22 25  0  0  0  0  0  0  0  0999 V2000
    7.2100   -0.6280   21.1600 N   0  0  0  0  0  0  0  0  0  0  0  0
    8.0050   -1.2380   24.4310 C   0  0  0  0  0  0  0  0  0  0  0  0
    9.0440    0.7220   21.5070 O   0  0  0  0  0  0  0  0  0  0  0  0
    8.5450   -1.0220   23.1240 C   0  0  1  0  0  0  0  0  0  0  0  0
    8.3240   -0.2090   21.8520 C   0  0  0  0  0  0  0  0  0  0  0  0
   14.1180   -1.3410   20.2500 N   0  0  0  0  0  0  0  0  0  0  0  0
   13.2630   -1.3360   21.3880 C   0  0  0  0  0  0  0  0  0  0  0  0
    5.7270    1.4270   18.8580 C   0  0  1  0  0  0  0  0  0  0  0  0
    4.4490    1.0320   18.2580 C   0  0  0  0  0  0  0  0  0  0  0  0
    4.3270    0.6300   19.7260 C   0  0  0  0  0  0  0  0  0  0  0  0
    5.4300    0.8220   20.5350 C   0  0  0  0  0  0  0  0  0  0  0  0
    6.5440    0.1910   20.2450 C   0  0  0  0  0  0  0  0  0  0  0  0
    6.9380    0.4230   18.9220 C   0  0  0  0  0  0  0  0  0  0  0  0
   10.5960   -0.5530   24.6060 C   0  0  0  0  0  0  0  0  0  0  0  0
   11.9810   -0.4600   24.8070 C   0  0  0  0  0  0  0  0  0  0  0  0
   12.8160   -0.7200   23.7610 C   0  0  0  0  0  0  0  0  0  0  0  0
   12.3160   -1.0910   22.4600 C   0  0  0  0  0  0  0  0  0  0  0  0
   10.8850   -1.1760   22.3240 C   0  0  0  0  0  0  0  0  0  0  0  0
   10.0350   -0.9120   23.3680 C   0  0  0  0  0  0  0  0  0  0  0  0
    5.4990    2.1480   20.1060 C   0  0  0  0  0  0  0  0  0  0  0  0
    4.7210    1.1490   20.5630 C   0  0  0  0  0  0  0  0  0  0  0  0
    4.7710    0.1640   19.5130 C   0  0  0  0  0  0  0  0  0  0  0  0
  4  2  1  1
  1  5  1  0
  3  5  2  0
  4  5  1  0
  6  7  3  0
  8  9  1  6
  8 10  1  0
  9 10  2  0
 10 11  1  0
  1 12  1  0
 11 12  1  0
  8 13  1  0
 12 13  2  0
 14 15  2  0
 15 16  1  0
  7 17  1  0
 16 17  2  0
 17 18  1  0
  4 19  1  0
 14 19  1  0
 18 19  2  0
  8 20  1  0
 20 21  2  0
 11 22  2  0
 21 22  1  0
M  END
