x2912-x1311
     RDKit          3D

 39 42  0  0  0  0  0  0  0  0999 V2000
    7.0740   -0.6160   21.0850 N   0  0  0  0  0  0  0  0  0  0  0  0
    8.0580   -1.0330   24.3380 C   0  0  0  0  0  0  0  0  0  0  0  0
    8.8370    0.8680   21.3030 O   0  0  0  0  0  0  0  0  0  0  0  0
    8.5620   -0.8070   23.0160 C   0  0  1  0  0  0  0  0  0  0  0  0
    8.1910   -0.0920   21.7130 C   0  0  0  0  0  0  0  0  0  0  0  0
   13.8480   -1.8580   20.5770 N   0  0  0  0  0  0  0  0  0  0  0  0
    4.6700    1.0830   21.7330 C   0  0  0  0  0  0  0  0  0  0  0  0
   13.0460   -1.4410   21.5390 C   0  0  0  0  0  0  0  0  0  0  0  0
    5.8030   -4.6480   20.0100 O   0  0  0  0  0  0  0  0  0  0  0  0
    6.6900   -4.5100   20.9300 C   0  0  0  0  0  0  0  0  0  0  0  0
    8.1350   -4.0740   20.7520 C   0  0  0  0  0  0  0  0  0  0  0  0
    6.3660   -4.7130   22.3060 N   0  0  0  0  0  0  0  0  0  0  0  0
    4.2320   -7.7240   25.1460 O   0  0  0  0  0  0  0  0  0  0  0  0
    2.3760   -5.9990   24.8520 O   0  0  0  0  0  0  0  0  0  0  0  0
    6.9920   -2.0090   20.9440 C   0  0  0  0  0  0  0  0  0  0  0  0
    8.1800   -2.6340   21.2390 C   0  0  0  0  0  0  0  0  0  0  0  0
    6.3600    0.5710   17.6980 N   0  0  0  0  0  0  0  0  0  0  0  0
    5.2050    1.3870   18.0260 C   0  0  0  0  0  0  0  0  0  0  0  0
    4.7030    1.5300   19.2640 C   0  0  0  0  0  0  0  0  0  0  0  0
    5.2580    0.8950   20.3860 C   0  0  0  0  0  0  0  0  0  0  0  0
    6.3760    0.0990   20.1110 C   0  0  0  0  0  0  0  0  0  0  0  0
    6.9030   -0.0480   18.7560 C   0  0  0  0  0  0  0  0  0  0  0  0
   10.4940    0.5560   24.0350 C   0  0  0  0  0  0  0  0  0  0  0  0
   11.8390    0.8010   24.0220 C   0  0  0  0  0  0  0  0  0  0  0  0
   12.6790    0.1350   23.2070 C   0  0  0  0  0  0  0  0  0  0  0  0
   12.1950   -0.8190   22.3590 C   0  0  0  0  0  0  0  0  0  0  0  0
   10.8590   -1.1020   22.3340 C   0  0  0  0  0  0  0  0  0  0  0  0
   10.0000   -0.4060   23.1760 C   0  0  0  0  0  0  0  0  0  0  0  0
    8.3090   -5.8480   23.1460 C   0  0  0  0  0  0  0  0  0  0  0  0
    9.3370   -5.9640   24.0390 C   0  0  0  0  0  0  0  0  0  0  0  0
    9.4880   -4.9930   24.9960 C   0  0  0  0  0  0  0  0  0  0  0  0
    8.6460   -3.8870   25.1000 C   0  0  0  0  0  0  0  0  0  0  0  0
    7.6050   -3.7900   24.1810 C   0  0  0  0  0  0  0  0  0  0  0  0
    7.4360   -4.7650   23.2150 C   0  0  0  0  0  0  0  0  0  0  0  0
    4.6700   -6.3520   22.1100 C   0  0  0  0  0  0  0  0  0  0  0  0
    5.5080   -5.7340   22.9400 C   0  0  2  0  0  0  0  0  0  0  0  0
    4.9400   -5.3490   24.2990 C   0  0  0  0  0  0  0  0  0  0  0  0
    3.6950   -6.5930   24.4320 S   0  0  0  0  0  0  0  0  0  0  0  0
    3.5680   -6.8940   22.7010 C   0  0  0  0  0  0  0  0  0  0  0  0
  4  2  1  1
  1  5  1  0
  3  5  2  0
  4  5  1  0
  6  8  3  0
  9 10  2  0
 10 11  1  0
 10 12  1  0
  1 15  1  0
 11 16  1  0
 15 16  1  0
 17 18  2  0
 18 19  1  0
  7 20  1  0
 19 20  2  0
  1 21  1  0
 20 21  1  0
 17 22  1  0
 21 22  2  0
 23 24  2  0
 24 25  1  0
  8 26  1  0
 25 26  2  0
 26 27  1  0
  4 28  1  0
 23 28  1  0
 27 28  2  0
 29 30  2  0
 30 31  1  0
 31 32  2  0
 32 33  1  0
 12 34  1  0
 29 34  1  0
 33 34  2  0
 36 12  1  6
 35 36  1  0
 36 37  1  0
 38 13  1  0
 14 38  1  0
 37 38  1  0
 35 39  2  0
 38 39  1  0
M  END
