x2912-x1249
     RDKit          3D

 29 33  0  0  0  0  0  0  0  0999 V2000
    6.7050    0.0050   21.9690 N   0  0  0  0  0  0  0  0  0  0  0  0
    7.6270   -0.2800   25.0160 C   0  0  0  0  0  0  0  0  0  0  0  0
    8.7160   -0.3090   20.9740 O   0  0  0  0  0  0  0  0  0  0  0  0
    8.3150   -0.3420   23.6010 C   0  0  0  0  0  0  0  0  0  0  0  0
    7.8520   -0.2050   22.0960 C   0  0  0  0  0  0  0  0  0  0  0  0
   12.9190   -3.0810   20.7510 N   0  0  0  0  0  0  0  0  0  0  0  0
    4.0290    0.4930   21.8910 C   0  0  0  0  0  0  0  0  0  0  0  0
   12.2410   -2.3770   21.7250 C   0  0  0  0  0  0  0  0  0  0  0  0
    6.4180   -0.0480   24.1180 C   0  0  0  0  0  0  0  0  0  0  0  0
    6.8490   -0.0570   22.9900 O   0  0  0  0  0  0  0  0  0  0  0  0
    9.0780   -0.5200   25.3340 C   0  0  0  0  0  0  0  0  0  0  0  0
    6.3150    0.3050   18.2840 N   0  0  0  0  0  0  0  0  0  0  0  0
    4.8710    0.6010   18.2230 C   0  0  0  0  0  0  0  0  0  0  0  0
    4.1050    0.6690   19.3770 C   0  0  0  0  0  0  0  0  0  0  0  0
    4.7130    0.4610   20.6040 C   0  0  0  0  0  0  0  0  0  0  0  0
    6.0270    0.2070   20.6650 C   0  0  0  0  0  0  0  0  0  0  0  0
    6.8130    0.1240   19.5180 C   0  0  0  0  0  0  0  0  0  0  0  0
   10.5930   -0.2660   25.0040 C   0  0  0  0  0  0  0  0  0  0  0  0
   12.0200   -0.6390   25.0340 C   0  0  0  0  0  0  0  0  0  0  0  0
   12.4850   -1.3640   23.8550 C   0  0  0  0  0  0  0  0  0  0  0  0
   11.6430   -1.6680   22.8030 C   0  0  0  0  0  0  0  0  0  0  0  0
   10.2830   -1.3000   22.8000 C   0  0  0  0  0  0  0  0  0  0  0  0
    9.7840   -0.5960   23.9150 C   0  0  0  0  0  0  0  0  0  0  0  0
    2.3930    0.6090   24.3460 O   0  0  0  0  0  0  0  0  0  0  0  0
    3.0100    0.5910   23.0790 C   0  0  0  0  0  0  0  0  0  0  0  0
    4.2380    0.3580   23.4180 C   0  0  0  0  0  0  0  0  0  0  0  0
    5.0740    0.1520   24.4030 N   0  0  0  0  0  0  0  0  0  0  0  0
    4.4530    0.1800   25.5830 C   0  0  0  0  0  0  0  0  0  0  0  0
    3.0790    0.4130   25.5490 C   0  0  0  0  0  0  0  0  0  0  0  0
  2  4  2  0
  1  5  1  0
  3  5  2  0
  4  5  1  0
  6  8  3  0
  2  9  1  0
  9 10  2  0
  2 11  1  0
 12 13  1  0
 13 14  2  0
  7 15  2  0
 14 15  1  0
  1 16  2  0
 15 16  1  0
 12 17  2  0
 16 17  1  0
 18 19  2  0
 19 20  1  0
  8 21  1  0
 20 21  2  0
 21 22  1  0
  4 23  1  0
 18 23  1  0
 22 23  2  0
  7 25  1  0
 24 25  1  0
  7 26  1  0
 25 26  2  0
  9 27  1  0
 26 27  1  0
 27 28  1  0
 24 29  1  0
 28 29  2  0
M  END
