x2912-x2910
     RDKit          3D

 31 35  0  0  0  0  0  0  0  0999 V2000
    7.4300   -1.5860   21.5070 N   0  0  0  0  0  0  0  0  0  0  0  0
   10.0590    2.7360   23.6760 C   0  0  0  0  0  0  0  0  0  0  0  0
    9.9130    1.5500   23.4160 O   0  0  0  0  0  0  0  0  0  0  0  0
    9.3240   -0.9880   22.8860 C   0  0  2  0  0  0  0  0  0  0  0  0
    5.5490   -2.6270   20.9620 O   0  0  0  0  0  0  0  0  0  0  0  0
    6.3510    1.1950   16.9780 O   0  0  0  0  0  0  0  0  0  0  0  0
    9.2780   -2.5150   22.8370 C   0  0  0  0  0  0  0  0  0  0  0  0
    7.8950   -2.6900   22.3710 C   0  0  0  0  0  0  0  0  0  0  0  0
    6.2760   -1.6320   20.9020 C   0  0  0  0  0  0  0  0  0  0  0  0
    8.5970   -0.5420   24.1510 C   0  0  0  0  0  0  0  0  0  0  0  0
    8.4470    0.6330   21.2030 O   0  0  0  0  0  0  0  0  0  0  0  0
    8.3820   -0.4640   21.7470 C   0  0  0  0  0  0  0  0  0  0  0  0
    3.5210    1.4730   20.7460 C   0  0  0  0  0  0  0  0  0  0  0  0
   13.2560   -2.5800   20.7710 N   0  0  0  0  0  0  0  0  0  0  0  0
   13.0710   -2.2350   22.1520 C   0  0  2  0  0  0  0  0  0  0  0  0
   11.0040    0.8040   23.1040 C   0  0  0  0  0  0  0  0  0  0  0  0
   10.7540   -0.4830   22.8340 C   0  0  0  0  0  0  0  0  0  0  0  0
   11.7890   -1.3890   22.5000 C   0  0  0  0  0  0  0  0  0  0  0  0
   13.0300   -0.9600   22.4460 C   0  0  0  0  0  0  0  0  0  0  0  0
   13.3570    0.4420   22.7220 C   0  0  0  0  0  0  0  0  0  0  0  0
   12.2670    1.3160   23.0640 C   0  0  0  0  0  0  0  0  0  0  0  0
    4.8040    1.6980   18.5480 N   0  0  0  0  0  0  0  0  0  0  0  0
    4.2510    1.4120   19.7340 C   0  0  0  0  0  0  0  0  0  0  0  0
    4.7080    0.3330   20.5360 C   0  0  0  0  0  0  0  0  0  0  0  0
    5.7570   -0.4910   20.1240 C   0  0  0  0  0  0  0  0  0  0  0  0
    6.3350   -0.2190   18.9110 C   0  0  0  0  0  0  0  0  0  0  0  0
    5.8490    0.8550   18.1660 C   0  0  0  0  0  0  0  0  0  0  0  0
    3.1460    2.2790   20.1520 C   0  0  0  0  0  0  0  0  0  0  0  0
    2.4560    2.0950   21.4040 C   0  0  0  0  0  0  0  0  0  0  0  0
    2.8740    1.0550   22.2190 C   0  0  0  0  0  0  0  0  0  0  0  0
    3.8980    0.3640   21.6710 C   0  0  0  0  0  0  0  0  0  0  0  0
  2  3  1  0
  4  7  1  0
  1  8  1  0
  7  8  1  0
  1  9  1  0
  5  9  2  0
  4 10  1  1
  1 12  1  0
  4 12  1  0
 11 12  2  0
 15 14  1  6
  3 16  1  0
  4 17  1  0
 16 17  1  0
 15 18  1  0
 17 18  2  0
 15 19  1  0
 18 19  1  0
 19 20  2  0
 16 21  2  0
 20 21  1  0
 22 23  2  0
 23 24  1  0
  9 25  1  0
 24 25  2  0
 25 26  1  0
  6 27  1  0
 22 27  1  0
 26 27  2  0
 23 28  1  0
 28 29  2  0
 29 30  1  0
 13 31  1  0
 24 31  1  0
 30 31  2  0
M  END
