x2912-x0072
     RDKit          3D

 26 27  0  0  0  0  0  0  0  0999 V2000
    6.5780   -1.0790   21.3880 N   0  0  0  0  0  0  0  0  0  0  0  0
    8.2320   -0.9300   24.2930 C   0  0  0  0  0  0  0  0  0  0  0  0
    8.5440   -0.0360   20.6870 O   0  0  0  0  0  0  0  0  0  0  0  0
    8.5480   -1.0410   22.8830 C   0  0  2  0  0  0  0  0  0  0  0  0
    7.9170   -0.6590   21.5280 C   0  0  0  0  0  0  0  0  0  0  0  0
   13.7380   -3.1170   20.3740 N   0  0  0  0  0  0  0  0  0  0  0  0
    5.6470   -0.8400   22.0460 C   0  0  0  0  0  0  0  0  0  0  0  0
   13.0170   -2.1980   21.1280 C   0  0  0  0  0  0  0  0  0  0  0  0
    6.8900   -4.7690   25.3620 C   0  0  0  0  0  0  0  0  0  0  0  0
    8.1880   -4.5790   24.2910 S   0  0  0  0  0  0  0  0  0  0  0  0
    8.1800   -5.7070   23.3620 O   0  0  0  0  0  0  0  0  0  0  0  0
    9.3670   -4.1790   25.0330 O   0  0  0  0  0  0  0  0  0  0  0  0
    7.6620   -3.2580   23.4420 N   0  0  0  0  0  0  0  0  0  0  0  0
    8.5560   -2.5350   22.7190 C   0  0  0  0  0  0  0  0  0  0  0  0
    6.1550    0.0540   18.0030 N   0  0  0  0  0  0  0  0  0  0  0  0
    4.8920    0.4980   18.5190 C   0  0  0  0  0  0  0  0  0  0  0  0
    4.5920    0.2510   19.8670 C   0  0  0  0  0  0  0  0  0  0  0  0
    5.5320   -0.3950   20.6460 C   0  0  0  0  0  0  0  0  0  0  0  0
    6.7230   -0.8080   20.1770 C   0  0  0  0  0  0  0  0  0  0  0  0
    7.0130   -0.5750   18.8480 C   0  0  0  0  0  0  0  0  0  0  0  0
   10.5220    0.5640   23.3540 C   0  0  0  0  0  0  0  0  0  0  0  0
   11.9590    0.9620   23.2520 C   0  0  0  0  0  0  0  0  0  0  0  0
   12.8210    0.0110   22.4890 C   0  0  0  0  0  0  0  0  0  0  0  0
   12.2750   -1.1440   21.9370 C   0  0  0  0  0  0  0  0  0  0  0  0
   10.9350   -1.4450   22.0870 C   0  0  0  0  0  0  0  0  0  0  0  0
   10.0160   -0.6380   22.7770 C   0  0  0  0  0  0  0  0  0  0  0  0
  4  2  1  1
  1  5  1  0
  3  5  2  0
  4  5  1  0
  6  8  3  0
  9 10  1  0
 10 11  2  0
 10 12  2  0
 10 13  1  0
  4 14  1  0
 13 14  1  0
 15 16  2  0
 16 17  1  0
  7 18  1  0
 17 18  2  0
  1 19  1  0
 18 19  1  0
 15 20  1  0
 19 20  2  0
 21 22  2  0
 22 23  1  0
  8 24  1  0
 23 24  2  0
 24 25  1  0
  4 26  1  0
 21 26  1  0
 25 26  2  0
M  END
