x2912-x0759
     RDKit          3D

 29 33  0  0  0  0  0  0  0  0999 V2000
    6.7560   -0.6140   21.2270 N   0  0  0  0  0  0  0  0  0  0  0  0
    8.0620   -1.0040   24.0580 C   0  0  0  0  0  0  0  0  0  0  0  0
    8.4700    1.0290   21.0250 O   0  0  0  0  0  0  0  0  0  0  0  0
    8.5050   -0.6960   22.8060 C   0  0  1  0  0  0  0  0  0  0  0  0
    7.9510    0.0540   21.5580 C   0  0  0  0  0  0  0  0  0  0  0  0
   13.5250   -3.2040   20.6620 N   0  0  0  0  0  0  0  0  0  0  0  0
    5.6640   -0.0400   21.8780 C   0  0  0  0  0  0  0  0  0  0  0  0
   12.9390   -2.2120   21.4140 C   0  0  0  0  0  0  0  0  0  0  0  0
    5.3610   -4.3760   19.8490 O   0  0  0  0  0  0  0  0  0  0  0  0
    6.2450   -3.5090   20.0930 C   0  0  0  0  0  0  0  0  0  0  0  0
    7.1470   -3.0420   19.0040 C   0  0  0  0  0  0  0  0  0  0  0  0
    6.3900    0.6430   17.8400 N   0  0  0  0  0  0  0  0  0  0  0  0
    5.1720    1.3340   18.3570 C   0  0  0  0  0  0  0  0  0  0  0  0
    4.8320    1.1750   19.6980 C   0  0  0  0  0  0  0  0  0  0  0  0
    5.6700    0.3680   20.4720 C   0  0  0  0  0  0  0  0  0  0  0  0
    6.7960   -0.2720   19.9950 C   0  0  0  0  0  0  0  0  0  0  0  0
    7.1330   -0.1170   18.6730 C   0  0  0  0  0  0  0  0  0  0  0  0
   10.5730    0.5080   23.6580 C   0  0  0  0  0  0  0  0  0  0  0  0
   12.0290    0.7380   23.7650 C   0  0  0  0  0  0  0  0  0  0  0  0
   12.8350   -0.1940   22.9950 C   0  0  0  0  0  0  0  0  0  0  0  0
   12.2410   -1.1850   22.2510 C   0  0  0  0  0  0  0  0  0  0  0  0
   10.8670   -1.3750   22.1670 C   0  0  0  0  0  0  0  0  0  0  0  0
   10.0080   -0.5210   22.8760 C   0  0  0  0  0  0  0  0  0  0  0  0
    6.4060   -2.9770   21.3940 N   0  0  0  0  0  0  0  0  0  0  0  0
    7.2300   -1.9100   21.5540 C   0  0  2  0  0  0  0  0  0  0  0  0
    7.9390   -2.0190   22.7470 C   0  0  2  0  0  0  0  0  0  0  0  0
    8.4490   -3.3190   23.0860 O   0  0  0  0  0  0  0  0  0  0  0  0
    7.3680   -4.1570   23.2390 C   0  0  0  0  0  0  0  0  0  0  0  0
    6.3070   -3.8110   22.3960 C   0  0  0  0  0  0  0  0  0  0  0  0
  2  4  1  0
  1  5  1  0
  3  5  2  0
  4  5  1  0
  6  8  3  0
  9 10  2  0
 10 11  1  0
 12 13  2  0
 13 14  1  0
  7 15  1  0
 14 15  2  0
  1 16  1  0
 15 16  1  0
 12 17  1  0
 16 17  2  0
 18 19  2  0
 19 20  1  0
  8 21  1  0
 20 21  2  0
 21 22  1  0
  4 23  1  1
 18 23  1  0
 22 23  2  0
 10 24  1  0
 25  1  1  1
 24 25  1  0
 26  2  1  1
  4 26  1  0
 25 26  1  0
 26 27  1  0
 27 28  1  0
 24 29  1  0
 28 29  1  0
M  END
