x2910-x1308
     RDKit          3D

 45 49  0  0  0  0  0  0  0  0999 V2000
    7.3650   -1.2400   21.1380 N   0  0  0  0  0  0  0  0  0  0  0  0
   10.2580    2.5770   23.7070 C   0  0  0  0  0  0  0  0  0  0  0  0
   10.2820    1.3710   23.9710 O   0  0  0  0  0  0  0  0  0  0  0  0
    9.7620   -0.9630   23.1280 O   0  0  0  0  0  0  0  0  0  0  0  0
    5.2710   -2.4230   21.1370 O   0  0  0  0  0  0  0  0  0  0  0  0
    6.3380    1.3500   16.7160 O   0  0  0  0  0  0  0  0  0  0  0  0
    9.4890   -1.9660   22.2170 C   0  0  0  0  0  0  0  0  0  0  0  0
    8.0350   -2.1060   22.0390 C   0  0  2  0  0  0  0  0  0  0  0  0
    5.9510   -1.4480   20.8360 C   0  0  0  0  0  0  0  0  0  0  0  0
    7.2970   -3.7770   20.2810 C   0  0  0  0  0  0  0  0  0  0  0  0
    5.4280   -5.2220   19.9880 O   0  0  0  0  0  0  0  0  0  0  0  0
    0.6060   -1.1880   26.3220 Cl  0  0  0  0  0  0  0  0  0  0  0  0
    6.4250   -4.9180   20.6550 C   0  0  0  0  0  0  0  0  0  0  0  0
    6.5420   -5.0340   26.8620 O   0  0  0  0  0  0  0  0  0  0  0  0
    4.8270   -6.8030   26.3180 O   0  0  0  0  0  0  0  0  0  0  0  0
    5.4600   -5.5300   26.0430 S   0  0  0  0  0  0  0  0  0  0  0  0
    7.7840   -3.4750   21.6710 C   0  0  0  0  0  0  0  0  0  0  0  0
   11.2990    0.6640   23.3950 C   0  0  0  0  0  0  0  0  0  0  0  0
   11.0030   -0.5760   22.9530 C   0  0  0  0  0  0  0  0  0  0  0  0
   11.9480   -1.3830   22.3480 C   0  0  0  0  0  0  0  0  0  0  0  0
   13.1740   -0.9310   22.1900 C   0  0  0  0  0  0  0  0  0  0  0  0
   13.5180    0.3480   22.6290 C   0  0  0  0  0  0  0  0  0  0  0  0
   12.5680    1.1250   23.2350 C   0  0  0  0  0  0  0  0  0  0  0  0
    4.7530    1.6940   18.4630 N   0  0  0  0  0  0  0  0  0  0  0  0
    4.0530    1.4800   19.6940 C   0  0  0  0  0  0  0  0  0  0  0  0
    4.3850    0.4280   20.5870 C   0  0  0  0  0  0  0  0  0  0  0  0
    5.4120   -0.2780   20.0670 C   0  0  0  0  0  0  0  0  0  0  0  0
    6.0010    0.0380   18.8470 C   0  0  0  0  0  0  0  0  0  0  0  0
    5.7660    1.0640   17.8650 C   0  0  0  0  0  0  0  0  0  0  0  0
    3.0030    2.3400   20.0380 C   0  0  0  0  0  0  0  0  0  0  0  0
    2.3140    2.1670   21.2160 C   0  0  0  0  0  0  0  0  0  0  0  0
    2.6400    1.1520   22.0820 C   0  0  0  0  0  0  0  0  0  0  0  0
    3.6690    0.2690   21.7930 C   0  0  0  0  0  0  0  0  0  0  0  0
    6.6810   -5.6590   21.8210 N   0  0  0  0  0  0  0  0  0  0  0  0
    7.6760   -5.2150   22.8080 C   0  0  0  0  0  0  0  0  0  0  0  0
    7.0840   -4.6930   23.9780 C   0  0  0  0  0  0  0  0  0  0  0  0
    5.9570   -5.5630   24.4290 N   0  0  0  0  0  0  0  0  0  0  0  0
    5.0530   -5.9000   23.4920 C   0  0  0  0  0  0  0  0  0  0  0  0
    5.6560   -6.5160   22.3970 C   0  0  0  0  0  0  0  0  0  0  0  0
    4.4640   -2.9520   26.1560 C   0  0  0  0  0  0  0  0  0  0  0  0
    3.3660   -1.8790   26.2220 C   0  0  0  0  0  0  0  0  0  0  0  0
    1.9040   -2.3120   26.2510 C   0  0  0  0  0  0  0  0  0  0  0  0
    1.6790   -3.8320   26.2110 C   0  0  0  0  0  0  0  0  0  0  0  0
    2.6990   -4.7800   26.1490 C   0  0  0  0  0  0  0  0  0  0  0  0
    4.1620   -4.3160   26.1190 C   0  0  0  0  0  0  0  0  0  0  0  0
  2  3  1  0
  4  7  1  0
  1  8  1  0
  8  7  1  6
  1  9  1  0
  5  9  2  0
 10 13  1  0
 11 13  2  0
 14 16  2  0
 15 16  2  0
  8 17  1  0
 10 17  1  0
  3 18  1  0
  4 19  1  0
 18 19  2  0
 19 20  1  0
 20 21  2  0
 21 22  1  0
 18 23  1  0
 22 23  2  0
 24 25  2  0
 25 26  1  0
  9 27  1  0
 26 27  2  0
 27 28  1  0
  6 29  1  0
 24 29  1  0
 28 29  2  0
 25 30  1  0
 30 31  2  0
 31 32  1  0
 26 33  1  0
 32 33  2  0
 13 34  1  0
 34 35  1  0
 35 36  1  0
 16 37  1  0
 36 37  1  0
 37 38  1  0
 34 39  1  0
 38 39  1  0
 40 41  2  0
 12 42  1  0
 41 42  1  0
 42 43  2  0
 43 44  1  0
 16 45  1  0
 40 45  1  0
 44 45  2  0
M  END
