x2912-x0107
     RDKit          3D

 20 21  0  0  0  0  0  0  0  0999 V2000
    7.3020   -0.4050   21.1870 N   0  0  0  0  0  0  0  0  0  0  0  0
    7.6710   -0.7530   24.1830 C   0  0  0  0  0  0  0  0  0  0  0  0
    8.9370    1.2170   21.2880 O   0  0  0  0  0  0  0  0  0  0  0  0
    8.5550   -0.8940   22.9570 C   0  0  1  0  0  0  0  0  0  0  0  0
    8.2380    0.0180   21.7360 C   0  0  0  0  0  0  0  0  0  0  0  0
   14.0650   -1.4200   20.3270 N   0  0  0  0  0  0  0  0  0  0  0  0
    5.0600    1.2470   21.8570 C   0  0  0  0  0  0  0  0  0  0  0  0
   13.2610   -1.3590   21.3820 C   0  0  0  0  0  0  0  0  0  0  0  0
    6.3140    0.4960   17.6960 N   0  0  0  0  0  0  0  0  0  0  0  0
    5.1720    1.3590   17.9480 C   0  0  0  0  0  0  0  0  0  0  0  0
    4.7570    1.5980   19.3800 C   0  0  0  0  0  0  0  0  0  0  0  0
    5.4950    0.9880   20.3880 C   0  0  0  0  0  0  0  0  0  0  0  0
    6.5670    0.1920   20.0660 C   0  0  0  0  0  0  0  0  0  0  0  0
    6.9410   -0.0360   18.7570 C   0  0  0  0  0  0  0  0  0  0  0  0
   10.5460   -0.4990   24.4930 C   0  0  0  0  0  0  0  0  0  0  0  0
   11.9200   -0.4480   24.7650 C   0  0  0  0  0  0  0  0  0  0  0  0
   12.7830   -0.7310   23.7490 C   0  0  0  0  0  0  0  0  0  0  0  0
   12.3100   -1.0810   22.4330 C   0  0  0  0  0  0  0  0  0  0  0  0
   10.8780   -1.1240   22.2260 C   0  0  0  0  0  0  0  0  0  0  0  0
   10.0300   -0.8340   23.2410 C   0  0  0  0  0  0  0  0  0  0  0  0
  4  2  1  1
  1  5  1  0
  3  5  2  0
  4  5  1  0
  6  8  3  0
  9 10  2  0
 10 11  1  0
  7 12  1  0
 11 12  2  0
  1 13  1  0
 12 13  1  0
  9 14  1  0
 13 14  2  0
 15 16  2  0
 16 17  1  0
  8 18  1  0
 17 18  2  0
 18 19  1  0
  4 20  1  0
 15 20  1  0
 19 20  2  0
M  END
