x2910-x0107
     RDKit          3D

 28 31  0  0  0  0  0  0  0  0999 V2000
    7.3300   -1.3860   21.7280 N   0  0  0  0  0  0  0  0  0  0  0  0
   10.1490    2.4730   23.7390 C   0  0  0  0  0  0  0  0  0  0  0  0
    9.9040    1.3080   23.4440 O   0  0  0  0  0  0  0  0  0  0  0  0
    9.4980   -1.1690   22.4280 N   0  0  0  0  0  0  0  0  0  0  0  0
    5.4740   -2.6820   20.5370 O   0  0  0  0  0  0  0  0  0  0  0  0
    6.3100    1.3220   16.8110 O   0  0  0  0  0  0  0  0  0  0  0  0
    9.2710   -2.5750   22.3010 C   0  0  0  0  0  0  0  0  0  0  0  0
    7.7640   -2.5280   22.3840 C   0  0  0  0  0  0  0  0  0  0  0  0
    6.2060   -1.4770   20.7630 C   0  0  0  0  0  0  0  0  0  0  0  0
    8.4670   -0.5160   21.7070 C   0  0  0  0  0  0  0  0  0  0  0  0
    8.5530    0.5940   21.1930 O   0  0  0  0  0  0  0  0  0  0  0  0
    4.3070   -0.6250   22.6990 C   0  0  0  0  0  0  0  0  0  0  0  0
   11.0720    0.5840   23.0300 C   0  0  0  0  0  0  0  0  0  0  0  0
   10.8660   -0.7030   22.5110 C   0  0  0  0  0  0  0  0  0  0  0  0
   11.8790   -1.5100   22.0860 C   0  0  0  0  0  0  0  0  0  0  0  0
   13.1320   -1.0000   22.1750 C   0  0  0  0  0  0  0  0  0  0  0  0
   13.3270    0.2320   22.6610 C   0  0  0  0  0  0  0  0  0  0  0  0
   12.3290    1.0810   23.1140 C   0  0  0  0  0  0  0  0  0  0  0  0
    4.8080    1.8060   18.3600 N   0  0  0  0  0  0  0  0  0  0  0  0
    4.2220    1.5940   19.5370 C   0  0  0  0  0  0  0  0  0  0  0  0
    4.6170    0.5260   20.4630 C   0  0  0  0  0  0  0  0  0  0  0  0
    5.7050   -0.3280   19.9850 C   0  0  0  0  0  0  0  0  0  0  0  0
    6.2880   -0.0770   18.7520 C   0  0  0  0  0  0  0  0  0  0  0  0
    5.8050    0.9940   17.9990 C   0  0  0  0  0  0  0  0  0  0  0  0
    3.1680    2.4500   19.9000 C   0  0  0  0  0  0  0  0  0  0  0  0
    2.5250    2.2930   21.1000 C   0  0  0  0  0  0  0  0  0  0  0  0
    2.9170    1.2910   21.9750 C   0  0  0  0  0  0  0  0  0  0  0  0
    3.9410    0.4200   21.6810 C   0  0  0  0  0  0  0  0  0  0  0  0
  2  3  1  0
  4  7  1  0
  1  8  1  0
  7  8  1  0
  1  9  1  0
  5  9  2  0
  1 10  1  0
  4 10  1  0
 10 11  2  0
  3 13  1  0
  4 14  1  0
 13 14  2  0
 14 15  1  0
 15 16  2  0
 16 17  1  0
 13 18  1  0
 17 18  2  0
 19 20  2  0
 20 21  1  0
  9 22  1  0
 21 22  2  0
 22 23  1  0
  6 24  1  0
 19 24  1  0
 23 24  2  0
 20 25  1  0
 25 26  2  0
 26 27  1  0
 12 28  1  0
 21 28  1  0
 27 28  2  0
M  END
