x2910-x1358
     RDKit          3D

 43 47  0  0  0  0  0  0  0  0999 V2000
    7.2830   -1.5570   21.2900 N   0  0  0  0  0  0  0  0  0  0  0  0
   10.1760    2.3810   23.8060 C   0  0  0  0  0  0  0  0  0  0  0  0
    9.9120    1.2110   23.5510 O   0  0  0  0  0  0  0  0  0  0  0  0
    9.5200   -1.3060   22.7220 O   0  0  0  0  0  0  0  0  0  0  0  0
    5.1490   -2.4340   21.1020 O   0  0  0  0  0  0  0  0  0  0  0  0
    6.3010    1.3000   16.8570 O   0  0  0  0  0  0  0  0  0  0  0  0
    9.2810   -2.6010   22.1110 C   0  0  0  0  0  0  0  0  0  0  0  0
    5.9690   -1.5660   20.8370 C   0  0  0  0  0  0  0  0  0  0  0  0
    6.6220   -2.7380   25.9210 N   0  0  0  0  0  0  0  0  0  0  0  0
    5.2980   -0.3410   25.4010 O   0  0  0  0  0  0  0  0  0  0  0  0
    4.5550   -3.2830   25.7190 O   0  0  0  0  0  0  0  0  0  0  0  0
    5.4070   -4.3670   19.8420 O   0  0  0  0  0  0  0  0  0  0  0  0
    5.6880   -3.0770   25.2910 C   0  0  0  0  0  0  0  0  0  0  0  0
    6.5270   -3.8640   20.1230 C   0  0  0  0  0  0  0  0  0  0  0  0
    7.3780   -3.2250   19.0980 C   0  0  0  0  0  0  0  0  0  0  0  0
   11.0560    0.4630   23.1100 C   0  0  0  0  0  0  0  0  0  0  0  0
   10.8140   -0.8630   22.6770 C   0  0  0  0  0  0  0  0  0  0  0  0
   11.8280   -1.6600   22.2360 C   0  0  0  0  0  0  0  0  0  0  0  0
   13.0860   -1.1290   22.2240 C   0  0  0  0  0  0  0  0  0  0  0  0
   13.2960    0.1270   22.6340 C   0  0  0  0  0  0  0  0  0  0  0  0
   12.3140    0.9820   23.0950 C   0  0  0  0  0  0  0  0  0  0  0  0
    4.7550    1.8010   18.3890 N   0  0  0  0  0  0  0  0  0  0  0  0
    4.1360    1.5500   19.5490 C   0  0  0  0  0  0  0  0  0  0  0  0
    4.4810    0.4360   20.4490 C   0  0  0  0  0  0  0  0  0  0  0  0
    5.5730   -0.3840   19.9360 C   0  0  0  0  0  0  0  0  0  0  0  0
    6.1910   -0.1160   18.7430 C   0  0  0  0  0  0  0  0  0  0  0  0
    5.7450    0.9790   18.0200 C   0  0  0  0  0  0  0  0  0  0  0  0
    3.0910    2.4140   19.9210 C   0  0  0  0  0  0  0  0  0  0  0  0
    2.4080    2.2310   21.0960 C   0  0  0  0  0  0  0  0  0  0  0  0
    2.7410    1.1830   21.9450 C   0  0  0  0  0  0  0  0  0  0  0  0
    3.7510    0.3010   21.6420 C   0  0  0  0  0  0  0  0  0  0  0  0
    6.0050   -0.4850   26.5650 C   0  0  0  0  0  0  0  0  0  0  0  0
    6.6920   -1.6790   26.8690 C   0  0  0  0  0  0  0  0  0  0  0  0
    7.4100   -1.7780   28.0820 C   0  0  0  0  0  0  0  0  0  0  0  0
    7.4300   -0.6940   28.9740 C   0  0  0  0  0  0  0  0  0  0  0  0
    6.7420    0.4740   28.6570 C   0  0  0  0  0  0  0  0  0  0  0  0
    6.0390    0.5790   27.4670 C   0  0  0  0  0  0  0  0  0  0  0  0
    7.0710   -3.9250   21.4120 N   0  0  0  0  0  0  0  0  0  0  0  0
    7.7220   -2.7520   22.0350 C   0  0  2  0  0  0  0  0  0  0  0  0
    7.2740   -2.5210   23.4510 C   0  0  0  0  0  0  0  0  0  0  0  0
    5.9790   -3.2390   23.7920 C   0  0  1  0  0  0  0  0  0  0  0  0
    5.9520   -4.6920   23.3980 C   0  0  0  0  0  0  0  0  0  0  0  0
    6.8340   -5.1260   22.2110 C   0  0  0  0  0  0  0  0  0  0  0  0
  2  3  1  0
  4  7  1  0
  1  8  1  0
  5  8  2  0
  9 13  1  0
 11 13  2  0
 12 14  2  0
 14 15  1  0
  3 16  1  0
  4 17  1  0
 16 17  2  0
 17 18  1  0
 18 19  2  0
 19 20  1  0
 16 21  1  0
 20 21  2  0
 22 23  2  0
 23 24  1  0
  8 25  1  0
 24 25  2  0
 25 26  1  0
  6 27  1  0
 22 27  1  0
 26 27  2  0
 23 28  1  0
 28 29  2  0
 29 30  1  0
 24 31  1  0
 30 31  2  0
 10 32  1  0
  9 33  1  0
 32 33  2  0
 33 34  1  0
 34 35  2  0
 35 36  1  0
 32 37  1  0
 36 37  2  0
 14 38  1  0
 39  1  1  0
 39  7  1  1
 38 39  1  0
 39 40  1  0
 41 13  1  1
 40 41  1  0
 41 42  1  0
 38 43  1  0
 42 43  1  0
M  END
