x2912-x0734
     RDKit          3D

 39 42  0  0  0  0  0  0  0  0999 V2000
    7.1150   -0.7010   20.6280 N   0  0  0  0  0  0  0  0  0  0  0  0
    7.6400   -0.4880   23.8130 C   0  0  0  0  0  0  0  0  0  0  0  0
    8.7930    0.9800   21.1190 O   0  0  0  0  0  0  0  0  0  0  0  0
    8.5520   -0.9230   22.6610 C   0  0  1  0  0  0  0  0  0  0  0  0
    8.2240   -0.1000   21.4170 C   0  0  0  0  0  0  0  0  0  0  0  0
   13.9980   -1.4880   20.4100 N   0  0  0  0  0  0  0  0  0  0  0  0
    4.9180    1.1810   21.7840 C   0  0  0  0  0  0  0  0  0  0  0  0
   13.1900   -1.3550   21.4970 C   0  0  0  0  0  0  0  0  0  0  0  0
    5.1470   -4.9830   26.5660 N   0  0  0  0  0  0  0  0  0  0  0  0
    4.5390   -5.7870   25.8420 O   0  0  0  0  0  0  0  0  0  0  0  0
    4.6750   -3.8990   26.9380 O   0  0  0  0  0  0  0  0  0  0  0  0
    5.4390   -4.2430   19.7970 O   0  0  0  0  0  0  0  0  0  0  0  0
    6.5270   -4.0720   20.3680 C   0  0  0  0  0  0  0  0  0  0  0  0
    7.7060   -3.2350   19.8920 C   0  0  0  0  0  0  0  0  0  0  0  0
    7.3360   -1.7680   19.5670 C   0  0  0  0  0  0  0  0  0  0  0  0
    6.0200    0.8310   17.5990 N   0  0  0  0  0  0  0  0  0  0  0  0
    5.0600    1.6580   18.0280 C   0  0  0  0  0  0  0  0  0  0  0  0
    4.6880    1.7870   19.3610 C   0  0  0  0  0  0  0  0  0  0  0  0
    5.3260    1.0320   20.3490 C   0  0  0  0  0  0  0  0  0  0  0  0
    6.3240    0.1730   19.8890 C   0  0  0  0  0  0  0  0  0  0  0  0
    6.6110    0.1280   18.5360 C   0  0  0  0  0  0  0  0  0  0  0  0
   10.4600   -0.4640   24.3600 C   0  0  0  0  0  0  0  0  0  0  0  0
   11.8220   -0.4100   24.6640 C   0  0  0  0  0  0  0  0  0  0  0  0
   12.7300   -0.7080   23.7100 C   0  0  0  0  0  0  0  0  0  0  0  0
   12.2860   -1.0600   22.4880 C   0  0  0  0  0  0  0  0  0  0  0  0
   10.9570   -1.1340   22.1570 C   0  0  0  0  0  0  0  0  0  0  0  0
   10.0140   -0.8350   23.0770 C   0  0  0  0  0  0  0  0  0  0  0  0
    6.5940   -5.0550   26.5140 C   0  0  0  0  0  0  0  0  0  0  0  0
    7.2090   -4.6830   25.3360 C   0  0  0  0  0  0  0  0  0  0  0  0
    8.6170   -4.7500   25.2930 C   0  0  0  0  0  0  0  0  0  0  0  0
    9.3530   -5.1780   26.4040 C   0  0  0  0  0  0  0  0  0  0  0  0
    8.6940   -5.5460   27.5790 C   0  0  0  0  0  0  0  0  0  0  0  0
    7.3040   -5.4870   27.6420 C   0  0  0  0  0  0  0  0  0  0  0  0
    6.8440   -4.6610   21.5440 N   0  0  0  0  0  0  0  0  0  0  0  0
    6.1790   -5.7700   22.2130 C   0  0  0  0  0  0  0  0  0  0  0  0
    5.6110   -5.3180   23.5750 C   0  0  0  0  0  0  0  0  0  0  0  0
    6.4190   -4.2610   24.2660 N   0  0  0  0  0  0  0  0  0  0  0  0
    7.0360   -3.2100   23.4600 C   0  0  0  0  0  0  0  0  0  0  0  0
    7.7740   -3.9010   22.3620 C   0  0  0  0  0  0  0  0  0  0  0  0
  4  2  1  1
  1  5  1  0
  3  5  2  0
  4  5  1  0
  6  8  3  0
  9 10  2  0
  9 11  1  0
 12 13  2  0
 13 14  1  0
  1 15  1  0
 14 15  1  0
 16 17  2  0
 17 18  1  0
  7 19  1  0
 18 19  2  0
  1 20  1  0
 19 20  1  0
 16 21  1  0
 20 21  2  0
 22 23  2  0
 23 24  1  0
  8 25  1  0
 24 25  2  0
 25 26  1  0
  4 27  1  0
 22 27  1  0
 26 27  2  0
  9 28  1  0
 28 29  2  0
 29 30  1  0
 30 31  2  0
 31 32  1  0
 28 33  1  0
 32 33  2  0
 13 34  1  0
 34 35  1  0
 35 36  1  0
 29 37  1  0
 36 37  1  0
 37 38  1  0
 34 39  1  0
 38 39  1  0
M  CHG  2   9   1  11  -1
M  END
