x2910-x1351
     RDKit          3D

 42 46  0  0  0  0  0  0  0  0999 V2000
    7.1650   -1.7330   21.2120 N   0  0  0  0  0  0  0  0  0  0  0  0
   10.1500    2.3150   23.7670 C   0  0  0  0  0  0  0  0  0  0  0  0
    9.9710    1.1060   23.5560 O   0  0  0  0  0  0  0  0  0  0  0  0
    9.4820   -1.3150   22.6310 O   0  0  0  0  0  0  0  0  0  0  0  0
    5.0180   -2.5470   20.9010 O   0  0  0  0  0  0  0  0  0  0  0  0
    6.3560    1.2550   16.8620 O   0  0  0  0  0  0  0  0  0  0  0  0
    9.1410   -2.6410   22.1590 C   0  0  0  0  0  0  0  0  0  0  0  0
    5.8270   -1.6580   20.7300 C   0  0  0  0  0  0  0  0  0  0  0  0
    7.2850   -3.2160   19.1590 C   0  0  0  0  0  0  0  0  0  0  0  0
    5.4490   -4.5440   19.9130 O   0  0  0  0  0  0  0  0  0  0  0  0
    6.5080   -3.9260   20.2170 C   0  0  0  0  0  0  0  0  0  0  0  0
    5.9900   -2.9960   25.3580 N   0  0  0  0  0  0  0  0  0  0  0  0
    7.8600   -2.9710   26.7990 O   0  0  0  0  0  0  0  0  0  0  0  0
    6.8460   -2.4150   26.4070 C   0  0  0  0  0  0  0  0  0  0  0  0
   11.0450    0.4030   23.0860 C   0  0  0  0  0  0  0  0  0  0  0  0
   10.7850   -0.8900   22.5890 C   0  0  0  0  0  0  0  0  0  0  0  0
   11.8120   -1.6330   22.1000 C   0  0  0  0  0  0  0  0  0  0  0  0
   13.0930   -1.1440   22.0870 C   0  0  0  0  0  0  0  0  0  0  0  0
   13.3200    0.0940   22.5680 C   0  0  0  0  0  0  0  0  0  0  0  0
   12.3120    0.9080   23.0830 C   0  0  0  0  0  0  0  0  0  0  0  0
    4.7330    1.8930   18.4260 N   0  0  0  0  0  0  0  0  0  0  0  0
    4.0770    1.6050   19.6600 C   0  0  0  0  0  0  0  0  0  0  0  0
    4.3800    0.4420   20.5170 C   0  0  0  0  0  0  0  0  0  0  0  0
    5.4300   -0.4500   20.0040 C   0  0  0  0  0  0  0  0  0  0  0  0
    6.0710   -0.1590   18.7900 C   0  0  0  0  0  0  0  0  0  0  0  0
    5.7590    0.9610   18.0100 C   0  0  0  0  0  0  0  0  0  0  0  0
    3.0850    2.4780   20.0840 C   0  0  0  0  0  0  0  0  0  0  0  0
    2.4290    2.2610   21.2510 C   0  0  0  0  0  0  0  0  0  0  0  0
    2.6960    1.1950   22.0680 C   0  0  0  0  0  0  0  0  0  0  0  0
    3.6600    0.2800   21.7240 C   0  0  0  0  0  0  0  0  0  0  0  0
    6.9930   -3.9510   21.5400 N   0  0  0  0  0  0  0  0  0  0  0  0
    7.5660   -2.7850   22.0710 C   0  0  2  0  0  0  0  0  0  0  0  0
    7.2260   -2.5760   23.4110 C   0  0  0  0  0  0  0  0  0  0  0  0
    6.6660   -3.5800   24.1950 C   0  0  2  0  0  0  0  0  0  0  0  0
    5.8510   -4.4800   23.5280 C   0  0  0  0  0  0  0  0  0  0  0  0
    6.5230   -5.0130   22.4400 C   0  0  0  0  0  0  0  0  0  0  0  0
    7.0740   -0.7320   28.1890 C   0  0  0  0  0  0  0  0  0  0  0  0
    6.7010    0.6050   28.8330 C   0  0  0  0  0  0  0  0  0  0  0  0
    5.6790    1.5100   28.1770 C   0  0  0  0  0  0  0  0  0  0  0  0
    5.0390    1.0460   26.8640 C   0  0  0  0  0  0  0  0  0  0  0  0
    5.4030   -0.1870   26.3020 C   0  0  0  0  0  0  0  0  0  0  0  0
    6.4500   -1.1020   26.9850 C   0  0  0  0  0  0  0  0  0  0  0  0
  2  3  1  0
  4  7  1  0
  1  8  1  0
  5  8  2  0
  9 11  1  0
 10 11  2  0
 12 14  1  0
 13 14  2  0
  3 15  1  0
  4 16  1  0
 15 16  2  0
 16 17  1  0
 17 18  2  0
 18 19  1  0
 15 20  1  0
 19 20  2  0
 21 22  2  0
 22 23  1  0
  8 24  1  0
 23 24  2  0
 24 25  1  0
  6 26  1  0
 21 26  1  0
 25 26  2  0
 22 27  1  0
 27 28  2  0
 28 29  1  0
 23 30  1  0
 29 30  2  0
 11 31  1  0
 32  1  1  0
 32  7  1  1
 31 32  1  0
 32 33  1  0
 34 12  1  1
 33 34  1  0
 34 35  1  0
 31 36  1  0
 35 36  1  0
 37 38  2  0
 38 39  1  0
 39 40  2  0
 40 41  1  0
 14 42  1  0
 37 42  1  0
 41 42  2  0
M  END
