x2912-x2764
     RDKit          3D

 24 25  0  0  0  0  0  0  0  0999 V2000
    7.0390   -0.8740   21.0120 C   0  0  0  0  0  0  0  0  0  0  0  0
    8.0340   -0.7790   24.2460 C   0  0  0  0  0  0  0  0  0  0  0  0
    8.7150    0.7250   21.3410 O   0  0  0  0  0  0  0  0  0  0  0  0
    8.7430   -1.0730   22.9450 C   0  0  1  0  0  0  0  0  0  0  0  0
    8.2220   -0.3200   21.7460 C   0  0  0  0  0  0  0  0  0  0  0  0
   13.5940   -2.9250   20.6930 N   0  0  0  0  0  0  0  0  0  0  0  0
    5.5730    1.6510   21.7160 C   0  0  0  0  0  0  0  0  0  0  0  0
   13.1070   -2.1700   21.3840 C   0  0  0  0  0  0  0  0  0  0  0  0
    6.6450   -1.9970   21.3110 O   0  0  0  0  0  0  0  0  0  0  0  0
    7.9000    4.4210   22.5600 N   0  0  0  0  0  0  0  0  0  0  0  0
    6.9530    2.1000   22.2570 C   0  0  0  0  0  0  0  0  0  0  0  0
    6.9330    3.4070   22.7720 C   0  0  0  0  0  0  0  0  0  0  0  0
    5.9280    0.2760   17.6350 N   0  0  0  0  0  0  0  0  0  0  0  0
    5.2560    1.3890   17.9520 C   0  0  0  0  0  0  0  0  0  0  0  0
    5.1240    1.8410   19.2520 C   0  0  0  0  0  0  0  0  0  0  0  0
    5.7050    1.1300   20.3030 C   0  0  0  0  0  0  0  0  0  0  0  0
    6.3970   -0.0400   19.9800 C   0  0  0  0  0  0  0  0  0  0  0  0
    6.4800   -0.4190   18.6420 C   0  0  0  0  0  0  0  0  0  0  0  0
   10.7610    0.1490   23.7960 C   0  0  0  0  0  0  0  0  0  0  0  0
   12.1210    0.3960   23.8250 C   0  0  0  0  0  0  0  0  0  0  0  0
   12.9400   -0.3590   23.0280 C   0  0  0  0  0  0  0  0  0  0  0  0
   12.3800   -1.3340   22.2330 C   0  0  0  0  0  0  0  0  0  0  0  0
   11.0390   -1.5680   22.2070 C   0  0  0  0  0  0  0  0  0  0  0  0
   10.2160   -0.8340   22.9800 C   0  0  0  0  0  0  0  0  0  0  0  0
  4  2  1  1
  1  5  1  0
  3  5  2  0
  4  5  1  0
  6  8  3  0
  1  9  2  0
  7 11  1  0
 10 12  3  0
 11 12  1  0
 13 14  2  0
 14 15  1  0
  7 16  1  0
 15 16  2  0
  1 17  1  0
 16 17  1  0
 13 18  1  0
 17 18  2  0
 19 20  2  0
 20 21  1  0
  8 22  1  0
 21 22  2  0
 22 23  1  0
  4 24  1  0
 19 24  1  0
 23 24  2  0
M  END
