x2912-x0946
     RDKit          3D

 30 32  0  0  0  0  0  0  0  0999 V2000
    7.1250   -0.5640   21.3660 N   0  0  0  0  0  0  0  0  0  0  0  0
    8.1360   -0.9860   24.3620 C   0  0  0  0  0  0  0  0  0  0  0  0
    8.6870    1.0600   21.3780 O   0  0  0  0  0  0  0  0  0  0  0  0
    8.7040   -1.0840   22.9580 C   0  0  1  0  0  0  0  0  0  0  0  0
    8.1090   -0.1730   21.8430 C   0  0  0  0  0  0  0  0  0  0  0  0
   13.7730   -3.6870   20.6590 N   0  0  0  0  0  0  0  0  0  0  0  0
    4.9650    1.1930   21.8920 C   0  0  0  0  0  0  0  0  0  0  0  0
   13.1280   -2.7330   21.4180 C   0  0  0  0  0  0  0  0  0  0  0  0
    9.1790    5.7010   22.8940 N   0  0  0  0  0  0  0  0  0  0  0  0
    9.8280    5.6410   25.2690 O   0  0  0  0  0  0  0  0  0  0  0  0
   11.3750    6.7170   23.5830 O   0  0  0  0  0  0  0  0  0  0  0  0
   10.4370    5.6900   23.9650 S   0  0  0  0  0  0  0  0  0  0  0  0
    6.2820    0.3910   17.7380 N   0  0  0  0  0  0  0  0  0  0  0  0
    5.1850    1.2960   17.9860 C   0  0  0  0  0  0  0  0  0  0  0  0
    4.7570    1.5450   19.4080 C   0  0  0  0  0  0  0  0  0  0  0  0
    5.4370    0.9000   20.4400 C   0  0  0  0  0  0  0  0  0  0  0  0
    6.4860    0.0400   20.1790 C   0  0  0  0  0  0  0  0  0  0  0  0
    6.9240   -0.2370   18.8900 C   0  0  0  0  0  0  0  0  0  0  0  0
   10.4920    0.5780   23.0230 C   0  0  0  0  0  0  0  0  0  0  0  0
   11.9130    0.6080   22.7610 C   0  0  0  0  0  0  0  0  0  0  0  0
   12.7650   -0.3770   22.3130 C   0  0  0  0  0  0  0  0  0  0  0  0
   12.2990   -1.6680   22.0040 C   0  0  0  0  0  0  0  0  0  0  0  0
   10.9230   -1.7850   22.2960 C   0  0  0  0  0  0  0  0  0  0  0  0
   10.1560   -0.7670   22.7600 C   0  0  0  0  0  0  0  0  0  0  0  0
   12.4710    1.8200   22.8060 C   0  0  0  0  0  0  0  0  0  0  0  0
   13.1280    3.0310   22.8020 C   0  0  0  0  0  0  0  0  0  0  0  0
   12.4770    4.1420   23.1630 C   0  0  0  0  0  0  0  0  0  0  0  0
   11.1630    4.1800   23.5530 C   0  0  0  0  0  0  0  0  0  0  0  0
   10.4750    2.9800   23.5650 C   0  0  0  0  0  0  0  0  0  0  0  0
   11.1560    1.8350   23.1730 C   0  0  0  0  0  0  0  0  0  0  0  0
  4  2  1  1
  1  5  1  0
  3  5  2  0
  4  5  1  0
  6  8  3  0
 12  9  1  0
 10 12  2  0
 11 12  2  0
 13 14  2  0
 14 15  1  0
  7 16  1  0
 15 16  2  0
  1 17  1  0
 16 17  1  0
 13 18  1  0
 17 18  2  0
 19 20  2  0
 20 21  1  0
  8 22  1  0
 21 22  2  0
 22 23  1  0
  4 24  1  0
 19 24  1  0
 23 24  2  0
 25 26  2  0
 26 27  1  0
 12 28  1  0
 27 28  2  0
 28 29  1  0
 19 30  1  0
 25 30  1  0
 29 30  2  0
M  END
