x2910-x0678
     RDKit          3D

 27 30  0  0  0  0  0  0  0  0999 V2000
    7.1560   -1.4620   21.9910 N   0  0  0  0  0  0  0  0  0  0  0  0
   10.4560    2.7720   23.4560 C   0  0  0  0  0  0  0  0  0  0  0  0
   10.1310    1.5910   23.6140 O   0  0  0  0  0  0  0  0  0  0  0  0
    9.3800   -1.2320   22.4560 N   0  0  0  0  0  0  0  0  0  0  0  0
    5.3610   -2.8080   20.7340 O   0  0  0  0  0  0  0  0  0  0  0  0
    6.3690    1.2800   16.8810 O   0  0  0  0  0  0  0  0  0  0  0  0
    9.1290   -2.6370   22.6520 C   0  0  0  0  0  0  0  0  0  0  0  0
    7.6180   -2.6480   22.6300 C   0  0  0  0  0  0  0  0  0  0  0  0
    6.0950   -1.6070   20.9590 C   0  0  0  0  0  0  0  0  0  0  0  0
    8.3530    0.4010   21.1230 O   0  0  0  0  0  0  0  0  0  0  0  0
    8.2890   -0.6410   21.7670 C   0  0  0  0  0  0  0  0  0  0  0  0
   11.0560    0.6970   23.1160 C   0  0  0  0  0  0  0  0  0  0  0  0
   10.6940   -0.6720   22.5620 C   0  0  0  0  0  0  0  0  0  0  0  0
   11.7740   -1.4380   22.1150 C   0  0  0  0  0  0  0  0  0  0  0  0
   13.0560   -1.0010   22.1520 C   0  0  0  0  0  0  0  0  0  0  0  0
   13.3530    0.2510   22.6460 C   0  0  0  0  0  0  0  0  0  0  0  0
   12.4400    1.0960   23.1200 C   0  0  0  0  0  0  0  0  0  0  0  0
    4.8210    1.7750   18.3870 N   0  0  0  0  0  0  0  0  0  0  0  0
    4.1260    1.5280   19.6570 C   0  0  0  0  0  0  0  0  0  0  0  0
    4.5620    0.4440   20.4590 C   0  0  0  0  0  0  0  0  0  0  0  0
    5.6810   -0.4500   20.0710 C   0  0  0  0  0  0  0  0  0  0  0  0
    6.2790   -0.1010   18.7930 C   0  0  0  0  0  0  0  0  0  0  0  0
    5.8180    0.9680   18.0490 C   0  0  0  0  0  0  0  0  0  0  0  0
    3.0660    2.3610   20.0280 C   0  0  0  0  0  0  0  0  0  0  0  0
    2.4160    2.1200   21.2320 C   0  0  0  0  0  0  0  0  0  0  0  0
    2.8230    1.0910   22.0160 C   0  0  0  0  0  0  0  0  0  0  0  0
    3.8650    0.2470   21.6810 C   0  0  0  0  0  0  0  0  0  0  0  0
  2  3  1  0
  4  7  1  0
  1  8  1  0
  7  8  1  0
  1  9  1  0
  5  9  2  0
  1 11  1  0
  4 11  1  0
 10 11  2  0
  3 12  1  0
  4 13  1  0
 12 13  2  0
 13 14  1  0
 14 15  2  0
 15 16  1  0
 12 17  1  0
 16 17  2  0
 18 19  2  0
 19 20  1  0
  9 21  1  0
 20 21  2  0
 21 22  1  0
  6 23  1  0
 18 23  1  0
 22 23  2  0
 19 24  1  0
 24 25  2  0
 25 26  1  0
 20 27  1  0
 26 27  2  0
M  END
