x2910-x0769
     RDKit          3D

 45 49  0  0  0  0  0  0  0  0999 V2000
    7.3650   -1.2270   21.2540 N   0  0  0  0  0  0  0  0  0  0  0  0
   10.2930    2.7600   23.6230 C   0  0  0  0  0  0  0  0  0  0  0  0
   10.2190    1.5350   23.7600 O   0  0  0  0  0  0  0  0  0  0  0  0
    9.7580   -0.8690   23.1530 O   0  0  0  0  0  0  0  0  0  0  0  0
    5.3100   -2.4730   21.0960 O   0  0  0  0  0  0  0  0  0  0  0  0
    6.3430    1.3460   16.7220 O   0  0  0  0  0  0  0  0  0  0  0  0
    9.5120   -1.9290   22.2990 C   0  0  0  0  0  0  0  0  0  0  0  0
    8.0670   -2.1390   22.0960 C   0  0  2  0  0  0  0  0  0  0  0  0
    5.9760   -1.4720   20.8590 C   0  0  0  0  0  0  0  0  0  0  0  0
    5.9770   -5.0530   26.8400 O   0  0  0  0  0  0  0  0  0  0  0  0
    3.9950   -6.4770   26.0820 O   0  0  0  0  0  0  0  0  0  0  0  0
    5.2810   -4.7600   19.9390 O   0  0  0  0  0  0  0  0  0  0  0  0
    6.3450   -4.6830   20.5730 C   0  0  0  0  0  0  0  0  0  0  0  0
    7.3730   -3.6860   20.2270 C   0  0  0  0  0  0  0  0  0  0  0  0
    5.7030   -2.4720   25.9180 F   0  0  0  0  0  0  0  0  0  0  0  0
    4.8130   -5.2950   25.9150 S   0  0  0  0  0  0  0  0  0  0  0  0
    7.9490   -3.4920   21.6000 C   0  0  0  0  0  0  0  0  0  0  0  0
   11.2710    0.8050   23.2830 C   0  0  0  0  0  0  0  0  0  0  0  0
   11.0040   -0.4790   22.9660 C   0  0  0  0  0  0  0  0  0  0  0  0
   11.9730   -1.3310   22.4720 C   0  0  0  0  0  0  0  0  0  0  0  0
   13.2000   -0.8750   22.3010 C   0  0  0  0  0  0  0  0  0  0  0  0
   13.5200    0.4480   22.6130 C   0  0  0  0  0  0  0  0  0  0  0  0
   12.5480    1.2820   23.1050 C   0  0  0  0  0  0  0  0  0  0  0  0
    4.7670    1.6720   18.4740 N   0  0  0  0  0  0  0  0  0  0  0  0
    4.0700    1.4550   19.7070 C   0  0  0  0  0  0  0  0  0  0  0  0
    4.4070    0.4050   20.5990 C   0  0  0  0  0  0  0  0  0  0  0  0
    5.4370   -0.3010   20.0810 C   0  0  0  0  0  0  0  0  0  0  0  0
    6.0240    0.0190   18.8550 C   0  0  0  0  0  0  0  0  0  0  0  0
    5.7800    1.0470   17.8760 C   0  0  0  0  0  0  0  0  0  0  0  0
    3.0170    2.3120   20.0490 C   0  0  0  0  0  0  0  0  0  0  0  0
    2.3290    2.1400   21.2270 C   0  0  0  0  0  0  0  0  0  0  0  0
    2.6580    1.1270   22.0950 C   0  0  0  0  0  0  0  0  0  0  0  0
    3.6910    0.2450   21.8080 C   0  0  0  0  0  0  0  0  0  0  0  0
    4.3750   -2.5920   26.0040 C   0  0  0  0  0  0  0  0  0  0  0  0
    3.7850   -3.8730   26.0180 C   0  0  0  0  0  0  0  0  0  0  0  0
    2.3840   -3.9950   26.1180 C   0  0  0  0  0  0  0  0  0  0  0  0
    1.5380   -2.8730   26.2000 C   0  0  0  0  0  0  0  0  0  0  0  0
    2.0700   -1.5890   26.1820 C   0  0  0  0  0  0  0  0  0  0  0  0
    3.5890   -1.4320   26.0790 C   0  0  0  0  0  0  0  0  0  0  0  0
    6.5570   -5.5310   21.6810 N   0  0  0  0  0  0  0  0  0  0  0  0
    5.6130   -6.5200   22.1300 C   0  0  0  0  0  0  0  0  0  0  0  0
    4.6860   -5.9940   23.2390 C   0  0  0  0  0  0  0  0  0  0  0  0
    5.4190   -5.3080   24.3300 N   0  0  0  0  0  0  0  0  0  0  0  0
    6.5750   -4.4450   23.9670 C   0  0  0  0  0  0  0  0  0  0  0  0
    7.3900   -5.0680   22.8070 C   0  0  0  0  0  0  0  0  0  0  0  0
  2  3  1  0
  4  7  1  0
  1  8  1  0
  8  7  1  6
  1  9  1  0
  5  9  2  0
 12 13  2  0
 13 14  1  0
 10 16  2  0
 11 16  2  0
  8 17  1  0
 14 17  1  0
  3 18  1  0
  4 19  1  0
 18 19  2  0
 19 20  1  0
 20 21  2  0
 21 22  1  0
 18 23  1  0
 22 23  2  0
 24 25  2  0
 25 26  1  0
  9 27  1  0
 26 27  2  0
 27 28  1  0
  6 29  1  0
 24 29  1  0
 28 29  2  0
 25 30  1  0
 30 31  2  0
 31 32  1  0
 26 33  1  0
 32 33  2  0
 15 34  1  0
 16 35  1  0
 34 35  2  0
 35 36  1  0
 36 37  2  0
 37 38  1  0
 34 39  1  0
 38 39  2  0
 13 40  1  0
 40 41  1  0
 41 42  1  0
 16 43  1  0
 42 43  1  0
 43 44  1  0
 40 45  1  0
 44 45  1  0
M  END
