x2912-x2646
     RDKit          3D

 20 21  0  0  0  0  0  0  0  0999 V2000
    7.3000   -0.3960   21.1920 N   0  0  0  0  0  0  0  0  0  0  0  0
    7.6670   -0.7600   24.1840 C   0  0  0  0  0  0  0  0  0  0  0  0
    8.9410    1.2170   21.2940 O   0  0  0  0  0  0  0  0  0  0  0  0
    8.5530   -0.8920   22.9610 C   0  0  1  0  0  0  0  0  0  0  0  0
    8.2390    0.0220   21.7420 C   0  0  0  0  0  0  0  0  0  0  0  0
   14.0590   -1.4430   20.3400 N   0  0  0  0  0  0  0  0  0  0  0  0
    5.0550    1.2480   21.8600 C   0  0  0  0  0  0  0  0  0  0  0  0
   13.2540   -1.3690   21.3910 C   0  0  0  0  0  0  0  0  0  0  0  0
    6.3180    0.4940   17.7020 N   0  0  0  0  0  0  0  0  0  0  0  0
    5.1740    1.3530   17.9480 C   0  0  0  0  0  0  0  0  0  0  0  0
    4.7550    1.5920   19.3780 C   0  0  0  0  0  0  0  0  0  0  0  0
    5.4900    0.9870   20.3870 C   0  0  0  0  0  0  0  0  0  0  0  0
    6.5660    0.1930   20.0710 C   0  0  0  0  0  0  0  0  0  0  0  0
    6.9440   -0.0350   18.7640 C   0  0  0  0  0  0  0  0  0  0  0  0
   10.5470   -0.4910   24.4950 C   0  0  0  0  0  0  0  0  0  0  0  0
   11.9210   -0.4420   24.7680 C   0  0  0  0  0  0  0  0  0  0  0  0
   12.7810   -0.7310   23.7520 C   0  0  0  0  0  0  0  0  0  0  0  0
   12.3040   -1.0860   22.4380 C   0  0  0  0  0  0  0  0  0  0  0  0
   10.8720   -1.1280   22.2320 C   0  0  0  0  0  0  0  0  0  0  0  0
   10.0280   -0.8310   23.2470 C   0  0  0  0  0  0  0  0  0  0  0  0
  4  2  1  1
  1  5  1  0
  3  5  2  0
  4  5  1  0
  6  8  3  0
  9 10  2  0
 10 11  1  0
  7 12  1  0
 11 12  2  0
  1 13  1  0
 12 13  1  0
  9 14  1  0
 13 14  2  0
 15 16  2  0
 16 17  1  0
  8 18  1  0
 17 18  2  0
 18 19  1  0
  4 20  1  0
 15 20  1  0
 19 20  2  0
M  END
