x2912-x2600
     RDKit          3D

 20 21  0  0  0  0  0  0  0  0999 V2000
    7.2950   -0.3990   21.1930 N   0  0  0  0  0  0  0  0  0  0  0  0
    7.6690   -0.7550   24.1920 C   0  0  0  0  0  0  0  0  0  0  0  0
    8.9380    1.2170   21.2940 O   0  0  0  0  0  0  0  0  0  0  0  0
    8.5500   -0.8930   22.9630 C   0  0  1  0  0  0  0  0  0  0  0  0
    8.2350    0.0190   21.7420 C   0  0  0  0  0  0  0  0  0  0  0  0
   14.0580   -1.4370   20.3400 N   0  0  0  0  0  0  0  0  0  0  0  0
    5.0470    1.2440   21.8620 C   0  0  0  0  0  0  0  0  0  0  0  0
   13.2540   -1.3650   21.3920 C   0  0  0  0  0  0  0  0  0  0  0  0
    6.3130    0.4940   17.7020 N   0  0  0  0  0  0  0  0  0  0  0  0
    5.1680    1.3520   17.9500 C   0  0  0  0  0  0  0  0  0  0  0  0
    4.7450    1.5940   19.3790 C   0  0  0  0  0  0  0  0  0  0  0  0
    5.4840    0.9880   20.3920 C   0  0  0  0  0  0  0  0  0  0  0  0
    6.5610    0.1950   20.0730 C   0  0  0  0  0  0  0  0  0  0  0  0
    6.9390   -0.0330   18.7680 C   0  0  0  0  0  0  0  0  0  0  0  0
   10.5430   -0.4960   24.4960 C   0  0  0  0  0  0  0  0  0  0  0  0
   11.9170   -0.4470   24.7690 C   0  0  0  0  0  0  0  0  0  0  0  0
   12.7800   -0.7320   23.7540 C   0  0  0  0  0  0  0  0  0  0  0  0
   12.3010   -1.0840   22.4380 C   0  0  0  0  0  0  0  0  0  0  0  0
   10.8710   -1.1270   22.2300 C   0  0  0  0  0  0  0  0  0  0  0  0
   10.0260   -0.8330   23.2480 C   0  0  0  0  0  0  0  0  0  0  0  0
  4  2  1  1
  1  5  1  0
  3  5  2  0
  4  5  1  0
  6  8  3  0
  9 10  2  0
 10 11  1  0
  7 12  1  0
 11 12  2  0
  1 13  1  0
 12 13  1  0
  9 14  1  0
 13 14  2  0
 15 16  2  0
 16 17  1  0
  8 18  1  0
 17 18  2  0
 18 19  1  0
  4 20  1  0
 15 20  1  0
 19 20  2  0
M  END
