x2912-x0678
     RDKit          3D

 20 21  0  0  0  0  0  0  0  0999 V2000
    7.0880   -0.5070   21.1200 N   0  0  0  0  0  0  0  0  0  0  0  0
    8.2560   -1.0690   24.3570 C   0  0  0  0  0  0  0  0  0  0  0  0
    8.8490    0.9620   21.3770 O   0  0  0  0  0  0  0  0  0  0  0  0
    8.6050   -0.8300   22.9850 C   0  0  1  0  0  0  0  0  0  0  0  0
    8.2140   -0.0230   21.7470 C   0  0  0  0  0  0  0  0  0  0  0  0
   13.5830   -3.1850   20.6220 N   0  0  0  0  0  0  0  0  0  0  0  0
    4.9330    1.2160   21.7230 C   0  0  0  0  0  0  0  0  0  0  0  0
   13.0280   -2.2160   21.4130 C   0  0  0  0  0  0  0  0  0  0  0  0
    6.2320    0.4910   17.6860 N   0  0  0  0  0  0  0  0  0  0  0  0
    5.2120    1.3150   17.9140 C   0  0  0  0  0  0  0  0  0  0  0  0
    4.6870    1.6220   19.3010 C   0  0  0  0  0  0  0  0  0  0  0  0
    5.3830    0.9620   20.3140 C   0  0  0  0  0  0  0  0  0  0  0  0
    6.4330    0.1180   20.0460 C   0  0  0  0  0  0  0  0  0  0  0  0
    6.8080   -0.0800   18.7360 C   0  0  0  0  0  0  0  0  0  0  0  0
   10.6960    0.4060   23.7800 C   0  0  0  0  0  0  0  0  0  0  0  0
   12.0800    0.6070   23.7930 C   0  0  0  0  0  0  0  0  0  0  0  0
   12.8900   -0.2250   23.0310 C   0  0  0  0  0  0  0  0  0  0  0  0
   12.3270   -1.3120   22.2190 C   0  0  0  0  0  0  0  0  0  0  0  0
   10.8930   -1.4340   22.2750 C   0  0  0  0  0  0  0  0  0  0  0  0
   10.0920   -0.6080   23.0240 C   0  0  0  0  0  0  0  0  0  0  0  0
  4  2  1  1
  1  5  1  0
  3  5  2  0
  4  5  1  0
  6  8  3  0
  9 10  2  0
 10 11  1  0
  7 12  1  0
 11 12  2  0
  1 13  1  0
 12 13  1  0
  9 14  1  0
 13 14  2  0
 15 16  2  0
 16 17  1  0
  8 18  1  0
 17 18  2  0
 18 19  1  0
  4 20  1  0
 15 20  1  0
 19 20  2  0
M  END
