x2912-x1375
     RDKit          3D

 40 43  0  0  0  0  0  0  0  0999 V2000
    7.3370   -0.4300   20.9660 N   0  0  0  0  0  0  0  0  0  0  0  0
    7.9480   -0.4930   24.3330 C   0  0  0  0  0  0  0  0  0  0  0  0
    9.0380    1.1560   21.2670 O   0  0  0  0  0  0  0  0  0  0  0  0
    8.5840   -0.4750   23.0430 C   0  0  1  0  0  0  0  0  0  0  0  0
    8.3760    0.1840   21.6660 C   0  0  0  0  0  0  0  0  0  0  0  0
   13.8910   -1.6640   20.5040 N   0  0  0  0  0  0  0  0  0  0  0  0
    4.9890    1.3020   21.7710 C   0  0  0  0  0  0  0  0  0  0  0  0
   13.0650   -1.4280   21.5150 C   0  0  0  0  0  0  0  0  0  0  0  0
    5.7730   -4.7240   20.0550 O   0  0  0  0  0  0  0  0  0  0  0  0
    6.6420   -4.4420   20.9750 C   0  0  0  0  0  0  0  0  0  0  0  0
    8.0570   -3.9640   20.7550 C   0  0  0  0  0  0  0  0  0  0  0  0
    6.3800   -4.5150   22.3900 N   0  0  0  0  0  0  0  0  0  0  0  0
    2.2180   -6.9310   23.8890 O   0  0  0  0  0  0  0  0  0  0  0  0
    4.4760   -7.7830   24.6870 O   0  0  0  0  0  0  0  0  0  0  0  0
   10.7380   -4.5090   25.8640 F   0  0  0  0  0  0  0  0  0  0  0  0
    7.0550   -1.8010   21.1390 C   0  0  0  0  0  0  0  0  0  0  0  0
    8.2080   -2.5320   21.2740 C   0  0  0  0  0  0  0  0  0  0  0  0
    6.2720    0.5690   17.6330 N   0  0  0  0  0  0  0  0  0  0  0  0
    5.1590    1.4020   18.0290 C   0  0  0  0  0  0  0  0  0  0  0  0
    4.7770    1.6130   19.2960 C   0  0  0  0  0  0  0  0  0  0  0  0
    5.4460    1.0360   20.3900 C   0  0  0  0  0  0  0  0  0  0  0  0
    6.5320    0.2310   20.0430 C   0  0  0  0  0  0  0  0  0  0  0  0
    6.9230    0.0070   18.6610 C   0  0  0  0  0  0  0  0  0  0  0  0
   10.6470   -0.1850   24.5880 C   0  0  0  0  0  0  0  0  0  0  0  0
   12.0160   -0.2880   24.7320 C   0  0  0  0  0  0  0  0  0  0  0  0
   12.7870   -0.7000   23.7030 C   0  0  0  0  0  0  0  0  0  0  0  0
   12.2360   -1.0330   22.4980 C   0  0  0  0  0  0  0  0  0  0  0  0
   10.8780   -0.9530   22.3130 C   0  0  0  0  0  0  0  0  0  0  0  0
   10.0660   -0.5220   23.3640 C   0  0  0  0  0  0  0  0  0  0  0  0
    7.9510   -3.2880   23.8970 C   0  0  0  0  0  0  0  0  0  0  0  0
    9.0410   -3.2900   24.7710 C   0  0  0  0  0  0  0  0  0  0  0  0
    9.6980   -4.4910   25.0230 C   0  0  0  0  0  0  0  0  0  0  0  0
    9.2850   -5.6730   24.4100 C   0  0  0  0  0  0  0  0  0  0  0  0
    8.1970   -5.6540   23.5370 C   0  0  0  0  0  0  0  0  0  0  0  0
    7.5140   -4.4700   23.2710 C   0  0  0  0  0  0  0  0  0  0  0  0
    4.9670   -4.6000   24.3210 C   0  0  0  0  0  0  0  0  0  0  0  0
    5.3920   -5.2890   23.1870 C   0  0  1  0  0  0  0  0  0  0  0  0
    4.3490   -6.1310   22.5640 C   0  0  0  0  0  0  0  0  0  0  0  0
    3.6310   -6.7060   24.0780 S   0  0  0  0  0  0  0  0  0  0  0  0
    3.9800   -5.2200   25.0010 C   0  0  0  0  0  0  0  0  0  0  0  0
  4  2  1  1
  1  5  1  0
  3  5  2  0
  4  5  1  0
  6  8  3  0
  9 10  2  0
 10 11  1  0
 10 12  1  0
  1 16  1  0
 11 17  1  0
 16 17  1  0
 18 19  2  0
 19 20  1  0
  7 21  1  0
 20 21  2  0
  1 22  1  0
 21 22  1  0
 18 23  1  0
 22 23  2  0
 24 25  2  0
 25 26  1  0
  8 27  1  0
 26 27  2  0
 27 28  1  0
  4 29  1  0
 24 29  1  0
 28 29  2  0
 30 31  2  0
 15 32  1  0
 31 32  1  0
 32 33  2  0
 33 34  1  0
 12 35  1  0
 30 35  1  0
 34 35  2  0
 37 12  1  6
 36 37  1  0
 37 38  1  0
 39 13  1  0
 14 39  1  0
 38 39  1  0
 36 40  2  0
 39 40  1  0
M  END
