x2912-x2964
     RDKit          3D

 21 22  0  0  0  0  0  0  0  0999 V2000
    7.1240   -0.2760   21.3040 N   0  0  0  0  0  0  0  0  0  0  0  0
    7.8010   -0.6910   24.2300 C   0  0  0  0  0  0  0  0  0  0  0  0
    8.7990    1.3080   21.2310 O   0  0  0  0  0  0  0  0  0  0  0  0
    8.5680   -0.7630   22.9240 C   0  0  1  0  0  0  0  0  0  0  0  0
    8.1140    0.1310   21.7500 C   0  0  0  0  0  0  0  0  0  0  0  0
   13.7000   -2.9040   20.5930 N   0  0  0  0  0  0  0  0  0  0  0  0
    4.7980    1.2480   21.6780 C   0  0  0  0  0  0  0  0  0  0  0  0
   13.0770   -2.0280   21.4020 C   0  0  0  0  0  0  0  0  0  0  0  0
    3.4720    2.2130   19.2570 N   0  0  0  0  0  0  0  0  0  0  0  0
    6.3900    0.3830   17.6760 N   0  0  0  0  0  0  0  0  0  0  0  0
    5.2020    1.1690   17.8230 C   0  0  0  0  0  0  0  0  0  0  0  0
    4.6020    1.4830   19.1720 C   0  0  0  0  0  0  0  0  0  0  0  0
    5.3340    0.9500   20.2490 C   0  0  0  0  0  0  0  0  0  0  0  0
    6.4800    0.1970   20.0860 C   0  0  0  0  0  0  0  0  0  0  0  0
    7.0130   -0.1060   18.8650 C   0  0  0  0  0  0  0  0  0  0  0  0
   10.6000    0.4480   23.8160 C   0  0  0  0  0  0  0  0  0  0  0  0
   11.9790    0.6730   23.8800 C   0  0  0  0  0  0  0  0  0  0  0  0
   12.8090   -0.1160   23.1080 C   0  0  0  0  0  0  0  0  0  0  0  0
   12.2680   -1.1620   22.2470 C   0  0  0  0  0  0  0  0  0  0  0  0
   10.8370   -1.3060   22.2580 C   0  0  0  0  0  0  0  0  0  0  0  0
   10.0360   -0.5280   23.0110 C   0  0  0  0  0  0  0  0  0  0  0  0
  4  2  1  1
  1  5  1  0
  3  5  2  0
  4  5  1  0
  6  8  3  0
 10 11  2  0
  9 12  1  0
 11 12  1  0
  7 13  1  0
 12 13  2  0
  1 14  1  0
 13 14  1  0
 10 15  1  0
 14 15  2  0
 16 17  2  0
 17 18  1  0
  8 19  1  0
 18 19  2  0
 19 20  1  0
  4 21  1  0
 16 21  1  0
 20 21  2  0
M  END
