x2912
     RDKit          3D

 20 21  0  0  0  0  0  0  0  0999 V2000
    7.2200   -0.5530   21.0180 N   0  0  0  0  0  0  0  0  0  0  0  0
    8.0560   -0.8130   24.0080 C   0  0  0  0  0  0  0  0  0  0  0  0
    9.0480    0.7780   21.1210 O   0  0  0  0  0  0  0  0  0  0  0  0
    8.8850   -1.0130   22.7330 C   0  0  1  0  0  0  0  0  0  0  0  0
    6.4120    0.4950   17.5960 N   0  0  0  0  0  0  0  0  0  0  0  0
    8.4010   -0.1750   21.5470 C   0  0  0  0  0  0  0  0  0  0  0  0
   14.2870   -1.8490   20.3800 N   0  0  0  0  0  0  0  0  0  0  0  0
    6.5920    0.1220   19.9580 C   0  0  0  0  0  0  0  0  0  0  0  0
    7.0570   -0.0150   18.6450 C   0  0  0  0  0  0  0  0  0  0  0  0
    5.2860    1.1810   17.8320 C   0  0  0  0  0  0  0  0  0  0  0  0
    4.7740    1.3980   19.0940 C   0  0  0  0  0  0  0  0  0  0  0  0
    5.4330    0.8780   20.1990 C   0  0  0  0  0  0  0  0  0  0  0  0
    4.9590    1.1980   21.5950 C   0  0  0  0  0  0  0  0  0  0  0  0
   10.3670   -0.7040   22.9190 C   0  0  0  0  0  0  0  0  0  0  0  0
   10.8070    0.1720   23.9100 C   0  0  0  0  0  0  0  0  0  0  0  0
   12.1540    0.4790   24.0350 C   0  0  0  0  0  0  0  0  0  0  0  0
   13.0750   -0.0600   23.1520 C   0  0  0  0  0  0  0  0  0  0  0  0
   12.6480   -0.9390   22.1590 C   0  0  0  0  0  0  0  0  0  0  0  0
   13.5780   -1.4370   21.1770 C   0  0  0  0  0  0  0  0  0  0  0  0
   11.3000   -1.2750   22.0600 C   0  0  0  0  0  0  0  0  0  0  0  0
  4  2  1  1
  1  6  1  0
  3  6  2  0
  4  6  1  0
  1  8  1  0
  5  9  2  0
  8  9  1  0
  5 10  1  0
 10 11  2  0
  8 12  2  0
 11 12  1  0
 12 13  1  0
  4 14  1  0
 14 15  2  0
 15 16  1  0
 16 17  2  0
 17 18  1  0
  7 19  3  0
 18 19  1  0
 14 20  1  0
 18 20  2  0
M  END
