x2912-x0820
     RDKit          3D

 37 40  0  0  0  0  0  0  0  0999 V2000
    7.3350   -0.2770   21.2380 N   0  0  0  0  0  0  0  0  0  0  0  0
    7.8950   -0.4680   24.2750 C   0  0  0  0  0  0  0  0  0  0  0  0
    8.9260    1.3950   21.2630 O   0  0  0  0  0  0  0  0  0  0  0  0
    8.6270   -0.6950   22.9650 C   0  0  2  0  0  0  0  0  0  0  0  0
    8.2690    0.1920   21.7480 C   0  0  0  0  0  0  0  0  0  0  0  0
   14.0330   -1.4750   20.3760 N   0  0  0  0  0  0  0  0  0  0  0  0
    5.0280    1.3300   21.7670 C   0  0  0  0  0  0  0  0  0  0  0  0
   13.2600   -1.3260   21.4460 C   0  0  0  0  0  0  0  0  0  0  0  0
    6.6970   -5.0070   21.8650 N   0  0  0  0  0  0  0  0  0  0  0  0
    7.1110   -2.6320   22.4580 C   0  0  0  0  0  0  0  0  0  0  0  0
    5.3630   -5.3420   20.0270 O   0  0  0  0  0  0  0  0  0  0  0  0
    7.1050   -4.1030   22.7760 C   0  0  1  0  0  0  0  0  0  0  0  0
    6.2560   -4.6750   20.5750 C   0  0  0  0  0  0  0  0  0  0  0  0
    6.8540   -3.5650   19.7920 C   0  0  0  0  0  0  0  0  0  0  0  0
    8.5250   -2.0990   22.4940 C   0  0  0  0  0  0  0  0  0  0  0  0
    6.2450    0.5140   17.6940 N   0  0  0  0  0  0  0  0  0  0  0  0
    5.1660    1.2860   17.9600 C   0  0  0  0  0  0  0  0  0  0  0  0
    4.7040    1.5940   19.2500 C   0  0  0  0  0  0  0  0  0  0  0  0
    5.3950    1.0900   20.3480 C   0  0  0  0  0  0  0  0  0  0  0  0
    6.5810    0.2540   20.1300 C   0  0  0  0  0  0  0  0  0  0  0  0
    6.9180    0.0210   18.7470 C   0  0  0  0  0  0  0  0  0  0  0  0
   10.6540   -0.2720   24.5220 C   0  0  0  0  0  0  0  0  0  0  0  0
   12.0330   -0.2740   24.7020 C   0  0  0  0  0  0  0  0  0  0  0  0
   12.8320   -0.6300   23.6640 C   0  0  0  0  0  0  0  0  0  0  0  0
   12.3050   -0.9760   22.5010 C   0  0  0  0  0  0  0  0  0  0  0  0
   10.9720   -1.0080   22.2510 C   0  0  0  0  0  0  0  0  0  0  0  0
   10.1240   -0.6520   23.2610 C   0  0  0  0  0  0  0  0  0  0  0  0
    6.2550   -4.2980   24.0030 C   0  0  0  0  0  0  0  0  0  0  0  0
    6.8170   -4.3450   25.2950 C   0  0  0  0  0  0  0  0  0  0  0  0
    5.9640   -4.5210   26.4170 C   0  0  0  0  0  0  0  0  0  0  0  0
    4.5930   -4.6410   26.1850 C   0  0  0  0  0  0  0  0  0  0  0  0
    4.0590   -4.5930   24.9050 C   0  0  0  0  0  0  0  0  0  0  0  0
    4.8750   -4.4210   23.7960 C   0  0  0  0  0  0  0  0  0  0  0  0
    6.4320   -4.5800   27.7470 C   0  0  0  0  0  0  0  0  0  0  0  0
    7.9160   -4.4560   28.0250 C   0  0  0  0  0  0  0  0  0  0  0  0
    8.7980   -4.2690   26.8060 C   0  0  0  0  0  0  0  0  0  0  0  0
    8.2260   -4.2210   25.5210 C   0  0  0  0  0  0  0  0  0  0  0  0
  4  2  1  1
  1  5  1  0
  3  5  2  0
  4  5  1  0
  6  8  3  0
  9 12  1  0
 12 10  1  6
  9 13  1  0
 11 13  2  0
 13 14  1  0
  4 15  1  0
 10 15  1  0
 16 17  2  0
 17 18  1  0
  7 19  1  0
 18 19  2  0
  1 20  1  0
 19 20  1  0
 16 21  1  0
 20 21  2  0
 22 23  2  0
 23 24  1  0
  8 25  1  0
 24 25  2  0
 25 26  1  0
  4 27  1  0
 22 27  1  0
 26 27  2  0
 12 28  1  0
 28 29  2  0
 29 30  1  0
 30 31  2  0
 31 32  1  0
 28 33  1  0
 32 33  2  0
 30 34  1  0
 34 35  2  0
 35 36  1  0
 29 37  1  0
 36 37  2  0
M  END
