x2912-x2052
     RDKit          3D

 41 48  0  0  0  0  0  0  0  0999 V2000
    5.8350   -1.6520   25.3150 C   0  0  2  0  0  0  0  0  0  0  0  0
    4.4280   -1.4220   25.4860 O   0  0  0  0  0  0  0  0  0  0  0  0
    6.7840   -1.2820   26.4020 N   0  0  0  0  0  0  0  0  0  0  0  0
    5.7050   -4.3440   19.9410 O   0  0  0  0  0  0  0  0  0  0  0  0
    5.3630    2.1860   30.4470 O   0  0  0  0  0  0  0  0  0  0  0  0
    6.6020   -3.4780   20.2890 C   0  0  0  0  0  0  0  0  0  0  0  0
    7.4180   -2.9670   19.1680 C   0  0  0  0  0  0  0  0  0  0  0  0
    6.0940    3.3920   30.6250 C   0  0  0  0  0  0  0  0  0  0  0  0
    7.0280   -0.4950   20.8520 N   0  0  0  0  0  0  0  0  0  0  0  0
    7.7030   -0.9000   23.7470 C   0  0  1  0  0  0  0  0  0  0  0  0
    8.9100    0.9940   21.2150 O   0  0  0  0  0  0  0  0  0  0  0  0
    8.4950   -1.1110   22.4870 C   0  0  2  0  0  0  0  0  0  0  0  0
    8.2520   -0.0420   21.4570 C   0  0  0  0  0  0  0  0  0  0  0  0
   14.0610   -1.4100   20.3380 N   0  0  0  0  0  0  0  0  0  0  0  0
    4.8020    1.2640   21.6000 C   0  0  0  0  0  0  0  0  0  0  0  0
   13.3200   -1.3640   21.3870 C   0  0  0  0  0  0  0  0  0  0  0  0
    6.3160   -1.3210   23.9400 C   0  0  2  0  0  0  0  0  0  0  0  0
    6.7460   -3.0630   21.6960 N   0  0  0  0  0  0  0  0  0  0  0  0
    7.8570   -2.5320   22.4410 C   0  0  2  0  0  0  0  0  0  0  0  0
    7.5170   -2.2790   23.8030 C   0  0  1  0  0  0  0  0  0  0  0  0
    6.1510   -2.7100   24.3240 C   0  0  1  0  0  0  0  0  0  0  0  0
    5.2570   -3.5280   23.5060 C   0  0  0  0  0  0  0  0  0  0  0  0
    6.1920   -3.9970   22.4930 C   0  0  0  0  0  0  0  0  0  0  0  0
    6.6380    1.9160   28.3130 N   0  0  0  0  0  0  0  0  0  0  0  0
    6.9260    1.0210   27.3910 C   0  0  0  0  0  0  0  0  0  0  0  0
    6.4750   -0.3080   27.3830 C   0  0  0  0  0  0  0  0  0  0  0  0
    5.6490   -0.7280   28.4320 C   0  0  0  0  0  0  0  0  0  0  0  0
    5.3260    0.1690   29.4120 C   0  0  0  0  0  0  0  0  0  0  0  0
    5.7720    1.4800   29.4260 C   0  0  0  0  0  0  0  0  0  0  0  0
    6.1810    0.6620   17.5570 N   0  0  0  0  0  0  0  0  0  0  0  0
    5.1490    1.4910   17.8550 C   0  0  0  0  0  0  0  0  0  0  0  0
    4.6590    1.7180   19.1450 C   0  0  0  0  0  0  0  0  0  0  0  0
    5.2810    1.0520   20.1920 C   0  0  0  0  0  0  0  0  0  0  0  0
    6.3290    0.2180   19.8600 C   0  0  0  0  0  0  0  0  0  0  0  0
    6.7610    0.0300   18.5860 C   0  0  0  0  0  0  0  0  0  0  0  0
   10.4120   -0.5980   24.2710 C   0  0  0  0  0  0  0  0  0  0  0  0
   11.7550   -0.4840   24.6540 C   0  0  0  0  0  0  0  0  0  0  0  0
   12.7610   -0.7220   23.7630 C   0  0  0  0  0  0  0  0  0  0  0  0
   12.4080   -1.1160   22.3710 C   0  0  0  0  0  0  0  0  0  0  0  0
   10.9490   -1.2310   22.0360 C   0  0  0  0  0  0  0  0  0  0  0  0
   10.0290   -0.9710   22.9660 C   0  0  0  0  0  0  0  0  0  0  0  0
  1  2  1  1
  1  3  1  0
  4  6  2  0
  6  7  1  0
  5  8  1  0
 10 12  1  6
  9 13  1  0
 11 13  2  0
 12 13  1  6
 14 16  3  0
 17  1  1  1
 10 17  1  0
  6 18  1  0
 12 19  1  0
 19 18  1  6
 10 20  1  0
 17 20  1  0
 20 19  1  6
  1 21  1  0
 17 21  1  0
 20 21  1  0
 21 22  1  6
 18 23  1  0
 22 23  1  0
 24 25  2  0
  3 26  1  0
 25 26  1  0
 26 27  2  0
 27 28  1  0
  5 29  1  0
 24 29  1  0
 28 29  2  0
 30 31  2  0
 31 32  1  0
 15 33  1  0
 32 33  2  0
  9 34  1  0
 33 34  1  0
 30 35  1  0
 34 35  2  0
 36 37  2  0
 37 38  1  0
 16 39  1  0
 38 39  2  0
 39 40  1  0
 12 41  1  0
 36 41  1  0
 40 41  2  0
M  END
