x2912-x2572
     RDKit          3D

 20 21  0  0  0  0  0  0  0  0999 V2000
    7.2940   -0.4210   21.1830 N   0  0  0  0  0  0  0  0  0  0  0  0
    7.6610   -0.7540   24.1680 C   0  0  0  0  0  0  0  0  0  0  0  0
    8.9240    1.2030   21.2750 O   0  0  0  0  0  0  0  0  0  0  0  0
    8.5490   -0.8990   22.9500 C   0  0  1  0  0  0  0  0  0  0  0  0
    8.2310    0.0060   21.7260 C   0  0  0  0  0  0  0  0  0  0  0  0
   14.0630   -1.4220   20.3290 N   0  0  0  0  0  0  0  0  0  0  0  0
    5.0470    1.2420   21.8590 C   0  0  0  0  0  0  0  0  0  0  0  0
   13.2670   -1.3670   21.3910 C   0  0  0  0  0  0  0  0  0  0  0  0
    6.2950    0.4800   17.6990 N   0  0  0  0  0  0  0  0  0  0  0  0
    5.1610    1.3460   17.9540 C   0  0  0  0  0  0  0  0  0  0  0  0
    4.7480    1.5900   19.3850 C   0  0  0  0  0  0  0  0  0  0  0  0
    5.4840    0.9770   20.3920 C   0  0  0  0  0  0  0  0  0  0  0  0
    6.5540    0.1770   20.0680 C   0  0  0  0  0  0  0  0  0  0  0  0
    6.9210   -0.0520   18.7590 C   0  0  0  0  0  0  0  0  0  0  0  0
   10.5320   -0.5060   24.4930 C   0  0  0  0  0  0  0  0  0  0  0  0
   11.9010   -0.4570   24.7730 C   0  0  0  0  0  0  0  0  0  0  0  0
   12.7760   -0.7390   23.7660 C   0  0  0  0  0  0  0  0  0  0  0  0
   12.3130   -1.0890   22.4420 C   0  0  0  0  0  0  0  0  0  0  0  0
   10.8790   -1.1300   22.2280 C   0  0  0  0  0  0  0  0  0  0  0  0
   10.0250   -0.8400   23.2390 C   0  0  0  0  0  0  0  0  0  0  0  0
  4  2  1  1
  1  5  1  0
  3  5  2  0
  4  5  1  0
  6  8  3  0
  9 10  2  0
 10 11  1  0
  7 12  1  0
 11 12  2  0
  1 13  1  0
 12 13  1  0
  9 14  1  0
 13 14  2  0
 15 16  2  0
 16 17  1  0
  8 18  1  0
 17 18  2  0
 18 19  1  0
  4 20  1  0
 15 20  1  0
 19 20  2  0
M  END
