x2929
     RDKit          3D

 21 23  0  0  0  0  0  0  0  0999 V2000
   22.8700    5.2140   23.7540 N   0  0  0  0  0  0  0  0  0  0  0  0
   22.8680    4.6590   24.9560 C   0  0  0  0  0  0  0  0  0  0  0  0
   21.9960    4.8850   25.7970 O   0  0  0  0  0  0  0  0  0  0  0  0
   23.9950    3.6920   25.2470 C   0  0  2  0  0  0  0  0  0  0  0  0
   23.9270    1.3640   25.9400 N   0  0  0  0  0  0  0  0  0  0  0  0
   23.6290    2.2690   24.8220 C   0  0  0  0  0  0  0  0  0  0  0  0
   21.1080   -1.8070   25.4920 N   0  0  0  0  0  0  0  0  0  0  0  0
   24.3880    0.0400   25.5130 C   0  0  0  0  0  0  0  0  0  0  0  0
   23.2310   -0.7890   25.0140 C   0  0  0  0  0  0  0  0  0  0  0  0
   23.0230   -1.0050   23.6650 C   0  0  0  0  0  0  0  0  0  0  0  0
   21.8540   -1.5990   23.2370 C   0  0  0  0  0  0  0  0  0  0  0  0
   20.9240   -1.9700   24.1790 C   0  0  0  0  0  0  0  0  0  0  0  0
   22.2480   -1.2320   25.8810 C   0  0  0  0  0  0  0  0  0  0  0  0
   24.8790    2.1090   26.7720 C   0  0  0  0  0  0  0  0  0  0  0  0
   24.2630    3.5070   26.7630 C   0  0  1  0  0  0  0  0  0  0  0  0
   25.1160    4.5660   27.4260 C   0  0  0  0  0  0  0  0  0  0  0  0
   25.1550    4.6610   28.8100 C   0  0  0  0  0  0  0  0  0  0  0  0
   25.9040    5.6480   29.4270 C   0  0  0  0  0  0  0  0  0  0  0  0
   26.6260    6.5420   28.6730 C   0  0  0  0  0  0  0  0  0  0  0  0
   26.6060    6.4500   27.3010 C   0  0  0  0  0  0  0  0  0  0  0  0
   25.8580    5.4680   26.6790 C   0  0  0  0  0  0  0  0  0  0  0  0
  1  2  1  0
  2  3  2  0
  4  2  1  1
  4  6  1  0
  5  6  1  0
  5  8  1  0
  8  9  1  0
  9 10  1  0
 10 11  2  0
  7 12  2  0
 11 12  1  0
  7 13  1  0
  9 13  2  0
  5 14  1  0
  4 15  1  0
 14 15  1  0
 15 16  1  6
 16 17  2  0
 17 18  1  0
 18 19  2  0
 19 20  1  0
 16 21  1  0
 20 21  2  0
M  END
