x2964-x0107
     RDKit          3D

 19 20  0  0  0  0  0  0  0  0999 V2000
    3.3830    2.1680   19.2570 N   0  0  0  0  0  0  0  0  0  0  0  0
    8.7680    1.4930   21.2220 O   0  0  0  0  0  0  0  0  0  0  0  0
   13.2060   -2.3310   21.3600 Cl  0  0  0  0  0  0  0  0  0  0  0  0
    7.2820   -0.2750   21.2100 N   0  0  0  0  0  0  0  0  0  0  0  0
    8.9340   -0.2240   22.7460 N   0  0  0  0  0  0  0  0  0  0  0  0
    8.3550    0.4250   21.6900 C   0  0  0  0  0  0  0  0  0  0  0  0
    4.8970    1.1480   21.8200 C   0  0  0  0  0  0  0  0  0  0  0  0
    4.5750    1.4460   19.2200 C   0  0  0  0  0  0  0  0  0  0  0  0
    5.3310    0.9340   20.4000 C   0  0  0  0  0  0  0  0  0  0  0  0
    6.5750    0.1810   20.1370 C   0  0  0  0  0  0  0  0  0  0  0  0
    6.9220    0.0190   18.6800 C   0  0  0  0  0  0  0  0  0  0  0  0
    6.2620    0.4770   17.6220 N   0  0  0  0  0  0  0  0  0  0  0  0
    5.1520    1.1580   17.8630 C   0  0  0  0  0  0  0  0  0  0  0  0
   10.9580    0.7790   23.4560 C   0  0  0  0  0  0  0  0  0  0  0  0
   12.3120    0.8400   23.4950 C   0  0  0  0  0  0  0  0  0  0  0  0
   13.0620   -0.1220   22.8500 C   0  0  0  0  0  0  0  0  0  0  0  0
   12.4060   -1.1060   22.1990 C   0  0  0  0  0  0  0  0  0  0  0  0
   11.0380   -1.1980   22.1430 C   0  0  0  0  0  0  0  0  0  0  0  0
   10.3040   -0.2400   22.7750 C   0  0  0  0  0  0  0  0  0  0  0  0
  2  6  2  0
  4  6  1  0
  5  6  1  0
  1  8  1  0
  7  9  1  0
  8  9  2  0
  4 10  1  0
  9 10  1  0
 10 11  2  0
 11 12  1  0
  8 13  1  0
 12 13  2  0
 14 15  2  0
 15 16  1  0
  3 17  1  0
 16 17  2  0
 17 18  1  0
  5 19  1  0
 14 19  1  0
 18 19  2  0
M  END
