x2964-x1348
     RDKit          3D

 34 37  0  0  0  0  0  0  0  0999 V2000
    7.0380   -4.0820   21.4650 N   0  0  0  0  0  0  0  0  0  0  0  0
    7.7020   -5.6310   27.8160 C   0  0  0  0  0  0  0  0  0  0  0  0
    7.1670   -4.8150   26.7740 O   0  0  0  0  0  0  0  0  0  0  0  0
    5.3220   -4.3490   19.8500 O   0  0  0  0  0  0  0  0  0  0  0  0
    6.4210   -3.8790   20.2390 C   0  0  0  0  0  0  0  0  0  0  0  0
    7.2960   -3.0400   19.4510 C   0  0  0  0  0  0  0  0  0  0  0  0
    3.4020    2.0210   19.4930 N   0  0  0  0  0  0  0  0  0  0  0  0
    8.5700    1.3760   21.0380 O   0  0  0  0  0  0  0  0  0  0  0  0
   13.2250   -2.2940   21.4090 Cl  0  0  0  0  0  0  0  0  0  0  0  0
    7.4430   -0.6380   20.7730 N   0  0  0  0  0  0  0  0  0  0  0  0
    8.9070   -0.2700   22.5690 N   0  0  0  0  0  0  0  0  0  0  0  0
    8.3090    0.2250   21.4350 C   0  0  0  0  0  0  0  0  0  0  0  0
    7.8330   -2.0810   20.6120 C   0  0  0  0  0  0  0  0  0  0  0  0
    6.2000   -5.4630   26.0340 C   0  0  0  0  0  0  0  0  0  0  0  0
    6.0980   -5.3140   24.5430 C   0  0  0  0  0  0  0  0  0  0  0  0
    5.0610   -6.0370   23.9420 C   0  0  0  0  0  0  0  0  0  0  0  0
    4.1970   -6.8260   24.6650 C   0  0  0  0  0  0  0  0  0  0  0  0
    4.3040   -6.9550   26.0510 C   0  0  0  0  0  0  0  0  0  0  0  0
    5.2880   -6.2820   26.6950 C   0  0  0  0  0  0  0  0  0  0  0  0
    6.8900   -4.5650   23.7340 N   0  0  0  0  0  0  0  0  0  0  0  0
    6.4730   -4.7020   22.5340 C   0  0  0  0  0  0  0  0  0  0  0  0
    5.0920   -5.7510   22.2380 S   0  0  0  0  0  0  0  0  0  0  0  0
    4.6290    1.3120   19.2300 C   0  0  0  0  0  0  0  0  0  0  0  0
    5.3780    0.6680   20.3230 C   0  0  0  0  0  0  0  0  0  0  0  0
    6.6250   -0.0240   19.9220 C   0  0  0  0  0  0  0  0  0  0  0  0
    6.9480   -0.0080   18.6120 C   0  0  0  0  0  0  0  0  0  0  0  0
    6.2520    0.5840   17.6330 N   0  0  0  0  0  0  0  0  0  0  0  0
    5.1330    1.2230   17.9550 C   0  0  0  0  0  0  0  0  0  0  0  0
   10.8040    0.7870   23.4160 C   0  0  0  0  0  0  0  0  0  0  0  0
   12.1570    0.8520   23.5270 C   0  0  0  0  0  0  0  0  0  0  0  0
   12.9750   -0.0800   22.9260 C   0  0  0  0  0  0  0  0  0  0  0  0
   12.3610   -1.0850   22.2100 C   0  0  0  0  0  0  0  0  0  0  0  0
   11.0080   -1.1860   22.0780 C   0  0  0  0  0  0  0  0  0  0  0  0
   10.2240   -0.2390   22.6820 C   0  0  0  0  0  0  0  0  0  0  0  0
  2  3  1  0
  1  5  1  0
  4  5  2  0
  5  6  1  0
  8 12  2  0
 10 12  1  0
 11 12  1  0
  6 13  1  0
 10 13  1  0
  3 14  1  0
 14 15  2  0
 15 16  1  0
 16 17  2  0
 17 18  1  0
 14 19  1  0
 18 19  2  0
 15 20  1  0
  1 21  1  0
 20 21  2  0
 16 22  1  0
 21 22  1  0
  7 23  1  0
 23 24  2  0
 10 25  1  0
 24 25  1  0
 25 26  2  0
 26 27  1  0
 23 28  1  0
 27 28  2  0
 29 30  2  0
 30 31  1  0
  9 32  1  0
 31 32  2  0
 32 33  1  0
 11 34  1  0
 29 34  1  0
 33 34  2  0
M  END
