x2964-x2563
     RDKit          3D

 21 23  0  0  0  0  0  0  0  0999 V2000
    3.3540    2.6870   18.8520 N   0  0  0  0  0  0  0  0  0  0  0  0
    8.7500    1.3800   21.1530 O   0  0  0  0  0  0  0  0  0  0  0  0
   13.2210   -2.3010   21.3280 Cl  0  0  0  0  0  0  0  0  0  0  0  0
    7.4780   -0.5470   20.9410 N   0  0  0  0  0  0  0  0  0  0  0  0
    8.9640   -0.3620   22.6370 N   0  0  0  0  0  0  0  0  0  0  0  0
    8.4150    0.2500   21.5460 C   0  0  0  0  0  0  0  0  0  0  0  0
    4.4950    1.4600   19.6440 C   0  0  0  0  0  0  0  0  0  0  0  0
    5.3670    0.6110   20.5530 C   0  0  0  0  0  0  0  0  0  0  0  0
    6.5980    0.0180   20.0730 C   0  0  0  0  0  0  0  0  0  0  0  0
    6.9240    0.0680   18.6710 C   0  0  0  0  0  0  0  0  0  0  0  0
    6.1040    0.6630   17.8040 N   0  0  0  0  0  0  0  0  0  0  0  0
    4.9550    1.4240   18.3030 C   0  0  0  0  0  0  0  0  0  0  0  0
   10.9050    0.8080   23.5130 C   0  0  0  0  0  0  0  0  0  0  0  0
   12.2900    0.8500   23.5440 C   0  0  0  0  0  0  0  0  0  0  0  0
   13.0620   -0.0750   22.8970 C   0  0  0  0  0  0  0  0  0  0  0  0
   12.4380   -1.0840   22.1930 C   0  0  0  0  0  0  0  0  0  0  0  0
   11.1270   -1.0930   22.1820 C   0  0  0  0  0  0  0  0  0  0  0  0
   10.3140   -0.1840   22.8090 C   0  0  0  0  0  0  0  0  0  0  0  0
    3.3120    2.1660   20.2440 C   0  0  0  0  0  0  0  0  0  0  0  0
    3.6070    1.4390   21.5430 C   0  0  0  0  0  0  0  0  0  0  0  0
    4.7660    0.5930   21.6670 C   0  0  0  0  0  0  0  0  0  0  0  0
  2  6  2  0
  4  6  1  0
  5  6  1  0
  7  8  1  0
  4  9  1  0
  8  9  1  0
  9 10  2  0
 10 11  1  0
  7 12  2  0
 11 12  1  0
 13 14  2  0
 14 15  1  0
  3 16  1  0
 15 16  2  0
 16 17  1  0
  5 18  1  0
 13 18  1  0
 17 18  2  0
  1 19  1  0
  7 19  1  0
 19 20  2  0
  8 21  2  0
 20 21  1  0
M  END
