x2964-x2643-x2608
     RDKit          3D

 18 19  0  0  0  0  0  0  0  0999 V2000
    3.2340    2.1530   19.2040 N   0  0  0  0  0  0  0  0  0  0  0  0
    8.7090    1.3870   21.2030 O   0  0  0  0  0  0  0  0  0  0  0  0
   13.2350   -2.3640   21.3240 Cl  0  0  0  0  0  0  0  0  0  0  0  0
    7.1700   -0.3490   21.1240 N   0  0  0  0  0  0  0  0  0  0  0  0
    8.8500   -0.2280   22.7170 N   0  0  0  0  0  0  0  0  0  0  0  0
    8.2330    0.3210   21.6400 C   0  0  0  0  0  0  0  0  0  0  0  0
    4.5140    1.4460   19.0400 C   0  0  0  0  0  0  0  0  0  0  0  0
    5.2080    0.8710   20.2580 C   0  0  0  0  0  0  0  0  0  0  0  0
    6.4190    0.2010   20.0890 C   0  0  0  0  0  0  0  0  0  0  0  0
    6.9470    0.0650   18.8170 C   0  0  0  0  0  0  0  0  0  0  0  0
    6.4030    0.5500   17.6930 N   0  0  0  0  0  0  0  0  0  0  0  0
    5.1460    1.2650   17.8410 C   0  0  0  0  0  0  0  0  0  0  0  0
   10.8210    0.8810   23.4500 C   0  0  0  0  0  0  0  0  0  0  0  0
   12.2380    0.9660   23.4880 C   0  0  0  0  0  0  0  0  0  0  0  0
   13.0460   -0.0030   22.8540 C   0  0  0  0  0  0  0  0  0  0  0  0
   12.3860   -1.1560   22.1290 C   0  0  0  0  0  0  0  0  0  0  0  0
   11.0470   -1.2580   22.0810 C   0  0  0  0  0  0  0  0  0  0  0  0
   10.2260   -0.1930   22.7630 C   0  0  0  0  0  0  0  0  0  0  0  0
  2  6  2  0
  4  6  1  0
  5  6  1  0
  1  7  1  0
  7  8  2  0
  4  9  1  0
  8  9  1  0
  9 10  2  0
 10 11  1  0
  7 12  1  0
 11 12  2  0
 13 14  2  0
 14 15  1  0
  3 16  1  0
 15 16  2  0
 16 17  1  0
  5 18  1  0
 13 18  1  0
 17 18  2  0
M  END
