x2964-x2643
     RDKit          3D

 18 19  0  0  0  0  0  0  0  0999 V2000
    3.2180    2.1570   19.1770 N   0  0  0  0  0  0  0  0  0  0  0  0
    8.6750    1.3980   21.1620 O   0  0  0  0  0  0  0  0  0  0  0  0
   13.2390   -2.5690   21.4480 Cl  0  0  0  0  0  0  0  0  0  0  0  0
    7.1460   -0.3570   21.0720 N   0  0  0  0  0  0  0  0  0  0  0  0
    8.8950   -0.2910   22.5690 N   0  0  0  0  0  0  0  0  0  0  0  0
    8.2260    0.3050   21.5650 C   0  0  0  0  0  0  0  0  0  0  0  0
    4.5020    1.4590   19.0190 C   0  0  0  0  0  0  0  0  0  0  0  0
    5.1860    0.8710   20.2310 C   0  0  0  0  0  0  0  0  0  0  0  0
    6.3970    0.2080   20.0530 C   0  0  0  0  0  0  0  0  0  0  0  0
    6.9320    0.0950   18.7800 C   0  0  0  0  0  0  0  0  0  0  0  0
    6.3970    0.5930   17.6600 N   0  0  0  0  0  0  0  0  0  0  0  0
    5.1380    1.2990   17.8180 C   0  0  0  0  0  0  0  0  0  0  0  0
   10.8540    0.9110   23.0860 C   0  0  0  0  0  0  0  0  0  0  0  0
   12.2760    1.0310   23.1240 C   0  0  0  0  0  0  0  0  0  0  0  0
   13.0840   -0.0140   22.6430 C   0  0  0  0  0  0  0  0  0  0  0  0
   12.4200   -1.2590   22.0880 C   0  0  0  0  0  0  0  0  0  0  0  0
   11.0860   -1.3870   22.0600 C   0  0  0  0  0  0  0  0  0  0  0  0
   10.2660   -0.2490   22.5810 C   0  0  0  0  0  0  0  0  0  0  0  0
  2  6  2  0
  4  6  1  0
  5  6  1  0
  1  7  1  0
  7  8  2  0
  4  9  1  0
  8  9  1  0
  9 10  2  0
 10 11  1  0
  7 12  1  0
 11 12  2  0
 13 14  2  0
 14 15  1  0
  3 16  1  0
 15 16  2  0
 16 17  1  0
  5 18  1  0
 13 18  1  0
 17 18  2  0
M  END
