x2964-x1311
     RDKit          3D

 37 40  0  0  0  0  0  0  0  0999 V2000
    5.7110   -4.4690   19.9450 O   0  0  0  0  0  0  0  0  0  0  0  0
    6.6130   -4.3860   20.8170 C   0  0  0  0  0  0  0  0  0  0  0  0
    8.0170   -3.8020   20.5000 C   0  0  0  0  0  0  0  0  0  0  0  0
    6.4220   -4.7920   22.1670 N   0  0  0  0  0  0  0  0  0  0  0  0
    4.0380   -7.5740   25.3460 O   0  0  0  0  0  0  0  0  0  0  0  0
    2.3180   -5.5820   24.8120 O   0  0  0  0  0  0  0  0  0  0  0  0
    3.2170    2.1400   19.1910 N   0  0  0  0  0  0  0  0  0  0  0  0
    8.6460    1.3490   21.1630 O   0  0  0  0  0  0  0  0  0  0  0  0
   13.4190   -1.7250   21.3050 Cl  0  0  0  0  0  0  0  0  0  0  0  0
    7.0590   -0.3420   21.2440 N   0  0  0  0  0  0  0  0  0  0  0  0
    8.9040   -0.3920   22.6640 N   0  0  0  0  0  0  0  0  0  0  0  0
    8.2390    0.2800   21.6700 C   0  0  0  0  0  0  0  0  0  0  0  0
    8.0760   -2.2890   20.6590 C   0  0  0  0  0  0  0  0  0  0  0  0
    7.0360   -1.7160   21.3470 C   0  0  0  0  0  0  0  0  0  0  0  0
    8.2450   -5.9450   23.1770 C   0  0  0  0  0  0  0  0  0  0  0  0
    9.2400   -6.0580   24.1290 C   0  0  0  0  0  0  0  0  0  0  0  0
    9.4730   -5.0570   25.1040 C   0  0  0  0  0  0  0  0  0  0  0  0
    8.6560   -3.9060   25.0910 C   0  0  0  0  0  0  0  0  0  0  0  0
    7.5800   -3.8110   24.0420 C   0  0  0  0  0  0  0  0  0  0  0  0
    7.4240   -4.8380   23.1360 C   0  0  0  0  0  0  0  0  0  0  0  0
    4.5460   -6.1300   22.1590 C   0  0  0  0  0  0  0  0  0  0  0  0
    5.1230   -5.0180   22.7950 C   0  0  1  0  0  0  0  0  0  0  0  0
    5.0460   -5.2400   24.3080 C   0  0  0  0  0  0  0  0  0  0  0  0
    3.6560   -6.3400   24.3990 S   0  0  0  0  0  0  0  0  0  0  0  0
    3.6750   -6.8820   22.8570 C   0  0  0  0  0  0  0  0  0  0  0  0
    4.4300    1.4730   19.1390 C   0  0  0  0  0  0  0  0  0  0  0  0
    5.1430    0.8670   20.3470 C   0  0  0  0  0  0  0  0  0  0  0  0
    6.3520    0.2200   20.1590 C   0  0  0  0  0  0  0  0  0  0  0  0
    6.9200    0.1210   18.7720 C   0  0  0  0  0  0  0  0  0  0  0  0
    6.3520    0.6360   17.6790 N   0  0  0  0  0  0  0  0  0  0  0  0
    5.1840    1.2770   17.8290 C   0  0  0  0  0  0  0  0  0  0  0  0
   10.6900    0.8090   23.5980 C   0  0  0  0  0  0  0  0  0  0  0  0
   12.0460    1.0270   23.6960 C   0  0  0  0  0  0  0  0  0  0  0  0
   12.9350    0.2510   23.0010 C   0  0  0  0  0  0  0  0  0  0  0  0
   12.4250   -0.7520   22.2110 C   0  0  0  0  0  0  0  0  0  0  0  0
   11.0770   -0.9870   22.1060 C   0  0  0  0  0  0  0  0  0  0  0  0
   10.1980   -0.2000   22.7920 C   0  0  0  0  0  0  0  0  0  0  0  0
  1  2  2  0
  2  3  1  0
  2  4  1  0
  8 12  2  0
 10 12  1  0
 11 12  1  0
  3 13  1  0
 10 14  1  0
 13 14  1  0
 15 16  2  0
 16 17  1  0
 17 18  2  0
 18 19  1  0
  4 20  1  0
 15 20  1  0
 19 20  2  0
 22  4  1  6
 21 22  1  0
 22 23  1  0
 24  5  1  0
  6 24  1  0
 23 24  1  0
 21 25  2  0
 24 25  1  0
  7 26  1  0
 26 27  2  0
 10 28  1  0
 27 28  1  0
 28 29  2  0
 29 30  1  0
 26 31  1  0
 30 31  2  0
 32 33  2  0
 33 34  1  0
  9 35  1  0
 34 35  2  0
 35 36  1  0
 11 37  1  0
 32 37  1  0
 36 37  2  0
M  END
