x2964-x2572
     RDKit          3D

 20 21  0  0  0  0  0  0  0  0999 V2000
    4.7080    1.3190   21.6400 C   0  0  0  0  0  0  0  0  0  0  0  0
    8.9240    1.2510   21.3410 O   0  0  0  0  0  0  0  0  0  0  0  0
    7.1740   -0.3050   21.2260 N   0  0  0  0  0  0  0  0  0  0  0  0
   13.5980   -2.9780   20.6650 N   0  0  0  0  0  0  0  0  0  0  0  0
    8.3150    0.2560   21.7900 C   0  0  0  0  0  0  0  0  0  0  0  0
    8.8120   -0.4350   23.0730 C   0  0  0  0  0  0  0  0  0  0  0  0
   13.0340   -2.0260   21.4460 C   0  0  0  0  0  0  0  0  0  0  0  0
    3.5170    2.2310   19.1570 N   0  0  0  0  0  0  0  0  0  0  0  0
    6.3340    0.4480   17.6400 N   0  0  0  0  0  0  0  0  0  0  0  0
    7.0750   -0.1270   18.7290 C   0  0  0  0  0  0  0  0  0  0  0  0
    6.5190    0.1830   20.0940 C   0  0  0  0  0  0  0  0  0  0  0  0
    5.2640    1.0160   20.2770 C   0  0  0  0  0  0  0  0  0  0  0  0
    4.6660    1.4790   19.1010 C   0  0  0  0  0  0  0  0  0  0  0  0
    5.1420    1.2440   17.8490 C   0  0  0  0  0  0  0  0  0  0  0  0
   10.7690    0.7690   23.7920 C   0  0  0  0  0  0  0  0  0  0  0  0
   12.0990    0.8320   23.7020 C   0  0  0  0  0  0  0  0  0  0  0  0
   12.9180   -0.0180   22.9770 C   0  0  0  0  0  0  0  0  0  0  0  0
   12.3080   -1.0360   22.2720 C   0  0  0  0  0  0  0  0  0  0  0  0
   10.8560   -1.2210   22.2780 C   0  0  0  0  0  0  0  0  0  0  0  0
   10.1340   -0.2430   23.0880 C   0  0  0  0  0  0  0  0  0  0  0  0
  2  5  2  0
  3  5  1  0
  5  6  1  0
  4  7  3  0
  9 10  2  0
  3 11  1  0
 10 11  1  0
  1 12  1  0
 11 12  2  0
  8 13  1  0
 12 13  1  0
  9 14  1  0
 13 14  2  0
 15 16  2  0
 16 17  1  0
  7 18  1  0
 17 18  2  0
 18 19  1  0
  6 20  1  0
 15 20  1  0
 19 20  2  0
M  END
