x2964-x1351
     RDKit          3D

 38 41  0  0  0  0  0  0  0  0999 V2000
    6.9250   -3.3480   19.1810 C   0  0  0  0  0  0  0  0  0  0  0  0
    5.1770   -4.7160   19.9010 O   0  0  0  0  0  0  0  0  0  0  0  0
    6.2000   -4.1020   20.2490 C   0  0  0  0  0  0  0  0  0  0  0  0
    5.9180   -2.8950   25.3270 N   0  0  0  0  0  0  0  0  0  0  0  0
    7.9680   -2.9950   26.5830 O   0  0  0  0  0  0  0  0  0  0  0  0
    6.8130   -2.3720   26.2680 C   0  0  0  0  0  0  0  0  0  0  0  0
    3.3270    2.2660   19.1740 N   0  0  0  0  0  0  0  0  0  0  0  0
    8.6580    1.6510   21.0940 O   0  0  0  0  0  0  0  0  0  0  0  0
   13.1650   -2.2890   21.3210 Cl  0  0  0  0  0  0  0  0  0  0  0  0
    7.1480   -0.1010   21.0430 N   0  0  0  0  0  0  0  0  0  0  0  0
    8.8860   -0.1160   22.5290 N   0  0  0  0  0  0  0  0  0  0  0  0
    8.2440    0.5660   21.5200 C   0  0  0  0  0  0  0  0  0  0  0  0
    7.1170   -1.8700   19.4040 C   0  0  0  0  0  0  0  0  0  0  0  0
    7.2310   -1.5280   20.8690 C   0  0  0  0  0  0  0  0  0  0  0  0
    6.6480   -4.2250   21.5770 N   0  0  0  0  0  0  0  0  0  0  0  0
    7.5700   -3.2600   22.1770 C   0  0  0  0  0  0  0  0  0  0  0  0
    6.9340   -2.6410   23.2450 C   0  0  0  0  0  0  0  0  0  0  0  0
    6.4330   -3.5540   24.1380 C   0  0  0  0  0  0  0  0  0  0  0  0
    5.4990   -4.3710   23.4870 C   0  0  0  0  0  0  0  0  0  0  0  0
    6.0540   -5.0640   22.4570 C   0  0  0  0  0  0  0  0  0  0  0  0
    7.0620   -0.6980   28.1370 C   0  0  0  0  0  0  0  0  0  0  0  0
    6.7080    0.5120   28.7380 C   0  0  0  0  0  0  0  0  0  0  0  0
    5.7010    1.4330   28.1580 C   0  0  0  0  0  0  0  0  0  0  0  0
    5.1090    0.9640   26.8930 C   0  0  0  0  0  0  0  0  0  0  0  0
    5.5130   -0.2400   26.3700 C   0  0  0  0  0  0  0  0  0  0  0  0
    6.4610   -1.0870   26.9370 C   0  0  0  0  0  0  0  0  0  0  0  0
    4.5510    1.6040   19.0700 C   0  0  0  0  0  0  0  0  0  0  0  0
    5.2060    1.1040   20.1550 C   0  0  0  0  0  0  0  0  0  0  0  0
    6.4030    0.4440   20.0790 C   0  0  0  0  0  0  0  0  0  0  0  0
    6.9150    0.3050   18.8170 C   0  0  0  0  0  0  0  0  0  0  0  0
    6.3420    0.7710   17.6970 N   0  0  0  0  0  0  0  0  0  0  0  0
    5.1770    1.4110   17.8530 C   0  0  0  0  0  0  0  0  0  0  0  0
   10.9080    0.9000   23.4500 C   0  0  0  0  0  0  0  0  0  0  0  0
   12.2870    0.8890   23.5490 C   0  0  0  0  0  0  0  0  0  0  0  0
   13.0140   -0.0970   22.8960 C   0  0  0  0  0  0  0  0  0  0  0  0
   12.3540   -1.0630   22.1540 C   0  0  0  0  0  0  0  0  0  0  0  0
   10.9910   -1.0500   22.0600 C   0  0  0  0  0  0  0  0  0  0  0  0
   10.2570   -0.0680   22.7000 C   0  0  0  0  0  0  0  0  0  0  0  0
  1  3  1  0
  2  3  2  0
  4  6  1  0
  5  6  2  0
  8 12  2  0
 10 12  1  0
 11 12  1  0
  1 13  1  0
 10 14  1  0
 13 14  1  0
  3 15  1  0
 15 16  1  0
 16 17  1  0
  4 18  1  0
 17 18  1  0
 18 19  1  0
 15 20  1  0
 19 20  1  0
 21 22  2  0
 22 23  1  0
 23 24  2  0
 24 25  1  0
  6 26  1  0
 21 26  1  0
 25 26  2  0
  7 27  1  0
 27 28  2  0
 10 29  1  0
 28 29  1  0
 29 30  2  0
 30 31  1  0
 27 32  1  0
 31 32  2  0
 33 34  2  0
 34 35  1  0
  9 36  1  0
 35 36  2  0
 36 37  1  0
 11 38  1  0
 33 38  1  0
 37 38  2  0
M  END
