x2964-x2643-x0434
     RDKit          3D

 18 19  0  0  0  0  0  0  0  0999 V2000
    3.2340    2.1520   19.2050 N   0  0  0  0  0  0  0  0  0  0  0  0
    8.7150    1.3800   21.1950 O   0  0  0  0  0  0  0  0  0  0  0  0
   13.2300   -2.3720   21.3320 Cl  0  0  0  0  0  0  0  0  0  0  0  0
    7.1700   -0.3530   21.1240 N   0  0  0  0  0  0  0  0  0  0  0  0
    8.8500   -0.2300   22.7150 N   0  0  0  0  0  0  0  0  0  0  0  0
    8.2370    0.3160   21.6360 C   0  0  0  0  0  0  0  0  0  0  0  0
    4.5130    1.4460   19.0430 C   0  0  0  0  0  0  0  0  0  0  0  0
    5.2070    0.8700   20.2600 C   0  0  0  0  0  0  0  0  0  0  0  0
    6.4190    0.1980   20.0920 C   0  0  0  0  0  0  0  0  0  0  0  0
    6.9460    0.0650   18.8180 C   0  0  0  0  0  0  0  0  0  0  0  0
    6.4030    0.5530   17.6940 N   0  0  0  0  0  0  0  0  0  0  0  0
    5.1460    1.2660   17.8430 C   0  0  0  0  0  0  0  0  0  0  0  0
   10.8200    0.8800   23.4490 C   0  0  0  0  0  0  0  0  0  0  0  0
   12.2380    0.9650   23.4890 C   0  0  0  0  0  0  0  0  0  0  0  0
   13.0440   -0.0080   22.8570 C   0  0  0  0  0  0  0  0  0  0  0  0
   12.3850   -1.1580   22.1340 C   0  0  0  0  0  0  0  0  0  0  0  0
   11.0440   -1.2590   22.0840 C   0  0  0  0  0  0  0  0  0  0  0  0
   10.2260   -0.1930   22.7640 C   0  0  0  0  0  0  0  0  0  0  0  0
  2  6  2  0
  4  6  1  0
  5  6  1  0
  1  7  1  0
  7  8  2  0
  4  9  1  0
  8  9  1  0
  9 10  2  0
 10 11  1  0
  7 12  1  0
 11 12  2  0
 13 14  2  0
 14 15  1  0
  3 16  1  0
 15 16  2  0
 16 17  1  0
  5 18  1  0
 13 18  1  0
 17 18  2  0
M  END
