x2964-x2646
     RDKit          3D

 19 20  0  0  0  0  0  0  0  0999 V2000
    3.3750    2.2220   19.1860 N   0  0  0  0  0  0  0  0  0  0  0  0
    8.7540    1.4790   21.2110 O   0  0  0  0  0  0  0  0  0  0  0  0
   13.2730   -2.1900   21.3390 Cl  0  0  0  0  0  0  0  0  0  0  0  0
    7.2220   -0.2580   21.2010 N   0  0  0  0  0  0  0  0  0  0  0  0
    8.9070   -0.2720   22.7020 N   0  0  0  0  0  0  0  0  0  0  0  0
    8.3240    0.4090   21.6700 C   0  0  0  0  0  0  0  0  0  0  0  0
    4.7760    1.2240   21.7450 C   0  0  0  0  0  0  0  0  0  0  0  0
    4.5570    1.4920   19.1630 C   0  0  0  0  0  0  0  0  0  0  0  0
    5.2800    0.9770   20.3550 C   0  0  0  0  0  0  0  0  0  0  0  0
    6.5290    0.2110   20.1240 C   0  0  0  0  0  0  0  0  0  0  0  0
    6.9020    0.0500   18.6670 C   0  0  0  0  0  0  0  0  0  0  0  0
    6.2650    0.5150   17.5990 N   0  0  0  0  0  0  0  0  0  0  0  0
    5.1580    1.2020   17.8200 C   0  0  0  0  0  0  0  0  0  0  0  0
   10.8970    0.7770   23.4760 C   0  0  0  0  0  0  0  0  0  0  0  0
   12.2490    0.8760   23.5350 C   0  0  0  0  0  0  0  0  0  0  0  0
   13.0380   -0.0450   22.8770 C   0  0  0  0  0  0  0  0  0  0  0  0
   12.4150   -1.0230   22.1960 C   0  0  0  0  0  0  0  0  0  0  0  0
   11.0540   -1.1620   22.1120 C   0  0  0  0  0  0  0  0  0  0  0  0
   10.2790   -0.2440   22.7560 C   0  0  0  0  0  0  0  0  0  0  0  0
  2  6  2  0
  4  6  1  0
  5  6  1  0
  1  8  1  0
  7  9  1  0
  8  9  2  0
  4 10  1  0
  9 10  1  0
 10 11  2  0
 11 12  1  0
  8 13  1  0
 12 13  2  0
 14 15  2  0
 15 16  1  0
  3 17  1  0
 16 17  2  0
 17 18  1  0
  5 19  1  0
 14 19  1  0
 18 19  2  0
M  END
