x2964-x3080
     RDKit          3D

 33 37  0  0  0  0  0  0  0  0999 V2000
    9.2380   -0.4950   23.4760 C   0  0  2  0  0  0  0  0  0  0  0  0
    8.8910    1.5600   21.1150 O   0  0  0  0  0  0  0  0  0  0  0  0
    7.9890    0.0430   22.7570 C   0  0  0  0  0  0  0  0  0  0  0  0
    7.7230   -0.2400   20.2430 N   0  0  0  0  0  0  0  0  0  0  0  0
    7.2910   -1.0780   25.3140 O   0  0  0  0  0  0  0  0  0  0  0  0
    8.2440    0.5070   21.2980 C   0  0  0  0  0  0  0  0  0  0  0  0
    9.4220    0.0740   26.0410 O   0  0  0  0  0  0  0  0  0  0  0  0
    4.8720    0.2450   21.2630 C   0  0  0  0  0  0  0  0  0  0  0  0
    8.8760   -0.9310   25.1660 S   0  0  0  0  0  0  0  0  0  0  0  0
    3.0890    1.6130   19.0540 N   0  0  0  0  0  0  0  0  0  0  0  0
   13.5610   -2.4070   20.9200 Cl  0  0  0  0  0  0  0  0  0  0  0  0
    6.4560    1.2750   17.1240 N   0  0  0  0  0  0  0  0  0  0  0  0
    5.0810    1.5730   17.4860 C   0  0  0  0  0  0  0  0  0  0  0  0
    4.5030    1.2550   18.8350 C   0  0  0  0  0  0  0  0  0  0  0  0
    5.3690    0.5980   19.8890 C   0  0  0  0  0  0  0  0  0  0  0  0
    6.6950    0.3600   19.4360 C   0  0  0  0  0  0  0  0  0  0  0  0
    7.2110    0.6560   18.1840 C   0  0  0  0  0  0  0  0  0  0  0  0
   11.7540   -1.3660   25.1700 N   0  0  0  0  0  0  0  0  0  0  0  0
   10.9460   -2.5060   25.5620 C   0  0  0  0  0  0  0  0  0  0  0  0
   11.4980   -3.6850   25.9130 C   0  0  0  0  0  0  0  0  0  0  0  0
   12.8960   -3.8920   25.9290 C   0  0  0  0  0  0  0  0  0  0  0  0
   13.7060   -2.8270   25.5560 C   0  0  0  0  0  0  0  0  0  0  0  0
   13.0860   -1.5560   25.1770 C   0  0  0  0  0  0  0  0  0  0  0  0
    8.7270   -3.3950   25.9300 C   0  0  0  0  0  0  0  0  0  0  0  0
    9.2760   -4.6080   26.2880 C   0  0  0  0  0  0  0  0  0  0  0  0
   10.6560   -4.7450   26.2760 C   0  0  0  0  0  0  0  0  0  0  0  0
    9.5650   -2.3990   25.5850 C   0  0  0  0  0  0  0  0  0  0  0  0
   10.5580    0.0620   23.2040 C   0  0  0  0  0  0  0  0  0  0  0  0
   11.8280    0.5970   22.9420 C   0  0  0  0  0  0  0  0  0  0  0  0
   12.7290   -0.1880   22.2370 C   0  0  0  0  0  0  0  0  0  0  0  0
   12.4120   -1.4740   21.7870 C   0  0  0  0  0  0  0  0  0  0  0  0
   11.1520   -1.9910   22.0530 C   0  0  0  0  0  0  0  0  0  0  0  0
   10.2630   -1.1860   22.7640 C   0  0  0  0  0  0  0  0  0  0  0  0
  1  3  1  6
  2  6  2  0
  3  6  1  0
  4  6  1  0
  1  9  1  0
  5  9  2  0
  7  9  2  0
 12 13  2  0
 10 14  1  0
 13 14  1  0
  8 15  1  0
 14 15  2  0
  4 16  1  0
 15 16  1  0
 12 17  1  0
 16 17  2  0
 18 19  2  0
 19 20  1  0
 20 21  2  0
 21 22  1  0
 18 23  1  0
 22 23  2  0
 24 25  1  0
 20 26  1  0
 25 26  2  0
  9 27  1  0
 19 27  1  0
 24 27  2  0
  1 28  1  0
 28 29  2  0
 29 30  1  0
 11 31  1  0
 30 31  2  0
 31 32  1  0
  1 33  1  0
 28 33  1  0
 32 33  2  0
M  END
