x3077-x0678
     RDKit          3D

 28 31  0  0  0  0  0  0  0  0999 V2000
    6.9650   -3.1630   19.1530 C   0  0  0  0  0  0  0  0  0  0  0  0
    5.3030   -4.6780   19.9300 O   0  0  0  0  0  0  0  0  0  0  0  0
   13.3090   -1.9540   21.0610 Cl  0  0  0  0  0  0  0  0  0  0  0  0
    6.1840   -3.8370   20.2170 C   0  0  0  0  0  0  0  0  0  0  0  0
    9.1280   -1.9470   24.1840 C   0  0  0  0  0  0  0  0  0  0  0  0
    8.9870    1.6260   21.0440 O   0  0  0  0  0  0  0  0  0  0  0  0
    8.6770    0.4590   21.8020 C   0  0  0  0  0  0  0  0  0  0  0  0
    9.2610    0.2850   23.1350 C   0  0  0  0  0  0  0  0  0  0  0  0
    7.8130   -0.5280   21.3680 N   0  0  0  0  0  0  0  0  0  0  0  0
    6.5240   -3.5480   21.5430 N   0  0  0  0  0  0  0  0  0  0  0  0
    7.3330   -4.3410   22.3160 C   0  0  0  0  0  0  0  0  0  0  0  0
    7.4760   -3.4170   23.4540 C   0  0  2  0  0  0  0  0  0  0  0  0
    6.2370   -2.8870   23.4080 C   0  0  0  0  0  0  0  0  0  0  0  0
    6.2950   -2.3290   22.2000 C   0  0  1  0  0  0  0  0  0  0  0  0
    8.2250   -2.3310   23.1000 N   0  0  0  0  0  0  0  0  0  0  0  0
    7.3350   -1.4270   22.4680 C   0  0  1  0  0  0  0  0  0  0  0  0
   10.8770   -0.0580   24.3420 C   0  0  0  0  0  0  0  0  0  0  0  0
   12.0610    0.5740   23.9330 C   0  0  0  0  0  0  0  0  0  0  0  0
   12.8320    0.0280   22.9390 C   0  0  0  0  0  0  0  0  0  0  0  0
   12.4280   -1.2230   22.2880 C   0  0  0  0  0  0  0  0  0  0  0  0
   11.1900   -1.8270   22.7530 C   0  0  0  0  0  0  0  0  0  0  0  0
   10.4360   -1.2570   23.7500 C   0  0  0  0  0  0  0  0  0  0  0  0
    5.7960    0.7280   20.6190 C   0  0  0  0  0  0  0  0  0  0  0  0
    5.0290    1.1560   19.5230 C   0  0  0  0  0  0  0  0  0  0  0  0
    5.3330    0.8620   18.2410 C   0  0  0  0  0  0  0  0  0  0  0  0
    6.3980    0.1280   17.9180 N   0  0  0  0  0  0  0  0  0  0  0  0
    7.1400   -0.2900   18.9770 C   0  0  0  0  0  0  0  0  0  0  0  0
    6.9320   -0.0460   20.3330 C   0  0  0  0  0  0  0  0  0  0  0  0
  1  4  1  0
  2  4  2  0
  6  7  2  0
  7  8  1  0
  7  9  1  0
  4 10  1  0
 10 11  1  0
 12 11  1  6
 12 13  1  0
 14 10  1  6
 13 14  1  0
  5 15  1  0
 12 15  1  0
 16  9  1  6
 14 16  1  0
 15 16  1  0
 17 18  2  0
 18 19  1  0
  3 20  1  0
 19 20  2  0
 20 21  1  0
  5 22  1  0
 17 22  1  0
 21 22  2  0
 23 24  2  0
 24 25  1  0
 25 26  2  0
 26 27  1  0
  9 28  1  0
 23 28  1  0
 27 28  2  0
M  END
