x3077-x2119
     RDKit          3D

 18 20  0  0  0  0  0  0  0  0999 V2000
    6.9380   -3.2520   19.2370 C   0  0  0  0  0  0  0  0  0  0  0  0
    5.4240   -4.9240   19.9970 O   0  0  0  0  0  0  0  0  0  0  0  0
   13.3460   -1.8160   21.1130 Cl  0  0  0  0  0  0  0  0  0  0  0  0
    6.2400   -4.0260   20.2960 C   0  0  0  0  0  0  0  0  0  0  0  0
    9.2820   -2.0180   24.4080 C   0  0  0  0  0  0  0  0  0  0  0  0
    6.5140   -3.7690   21.6500 N   0  0  0  0  0  0  0  0  0  0  0  0
    7.2590   -4.5750   22.6620 C   0  0  0  0  0  0  0  0  0  0  0  0
    7.5310   -3.6240   23.8050 C   0  0  2  0  0  0  0  0  0  0  0  0
    6.3800   -2.6570   23.6960 C   0  0  0  0  0  0  0  0  0  0  0  0
    6.6060   -2.5080   22.2450 C   0  0  1  0  0  0  0  0  0  0  0  0
    8.5660   -2.6990   23.3190 N   0  0  0  0  0  0  0  0  0  0  0  0
    7.9040   -1.9690   22.2380 C   0  0  0  0  0  0  0  0  0  0  0  0
   10.8030   -0.0380   24.4030 C   0  0  0  0  0  0  0  0  0  0  0  0
   11.9240    0.6460   23.8960 C   0  0  0  0  0  0  0  0  0  0  0  0
   12.7010    0.1390   22.9230 C   0  0  0  0  0  0  0  0  0  0  0  0
   12.3920   -1.1060   22.3820 C   0  0  0  0  0  0  0  0  0  0  0  0
   11.3200   -1.8190   22.8250 C   0  0  0  0  0  0  0  0  0  0  0  0
   10.4740   -1.2900   23.8780 C   0  0  0  0  0  0  0  0  0  0  0  0
  1  4  1  0
  2  4  2  0
  4  6  1  0
  6  7  1  0
  8  7  1  6
  8  9  1  0
  6 10  1  0
  9 10  1  0
  5 11  1  0
  8 11  1  0
 10 12  1  1
 11 12  1  0
 13 14  2  0
 14 15  1  0
  3 16  1  0
 15 16  2  0
 16 17  1  0
  5 18  1  0
 13 18  1  0
 17 18  2  0
M  END
