x3077-x1308
     RDKit          3D

 30 33  0  0  0  0  0  0  0  0999 V2000
    7.2530   -3.3220   19.6660 C   0  0  0  0  0  0  0  0  0  0  0  0
    5.6560   -5.0430   20.0140 O   0  0  0  0  0  0  0  0  0  0  0  0
    0.7070   -1.2860   26.4400 Cl  0  0  0  0  0  0  0  0  0  0  0  0
    6.4700   -4.2550   20.5380 C   0  0  0  0  0  0  0  0  0  0  0  0
    6.4360   -5.0100   26.9680 O   0  0  0  0  0  0  0  0  0  0  0  0
    4.8180   -6.7040   25.9530 O   0  0  0  0  0  0  0  0  0  0  0  0
    5.4350   -5.3580   25.9940 S   0  0  0  0  0  0  0  0  0  0  0  0
   13.3200   -1.8160   21.1210 Cl  0  0  0  0  0  0  0  0  0  0  0  0
    9.0300   -2.4200   23.8750 C   0  0  0  0  0  0  0  0  0  0  0  0
    6.4430   -4.2980   22.0830 C   0  0  2  0  0  0  0  0  0  0  0  0
    7.7510   -4.2670   22.8050 C   0  0  2  0  0  0  0  0  0  0  0  0
    7.4020   -4.4610   24.3110 C   0  0  0  0  0  0  0  0  0  0  0  0
    6.0160   -4.9550   24.4320 N   0  0  0  0  0  0  0  0  0  0  0  0
    5.3100   -4.7910   23.2450 C   0  0  0  0  0  0  0  0  0  0  0  0
    5.6970   -5.6220   22.2340 C   0  0  0  0  0  0  0  0  0  0  0  0
    4.3300   -2.8840   26.4900 C   0  0  0  0  0  0  0  0  0  0  0  0
    3.2570   -1.9920   26.5800 C   0  0  0  0  0  0  0  0  0  0  0  0
    1.9940   -2.4160   26.3000 C   0  0  0  0  0  0  0  0  0  0  0  0
    1.6900   -3.7290   25.9080 C   0  0  0  0  0  0  0  0  0  0  0  0
    2.7230   -4.6450   25.8050 C   0  0  0  0  0  0  0  0  0  0  0  0
    4.0910   -4.1980   26.1120 C   0  0  0  0  0  0  0  0  0  0  0  0
    8.2120   -2.8570   22.7160 N   0  0  0  0  0  0  0  0  0  0  0  0
    6.9750   -2.0720   22.5680 C   0  0  0  0  0  0  0  0  0  0  0  0
    5.8590   -2.9570   22.6250 C   0  0  0  0  0  0  0  0  0  0  0  0
   10.4490   -0.3170   24.2710 C   0  0  0  0  0  0  0  0  0  0  0  0
   11.6130    0.4170   23.9190 C   0  0  0  0  0  0  0  0  0  0  0  0
   12.4640   -0.0460   22.9750 C   0  0  0  0  0  0  0  0  0  0  0  0
   12.2690   -1.2260   22.3020 C   0  0  0  0  0  0  0  0  0  0  0  0
   11.1490   -1.9390   22.6340 C   0  0  0  0  0  0  0  0  0  0  0  0
   10.2400   -1.5220   23.5920 C   0  0  0  0  0  0  0  0  0  0  0  0
  1  4  1  0
  2  4  2  0
  5  7  2  0
  6  7  2  0
 10  4  1  6
 10 11  1  0
 11 12  1  1
  7 13  1  0
 12 13  1  0
 13 14  1  0
 10 15  1  0
 14 15  1  0
 16 17  2  0
  3 18  1  0
 17 18  1  0
 18 19  2  0
 19 20  1  0
  7 21  1  0
 16 21  1  0
 20 21  2  0
  9 22  1  0
 11 22  1  0
 22 23  1  0
 10 24  1  0
 23 24  1  0
 25 26  2  0
 26 27  1  0
  8 28  1  0
 27 28  2  0
 28 29  1  0
  9 30  1  0
 25 30  1  0
 29 30  2  0
M  END
