x3077-x0195
     RDKit          3D

 25 29  0  0  0  0  0  0  0  0999 V2000
    6.9780   -3.2390   19.2470 C   0  0  0  0  0  0  0  0  0  0  0  0
    5.4560   -4.9030   20.0110 O   0  0  0  0  0  0  0  0  0  0  0  0
   13.4970   -2.0100   23.4280 Cl  0  0  0  0  0  0  0  0  0  0  0  0
    6.2620   -3.9850   20.3110 C   0  0  0  0  0  0  0  0  0  0  0  0
    8.9790   -1.2270   23.9040 C   0  0  0  0  0  0  0  0  0  0  0  0
   10.3260    4.5450   23.4120 S   0  0  0  0  0  0  0  0  0  0  0  0
    9.9840    5.0370   24.7160 O   0  0  0  0  0  0  0  0  0  0  0  0
    9.2640    4.6400   22.4520 O   0  0  0  0  0  0  0  0  0  0  0  0
   11.6250    5.5470   22.8840 N   0  0  0  0  0  0  0  0  0  0  0  0
    6.5350   -3.6370   21.6460 N   0  0  0  0  0  0  0  0  0  0  0  0
    7.3020   -4.3410   22.5710 C   0  0  0  0  0  0  0  0  0  0  0  0
    7.6450   -3.3660   23.6140 C   0  0  2  0  0  0  0  0  0  0  0  0
    6.3620   -2.6030   23.5740 C   0  0  0  0  0  0  0  0  0  0  0  0
    6.4760   -2.3380   22.0900 C   0  0  1  0  0  0  0  0  0  0  0  0
    8.4720   -2.3100   23.0570 N   0  0  0  0  0  0  0  0  0  0  0  0
    7.7860   -1.8130   21.9810 C   0  0  0  0  0  0  0  0  0  0  0  0
   10.8380    0.5140   23.3780 C   0  0  1  0  0  0  0  0  0  0  0  0
   12.1640    0.9320   23.6220 C   0  0  1  0  0  0  0  0  0  0  0  0
   12.3290    0.2180   22.6450 C   0  0  1  0  0  0  0  0  0  0  0  0
   12.3580   -1.2010   22.4050 C   0  0  2  0  0  0  0  0  0  0  0  0
   11.2100   -1.7420   22.8200 C   0  0  0  0  0  0  0  0  0  0  0  0
   10.3140   -0.8030   23.3980 C   0  0  0  0  0  0  0  0  0  0  0  0
   10.0890    1.7990   23.4720 C   0  0  0  0  0  0  0  0  0  0  0  0
   10.8970    2.8990   23.3650 C   0  0  0  0  0  0  0  0  0  0  0  0
   12.1810    2.4340   23.1740 C   0  0  0  0  0  0  0  0  0  0  0  0
  1  4  1  0
  2  4  2  0
  6  7  2  0
  6  8  2  0
  6  9  1  0
  4 10  1  0
 10 11  1  0
 12 11  1  6
 12 13  1  0
 10 14  1  0
 13 14  1  0
  5 15  1  0
 12 15  1  0
 14 16  1  1
 15 16  1  0
 17 18  1  0
 17 19  1  0
 18 19  1  0
 20  3  1  1
 19 20  1  1
 20 21  1  0
  5 22  1  0
 17 22  1  0
 21 22  2  0
 17 23  1  6
  6 24  1  0
 23 24  2  0
 18 25  1  6
 24 25  1  0
M  END
