x3077-x2097
     RDKit          3D

 18 20  0  0  0  0  0  0  0  0999 V2000
    6.9430   -3.2450   19.2470 C   0  0  0  0  0  0  0  0  0  0  0  0
    5.4110   -4.9050   19.9930 O   0  0  0  0  0  0  0  0  0  0  0  0
   13.3440   -1.8230   21.1020 Cl  0  0  0  0  0  0  0  0  0  0  0  0
    6.2330   -4.0150   20.2990 C   0  0  0  0  0  0  0  0  0  0  0  0
    9.2890   -2.0240   24.4050 C   0  0  0  0  0  0  0  0  0  0  0  0
    6.5040   -3.7650   21.6570 N   0  0  0  0  0  0  0  0  0  0  0  0
    7.2710   -4.5710   22.6550 C   0  0  0  0  0  0  0  0  0  0  0  0
    7.5440   -3.6250   23.8020 C   0  0  2  0  0  0  0  0  0  0  0  0
    6.3920   -2.6590   23.7090 C   0  0  0  0  0  0  0  0  0  0  0  0
    6.6000   -2.5070   22.2550 C   0  0  1  0  0  0  0  0  0  0  0  0
    8.5720   -2.6970   23.3140 N   0  0  0  0  0  0  0  0  0  0  0  0
    7.8970   -1.9620   22.2440 C   0  0  0  0  0  0  0  0  0  0  0  0
   10.8150   -0.0470   24.3960 C   0  0  0  0  0  0  0  0  0  0  0  0
   11.9360    0.6360   23.8900 C   0  0  0  0  0  0  0  0  0  0  0  0
   12.7110    0.1280   22.9130 C   0  0  0  0  0  0  0  0  0  0  0  0
   12.3970   -1.1160   22.3730 C   0  0  0  0  0  0  0  0  0  0  0  0
   11.3250   -1.8260   22.8190 C   0  0  0  0  0  0  0  0  0  0  0  0
   10.4790   -1.2990   23.8730 C   0  0  0  0  0  0  0  0  0  0  0  0
  1  4  1  0
  2  4  2  0
  4  6  1  0
  6  7  1  0
  8  7  1  6
  8  9  1  0
  6 10  1  0
  9 10  1  0
  5 11  1  0
  8 11  1  0
 10 12  1  1
 11 12  1  0
 13 14  2  0
 14 15  1  0
  3 16  1  0
 15 16  2  0
 16 17  1  0
  5 18  1  0
 13 18  1  0
 17 18  2  0
M  END
