x3077-x0691
     RDKit          3D

 30 33  0  0  0  0  0  0  0  0999 V2000
    4.0100   -6.8460   26.0740 O   0  0  0  0  0  0  0  0  0  0  0  0
    5.7400   -5.2230   26.8250 O   0  0  0  0  0  0  0  0  0  0  0  0
    5.5960   -4.1560   19.7380 O   0  0  0  0  0  0  0  0  0  0  0  0
    6.5590   -4.0660   20.5390 C   0  0  0  0  0  0  0  0  0  0  0  0
    7.9080   -3.5440   20.2470 C   0  0  0  0  0  0  0  0  0  0  0  0
    3.1600   -0.5760   25.9530 F   0  0  0  0  0  0  0  0  0  0  0  0
    4.7470   -5.6220   25.8530 S   0  0  0  0  0  0  0  0  0  0  0  0
   13.2740   -1.9460   21.1460 Cl  0  0  0  0  0  0  0  0  0  0  0  0
    9.1070   -1.8290   24.0890 C   0  0  0  0  0  0  0  0  0  0  0  0
    2.8540   -1.8790   25.8870 C   0  0  0  0  0  0  0  0  0  0  0  0
    3.9420   -2.8800   25.9090 C   0  0  0  0  0  0  0  0  0  0  0  0
    3.5110   -4.3520   25.8330 C   0  0  0  0  0  0  0  0  0  0  0  0
    2.0190   -4.6720   25.7370 C   0  0  0  0  0  0  0  0  0  0  0  0
    1.1380   -3.5850   25.7290 C   0  0  0  0  0  0  0  0  0  0  0  0
    1.5270   -2.2690   25.8010 C   0  0  0  0  0  0  0  0  0  0  0  0
    6.3010   -4.4750   21.9240 C   0  0  1  0  0  0  0  0  0  0  0  0
    5.4490   -5.5230   22.0360 C   0  0  0  0  0  0  0  0  0  0  0  0
    4.6390   -5.6500   23.1540 C   0  0  0  0  0  0  0  0  0  0  0  0
    5.4270   -5.2300   24.3360 N   0  0  0  0  0  0  0  0  0  0  0  0
    6.9110   -5.3430   24.1780 C   0  0  0  0  0  0  0  0  0  0  0  0
    7.2770   -4.4510   23.0880 C   0  0  2  0  0  0  0  0  0  0  0  0
    8.5300   -2.3520   22.8390 N   0  0  0  0  0  0  0  0  0  0  0  0
    7.0960   -2.0720   22.6360 C   0  0  0  0  0  0  0  0  0  0  0  0
    6.3990   -3.2630   22.8880 C   0  0  1  0  0  0  0  0  0  0  0  0
   10.7500    0.0620   24.3290 C   0  0  0  0  0  0  0  0  0  0  0  0
   11.9660    0.6250   23.8890 C   0  0  0  0  0  0  0  0  0  0  0  0
   12.7160    0.0140   22.9400 C   0  0  0  0  0  0  0  0  0  0  0  0
   12.3620   -1.1700   22.3400 C   0  0  0  0  0  0  0  0  0  0  0  0
   11.1860   -1.7140   22.7620 C   0  0  0  0  0  0  0  0  0  0  0  0
   10.3850   -1.1250   23.7300 C   0  0  0  0  0  0  0  0  0  0  0  0
  3  4  2  0
  4  5  1  0
  1  7  2  0
  2  7  2  0
  6 10  1  0
 10 11  2  0
  7 12  1  0
 11 12  1  0
 12 13  2  0
 13 14  1  0
 10 15  1  0
 14 15  2  0
 16  4  1  6
 16 17  1  0
 17 18  1  0
  7 19  1  0
 18 19  1  0
 19 20  1  0
 16 21  1  0
 21 20  1  1
  9 22  1  0
 22 23  1  0
 16 24  1  0
 21 24  1  0
 24 23  1  6
 25 26  2  0
 26 27  1  0
  8 28  1  0
 27 28  2  0
 28 29  1  0
  9 30  1  0
 25 30  1  0
 29 30  2  0
M  END
