x3077-x0991
     RDKit          3D

 22 26  0  0  0  0  0  0  0  0999 V2000
    6.8560   -3.2740   19.4180 C   0  0  0  0  0  0  0  0  0  0  0  0
    5.4550   -5.0540   20.0440 O   0  0  0  0  0  0  0  0  0  0  0  0
   13.2470   -1.9600   21.1480 Cl  0  0  0  0  0  0  0  0  0  0  0  0
    6.2340   -4.1590   20.4540 C   0  0  0  0  0  0  0  0  0  0  0  0
    8.7210   -2.0030   23.8500 C   0  0  2  0  0  0  0  0  0  0  0  0
   10.3640   -4.5750   25.2670 N   0  0  0  0  0  0  0  0  0  0  0  0
    8.3430   -3.5470   23.9430 C   0  0  1  0  0  0  0  0  0  0  0  0
    7.9120   -4.9990   25.7960 N   0  0  0  0  0  0  0  0  0  0  0  0
    8.9310   -4.4140   25.0490 C   0  0  0  0  0  0  0  0  0  0  0  0
    6.5340   -3.9980   21.8570 N   0  0  0  0  0  0  0  0  0  0  0  0
    7.6070   -4.4600   22.5660 C   0  0  1  0  0  0  0  0  0  0  0  0
    8.5460   -3.6270   22.7670 C   0  0  2  0  0  0  0  0  0  0  0  0
    7.4640   -3.1140   23.5360 C   0  0  0  0  0  0  0  0  0  0  0  0
    6.5230   -2.7880   22.6120 C   0  0  1  0  0  0  0  0  0  0  0  0
    8.5250   -2.1510   22.4230 N   0  0  0  0  0  0  0  0  0  0  0  0
    7.1820   -1.8250   21.9210 C   0  0  0  0  0  0  0  0  0  0  0  0
   10.6070   -0.2340   24.3930 C   0  0  0  0  0  0  0  0  0  0  0  0
   11.8660    0.3500   24.1380 C   0  0  0  0  0  0  0  0  0  0  0  0
   12.6930   -0.1520   23.1610 C   0  0  0  0  0  0  0  0  0  0  0  0
   12.2810   -1.3050   22.3670 C   0  0  0  0  0  0  0  0  0  0  0  0
   10.9640   -1.8690   22.6740 C   0  0  0  0  0  0  0  0  0  0  0  0
   10.1340   -1.3480   23.6620 C   0  0  0  0  0  0  0  0  0  0  0  0
  1  4  1  0
  2  4  2  0
  5  7  1  0
  6  9  2  3
  7  9  1  6
  8  9  1  0
  4 10  1  0
  7 11  1  0
 11 10  1  6
  7 12  1  0
 11 12  1  0
 12 13  1  6
 10 14  1  0
 13 14  1  0
  5 15  1  0
 12 15  1  0
 14 16  1  6
 15 16  1  0
 17 18  2  0
 18 19  1  0
  3 20  1  0
 19 20  2  0
 20 21  1  0
  5 22  1  6
 17 22  1  0
 21 22  2  0
M  END
