x3077-x0967
     RDKit          3D

 34 37  0  0  0  0  0  0  0  0999 V2000
    8.0790    4.5200   22.5880 C   0  0  0  0  0  0  0  0  0  0  0  0
    7.0480    2.2310   22.6730 N   0  0  0  0  0  0  0  0  0  0  0  0
    6.8920    3.7840   24.3840 O   0  0  0  0  0  0  0  0  0  0  0  0
    7.3220    3.5070   23.2790 C   0  0  0  0  0  0  0  0  0  0  0  0
    8.7540   -1.3460   22.8700 N   0  0  0  0  0  0  0  0  0  0  0  0
    5.6520    0.8180   17.0310 O   0  0  0  0  0  0  0  0  0  0  0  0
    7.7610    1.0350   22.7100 C   0  0  1  0  0  0  0  0  0  0  0  0
    9.4690    0.3490   21.4640 O   0  0  0  0  0  0  0  0  0  0  0  0
    6.5500    0.2240   22.5410 C   0  0  0  0  0  0  0  0  0  0  0  0
    8.6790   -0.0290   22.3450 C   0  0  0  0  0  0  0  0  0  0  0  0
   10.0360   -1.8000   23.3520 C   0  0  0  0  0  0  0  0  0  0  0  0
   13.2730   -2.4320   23.2530 Br  0  0  0  0  0  0  0  0  0  0  0  0
    7.0110   -3.2180   19.2440 C   0  0  0  0  0  0  0  0  0  0  0  0
    5.3560   -4.7640   19.9550 O   0  0  0  0  0  0  0  0  0  0  0  0
    6.2580   -3.9620   20.2810 C   0  0  0  0  0  0  0  0  0  0  0  0
    6.2450    0.4120   21.1020 C   0  0  0  0  0  0  0  0  0  0  0  0
    6.9900   -0.2790   20.1730 C   0  0  0  0  0  0  0  0  0  0  0  0
    6.7510   -0.1090   18.8840 C   0  0  0  0  0  0  0  0  0  0  0  0
    5.7850    0.7320   18.3440 C   0  0  0  0  0  0  0  0  0  0  0  0
    5.0000    1.4470   19.2330 C   0  0  0  0  0  0  0  0  0  0  0  0
    5.2380    1.2820   20.6740 C   0  0  0  0  0  0  0  0  0  0  0  0
    6.6120   -3.8270   21.6110 N   0  0  0  0  0  0  0  0  0  0  0  0
    6.7940   -4.8540   22.5250 C   0  0  0  0  0  0  0  0  0  0  0  0
    7.1510   -4.0570   23.6010 C   0  0  2  0  0  0  0  0  0  0  0  0
    6.4520   -2.8880   23.5990 C   0  0  0  0  0  0  0  0  0  0  0  0
    6.7710   -2.6520   22.3130 C   0  0  1  0  0  0  0  0  0  0  0  0
    8.4620   -3.4550   23.1920 N   0  0  0  0  0  0  0  0  0  0  0  0
    8.1270   -2.4930   22.2700 C   0  0  2  0  0  0  0  0  0  0  0  0
   11.1760    1.6880   23.0210 C   0  0  0  0  0  0  0  0  0  0  0  0
   12.5240    1.5700   22.9460 C   0  0  0  0  0  0  0  0  0  0  0  0
   13.1230    0.3390   23.0030 C   0  0  0  0  0  0  0  0  0  0  0  0
   12.3670   -0.7930   23.1470 C   0  0  0  0  0  0  0  0  0  0  0  0
   11.0030   -0.6810   23.2150 C   0  0  0  0  0  0  0  0  0  0  0  0
   10.4160    0.5490   23.1560 C   0  0  0  0  0  0  0  0  0  0  0  0
  1  4  1  0
  2  4  1  0
  3  4  2  0
  2  7  1  0
  7  9  1  6
  5 10  1  0
  7 10  1  0
  8 10  2  0
  5 11  1  0
 13 15  1  0
 14 15  2  0
  9 16  1  0
 16 17  2  0
 17 18  1  0
  6 19  1  0
 18 19  2  0
 19 20  1  0
 16 21  1  0
 20 21  2  0
 15 22  1  0
 22 23  1  0
 24 23  1  6
 24 25  1  0
 26 22  1  6
 25 26  1  0
 24 27  1  0
 28  5  1  1
 26 28  1  0
 27 28  1  0
 29 30  2  0
 30 31  1  0
 12 32  1  0
 31 32  2  0
 11 33  1  0
 32 33  1  0
 29 34  1  0
 33 34  2  0
M  END
