x3077-x1382
     RDKit          3D

 22 28  0  0  0  0  0  0  0  0999 V2000
    7.1930   -3.1220   19.6700 C   0  0  0  0  0  0  0  0  0  0  0  0
    5.4350   -4.7790   19.9560 O   0  0  0  0  0  0  0  0  0  0  0  0
   13.3680   -1.9680   21.1150 Cl  0  0  0  0  0  0  0  0  0  0  0  0
    6.3050   -4.0510   20.4850 C   0  0  0  0  0  0  0  0  0  0  0  0
    8.8240   -1.4630   22.8740 C   0  0  1  0  0  0  0  0  0  0  0  0
    7.9050   -1.7250   23.9230 C   0  0  2  0  0  0  0  0  0  0  0  0
    8.1320   -2.1350   21.8670 N   0  0  0  0  0  0  0  0  0  0  0  0
    7.7990   -1.8340   20.5400 C   0  0  0  0  0  0  0  0  0  0  0  0
    7.9080   -0.6900   20.1020 O   0  0  0  0  0  0  0  0  0  0  0  0
    6.4020   -4.1160   21.8490 N   0  0  0  0  0  0  0  0  0  0  0  0
    7.1720   -5.0060   22.6700 C   0  0  0  0  0  0  0  0  0  0  0  0
    7.5030   -4.0150   23.7430 C   0  0  2  0  0  0  0  0  0  0  0  0
    6.3090   -3.4760   23.9720 C   0  0  0  0  0  0  0  0  0  0  0  0
    5.9640   -3.0700   22.7350 C   0  0  1  0  0  0  0  0  0  0  0  0
    8.2040   -2.8550   23.0700 C   0  0  2  0  0  0  0  0  0  0  0  0
    7.0620   -2.0560   22.5420 C   0  0  2  0  0  0  0  0  0  0  0  0
   10.5430    0.0810   23.7930 C   0  0  0  0  0  0  0  0  0  0  0  0
   11.8530    0.5550   23.8290 C   0  0  0  0  0  0  0  0  0  0  0  0
   12.8930   -0.0360   22.9920 C   0  0  0  0  0  0  0  0  0  0  0  0
   12.3800   -1.1330   22.1720 C   0  0  0  0  0  0  0  0  0  0  0  0
   11.0930   -1.5750   22.1590 C   0  0  0  0  0  0  0  0  0  0  0  0
   10.1720   -0.9780   22.9510 C   0  0  0  0  0  0  0  0  0  0  0  0
  1  4  1  0
  2  4  2  0
  6  5  1  6
  5  7  1  0
  1  8  1  0
  7  8  1  0
  8  9  2  0
  4 10  1  0
 10 11  1  0
 12 11  1  6
 12 13  1  0
 10 14  1  0
 14 13  1  1
 15  5  1  0
  6 15  1  0
 15 12  1  1
  6 16  1  0
 16  7  1  1
 14 16  1  0
 15 16  1  0
 17 18  2  0
 18 19  1  0
  3 20  1  0
 19 20  2  0
 20 21  1  0
  5 22  1  6
 17 22  1  0
 21 22  2  0
M  END
