x3077-x2608
     RDKit          3D

 29 32  0  0  0  0  0  0  0  0999 V2000
    7.0150   -3.1890   19.2180 C   0  0  0  0  0  0  0  0  0  0  0  0
    5.4590   -4.7960   19.9990 O   0  0  0  0  0  0  0  0  0  0  0  0
   13.3540   -1.5920   21.3700 Cl  0  0  0  0  0  0  0  0  0  0  0  0
    6.3640   -3.9690   20.2860 C   0  0  0  0  0  0  0  0  0  0  0  0
    9.3750   -2.7170   24.5020 C   0  0  0  0  0  0  0  0  0  0  0  0
    8.8060   -1.3370   21.5600 N   0  0  0  0  0  0  0  0  0  0  0  0
    8.6940    1.2340   21.0450 O   0  0  0  0  0  0  0  0  0  0  0  0
    6.8530   -0.3970   20.9390 N   0  0  0  0  0  0  0  0  0  0  0  0
    8.1580   -0.0970   21.1720 C   0  0  0  0  0  0  0  0  0  0  0  0
   13.0440    1.4160   22.8490 C   0  0  0  0  0  0  0  0  0  0  0  0
    6.8640   -3.7960   21.5960 N   0  0  0  0  0  0  0  0  0  0  0  0
    7.2060   -4.7670   22.4920 C   0  0  0  0  0  0  0  0  0  0  0  0
    7.6140   -4.0630   23.7530 C   0  0  2  0  0  0  0  0  0  0  0  0
    6.6290   -3.1020   23.6690 C   0  0  0  0  0  0  0  0  0  0  0  0
    6.8230   -2.5970   22.4350 C   0  0  1  0  0  0  0  0  0  0  0  0
    8.7920   -3.1650   23.2590 N   0  0  0  0  0  0  0  0  0  0  0  0
    8.0950   -2.0370   22.6310 C   0  0  1  0  0  0  0  0  0  0  0  0
   10.3860   -0.3530   24.5840 C   0  0  0  0  0  0  0  0  0  0  0  0
   11.2940    0.5880   24.1350 C   0  0  0  0  0  0  0  0  0  0  0  0
   12.1970    0.2640   23.1770 C   0  0  0  0  0  0  0  0  0  0  0  0
   12.2710   -1.0770   22.5720 C   0  0  0  0  0  0  0  0  0  0  0  0
   11.2880   -2.0080   23.0890 C   0  0  0  0  0  0  0  0  0  0  0  0
   10.3750   -1.6450   24.0640 C   0  0  0  0  0  0  0  0  0  0  0  0
    6.1230    0.8010   17.6100 N   0  0  0  0  0  0  0  0  0  0  0  0
    6.6480    0.2020   18.6770 C   0  0  0  0  0  0  0  0  0  0  0  0
    6.0970    0.3120   19.9470 C   0  0  0  0  0  0  0  0  0  0  0  0
    4.9740    1.0410   20.1430 C   0  0  0  0  0  0  0  0  0  0  0  0
    4.3950    1.6820   19.0800 C   0  0  0  0  0  0  0  0  0  0  0  0
    5.0130    1.5320   17.8590 C   0  0  0  0  0  0  0  0  0  0  0  0
  1  4  1  0
  2  4  2  0
  6  9  1  0
  7  9  2  0
  8  9  1  0
  4 11  1  0
 11 12  1  0
 13 12  1  6
 13 14  1  0
 15 11  1  6
 14 15  1  0
  5 16  1  0
 13 16  1  0
 17  6  1  6
 15 17  1  0
 16 17  1  0
 18 19  2  0
 10 20  1  0
 19 20  1  0
  3 21  1  0
 20 21  2  0
 21 22  1  0
  5 23  1  0
 18 23  1  0
 22 23  2  0
 24 25  2  0
  8 26  1  0
 25 26  1  0
 26 27  2  0
 27 28  1  0
 24 29  1  0
 28 29  2  0
M  END
