x3077-x0354
     RDKit          3D

 28 31  0  0  0  0  0  0  0  0999 V2000
    7.0590   -3.2010   19.1700 C   0  0  0  0  0  0  0  0  0  0  0  0
    5.5300   -4.8120   20.0150 O   0  0  0  0  0  0  0  0  0  0  0  0
   13.0230   -2.1490   21.2750 Cl  0  0  0  0  0  0  0  0  0  0  0  0
    6.3670   -3.9010   20.2790 C   0  0  0  0  0  0  0  0  0  0  0  0
    8.7880   -1.5970   24.6070 C   0  0  2  0  0  0  0  0  0  0  0  0
    9.0260   -2.5800   25.5980 O   0  0  0  0  0  0  0  0  0  0  0  0
    7.6260   -0.7790   26.8130 O   0  0  0  0  0  0  0  0  0  0  0  0
    8.0200   -0.4940   25.4060 C   0  0  0  0  0  0  0  0  0  0  0  0
    5.8530    3.1770   30.5280 C   0  0  0  0  0  0  0  0  0  0  0  0
    6.6890   -3.5270   21.6170 N   0  0  0  0  0  0  0  0  0  0  0  0
    7.0030   -4.3160   22.6320 C   0  0  0  0  0  0  0  0  0  0  0  0
    7.1260   -3.2620   23.7810 C   0  0  2  0  0  0  0  0  0  0  0  0
    6.0260   -2.5590   23.4360 C   0  0  0  0  0  0  0  0  0  0  0  0
    6.4800   -2.2690   22.2130 C   0  0  1  0  0  0  0  0  0  0  0  0
    8.1210   -2.3330   23.4920 N   0  0  0  0  0  0  0  0  0  0  0  0
    7.7170   -1.6080   22.4010 C   0  0  0  0  0  0  0  0  0  0  0  0
   10.6490    0.2070   24.3830 C   0  0  0  0  0  0  0  0  0  0  0  0
   11.8500    0.7530   23.8640 C   0  0  0  0  0  0  0  0  0  0  0  0
   12.5790    0.0460   22.9230 C   0  0  0  0  0  0  0  0  0  0  0  0
   12.1350   -1.2650   22.4350 C   0  0  0  0  0  0  0  0  0  0  0  0
   10.8690   -1.7430   23.0320 C   0  0  0  0  0  0  0  0  0  0  0  0
   10.1320   -1.0330   23.9940 C   0  0  0  0  0  0  0  0  0  0  0  0
    7.8990    1.4530   27.8640 C   0  0  0  0  0  0  0  0  0  0  0  0
    7.3960    2.3810   28.8090 C   0  0  0  0  0  0  0  0  0  0  0  0
    6.2990    2.1710   29.5900 C   0  0  0  0  0  0  0  0  0  0  0  0
    5.6170    0.9640   29.4630 C   0  0  0  0  0  0  0  0  0  0  0  0
    6.1130    0.0350   28.5240 C   0  0  0  0  0  0  0  0  0  0  0  0
    7.2520    0.2560   27.7120 C   0  0  0  0  0  0  0  0  0  0  0  0
  1  4  1  0
  2  4  2  0
  5  6  1  1
  5  8  1  0
  7  8  1  0
  4 10  1  0
 10 11  1  0
 12 11  1  6
 12 13  1  0
 10 14  1  0
 13 14  1  0
  5 15  1  0
 12 15  1  0
 14 16  1  1
 15 16  1  0
 17 18  2  0
 18 19  1  0
  3 20  1  0
 19 20  2  0
 20 21  1  0
  5 22  1  0
 17 22  1  0
 21 22  2  0
 23 24  2  0
  9 25  1  0
 24 25  1  0
 25 26  2  0
 26 27  1  0
  7 28  1  0
 23 28  1  0
 27 28  2  0
M  END
