x3077-x0831
     RDKit          3D

 18 20  0  0  0  0  0  0  0  0999 V2000
    6.9900   -3.2490   19.2670 C   0  0  0  0  0  0  0  0  0  0  0  0
    5.4050   -4.8710   19.9870 O   0  0  0  0  0  0  0  0  0  0  0  0
   13.3190   -1.8700   21.1120 Cl  0  0  0  0  0  0  0  0  0  0  0  0
    6.2270   -3.9830   20.3090 C   0  0  0  0  0  0  0  0  0  0  0  0
    9.2700   -2.0570   24.4360 C   0  0  0  0  0  0  0  0  0  0  0  0
    6.4450   -3.6970   21.6680 N   0  0  0  0  0  0  0  0  0  0  0  0
    7.0370   -4.5230   22.7620 C   0  0  0  0  0  0  0  0  0  0  0  0
    7.4030   -3.5460   23.8570 C   0  0  2  0  0  0  0  0  0  0  0  0
    6.3450   -2.4900   23.6650 C   0  0  0  0  0  0  0  0  0  0  0  0
    6.6300   -2.4240   22.2170 C   0  0  1  0  0  0  0  0  0  0  0  0
    8.5330   -2.7400   23.3570 N   0  0  0  0  0  0  0  0  0  0  0  0
    7.9720   -2.0050   22.2300 C   0  0  0  0  0  0  0  0  0  0  0  0
   10.7970   -0.0740   24.4090 C   0  0  0  0  0  0  0  0  0  0  0  0
   11.9140    0.6090   23.8940 C   0  0  0  0  0  0  0  0  0  0  0  0
   12.6900    0.1020   22.9180 C   0  0  0  0  0  0  0  0  0  0  0  0
   12.3780   -1.1480   22.3840 C   0  0  0  0  0  0  0  0  0  0  0  0
   11.3090   -1.8580   22.8390 C   0  0  0  0  0  0  0  0  0  0  0  0
   10.4620   -1.3320   23.8930 C   0  0  0  0  0  0  0  0  0  0  0  0
  1  4  1  0
  2  4  2  0
  4  6  1  0
  6  7  1  0
  8  7  1  6
  8  9  1  0
  6 10  1  0
  9 10  1  0
  5 11  1  0
  8 11  1  0
 10 12  1  1
 11 12  1  0
 13 14  2  0
 14 15  1  0
  3 16  1  0
 15 16  2  0
 16 17  1  0
  5 18  1  0
 13 18  1  0
 17 18  2  0
M  END
