x3080-x3108
     RDKit          3D

 25 28  0  0  0  0  0  0  0  0999 V2000
    9.3870   -0.5070   23.0530 C   0  0  1  0  0  0  0  0  0  0  0  0
   10.2900    0.4770   23.0180 C   0  0  0  0  0  0  0  0  0  0  0  0
    9.6580   -1.7750   22.2960 C   0  0  0  0  0  0  0  0  0  0  0  0
    8.2840   -0.5090   20.7030 N   0  0  0  0  0  0  0  0  0  0  0  0
    7.3200   -1.0970   24.4520 O   0  0  0  0  0  0  0  0  0  0  0  0
    9.1440    0.2810   25.4820 O   0  0  0  0  0  0  0  0  0  0  0  0
    5.9450    0.8490   22.1250 C   0  0  0  0  0  0  0  0  0  0  0  0
    8.7260   -0.8320   24.6540 S   0  0  0  0  0  0  0  0  0  0  0  0
    8.3980   -0.9350   22.0010 C   0  0  2  0  0  0  0  0  0  0  0  0
    6.1080    0.4280   17.7450 N   0  0  0  0  0  0  0  0  0  0  0  0
    4.9880    1.1090   18.4150 C   0  0  0  0  0  0  0  0  0  0  0  0
    4.9580    1.2340   19.9270 C   0  0  0  0  0  0  0  0  0  0  0  0
    6.0500    0.6800   20.6040 C   0  0  0  0  0  0  0  0  0  0  0  0
    7.1120    0.0520   20.0020 C   0  0  0  0  0  0  0  0  0  0  0  0
    7.1390   -0.0790   18.6410 C   0  0  0  0  0  0  0  0  0  0  0  0
   11.5440   -1.3450   24.8260 N   0  0  0  0  0  0  0  0  0  0  0  0
   10.7660   -2.3590   25.2550 C   0  0  0  0  0  0  0  0  0  0  0  0
   11.2780   -3.5700   25.7730 C   0  0  0  0  0  0  0  0  0  0  0  0
   12.6720   -3.6930   25.8600 C   0  0  0  0  0  0  0  0  0  0  0  0
   13.5840   -2.6330   25.4190 C   0  0  0  0  0  0  0  0  0  0  0  0
   12.8810   -1.4660   24.8950 C   0  0  0  0  0  0  0  0  0  0  0  0
    8.4870   -3.2500   25.6240 C   0  0  0  0  0  0  0  0  0  0  0  0
    9.0400   -4.4140   26.1070 C   0  0  0  0  0  0  0  0  0  0  0  0
   10.4050   -4.5930   26.1920 C   0  0  0  0  0  0  0  0  0  0  0  0
    9.3690   -2.2390   25.2080 C   0  0  0  0  0  0  0  0  0  0  0  0
  1  2  1  1
  1  3  1  0
  1  8  1  0
  5  8  2  0
  6  8  2  0
  1  9  1  0
  3  9  1  0
  9  4  1  6
 10 11  2  0
 11 12  1  0
  7 13  1  0
 12 13  2  0
  4 14  1  0
 13 14  1  0
 10 15  1  0
 14 15  2  0
 16 17  2  0
 17 18  1  0
 18 19  2  0
 19 20  1  0
 16 21  1  0
 20 21  2  0
 22 23  1  0
 18 24  1  0
 23 24  2  0
  8 25  1  0
 17 25  1  0
 22 25  2  0
M  END
