x3080-x2581
     RDKit          3D

 42 49  0  0  0  0  0  0  0  0999 V2000
    7.7620   -0.6820   21.1020 C   0  0  2  0  0  0  0  0  0  0  0  0
    7.3030   -1.1510   24.0950 O   0  0  0  0  0  0  0  0  0  0  0  0
    8.8020    0.2810   25.5080 O   0  0  0  0  0  0  0  0  0  0  0  0
    5.3610    0.9030   21.9730 C   0  0  0  0  0  0  0  0  0  0  0  0
    8.6140   -0.8050   24.5800 S   0  0  0  0  0  0  0  0  0  0  0  0
   10.3880   -1.6120   22.7050 C   0  0  0  0  0  0  0  0  0  0  0  0
   10.3610    2.9840   22.0930 N   0  0  0  0  0  0  0  0  0  0  0  0
   11.2890    3.1870   24.1760 O   0  0  0  0  0  0  0  0  0  0  0  0
   11.1640    3.6710   23.0920 C   0  0  0  0  0  0  0  0  0  0  0  0
   11.7710    4.9760   22.7030 C   0  0  0  0  0  0  0  0  0  0  0  0
    6.2770    0.4890   17.7260 N   0  0  0  0  0  0  0  0  0  0  0  0
    5.1410    1.2730   18.1180 C   0  0  0  0  0  0  0  0  0  0  0  0
    4.8840    1.3670   19.6010 C   0  0  0  0  0  0  0  0  0  0  0  0
    5.7150    0.7370   20.5270 C   0  0  0  0  0  0  0  0  0  0  0  0
    6.8060    0.0010   20.1410 C   0  0  0  0  0  0  0  0  0  0  0  0
    7.0730   -0.1260   18.7810 C   0  0  0  0  0  0  0  0  0  0  0  0
   11.5140   -1.4360   24.8280 N   0  0  0  0  0  0  0  0  0  0  0  0
   10.7050   -2.4210   25.2740 C   0  0  0  0  0  0  0  0  0  0  0  0
   11.1920   -3.6130   25.8160 C   0  0  0  0  0  0  0  0  0  0  0  0
   12.5780   -3.7860   25.9180 C   0  0  0  0  0  0  0  0  0  0  0  0
   13.5280   -2.7630   25.4530 C   0  0  0  0  0  0  0  0  0  0  0  0
   12.8580   -1.5840   24.9010 C   0  0  0  0  0  0  0  0  0  0  0  0
    8.4410   -3.3060   25.6710 C   0  0  0  0  0  0  0  0  0  0  0  0
    8.9220   -4.4950   26.2000 C   0  0  0  0  0  0  0  0  0  0  0  0
   10.2850   -4.7450   26.3190 C   0  0  0  0  0  0  0  0  0  0  0  0
    9.3050   -2.3100   25.2300 C   0  0  0  0  0  0  0  0  0  0  0  0
    8.7990    1.2640   21.5920 C   0  0  2  0  0  0  0  0  0  0  0  0
    9.5660    1.8500   22.5750 C   0  0  1  0  0  0  0  0  0  0  0  0
   10.2770    0.8290   23.2450 C   0  0  0  0  0  0  0  0  0  0  0  0
    9.5560   -0.3870   23.1380 C   0  0  2  0  0  0  0  0  0  0  0  0
    8.4860   -0.1480   22.3000 C   0  0  1  0  0  0  0  0  0  0  0  0
    9.0420    0.0300   21.1630 C   0  0  1  0  0  0  0  0  0  0  0  0
    9.8260    6.5980   22.7980 C   0  0  0  0  0  0  0  0  0  0  0  0
    9.1300    7.6940   23.3150 C   0  0  0  0  0  0  0  0  0  0  0  0
    9.6350    8.4380   24.3800 C   0  0  0  0  0  0  0  0  0  0  0  0
   10.9560    8.0920   25.0250 C   0  0  0  0  0  0  0  0  0  0  0  0
   11.6210    6.8750   24.3770 C   0  0  0  0  0  0  0  0  0  0  0  0
   11.0610    6.1760   23.3070 C   0  0  0  0  0  0  0  0  0  0  0  0
    8.9610    9.6380   24.9890 C   0  0  0  0  0  0  0  0  0  0  0  0
    9.5530   10.3330   26.0590 C   0  0  0  0  0  0  0  0  0  0  0  0
   10.7800    9.9680   26.6250 C   0  0  0  0  0  0  0  0  0  0  0  0
   11.4730    8.8320   26.0900 C   0  0  0  0  0  0  0  0  0  0  0  0
  2  5  2  0
  3  5  2  0
  7  9  1  0
  8  9  2  0
  9 10  1  0
 11 12  2  0
 12 13  1  0
  4 14  1  0
 13 14  2  0
  1 15  1  6
 14 15  1  0
 11 16  1  0
 15 16  2  0
 17 18  2  0
 18 19  1  0
 19 20  2  0
 20 21  1  0
 17 22  1  0
 21 22  2  0
 23 24  1  0
 19 25  1  0
 24 25  2  0
  5 26  1  0
 18 26  1  0
 23 26  2  0
 28  7  1  6
 27 28  1  1
 28 29  1  0
  5 30  1  0
 30  6  1  6
 29 30  1  0
  1 31  1  0
 27 31  1  0
 31 30  1  6
 32  1  1  6
 27 32  1  0
 31 32  1  0
 33 34  2  0
 34 35  1  0
 35 36  2  0
 36 37  1  0
 10 38  1  0
 33 38  1  0
 37 38  2  0
 35 39  1  0
 39 40  2  0
 40 41  1  0
 36 42  1  0
 41 42  2  0
M  END
