x3080-x2964
     RDKit          3D

 33 37  0  0  0  0  0  0  0  0999 V2000
    9.3470   -0.0940   23.5290 C   0  0  2  0  0  0  0  0  0  0  0  0
    8.8680    1.5000   21.0540 O   0  0  0  0  0  0  0  0  0  0  0  0
    8.4310   -0.5130   22.4420 C   0  0  0  0  0  0  0  0  0  0  0  0
    7.1400   -0.2400   20.9420 N   0  0  0  0  0  0  0  0  0  0  0  0
    7.2860   -1.1150   24.5260 O   0  0  0  0  0  0  0  0  0  0  0  0
    8.2380    0.4760   21.3540 C   0  0  0  0  0  0  0  0  0  0  0  0
    8.7850    0.2260   25.9920 O   0  0  0  0  0  0  0  0  0  0  0  0
    5.4860    0.7260   21.7130 C   0  0  0  0  0  0  0  0  0  0  0  0
    8.6160   -0.7530   24.9540 S   0  0  0  0  0  0  0  0  0  0  0  0
    3.5730    2.2230   19.9060 N   0  0  0  0  0  0  0  0  0  0  0  0
   13.4210   -2.0870   21.2070 Cl  0  0  0  0  0  0  0  0  0  0  0  0
    6.2810    0.7600   17.3990 N   0  0  0  0  0  0  0  0  0  0  0  0
    5.1090    1.4860   17.9130 C   0  0  0  0  0  0  0  0  0  0  0  0
    4.7380    1.5210   19.4080 C   0  0  0  0  0  0  0  0  0  0  0  0
    5.6580    0.7850   20.3690 C   0  0  0  0  0  0  0  0  0  0  0  0
    6.6840    0.2010   19.6510 C   0  0  0  0  0  0  0  0  0  0  0  0
    7.0620    0.1020   18.4100 C   0  0  0  0  0  0  0  0  0  0  0  0
   11.5920   -1.2300   24.9660 N   0  0  0  0  0  0  0  0  0  0  0  0
   10.7690   -2.3540   25.3610 C   0  0  0  0  0  0  0  0  0  0  0  0
   11.3400   -3.5210   25.7460 C   0  0  0  0  0  0  0  0  0  0  0  0
   12.7530   -3.6690   25.8100 C   0  0  0  0  0  0  0  0  0  0  0  0
   13.5560   -2.6030   25.4360 C   0  0  0  0  0  0  0  0  0  0  0  0
   12.9150   -1.3670   24.9990 C   0  0  0  0  0  0  0  0  0  0  0  0
    8.5720   -3.3260   25.7250 C   0  0  0  0  0  0  0  0  0  0  0  0
    9.1260   -4.5140   26.0910 C   0  0  0  0  0  0  0  0  0  0  0  0
   10.5040   -4.6100   26.1040 C   0  0  0  0  0  0  0  0  0  0  0  0
    9.3900   -2.2620   25.3700 C   0  0  0  0  0  0  0  0  0  0  0  0
   10.6560    0.5860   23.5390 C   0  0  0  0  0  0  0  0  0  0  0  0
   12.0090    0.9880   23.3870 C   0  0  0  0  0  0  0  0  0  0  0  0
   12.9270    0.1820   22.6800 C   0  0  0  0  0  0  0  0  0  0  0  0
   12.5230   -1.0330   22.1160 C   0  0  0  0  0  0  0  0  0  0  0  0
   11.2800   -1.4390   22.2620 C   0  0  0  0  0  0  0  0  0  0  0  0
   10.5090   -0.6070   22.9330 C   0  0  0  0  0  0  0  0  0  0  0  0
  1  3  1  1
  2  6  2  0
  3  6  1  0
  4  6  1  0
  1  9  1  0
  5  9  2  0
  7  9  2  0
 12 13  2  0
 10 14  1  0
 13 14  1  0
  8 15  1  0
 14 15  2  0
  4 16  1  0
 15 16  1  0
 12 17  1  0
 16 17  2  0
 18 19  2  0
 19 20  1  0
 20 21  2  0
 21 22  1  0
 18 23  1  0
 22 23  2  0
 24 25  1  0
 20 26  1  0
 25 26  2  0
  9 27  1  0
 19 27  1  0
 24 27  2  0
  1 28  1  0
 28 29  2  0
 29 30  1  0
 11 31  1  0
 30 31  2  0
 31 32  1  0
  1 33  1  0
 28 33  1  0
 32 33  2  0
M  END
