x3080-x0107
     RDKit          3D

 26 28  0  0  0  0  0  0  0  0999 V2000
   10.0370   -0.5440   23.4340 N   0  0  0  0  0  0  0  0  0  0  0  0
   10.7140    0.6800   23.5220 C   0  0  0  0  0  0  0  0  0  0  0  0
    9.0560    1.2100   21.2340 O   0  0  0  0  0  0  0  0  0  0  0  0
    9.6810   -0.9930   22.0730 C   0  0  0  0  0  0  0  0  0  0  0  0
    7.5860   -0.5950   20.8940 N   0  0  0  0  0  0  0  0  0  0  0  0
    7.5670   -1.1220   23.8440 O   0  0  0  0  0  0  0  0  0  0  0  0
    8.7700    0.0000   21.3680 C   0  0  0  0  0  0  0  0  0  0  0  0
    8.8610    0.2400   25.5240 O   0  0  0  0  0  0  0  0  0  0  0  0
    5.3620    0.8390   21.8410 C   0  0  0  0  0  0  0  0  0  0  0  0
    8.7960   -0.8150   24.5350 S   0  0  0  0  0  0  0  0  0  0  0  0
    6.2910    0.6190   17.6010 N   0  0  0  0  0  0  0  0  0  0  0  0
    5.1330    1.4100   18.0070 C   0  0  0  0  0  0  0  0  0  0  0  0
    4.7500    1.5210   19.4850 C   0  0  0  0  0  0  0  0  0  0  0  0
    5.6120    0.8000   20.5130 C   0  0  0  0  0  0  0  0  0  0  0  0
    6.6820    0.1030   19.9730 C   0  0  0  0  0  0  0  0  0  0  0  0
    7.0220   -0.0140   18.6790 C   0  0  0  0  0  0  0  0  0  0  0  0
   11.6570   -1.4100   24.7880 N   0  0  0  0  0  0  0  0  0  0  0  0
   10.7660   -2.4620   25.2760 C   0  0  0  0  0  0  0  0  0  0  0  0
   11.2630   -3.5990   25.8130 C   0  0  0  0  0  0  0  0  0  0  0  0
   12.6660   -3.7570   25.9240 C   0  0  0  0  0  0  0  0  0  0  0  0
   13.5460   -2.7850   25.4810 C   0  0  0  0  0  0  0  0  0  0  0  0
   12.9780   -1.5840   24.8890 C   0  0  0  0  0  0  0  0  0  0  0  0
    8.4970   -3.2840   25.6480 C   0  0  0  0  0  0  0  0  0  0  0  0
    9.0000   -4.4500   26.1860 C   0  0  0  0  0  0  0  0  0  0  0  0
   10.3730   -4.6040   26.2690 C   0  0  0  0  0  0  0  0  0  0  0  0
    9.3990   -2.3150   25.2080 C   0  0  0  0  0  0  0  0  0  0  0  0
  1  2  1  0
  1  4  1  0
  3  7  2  0
  4  7  1  0
  5  7  1  0
 10  1  1  0
  6 10  2  0
  8 10  2  0
 11 12  2  0
 12 13  1  0
  9 14  1  0
 13 14  2  0
  5 15  1  0
 14 15  1  0
 11 16  1  0
 15 16  2  0
 17 18  2  0
 18 19  1  0
 19 20  2  0
 20 21  1  0
 17 22  1  0
 21 22  2  0
 23 24  1  0
 19 25  1  0
 24 25  2  0
 10 26  1  0
 18 26  1  0
 23 26  2  0
M  END
