x3080-x1412
     RDKit          3D

 35 40  0  0  0  0  0  0  0  0999 V2000
    9.9700   -0.3710   23.4290 N   0  0  0  0  0  0  0  0  0  0  0  0
   10.7430    0.7920   23.5510 C   0  0  0  0  0  0  0  0  0  0  0  0
    8.8890    1.3810   21.1330 O   0  0  0  0  0  0  0  0  0  0  0  0
    9.5770   -0.7900   22.0560 C   0  0  2  0  0  0  0  0  0  0  0  0
    7.4410   -0.5020   21.1240 N   0  0  0  0  0  0  0  0  0  0  0  0
    7.6770   -1.2930   23.9260 N   0  0  0  0  0  0  0  0  0  0  0  0
    8.6280    0.1890   21.3910 C   0  0  0  0  0  0  0  0  0  0  0  0
    8.9020    0.2790   25.6940 O   0  0  0  0  0  0  0  0  0  0  0  0
    5.0900    1.0920   21.6110 C   0  0  0  0  0  0  0  0  0  0  0  0
    8.8900   -0.7540   24.6830 S   0  0  2  0  0  0  0  0  0  0  0  0
    7.3680   -3.0710   18.6900 C   0  0  0  0  0  0  0  0  0  0  0  0
    5.4310   -4.1350   19.6840 O   0  0  0  0  0  0  0  0  0  0  0  0
    6.4130   -3.3610   19.8050 C   0  0  0  0  0  0  0  0  0  0  0  0
    6.2950    0.5970   17.7270 N   0  0  0  0  0  0  0  0  0  0  0  0
    5.3530    1.2340   18.0260 C   0  0  0  0  0  0  0  0  0  0  0  0
    4.9130    1.4250   19.3250 C   0  0  0  0  0  0  0  0  0  0  0  0
    5.5700    0.8710   20.3690 C   0  0  0  0  0  0  0  0  0  0  0  0
    6.6700    0.1290   20.0550 C   0  0  0  0  0  0  0  0  0  0  0  0
    7.0030    0.0060   18.7470 C   0  0  0  0  0  0  0  0  0  0  0  0
   11.6870   -1.3860   24.8380 N   0  0  0  0  0  0  0  0  0  0  0  0
   10.8890   -2.3820   25.2920 C   0  0  0  0  0  0  0  0  0  0  0  0
   11.3780   -3.5950   25.8030 C   0  0  0  0  0  0  0  0  0  0  0  0
   12.8470   -3.8180   25.8910 C   0  0  0  0  0  0  0  0  0  0  0  0
   13.5780   -2.6770   25.3790 C   0  0  0  0  0  0  0  0  0  0  0  0
   13.0030   -1.5400   24.8810 C   0  0  0  0  0  0  0  0  0  0  0  0
    8.6210   -3.2060   25.7100 C   0  0  0  0  0  0  0  0  0  0  0  0
    9.1200   -4.4010   26.1950 C   0  0  0  0  0  0  0  0  0  0  0  0
   10.4590   -4.5830   26.2400 C   0  0  0  0  0  0  0  0  0  0  0  0
    9.5250   -2.2350   25.2760 C   0  0  0  0  0  0  0  0  0  0  0  0
    6.6760   -2.7540   21.0020 N   0  0  0  0  0  0  0  0  0  0  0  0
    7.8210   -1.8420   20.9550 C   0  0  2  0  0  0  0  0  0  0  0  0
    8.7760   -2.1270   21.9320 C   0  0  2  0  0  0  0  0  0  0  0  0
    8.1400   -2.4940   23.1880 N   0  0  0  0  0  0  0  0  0  0  0  0
    7.3200   -3.6860   23.1070 C   0  0  0  0  0  0  0  0  0  0  0  0
    6.2590   -3.3700   22.2670 C   0  0  0  0  0  0  0  0  0  0  0  0
  1  2  1  0
  1  4  1  0
  3  7  2  0
  4  7  1  1
  5  7  1  0
  1 10  1  0
  6 10  2  0
  8 10  2  0
 11 13  1  0
 12 13  2  0
 14 15  2  0
 15 16  1  0
  9 17  1  0
 16 17  2  0
  5 18  1  0
 17 18  1  0
 14 19  1  0
 18 19  2  0
 20 21  2  0
 21 22  1  0
 22 23  2  0
 23 24  1  0
 20 25  1  0
 24 25  2  0
 26 27  1  0
 22 28  1  0
 27 28  2  0
 10 29  1  1
 21 29  1  0
 26 29  2  0
 13 30  1  0
 31  5  1  1
 30 31  1  0
  4 32  1  0
 31 32  1  0
  6 33  1  0
 32 33  1  1
 33 34  1  0
 30 35  1  0
 34 35  1  0
M  END
