x3080-x1374
     RDKit          3D

 43 47  0  0  0  0  0  0  0  0999 V2000
    6.8710   -0.2390   24.1930 N   0  0  0  0  0  0  0  0  0  0  0  0
    7.1850    0.5530   25.3100 C   0  0  0  0  0  0  0  0  0  0  0  0
    8.5980    1.7450   21.4780 O   0  0  0  0  0  0  0  0  0  0  0  0
    7.7970   -0.0130   23.0140 C   0  0  0  0  0  0  0  0  0  0  0  0
    6.2840    1.6140   21.9080 N   0  0  0  0  0  0  0  0  0  0  0  0
    5.9810   -2.5030   23.4530 O   0  0  0  0  0  0  0  0  0  0  0  0
    7.6280    1.2050   22.0620 C   0  0  0  0  0  0  0  0  0  0  0  0
    5.9330   -1.8770   25.8660 O   0  0  0  0  0  0  0  0  0  0  0  0
    3.5680    2.1890   20.9360 C   0  0  0  0  0  0  0  0  0  0  0  0
    6.6250   -1.9020   24.5920 S   0  0  0  0  0  0  0  0  0  0  0  0
    6.3750   -4.1800   21.7200 N   0  0  0  0  0  0  0  0  0  0  0  0
    6.1680   -3.9220   20.3630 C   0  0  0  0  0  0  0  0  0  0  0  0
    5.1700   -4.3660   19.8070 O   0  0  0  0  0  0  0  0  0  0  0  0
    7.1190   -3.1230   19.5530 C   0  0  0  0  0  0  0  0  0  0  0  0
    3.0330   -7.2720   22.7220 O   0  0  0  0  0  0  0  0  0  0  0  0
    4.2950   -7.5630   24.9940 O   0  0  0  0  0  0  0  0  0  0  0  0
    6.2600    0.5360   18.3090 N   0  0  0  0  0  0  0  0  0  0  0  0
    5.1480    0.8080   18.0310 C   0  0  0  0  0  0  0  0  0  0  0  0
    4.1950    1.3720   18.8910 C   0  0  0  0  0  0  0  0  0  0  0  0
    4.5380    1.6470   20.1690 C   0  0  0  0  0  0  0  0  0  0  0  0
    5.8210    1.3510   20.5460 C   0  0  0  0  0  0  0  0  0  0  0  0
    6.6200    0.8090   19.6010 C   0  0  0  0  0  0  0  0  0  0  0  0
    9.0620   -1.8040   22.6690 N   0  0  0  0  0  0  0  0  0  0  0  0
    9.3100   -2.4140   23.8420 C   0  0  0  0  0  0  0  0  0  0  0  0
   10.6630   -2.8770   24.0730 C   0  0  0  0  0  0  0  0  0  0  0  0
   11.7690   -2.7150   23.0960 C   0  0  0  0  0  0  0  0  0  0  0  0
   11.3490   -2.0370   21.8810 C   0  0  0  0  0  0  0  0  0  0  0  0
   10.0340   -1.6350   21.7700 C   0  0  0  0  0  0  0  0  0  0  0  0
    8.5640   -3.2200   26.0970 C   0  0  0  0  0  0  0  0  0  0  0  0
    9.8810   -3.5030   26.0390 C   0  0  0  0  0  0  0  0  0  0  0  0
   10.9500   -3.4680   25.2820 C   0  0  0  0  0  0  0  0  0  0  0  0
    8.2460   -2.5770   24.8620 C   0  0  0  0  0  0  0  0  0  0  0  0
    9.2150   -3.1660   24.8260 C   0  0  0  0  0  0  0  0  0  0  0  0
    9.0220   -2.2310   23.7850 C   0  0  0  0  0  0  0  0  0  0  0  0
    8.0790   -2.5040   22.6760 C   0  0  0  0  0  0  0  0  0  0  0  0
    7.3230   -3.7390   22.6380 C   0  0  0  0  0  0  0  0  0  0  0  0
    7.5720   -4.5950   23.6800 C   0  0  0  0  0  0  0  0  0  0  0  0
    8.4500   -4.3370   24.7010 C   0  0  0  0  0  0  0  0  0  0  0  0
    4.4560   -4.2840   23.1490 C   0  0  0  0  0  0  0  0  0  0  0  0
    5.2810   -5.0300   22.2960 C   0  0  2  0  0  0  0  0  0  0  0  0
    5.6340   -6.3900   22.8720 C   0  0  0  0  0  0  0  0  0  0  0  0
    4.0870   -6.6230   23.7190 S   0  0  0  0  0  0  0  0  0  0  0  0
    3.7250   -5.0100   24.0230 C   0  0  0  0  0  0  0  0  0  0  0  0
  1  2  1  0
  1  4  1  0
  3  7  2  0
  4  7  1  0
  5  7  1  0
 10  1  1  0
  6 10  2  0
  8 10  2  0
 11 12  1  0
 12 13  2  0
 12 14  1  0
 17 18  2  0
 18 19  1  0
  9 20  1  0
 19 20  2  0
  5 21  1  0
 20 21  1  0
 17 22  1  0
 21 22  2  0
 23 24  2  0
 24 25  1  0
 25 26  2  0
 26 27  1  0
 23 28  1  0
 27 28  2  0
 29 30  1  0
 25 31  1  0
 30 31  2  0
 10 32  1  0
 24 32  1  0
 29 32  2  0
 30 33  1  0
 33 34  2  0
 34 35  1  0
 11 36  1  0
 35 36  2  0
 36 37  1  0
 33 38  1  0
 37 38  2  0
 40 11  1  1
 39 40  1  0
 40 41  1  0
 42 15  1  0
 16 42  1  0
 41 42  1  0
 39 43  2  0
 42 43  1  0
M  END
