x3108-x1308-x0107
     RDKit          3D

 42 45  0  0  0  0  0  0  0  0999 V2000
    6.0720    1.7930   21.9990 C   0  0  0  0  0  0  0  0  0  0  0  0
    9.2740    1.7840   21.3790 O   0  0  0  0  0  0  0  0  0  0  0  0
    8.1700   -0.2100   21.1590 N   0  0  0  0  0  0  0  0  0  0  0  0
    8.3760    0.2850   25.1640 O   0  0  0  0  0  0  0  0  0  0  0  0
    9.5830   -0.9810   23.6940 N   0  0  0  0  0  0  0  0  0  0  0  0
    9.1390    0.6060   21.7600 C   0  0  0  0  0  0  0  0  0  0  0  0
   10.0430    0.1060   22.8400 C   0  0  0  0  0  0  0  0  0  0  0  0
    8.5610   -0.7800   24.5970 C   0  0  0  0  0  0  0  0  0  0  0  0
    7.6610   -1.9710   24.8320 C   0  0  0  0  0  0  0  0  0  0  0  0
    7.1050   -3.5910   19.9090 C   0  0  0  0  0  0  0  0  0  0  0  0
    5.2980   -5.0840   20.0070 O   0  0  0  0  0  0  0  0  0  0  0  0
    0.7470   -1.2240   26.4920 Cl  0  0  0  0  0  0  0  0  0  0  0  0
    6.3030   -4.7190   20.5690 C   0  0  0  0  0  0  0  0  0  0  0  0
    6.2710   -5.2560   26.8280 O   0  0  0  0  0  0  0  0  0  0  0  0
    4.5360   -6.9070   26.0760 O   0  0  0  0  0  0  0  0  0  0  0  0
    5.1910   -5.6260   25.9460 S   0  0  0  0  0  0  0  0  0  0  0  0
    8.2840   -1.6660   21.3290 C   0  0  0  0  0  0  0  0  0  0  0  0
    7.0730   -2.3730   20.8590 C   0  0  0  0  0  0  0  0  0  0  0  0
    6.3240    0.1290   18.0250 N   0  0  0  0  0  0  0  0  0  0  0  0
    7.1980   -0.2340   18.9840 C   0  0  0  0  0  0  0  0  0  0  0  0
    7.2140    0.2460   20.3030 C   0  0  0  0  0  0  0  0  0  0  0  0
    6.2260    1.1720   20.6430 C   0  0  0  0  0  0  0  0  0  0  0  0
    5.3100    1.5480   19.6460 C   0  0  0  0  0  0  0  0  0  0  0  0
    5.3910    1.0150   18.3690 C   0  0  0  0  0  0  0  0  0  0  0  0
    9.9000   -5.0560   24.7060 N   0  0  0  0  0  0  0  0  0  0  0  0
    9.2510   -3.8990   24.4140 C   0  0  0  0  0  0  0  0  0  0  0  0
    8.3430   -3.2440   25.2520 C   0  0  0  0  0  0  0  0  0  0  0  0
    8.0470   -3.8730   26.6370 C   0  0  0  0  0  0  0  0  0  0  0  0
    8.7670   -5.1540   26.9570 C   0  0  0  0  0  0  0  0  0  0  0  0
    9.6810   -5.6640   25.9000 C   0  0  0  0  0  0  0  0  0  0  0  0
    6.6900   -5.3690   21.7340 N   0  0  0  0  0  0  0  0  0  0  0  0
    7.4550   -4.6480   22.7600 C   0  0  0  0  0  0  0  0  0  0  0  0
    6.5470   -4.2900   23.9360 C   0  0  0  0  0  0  0  0  0  0  0  0
    5.7810   -5.5000   24.3550 N   0  0  0  0  0  0  0  0  0  0  0  0
    5.0070   -6.1570   23.2660 C   0  0  0  0  0  0  0  0  0  0  0  0
    5.8650   -6.4850   22.2200 C   0  0  0  0  0  0  0  0  0  0  0  0
    4.2820   -3.0860   26.4570 C   0  0  0  0  0  0  0  0  0  0  0  0
    3.3010   -2.1100   26.5790 C   0  0  0  0  0  0  0  0  0  0  0  0
    1.9620   -2.4220   26.3190 C   0  0  0  0  0  0  0  0  0  0  0  0
    1.6130   -3.7080   25.9260 C   0  0  0  0  0  0  0  0  0  0  0  0
    2.6660   -4.7750   25.7900 C   0  0  0  0  0  0  0  0  0  0  0  0
    3.9320   -4.3910   26.0710 C   0  0  0  0  0  0  0  0  0  0  0  0
  2  6  2  0
  3  6  1  0
  5  7  1  0
  6  7  1  0
  4  8  2  0
  5  8  1  0
  8  9  1  0
 10 13  1  0
 11 13  2  0
 14 16  2  0
 15 16  2  0
  3 17  1  0
 10 18  1  0
 17 18  1  0
 19 20  2  0
  3 21  1  0
 20 21  1  0
  1 22  1  0
 21 22  2  0
 22 23  1  0
 19 24  1  0
 23 24  2  0
 25 26  2  0
  9 27  1  0
 26 27  1  0
 27 28  2  0
 28 29  1  0
 25 30  1  0
 29 30  2  0
 13 31  1  0
 31 32  1  0
 32 33  1  0
 16 34  1  0
 33 34  1  0
 34 35  1  0
 31 36  1  0
 35 36  1  0
 37 38  2  0
 12 39  1  0
 38 39  1  0
 39 40  2  0
 40 41  1  0
 16 42  1  0
 37 42  1  0
 41 42  2  0
M  END
