x3108-x0691
     RDKit          3D

 42 45  0  0  0  0  0  0  0  0999 V2000
    5.9740    1.8310   22.0230 C   0  0  0  0  0  0  0  0  0  0  0  0
    9.2520    1.8000   21.3580 O   0  0  0  0  0  0  0  0  0  0  0  0
    8.0680   -0.1880   21.2000 N   0  0  0  0  0  0  0  0  0  0  0  0
    8.2600    0.5080   24.8030 O   0  0  0  0  0  0  0  0  0  0  0  0
    9.4410   -1.0070   23.4580 N   0  0  0  0  0  0  0  0  0  0  0  0
    9.0820    0.6150   21.7190 C   0  0  0  0  0  0  0  0  0  0  0  0
   10.0250    0.0510   22.7170 C   0  0  0  0  0  0  0  0  0  0  0  0
    8.4080   -0.8580   24.4380 C   0  0  0  0  0  0  0  0  0  0  0  0
    7.5910   -2.0020   24.9360 C   0  0  0  0  0  0  0  0  0  0  0  0
    3.8430   -6.9210   25.7320 O   0  0  0  0  0  0  0  0  0  0  0  0
    5.6140   -5.3620   26.7630 O   0  0  0  0  0  0  0  0  0  0  0  0
    5.5120   -4.5620   19.9440 O   0  0  0  0  0  0  0  0  0  0  0  0
    6.5640   -4.6310   20.6390 C   0  0  0  0  0  0  0  0  0  0  0  0
    7.7510   -3.7800   20.3460 C   0  0  0  0  0  0  0  0  0  0  0  0
    3.3180   -0.7010   25.9480 F   0  0  0  0  0  0  0  0  0  0  0  0
    4.5750   -5.6730   25.7100 S   0  0  0  0  0  0  0  0  0  0  0  0
    8.1570   -1.6310   21.2810 C   0  0  0  0  0  0  0  0  0  0  0  0
    7.4490   -2.3010   20.3360 C   0  0  0  0  0  0  0  0  0  0  0  0
    6.3400    0.2450   17.9810 N   0  0  0  0  0  0  0  0  0  0  0  0
    7.1630   -0.1280   18.9870 C   0  0  0  0  0  0  0  0  0  0  0  0
    7.1000    0.3330   20.2610 C   0  0  0  0  0  0  0  0  0  0  0  0
    6.1320    1.2660   20.6450 C   0  0  0  0  0  0  0  0  0  0  0  0
    5.2550    1.6810   19.6440 C   0  0  0  0  0  0  0  0  0  0  0  0
    5.3970    1.1340   18.2900 C   0  0  0  0  0  0  0  0  0  0  0  0
    9.7780   -5.1070   24.5960 N   0  0  0  0  0  0  0  0  0  0  0  0
    9.1650   -3.9230   24.3440 C   0  0  0  0  0  0  0  0  0  0  0  0
    8.2790   -3.3130   25.2350 C   0  0  0  0  0  0  0  0  0  0  0  0
    8.0240   -3.9690   26.4480 C   0  0  0  0  0  0  0  0  0  0  0  0
    8.6590   -5.1960   26.7080 C   0  0  0  0  0  0  0  0  0  0  0  0
    9.5060   -5.7120   25.7750 C   0  0  0  0  0  0  0  0  0  0  0  0
    2.9070   -1.9730   25.8550 C   0  0  0  0  0  0  0  0  0  0  0  0
    3.8290   -3.0110   25.8280 C   0  0  0  0  0  0  0  0  0  0  0  0
    3.3950   -4.3400   25.7320 C   0  0  0  0  0  0  0  0  0  0  0  0
    2.0340   -4.6270   25.6590 C   0  0  0  0  0  0  0  0  0  0  0  0
    1.1180   -3.5780   25.6870 C   0  0  0  0  0  0  0  0  0  0  0  0
    1.5440   -2.2530   25.7880 C   0  0  0  0  0  0  0  0  0  0  0  0
    6.6270   -5.4840   21.7260 N   0  0  0  0  0  0  0  0  0  0  0  0
    5.5550   -6.4220   22.0020 C   0  0  0  0  0  0  0  0  0  0  0  0
    4.6410   -5.9100   22.9310 C   0  0  0  0  0  0  0  0  0  0  0  0
    5.3480   -5.5370   24.1880 N   0  0  0  0  0  0  0  0  0  0  0  0
    6.6240   -4.8050   24.1090 C   0  0  0  0  0  0  0  0  0  0  0  0
    7.4510   -5.2140   22.8930 C   0  0  0  0  0  0  0  0  0  0  0  0
  2  6  2  0
  3  6  1  0
  5  7  1  0
  6  7  1  0
  4  8  2  0
  5  8  1  0
  8  9  1  0
 12 13  2  0
 13 14  1  0
 10 16  2  0
 11 16  2  0
  3 17  1  0
 14 18  1  0
 17 18  1  0
 19 20  2  0
  3 21  1  0
 20 21  1  0
  1 22  1  0
 21 22  2  0
 22 23  1  0
 19 24  1  0
 23 24  2  0
 25 26  2  0
  9 27  1  0
 26 27  1  0
 27 28  2  0
 28 29  1  0
 25 30  1  0
 29 30  2  0
 15 31  1  0
 31 32  2  0
 16 33  1  0
 32 33  1  0
 33 34  2  0
 34 35  1  0
 31 36  1  0
 35 36  2  0
 13 37  1  0
 37 38  1  0
 38 39  1  0
 16 40  1  0
 39 40  1  0
 40 41  1  0
 37 42  1  0
 41 42  1  0
M  END
