x3108-x1402
     RDKit          3D

 41 44  0  0  0  0  0  0  0  0999 V2000
    5.8950    1.8570   22.0580 C   0  0  0  0  0  0  0  0  0  0  0  0
    9.2010    1.7750   21.3500 O   0  0  0  0  0  0  0  0  0  0  0  0
    7.9610   -0.2110   21.2490 N   0  0  0  0  0  0  0  0  0  0  0  0
    8.1780    0.4640   24.8410 O   0  0  0  0  0  0  0  0  0  0  0  0
    9.4110   -1.1380   23.4930 N   0  0  0  0  0  0  0  0  0  0  0  0
    9.0080    0.6070   21.7280 C   0  0  0  0  0  0  0  0  0  0  0  0
    9.9750   -0.0290   22.7450 C   0  0  0  0  0  0  0  0  0  0  0  0
    8.4310   -0.8680   24.4160 C   0  0  0  0  0  0  0  0  0  0  0  0
    7.6110   -1.9980   24.9350 C   0  0  0  0  0  0  0  0  0  0  0  0
    7.2260   -3.5310   20.0080 C   0  0  0  0  0  0  0  0  0  0  0  0
    5.2180   -4.7510   19.9490 O   0  0  0  0  0  0  0  0  0  0  0  0
    0.7600   -1.4390   26.2340 Cl  0  0  0  0  0  0  0  0  0  0  0  0
    6.3080   -4.5910   20.5270 C   0  0  0  0  0  0  0  0  0  0  0  0
    3.9190   -6.4990   25.9510 O   0  0  0  0  0  0  0  0  0  0  0  0
    5.9940   -5.5070   26.8080 O   0  0  0  0  0  0  0  0  0  0  0  0
    4.9440   -5.4120   25.7320 S   0  0  0  0  0  0  0  0  0  0  0  0
    8.3350   -1.5390   20.8220 C   0  0  0  0  0  0  0  0  0  0  0  0
    7.6000   -2.6160   21.1910 C   0  0  0  0  0  0  0  0  0  0  0  0
    6.2980    0.2600   18.0180 N   0  0  0  0  0  0  0  0  0  0  0  0
    7.0950   -0.1280   19.0380 C   0  0  0  0  0  0  0  0  0  0  0  0
    7.0180    0.3360   20.3140 C   0  0  0  0  0  0  0  0  0  0  0  0
    6.0640    1.2880   20.6810 C   0  0  0  0  0  0  0  0  0  0  0  0
    5.2140    1.7180   19.6650 C   0  0  0  0  0  0  0  0  0  0  0  0
    5.3660    1.1690   18.3110 C   0  0  0  0  0  0  0  0  0  0  0  0
    9.7880   -5.1170   24.5990 N   0  0  0  0  0  0  0  0  0  0  0  0
    9.1820   -3.9320   24.3470 C   0  0  0  0  0  0  0  0  0  0  0  0
    8.2920   -3.3140   25.2280 C   0  0  0  0  0  0  0  0  0  0  0  0
    8.0310   -3.9820   26.4340 C   0  0  0  0  0  0  0  0  0  0  0  0
    8.6560   -5.2090   26.7000 C   0  0  0  0  0  0  0  0  0  0  0  0
    9.5080   -5.7260   25.7730 C   0  0  0  0  0  0  0  0  0  0  0  0
    6.6080   -5.4370   21.6120 N   0  0  0  0  0  0  0  0  0  0  0  0
    7.3730   -4.8840   22.7330 C   0  0  0  0  0  0  0  0  0  0  0  0
    6.5440   -4.4470   23.7530 C   0  0  0  0  0  0  0  0  0  0  0  0
    5.6780   -5.5760   24.1960 N   0  0  0  0  0  0  0  0  0  0  0  0
    4.8050   -6.0270   23.0780 C   0  0  0  0  0  0  0  0  0  0  0  0
    5.6590   -6.4550   22.0570 C   0  0  0  0  0  0  0  0  0  0  0  0
    2.3810   -3.8990   25.9570 S   0  0  0  0  0  0  0  0  0  0  0  0
    4.0990   -3.8600   25.8660 C   0  0  0  0  0  0  0  0  0  0  0  0
    4.5530   -2.5430   25.9220 C   0  0  0  0  0  0  0  0  0  0  0  0
    3.5370   -1.6150   26.0400 C   0  0  0  0  0  0  0  0  0  0  0  0
    2.2820   -2.2080   26.0790 C   0  0  0  0  0  0  0  0  0  0  0  0
  2  6  2  0
  3  6  1  0
  5  7  1  0
  6  7  1  0
  4  8  2  0
  5  8  1  0
  8  9  1  0
 10 13  1  0
 11 13  2  0
 14 16  2  0
 15 16  2  0
  3 17  1  0
 10 18  1  0
 17 18  1  0
 19 20  2  0
  3 21  1  0
 20 21  1  0
  1 22  1  0
 21 22  2  0
 22 23  1  0
 19 24  1  0
 23 24  2  0
 25 26  2  0
  9 27  1  0
 26 27  1  0
 27 28  2  0
 28 29  1  0
 25 30  1  0
 29 30  2  0
 13 31  1  0
 31 32  1  0
 32 33  1  0
 16 34  1  0
 33 34  1  0
 34 35  1  0
 31 36  1  0
 35 36  1  0
 16 38  1  0
 37 38  1  0
 38 39  2  0
 39 40  1  0
 12 41  1  0
 37 41  1  0
 40 41  2  0
M  END
