x3108-x1478
     RDKit          3D

 34 36  0  0  0  0  0  0  0  0999 V2000
    6.1690    1.5200   22.0850 C   0  0  0  0  0  0  0  0  0  0  0  0
    9.2120    1.6160   21.3440 O   0  0  0  0  0  0  0  0  0  0  0  0
    8.2420   -0.4950   21.1040 N   0  0  0  0  0  0  0  0  0  0  0  0
    8.1950    0.4250   24.8500 O   0  0  0  0  0  0  0  0  0  0  0  0
    9.4730   -1.0670   23.5630 N   0  0  0  0  0  0  0  0  0  0  0  0
    9.1290    0.4120   21.7060 C   0  0  0  0  0  0  0  0  0  0  0  0
   10.0350   -0.0250   22.7920 C   0  0  0  0  0  0  0  0  0  0  0  0
    8.3780   -0.9350   24.4740 C   0  0  0  0  0  0  0  0  0  0  0  0
    7.5460   -2.1030   24.8940 C   0  0  0  0  0  0  0  0  0  0  0  0
    5.9050   -2.6910   21.3880 N   0  0  0  0  0  0  0  0  0  0  0  0
    7.4390   -4.0500   20.4210 C   0  0  0  0  0  0  0  0  0  0  0  0
    5.2710   -3.7590   19.4610 O   0  0  0  0  0  0  0  0  0  0  0  0
    5.6170   -5.7340   22.1850 Cl  0  0  0  0  0  0  0  0  0  0  0  0
    6.0910   -3.5080   20.3470 C   0  0  0  0  0  0  0  0  0  0  0  0
    8.3650   -1.9610   21.3510 C   0  0  0  0  0  0  0  0  0  0  0  0
    8.3640   -2.8800   20.3100 C   0  0  0  0  0  0  0  0  0  0  0  0
    6.2820    0.1170   17.9360 N   0  0  0  0  0  0  0  0  0  0  0  0
    7.2240   -0.3570   18.9400 C   0  0  0  0  0  0  0  0  0  0  0  0
    7.2200    0.0580   20.2260 C   0  0  0  0  0  0  0  0  0  0  0  0
    6.2650    0.9950   20.6840 C   0  0  0  0  0  0  0  0  0  0  0  0
    5.3370    1.4710   19.7490 C   0  0  0  0  0  0  0  0  0  0  0  0
    5.3760    1.0040   18.3610 C   0  0  0  0  0  0  0  0  0  0  0  0
    9.7460   -5.1870   24.5940 N   0  0  0  0  0  0  0  0  0  0  0  0
    9.1150   -4.0260   24.3400 C   0  0  0  0  0  0  0  0  0  0  0  0
    8.2380   -3.4010   25.2270 C   0  0  0  0  0  0  0  0  0  0  0  0
    8.0060   -4.0360   26.4590 C   0  0  0  0  0  0  0  0  0  0  0  0
    8.6540   -5.2500   26.7420 C   0  0  0  0  0  0  0  0  0  0  0  0
    9.4850   -5.7480   25.7900 C   0  0  0  0  0  0  0  0  0  0  0  0
    4.7270   -4.6510   24.2810 N   0  0  0  0  0  0  0  0  0  0  0  0
    5.2280   -4.3190   23.0810 C   0  0  0  0  0  0  0  0  0  0  0  0
    5.3960   -3.0080   22.6440 C   0  0  0  0  0  0  0  0  0  0  0  0
    5.0410   -1.9760   23.4810 C   0  0  0  0  0  0  0  0  0  0  0  0
    4.5270   -2.2800   24.7200 C   0  0  0  0  0  0  0  0  0  0  0  0
    4.3840   -3.6220   25.0790 C   0  0  0  0  0  0  0  0  0  0  0  0
  2  6  2  0
  3  6  1  0
  5  7  1  0
  6  7  1  0
  4  8  2  0
  5  8  1  0
  8  9  1  0
 10 14  1  0
 11 14  1  0
 12 14  2  0
  3 15  1  0
 11 16  1  0
 15 16  1  0
 17 18  2  0
  3 19  1  0
 18 19  1  0
  1 20  1  0
 19 20  2  0
 20 21  1  0
 17 22  1  0
 21 22  2  0
 23 24  2  0
  9 25  1  0
 24 25  1  0
 25 26  2  0
 26 27  1  0
 23 28  1  0
 27 28  2  0
 13 30  1  0
 29 30  2  0
 10 31  1  0
 30 31  1  0
 31 32  2  0
 32 33  1  0
 29 34  1  0
 33 34  2  0
M  END
