x3108-x3303
     RDKit          3D

 35 42  0  0  0  0  0  0  0  0999 V2000
    4.7470   -0.7470   21.7120 C   0  0  0  0  0  0  0  0  0  0  0  0
    9.6590    0.5630   22.8120 O   0  0  0  0  0  0  0  0  0  0  0  0
    7.8610    0.4000   24.7280 O   0  0  0  0  0  0  0  0  0  0  0  0
    8.5350   -0.8340   24.4980 C   0  0  2  0  0  0  0  0  0  0  0  0
    7.8390   -2.0580   24.9800 C   0  0  2  0  0  0  0  0  0  0  0  0
    6.1420   -2.6040   21.0060 C   0  0  0  0  0  0  0  0  0  0  0  0
    5.3180   -3.3700   21.5290 O   0  0  0  0  0  0  0  0  0  0  0  0
    4.8700    2.0410   17.3500 O   0  0  0  0  0  0  0  0  0  0  0  0
    5.9650    1.5820   19.3550 C   0  0  2  0  0  0  0  0  0  0  0  0
    7.2100    0.7630   19.4510 C   0  0  0  0  0  0  0  0  0  0  0  0
    6.8570   -0.1620   20.5140 C   0  0  0  0  0  0  0  0  0  0  0  0
    5.5150   -0.1050   20.6490 C   0  0  0  0  0  0  0  0  0  0  0  0
    4.7710    0.6900   19.6010 C   0  0  2  0  0  0  0  0  0  0  0  0
    5.2470    0.9710   18.1980 C   0  0  1  0  0  0  0  0  0  0  0  0
    9.8210   -5.3070   24.9580 N   0  0  0  0  0  0  0  0  0  0  0  0
    9.2880   -4.1120   24.6250 C   0  0  0  0  0  0  0  0  0  0  0  0
    8.4140   -3.3830   25.4110 C   0  0  0  0  0  0  0  0  0  0  0  0
    8.0870   -3.9690   26.6420 C   0  0  0  0  0  0  0  0  0  0  0  0
    8.6220   -5.1970   27.0190 C   0  0  0  0  0  0  0  0  0  0  0  0
    9.4790   -5.8220   26.1450 C   0  0  0  0  0  0  0  0  0  0  0  0
    7.9500   -0.8850   21.2100 C   0  0  1  0  0  0  0  0  0  0  0  0
    8.9210    0.0150   22.0650 C   0  0  0  0  0  0  0  0  0  0  0  0
    9.1040   -1.0850   23.1620 C   0  0  2  0  0  0  0  0  0  0  0  0
    7.8260   -1.8310   23.5240 C   0  0  1  0  0  0  0  0  0  0  0  0
    7.9900   -2.9180   22.5960 C   0  0  0  0  0  0  0  0  0  0  0  0
    7.3890   -2.2070   21.5210 N   0  0  0  0  0  0  0  0  0  0  0  0
   11.5100   -1.5650   22.2880 C   0  0  0  0  0  0  0  0  0  0  0  0
   12.8340   -1.9970   22.4540 C   0  0  0  0  0  0  0  0  0  0  0  0
   13.2620   -2.4830   23.6830 C   0  0  0  0  0  0  0  0  0  0  0  0
   12.3740   -2.5370   24.7450 C   0  0  0  0  0  0  0  0  0  0  0  0
   11.0520   -2.0980   24.5780 C   0  0  0  0  0  0  0  0  0  0  0  0
   10.5740   -1.5950   23.3390 C   0  0  0  0  0  0  0  0  0  0  0  0
    5.5270    2.4890   20.5800 C   0  0  0  0  0  0  0  0  0  0  0  0
    4.0240    2.5750   20.6360 C   0  0  0  0  0  0  0  0  0  0  0  0
    3.6140    1.4930   20.0520 C   0  0  0  0  0  0  0  0  0  0  0  0
  4  3  1  6
  4  5  1  0
  6  7  2  0
  9 10  1  1
 10 11  1  0
  1 12  1  0
 11 12  2  0
  9 13  1  0
 13 12  1  0
 14  8  1  6
  9 14  1  0
 13 14  1  0
 15 16  2  0
  5 17  1  6
 16 17  1  0
 17 18  2  0
 18 19  1  0
 15 20  1  0
 19 20  2  0
 21 11  1  1
  2 22  2  0
 21 22  1  0
  4 23  1  0
 22 23  1  0
  4 24  1  0
  5 24  1  0
 23 24  1  0
 24 25  1  6
  6 26  1  0
 21 26  1  0
 25 26  1  0
 27 28  2  0
 28 29  1  0
 29 30  2  0
 30 31  1  0
 23 32  1  1
 27 32  1  0
 31 32  2  0
  9 33  1  0
 33 34  1  0
 13 35  1  6
 34 35  2  0
M  END
