x3108-x0678
     RDKit          3D

 26 28  0  0  0  0  0  0  0  0999 V2000
    6.2350    1.6780   22.2050 C   0  0  0  0  0  0  0  0  0  0  0  0
    9.5160    1.3600   21.6630 O   0  0  0  0  0  0  0  0  0  0  0  0
    8.2630   -0.6020   21.4210 N   0  0  0  0  0  0  0  0  0  0  0  0
    8.3070    0.0900   24.9410 O   0  0  0  0  0  0  0  0  0  0  0  0
    9.4470   -1.5030   23.6420 N   0  0  0  0  0  0  0  0  0  0  0  0
    9.3610    0.1490   21.9180 C   0  0  0  0  0  0  0  0  0  0  0  0
    8.4830   -1.0660   24.5770 C   0  0  0  0  0  0  0  0  0  0  0  0
    7.6790   -2.2050   25.0960 C   0  0  0  0  0  0  0  0  0  0  0  0
    6.3690    0.1450   18.0230 N   0  0  0  0  0  0  0  0  0  0  0  0
    7.2890   -0.4480   18.9890 C   0  0  0  0  0  0  0  0  0  0  0  0
    7.3610   -0.0200   20.4550 C   0  0  0  0  0  0  0  0  0  0  0  0
    6.3700    1.0860   20.8310 C   0  0  0  0  0  0  0  0  0  0  0  0
    5.5360    1.5580   19.7890 C   0  0  0  0  0  0  0  0  0  0  0  0
    5.5550    1.1020   18.4830 C   0  0  0  0  0  0  0  0  0  0  0  0
    9.5980   -5.3190   24.8000 N   0  0  0  0  0  0  0  0  0  0  0  0
    8.9530   -4.0410   24.5520 C   0  0  0  0  0  0  0  0  0  0  0  0
    8.2090   -3.3910   25.4750 C   0  0  0  0  0  0  0  0  0  0  0  0
    8.0170   -3.9500   26.7640 C   0  0  0  0  0  0  0  0  0  0  0  0
    8.6210   -5.1760   27.0460 C   0  0  0  0  0  0  0  0  0  0  0  0
    9.4200   -5.8430   26.0190 C   0  0  0  0  0  0  0  0  0  0  0  0
   11.3490   -1.6450   22.1080 C   0  0  0  0  0  0  0  0  0  0  0  0
   12.6790   -1.6720   22.4950 C   0  0  0  0  0  0  0  0  0  0  0  0
   12.9100   -1.3140   23.8040 C   0  0  0  0  0  0  0  0  0  0  0  0
   12.3970   -0.0320   24.0340 C   0  0  0  0  0  0  0  0  0  0  0  0
   11.0350    0.1600   23.8110 C   0  0  0  0  0  0  0  0  0  0  0  0
   10.3980   -0.6600   22.8530 C   0  0  0  0  0  0  0  0  0  0  0  0
  2  6  2  0
  3  6  1  0
  4  7  2  0
  5  7  1  0
  7  8  1  0
  9 10  2  0
  3 11  1  0
 10 11  1  0
  1 12  1  0
 11 12  2  0
 12 13  1  0
  9 14  1  0
 13 14  2  0
 15 16  2  0
  8 17  1  0
 16 17  1  0
 17 18  2  0
 18 19  1  0
 15 20  1  0
 19 20  2  0
 21 22  1  0
 22 23  1  0
 23 24  1  0
 24 25  1  0
  5 26  1  0
 26  6  1  0
 21 26  1  0
 25 26  1  0
M  END
