x3108-x0770
     RDKit          3D

 37 43  0  0  0  0  0  0  0  0999 V2000
    5.8800    1.7150   21.7720 C   0  0  0  0  0  0  0  0  0  0  0  0
    9.0250    1.7740   21.1800 O   0  0  0  0  0  0  0  0  0  0  0  0
    7.8420   -0.2950   20.9270 C   0  0  1  0  0  0  0  0  0  0  0  0
    6.7460   -0.4140   24.3240 O   0  0  0  0  0  0  0  0  0  0  0  0
    8.9430   -0.7480   23.5090 C   0  0  1  0  0  0  0  0  0  0  0  0
    8.5790    0.7530   21.7120 C   0  0  0  0  0  0  0  0  0  0  0  0
    8.7190    0.5130   23.1260 C   0  0  0  0  0  0  0  0  0  0  0  0
    7.8260   -1.3700   24.2100 C   0  0  1  0  0  0  0  0  0  0  0  0
    8.0610   -1.9340   25.5230 C   0  0  0  0  0  0  0  0  0  0  0  0
    7.2630   -3.0180   18.9210 C   0  0  0  0  0  0  0  0  0  0  0  0
    5.2850   -4.1270   19.6970 O   0  0  0  0  0  0  0  0  0  0  0  0
    6.2250   -3.3350   19.9560 C   0  0  0  0  0  0  0  0  0  0  0  0
   13.3810   -1.7890   21.1880 Cl  0  0  0  0  0  0  0  0  0  0  0  0
    6.2160    0.4040   17.6540 N   0  0  0  0  0  0  0  0  0  0  0  0
    7.0850   -0.1440   18.6790 C   0  0  0  0  0  0  0  0  0  0  0  0
    6.9450    0.2890   19.9190 C   0  0  0  0  0  0  0  0  0  0  0  0
    6.0190    1.2430   20.3510 C   0  0  0  0  0  0  0  0  0  0  0  0
    5.1710    1.7930   19.4130 C   0  0  0  0  0  0  0  0  0  0  0  0
    5.2290    1.3990   18.0080 C   0  0  0  0  0  0  0  0  0  0  0  0
    9.9190   -5.1750   24.9480 N   0  0  0  0  0  0  0  0  0  0  0  0
    9.4670   -3.9180   24.7960 C   0  0  0  0  0  0  0  0  0  0  0  0
    8.5570   -3.3390   25.6670 C   0  0  0  0  0  0  0  0  0  0  0  0
    8.0920   -4.0960   26.7420 C   0  0  0  0  0  0  0  0  0  0  0  0
    8.5690   -5.4020   26.8950 C   0  0  0  0  0  0  0  0  0  0  0  0
    9.4630   -5.8850   25.9940 C   0  0  0  0  0  0  0  0  0  0  0  0
    6.3420   -2.7830   21.2320 N   0  0  0  0  0  0  0  0  0  0  0  0
    6.7620   -1.3560   21.3700 C   0  0  1  0  0  0  0  0  0  0  0  0
    8.0660   -1.5740   21.5850 C   0  0  2  0  0  0  0  0  0  0  0  0
    8.2080   -1.9610   22.8850 C   0  0  1  0  0  0  0  0  0  0  0  0
    7.9770   -3.3200   22.9640 C   0  0  0  0  0  0  0  0  0  0  0  0
    6.7840   -3.6870   22.3690 C   0  0  0  0  0  0  0  0  0  0  0  0
   11.0320   -0.5610   24.8250 C   0  0  0  0  0  0  0  0  0  0  0  0
   12.3970   -0.6450   24.8860 C   0  0  0  0  0  0  0  0  0  0  0  0
   13.1330   -1.0260   23.7730 C   0  0  0  0  0  0  0  0  0  0  0  0
   12.5420   -1.3340   22.5740 C   0  0  0  0  0  0  0  0  0  0  0  0
   11.0970   -1.2810   22.4130 C   0  0  0  0  0  0  0  0  0  0  0  0
   10.3710   -0.8570   23.6510 C   0  0  0  0  0  0  0  0  0  0  0  0
  2  6  2  0
  3  6  1  0
  5  7  1  0
  6  7  1  0
  8  4  1  6
  5  8  1  0
  8  9  1  0
 10 12  1  0
 11 12  2  0
 14 15  2  0
  3 16  1  6
 15 16  1  0
  1 17  1  0
 16 17  2  0
 17 18  1  0
 14 19  1  0
 18 19  2  0
 20 21  2  0
  9 22  1  0
 21 22  1  0
 22 23  2  0
 23 24  1  0
 20 25  1  0
 24 25  2  0
 12 26  1  0
  3 27  1  0
 27 26  1  6
  3 28  1  0
 28 27  1  1
  5 29  1  0
  8 29  1  0
 28 29  1  0
 29 30  1  6
 26 31  1  0
 30 31  1  0
 32 33  2  0
 33 34  1  0
 13 35  1  0
 34 35  2  0
 35 36  1  0
  5 37  1  1
 32 37  1  0
 36 37  2  0
M  END
