x3108-x0426
     RDKit          3D

 32 34  0  0  0  0  0  0  0  0999 V2000
    5.0120    1.5360   22.1590 C   0  0  1  0  0  0  0  0  0  0  0  0
    9.2150    1.6940   21.3040 O   0  0  0  0  0  0  0  0  0  0  0  0
    7.5760    0.0280   21.4530 N   0  0  0  0  0  0  0  0  0  0  0  0
    8.0030    0.2900   24.7960 O   0  0  0  0  0  0  0  0  0  0  0  0
    9.1840   -1.2900   23.3600 N   0  0  0  0  0  0  0  0  0  0  0  0
    8.8450    0.5940   21.7460 C   0  0  0  0  0  0  0  0  0  0  0  0
    9.8150   -0.2040   22.6390 C   0  0  0  0  0  0  0  0  0  0  0  0
    8.2000   -1.0190   24.2810 C   0  0  0  0  0  0  0  0  0  0  0  0
    7.3480   -2.1650   24.7090 C   0  0  0  0  0  0  0  0  0  0  0  0
    2.6260    1.7250   23.3170 C   0  0  0  0  0  0  0  0  0  0  0  0
    2.5350    0.5110   23.4720 O   0  0  0  0  0  0  0  0  0  0  0  0
    3.6580    2.1980   22.4320 N   0  0  0  0  0  0  0  0  0  0  0  0
    3.1530    4.1670   24.8660 F   0  0  0  0  0  0  0  0  0  0  0  0
    4.9050    0.2580   22.9510 C   0  0  0  0  0  0  0  0  0  0  0  0
    6.2400    0.4650   18.0380 N   0  0  0  0  0  0  0  0  0  0  0  0
    6.9800    0.1310   19.1080 C   0  0  0  0  0  0  0  0  0  0  0  0
    6.6820    0.4390   20.4200 C   0  0  0  0  0  0  0  0  0  0  0  0
    5.4710    1.1650   20.7000 C   0  0  0  0  0  0  0  0  0  0  0  0
    4.7370    1.4980   19.6120 C   0  0  0  0  0  0  0  0  0  0  0  0
    5.1290    1.1500   18.3060 C   0  0  0  0  0  0  0  0  0  0  0  0
    9.6980   -5.2380   24.7070 N   0  0  0  0  0  0  0  0  0  0  0  0
    9.0510   -4.1260   24.3310 C   0  0  0  0  0  0  0  0  0  0  0  0
    8.0700   -3.4130   25.1510 C   0  0  0  0  0  0  0  0  0  0  0  0
    7.8640   -4.0620   26.4610 C   0  0  0  0  0  0  0  0  0  0  0  0
    8.5510   -5.2220   26.8240 C   0  0  0  0  0  0  0  0  0  0  0  0
    9.4500   -5.7630   25.9150 C   0  0  0  0  0  0  0  0  0  0  0  0
    1.9110    3.6740   24.8290 C   0  0  0  0  0  0  0  0  0  0  0  0
    1.6100    2.5310   24.1120 C   0  0  0  0  0  0  0  0  0  0  0  0
    0.2940    2.0420   24.1000 C   0  0  0  0  0  0  0  0  0  0  0  0
   -0.6910    2.7260   24.8190 C   0  0  0  0  0  0  0  0  0  0  0  0
   -0.3910    3.8770   25.5410 C   0  0  0  0  0  0  0  0  0  0  0  0
    0.9180    4.3570   25.5480 C   0  0  0  0  0  0  0  0  0  0  0  0
  2  6  2  0
  3  6  1  0
  5  7  1  0
  6  7  1  0
  4  8  2  0
  5  8  1  0
  8  9  1  0
 10 11  2  0
  1 12  1  0
 10 12  1  0
  1 14  1  1
 15 16  2  0
  3 17  1  0
 16 17  1  0
  1 18  1  0
 17 18  2  0
 18 19  1  0
 15 20  1  0
 19 20  2  0
 21 22  2  0
  9 23  1  0
 22 23  1  0
 23 24  2  0
 24 25  1  0
 21 26  1  0
 25 26  2  0
 13 27  1  0
 10 28  1  0
 27 28  2  0
 28 29  1  0
 29 30  2  0
 30 31  1  0
 27 32  1  0
 31 32  2  0
M  END
