x3108-x1308
     RDKit          3D

 42 45  0  0  0  0  0  0  0  0999 V2000
    5.8930    1.8380   22.0470 C   0  0  0  0  0  0  0  0  0  0  0  0
    9.1690    1.7960   21.3410 O   0  0  0  0  0  0  0  0  0  0  0  0
    7.9610   -0.2150   21.2410 N   0  0  0  0  0  0  0  0  0  0  0  0
    8.0920    0.4070   24.8070 O   0  0  0  0  0  0  0  0  0  0  0  0
    9.4080   -1.1270   23.4560 N   0  0  0  0  0  0  0  0  0  0  0  0
    8.9890    0.6270   21.7210 C   0  0  0  0  0  0  0  0  0  0  0  0
    9.9570    0.0100   22.7460 C   0  0  0  0  0  0  0  0  0  0  0  0
    8.3840   -0.9020   24.3360 C   0  0  0  0  0  0  0  0  0  0  0  0
    7.5630   -2.0610   24.7720 C   0  0  0  0  0  0  0  0  0  0  0  0
    7.2970   -3.5400   20.0060 C   0  0  0  0  0  0  0  0  0  0  0  0
    5.2760   -4.7560   19.9630 O   0  0  0  0  0  0  0  0  0  0  0  0
    0.7770   -1.1670   26.4090 Cl  0  0  0  0  0  0  0  0  0  0  0  0
    6.3530   -4.5580   20.5570 C   0  0  0  0  0  0  0  0  0  0  0  0
    6.2780   -5.3480   26.8820 O   0  0  0  0  0  0  0  0  0  0  0  0
    4.5820   -6.9620   26.1710 O   0  0  0  0  0  0  0  0  0  0  0  0
    5.1870   -5.6160   25.8750 S   0  0  0  0  0  0  0  0  0  0  0  0
    8.3780   -1.5310   20.8180 C   0  0  0  0  0  0  0  0  0  0  0  0
    7.7000   -2.6390   21.1920 C   0  0  0  0  0  0  0  0  0  0  0  0
    6.3000    0.2490   18.0050 N   0  0  0  0  0  0  0  0  0  0  0  0
    7.0960   -0.1400   19.0230 C   0  0  0  0  0  0  0  0  0  0  0  0
    7.0180    0.3240   20.3000 C   0  0  0  0  0  0  0  0  0  0  0  0
    6.0610    1.2730   20.6680 C   0  0  0  0  0  0  0  0  0  0  0  0
    5.2130    1.7030   19.6510 C   0  0  0  0  0  0  0  0  0  0  0  0
    5.3660    1.1550   18.2970 C   0  0  0  0  0  0  0  0  0  0  0  0
    9.8210   -5.1320   24.5830 N   0  0  0  0  0  0  0  0  0  0  0  0
    9.1880   -3.9740   24.2850 C   0  0  0  0  0  0  0  0  0  0  0  0
    8.2760   -3.3470   25.1320 C   0  0  0  0  0  0  0  0  0  0  0  0
    8.0250   -3.9750   26.3620 C   0  0  0  0  0  0  0  0  0  0  0  0
    8.6790   -5.1780   26.6750 C   0  0  0  0  0  0  0  0  0  0  0  0
    9.5480   -5.7060   25.7760 C   0  0  0  0  0  0  0  0  0  0  0  0
    6.6410   -5.3370   21.6870 N   0  0  0  0  0  0  0  0  0  0  0  0
    7.3540   -4.7070   22.7980 C   0  0  0  0  0  0  0  0  0  0  0  0
    6.5020   -4.3740   23.8340 C   0  0  0  0  0  0  0  0  0  0  0  0
    5.8170   -5.6090   24.2830 N   0  0  0  0  0  0  0  0  0  0  0  0
    4.9440   -6.1380   23.2010 C   0  0  0  0  0  0  0  0  0  0  0  0
    5.7710   -6.4400   22.1130 C   0  0  0  0  0  0  0  0  0  0  0  0
    4.3080   -3.0600   26.3890 C   0  0  0  0  0  0  0  0  0  0  0  0
    3.3060   -2.0890   26.5020 C   0  0  0  0  0  0  0  0  0  0  0  0
    1.9610   -2.3940   26.2370 C   0  0  0  0  0  0  0  0  0  0  0  0
    1.5610   -3.6750   25.8390 C   0  0  0  0  0  0  0  0  0  0  0  0
    2.5040   -4.6830   25.7070 C   0  0  0  0  0  0  0  0  0  0  0  0
    3.9540   -4.3550   26.0040 C   0  0  0  0  0  0  0  0  0  0  0  0
  2  6  2  0
  3  6  1  0
  5  7  1  0
  6  7  1  0
  4  8  2  0
  5  8  1  0
  8  9  1  0
 10 13  1  0
 11 13  2  0
 14 16  2  0
 15 16  2  0
  3 17  1  0
 10 18  1  0
 17 18  1  0
 19 20  2  0
  3 21  1  0
 20 21  1  0
  1 22  1  0
 21 22  2  0
 22 23  1  0
 19 24  1  0
 23 24  2  0
 25 26  2  0
  9 27  1  0
 26 27  1  0
 27 28  2  0
 28 29  1  0
 25 30  1  0
 29 30  2  0
 13 31  1  0
 31 32  1  0
 32 33  1  0
 16 34  1  0
 33 34  1  0
 34 35  1  0
 31 36  1  0
 35 36  1  0
 37 38  2  0
 12 39  1  0
 38 39  1  0
 39 40  2  0
 40 41  1  0
 16 42  1  0
 37 42  1  0
 41 42  2  0
M  END
