x3110-x0731-x1311-x0771-x2705
     RDKit          3D

 62 69  0  0  0  0  0  0  0  0999 V2000
    7.8420    1.9010   23.2040 C   0  0  1  0  0  0  0  0  0  0  0  0
   13.3080    5.1670   23.1960 C   0  0  0  0  0  0  0  0  0  0  0  0
   12.5240    2.9010   23.1860 O   0  0  0  0  0  0  0  0  0  0  0  0
   12.9580    3.9920   22.3590 C   0  0  0  0  0  0  0  0  0  0  0  0
    6.9150   -1.6210   21.8670 N   0  0  0  0  0  0  0  0  0  0  0  0
   10.7840    4.2540   23.5840 N   0  0  0  0  0  0  0  0  0  0  0  0
   11.2240    3.0450   23.4070 C   0  0  0  0  0  0  0  0  0  0  0  0
    8.9240    0.8290   21.3960 O   0  0  0  0  0  0  0  0  0  0  0  0
   10.1720    1.8950   23.5140 C   0  0  0  0  0  0  0  0  0  0  0  0
    4.7760   -2.9880   21.3140 O   0  0  0  0  0  0  0  0  0  0  0  0
    7.8930    0.8440   22.0670 C   0  0  0  0  0  0  0  0  0  0  0  0
    6.6730   -0.1030   21.7270 C   0  0  1  0  0  0  0  0  0  0  0  0
    6.0840   -2.7770   21.3790 C   0  0  0  0  0  0  0  0  0  0  0  0
    6.7760   -4.0600   20.8210 C   0  0  2  0  0  0  0  0  0  0  0  0
    8.2990   -3.8460   20.4850 C   0  0  0  0  0  0  0  0  0  0  0  0
   12.2490   -1.9390   24.2720 C   0  0  0  0  0  0  0  0  0  0  0  0
   12.3960   -0.6420   25.0730 C   0  0  0  0  0  0  0  0  0  0  0  0
   13.3540   -1.8590   23.2570 C   0  0  0  0  0  0  0  0  0  0  0  0
   12.6340   -3.0810   25.2170 C   0  0  0  0  0  0  0  0  0  0  0  0
    5.9830    4.4120   21.8020 C   0  0  0  0  0  0  0  0  0  0  0  0
    9.0420    0.9550   23.6400 C   0  0  0  0  0  0  0  0  0  0  0  0
   12.9700   -1.4270   21.8660 C   0  0  0  0  0  0  0  0  0  0  0  0
    5.8860   -4.4760   19.7610 O   0  0  0  0  0  0  0  0  0  0  0  0
    0.5720   -1.2470   26.3200 C   0  0  0  0  0  0  0  0  0  0  0  0
    4.4430   -7.0220   25.9930 O   0  0  0  0  0  0  0  0  0  0  0  0
    5.9400   -5.2310   26.9570 O   0  0  0  0  0  0  0  0  0  0  0  0
    1.8110   -6.0790   24.9940 C   0  0  0  0  0  0  0  0  0  0  0  0
    4.9770   -5.6840   25.9830 S   0  0  0  0  0  0  0  0  0  0  0  0
    6.3770    0.3580   17.9460 N   0  0  0  0  0  0  0  0  0  0  0  0
    5.3280    1.1700   17.8850 C   0  0  0  0  0  0  0  0  0  0  0  0
    4.6120    1.6420   18.9620 C   0  0  0  0  0  0  0  0  0  0  0  0
    5.0510    1.2150   20.2560 C   0  0  0  0  0  0  0  0  0  0  0  0
    6.1870    0.3410   20.3520 C   0  0  0  0  0  0  0  0  0  0  0  0
    6.7770   -0.0330   19.1570 C   0  0  0  0  0  0  0  0  0  0  0  0
    9.3710   -1.4910   21.7140 C   0  0  0  0  0  0  0  0  0  0  0  0
   10.6690   -1.5660   22.2800 C   0  0  0  0  0  0  0  0  0  0  0  0
   10.8400   -1.8910   23.6300 C   0  0  0  0  0  0  0  0  0  0  0  0
    9.7140   -2.1540   24.3970 C   0  0  0  0  0  0  0  0  0  0  0  0
    8.4070   -2.0910   23.8560 C   0  0  0  0  0  0  0  0  0  0  0  0
    8.2260   -1.7480   22.4920 C   0  0  0  0  0  0  0  0  0  0  0  0
    8.9820    2.9620   23.5040 C   0  0  2  0  0  0  0  0  0  0  0  0
    9.5430    4.1960   23.0360 C   0  0  1  0  0  0  0  0  0  0  0  0
    9.0030    5.4530   23.3100 C   0  0  0  0  0  0  0  0  0  0  0  0
    7.7180    5.5880   22.8400 C   0  0  0  0  0  0  0  0  0  0  0  0
    7.0300    4.3680   22.9150 C   0  0  2  0  0  0  0  0  0  0  0  0
    7.8010    3.2170   22.6650 C   0  0  2  0  0  0  0  0  0  0  0  0
    1.5900   -2.3340   26.2060 C   0  0  0  0  0  0  0  0  0  0  0  0
    1.2070   -3.6610   25.6530 C   0  0  0  0  0  0  0  0  0  0  0  0
    2.2550   -4.7580   25.5570 C   0  0  0  0  0  0  0  0  0  0  0  0
    3.6560   -4.4940   26.0190 C   0  0  0  0  0  0  0  0  0  0  0  0
    4.0250   -3.1440   26.5640 C   0  0  0  0  0  0  0  0  0  0  0  0
    2.8920   -2.1030   26.6190 C   0  0  0  0  0  0  0  0  0  0  0  0
    6.6600   -5.0860   21.8820 N   0  0  0  0  0  0  0  0  0  0  0  0
    5.4380   -5.9030   21.9510 C   0  0  0  0  0  0  0  0  0  0  0  0
    4.9710   -6.2870   23.3460 C   0  0  0  0  0  0  0  0  0  0  0  0
    5.5200   -5.3920   24.4040 N   0  0  0  0  0  0  0  0  0  0  0  0
    6.9330   -5.2210   24.2870 C   0  0  0  0  0  0  0  0  0  0  0  0
    7.4670   -5.0690   23.0150 C   0  0  0  0  0  0  0  0  0  0  0  0
    8.8280   -4.9020   22.9570 C   0  0  0  0  0  0  0  0  0  0  0  0
    9.6500   -4.8970   24.0750 C   0  0  0  0  0  0  0  0  0  0  0  0
    9.1120   -5.0590   25.3220 C   0  0  0  0  0  0  0  0  0  0  0  0
    7.7400   -5.2160   25.4390 C   0  0  0  0  0  0  0  0  0  0  0  0
  2  4  1  0
  3  4  1  0
  3  7  1  0
  6  7  1  0
  7  9  2  0
  1 11  1  6
  8 11  2  0
  5 12  1  0
 12 11  1  6
  5 13  1  0
 10 13  2  0
 13 14  1  0
 14 15  1  6
 16 17  1  0
 16 18  1  0
 16 19  1  0
  9 21  1  0
 18 22  1  0
 14 23  1  0
 25 28  2  0
 26 28  2  0
 29 30  2  0
 30 31  1  0
 31 32  2  0
 12 33  1  0
 32 33  1  0
 29 34  1  0
 33 34  2  0
 35 36  2  0
 16 37  1  0
 36 37  1  0
 37 38  2  0
 38 39  1  0
  5 40  1  0
 35 40  1  0
 39 40  2  0
  1 41  1  0
 41  9  1  1
  6 42  1  0
 41 42  1  0
 42 43  1  1
 43 44  1  0
 45 20  1  6
 44 45  1  0
  1 46  1  0
 41 46  1  0
 46 45  1  1
 24 47  1  0
 47 48  2  0
 27 49  1  0
 48 49  1  0
 28 50  1  0
 49 50  2  0
 50 51  1  0
 47 52  1  0
 51 52  2  0
 14 53  1  0
 53 54  1  0
 54 55  1  0
 28 56  1  0
 55 56  1  0
 56 57  1  0
 53 58  1  0
 57 58  2  0
 58 59  1  0
 59 60  2  0
 60 61  1  0
 57 62  1  0
 61 62  2  0
M  END
