x3117-x0691
     RDKit          3D

 48 52  0  0  0  0  0  0  0  0999 V2000
    6.8530   -1.4270   21.9160 N   0  0  0  0  0  0  0  0  0  0  0  0
    6.6860   -4.4680   20.1220 C   0  0  0  0  0  0  0  0  0  0  0  0
    4.7640   -2.9510   21.2840 O   0  0  0  0  0  0  0  0  0  0  0  0
    6.8710   -3.8450   21.4200 C   0  0  1  0  0  0  0  0  0  0  0  0
    7.6010    1.6960   23.0740 N   0  0  0  0  0  0  0  0  0  0  0  0
    8.6200    1.2280   21.0350 O   0  0  0  0  0  0  0  0  0  0  0  0
    6.0500   -2.6560   21.5350 C   0  0  0  0  0  0  0  0  0  0  0  0
    6.5510    0.0260   21.5740 C   0  0  1  0  0  0  0  0  0  0  0  0
    7.7040    1.0160   21.8470 C   0  0  0  0  0  0  0  0  0  0  0  0
   12.1770   -1.9380   24.2440 C   0  0  0  0  0  0  0  0  0  0  0  0
   12.4490   -0.6890   25.0400 C   0  0  0  0  0  0  0  0  0  0  0  0
   13.2240   -2.0480   23.3640 C   0  0  0  0  0  0  0  0  0  0  0  0
   12.1460   -3.1610   25.1450 C   0  0  0  0  0  0  0  0  0  0  0  0
    5.6330   -4.4390   19.5230 O   0  0  0  0  0  0  0  0  0  0  0  0
    3.9190   -6.9360   26.0400 O   0  0  0  0  0  0  0  0  0  0  0  0
    5.5110   -5.3720   27.1040 O   0  0  0  0  0  0  0  0  0  0  0  0
    3.2540   -0.6530   26.0340 F   0  0  0  0  0  0  0  0  0  0  0  0
    4.5820   -5.5840   25.9360 S   0  0  0  0  0  0  0  0  0  0  0  0
    6.3020    0.2770   17.8290 N   0  0  0  0  0  0  0  0  0  0  0  0
    5.2060    1.0270   17.8190 C   0  0  0  0  0  0  0  0  0  0  0  0
    4.5500    1.4280   18.9030 C   0  0  0  0  0  0  0  0  0  0  0  0
    4.9120    1.1360   20.2040 C   0  0  0  0  0  0  0  0  0  0  0  0
    6.0610    0.3600   20.2920 C   0  0  0  0  0  0  0  0  0  0  0  0
    6.7440   -0.0660   19.0520 C   0  0  0  0  0  0  0  0  0  0  0  0
    9.7520    4.9500   23.9950 O   0  0  0  0  0  0  0  0  0  0  0  0
   10.5050    3.8130   23.5520 C   0  0  0  0  0  0  0  0  0  0  0  0
    9.7380    2.6380   23.5800 C   0  0  0  0  0  0  0  0  0  0  0  0
    8.3690    2.9020   23.4940 C   0  0  0  0  0  0  0  0  0  0  0  0
    8.0480    4.0670   22.7630 C   0  0  0  0  0  0  0  0  0  0  0  0
    8.6790    5.2500   23.0990 C   0  0  0  0  0  0  0  0  0  0  0  0
    9.2800   -1.8430   21.7280 C   0  0  0  0  0  0  0  0  0  0  0  0
   10.5570   -1.9620   22.2710 C   0  0  0  0  0  0  0  0  0  0  0  0
   10.7770   -1.8110   23.6320 C   0  0  0  0  0  0  0  0  0  0  0  0
    9.6830   -1.5370   24.4480 C   0  0  0  0  0  0  0  0  0  0  0  0
    8.3860   -1.4130   23.9220 C   0  0  0  0  0  0  0  0  0  0  0  0
    8.1770   -1.5640   22.5450 C   0  0  0  0  0  0  0  0  0  0  0  0
    2.8370   -1.9230   25.9450 C   0  0  0  0  0  0  0  0  0  0  0  0
    3.7790   -2.9580   25.9740 C   0  0  0  0  0  0  0  0  0  0  0  0
    3.3750   -4.2910   25.8860 C   0  0  0  0  0  0  0  0  0  0  0  0
    1.9080   -4.6650   25.7500 C   0  0  0  0  0  0  0  0  0  0  0  0
    0.9700   -3.4590   25.7290 C   0  0  0  0  0  0  0  0  0  0  0  0
    1.4650   -2.1770   25.8270 C   0  0  0  0  0  0  0  0  0  0  0  0
    6.5060   -4.7270   22.4040 N   0  0  0  0  0  0  0  0  0  0  0  0
    5.6500   -5.9040   22.1370 C   0  0  0  0  0  0  0  0  0  0  0  0
    5.0200   -6.2570   23.3090 C   0  0  0  0  0  0  0  0  0  0  0  0
    5.4640   -5.4400   24.5040 N   0  0  0  0  0  0  0  0  0  0  0  0
    6.8970   -5.0680   24.6490 C   0  0  0  0  0  0  0  0  0  0  0  0
    7.5080   -5.0350   23.3930 C   0  0  0  0  0  0  0  0  0  0  0  0
  4  2  1  6
  1  7  1  0
  3  7  2  0
  4  7  1  0
  1  8  1  0
  5  9  1  0
  6  9  2  0
  8  9  1  6
 10 11  1  0
 10 12  1  0
 10 13  1  0
  2 14  2  0
 15 18  2  0
 16 18  2  0
 19 20  2  0
 20 21  1  0
 21 22  2  0
  8 23  1  0
 22 23  1  0
 19 24  1  0
 23 24  2  0
 25 26  1  0
 26 27  1  0
  5 28  1  0
 27 28  1  0
 28 29  1  0
 25 30  1  0
 29 30  1  0
 31 32  2  0
 10 33  1  0
 32 33  1  0
 33 34  2  0
 34 35  1  0
  1 36  1  0
 31 36  1  0
 35 36  2  0
 17 37  1  0
 37 38  2  0
 18 39  1  0
 38 39  1  0
 39 40  2  0
 40 41  1  0
 37 42  1  0
 41 42  2  0
  4 43  1  0
 43 44  1  0
 44 45  1  0
 18 46  1  0
 45 46  1  0
 46 47  1  0
 43 48  1  0
 47 48  1  0
M  END
