x3110-x2705
     RDKit          3D

 40 44  0  0  0  0  0  0  0  0999 V2000
    8.0710    1.8060   23.2410 C   0  0  1  0  0  0  0  0  0  0  0  0
   13.3320    4.9940   23.1240 C   0  0  0  0  0  0  0  0  0  0  0  0
   12.5730    2.8160   23.3090 O   0  0  0  0  0  0  0  0  0  0  0  0
   13.0490    3.6270   22.4930 C   0  0  0  0  0  0  0  0  0  0  0  0
    6.9750   -1.3330   21.7810 N   0  0  0  0  0  0  0  0  0  0  0  0
   10.8980    4.2520   23.2300 N   0  0  0  0  0  0  0  0  0  0  0  0
   11.2820    3.0160   23.4870 C   0  0  0  0  0  0  0  0  0  0  0  0
    8.6370    1.5580   20.9700 O   0  0  0  0  0  0  0  0  0  0  0  0
   10.2930    1.9840   23.9690 C   0  0  0  0  0  0  0  0  0  0  0  0
    5.0230   -3.3010   21.2440 O   0  0  0  0  0  0  0  0  0  0  0  0
    7.8840    1.1740   21.8630 C   0  0  0  0  0  0  0  0  0  0  0  0
    6.7340    0.1070   21.6320 C   0  0  1  0  0  0  0  0  0  0  0  0
    5.8310   -2.2640   21.5160 C   0  0  0  0  0  0  0  0  0  0  0  0
    6.9730   -3.2690   21.3370 C   0  0  0  0  0  0  0  0  0  0  0  0
    6.7770   -4.0430   20.0820 C   0  0  0  0  0  0  0  0  0  0  0  0
   12.2870   -1.7130   24.1290 C   0  0  0  0  0  0  0  0  0  0  0  0
   12.4840   -0.6510   25.0110 C   0  0  0  0  0  0  0  0  0  0  0  0
   13.3790   -1.6210   23.0660 C   0  0  0  0  0  0  0  0  0  0  0  0
   12.6110   -2.9830   24.9230 C   0  0  0  0  0  0  0  0  0  0  0  0
    5.6390    3.8870   22.2250 C   0  0  0  0  0  0  0  0  0  0  0  0
    9.2270    1.0650   24.4280 C   0  0  0  0  0  0  0  0  0  0  0  0
   12.9820   -1.7040   21.7470 C   0  0  0  0  0  0  0  0  0  0  0  0
    6.3390    0.3720   17.9050 N   0  0  0  0  0  0  0  0  0  0  0  0
    5.2610    1.1670   17.8440 C   0  0  0  0  0  0  0  0  0  0  0  0
    4.6260    1.6260   18.9500 C   0  0  0  0  0  0  0  0  0  0  0  0
    5.0650    1.3000   20.2100 C   0  0  0  0  0  0  0  0  0  0  0  0
    6.1750    0.4910   20.2930 C   0  0  0  0  0  0  0  0  0  0  0  0
    6.7860    0.0400   19.1240 C   0  0  0  0  0  0  0  0  0  0  0  0
    9.3810   -1.3350   21.6590 C   0  0  0  0  0  0  0  0  0  0  0  0
   10.6720   -1.4230   22.1910 C   0  0  0  0  0  0  0  0  0  0  0  0
   10.8530   -1.6770   23.5430 C   0  0  0  0  0  0  0  0  0  0  0  0
    9.7270   -1.8670   24.3280 C   0  0  0  0  0  0  0  0  0  0  0  0
    8.4290   -1.7920   23.7990 C   0  0  0  0  0  0  0  0  0  0  0  0
    8.2460   -1.5060   22.4380 C   0  0  0  0  0  0  0  0  0  0  0  0
    9.0890    2.9670   23.6780 C   0  0  1  0  0  0  0  0  0  0  0  0
    9.5910    4.1490   22.8150 C   0  0  1  0  0  0  0  0  0  0  0  0
    9.0130    5.3920   23.0230 C   0  0  0  0  0  0  0  0  0  0  0  0
    7.5550    5.4080   22.7160 C   0  0  0  0  0  0  0  0  0  0  0  0
    7.1330    3.9680   22.4970 C   0  0  1  0  0  0  0  0  0  0  0  0
    7.5800    3.1550   23.5720 C   0  0  1  0  0  0  0  0  0  0  0  0
  2  4  1  0
  3  4  1  0
  3  7  1  0
  6  7  1  0
  7  9  2  0
  1 11  1  6
  8 11  2  0
  5 12  1  0
 12 11  1  6
  5 13  1  0
 10 13  2  0
 13 14  1  0
 14 15  1  0
 16 17  1  0
 16 18  1  0
 16 19  1  0
  9 21  1  0
 18 22  1  0
 23 24  2  0
 24 25  1  0
 25 26  2  0
 12 27  1  0
 26 27  1  0
 23 28  1  0
 27 28  2  0
 29 30  2  0
 16 31  1  0
 30 31  1  0
 31 32  2  0
 32 33  1  0
  5 34  1  0
 29 34  1  0
 33 34  2  0
  1 35  1  0
 35  9  1  1
  6 36  1  0
 35 36  1  0
 36 37  1  1
 37 38  1  0
 39 20  1  1
 38 39  1  0
  1 40  1  0
 35 40  1  0
 40 39  1  6
M  END
