x3117-x2703
     RDKit          3D

 34 36  0  0  0  0  0  0  0  0999 V2000
    6.8710   -1.6630   21.9170 N   0  0  0  0  0  0  0  0  0  0  0  0
    6.8080   -4.9910   20.5190 C   0  0  0  0  0  0  0  0  0  0  0  0
    4.8090   -3.0200   21.2800 O   0  0  0  0  0  0  0  0  0  0  0  0
    6.7870   -4.1340   21.7380 C   0  0  0  0  0  0  0  0  0  0  0  0
    7.2560    1.8240   22.7780 N   0  0  0  0  0  0  0  0  0  0  0  0
    8.7370    0.5360   21.5550 O   0  0  0  0  0  0  0  0  0  0  0  0
    6.0560   -2.8670   21.6250 C   0  0  0  0  0  0  0  0  0  0  0  0
    6.4390   -0.2270   21.6800 C   0  0  1  0  0  0  0  0  0  0  0  0
    7.6010    0.7110   21.9900 C   0  0  0  0  0  0  0  0  0  0  0  0
    9.9870    1.8660   24.0170 C   0  0  0  0  0  0  0  0  0  0  0  0
    9.1460    1.1550   25.0720 C   0  0  0  0  0  0  0  0  0  0  0  0
    6.0800    4.2790   21.7870 C   0  0  0  0  0  0  0  0  0  0  0  0
   12.2850   -1.7240   23.8010 C   0  0  0  0  0  0  0  0  0  0  0  0
   12.8330   -1.6680   25.0490 C   0  0  0  0  0  0  0  0  0  0  0  0
   12.6400   -2.8580   24.6710 C   0  0  0  0  0  0  0  0  0  0  0  0
   13.2080   -1.7290   22.7340 C   0  0  0  0  0  0  0  0  0  0  0  0
    6.2880    0.3300   17.8930 N   0  0  0  0  0  0  0  0  0  0  0  0
    5.1640    1.0610   17.8330 C   0  0  0  0  0  0  0  0  0  0  0  0
    4.3220    1.4340   18.9630 C   0  0  0  0  0  0  0  0  0  0  0  0
    4.8400    0.9310   20.2240 C   0  0  0  0  0  0  0  0  0  0  0  0
    6.0110    0.1830   20.2930 C   0  0  0  0  0  0  0  0  0  0  0  0
    6.7370   -0.1300   19.1390 C   0  0  0  0  0  0  0  0  0  0  0  0
   10.5770   -1.9090   22.1210 N   0  0  0  0  0  0  0  0  0  0  0  0
   10.8370   -1.7260   23.4270 C   0  0  0  0  0  0  0  0  0  0  0  0
    9.8130   -1.5420   24.3240 C   0  0  0  0  0  0  0  0  0  0  0  0
    8.5040   -1.5360   23.8350 C   0  0  0  0  0  0  0  0  0  0  0  0
    8.2400   -1.7070   22.4880 C   0  0  0  0  0  0  0  0  0  0  0  0
    9.3380   -1.9000   21.6740 C   0  0  0  0  0  0  0  0  0  0  0  0
    9.2880    3.0980   23.4770 C   0  0  0  0  0  0  0  0  0  0  0  0
    9.9870    4.3180   23.5820 C   0  0  0  0  0  0  0  0  0  0  0  0
    9.4010    5.4920   23.1030 C   0  0  0  0  0  0  0  0  0  0  0  0
    8.1350    5.4490   22.5250 C   0  0  0  0  0  0  0  0  0  0  0  0
    7.4460    4.2300   22.4260 C   0  0  0  0  0  0  0  0  0  0  0  0
    8.0200    3.0420   22.9060 C   0  0  0  0  0  0  0  0  0  0  0  0
  2  4  1  0
  1  7  1  0
  3  7  2  0
  4  7  1  0
  1  8  1  0
  5  9  1  0
  6  9  2  0
  8  9  1  6
 10 11  1  0
 13 14  1  0
 13 15  1  0
 13 16  1  0
 17 18  2  0
 18 19  1  0
 19 20  2  0
  8 21  1  0
 20 21  1  0
 17 22  1  0
 21 22  2  0
 13 24  1  0
 23 24  2  0
 24 25  1  0
 25 26  2  0
  1 27  1  0
 26 27  1  0
 23 28  1  0
 27 28  2  0
 10 29  1  0
 29 30  2  0
 30 31  1  0
 31 32  2  0
 12 33  1  0
 32 33  1  0
  5 34  1  0
 29 34  1  0
 33 34  2  0
M  END
