x3110-x0395-x1311-x0771-x2705
     RDKit          3D

 63 70  0  0  0  0  0  0  0  0999 V2000
    7.7740    2.0790   22.8840 C   0  0  1  0  0  0  0  0  0  0  0  0
   13.5670    5.3430   22.8510 C   0  0  0  0  0  0  0  0  0  0  0  0
   12.2940    3.3370   22.7490 O   0  0  0  0  0  0  0  0  0  0  0  0
   12.6380    4.5140   22.0300 C   0  0  0  0  0  0  0  0  0  0  0  0
    6.8830   -1.6050   21.8800 N   0  0  0  0  0  0  0  0  0  0  0  0
   10.2470    4.4340   23.0150 N   0  0  0  0  0  0  0  0  0  0  0  0
   11.0020    3.3100   23.0770 C   0  0  0  0  0  0  0  0  0  0  0  0
    8.9620    0.5910   21.5290 O   0  0  0  0  0  0  0  0  0  0  0  0
   10.2580    2.0380   23.6140 C   0  0  0  0  0  0  0  0  0  0  0  0
    4.7350   -2.9440   21.3200 O   0  0  0  0  0  0  0  0  0  0  0  0
    7.8620    0.8170   22.0100 C   0  0  0  0  0  0  0  0  0  0  0  0
    6.6220   -0.0920   21.6760 C   0  0  1  0  0  0  0  0  0  0  0  0
    6.0130   -2.7120   21.3870 C   0  0  0  0  0  0  0  0  0  0  0  0
    6.7310   -4.0090   20.7970 C   0  0  2  0  0  0  0  0  0  0  0  0
    8.2720   -3.8630   20.5090 C   0  0  0  0  0  0  0  0  0  0  0  0
   12.2990   -1.8760   24.2830 C   0  0  0  0  0  0  0  0  0  0  0  0
   12.4940   -0.6210   25.1370 C   0  0  0  0  0  0  0  0  0  0  0  0
   13.3860   -1.8220   23.2610 C   0  0  0  0  0  0  0  0  0  0  0  0
   12.6340   -3.0740   25.1780 C   0  0  0  0  0  0  0  0  0  0  0  0
    6.0820    4.2170   21.9060 C   0  0  0  0  0  0  0  0  0  0  0  0
    9.3110    1.0070   24.1320 C   0  0  0  0  0  0  0  0  0  0  0  0
   12.9780   -1.4370   21.8630 C   0  0  0  0  0  0  0  0  0  0  0  0
    5.8670   -4.4130   19.7250 O   0  0  0  0  0  0  0  0  0  0  0  0
    0.6250   -1.3240   26.3240 C   0  0  0  0  0  0  0  0  0  0  0  0
    4.1710   -7.0140   25.8780 O   0  0  0  0  0  0  0  0  0  0  0  0
    5.7630   -5.3640   26.8610 O   0  0  0  0  0  0  0  0  0  0  0  0
    1.7150   -6.0210   24.9680 C   0  0  0  0  0  0  0  0  0  0  0  0
    4.7930   -5.7120   25.8430 S   0  0  0  0  0  0  0  0  0  0  0  0
    9.7950   -5.5110   26.5590 C   0  0  0  0  0  0  0  0  0  0  0  0
    6.3710    0.4000   17.9190 N   0  0  0  0  0  0  0  0  0  0  0  0
    5.3000    1.2090   17.8570 C   0  0  0  0  0  0  0  0  0  0  0  0
    4.5890    1.6370   18.9500 C   0  0  0  0  0  0  0  0  0  0  0  0
    5.0140    1.2070   20.2080 C   0  0  0  0  0  0  0  0  0  0  0  0
    6.1150    0.3800   20.3220 C   0  0  0  0  0  0  0  0  0  0  0  0
    6.7650   -0.0040   19.1500 C   0  0  0  0  0  0  0  0  0  0  0  0
    9.3370   -1.4990   21.7750 C   0  0  0  0  0  0  0  0  0  0  0  0
   10.6480   -1.5580   22.3160 C   0  0  0  0  0  0  0  0  0  0  0  0
   10.8910   -1.8520   23.6600 C   0  0  0  0  0  0  0  0  0  0  0  0
    9.6740   -2.1230   24.4830 C   0  0  0  0  0  0  0  0  0  0  0  0
    8.3060   -2.0550   23.8780 C   0  0  0  0  0  0  0  0  0  0  0  0
    8.1780   -1.7320   22.5230 C   0  0  0  0  0  0  0  0  0  0  0  0
    8.9830    2.8910   23.5040 C   0  0  2  0  0  0  0  0  0  0  0  0
    9.2640    4.1360   24.0570 C   0  0  2  0  0  0  0  0  0  0  0  0
    8.3520    5.1760   24.0800 C   0  0  0  0  0  0  0  0  0  0  0  0
    7.8030    5.5300   22.8730 C   0  0  0  0  0  0  0  0  0  0  0  0
    7.5730    4.4790   22.0200 C   0  0  1  0  0  0  0  0  0  0  0  0
    8.2970    3.2760   22.1800 C   0  0  2  0  0  0  0  0  0  0  0  0
    1.6350   -2.4140   26.1780 C   0  0  0  0  0  0  0  0  0  0  0  0
    1.2670   -3.6670   25.6600 C   0  0  0  0  0  0  0  0  0  0  0  0
    2.1950   -4.7160   25.5270 C   0  0  0  0  0  0  0  0  0  0  0  0
    3.5100   -4.4740   25.9330 C   0  0  0  0  0  0  0  0  0  0  0  0
    3.8870   -3.2210   26.4420 C   0  0  0  0  0  0  0  0  0  0  0  0
    2.9560   -2.1970   26.5630 C   0  0  0  0  0  0  0  0  0  0  0  0
    6.6500   -5.0250   21.8800 N   0  0  0  0  0  0  0  0  0  0  0  0
    5.6770   -6.1100   21.9080 C   0  0  0  0  0  0  0  0  0  0  0  0
    4.7330   -5.9620   23.1100 C   0  0  0  0  0  0  0  0  0  0  0  0
    5.4590   -5.4780   24.3230 N   0  0  0  0  0  0  0  0  0  0  0  0
    6.8740   -5.3310   24.2350 C   0  0  0  0  0  0  0  0  0  0  0  0
    7.4510   -5.0920   22.9940 C   0  0  0  0  0  0  0  0  0  0  0  0
    8.8160   -4.9500   22.9710 C   0  0  0  0  0  0  0  0  0  0  0  0
    9.6020   -5.0670   24.1070 C   0  0  0  0  0  0  0  0  0  0  0  0
    9.0270   -5.3290   25.3130 C   0  0  0  0  0  0  0  0  0  0  0  0
    7.6680   -5.4430   25.3690 C   0  0  0  0  0  0  0  0  0  0  0  0
  2  4  1  0
  3  4  1  0
  3  7  1  0
  6  7  1  0
  7  9  2  0
  1 11  1  6
  8 11  2  0
  5 12  1  0
 12 11  1  6
  5 13  1  0
 10 13  2  0
 13 14  1  0
 14 15  1  6
 16 17  1  0
 16 18  1  0
 16 19  1  0
  9 21  1  0
 18 22  1  0
 14 23  1  0
 25 28  2  0
 26 28  2  0
 30 31  2  0
 31 32  1  0
 32 33  2  0
 12 34  1  0
 33 34  1  0
 30 35  1  0
 34 35  2  0
 36 37  2  0
 16 38  1  0
 37 38  1  0
 38 39  2  0
 39 40  1  0
  5 41  1  0
 36 41  1  0
 40 41  2  0
  1 42  1  0
 42  9  1  6
  6 43  1  0
 42 43  1  0
 43 44  1  6
 44 45  1  0
 46 20  1  1
 45 46  1  0
  1 47  1  0
 42 47  1  0
 47 46  1  1
 24 48  1  0
 48 49  2  0
 27 50  1  0
 49 50  1  0
 28 51  1  0
 50 51  2  0
 51 52  1  0
 48 53  1  0
 52 53  2  0
 14 54  1  0
 54 55  1  0
 55 56  1  0
 28 57  1  0
 56 57  1  0
 57 58  1  0
 54 59  1  0
 58 59  2  0
 59 60  1  0
 60 61  2  0
 29 62  1  0
 61 62  1  0
 58 63  1  0
 62 63  2  0
M  END
