x3115-x0995
     RDKit          3D

 30 31  0  0  0  0  0  0  0  0999 V2000
    6.8850   -1.7220   21.8070 N   0  0  0  0  0  0  0  0  0  0  0  0
    6.7580   -4.9620   20.4190 C   0  0  0  0  0  0  0  0  0  0  0  0
    4.8100   -3.0300   21.2710 O   0  0  0  0  0  0  0  0  0  0  0  0
    6.7890   -4.2220   21.7520 C   0  0  0  0  0  0  0  0  0  0  0  0
    7.1270    1.7930   22.8350 N   0  0  0  0  0  0  0  0  0  0  0  0
    8.7810    0.6440   21.6410 O   0  0  0  0  0  0  0  0  0  0  0  0
    6.0510   -2.9180   21.5880 C   0  0  0  0  0  0  0  0  0  0  0  0
    8.5130    5.2040   22.9150 O   0  0  0  0  0  0  0  0  0  0  0  0
    6.5260   -0.3060   21.5900 C   0  0  1  0  0  0  0  0  0  0  0  0
    7.6070    0.6990   22.0030 C   0  0  0  0  0  0  0  0  0  0  0  0
    7.9680    2.8100   23.1940 C   0  0  0  0  0  0  0  0  0  0  0  0
    7.8060    4.0940   22.3330 C   0  0  0  0  0  0  0  0  0  0  0  0
    8.3100    6.4170   22.1890 C   0  0  0  0  0  0  0  0  0  0  0  0
   12.1660   -2.0210   24.2440 C   0  0  0  0  0  0  0  0  0  0  0  0
   13.2740   -2.2540   23.2050 C   0  0  0  0  0  0  0  0  0  0  0  0
   12.0780   -3.1850   25.2270 C   0  0  0  0  0  0  0  0  0  0  0  0
   12.5170   -0.7410   25.0090 C   0  0  0  0  0  0  0  0  0  0  0  0
    3.3620    2.2210   18.9450 N   0  0  0  0  0  0  0  0  0  0  0  0
    6.2820    0.3040   17.8330 N   0  0  0  0  0  0  0  0  0  0  0  0
    5.1880    1.0840   17.8430 C   0  0  0  0  0  0  0  0  0  0  0  0
    4.4900    1.4200   18.9860 C   0  0  0  0  0  0  0  0  0  0  0  0
    4.9570    0.9300   20.1900 C   0  0  0  0  0  0  0  0  0  0  0  0
    6.0710    0.1420   20.2330 C   0  0  0  0  0  0  0  0  0  0  0  0
    6.7020   -0.1530   19.0330 C   0  0  0  0  0  0  0  0  0  0  0  0
    9.3630   -1.5560   21.7210 C   0  0  0  0  0  0  0  0  0  0  0  0
   10.6370   -1.6180   22.2690 C   0  0  0  0  0  0  0  0  0  0  0  0
   10.7840   -1.9560   23.6080 C   0  0  0  0  0  0  0  0  0  0  0  0
    9.6390   -2.2340   24.3680 C   0  0  0  0  0  0  0  0  0  0  0  0
    8.3500   -2.1730   23.8050 C   0  0  0  0  0  0  0  0  0  0  0  0
    8.2000   -1.8230   22.4450 C   0  0  0  0  0  0  0  0  0  0  0  0
  2  4  1  0
  1  7  1  0
  3  7  2  0
  4  7  1  0
  1  9  1  0
  5 10  1  0
  6 10  2  0
  9 10  1  6
  5 11  1  0
  8 12  1  0
 11 12  1  0
  8 13  1  0
 14 15  1  0
 14 16  1  0
 14 17  1  0
 19 20  2  0
 18 21  1  0
 20 21  1  0
 21 22  2  0
  9 23  1  0
 22 23  1  0
 19 24  1  0
 23 24  2  0
 25 26  2  0
 14 27  1  0
 26 27  1  0
 27 28  2  0
 28 29  1  0
  1 30  1  0
 25 30  1  0
 29 30  2  0
M  END
