x3117-x0820-x2703
     RDKit          3D

 46 51  0  0  0  0  0  0  0  0999 V2000
    6.8120   -1.8090   21.8750 C   0  0  1  0  0  0  0  0  0  0  0  0
    7.2710   -4.6140   21.0240 C   0  0  0  0  0  0  0  0  0  0  0  0
    5.0190   -3.3430   20.1210 O   0  0  0  0  0  0  0  0  0  0  0  0
    6.0290   -3.8130   21.5440 C   0  0  2  0  0  0  0  0  0  0  0  0
    7.3240    1.9640   22.7130 N   0  0  0  0  0  0  0  0  0  0  0  0
    8.9090    0.7510   21.5720 O   0  0  0  0  0  0  0  0  0  0  0  0
    5.7690   -2.5170   20.7460 C   0  0  0  0  0  0  0  0  0  0  0  0
    6.6170   -0.2190   21.6800 C   0  0  1  0  0  0  0  0  0  0  0  0
    7.7590    0.8490   21.9760 C   0  0  0  0  0  0  0  0  0  0  0  0
    9.9740    2.1020   23.8950 C   0  0  0  0  0  0  0  0  0  0  0  0
    8.9390    1.4210   24.7490 C   0  0  0  0  0  0  0  0  0  0  0  0
    5.9580    4.4700   21.6280 C   0  0  0  0  0  0  0  0  0  0  0  0
   12.4100   -2.0380   23.9120 C   0  0  0  0  0  0  0  0  0  0  0  0
   12.7550   -2.9890   25.0670 C   0  0  0  0  0  0  0  0  0  0  0  0
   12.6270   -0.6210   24.4810 C   0  0  0  0  0  0  0  0  0  0  0  0
   13.4250   -2.2310   22.8160 C   0  0  0  0  0  0  0  0  0  0  0  0
    7.0430   -6.0120   21.0130 O   0  0  0  0  0  0  0  0  0  0  0  0
    5.9630   -2.9030   22.7230 C   0  0  1  0  0  0  0  0  0  0  0  0
    6.3370    0.3540   17.9290 N   0  0  0  0  0  0  0  0  0  0  0  0
    5.1720    1.0230   17.8890 C   0  0  0  0  0  0  0  0  0  0  0  0
    4.3900    1.3230   19.0020 C   0  0  0  0  0  0  0  0  0  0  0  0
    4.8430    0.9130   20.2530 C   0  0  0  0  0  0  0  0  0  0  0  0
    6.0470    0.2280   20.3430 C   0  0  0  0  0  0  0  0  0  0  0  0
    6.7360   -0.0220   19.1580 C   0  0  0  0  0  0  0  0  0  0  0  0
   10.7410   -1.4220   22.2460 N   0  0  0  0  0  0  0  0  0  0  0  0
   10.9750   -2.0940   23.3960 C   0  0  0  0  0  0  0  0  0  0  0  0
    9.9290   -2.7530   24.0360 C   0  0  0  0  0  0  0  0  0  0  0  0
    8.6380   -2.6780   23.5300 C   0  0  0  0  0  0  0  0  0  0  0  0
    8.3730   -1.9600   22.3800 C   0  0  0  0  0  0  0  0  0  0  0  0
    9.4690   -1.3740   21.7740 C   0  0  0  0  0  0  0  0  0  0  0  0
    9.3040    3.3140   23.3610 C   0  0  0  0  0  0  0  0  0  0  0  0
    9.9800    4.5130   23.4560 C   0  0  0  0  0  0  0  0  0  0  0  0
    9.3810    5.6640   22.9780 C   0  0  0  0  0  0  0  0  0  0  0  0
    8.1050    5.6230   22.4010 C   0  0  0  0  0  0  0  0  0  0  0  0
    7.3250    4.4480   22.2540 C   0  0  0  0  0  0  0  0  0  0  0  0
    8.0160    3.2320   22.7880 C   0  0  0  0  0  0  0  0  0  0  0  0
    5.7800   -3.5720   24.1800 C   0  0  0  0  0  0  0  0  0  0  0  0
    6.7020   -4.0030   25.3880 C   0  0  0  0  0  0  0  0  0  0  0  0
    6.0330   -4.5610   26.5120 C   0  0  0  0  0  0  0  0  0  0  0  0
    4.6450   -4.7380   26.5460 C   0  0  0  0  0  0  0  0  0  0  0  0
    3.8460   -4.3720   25.4760 C   0  0  0  0  0  0  0  0  0  0  0  0
    4.4100   -3.8140   24.3560 C   0  0  0  0  0  0  0  0  0  0  0  0
    6.7250   -4.9910   27.7010 C   0  0  0  0  0  0  0  0  0  0  0  0
    8.2260   -4.8650   27.7860 C   0  0  0  0  0  0  0  0  0  0  0  0
    8.8880   -4.3380   26.7030 C   0  0  0  0  0  0  0  0  0  0  0  0
    8.1100   -3.8990   25.4870 C   0  0  0  0  0  0  0  0  0  0  0  0
  4  2  1  6
  1  7  1  0
  3  7  2  0
  4  7  1  0
  1  8  1  0
  5  9  1  0
  6  9  2  0
  8  9  1  6
 10 11  1  0
 13 14  1  0
 13 15  1  0
 13 16  1  0
  2 17  2  0
  1 18  1  0
  4 18  1  0
 19 20  2  0
 20 21  1  0
 21 22  2  0
  8 23  1  0
 22 23  1  0
 19 24  1  0
 23 24  2  0
 13 26  1  0
 25 26  2  0
 26 27  1  0
 27 28  2  0
  1 29  1  6
 28 29  1  0
 25 30  1  0
 29 30  2  0
 10 31  1  0
 31 32  2  0
 32 33  1  0
 33 34  2  0
 12 35  1  0
 34 35  1  0
  5 36  1  0
 31 36  1  0
 35 36  2  0
 18 37  1  1
 37 38  2  0
 38 39  1  0
 39 40  2  0
 40 41  1  0
 37 42  1  0
 41 42  2  0
 39 43  1  0
 43 44  2  0
 44 45  1  0
 38 46  1  0
 45 46  2  0
M  END
