x3117-x0771
     RDKit          3D

 49 55  0  0  0  0  0  0  0  0999 V2000
    6.7680   -1.3860   22.1240 N   0  0  0  0  0  0  0  0  0  0  0  0
    6.7040   -4.3860   20.2350 C   0  0  2  0  0  0  0  0  0  0  0  0
    4.7120   -2.9440   21.3970 O   0  0  0  0  0  0  0  0  0  0  0  0
    6.9230   -3.6130   21.4550 C   0  0  2  0  0  0  0  0  0  0  0  0
    7.6600    1.7030   23.2020 N   0  0  0  0  0  0  0  0  0  0  0  0
    8.5930    1.2570   21.1050 O   0  0  0  0  0  0  0  0  0  0  0  0
    5.9790   -2.5820   21.6580 C   0  0  0  0  0  0  0  0  0  0  0  0
    6.5410    0.0620   21.7270 C   0  0  1  0  0  0  0  0  0  0  0  0
    7.7120    1.0420   21.9580 C   0  0  0  0  0  0  0  0  0  0  0  0
   12.2790   -1.7540   24.1650 C   0  0  0  0  0  0  0  0  0  0  0  0
   12.4430   -0.5510   25.0530 C   0  0  0  0  0  0  0  0  0  0  0  0
   13.1970   -1.5690   23.1670 C   0  0  0  0  0  0  0  0  0  0  0  0
   12.7190   -2.9850   24.9390 C   0  0  0  0  0  0  0  0  0  0  0  0
    5.6590   -4.3340   19.6090 O   0  0  0  0  0  0  0  0  0  0  0  0
    0.6000   -1.3100   26.2560 C   0  0  0  0  0  0  0  0  0  0  0  0
    4.4550   -6.9900   25.6480 O   0  0  0  0  0  0  0  0  0  0  0  0
    5.9810   -5.3500   26.6590 O   0  0  0  0  0  0  0  0  0  0  0  0
    1.9600   -6.1230   24.9050 C   0  0  0  0  0  0  0  0  0  0  0  0
    4.9750   -5.5720   25.5670 S   0  0  0  0  0  0  0  0  0  0  0  0
    6.2690    0.3030   17.9080 N   0  0  0  0  0  0  0  0  0  0  0  0
    5.1600    1.0670   17.8220 C   0  0  0  0  0  0  0  0  0  0  0  0
    4.4250    1.5290   18.9000 C   0  0  0  0  0  0  0  0  0  0  0  0
    4.8660    1.1890   20.2390 C   0  0  0  0  0  0  0  0  0  0  0  0
    6.0630    0.3800   20.3360 C   0  0  0  0  0  0  0  0  0  0  0  0
    6.6800   -0.0120   19.1540 C   0  0  0  0  0  0  0  0  0  0  0  0
    9.7570    4.9530   23.9600 O   0  0  0  0  0  0  0  0  0  0  0  0
   10.5190    3.8170   23.5570 C   0  0  0  0  0  0  0  0  0  0  0  0
    9.7350    2.6420   23.6360 C   0  0  0  0  0  0  0  0  0  0  0  0
    8.3990    2.9460   23.5590 C   0  0  0  0  0  0  0  0  0  0  0  0
    8.0730    3.9710   22.6720 C   0  0  0  0  0  0  0  0  0  0  0  0
    8.6190    5.1700   23.1280 C   0  0  0  0  0  0  0  0  0  0  0  0
    9.2070   -1.9160   21.7970 C   0  0  0  0  0  0  0  0  0  0  0  0
   10.5270   -2.0080   22.2740 C   0  0  0  0  0  0  0  0  0  0  0  0
   10.8410   -1.7010   23.6030 C   0  0  0  0  0  0  0  0  0  0  0  0
    9.7780   -1.3170   24.4320 C   0  0  0  0  0  0  0  0  0  0  0  0
    8.4570   -1.2290   23.9560 C   0  0  0  0  0  0  0  0  0  0  0  0
    8.1450   -1.5190   22.6210 C   0  0  0  0  0  0  0  0  0  0  0  0
    1.6450   -2.3700   26.0710 C   0  0  0  0  0  0  0  0  0  0  0  0
    1.2280   -3.7310   25.5630 C   0  0  0  0  0  0  0  0  0  0  0  0
    2.3410   -4.7590   25.4070 C   0  0  0  0  0  0  0  0  0  0  0  0
    3.6380   -4.4130   25.7250 C   0  0  0  0  0  0  0  0  0  0  0  0
    3.9920   -2.9960   26.2350 C   0  0  0  0  0  0  0  0  0  0  0  0
    2.9720   -2.0690   26.3730 C   0  0  0  0  0  0  0  0  0  0  0  0
    6.6810   -5.1220   21.5090 C   0  0  1  0  0  0  0  0  0  0  0  0
    5.9140   -6.2360   21.9500 C   0  0  0  0  0  0  0  0  0  0  0  0
    4.9570   -5.8560   22.8430 C   0  0  0  0  0  0  0  0  0  0  0  0
    5.6060   -5.2140   24.0400 N   0  0  0  0  0  0  0  0  0  0  0  0
    7.0870   -4.9080   23.9390 C   0  0  0  0  0  0  0  0  0  0  0  0
    7.4830   -4.4530   22.5550 C   0  0  2  0  0  0  0  0  0  0  0  0
  2  4  1  0
  1  7  1  0
  3  7  2  0
  4  7  1  1
  1  8  1  0
  5  9  1  0
  6  9  2  0
  8  9  1  6
 10 11  1  0
 10 12  1  0
 10 13  1  0
  2 14  1  1
 16 19  2  0
 17 19  2  0
 20 21  2  0
 21 22  1  0
 22 23  2  0
  8 24  1  0
 23 24  1  0
 20 25  1  0
 24 25  2  0
 26 27  1  0
 27 28  1  0
  5 29  1  0
 28 29  1  0
 29 30  1  0
 26 31  1  0
 30 31  1  0
 32 33  2  0
 10 34  1  0
 33 34  1  0
 34 35  2  0
 35 36  1  0
  1 37  1  0
 32 37  1  0
 36 37  2  0
 15 38  1  0
 38 39  2  0
 18 40  1  0
 39 40  1  0
 19 41  1  0
 40 41  2  0
 41 42  1  0
 38 43  1  0
 42 43  2  0
  2 44  1  0
  4 44  1  0
 44 45  1  1
 45 46  1  0
 19 47  1  0
 46 47  1  0
 47 48  1  0
  4 49  1  0
 44 49  1  0
 49 48  1  1
M  END
