x3115-x3124
     RDKit          3D

 29 30  0  0  0  0  0  0  0  0999 V2000
    6.8940   -1.7370   21.9640 N   0  0  0  0  0  0  0  0  0  0  0  0
    6.7670   -4.9760   20.4720 C   0  0  0  0  0  0  0  0  0  0  0  0
    4.8040   -3.0220   21.2870 O   0  0  0  0  0  0  0  0  0  0  0  0
    6.7460   -4.1930   21.7360 C   0  0  0  0  0  0  0  0  0  0  0  0
    7.4640    1.5000   23.0970 N   0  0  0  0  0  0  0  0  0  0  0  0
    8.7220    0.6330   21.3680 O   0  0  0  0  0  0  0  0  0  0  0  0
    6.0500   -2.9060   21.6420 C   0  0  0  0  0  0  0  0  0  0  0  0
    8.5490    4.9630   23.0530 O   0  0  0  0  0  0  0  0  0  0  0  0
    6.5170   -0.2960   21.6990 C   0  0  1  0  0  0  0  0  0  0  0  0
    7.6790    0.6260   22.0210 C   0  0  0  0  0  0  0  0  0  0  0  0
    8.3320    2.5580   23.3690 C   0  0  0  0  0  0  0  0  0  0  0  0
    7.9650    3.7760   22.5080 C   0  0  0  0  0  0  0  0  0  0  0  0
    8.2300    6.1350   22.2970 C   0  0  0  0  0  0  0  0  0  0  0  0
   12.3520   -1.7170   24.1030 C   0  0  0  0  0  0  0  0  0  0  0  0
   13.2580   -1.7700   23.0540 C   0  0  0  0  0  0  0  0  0  0  0  0
   12.7170   -2.9310   24.9520 C   0  0  0  0  0  0  0  0  0  0  0  0
   12.4480   -0.6500   24.9050 C   0  0  0  0  0  0  0  0  0  0  0  0
    6.3430    0.2580   17.9340 N   0  0  0  0  0  0  0  0  0  0  0  0
    5.2510    1.0250   17.8570 C   0  0  0  0  0  0  0  0  0  0  0  0
    4.4170    1.4510   18.9690 C   0  0  0  0  0  0  0  0  0  0  0  0
    4.8680    0.9720   20.2700 C   0  0  0  0  0  0  0  0  0  0  0  0
    6.0140    0.1790   20.3470 C   0  0  0  0  0  0  0  0  0  0  0  0
    6.7050   -0.1500   19.1700 C   0  0  0  0  0  0  0  0  0  0  0  0
    9.3260   -2.0230   21.7300 C   0  0  0  0  0  0  0  0  0  0  0  0
   10.6060   -2.0190   22.2160 C   0  0  0  0  0  0  0  0  0  0  0  0
   10.9280   -1.7590   23.5390 C   0  0  0  0  0  0  0  0  0  0  0  0
    9.8410   -1.5080   24.3850 C   0  0  0  0  0  0  0  0  0  0  0  0
    8.5200   -1.5150   23.8720 C   0  0  0  0  0  0  0  0  0  0  0  0
    8.2430   -1.7640   22.5310 C   0  0  0  0  0  0  0  0  0  0  0  0
  2  4  1  0
  1  7  1  0
  3  7  2  0
  4  7  1  0
  1  9  1  0
  5 10  1  0
  6 10  2  0
  9 10  1  6
  5 11  1  0
  8 12  1  0
 11 12  1  0
  8 13  1  0
 14 15  1  0
 14 16  1  0
 14 17  1  0
 18 19  2  0
 19 20  1  0
 20 21  2  0
  9 22  1  0
 21 22  1  0
 18 23  1  0
 22 23  2  0
 24 25  2  0
 14 26  1  0
 25 26  1  0
 26 27  2  0
 27 28  1  0
  1 29  1  0
 24 29  1  0
 28 29  2  0
M  END
