x3117-x0689
     RDKit          3D

 46 51  0  0  0  0  0  0  0  0999 V2000
    6.7590   -1.5130   22.1040 N   0  0  0  0  0  0  0  0  0  0  0  0
    6.6100   -4.1200   19.9510 C   0  0  0  0  0  0  0  0  0  0  0  0
    4.6760   -2.9590   21.4770 O   0  0  0  0  0  0  0  0  0  0  0  0
    6.7560   -3.8490   21.3820 C   0  0  2  0  0  0  0  0  0  0  0  0
    7.6050    1.9160   22.6930 N   0  0  0  0  0  0  0  0  0  0  0  0
    8.8810    0.4700   21.4180 O   0  0  0  0  0  0  0  0  0  0  0  0
    5.9470   -2.7080   21.6770 C   0  0  0  0  0  0  0  0  0  0  0  0
    6.5430   -0.0770   21.6570 C   0  0  1  0  0  0  0  0  0  0  0  0
    7.7920    0.7640   21.9010 C   0  0  0  0  0  0  0  0  0  0  0  0
   12.2720   -1.7740   24.1710 C   0  0  0  0  0  0  0  0  0  0  0  0
   12.4320   -0.5550   25.0450 C   0  0  0  0  0  0  0  0  0  0  0  0
   13.2250   -1.6180   23.2000 C   0  0  0  0  0  0  0  0  0  0  0  0
   12.6620   -3.0050   24.9730 C   0  0  0  0  0  0  0  0  0  0  0  0
    5.7590   -4.8640   19.5190 O   0  0  0  0  0  0  0  0  0  0  0  0
    4.0600   -6.3220   26.1890 O   0  0  0  0  0  0  0  0  0  0  0  0
    5.6280   -4.5550   26.8790 O   0  0  0  0  0  0  0  0  0  0  0  0
    4.6810   -4.9990   25.8000 S   0  0  0  0  0  0  0  0  0  0  0  0
    6.3020    0.2040   17.9060 N   0  0  0  0  0  0  0  0  0  0  0  0
    5.2000    0.9460   17.8930 C   0  0  0  0  0  0  0  0  0  0  0  0
    4.4990    1.3630   18.9590 C   0  0  0  0  0  0  0  0  0  0  0  0
    4.9020    1.0340   20.2580 C   0  0  0  0  0  0  0  0  0  0  0  0
    6.0560    0.2640   20.3570 C   0  0  0  0  0  0  0  0  0  0  0  0
    6.7470   -0.1480   19.1250 C   0  0  0  0  0  0  0  0  0  0  0  0
    9.9360    5.1180   23.4790 O   0  0  0  0  0  0  0  0  0  0  0  0
   10.0490    3.9390   24.2640 C   0  0  0  0  0  0  0  0  0  0  0  0
    9.5680    2.7880   23.6430 C   0  0  0  0  0  0  0  0  0  0  0  0
    8.5860    3.0250   22.6780 C   0  0  0  0  0  0  0  0  0  0  0  0
    7.9320    4.2760   22.7140 C   0  0  0  0  0  0  0  0  0  0  0  0
    8.6080    5.4260   23.0720 C   0  0  0  0  0  0  0  0  0  0  0  0
    9.2230   -1.9300   21.8190 C   0  0  0  0  0  0  0  0  0  0  0  0
   10.5270   -1.9900   22.3090 C   0  0  0  0  0  0  0  0  0  0  0  0
   10.8160   -1.7410   23.6520 C   0  0  0  0  0  0  0  0  0  0  0  0
    9.7390   -1.4450   24.4870 C   0  0  0  0  0  0  0  0  0  0  0  0
    8.4130   -1.3830   24.0140 C   0  0  0  0  0  0  0  0  0  0  0  0
    8.1340   -1.6190   22.6550 C   0  0  0  0  0  0  0  0  0  0  0  0
    6.3790   -5.2160   21.6340 N   0  0  0  0  0  0  0  0  0  0  0  0
    5.4380   -6.1020   22.2970 C   0  0  0  0  0  0  0  0  0  0  0  0
    4.6510   -5.3140   23.0770 C   0  0  0  0  0  0  0  0  0  0  0  0
    5.4640   -5.1350   24.3000 N   0  0  0  0  0  0  0  0  0  0  0  0
    6.9170   -4.7450   24.1330 C   0  0  0  0  0  0  0  0  0  0  0  0
    7.3010   -4.6020   22.6260 C   0  0  2  0  0  0  0  0  0  0  0  0
    3.7860   -2.1890   26.0760 S   0  0  0  0  0  0  0  0  0  0  0  0
    3.3690   -3.8140   25.7250 C   0  0  0  0  0  0  0  0  0  0  0  0
    2.0340   -3.9570   25.4300 C   0  0  0  0  0  0  0  0  0  0  0  0
    1.3140   -2.6150   25.5120 C   0  0  0  0  0  0  0  0  0  0  0  0
    2.1880   -1.6120   25.8550 C   0  0  0  0  0  0  0  0  0  0  0  0
  4  2  1  6
  1  7  1  0
  3  7  2  0
  4  7  1  0
  1  8  1  0
  5  9  1  0
  6  9  2  0
  8  9  1  6
 10 11  1  0
 10 12  1  0
 10 13  1  0
  2 14  2  0
 15 17  2  0
 16 17  2  0
 18 19  2  0
 19 20  1  0
 20 21  2  0
  8 22  1  0
 21 22  1  0
 18 23  1  0
 22 23  2  0
 24 25  1  0
 25 26  1  0
  5 27  1  0
 26 27  1  0
 27 28  1  0
 24 29  1  0
 28 29  1  0
 30 31  2  0
 10 32  1  0
 31 32  1  0
 32 33  2  0
 33 34  1  0
  1 35  1  0
 30 35  1  0
 34 35  2  0
  4 36  1  0
 36 37  1  0
 37 38  1  0
 17 39  1  0
 38 39  1  0
 39 40  1  0
  4 41  1  0
 36 41  1  0
 41 40  1  1
 17 43  1  0
 42 43  1  0
 43 44  2  0
 44 45  1  0
 42 46  1  0
 45 46  2  0
M  END
