x3110-x1402-x1311-x0771-x2705
     RDKit          3D

 62 69  0  0  0  0  0  0  0  0999 V2000
    6.5350    2.0950   22.2000 C   0  0  2  0  0  0  0  0  0  0  0  0
   13.1650    4.2850   23.0910 C   0  0  0  0  0  0  0  0  0  0  0  0
   11.4190    2.8010   23.9840 O   0  0  0  0  0  0  0  0  0  0  0  0
   12.5450    2.8970   23.0910 C   0  0  0  0  0  0  0  0  0  0  0  0
    6.3270   -1.7020   21.6810 N   0  0  0  0  0  0  0  0  0  0  0  0
   10.0100    3.9730   22.2790 N   0  0  0  0  0  0  0  0  0  0  0  0
   10.2640    3.0520   23.3120 C   0  0  0  0  0  0  0  0  0  0  0  0
    6.6060    0.4060   23.7990 O   0  0  0  0  0  0  0  0  0  0  0  0
    8.8860    2.5560   23.3170 C   0  0  0  0  0  0  0  0  0  0  0  0
    4.4070   -3.0240   21.8600 O   0  0  0  0  0  0  0  0  0  0  0  0
    6.2990    0.6830   22.6420 C   0  0  0  0  0  0  0  0  0  0  0  0
    5.6850   -0.3280   21.6770 C   0  0  1  0  0  0  0  0  0  0  0  0
    5.5630   -2.8920   21.4890 C   0  0  0  0  0  0  0  0  0  0  0  0
    6.1430   -4.1350   20.7360 C   0  0  2  0  0  0  0  0  0  0  0  0
    7.0240   -3.4330   19.6270 C   0  0  0  0  0  0  0  0  0  0  0  0
   11.6730   -1.8170   24.2270 C   0  0  0  0  0  0  0  0  0  0  0  0
   11.9830   -0.5680   25.0900 C   0  0  0  0  0  0  0  0  0  0  0  0
   12.8630   -2.0210   23.2260 C   0  0  0  0  0  0  0  0  0  0  0  0
   11.7430   -3.0000   25.2270 C   0  0  0  0  0  0  0  0  0  0  0  0
    4.9210    4.8270   21.8290 C   0  0  0  0  0  0  0  0  0  0  0  0
    9.1140    3.6160   22.3260 C   0  0  0  0  0  0  0  0  0  0  0  0
   12.8720   -1.1500   21.9710 C   0  0  0  0  0  0  0  0  0  0  0  0
    5.1420   -4.8770   20.0810 O   0  0  0  0  0  0  0  0  0  0  0  0
    1.2600   -1.2920   25.8840 C   0  0  0  0  0  0  0  0  0  0  0  0
    3.8170   -7.3780   24.2810 O   0  0  0  0  0  0  0  0  0  0  0  0
    5.2890   -6.5130   26.0980 O   0  0  0  0  0  0  0  0  0  0  0  0
    1.7510   -5.7750   23.5110 C   0  0  0  0  0  0  0  0  0  0  0  0
    4.6480   -6.3190   24.8170 S   0  0  0  0  0  0  0  0  0  0  0  0
    6.1350    0.5760   17.9560 N   0  0  0  0  0  0  0  0  0  0  0  0
    4.9860    1.2460   17.7560 C   0  0  0  0  0  0  0  0  0  0  0  0
    3.9720    1.4740   18.7340 C   0  0  0  0  0  0  0  0  0  0  0  0
    4.2610    0.9350   19.9780 C   0  0  0  0  0  0  0  0  0  0  0  0
    5.4470    0.2300   20.2550 C   0  0  0  0  0  0  0  0  0  0  0  0
    6.3510    0.0820   19.1930 C   0  0  0  0  0  0  0  0  0  0  0  0
    8.8340   -1.7820   21.5490 C   0  0  0  0  0  0  0  0  0  0  0  0
   10.1030   -1.8080   22.1450 C   0  0  0  0  0  0  0  0  0  0  0  0
   10.2600   -1.7940   23.5530 C   0  0  0  0  0  0  0  0  0  0  0  0
    9.0660   -1.7580   24.3180 C   0  0  0  0  0  0  0  0  0  0  0  0
    7.7900   -1.7340   23.7130 C   0  0  0  0  0  0  0  0  0  0  0  0
    7.6520   -1.7420   22.3120 C   0  0  0  0  0  0  0  0  0  0  0  0
    7.7650    2.9120   22.5310 C   0  0  1  0  0  0  0  0  0  0  0  0
    8.5050    3.9070   21.7380 C   0  0  1  0  0  0  0  0  0  0  0  0
    8.0110    5.2430   21.6960 C   0  0  0  0  0  0  0  0  0  0  0  0
    7.1430    5.6660   22.6860 C   0  0  0  0  0  0  0  0  0  0  0  0
    5.9830    4.6900   22.9090 C   0  0  2  0  0  0  0  0  0  0  0  0
    6.4290    3.2990   23.1380 C   0  0  1  0  0  0  0  0  0  0  0  0
    2.0560   -2.5340   25.5940 C   0  0  0  0  0  0  0  0  0  0  0  0
    1.5470   -3.5160   24.7390 C   0  0  0  0  0  0  0  0  0  0  0  0
    2.3420   -4.7510   24.4460 C   0  0  0  0  0  0  0  0  0  0  0  0
    3.5990   -4.8780   25.0640 C   0  0  0  0  0  0  0  0  0  0  0  0
    4.0750   -3.8670   25.9200 C   0  0  0  0  0  0  0  0  0  0  0  0
    3.3140   -2.7160   26.1790 C   0  0  0  0  0  0  0  0  0  0  0  0
    6.6890   -5.1620   21.7150 N   0  0  0  0  0  0  0  0  0  0  0  0
    6.5000   -6.5480   21.4260 C   0  0  0  0  0  0  0  0  0  0  0  0
    5.8830   -7.0370   22.6750 C   0  0  0  0  0  0  0  0  0  0  0  0
    5.8310   -5.8720   23.6060 N   0  0  0  0  0  0  0  0  0  0  0  0
    7.1110   -5.5560   24.2970 C   0  0  0  0  0  0  0  0  0  0  0  0
    7.5470   -5.0820   22.8800 C   0  0  0  0  0  0  0  0  0  0  0  0
    8.7970   -4.5410   22.5230 C   0  0  0  0  0  0  0  0  0  0  0  0
    9.8190   -4.3540   23.3670 C   0  0  0  0  0  0  0  0  0  0  0  0
    9.5780   -4.7190   24.6090 C   0  0  0  0  0  0  0  0  0  0  0  0
    8.3510   -5.2500   24.9660 C   0  0  0  0  0  0  0  0  0  0  0  0
  2  4  1  0
  3  4  1  0
  3  7  1  0
  6  7  1  0
  7  9  2  0
  1 11  1  1
  8 11  2  0
  5 12  1  0
 12 11  1  1
  5 13  1  0
 10 13  2  0
 13 14  1  0
 14 15  1  6
 16 17  1  0
 16 18  1  0
 16 19  1  0
  9 21  1  0
 18 22  1  0
 14 23  1  0
 25 28  2  0
 26 28  2  0
 29 30  2  0
 30 31  1  0
 31 32  2  0
 12 33  1  0
 32 33  1  0
 29 34  1  0
 33 34  2  0
 35 36  2  0
 16 37  1  0
 36 37  1  0
 37 38  2  0
 38 39  1  0
  5 40  1  0
 35 40  1  0
 39 40  2  0
  1 41  1  0
 41  9  1  1
  6 42  1  0
 41 42  1  0
 42 43  1  1
 43 44  1  0
 45 20  1  6
 44 45  1  0
  1 46  1  0
 41 46  1  0
 46 45  1  6
 24 47  1  0
 47 48  2  0
 27 49  1  0
 48 49  1  0
 28 50  1  0
 49 50  2  0
 50 51  1  0
 47 52  1  0
 51 52  2  0
 14 53  1  0
 53 54  1  0
 54 55  1  0
 28 56  1  0
 55 56  1  0
 56 57  1  0
 53 58  1  0
 57 58  2  0
 58 59  1  0
 59 60  2  0
 60 61  1  0
 57 62  1  0
 61 62  2  0
M  END
