x3115-x0755
     RDKit          3D

 47 50  0  0  0  0  0  0  0  0999 V2000
    6.8850   -1.6630   21.9990 N   0  0  0  0  0  0  0  0  0  0  0  0
    6.8350   -4.5740   20.0920 C   0  0  0  0  0  0  0  0  0  0  0  0
    4.8330   -3.0710   21.3320 O   0  0  0  0  0  0  0  0  0  0  0  0
    6.9980   -4.0060   21.4000 C   0  0  1  0  0  0  0  0  0  0  0  0
    7.4780    1.5210   23.1160 N   0  0  0  0  0  0  0  0  0  0  0  0
    8.7070    0.7200   21.3350 O   0  0  0  0  0  0  0  0  0  0  0  0
    6.1110   -2.8530   21.5770 C   0  0  0  0  0  0  0  0  0  0  0  0
    8.5660    4.9970   23.0540 O   0  0  0  0  0  0  0  0  0  0  0  0
    6.5200   -0.2330   21.6890 C   0  0  1  0  0  0  0  0  0  0  0  0
    7.6810    0.6860   22.0110 C   0  0  0  0  0  0  0  0  0  0  0  0
    8.3140    2.6050   23.3750 C   0  0  0  0  0  0  0  0  0  0  0  0
    8.0050    3.8130   22.4800 C   0  0  0  0  0  0  0  0  0  0  0  0
    8.2680    6.1770   22.3040 C   0  0  0  0  0  0  0  0  0  0  0  0
   12.3600   -1.6630   24.1060 C   0  0  0  0  0  0  0  0  0  0  0  0
   13.2690   -1.6450   23.0620 C   0  0  0  0  0  0  0  0  0  0  0  0
   12.7310   -2.9220   24.8990 C   0  0  0  0  0  0  0  0  0  0  0  0
   12.4260   -0.6360   24.9580 C   0  0  0  0  0  0  0  0  0  0  0  0
    5.6060   -4.4060   19.4410 O   0  0  0  0  0  0  0  0  0  0  0  0
    4.2020   -6.4170   26.3880 O   0  0  0  0  0  0  0  0  0  0  0  0
    5.9340   -4.6420   27.1070 O   0  0  0  0  0  0  0  0  0  0  0  0
    1.9320   -5.4720   25.7430 F   0  0  0  0  0  0  0  0  0  0  0  0
    5.4570   -2.3080   26.3380 F   0  0  0  0  0  0  0  0  0  0  0  0
    4.9100   -5.1020   26.2010 S   0  0  0  0  0  0  0  0  0  0  0  0
    6.3380    0.3120   17.9510 N   0  0  0  0  0  0  0  0  0  0  0  0
    5.2350    1.0720   17.8620 C   0  0  0  0  0  0  0  0  0  0  0  0
    4.3820    1.4980   18.9720 C   0  0  0  0  0  0  0  0  0  0  0  0
    4.8730    1.0050   20.2580 C   0  0  0  0  0  0  0  0  0  0  0  0
    6.0230    0.2270   20.3350 C   0  0  0  0  0  0  0  0  0  0  0  0
    6.7180   -0.0990   19.1720 C   0  0  0  0  0  0  0  0  0  0  0  0
    9.3260   -2.0580   21.7440 C   0  0  0  0  0  0  0  0  0  0  0  0
   10.6070   -2.0580   22.2370 C   0  0  0  0  0  0  0  0  0  0  0  0
   10.9470   -1.6950   23.5300 C   0  0  0  0  0  0  0  0  0  0  0  0
    9.8630   -1.3270   24.3120 C   0  0  0  0  0  0  0  0  0  0  0  0
    8.5400   -1.3180   23.8490 C   0  0  0  0  0  0  0  0  0  0  0  0
    8.2470   -1.6850   22.5330 C   0  0  0  0  0  0  0  0  0  0  0  0
    2.3390   -4.2000   25.8370 C   0  0  0  0  0  0  0  0  0  0  0  0
    3.6870   -3.9000   26.0430 C   0  0  0  0  0  0  0  0  0  0  0  0
    4.1640   -2.5780   26.1440 C   0  0  0  0  0  0  0  0  0  0  0  0
    3.2800   -1.4930   26.0450 C   0  0  0  0  0  0  0  0  0  0  0  0
    1.9180   -1.7200   25.8460 C   0  0  0  0  0  0  0  0  0  0  0  0
    1.4340   -3.1530   25.7340 C   0  0  0  0  0  0  0  0  0  0  0  0
    6.8450   -5.0440   22.2950 N   0  0  0  0  0  0  0  0  0  0  0  0
    7.6820   -5.0260   23.4710 C   0  0  0  0  0  0  0  0  0  0  0  0
    6.8830   -4.4240   24.5520 C   0  0  0  0  0  0  0  0  0  0  0  0
    5.6180   -5.1600   24.6930 N   0  0  0  0  0  0  0  0  0  0  0  0
    4.7900   -5.3390   23.4900 C   0  0  0  0  0  0  0  0  0  0  0  0
    5.5920   -5.7980   22.3350 C   0  0  0  0  0  0  0  0  0  0  0  0
  4  2  1  6
  1  7  1  0
  3  7  2  0
  4  7  1  0
  1  9  1  0
  5 10  1  0
  6 10  2  0
  9 10  1  6
  5 11  1  0
  8 12  1  0
 11 12  1  0
  8 13  1  0
 14 15  1  0
 14 16  1  0
 14 17  1  0
  2 18  2  0
 19 23  2  0
 20 23  2  0
 24 25  2  0
 25 26  1  0
 26 27  2  0
  9 28  1  0
 27 28  1  0
 24 29  1  0
 28 29  2  0
 30 31  2  0
 14 32  1  0
 31 32  1  0
 32 33  2  0
 33 34  1  0
  1 35  1  0
 30 35  1  0
 34 35  2  0
 21 36  1  0
 23 37  1  0
 36 37  2  0
 22 38  1  0
 37 38  1  0
 38 39  2  0
 39 40  1  0
 36 41  1  0
 40 41  2  0
  4 42  1  0
 42 43  1  0
 43 44  1  0
 23 45  1  0
 44 45  1  0
 45 46  1  0
 42 47  1  0
 46 47  1  0
M  END
