x3115-x0161
     RDKit          3D

 39 41  0  0  0  0  0  0  0  0999 V2000
    6.8640   -1.6990   21.9560 N   0  0  0  0  0  0  0  0  0  0  0  0
    6.7360   -4.9280   20.4080 C   0  0  0  0  0  0  0  0  0  0  0  0
    4.7850   -3.0000   21.2920 O   0  0  0  0  0  0  0  0  0  0  0  0
    6.7580   -4.1420   21.6690 C   0  0  0  0  0  0  0  0  0  0  0  0
    7.4450    1.6900   22.8760 N   0  0  0  0  0  0  0  0  0  0  0  0
    8.7530    0.5290   21.3800 O   0  0  0  0  0  0  0  0  0  0  0  0
    6.0280   -2.8690   21.6180 C   0  0  0  0  0  0  0  0  0  0  0  0
    8.6650    5.0710   22.7380 N   0  0  0  0  0  0  0  0  0  0  0  0
    6.5020   -0.2570   21.6820 C   0  0  1  0  0  0  0  0  0  0  0  0
    7.6800    0.6570   21.9580 C   0  0  0  0  0  0  0  0  0  0  0  0
    8.3840    2.7160   23.0090 C   0  0  0  0  0  0  0  0  0  0  0  0
    7.7300    4.0920   22.8620 C   0  0  0  0  0  0  0  0  0  0  0  0
    8.2090    6.2170   22.1710 C   0  0  0  0  0  0  0  0  0  0  0  0
   12.2900   -2.0300   24.0950 C   0  0  0  0  0  0  0  0  0  0  0  0
   13.2090   -2.5210   23.1870 C   0  0  0  0  0  0  0  0  0  0  0  0
   12.1440   -3.0420   25.2280 C   0  0  0  0  0  0  0  0  0  0  0  0
   12.6770   -0.8490   24.5440 C   0  0  0  0  0  0  0  0  0  0  0  0
   13.3380   -0.1010   23.8300 O   0  0  0  0  0  0  0  0  0  0  0  0
   10.0320    5.1630   23.7360 S   0  0  0  0  0  0  0  0  0  0  0  0
   10.9130    6.2380   23.3100 O   0  0  0  0  0  0  0  0  0  0  0  0
    9.6360    5.4480   25.0950 O   0  0  0  0  0  0  0  0  0  0  0  0
    6.3220    0.2870   17.9200 N   0  0  0  0  0  0  0  0  0  0  0  0
    5.2250    1.0560   17.8510 C   0  0  0  0  0  0  0  0  0  0  0  0
    4.3990    1.4780   18.9680 C   0  0  0  0  0  0  0  0  0  0  0  0
    4.8510    1.0020   20.2650 C   0  0  0  0  0  0  0  0  0  0  0  0
    5.9980    0.2110   20.3350 C   0  0  0  0  0  0  0  0  0  0  0  0
    6.6940   -0.1250   19.1590 C   0  0  0  0  0  0  0  0  0  0  0  0
    9.3070   -1.6410   21.6890 C   0  0  0  0  0  0  0  0  0  0  0  0
   10.6220   -1.7060   22.1290 C   0  0  0  0  0  0  0  0  0  0  0  0
   10.9100   -1.9310   23.4760 C   0  0  0  0  0  0  0  0  0  0  0  0
    9.7990   -2.0770   24.2920 C   0  0  0  0  0  0  0  0  0  0  0  0
    8.4950   -2.0120   23.8390 C   0  0  0  0  0  0  0  0  0  0  0  0
    8.2000   -1.7900   22.5080 C   0  0  0  0  0  0  0  0  0  0  0  0
   12.3750    1.1510   23.3230 C   0  0  0  0  0  0  0  0  0  0  0  0
   12.8440    2.3820   22.8800 C   0  0  0  0  0  0  0  0  0  0  0  0
   12.1450    3.5760   22.9990 C   0  0  0  0  0  0  0  0  0  0  0  0
   10.8920    3.6140   23.6000 C   0  0  0  0  0  0  0  0  0  0  0  0
   10.3570    2.4120   24.0810 C   0  0  0  0  0  0  0  0  0  0  0  0
   11.1330    1.1240   23.9320 C   0  0  0  0  0  0  0  0  0  0  0  0
  2  4  1  0
  1  7  1  0
  3  7  2  0
  4  7  1  0
  1  9  1  0
  5 10  1  0
  6 10  2  0
  9 10  1  6
  5 11  1  0
  8 12  1  0
 11 12  1  0
  8 13  1  0
 14 15  1  0
 14 16  1  0
 14 17  1  0
 17 18  2  0
 19  8  1  0
 19 20  2  0
 19 21  2  0
 22 23  2  0
 23 24  1  0
 24 25  2  0
  9 26  1  0
 25 26  1  0
 22 27  1  0
 26 27  2  0
 28 29  2  0
 14 30  1  0
 29 30  1  0
 30 31  2  0
 31 32  1  0
  1 33  1  0
 28 33  1  0
 32 33  2  0
 34 35  2  0
 35 36  1  0
 19 37  1  0
 36 37  2  0
 37 38  1  0
 34 39  1  0
 38 39  2  0
M  END
