x3110-x2703-x1311-x0771-x2705
     RDKit          3D

 62 69  0  0  0  0  0  0  0  0999 V2000
    8.2110    1.4990   23.2800 C   0  0  1  0  0  0  0  0  0  0  0  0
   13.2060    5.3370   22.9280 C   0  0  0  0  0  0  0  0  0  0  0  0
   12.6530    2.9580   23.2570 O   0  0  0  0  0  0  0  0  0  0  0  0
   13.1620    3.9410   22.3410 C   0  0  0  0  0  0  0  0  0  0  0  0
    6.9160   -1.5830   21.8400 N   0  0  0  0  0  0  0  0  0  0  0  0
   10.8500    4.1090   22.7550 N   0  0  0  0  0  0  0  0  0  0  0  0
   11.3290    2.9990   23.3450 C   0  0  0  0  0  0  0  0  0  0  0  0
    8.2660    1.5820   20.9250 O   0  0  0  0  0  0  0  0  0  0  0  0
   10.5740    2.0060   23.9870 C   0  0  0  0  0  0  0  0  0  0  0  0
    4.7690   -2.9580   21.2770 O   0  0  0  0  0  0  0  0  0  0  0  0
    7.7200    1.0320   21.8960 C   0  0  0  0  0  0  0  0  0  0  0  0
    6.6170   -0.0940   21.5930 C   0  0  1  0  0  0  0  0  0  0  0  0
    6.0880   -2.7740   21.3480 C   0  0  0  0  0  0  0  0  0  0  0  0
    6.8110   -4.0750   20.8390 C   0  0  2  0  0  0  0  0  0  0  0  0
    8.3030   -3.7500   20.4530 C   0  0  0  0  0  0  0  0  0  0  0  0
   12.3040   -1.9360   24.3200 C   0  0  0  0  0  0  0  0  0  0  0  0
   12.4610   -0.6490   25.1290 C   0  0  0  0  0  0  0  0  0  0  0  0
   13.3710   -1.9010   23.2250 C   0  0  0  0  0  0  0  0  0  0  0  0
   12.6750   -3.0970   25.2610 C   0  0  0  0  0  0  0  0  0  0  0  0
    6.5440    3.6450   21.6680 C   0  0  0  0  0  0  0  0  0  0  0  0
    9.5740    1.0720   24.6100 C   0  0  0  0  0  0  0  0  0  0  0  0
   12.9450   -1.4880   21.8470 C   0  0  0  0  0  0  0  0  0  0  0  0
    5.9060   -4.5180   19.8130 O   0  0  0  0  0  0  0  0  0  0  0  0
    0.6400   -1.3650   26.2560 C   0  0  0  0  0  0  0  0  0  0  0  0
    4.2030   -7.0090   25.9220 O   0  0  0  0  0  0  0  0  0  0  0  0
    5.8070   -5.3380   26.9200 O   0  0  0  0  0  0  0  0  0  0  0  0
    1.8720   -6.0710   25.0250 C   0  0  0  0  0  0  0  0  0  0  0  0
    4.8590   -5.7250   25.8970 S   0  0  0  0  0  0  0  0  0  0  0  0
    6.3030    0.4270   17.8410 N   0  0  0  0  0  0  0  0  0  0  0  0
    5.1920    1.1670   17.7950 C   0  0  0  0  0  0  0  0  0  0  0  0
    4.4560    1.5320   18.8900 C   0  0  0  0  0  0  0  0  0  0  0  0
    4.9040    1.1130   20.1330 C   0  0  0  0  0  0  0  0  0  0  0  0
    6.0630    0.3490   20.2450 C   0  0  0  0  0  0  0  0  0  0  0  0
    6.7240    0.0280   19.0590 C   0  0  0  0  0  0  0  0  0  0  0  0
    9.4200   -1.4440   21.7790 C   0  0  0  0  0  0  0  0  0  0  0  0
   10.6940   -1.5290   22.3630 C   0  0  0  0  0  0  0  0  0  0  0  0
   10.8870   -1.8900   23.6850 C   0  0  0  0  0  0  0  0  0  0  0  0
    9.7310   -2.1810   24.3980 C   0  0  0  0  0  0  0  0  0  0  0  0
    8.4410   -2.1020   23.8160 C   0  0  0  0  0  0  0  0  0  0  0  0
    8.2570   -1.7170   22.4660 C   0  0  0  0  0  0  0  0  0  0  0  0
    9.2540    2.6980   23.5210 C   0  0  1  0  0  0  0  0  0  0  0  0
    9.4700    3.9960   22.7200 C   0  0  1  0  0  0  0  0  0  0  0  0
    8.9500    5.2830   23.3500 C   0  0  0  0  0  0  0  0  0  0  0  0
    7.4590    5.3090   23.2390 C   0  0  0  0  0  0  0  0  0  0  0  0
    6.8920    3.8790   23.1430 C   0  0  2  0  0  0  0  0  0  0  0  0
    7.7770    2.8370   23.8690 C   0  0  1  0  0  0  0  0  0  0  0  0
    1.6730   -2.4370   26.1460 C   0  0  0  0  0  0  0  0  0  0  0  0
    1.3340   -3.7050   25.6530 C   0  0  0  0  0  0  0  0  0  0  0  0
    2.2890   -4.7280   25.5580 C   0  0  0  0  0  0  0  0  0  0  0  0
    3.6040   -4.4460   25.9760 C   0  0  0  0  0  0  0  0  0  0  0  0
    3.9530   -3.1780   26.4590 C   0  0  0  0  0  0  0  0  0  0  0  0
    2.9840   -2.1840   26.5390 C   0  0  0  0  0  0  0  0  0  0  0  0
    6.7070   -5.1110   21.8850 N   0  0  0  0  0  0  0  0  0  0  0  0
    5.6890   -6.1510   22.0050 C   0  0  0  0  0  0  0  0  0  0  0  0
    4.7840   -5.9100   23.2160 C   0  0  0  0  0  0  0  0  0  0  0  0
    5.5750   -5.4790   24.4050 N   0  0  0  0  0  0  0  0  0  0  0  0
    6.9910   -5.2350   24.3030 C   0  0  0  0  0  0  0  0  0  0  0  0
    7.5140   -5.0500   23.0220 C   0  0  0  0  0  0  0  0  0  0  0  0
    8.8660   -4.8090   22.9100 C   0  0  0  0  0  0  0  0  0  0  0  0
    9.7100   -4.7640   24.0050 C   0  0  0  0  0  0  0  0  0  0  0  0
    9.2120   -4.9570   25.2560 C   0  0  0  0  0  0  0  0  0  0  0  0
    7.8580   -5.1850   25.4120 C   0  0  0  0  0  0  0  0  0  0  0  0
  2  4  1  0
  3  4  1  0
  3  7  1  0
  6  7  1  0
  7  9  2  0
  1 11  1  6
  8 11  2  0
  5 12  1  0
 12 11  1  6
  5 13  1  0
 10 13  2  0
 13 14  1  0
 14 15  1  6
 16 17  1  0
 16 18  1  0
 16 19  1  0
  9 21  1  0
 18 22  1  0
 14 23  1  0
 25 28  2  0
 26 28  2  0
 29 30  2  0
 30 31  1  0
 31 32  2  0
 12 33  1  0
 32 33  1  0
 29 34  1  0
 33 34  2  0
 35 36  2  0
 16 37  1  0
 36 37  1  0
 37 38  2  0
 38 39  1  0
  5 40  1  0
 35 40  1  0
 39 40  2  0
  1 41  1  0
 41  9  1  1
  6 42  1  0
 41 42  1  0
 42 43  1  1
 43 44  1  0
 45 20  1  6
 44 45  1  0
  1 46  1  0
 41 46  1  0
 46 45  1  6
 24 47  1  0
 47 48  2  0
 27 49  1  0
 48 49  1  0
 28 50  1  0
 49 50  2  0
 50 51  1  0
 47 52  1  0
 51 52  2  0
 14 53  1  0
 53 54  1  0
 54 55  1  0
 28 56  1  0
 55 56  1  0
 56 57  1  0
 53 58  1  0
 57 58  2  0
 58 59  1  0
 59 60  2  0
 60 61  1  0
 57 62  1  0
 61 62  2  0
M  END
