x3115-x0769
     RDKit          3D

 46 50  0  0  0  0  0  0  0  0999 V2000
    6.8750   -1.7150   21.9320 N   0  0  0  0  0  0  0  0  0  0  0  0
    6.8110   -4.7430   20.1940 C   0  0  0  0  0  0  0  0  0  0  0  0
    4.8130   -3.0560   21.3280 O   0  0  0  0  0  0  0  0  0  0  0  0
    6.9080   -4.1060   21.4960 C   0  0  2  0  0  0  0  0  0  0  0  0
    7.1320    1.7160   22.8060 N   0  0  0  0  0  0  0  0  0  0  0  0
    8.7290    0.5910   21.5600 O   0  0  0  0  0  0  0  0  0  0  0  0
    6.0760   -2.8970   21.5830 C   0  0  0  0  0  0  0  0  0  0  0  0
    8.4740    5.1040   22.9270 O   0  0  0  0  0  0  0  0  0  0  0  0
    6.4780   -0.2910   21.6450 C   0  0  1  0  0  0  0  0  0  0  0  0
    7.5780    0.6780   21.9890 C   0  0  0  0  0  0  0  0  0  0  0  0
    7.9600    2.7590   23.1670 C   0  0  0  0  0  0  0  0  0  0  0  0
    7.7880    4.0060   22.3080 C   0  0  0  0  0  0  0  0  0  0  0  0
    8.2880    6.3310   22.2220 C   0  0  0  0  0  0  0  0  0  0  0  0
   12.2390   -1.8750   24.2330 C   0  0  0  0  0  0  0  0  0  0  0  0
   13.2430   -2.1600   23.3130 C   0  0  0  0  0  0  0  0  0  0  0  0
   12.1450   -3.0810   25.1680 C   0  0  0  0  0  0  0  0  0  0  0  0
   12.4020   -0.7610   24.9640 C   0  0  0  0  0  0  0  0  0  0  0  0
    5.5670   -4.6100   19.5580 O   0  0  0  0  0  0  0  0  0  0  0  0
    5.8120   -5.0520   27.0220 O   0  0  0  0  0  0  0  0  0  0  0  0
    3.8210   -6.3900   26.0520 O   0  0  0  0  0  0  0  0  0  0  0  0
    5.5990   -2.3180   26.3910 F   0  0  0  0  0  0  0  0  0  0  0  0
    4.7050   -5.2470   26.0190 S   0  0  0  0  0  0  0  0  0  0  0  0
    6.3270    0.3790   17.8900 N   0  0  0  0  0  0  0  0  0  0  0  0
    5.2200    1.1390   17.8120 C   0  0  0  0  0  0  0  0  0  0  0  0
    4.4070    1.4790   18.9640 C   0  0  0  0  0  0  0  0  0  0  0  0
    4.8320    0.9780   20.2530 C   0  0  0  0  0  0  0  0  0  0  0  0
    5.9840    0.2080   20.3100 C   0  0  0  0  0  0  0  0  0  0  0  0
    6.6780   -0.0630   19.1220 C   0  0  0  0  0  0  0  0  0  0  0  0
    9.3200   -1.5820   21.7540 C   0  0  0  0  0  0  0  0  0  0  0  0
   10.6010   -1.6090   22.2370 C   0  0  0  0  0  0  0  0  0  0  0  0
   10.8750   -1.8250   23.5750 C   0  0  0  0  0  0  0  0  0  0  0  0
    9.7490   -2.0160   24.3820 C   0  0  0  0  0  0  0  0  0  0  0  0
    8.4360   -1.9910   23.8840 C   0  0  0  0  0  0  0  0  0  0  0  0
    8.1980   -1.7670   22.5310 C   0  0  0  0  0  0  0  0  0  0  0  0
    4.2880   -2.5090   26.1960 C   0  0  0  0  0  0  0  0  0  0  0  0
    3.7700   -3.7970   26.0140 C   0  0  0  0  0  0  0  0  0  0  0  0
    2.4010   -4.0130   25.8090 C   0  0  0  0  0  0  0  0  0  0  0  0
    1.4680   -2.9700   25.7740 C   0  0  0  0  0  0  0  0  0  0  0  0
    1.9170   -1.6580   25.9520 C   0  0  0  0  0  0  0  0  0  0  0  0
    3.4060   -1.4330   26.1700 C   0  0  0  0  0  0  0  0  0  0  0  0
    6.6460   -5.2390   22.1160 N   0  0  0  0  0  0  0  0  0  0  0  0
    5.3040   -5.8020   22.1780 C   0  0  0  0  0  0  0  0  0  0  0  0
    4.5320   -5.3410   23.3540 C   0  0  0  0  0  0  0  0  0  0  0  0
    5.4240   -5.2250   24.5050 N   0  0  0  0  0  0  0  0  0  0  0  0
    6.5360   -4.3060   24.2760 C   0  0  0  0  0  0  0  0  0  0  0  0
    7.3350   -4.6730   23.0860 C   0  0  2  0  0  0  0  0  0  0  0  0
  4  2  1  6
  1  7  1  0
  3  7  2  0
  4  7  1  0
  1  9  1  0
  5 10  1  0
  6 10  2  0
  9 10  1  6
  5 11  1  0
  8 12  1  0
 11 12  1  0
  8 13  1  0
 14 15  1  0
 14 16  1  0
 14 17  1  0
  2 18  2  0
 19 22  2  0
 20 22  2  0
 23 24  2  0
 24 25  1  0
 25 26  2  0
  9 27  1  0
 26 27  1  0
 23 28  1  0
 27 28  2  0
 29 30  2  0
 14 31  1  0
 30 31  1  0
 31 32  2  0
 32 33  1  0
  1 34  1  0
 29 34  1  0
 33 34  2  0
 21 35  1  0
 22 36  1  0
 35 36  2  0
 36 37  1  0
 37 38  2  0
 38 39  1  0
 35 40  1  0
 39 40  2  0
  4 41  1  0
 41 42  1  0
 42 43  1  0
 22 44  1  0
 43 44  1  0
 44 45  1  0
  4 46  1  0
 41 46  1  0
 46 45  1  1
M  END
