x3113-x0981
     RDKit          3D

 43 44  0  0  0  0  0  0  0  0999 V2000
    7.0170   -1.9070   21.9590 N   0  0  0  0  0  0  0  0  0  0  0  0
    6.9690   -5.2660   20.6400 C   0  0  0  0  0  0  0  0  0  0  0  0
    4.8620   -3.0570   21.2120 O   0  0  0  0  0  0  0  0  0  0  0  0
    6.5900   -4.4660   21.8620 C   0  0  1  0  0  0  0  0  0  0  0  0
    7.9920    1.3360   23.0250 N   0  0  0  0  0  0  0  0  0  0  0  0
    9.0710    0.2660   21.3220 O   0  0  0  0  0  0  0  0  0  0  0  0
    6.0850   -3.0630   21.6530 C   0  0  0  0  0  0  0  0  0  0  0  0
   11.4650    3.8370   23.3360 O   0  0  0  0  0  0  0  0  0  0  0  0
    6.7880   -0.4220   21.6700 C   0  0  1  0  0  0  0  0  0  0  0  0
    8.0510    0.3950   21.9770 C   0  0  0  0  0  0  0  0  0  0  0  0
    8.9990    2.2460   22.9760 C   0  0  0  0  0  0  0  0  0  0  0  0
   10.2590    1.8170   23.7460 C   0  0  0  0  0  0  0  0  0  0  0  0
   11.4440    2.4080   23.2550 C   0  0  0  0  0  0  0  0  0  0  0  0
   12.6940    4.3940   22.8520 C   0  0  0  0  0  0  0  0  0  0  0  0
   12.4860   -2.0750   24.2420 C   0  0  0  0  0  0  0  0  0  0  0  0
   13.3420   -2.1830   23.2100 C   0  0  0  0  0  0  0  0  0  0  0  0
   12.9040   -3.0880   25.3300 C   0  0  0  0  0  0  0  0  0  0  0  0
   12.7040   -0.6880   24.8650 C   0  0  0  0  0  0  0  0  0  0  0  0
    1.3630   -8.4650   21.7110 C   0  0  0  0  0  0  0  0  0  0  0  0
    2.9500   -6.9950   22.7450 N   0  0  0  0  0  0  0  0  0  0  0  0
    0.7580   -6.3160   22.4950 O   0  0  0  0  0  0  0  0  0  0  0  0
    1.6360   -7.1630   22.3550 C   0  0  0  0  0  0  0  0  0  0  0  0
    2.5130   -8.2260   26.1400 N   0  0  0  0  0  0  0  0  0  0  0  0
    4.0470   -8.1430   24.5510 O   0  0  0  0  0  0  0  0  0  0  0  0
    3.2010   -5.8870   23.5010 C   0  0  1  0  0  0  0  0  0  0  0  0
    5.4260   -5.3570   22.2890 N   0  0  0  0  0  0  0  0  0  0  0  0
    5.0460   -4.5420   24.3520 O   0  0  0  0  0  0  0  0  0  0  0  0
    2.9150   -6.2140   24.8480 C   0  0  0  0  0  0  0  0  0  0  0  0
    3.1860   -7.5610   25.1610 C   0  0  0  0  0  0  0  0  0  0  0  0
    4.6400   -5.2110   23.4120 C   0  0  0  0  0  0  0  0  0  0  0  0
    5.9700   -5.9350   20.0760 C   0  0  0  0  0  0  0  0  0  0  0  0
    6.4010    0.2630   17.9310 N   0  0  0  0  0  0  0  0  0  0  0  0
    5.2930    1.0300   17.9300 C   0  0  0  0  0  0  0  0  0  0  0  0
    4.6190    1.3470   19.0970 C   0  0  0  0  0  0  0  0  0  0  0  0
    5.0990    0.8690   20.3130 C   0  0  0  0  0  0  0  0  0  0  0  0
    6.2500    0.0760   20.3390 C   0  0  0  0  0  0  0  0  0  0  0  0
    6.8600   -0.2000   19.1150 C   0  0  0  0  0  0  0  0  0  0  0  0
    9.4840   -2.1410   21.8140 C   0  0  0  0  0  0  0  0  0  0  0  0
   10.7800   -2.1760   22.3460 C   0  0  0  0  0  0  0  0  0  0  0  0
   11.0420   -2.0700   23.7210 C   0  0  0  0  0  0  0  0  0  0  0  0
    9.8560   -1.9300   24.6550 C   0  0  0  0  0  0  0  0  0  0  0  0
    8.4690   -1.8970   23.9990 C   0  0  0  0  0  0  0  0  0  0  0  0
    8.3430   -1.9940   22.6130 C   0  0  0  0  0  0  0  0  0  0  0  0
  4  2  1  6
  1  7  1  0
  3  7  2  0
  4  7  1  0
  1  9  1  0
  5 10  1  0
  6 10  2  0
  9 10  1  6
  5 11  1  0
 11 12  1  0
  8 13  1  0
 12 13  1  0
  8 14  1  0
 15 16  1  0
 15 17  1  0
 15 18  1  0
 19 22  1  0
 20 22  1  0
 21 22  2  0
 20 25  1  0
  4 26  1  0
 25 28  1  1
 23 29  1  0
 24 29  2  0
 28 29  1  0
 25 30  1  0
 26 30  1  0
 27 30  2  0
  2 31  2  3
 32 33  2  0
 33 34  1  0
 34 35  2  0
  9 36  1  0
 35 36  1  0
 32 37  1  0
 36 37  2  0
 38 39  2  0
 15 40  1  0
 39 40  1  0
 40 41  2  0
 41 42  1  0
  1 43  1  0
 38 43  1  0
 42 43  2  0
M  END
