x3110-x1384-x1311-x0771-x2705
     RDKit          3D

 63 70  0  0  0  0  0  0  0  0999 V2000
    7.8170    1.9140   23.0800 C   0  0  1  0  0  0  0  0  0  0  0  0
   13.2610    5.1820   23.1730 C   0  0  0  0  0  0  0  0  0  0  0  0
   12.5390    2.9150   23.1980 O   0  0  0  0  0  0  0  0  0  0  0  0
   12.9660    3.9800   22.3350 C   0  0  0  0  0  0  0  0  0  0  0  0
    6.9520   -1.6490   21.8720 N   0  0  0  0  0  0  0  0  0  0  0  0
   10.8140    4.2930   23.2870 N   0  0  0  0  0  0  0  0  0  0  0  0
   11.2300    3.0620   23.3520 C   0  0  0  0  0  0  0  0  0  0  0  0
    8.9860    0.7110   21.4630 O   0  0  0  0  0  0  0  0  0  0  0  0
   10.1910    1.9280   23.6460 C   0  0  0  0  0  0  0  0  0  0  0  0
    4.7780   -2.9750   21.2880 O   0  0  0  0  0  0  0  0  0  0  0  0
    7.9050    0.7820   22.0370 C   0  0  0  0  0  0  0  0  0  0  0  0
    6.6710   -0.1470   21.6860 C   0  0  1  0  0  0  0  0  0  0  0  0
    6.0860   -2.7770   21.3650 C   0  0  0  0  0  0  0  0  0  0  0  0
    6.7870   -4.0710   20.8070 C   0  0  2  0  0  0  0  0  0  0  0  0
    8.2910   -3.7980   20.4450 C   0  0  0  0  0  0  0  0  0  0  0  0
   12.2880   -1.9120   24.2930 C   0  0  0  0  0  0  0  0  0  0  0  0
   12.4550   -0.6380   25.1190 C   0  0  0  0  0  0  0  0  0  0  0  0
   13.3430   -1.8750   23.2270 C   0  0  0  0  0  0  0  0  0  0  0  0
   12.6400   -3.0760   25.2300 C   0  0  0  0  0  0  0  0  0  0  0  0
    5.8560    4.4150   21.9710 C   0  0  0  0  0  0  0  0  0  0  0  0
    9.0770    0.9870   23.9190 C   0  0  0  0  0  0  0  0  0  0  0  0
   12.9490   -1.4440   21.8410 C   0  0  0  0  0  0  0  0  0  0  0  0
    5.8900   -4.4160   19.7350 O   0  0  0  0  0  0  0  0  0  0  0  0
    0.5510   -1.2480   26.2140 C   0  0  0  0  0  0  0  0  0  0  0  0
    4.3770   -6.9450   25.9920 O   0  0  0  0  0  0  0  0  0  0  0  0
    5.9040   -5.1750   26.9130 O   0  0  0  0  0  0  0  0  0  0  0  0
    1.7620   -6.1840   25.2600 C   0  0  0  0  0  0  0  0  0  0  0  0
    4.9280   -5.6120   25.9420 S   0  0  0  0  0  0  0  0  0  0  0  0
    5.1960   -2.5900   26.6350 O   0  0  0  0  0  0  0  0  0  0  0  0
    6.3550    0.3540   17.9220 N   0  0  0  0  0  0  0  0  0  0  0  0
    5.2930    1.1590   17.8920 C   0  0  0  0  0  0  0  0  0  0  0  0
    4.5880    1.6020   18.9900 C   0  0  0  0  0  0  0  0  0  0  0  0
    5.0390    1.1650   20.2360 C   0  0  0  0  0  0  0  0  0  0  0  0
    6.1820    0.3000   20.3200 C   0  0  0  0  0  0  0  0  0  0  0  0
    6.7700   -0.0530   19.1190 C   0  0  0  0  0  0  0  0  0  0  0  0
    9.4090   -1.4690   21.7430 C   0  0  0  0  0  0  0  0  0  0  0  0
   10.6870   -1.5380   22.3330 C   0  0  0  0  0  0  0  0  0  0  0  0
   10.8700   -1.8870   23.6650 C   0  0  0  0  0  0  0  0  0  0  0  0
    9.7370   -2.1840   24.4080 C   0  0  0  0  0  0  0  0  0  0  0  0
    8.4320   -2.1290   23.8490 C   0  0  0  0  0  0  0  0  0  0  0  0
    8.2570   -1.7590   22.4900 C   0  0  0  0  0  0  0  0  0  0  0  0
    8.9920    2.9420   23.4200 C   0  0  2  0  0  0  0  0  0  0  0  0
    9.4480    4.2630   23.1850 C   0  0  1  0  0  0  0  0  0  0  0  0
    8.8750    5.3450   23.8160 C   0  0  0  0  0  0  0  0  0  0  0  0
    7.6290    5.4910   23.2380 C   0  0  0  0  0  0  0  0  0  0  0  0
    7.3280    4.4610   22.3120 C   0  0  1  0  0  0  0  0  0  0  0  0
    7.9440    3.1830   22.4390 C   0  0  2  0  0  0  0  0  0  0  0  0
    1.5810   -2.3260   26.1200 C   0  0  0  0  0  0  0  0  0  0  0  0
    1.1580   -3.7090   25.7290 C   0  0  0  0  0  0  0  0  0  0  0  0
    2.2080   -4.8020   25.6530 C   0  0  0  0  0  0  0  0  0  0  0  0
    3.6110   -4.4200   25.9780 C   0  0  0  0  0  0  0  0  0  0  0  0
    3.9230   -3.0010   26.3420 C   0  0  0  0  0  0  0  0  0  0  0  0
    2.9190   -2.0310   26.4000 C   0  0  0  0  0  0  0  0  0  0  0  0
    6.6990   -5.1350   21.8290 N   0  0  0  0  0  0  0  0  0  0  0  0
    5.4280   -5.8860   21.9260 C   0  0  0  0  0  0  0  0  0  0  0  0
    5.0220   -6.3100   23.3420 C   0  0  0  0  0  0  0  0  0  0  0  0
    5.5670   -5.3840   24.3740 N   0  0  0  0  0  0  0  0  0  0  0  0
    6.9750   -5.2100   24.2660 C   0  0  0  0  0  0  0  0  0  0  0  0
    7.4990   -5.0840   22.9850 C   0  0  0  0  0  0  0  0  0  0  0  0
    8.8570   -4.9030   22.9470 C   0  0  0  0  0  0  0  0  0  0  0  0
    9.6800   -4.8670   24.0660 C   0  0  0  0  0  0  0  0  0  0  0  0
    9.1560   -5.0100   25.3110 C   0  0  0  0  0  0  0  0  0  0  0  0
    7.7940   -5.1750   25.4150 C   0  0  0  0  0  0  0  0  0  0  0  0
  2  4  1  0
  3  4  1  0
  3  7  1  0
  6  7  1  0
  7  9  2  0
  1 11  1  6
  8 11  2  0
  5 12  1  0
 12 11  1  6
  5 13  1  0
 10 13  2  0
 13 14  1  0
 14 15  1  6
 16 17  1  0
 16 18  1  0
 16 19  1  0
  9 21  1  0
 18 22  1  0
 14 23  1  0
 25 28  2  0
 26 28  2  0
 30 31  2  0
 31 32  1  0
 32 33  2  0
 12 34  1  0
 33 34  1  0
 30 35  1  0
 34 35  2  0
 36 37  2  0
 16 38  1  0
 37 38  1  0
 38 39  2  0
 39 40  1  0
  5 41  1  0
 36 41  1  0
 40 41  2  0
  1 42  1  0
 42  9  1  1
  6 43  1  0
 42 43  1  0
 43 44  1  1
 44 45  1  0
 46 20  1  1
 45 46  1  0
  1 47  1  0
 42 47  1  0
 47 46  1  1
 24 48  1  0
 48 49  2  0
 27 50  1  0
 49 50  1  0
 28 51  1  0
 50 51  2  0
 29 52  1  0
 51 52  1  0
 48 53  1  0
 52 53  2  0
 14 54  1  0
 54 55  1  0
 55 56  1  0
 28 57  1  0
 56 57  1  0
 57 58  1  0
 54 59  1  0
 58 59  2  0
 59 60  1  0
 60 61  2  0
 61 62  1  0
 58 63  1  0
 62 63  2  0
M  END
