x3113-x3117
     RDKit          3D

 35 39  0  0  0  0  0  0  0  0999 V2000
    6.8280   -1.6060   22.1350 N   0  0  0  0  0  0  0  0  0  0  0  0
    7.9210   -3.8590   20.3160 C   0  0  0  0  0  0  0  0  0  0  0  0
    4.7720   -3.1310   21.5770 O   0  0  0  0  0  0  0  0  0  0  0  0
    6.6070   -3.1950   20.2270 C   0  0  0  0  0  0  0  0  0  0  0  0
    8.0860    1.7610   22.8770 N   0  0  0  0  0  0  0  0  0  0  0  0
    8.9580    0.2720   21.3710 O   0  0  0  0  0  0  0  0  0  0  0  0
    5.9910   -2.6270   21.3970 C   0  0  0  0  0  0  0  0  0  0  0  0
   11.6250    3.6860   22.3850 O   0  0  0  0  0  0  0  0  0  0  0  0
    6.6480   -0.1080   21.8650 C   0  0  1  0  0  0  0  0  0  0  0  0
    7.9860    0.6250   22.0160 C   0  0  0  0  0  0  0  0  0  0  0  0
   10.4930    1.5380   22.8870 C   0  0  0  0  0  0  0  0  0  0  0  0
   11.2400    2.7500   23.3880 C   0  0  2  0  0  0  0  0  0  0  0  0
   12.8570    4.3660   22.6550 C   0  0  0  0  0  0  0  0  0  0  0  0
   12.4070   -1.8610   24.0930 C   0  0  0  0  0  0  0  0  0  0  0  0
   13.3150   -2.0410   23.0660 C   0  0  0  0  0  0  0  0  0  0  0  0
   12.7300   -3.0190   25.0310 C   0  0  0  0  0  0  0  0  0  0  0  0
   12.5720   -0.7340   24.7980 C   0  0  0  0  0  0  0  0  0  0  0  0
    6.5330    0.2340   18.0540 N   0  0  0  0  0  0  0  0  0  0  0  0
    5.3690    0.9990   17.9270 C   0  0  0  0  0  0  0  0  0  0  0  0
    4.5350    1.4420   19.0490 C   0  0  0  0  0  0  0  0  0  0  0  0
    5.0040    1.0330   20.3860 C   0  0  0  0  0  0  0  0  0  0  0  0
    6.1610    0.2840   20.4720 C   0  0  0  0  0  0  0  0  0  0  0  0
    6.8450   -0.0670   19.3070 C   0  0  0  0  0  0  0  0  0  0  0  0
    9.2890   -1.9890   21.8090 C   0  0  0  0  0  0  0  0  0  0  0  0
   10.5750   -2.0420   22.2650 C   0  0  0  0  0  0  0  0  0  0  0  0
   10.9410   -1.8430   23.5760 C   0  0  0  0  0  0  0  0  0  0  0  0
    9.8660   -1.5990   24.4220 C   0  0  0  0  0  0  0  0  0  0  0  0
    8.5000   -1.5340   24.0080 C   0  0  0  0  0  0  0  0  0  0  0  0
    8.2100   -1.7260   22.6360 C   0  0  0  0  0  0  0  0  0  0  0  0
    9.5250    4.4310   24.4260 O   0  0  0  0  0  0  0  0  0  0  0  0
    9.9170    3.0230   24.1950 C   0  0  1  0  0  0  0  0  0  0  0  0
    9.3290    2.3820   23.1070 C   0  0  2  0  0  0  0  0  0  0  0  0
    8.3420    3.0170   22.3180 C   0  0  2  0  0  0  0  0  0  0  0  0
    7.9290    4.2980   22.7240 C   0  0  0  0  0  0  0  0  0  0  0  0
    8.9140    5.1220   23.3180 C   0  0  0  0  0  0  0  0  0  0  0  0
  2  4  1  0
  1  7  1  0
  3  7  2  0
  4  7  1  0
  1  9  1  0
  5 10  1  0
  6 10  2  0
  9 10  1  6
 12  8  1  6
 11 12  1  0
  8 13  1  0
 14 15  1  0
 14 16  1  0
 14 17  1  0
 18 19  2  0
 19 20  1  0
 20 21  2  0
  9 22  1  0
 21 22  1  0
 18 23  1  0
 22 23  2  0
 24 25  2  0
 14 26  1  0
 25 26  1  0
 26 27  2  0
 27 28  1  0
  1 29  1  0
 24 29  1  0
 28 29  2  0
 12 31  1  0
 31 30  1  6
 32  5  1  0
 32 11  1  6
 31 32  1  0
  5 33  1  0
 32 33  1  0
 33 34  1  1
 30 35  1  0
 34 35  1  0
M  END
