x3117-x3110
     RDKit          3D

 36 40  0  0  0  0  0  0  0  0999 V2000
    7.7860    1.8410   22.8470 N   0  0  0  0  0  0  0  0  0  0  0  0
   13.4040    5.1000   22.6360 C   0  0  0  0  0  0  0  0  0  0  0  0
   12.1560    3.1800   22.7660 O   0  0  0  0  0  0  0  0  0  0  0  0
   12.2680    4.3040   22.2700 C   0  0  0  0  0  0  0  0  0  0  0  0
    6.9420   -1.6840   21.8600 N   0  0  0  0  0  0  0  0  0  0  0  0
   11.1720    2.9820   23.4770 C   0  0  2  0  0  0  0  0  0  0  0  0
    8.8920    0.6660   21.2710 O   0  0  0  0  0  0  0  0  0  0  0  0
   10.4200    1.7470   23.2560 C   0  0  0  0  0  0  0  0  0  0  0  0
    4.8750   -3.0500   21.1580 O   0  0  0  0  0  0  0  0  0  0  0  0
    7.8680    0.7760   21.9240 C   0  0  0  0  0  0  0  0  0  0  0  0
    6.6620   -0.2210   21.6860 C   0  0  1  0  0  0  0  0  0  0  0  0
    6.1410   -2.9090   21.4740 C   0  0  0  0  0  0  0  0  0  0  0  0
    6.8550   -4.2710   21.4780 C   0  0  0  0  0  0  0  0  0  0  0  0
    8.2670   -4.3490   20.9550 C   0  0  0  0  0  0  0  0  0  0  0  0
   12.3230   -1.7800   24.0950 C   0  0  0  0  0  0  0  0  0  0  0  0
   12.5170   -0.6960   24.8810 C   0  0  0  0  0  0  0  0  0  0  0  0
   13.3400   -1.7280   22.9630 C   0  0  0  0  0  0  0  0  0  0  0  0
   12.7260   -2.9660   24.9740 C   0  0  0  0  0  0  0  0  0  0  0  0
    6.3320    0.3010   17.8810 N   0  0  0  0  0  0  0  0  0  0  0  0
    5.2370    1.0820   17.8600 C   0  0  0  0  0  0  0  0  0  0  0  0
    4.5270    1.4740   19.0600 C   0  0  0  0  0  0  0  0  0  0  0  0
    5.0150    1.0200   20.2740 C   0  0  0  0  0  0  0  0  0  0  0  0
    6.1530    0.2150   20.3190 C   0  0  0  0  0  0  0  0  0  0  0  0
    6.7700   -0.1190   19.0970 C   0  0  0  0  0  0  0  0  0  0  0  0
    9.4030   -1.5360   21.6300 C   0  0  0  0  0  0  0  0  0  0  0  0
   10.7070   -1.5500   22.1040 C   0  0  0  0  0  0  0  0  0  0  0  0
   10.9070   -1.7730   23.4460 C   0  0  0  0  0  0  0  0  0  0  0  0
    9.8200   -1.9890   24.2770 C   0  0  0  0  0  0  0  0  0  0  0  0
    8.5050   -1.9810   23.7780 C   0  0  0  0  0  0  0  0  0  0  0  0
    8.3090   -1.7430   22.4160 C   0  0  0  0  0  0  0  0  0  0  0  0
    9.4870    4.7950   24.0740 O   0  0  0  0  0  0  0  0  0  0  0  0
    9.9020    3.7600   23.1760 C   0  0  2  0  0  0  0  0  0  0  0  0
    9.1910    2.5570   23.3480 C   0  0  2  0  0  0  0  0  0  0  0  0
    8.2700    2.9590   22.5020 C   0  0  2  0  0  0  0  0  0  0  0  0
    7.5550    4.1590   22.7770 C   0  0  0  0  0  0  0  0  0  0  0  0
    8.3100    5.3190   23.4770 C   0  0  0  0  0  0  0  0  0  0  0  0
  2  4  1  0
  3  4  1  0
  6  3  1  6
  6  8  1  0
  1 10  1  0
  7 10  2  0
  5 11  1  0
 11 10  1  6
  5 12  1  0
  9 12  2  0
 12 13  1  0
 13 14  1  0
 15 16  1  0
 15 17  1  0
 15 18  1  0
 19 20  2  0
 20 21  1  0
 21 22  2  0
 11 23  1  0
 22 23  1  0
 19 24  1  0
 23 24  2  0
 25 26  2  0
 15 27  1  0
 26 27  1  0
 27 28  2  0
 28 29  1  0
  5 30  1  0
 25 30  1  0
 29 30  2  0
  6 32  1  0
 32 31  1  1
 33  1  1  0
 33  8  1  1
 32 33  1  0
  1 34  1  0
 33 34  1  0
 34 35  1  1
 31 36  1  0
 35 36  1  0
M  END
