x3110-x1375
     RDKit          3D

 48 51  0  0  0  0  0  0  0  0999 V2000
    7.9430    1.2140   23.2350 N   0  0  0  0  0  0  0  0  0  0  0  0
   13.3340    5.1300   22.8650 C   0  0  0  0  0  0  0  0  0  0  0  0
   12.0990    3.2850   22.4090 O   0  0  0  0  0  0  0  0  0  0  0  0
   12.6120    4.5400   21.9310 C   0  0  0  0  0  0  0  0  0  0  0  0
    6.9770   -1.6260   21.6070 N   0  0  0  0  0  0  0  0  0  0  0  0
   10.7880    4.4420   24.2180 O   0  0  0  0  0  0  0  0  0  0  0  0
   11.0610    3.3080   23.3830 C   0  0  0  0  0  0  0  0  0  0  0  0
    8.4370    1.3490   20.9300 O   0  0  0  0  0  0  0  0  0  0  0  0
   10.2170    2.0870   23.5210 C   0  0  0  0  0  0  0  0  0  0  0  0
    4.8390   -2.9650   21.0670 O   0  0  0  0  0  0  0  0  0  0  0  0
    8.7600    2.3730   23.6580 C   0  0  0  0  0  0  0  0  0  0  0  0
    7.7600    0.8340   21.8360 C   0  0  0  0  0  0  0  0  0  0  0  0
    6.6370   -0.2260   21.5750 C   0  0  1  0  0  0  0  0  0  0  0  0
    6.1370   -2.8940   21.2730 C   0  0  0  0  0  0  0  0  0  0  0  0
    6.6980   -4.2290   21.1940 C   0  0  2  0  0  0  0  0  0  0  0  0
    8.1410   -4.3520   20.7730 C   0  0  0  0  0  0  0  0  0  0  0  0
   12.3060   -1.7300   24.2780 C   0  0  0  0  0  0  0  0  0  0  0  0
   12.4310   -0.5800   25.0370 C   0  0  0  0  0  0  0  0  0  0  0  0
   13.3780   -1.6780   23.1930 C   0  0  0  0  0  0  0  0  0  0  0  0
   12.6650   -2.9620   25.1150 C   0  0  0  0  0  0  0  0  0  0  0  0
    5.8500   -4.9620   20.2870 O   0  0  0  0  0  0  0  0  0  0  0  0
    6.4500   -4.6960   22.4530 N   0  0  0  0  0  0  0  0  0  0  0  0
    2.4300   -6.7450   23.9560 O   0  0  0  0  0  0  0  0  0  0  0  0
    4.4040   -7.8250   25.0000 O   0  0  0  0  0  0  0  0  0  0  0  0
   10.7620   -4.5800   26.0950 F   0  0  0  0  0  0  0  0  0  0  0  0
    6.3830    0.4050   17.7730 N   0  0  0  0  0  0  0  0  0  0  0  0
    5.3110    1.2040   17.7830 C   0  0  0  0  0  0  0  0  0  0  0  0
    4.5690    1.5910   19.0100 C   0  0  0  0  0  0  0  0  0  0  0  0
    5.0320    1.0950   20.2080 C   0  0  0  0  0  0  0  0  0  0  0  0
    6.1660    0.2550   20.2220 C   0  0  0  0  0  0  0  0  0  0  0  0
    6.8430   -0.1060   19.0720 C   0  0  0  0  0  0  0  0  0  0  0  0
    9.5830   -2.2310   21.7200 C   0  0  0  0  0  0  0  0  0  0  0  0
   10.7970   -2.2410   22.3510 C   0  0  0  0  0  0  0  0  0  0  0  0
   10.9180   -1.7260   23.6340 C   0  0  0  0  0  0  0  0  0  0  0  0
    9.7450   -1.2210   24.2320 C   0  0  0  0  0  0  0  0  0  0  0  0
    8.4880   -1.2050   23.5830 C   0  0  0  0  0  0  0  0  0  0  0  0
    8.2940   -1.6930   22.2850 C   0  0  0  0  0  0  0  0  0  0  0  0
    7.8690   -3.5230   23.9740 C   0  0  0  0  0  0  0  0  0  0  0  0
    8.9210   -3.4420   24.8680 C   0  0  0  0  0  0  0  0  0  0  0  0
    9.7440   -4.6370   25.2360 C   0  0  0  0  0  0  0  0  0  0  0  0
    9.3650   -5.9320   24.5810 C   0  0  0  0  0  0  0  0  0  0  0  0
    8.2160   -5.9910   23.5980 C   0  0  0  0  0  0  0  0  0  0  0  0
    7.4880   -4.6980   23.3350 C   0  0  0  0  0  0  0  0  0  0  0  0
    4.8670   -4.5270   24.2900 C   0  0  0  0  0  0  0  0  0  0  0  0
    5.0910   -5.0700   22.8900 C   0  0  2  0  0  0  0  0  0  0  0  0
    4.8010   -6.4280   22.8540 C   0  0  0  0  0  0  0  0  0  0  0  0
    3.8270   -6.7030   24.3180 S   0  0  0  0  0  0  0  0  0  0  0  0
    4.2010   -5.3050   25.1440 C   0  0  0  0  0  0  0  0  0  0  0  0
  2  4  1  0
  3  4  1  0
  3  7  1  0
  6  7  2  0
  7  9  1  0
  1 11  1  0
  9 11  1  0
  1 12  1  0
  8 12  2  0
  5 13  1  0
 13 12  1  6
  5 14  1  0
 10 14  2  0
 14 15  1  0
 15 16  1  6
 17 18  1  0
 17 19  1  0
 17 20  1  0
 15 21  1  0
 15 22  1  0
 26 27  2  0
 27 28  1  0
 28 29  2  0
 13 30  1  0
 29 30  1  0
 26 31  1  0
 30 31  2  0
 32 33  2  0
 17 34  1  0
 33 34  1  0
 34 35  2  0
 35 36  1  0
  5 37  1  0
 32 37  1  0
 36 37  2  0
 38 39  2  0
 25 40  1  0
 39 40  1  0
 40 41  2  0
 41 42  1  0
 22 43  1  0
 38 43  1  0
 42 43  2  0
 45 22  1  1
 44 45  1  0
 45 46  1  0
 47 23  1  0
 24 47  1  0
 46 47  1  0
 44 48  2  0
 47 48  1  0
M  END
