x3110-x0946
     RDKit          3D

 38 40  0  0  0  0  0  0  0  0999 V2000
    7.8680    1.0670   23.5200 N   0  0  0  0  0  0  0  0  0  0  0  0
   13.4800    5.3290   23.1790 C   0  0  0  0  0  0  0  0  0  0  0  0
   12.9920    4.3380   22.2010 C   0  0  0  0  0  0  0  0  0  0  0  0
    6.9990   -1.7430   21.7440 N   0  0  0  0  0  0  0  0  0  0  0  0
   10.2920    4.7980   23.2110 C   0  0  0  0  0  0  0  0  0  0  0  0
    8.5590    1.1190   21.3780 O   0  0  0  0  0  0  0  0  0  0  0  0
    4.8150   -2.9920   21.2050 O   0  0  0  0  0  0  0  0  0  0  0  0
    8.6870    2.1820   24.1200 C   0  0  0  0  0  0  0  0  0  0  0  0
    7.7380    0.6690   22.1860 C   0  0  0  0  0  0  0  0  0  0  0  0
    6.6110   -0.2840   21.6250 C   0  0  1  0  0  0  0  0  0  0  0  0
    6.1020   -2.9180   21.3860 C   0  0  0  0  0  0  0  0  0  0  0  0
    6.7170   -4.2870   21.2100 C   0  0  0  0  0  0  0  0  0  0  0  0
    8.1720   -4.3180   20.9130 C   0  0  0  0  0  0  0  0  0  0  0  0
   12.2030   -1.9110   24.3070 C   0  0  0  0  0  0  0  0  0  0  0  0
   12.3950   -0.8010   25.0540 C   0  0  0  0  0  0  0  0  0  0  0  0
   13.3550   -1.9320   23.2990 C   0  0  0  0  0  0  0  0  0  0  0  0
   12.2320   -3.0720   24.9500 C   0  0  0  0  0  0  0  0  0  0  0  0
   10.0840    5.3540   24.4680 N   0  0  0  0  0  0  0  0  0  0  0  0
    9.0170    4.8920   22.7270 O   0  0  0  0  0  0  0  0  0  0  0  0
   11.0740    5.7380   22.4770 O   0  0  0  0  0  0  0  0  0  0  0  0
    6.3900    0.3540   17.8590 N   0  0  0  0  0  0  0  0  0  0  0  0
    5.3120    1.1590   17.8470 C   0  0  0  0  0  0  0  0  0  0  0  0
    4.5590    1.5500   19.0330 C   0  0  0  0  0  0  0  0  0  0  0  0
    5.0340    1.0370   20.2160 C   0  0  0  0  0  0  0  0  0  0  0  0
    6.1580    0.2040   20.2550 C   0  0  0  0  0  0  0  0  0  0  0  0
    6.8010   -0.1140   19.0560 C   0  0  0  0  0  0  0  0  0  0  0  0
    9.4110   -1.4820   21.7240 C   0  0  0  0  0  0  0  0  0  0  0  0
   10.6980   -1.5010   22.2760 C   0  0  0  0  0  0  0  0  0  0  0  0
   10.8290   -1.8680   23.6080 C   0  0  0  0  0  0  0  0  0  0  0  0
    9.6960   -2.2090   24.3420 C   0  0  0  0  0  0  0  0  0  0  0  0
    8.4340   -2.1790   23.7410 C   0  0  0  0  0  0  0  0  0  0  0  0
    8.3000   -1.8060   22.4040 C   0  0  0  0  0  0  0  0  0  0  0  0
   12.2180    0.8010   23.1960 C   0  0  0  0  0  0  0  0  0  0  0  0
   12.8440    1.9470   22.7650 C   0  0  0  0  0  0  0  0  0  0  0  0
   12.2140    3.1840   22.7470 C   0  0  0  0  0  0  0  0  0  0  0  0
   10.9110    3.3830   23.1960 C   0  0  0  0  0  0  0  0  0  0  0  0
   10.1250    2.1650   23.6640 C   0  0  0  0  0  0  0  0  0  0  0  0
   10.9180    0.8680   23.6250 C   0  0  0  0  0  0  0  0  0  0  0  0
  2  3  1  0
  1  8  1  0
  1  9  1  0
  6  9  2  0
  4 10  1  0
 10  9  1  6
  4 11  1  0
  7 11  2  0
 11 12  1  0
 12 13  1  0
 14 15  1  0
 14 16  1  0
 14 17  1  0
  5 18  1  0
  5 19  1  0
  5 20  1  0
 21 22  2  0
 22 23  1  0
 23 24  2  0
 10 25  1  0
 24 25  1  0
 21 26  1  0
 25 26  2  0
 27 28  2  0
 14 29  1  0
 28 29  1  0
 29 30  2  0
 30 31  1  0
  4 32  1  0
 27 32  1  0
 31 32  2  0
 33 34  2  0
  3 35  1  0
 34 35  1  0
  5 36  1  0
 35 36  2  0
  8 37  1  0
 36 37  1  0
 33 38  1  0
 37 38  2  0
M  END
