x3115-x3113
     RDKit          3D

 33 34  0  0  0  0  0  0  0  0999 V2000
    6.8860   -1.7810   21.9980 N   0  0  0  0  0  0  0  0  0  0  0  0
    8.0390   -3.5820   20.3530 C   0  0  0  0  0  0  0  0  0  0  0  0
    4.7290   -3.0430   21.5010 O   0  0  0  0  0  0  0  0  0  0  0  0
    6.6590   -4.0070   20.7120 C   0  0  0  0  0  0  0  0  0  0  0  0
    7.8760    1.3960   23.2190 N   0  0  0  0  0  0  0  0  0  0  0  0
    8.9500    0.6350   21.3650 O   0  0  0  0  0  0  0  0  0  0  0  0
    6.0100   -2.8770   21.4500 C   0  0  0  0  0  0  0  0  0  0  0  0
   11.7330    3.8210   22.3580 O   0  0  0  0  0  0  0  0  0  0  0  0
    6.6730   -0.2840   21.7210 C   0  0  1  0  0  0  0  0  0  0  0  0
    7.9450    0.5950   22.0670 C   0  0  0  0  0  0  0  0  0  0  0  0
    8.8130    2.5320   23.4120 C   0  0  1  0  0  0  0  0  0  0  0  0
   10.2380    2.0200   23.0990 C   0  0  0  0  0  0  0  0  0  0  0  0
   11.4120    2.9400   23.4230 C   0  0  0  0  0  0  0  0  0  0  0  0
   12.9640    4.5030   22.6040 C   0  0  0  0  0  0  0  0  0  0  0  0
   12.3770   -1.9020   24.1120 C   0  0  0  0  0  0  0  0  0  0  0  0
   13.3650   -1.9940   22.9510 C   0  0  0  0  0  0  0  0  0  0  0  0
   12.7380   -3.0360   25.0580 C   0  0  0  0  0  0  0  0  0  0  0  0
   12.6550   -0.6010   24.8580 C   0  0  0  0  0  0  0  0  0  0  0  0
    8.7110    4.9890   23.1360 O   0  0  0  0  0  0  0  0  0  0  0  0
    8.3340    3.7250   22.5390 C   0  0  0  0  0  0  0  0  0  0  0  0
    8.2840    6.0930   22.3330 C   0  0  0  0  0  0  0  0  0  0  0  0
    6.4390    0.2650   17.9660 N   0  0  0  0  0  0  0  0  0  0  0  0
    5.3190    1.0100   17.9020 C   0  0  0  0  0  0  0  0  0  0  0  0
    4.5750    1.3640   18.9930 C   0  0  0  0  0  0  0  0  0  0  0  0
    4.9950    0.9420   20.2420 C   0  0  0  0  0  0  0  0  0  0  0  0
    6.1560    0.1720   20.3720 C   0  0  0  0  0  0  0  0  0  0  0  0
    6.8340   -0.1390   19.1940 C   0  0  0  0  0  0  0  0  0  0  0  0
    9.3410   -2.0470   21.7400 C   0  0  0  0  0  0  0  0  0  0  0  0
   10.6610   -2.0810   22.2090 C   0  0  0  0  0  0  0  0  0  0  0  0
   10.9450   -1.9090   23.5570 C   0  0  0  0  0  0  0  0  0  0  0  0
    9.8430   -1.7160   24.3990 C   0  0  0  0  0  0  0  0  0  0  0  0
    8.5150   -1.6890   23.9270 C   0  0  0  0  0  0  0  0  0  0  0  0
    8.2420   -1.8490   22.5640 C   0  0  0  0  0  0  0  0  0  0  0  0
  2  4  1  0
  1  7  1  0
  3  7  2  0
  4  7  1  0
  1  9  1  0
  5 10  1  0
  6 10  2  0
  9 10  1  6
  5 11  1  0
 11 12  1  6
  8 13  1  0
 12 13  1  0
  8 14  1  0
 15 16  1  0
 15 17  1  0
 15 18  1  0
 11 20  1  0
 19 20  1  0
 19 21  1  0
 22 23  2  0
 23 24  1  0
 24 25  2  0
  9 26  1  0
 25 26  1  0
 22 27  1  0
 26 27  2  0
 28 29  2  0
 15 30  1  0
 29 30  1  0
 30 31  2  0
 31 32  1  0
  1 33  1  0
 28 33  1  0
 32 33  2  0
M  END
