x3115-x0689
     RDKit          3D

 44 48  0  0  0  0  0  0  0  0999 V2000
    6.9100   -1.6130   21.6510 N   0  0  0  0  0  0  0  0  0  0  0  0
    6.9450   -5.0000   20.7010 C   0  0  0  0  0  0  0  0  0  0  0  0
    4.8050   -2.9100   20.9520 O   0  0  0  0  0  0  0  0  0  0  0  0
    6.6160   -3.9800   21.7320 C   0  0  2  0  0  0  0  0  0  0  0  0
    7.1770    1.7450   22.7820 N   0  0  0  0  0  0  0  0  0  0  0  0
    8.7230    0.6950   21.4260 O   0  0  0  0  0  0  0  0  0  0  0  0
    6.0120   -2.7430   21.3960 C   0  0  0  0  0  0  0  0  0  0  0  0
    8.4610    5.1510   22.9580 O   0  0  0  0  0  0  0  0  0  0  0  0
    6.4850   -0.1940   21.5190 C   0  0  1  0  0  0  0  0  0  0  0  0
    7.5880    0.7570   21.8930 C   0  0  0  0  0  0  0  0  0  0  0  0
    8.0140    2.7890   23.1180 C   0  0  0  0  0  0  0  0  0  0  0  0
    7.7490    4.0710   22.3400 C   0  0  0  0  0  0  0  0  0  0  0  0
    8.3280    6.3730   22.2320 C   0  0  0  0  0  0  0  0  0  0  0  0
   12.1660   -1.9140   24.2480 C   0  0  0  0  0  0  0  0  0  0  0  0
   13.1980   -2.2200   23.3600 C   0  0  0  0  0  0  0  0  0  0  0  0
   12.0350   -3.1060   25.2000 C   0  0  0  0  0  0  0  0  0  0  0  0
   12.3320   -0.7880   24.9630 C   0  0  0  0  0  0  0  0  0  0  0  0
    5.7730   -5.4770   20.0470 O   0  0  0  0  0  0  0  0  0  0  0  0
    4.1210   -6.4600   26.3150 O   0  0  0  0  0  0  0  0  0  0  0  0
    5.8790   -4.6060   26.7530 O   0  0  0  0  0  0  0  0  0  0  0  0
    4.8870   -5.2260   25.9090 S   0  0  0  0  0  0  0  0  0  0  0  0
    6.2850    0.5080   17.8070 N   0  0  0  0  0  0  0  0  0  0  0  0
    5.1930    1.2940   17.7540 C   0  0  0  0  0  0  0  0  0  0  0  0
    4.4050    1.6460   18.9190 C   0  0  0  0  0  0  0  0  0  0  0  0
    4.8330    1.1290   20.1960 C   0  0  0  0  0  0  0  0  0  0  0  0
    5.9680    0.3350   20.2220 C   0  0  0  0  0  0  0  0  0  0  0  0
    6.6390    0.0550   19.0270 C   0  0  0  0  0  0  0  0  0  0  0  0
    9.3640   -1.4150   21.6770 C   0  0  0  0  0  0  0  0  0  0  0  0
   10.6130   -1.4690   22.2300 C   0  0  0  0  0  0  0  0  0  0  0  0
   10.8230   -1.8330   23.5430 C   0  0  0  0  0  0  0  0  0  0  0  0
    9.6580   -2.1470   24.2540 C   0  0  0  0  0  0  0  0  0  0  0  0
    8.3670   -2.0950   23.6800 C   0  0  0  0  0  0  0  0  0  0  0  0
    8.1970   -1.7160   22.3450 C   0  0  0  0  0  0  0  0  0  0  0  0
    5.7090   -4.6150   22.5440 N   0  0  0  0  0  0  0  0  0  0  0  0
    5.1490   -5.8940   22.1950 C   0  0  0  0  0  0  0  0  0  0  0  0
    4.7790   -6.3590   23.4250 C   0  0  0  0  0  0  0  0  0  0  0  0
    5.5920   -5.5830   24.4180 N   0  0  0  0  0  0  0  0  0  0  0  0
    7.0420   -5.2500   24.0890 C   0  0  0  0  0  0  0  0  0  0  0  0
    7.0690   -5.0820   22.6890 C   0  0  2  0  0  0  0  0  0  0  0  0
    4.0040   -2.3460   26.0610 S   0  0  0  0  0  0  0  0  0  0  0  0
    3.5870   -4.0040   25.7450 C   0  0  0  0  0  0  0  0  0  0  0  0
    2.1130   -4.0830   25.3820 C   0  0  0  0  0  0  0  0  0  0  0  0
    1.4030   -2.7550   25.3930 C   0  0  0  0  0  0  0  0  0  0  0  0
    2.4170   -1.7330   25.7680 C   0  0  0  0  0  0  0  0  0  0  0  0
  4  2  1  6
  1  7  1  0
  3  7  2  0
  4  7  1  0
  1  9  1  0
  5 10  1  0
  6 10  2  0
  9 10  1  6
  5 11  1  0
  8 12  1  0
 11 12  1  0
  8 13  1  0
 14 15  1  0
 14 16  1  0
 14 17  1  0
  2 18  2  0
 19 21  2  0
 20 21  2  0
 22 23  2  0
 23 24  1  0
 24 25  2  0
  9 26  1  0
 25 26  1  0
 22 27  1  0
 26 27  2  0
 28 29  2  0
 14 30  1  0
 29 30  1  0
 30 31  2  0
 31 32  1  0
  1 33  1  0
 28 33  1  0
 32 33  2  0
  4 34  1  0
 34 35  1  0
 35 36  1  0
 21 37  1  0
 36 37  1  0
 37 38  1  0
  4 39  1  0
 34 39  1  0
 39 38  1  1
 21 41  1  0
 40 41  1  0
 41 42  2  0
 42 43  1  0
 40 44  1  0
 43 44  2  0
M  END
