x3110-x1077-x1311-x0771-x2705
     RDKit          3D

 62 69  0  0  0  0  0  0  0  0999 V2000
    6.6100    1.5050   22.8600 C   0  0  1  0  0  0  0  0  0  0  0  0
   13.2410    4.4520   21.8600 C   0  0  0  0  0  0  0  0  0  0  0  0
   11.3370    2.9110   22.0180 O   0  0  0  0  0  0  0  0  0  0  0  0
   11.7910    4.1640   21.4800 C   0  0  0  0  0  0  0  0  0  0  0  0
    6.8160   -2.1190   21.6270 N   0  0  0  0  0  0  0  0  0  0  0  0
    9.3640    3.9210   22.7840 N   0  0  0  0  0  0  0  0  0  0  0  0
    9.9890    2.8620   22.2530 C   0  0  0  0  0  0  0  0  0  0  0  0
    6.9230   -0.4730   24.0630 O   0  0  0  0  0  0  0  0  0  0  0  0
    9.1170    1.6020   21.9170 C   0  0  0  0  0  0  0  0  0  0  0  0
    4.7760   -3.1450   21.4870 O   0  0  0  0  0  0  0  0  0  0  0  0
    6.5560    0.0030   22.9960 C   0  0  0  0  0  0  0  0  0  0  0  0
    6.0190   -0.8760   21.8430 C   0  0  1  0  0  0  0  0  0  0  0  0
    6.0080   -3.2690   21.4870 C   0  0  0  0  0  0  0  0  0  0  0  0
    6.6020   -4.7380   21.3150 C   0  0  2  0  0  0  0  0  0  0  0  0
    8.1310   -4.6750   20.9630 C   0  0  0  0  0  0  0  0  0  0  0  0
   12.0250   -2.1610   24.3010 C   0  0  0  0  0  0  0  0  0  0  0  0
   12.1620   -0.9040   25.1220 C   0  0  0  0  0  0  0  0  0  0  0  0
   13.2280   -2.2270   23.3580 C   0  0  0  0  0  0  0  0  0  0  0  0
   12.0700   -3.3740   25.2580 C   0  0  0  0  0  0  0  0  0  0  0  0
    5.2540    3.7110   20.2230 C   0  0  0  0  0  0  0  0  0  0  0  0
    8.1780    0.5000   21.6580 C   0  0  0  0  0  0  0  0  0  0  0  0
   13.1510   -1.4590   22.0320 C   0  0  0  0  0  0  0  0  0  0  0  0
    5.9270   -5.4070   20.2250 O   0  0  0  0  0  0  0  0  0  0  0  0
    0.5850   -0.8580   25.6280 C   0  0  0  0  0  0  0  0  0  0  0  0
    3.3800   -7.1860   25.6490 O   0  0  0  0  0  0  0  0  0  0  0  0
    4.8710   -5.8370   27.2060 O   0  0  0  0  0  0  0  0  0  0  0  0
    1.3760   -5.7160   23.8790 C   0  0  0  0  0  0  0  0  0  0  0  0
    4.1680   -5.9760   25.7740 S   0  0  0  0  0  0  0  0  0  0  0  0
    6.2990    0.3400   18.1730 N   0  0  0  0  0  0  0  0  0  0  0  0
    5.1990    1.0920   18.0870 C   0  0  0  0  0  0  0  0  0  0  0  0
    4.3010    1.2640   19.1500 C   0  0  0  0  0  0  0  0  0  0  0  0
    4.4710    0.6810   20.4050 C   0  0  0  0  0  0  0  0  0  0  0  0
    5.6600   -0.1440   20.5390 C   0  0  0  0  0  0  0  0  0  0  0  0
    6.4990   -0.2440   19.3720 C   0  0  0  0  0  0  0  0  0  0  0  0
    9.2830   -2.0290   21.5840 C   0  0  0  0  0  0  0  0  0  0  0  0
   10.5230   -2.0400   22.2220 C   0  0  0  0  0  0  0  0  0  0  0  0
   10.6260   -2.1660   23.6070 C   0  0  0  0  0  0  0  0  0  0  0  0
    9.4440   -2.3020   24.3620 C   0  0  0  0  0  0  0  0  0  0  0  0
    8.1730   -2.2960   23.7290 C   0  0  0  0  0  0  0  0  0  0  0  0
    8.0830   -2.1570   22.3240 C   0  0  0  0  0  0  0  0  0  0  0  0
    7.8370    2.3200   22.4700 C   0  0  2  0  0  0  0  0  0  0  0  0
    8.1110    3.4510   23.2870 C   0  0  2  0  0  0  0  0  0  0  0  0
    7.2170    4.5410   23.2100 C   0  0  0  0  0  0  0  0  0  0  0  0
    6.4360    4.6690   22.0560 C   0  0  0  0  0  0  0  0  0  0  0  0
    5.8700    3.5020   21.5990 C   0  0  2  0  0  0  0  0  0  0  0  0
    6.6750    2.3620   21.6310 C   0  0  2  0  0  0  0  0  0  0  0  0
    1.4150   -2.1080   25.6190 C   0  0  0  0  0  0  0  0  0  0  0  0
    1.0000   -3.2960   24.7660 C   0  0  0  0  0  0  0  0  0  0  0  0
    1.8290   -4.5790   24.7480 C   0  0  0  0  0  0  0  0  0  0  0  0
    3.0530   -4.5670   25.6140 C   0  0  0  0  0  0  0  0  0  0  0  0
    3.3840   -3.3460   26.4180 C   0  0  0  0  0  0  0  0  0  0  0  0
    2.5770   -2.1940   26.3950 C   0  0  0  0  0  0  0  0  0  0  0  0
    6.2490   -5.5200   22.5640 N   0  0  0  0  0  0  0  0  0  0  0  0
    5.6410   -6.8110   22.3130 C   0  0  0  0  0  0  0  0  0  0  0  0
    5.0230   -7.1300   23.6170 C   0  0  0  0  0  0  0  0  0  0  0  0
    5.3340   -5.9560   24.4930 N   0  0  0  0  0  0  0  0  0  0  0  0
    6.6860   -5.9310   25.1250 C   0  0  0  0  0  0  0  0  0  0  0  0
    7.1390   -5.6230   23.6890 C   0  0  0  0  0  0  0  0  0  0  0  0
    8.4700   -5.4150   23.2650 C   0  0  0  0  0  0  0  0  0  0  0  0
    9.5530   -5.4400   24.0480 C   0  0  0  0  0  0  0  0  0  0  0  0
    9.3080   -5.6970   25.3170 C   0  0  0  0  0  0  0  0  0  0  0  0
    8.0080   -5.9070   25.7420 C   0  0  0  0  0  0  0  0  0  0  0  0
  2  4  1  0
  3  4  1  0
  3  7  1  0
  6  7  1  0
  7  9  2  0
  1 11  1  6
  8 11  2  0
  5 12  1  0
 12 11  1  1
  5 13  1  0
 10 13  2  0
 13 14  1  0
 14 15  1  6
 16 17  1  0
 16 18  1  0
 16 19  1  0
  9 21  1  0
 18 22  1  0
 14 23  1  0
 25 28  2  0
 26 28  2  0
 29 30  2  0
 30 31  1  0
 31 32  2  0
 12 33  1  0
 32 33  1  0
 29 34  1  0
 33 34  2  0
 35 36  2  0
 16 37  1  0
 36 37  1  0
 37 38  2  0
 38 39  1  0
  5 40  1  0
 35 40  1  0
 39 40  2  0
  1 41  1  0
 41  9  1  6
  6 42  1  0
 41 42  1  0
 42 43  1  6
 43 44  1  0
 45 20  1  6
 44 45  1  0
  1 46  1  0
 41 46  1  0
 46 45  1  1
 24 47  1  0
 47 48  2  0
 27 49  1  0
 48 49  1  0
 28 50  1  0
 49 50  2  0
 50 51  1  0
 47 52  1  0
 51 52  2  0
 14 53  1  0
 53 54  1  0
 54 55  1  0
 28 56  1  0
 55 56  1  0
 56 57  1  0
 53 58  1  0
 57 58  2  0
 58 59  1  0
 59 60  2  0
 60 61  1  0
 57 62  1  0
 61 62  2  0
M  END
