x3115-x1402
     RDKit          3D

 45 48  0  0  0  0  0  0  0  0999 V2000
    6.8600   -1.7250   21.9930 N   0  0  0  0  0  0  0  0  0  0  0  0
    6.7320   -4.7120   20.1190 C   0  0  0  0  0  0  0  0  0  0  0  0
    4.8030   -3.0330   21.3070 O   0  0  0  0  0  0  0  0  0  0  0  0
    6.9220   -4.0900   21.3930 C   0  0  1  0  0  0  0  0  0  0  0  0
    7.1500    1.7100   22.7920 N   0  0  0  0  0  0  0  0  0  0  0  0
    8.7390    0.5420   21.5730 O   0  0  0  0  0  0  0  0  0  0  0  0
    6.0740   -2.8960   21.5680 C   0  0  0  0  0  0  0  0  0  0  0  0
    8.4830    5.1140   22.9260 O   0  0  0  0  0  0  0  0  0  0  0  0
    6.4750   -0.3050   21.6670 C   0  0  1  0  0  0  0  0  0  0  0  0
    7.5860    0.6540   21.9950 C   0  0  0  0  0  0  0  0  0  0  0  0
    7.9830    2.7560   23.1300 C   0  0  0  0  0  0  0  0  0  0  0  0
    7.7910    4.0220   22.3050 C   0  0  0  0  0  0  0  0  0  0  0  0
    8.2920    6.3460   22.2340 C   0  0  0  0  0  0  0  0  0  0  0  0
   12.3450   -1.7120   24.0930 C   0  0  0  0  0  0  0  0  0  0  0  0
   13.2590   -1.7710   23.0540 C   0  0  0  0  0  0  0  0  0  0  0  0
   12.6950   -2.9260   24.9500 C   0  0  0  0  0  0  0  0  0  0  0  0
   12.4350   -0.6390   24.8870 C   0  0  0  0  0  0  0  0  0  0  0  0
    5.5050   -4.5060   19.4760 O   0  0  0  0  0  0  0  0  0  0  0  0
    0.6560   -1.3670   26.0120 Cl  0  0  0  0  0  0  0  0  0  0  0  0
    3.5590   -6.5030   25.7280 O   0  0  0  0  0  0  0  0  0  0  0  0
    5.6560   -5.5920   26.9450 O   0  0  0  0  0  0  0  0  0  0  0  0
    4.7190   -5.5560   25.8470 S   0  0  0  0  0  0  0  0  0  0  0  0
    6.3380    0.3010   17.9370 N   0  0  0  0  0  0  0  0  0  0  0  0
    5.2210    1.0410   17.8480 C   0  0  0  0  0  0  0  0  0  0  0  0
    4.3440    1.4290   18.9530 C   0  0  0  0  0  0  0  0  0  0  0  0
    4.8260    0.9190   20.2370 C   0  0  0  0  0  0  0  0  0  0  0  0
    5.9910    0.1630   20.3120 C   0  0  0  0  0  0  0  0  0  0  0  0
    6.7090   -0.1270   19.1540 C   0  0  0  0  0  0  0  0  0  0  0  0
    9.2980   -1.9460   21.7130 C   0  0  0  0  0  0  0  0  0  0  0  0
   10.5850   -1.9430   22.1960 C   0  0  0  0  0  0  0  0  0  0  0  0
   10.9250   -1.7480   23.5270 C   0  0  0  0  0  0  0  0  0  0  0  0
    9.8320   -1.5610   24.3650 C   0  0  0  0  0  0  0  0  0  0  0  0
    8.5020   -1.5610   23.9070 C   0  0  0  0  0  0  0  0  0  0  0  0
    8.2160   -1.7480   22.5500 C   0  0  0  0  0  0  0  0  0  0  0  0
    7.0320   -5.0400   22.4020 N   0  0  0  0  0  0  0  0  0  0  0  0
    7.4550   -4.3470   23.5700 C   0  0  0  0  0  0  0  0  0  0  0  0
    6.9920   -5.0640   24.6110 C   0  0  0  0  0  0  0  0  0  0  0  0
    5.6290   -5.6230   24.4420 N   0  0  0  0  0  0  0  0  0  0  0  0
    4.9910   -5.7500   23.0960 C   0  0  0  0  0  0  0  0  0  0  0  0
    5.5920   -4.7720   22.2860 C   0  0  0  0  0  0  0  0  0  0  0  0
    2.2930   -3.8530   25.8640 S   0  0  0  0  0  0  0  0  0  0  0  0
    4.0150   -3.9280   25.9430 C   0  0  0  0  0  0  0  0  0  0  0  0
    4.6230   -2.5450   26.0900 C   0  0  0  0  0  0  0  0  0  0  0  0
    3.5280   -1.4970   26.1270 C   0  0  0  0  0  0  0  0  0  0  0  0
    2.1860   -2.1420   26.0100 C   0  0  0  0  0  0  0  0  0  0  0  0
  4  2  1  6
  1  7  1  0
  3  7  2  0
  4  7  1  0
  1  9  1  0
  5 10  1  0
  6 10  2  0
  9 10  1  6
  5 11  1  0
  8 12  1  0
 11 12  1  0
  8 13  1  0
 14 15  1  0
 14 16  1  0
 14 17  1  0
  2 18  2  0
 20 22  2  0
 21 22  2  0
 23 24  2  0
 24 25  1  0
 25 26  2  0
  9 27  1  0
 26 27  1  0
 23 28  1  0
 27 28  2  0
 29 30  2  0
 14 31  1  0
 30 31  1  0
 31 32  2  0
 32 33  1  0
  1 34  1  0
 29 34  1  0
 33 34  2  0
  4 35  1  0
 35 36  1  0
 36 37  1  0
 22 38  1  0
 37 38  1  0
 38 39  1  0
 35 40  1  0
 39 40  1  0
 22 42  1  0
 41 42  1  0
 42 43  2  0
 43 44  1  0
 19 45  1  0
 41 45  1  0
 44 45  2  0
M  END
