x3110-x1493-x1311-x0771-x2705
     RDKit          3D

 63 70  0  0  0  0  0  0  0  0999 V2000
    8.1850    1.8690   23.1700 C   0  0  1  0  0  0  0  0  0  0  0  0
   13.7060    5.0740   23.1820 C   0  0  0  0  0  0  0  0  0  0  0  0
   12.6130    2.9390   23.3850 O   0  0  0  0  0  0  0  0  0  0  0  0
   13.0320    3.9460   22.4380 C   0  0  0  0  0  0  0  0  0  0  0  0
    7.0760   -1.5570   21.8240 N   0  0  0  0  0  0  0  0  0  0  0  0
   10.9600    4.3540   23.5920 N   0  0  0  0  0  0  0  0  0  0  0  0
   11.3120    3.0870   23.5810 C   0  0  0  0  0  0  0  0  0  0  0  0
    8.9300    1.2960   21.0060 O   0  0  0  0  0  0  0  0  0  0  0  0
   10.4210    2.0420   23.7860 C   0  0  0  0  0  0  0  0  0  0  0  0
    4.8080   -2.9660   21.2500 O   0  0  0  0  0  0  0  0  0  0  0  0
    8.0660    1.0330   21.8580 C   0  0  0  0  0  0  0  0  0  0  0  0
    6.8680   -0.0300   21.5420 C   0  0  1  0  0  0  0  0  0  0  0  0
    6.1770   -2.7300   21.3160 C   0  0  0  0  0  0  0  0  0  0  0  0
    6.9160   -4.0020   20.6910 C   0  0  2  0  0  0  0  0  0  0  0  0
    8.4100   -3.6400   20.3410 C   0  0  0  0  0  0  0  0  0  0  0  0
   12.4020   -1.8760   24.3960 C   0  0  0  0  0  0  0  0  0  0  0  0
   12.6600   -0.6340   25.2940 C   0  0  0  0  0  0  0  0  0  0  0  0
   13.5790   -1.9320   23.3790 C   0  0  0  0  0  0  0  0  0  0  0  0
   12.5280   -3.1140   25.3130 C   0  0  0  0  0  0  0  0  0  0  0  0
    6.0900    4.4920   21.5280 C   0  0  0  0  0  0  0  0  0  0  0  0
    9.3320    1.0670   24.0110 C   0  0  0  0  0  0  0  0  0  0  0  0
   13.2460   -1.5650   21.9350 C   0  0  0  0  0  0  0  0  0  0  0  0
    6.2710   -4.4360   19.5080 O   0  0  0  0  0  0  0  0  0  0  0  0
    0.2490   -1.4820   26.2880 C   0  0  0  0  0  0  0  0  0  0  0  0
    4.9000   -5.5480   27.0710 O   0  0  0  0  0  0  0  0  0  0  0  0
    6.1380   -5.8960   26.4130 C   0  0  0  0  0  0  0  0  0  0  0  0
    1.8700   -6.0730   25.0340 C   0  0  0  0  0  0  0  0  0  0  0  0
    4.9270   -4.9790   25.5480 S   0  0  2  0  0  0  0  0  0  0  0  0
    6.9380   -6.5010   26.9850 O   0  0  0  0  0  0  0  0  0  0  0  0
    6.4910    0.3300   17.7460 N   0  0  0  0  0  0  0  0  0  0  0  0
    5.3700    1.0710   17.6910 C   0  0  0  0  0  0  0  0  0  0  0  0
    4.6780    1.4790   18.8030 C   0  0  0  0  0  0  0  0  0  0  0  0
    5.1710    1.1120   20.0510 C   0  0  0  0  0  0  0  0  0  0  0  0
    6.3400    0.3430   20.1600 C   0  0  0  0  0  0  0  0  0  0  0  0
    6.9590   -0.0240   18.9630 C   0  0  0  0  0  0  0  0  0  0  0  0
    9.5810   -1.5750   21.7180 C   0  0  0  0  0  0  0  0  0  0  0  0
   10.8440   -1.6500   22.3340 C   0  0  0  0  0  0  0  0  0  0  0  0
   10.9970   -1.8240   23.7250 C   0  0  0  0  0  0  0  0  0  0  0  0
    9.8060   -1.9350   24.4630 C   0  0  0  0  0  0  0  0  0  0  0  0
    8.5330   -1.8630   23.8560 C   0  0  0  0  0  0  0  0  0  0  0  0
    8.3910   -1.6760   22.4700 C   0  0  0  0  0  0  0  0  0  0  0  0
    9.1820    3.0160   23.6610 C   0  0  2  0  0  0  0  0  0  0  0  0
    9.7220    4.3530   23.0490 C   0  0  1  0  0  0  0  0  0  0  0  0
    9.0950    5.6530   23.5720 C   0  0  0  0  0  0  0  0  0  0  0  0
    7.7710    5.7980   22.8700 C   0  0  0  0  0  0  0  0  0  0  0  0
    7.4320    4.4340   22.2200 C   0  0  1  0  0  0  0  0  0  0  0  0
    7.7010    3.2330   23.1120 C   0  0  1  0  0  0  0  0  0  0  0  0
    1.3740   -2.4410   26.1000 C   0  0  0  0  0  0  0  0  0  0  0  0
    1.1360   -3.7630   25.6840 C   0  0  0  0  0  0  0  0  0  0  0  0
    2.1840   -4.6770   25.4890 C   0  0  0  0  0  0  0  0  0  0  0  0
    3.4540   -4.1870   25.7300 C   0  0  0  0  0  0  0  0  0  0  0  0
    3.7000   -2.8870   26.1510 C   0  0  0  0  0  0  0  0  0  0  0  0
    2.6700   -2.0090   26.3400 C   0  0  0  0  0  0  0  0  0  0  0  0
    6.8690   -5.1540   21.6730 N   0  0  0  0  0  0  0  0  0  0  0  0
    5.7450   -6.0630   21.8260 C   0  0  0  0  0  0  0  0  0  0  0  0
    4.9540   -5.7550   23.0920 C   0  0  0  0  0  0  0  0  0  0  0  0
    5.7080   -5.0210   24.1300 N   0  0  0  0  0  0  0  0  0  0  0  0
    7.0810   -5.0150   24.0790 C   0  0  0  0  0  0  0  0  0  0  0  0
    7.6530   -5.0970   22.8380 C   0  0  0  0  0  0  0  0  0  0  0  0
    9.0110   -5.1320   22.7430 C   0  0  0  0  0  0  0  0  0  0  0  0
    9.8460   -5.0820   23.8530 C   0  0  0  0  0  0  0  0  0  0  0  0
    9.3060   -4.9830   25.0990 C   0  0  0  0  0  0  0  0  0  0  0  0
    7.9290   -4.9460   25.2150 C   0  0  0  0  0  0  0  0  0  0  0  0
  2  4  1  0
  3  4  1  0
  3  7  1  0
  6  7  1  0
  7  9  2  0
  1 11  1  6
  8 11  2  0
  5 12  1  0
 12 11  1  6
  5 13  1  0
 10 13  2  0
 13 14  1  0
 14 15  1  6
 16 17  1  0
 16 18  1  0
 16 19  1  0
  9 21  1  0
 18 22  1  0
 14 23  1  0
 25 28  2  0
 26 28  2  0
 26 29  2  0
 30 31  2  0
 31 32  1  0
 32 33  2  0
 12 34  1  0
 33 34  1  0
 30 35  1  0
 34 35  2  0
 36 37  2  0
 16 38  1  0
 37 38  1  0
 38 39  2  0
 39 40  1  0
  5 41  1  0
 36 41  1  0
 40 41  2  0
  1 42  1  0
 42  9  1  1
  6 43  1  0
 42 43  1  0
 43 44  1  1
 44 45  1  0
 46 20  1  1
 45 46  1  0
  1 47  1  0
 42 47  1  0
 47 46  1  6
 24 48  1  0
 48 49  2  0
 27 50  1  0
 49 50  1  0
 28 51  1  1
 50 51  2  0
 51 52  1  0
 48 53  1  0
 52 53  2  0
 14 54  1  0
 54 55  1  0
 55 56  1  0
 28 57  1  0
 56 57  1  0
 57 58  1  0
 54 59  1  0
 58 59  2  0
 59 60  1  0
 60 61  2  0
 61 62  1  0
 58 63  1  0
 62 63  2  0
M  END
