x3115-x0981
     RDKit          3D

 42 43  0  0  0  0  0  0  0  0999 V2000
    6.9130   -1.9530   21.8250 N   0  0  0  0  0  0  0  0  0  0  0  0
    6.3270   -5.0570   19.9880 C   0  0  0  0  0  0  0  0  0  0  0  0
    4.7460   -2.9930   21.3320 O   0  0  0  0  0  0  0  0  0  0  0  0
    6.4210   -4.5360   21.4170 C   0  0  1  0  0  0  0  0  0  0  0  0
    7.4020    1.4210   22.9960 N   0  0  0  0  0  0  0  0  0  0  0  0
    8.8070    0.3890   21.4830 O   0  0  0  0  0  0  0  0  0  0  0  0
    5.9750   -3.0940   21.5350 C   0  0  0  0  0  0  0  0  0  0  0  0
    8.4870    4.9090   23.0120 O   0  0  0  0  0  0  0  0  0  0  0  0
    6.5510   -0.4730   21.6340 C   0  0  1  0  0  0  0  0  0  0  0  0
    7.7040    0.4520   22.0180 C   0  0  0  0  0  0  0  0  0  0  0  0
    8.2510    2.5030   23.2410 C   0  0  0  0  0  0  0  0  0  0  0  0
    7.9260    3.7440   22.3980 C   0  0  0  0  0  0  0  0  0  0  0  0
    8.2360    6.1060   22.2700 C   0  0  0  0  0  0  0  0  0  0  0  0
   12.4940   -1.9550   23.8000 C   0  0  0  0  0  0  0  0  0  0  0  0
   13.2590   -2.3650   22.7410 C   0  0  0  0  0  0  0  0  0  0  0  0
   12.8390   -2.8970   24.9550 C   0  0  0  0  0  0  0  0  0  0  0  0
   12.8100   -0.7400   24.1850 C   0  0  0  0  0  0  0  0  0  0  0  0
    1.3670   -8.4430   21.7260 C   0  0  0  0  0  0  0  0  0  0  0  0
    2.9970   -6.8680   22.6940 N   0  0  0  0  0  0  0  0  0  0  0  0
    0.7800   -6.3130   22.4900 O   0  0  0  0  0  0  0  0  0  0  0  0
    1.6900   -7.1330   22.3410 C   0  0  0  0  0  0  0  0  0  0  0  0
    2.4380   -8.0310   26.0800 N   0  0  0  0  0  0  0  0  0  0  0  0
    4.0440   -8.1120   24.5500 O   0  0  0  0  0  0  0  0  0  0  0  0
    3.2780   -5.7870   23.5000 C   0  0  1  0  0  0  0  0  0  0  0  0
    5.5250   -5.4070   22.1930 N   0  0  0  0  0  0  0  0  0  0  0  0
    5.0990   -4.2920   24.1070 O   0  0  0  0  0  0  0  0  0  0  0  0
    3.2000   -6.0620   24.8760 C   0  0  0  0  0  0  0  0  0  0  0  0
    3.2420   -7.4350   25.1560 C   0  0  0  0  0  0  0  0  0  0  0  0
    4.7150   -5.1050   23.2780 C   0  0  0  0  0  0  0  0  0  0  0  0
    5.5850   -6.1310   19.9190 C   0  0  0  0  0  0  0  0  0  0  0  0
    6.3160    0.2420   17.9100 N   0  0  0  0  0  0  0  0  0  0  0  0
    5.2110    1.0130   17.8980 C   0  0  0  0  0  0  0  0  0  0  0  0
    4.4910    1.3220   19.0260 C   0  0  0  0  0  0  0  0  0  0  0  0
    4.9210    0.8270   20.2460 C   0  0  0  0  0  0  0  0  0  0  0  0
    6.0670    0.0350   20.2840 C   0  0  0  0  0  0  0  0  0  0  0  0
    6.7230   -0.2280   19.0730 C   0  0  0  0  0  0  0  0  0  0  0  0
    9.3310   -2.2860   21.6290 C   0  0  0  0  0  0  0  0  0  0  0  0
   10.6580   -2.2790   22.0840 C   0  0  0  0  0  0  0  0  0  0  0  0
   11.0000   -1.9530   23.3970 C   0  0  0  0  0  0  0  0  0  0  0  0
    9.9860   -1.6320   24.2960 C   0  0  0  0  0  0  0  0  0  0  0  0
    8.5100   -1.6150   23.8840 C   0  0  0  0  0  0  0  0  0  0  0  0
    8.2360   -1.9700   22.4130 C   0  0  0  0  0  0  0  0  0  0  0  0
  4  2  1  6
  1  7  1  0
  3  7  2  0
  4  7  1  0
  1  9  1  0
  5 10  1  0
  6 10  2  0
  9 10  1  6
  5 11  1  0
  8 12  1  0
 11 12  1  0
  8 13  1  0
 14 15  1  0
 14 16  1  0
 14 17  1  0
 18 21  1  0
 19 21  1  0
 20 21  2  0
 19 24  1  0
  4 25  1  0
 24 27  1  1
 22 28  1  0
 23 28  2  0
 27 28  1  0
 24 29  1  0
 25 29  1  0
 26 29  2  0
  2 30  2  3
 31 32  2  0
 32 33  1  0
 33 34  2  0
  9 35  1  0
 34 35  1  0
 31 36  1  0
 35 36  2  0
 37 38  2  0
 14 39  1  0
 38 39  1  0
 39 40  2  0
 40 41  1  0
  1 42  1  0
 37 42  1  0
 41 42  2  0
M  END
