x3113-x3115
     RDKit          3D

 33 34  0  0  0  0  0  0  0  0999 V2000
    7.0480   -1.7920   21.9240 N   0  0  0  0  0  0  0  0  0  0  0  0
    8.2380   -4.4950   20.9620 C   0  0  0  0  0  0  0  0  0  0  0  0
    4.8950   -3.0840   21.2100 O   0  0  0  0  0  0  0  0  0  0  0  0
    6.8780   -4.2800   21.5720 C   0  0  0  0  0  0  0  0  0  0  0  0
    7.7940    1.4290   23.1690 N   0  0  0  0  0  0  0  0  0  0  0  0
    8.9090    0.5830   21.3290 O   0  0  0  0  0  0  0  0  0  0  0  0
    6.1760   -2.9680   21.5440 C   0  0  0  0  0  0  0  0  0  0  0  0
   11.6300    3.6530   22.3770 O   0  0  0  0  0  0  0  0  0  0  0  0
    6.6970   -0.3170   21.7320 C   0  0  1  0  0  0  0  0  0  0  0  0
    7.9120    0.5770   22.0420 C   0  0  0  0  0  0  0  0  0  0  0  0
    8.7150    2.4230   23.2840 C   0  0  1  0  0  0  0  0  0  0  0  0
   10.1660    1.9490   23.0660 C   0  0  0  0  0  0  0  0  0  0  0  0
   11.1310    2.8860   23.4710 C   0  0  0  0  0  0  0  0  0  0  0  0
   12.8360    4.3560   22.6750 C   0  0  0  0  0  0  0  0  0  0  0  0
   12.4020   -1.9800   24.2050 C   0  0  0  0  0  0  0  0  0  0  0  0
   13.3240   -2.0610   23.2250 C   0  0  0  0  0  0  0  0  0  0  0  0
   12.7160   -3.0810   25.2360 C   0  0  0  0  0  0  0  0  0  0  0  0
   12.6440   -0.6580   24.9400 C   0  0  0  0  0  0  0  0  0  0  0  0
    8.6330    4.8200   23.0910 O   0  0  0  0  0  0  0  0  0  0  0  0
    8.3400    3.5470   22.4740 C   0  0  0  0  0  0  0  0  0  0  0  0
    8.2770    5.8040   22.4260 C   0  0  0  0  0  0  0  0  0  0  0  0
    6.4010    0.2880   17.9240 N   0  0  0  0  0  0  0  0  0  0  0  0
    5.3120    1.0810   17.8690 C   0  0  0  0  0  0  0  0  0  0  0  0
    4.6640    1.4070   19.0590 C   0  0  0  0  0  0  0  0  0  0  0  0
    5.1300    0.9320   20.2920 C   0  0  0  0  0  0  0  0  0  0  0  0
    6.2300    0.1380   20.3580 C   0  0  0  0  0  0  0  0  0  0  0  0
    6.8790   -0.2010   19.1940 C   0  0  0  0  0  0  0  0  0  0  0  0
    9.4390   -1.6500   21.7520 C   0  0  0  0  0  0  0  0  0  0  0  0
   10.7440   -1.6860   22.2360 C   0  0  0  0  0  0  0  0  0  0  0  0
   10.9840   -1.9640   23.5780 C   0  0  0  0  0  0  0  0  0  0  0  0
    9.8870   -2.2220   24.4150 C   0  0  0  0  0  0  0  0  0  0  0  0
    8.5790   -2.1750   23.8620 C   0  0  0  0  0  0  0  0  0  0  0  0
    8.3700   -1.8770   22.5020 C   0  0  0  0  0  0  0  0  0  0  0  0
  2  4  1  0
  1  7  1  0
  3  7  2  0
  4  7  1  0
  1  9  1  0
  5 10  1  0
  6 10  2  0
  9 10  1  6
  5 11  1  0
 11 12  1  6
  8 13  1  0
 12 13  1  0
  8 14  1  0
 15 16  1  0
 15 17  1  0
 15 18  1  0
 11 20  1  0
 19 20  1  0
 19 21  1  0
 22 23  2  0
 23 24  1  0
 24 25  2  0
  9 26  1  0
 25 26  1  0
 22 27  1  0
 26 27  2  0
 28 29  2  0
 15 30  1  0
 29 30  1  0
 30 31  2  0
 31 32  1  0
  1 33  1  0
 28 33  1  0
 32 33  2  0
M  END
