x3117-x2705-x0691-x2649
     RDKit          3D

 52 57  0  0  0  0  0  0  0  0999 V2000
    7.0350   -1.4000   21.7700 N   0  0  0  0  0  0  0  0  0  0  0  0
    6.6990   -4.2540   20.2910 C   0  0  2  0  0  0  0  0  0  0  0  0
    4.9580   -3.2550   21.3390 O   0  0  0  0  0  0  0  0  0  0  0  0
    6.7650   -3.3350   21.4220 C   0  0  1  0  0  0  0  0  0  0  0  0
    7.5900    2.0550   22.8060 N   0  0  0  0  0  0  0  0  0  0  0  0
    8.9360    1.3240   21.1160 O   0  0  0  0  0  0  0  0  0  0  0  0
    5.7960   -2.2520   21.5600 C   0  0  0  0  0  0  0  0  0  0  0  0
    6.8030    0.0680   21.4880 C   0  0  1  0  0  0  0  0  0  0  0  0
    7.9070    1.1870   21.7740 C   0  0  0  0  0  0  0  0  0  0  0  0
   10.1820    2.1210   23.9590 C   0  0  0  0  0  0  0  0  0  0  0  0
    9.3270    1.2590   24.8720 C   0  0  0  0  0  0  0  0  0  0  0  0
    6.2150    4.6440   21.8840 C   0  0  0  0  0  0  0  0  0  0  0  0
   11.9200   -1.5800   23.2450 C   0  0  0  0  0  0  0  0  0  0  0  0
   12.4250   -0.2320   23.8080 C   0  0  0  0  0  0  0  0  0  0  0  0
   12.4110   -2.7220   24.1220 C   0  0  0  0  0  0  0  0  0  0  0  0
   12.5770   -1.7890   21.8610 C   0  0  0  0  0  0  0  0  0  0  0  0
   13.3760   -2.3840   25.2300 C   0  0  0  0  0  0  0  0  0  0  0  0
    5.4990   -4.2610   19.5280 O   0  0  0  0  0  0  0  0  0  0  0  0
    4.0110   -6.8570   25.9080 O   0  0  0  0  0  0  0  0  0  0  0  0
    5.6960   -5.2230   26.8100 O   0  0  0  0  0  0  0  0  0  0  0  0
    3.2710   -0.6910   25.9820 F   0  0  0  0  0  0  0  0  0  0  0  0
    4.7290   -5.6010   25.8100 S   0  0  0  0  0  0  0  0  0  0  0  0
    4.3180    1.5660   21.3890 C   0  0  0  0  0  0  0  0  0  0  0  0
    6.3230    0.3910   17.7690 N   0  0  0  0  0  0  0  0  0  0  0  0
    5.1900    1.1010   17.7760 C   0  0  0  0  0  0  0  0  0  0  0  0
    4.5230    1.4860   18.9110 C   0  0  0  0  0  0  0  0  0  0  0  0
    5.0400    1.1390   20.1450 C   0  0  0  0  0  0  0  0  0  0  0  0
    6.2160    0.4140   20.1650 C   0  0  0  0  0  0  0  0  0  0  0  0
    6.8100    0.0600   18.9700 C   0  0  0  0  0  0  0  0  0  0  0  0
    9.6240   -1.8050   24.2370 N   0  0  0  0  0  0  0  0  0  0  0  0
    8.3120   -1.7780   23.8950 N   0  0  0  0  0  0  0  0  0  0  0  0
    8.2430   -1.5500   22.5560 C   0  0  0  0  0  0  0  0  0  0  0  0
    9.5110   -1.4400   22.0410 C   0  0  0  0  0  0  0  0  0  0  0  0
   10.3630   -1.6150   23.2100 C   0  0  0  0  0  0  0  0  0  0  0  0
    9.4730    3.3820   23.5140 C   0  0  0  0  0  0  0  0  0  0  0  0
   10.1340    4.6190   23.6820 C   0  0  0  0  0  0  0  0  0  0  0  0
    9.5290    5.8030   23.2800 C   0  0  0  0  0  0  0  0  0  0  0  0
    8.2580    5.7670   22.7030 C   0  0  0  0  0  0  0  0  0  0  0  0
    7.5740    4.5410   22.5250 C   0  0  0  0  0  0  0  0  0  0  0  0
    8.1830    3.3360   22.9360 C   0  0  0  0  0  0  0  0  0  0  0  0
    2.9090   -1.9770   25.8700 C   0  0  0  0  0  0  0  0  0  0  0  0
    3.8850   -2.9680   25.8890 C   0  0  0  0  0  0  0  0  0  0  0  0
    3.4950   -4.3070   25.7740 C   0  0  0  0  0  0  0  0  0  0  0  0
    2.1410   -4.6390   25.6370 C   0  0  0  0  0  0  0  0  0  0  0  0
    1.1760   -3.6270   25.6190 C   0  0  0  0  0  0  0  0  0  0  0  0
    1.5630   -2.2940   25.7380 C   0  0  0  0  0  0  0  0  0  0  0  0
    6.5510   -4.8540   21.6870 C   0  0  0  0  0  0  0  0  0  0  0  0
    5.3010   -5.6570   21.8490 C   0  0  0  0  0  0  0  0  0  0  0  0
    4.5610   -5.3100   23.1190 C   0  0  0  0  0  0  0  0  0  0  0  0
    5.4410   -5.5670   24.2690 N   0  0  0  0  0  0  0  0  0  0  0  0
    6.8550   -5.0890   24.1820 C   0  0  0  0  0  0  0  0  0  0  0  0
    7.5010   -5.2320   22.7840 C   0  0  0  0  0  0  0  0  0  0  0  0
  2  4  1  0
  1  7  1  0
  3  7  2  0
  4  7  1  6
  1  8  1  0
  5  9  1  0
  6  9  2  0
  8  9  1  6
 10 11  1  0
 13 14  1  0
 13 15  1  0
 13 16  1  0
 15 17  1  0
  2 18  1  6
 19 22  2  0
 20 22  2  0
 24 25  2  0
 25 26  1  0
 23 27  1  0
 26 27  2  0
  8 28  1  0
 27 28  1  0
 24 29  1  0
 28 29  2  0
 30 31  1  0
  1 32  1  0
 31 32  2  0
 32 33  1  0
 13 34  1  0
 30 34  1  0
 33 34  2  0
 10 35  1  0
 35 36  2  0
 36 37  1  0
 37 38  2  0
 12 39  1  0
 38 39  1  0
  5 40  1  0
 35 40  1  0
 39 40  2  0
 21 41  1  0
 41 42  2  0
 22 43  1  0
 42 43  1  0
 43 44  2  0
 44 45  1  0
 41 46  1  0
 45 46  2  0
  2 47  1  0
  4 47  1  0
 47 48  1  0
 48 49  1  0
 22 50  1  0
 49 50  1  0
 50 51  1  0
 47 52  1  0
 51 52  1  0
M  END
