x3117-x0731
     RDKit          3D

 48 54  0  0  0  0  0  0  0  0999 V2000
    6.6740   -1.4310   22.2400 N   0  0  0  0  0  0  0  0  0  0  0  0
    6.7480   -4.5180   20.2360 C   0  0  2  0  0  0  0  0  0  0  0  0
    4.6730   -2.9730   21.5070 O   0  0  0  0  0  0  0  0  0  0  0  0
    6.8890   -3.5990   21.3990 C   0  0  2  0  0  0  0  0  0  0  0  0
    7.6920    1.9230   22.8430 N   0  0  0  0  0  0  0  0  0  0  0  0
    8.8770    0.4810   21.4760 O   0  0  0  0  0  0  0  0  0  0  0  0
    5.9260   -2.6220   21.7270 C   0  0  0  0  0  0  0  0  0  0  0  0
    6.5370   -0.0040   21.7660 C   0  0  1  0  0  0  0  0  0  0  0  0
    7.8140    0.7910   22.0080 C   0  0  0  0  0  0  0  0  0  0  0  0
   12.2470   -1.6760   24.0990 C   0  0  0  0  0  0  0  0  0  0  0  0
   12.4830   -0.5440   25.0550 C   0  0  0  0  0  0  0  0  0  0  0  0
   13.1860   -1.4840   23.1220 C   0  0  0  0  0  0  0  0  0  0  0  0
   12.6480   -2.9610   24.8070 C   0  0  0  0  0  0  0  0  0  0  0  0
    5.6970   -4.7280   19.6510 O   0  0  0  0  0  0  0  0  0  0  0  0
    0.8580   -1.0270   26.1520 C   0  0  0  0  0  0  0  0  0  0  0  0
    6.6530   -4.8780   26.6310 O   0  0  0  0  0  0  0  0  0  0  0  0
    4.8760   -6.4670   25.9520 O   0  0  0  0  0  0  0  0  0  0  0  0
    5.5270   -5.1360   25.6620 S   0  0  0  0  0  0  0  0  0  0  0  0
    6.2640    0.3160   17.8760 N   0  0  0  0  0  0  0  0  0  0  0  0
    5.1590    1.0880   17.8120 C   0  0  0  0  0  0  0  0  0  0  0  0
    4.4580    1.5090   18.9280 C   0  0  0  0  0  0  0  0  0  0  0  0
    4.9030    1.1430   20.1620 C   0  0  0  0  0  0  0  0  0  0  0  0
    6.0860    0.3240   20.3790 C   0  0  0  0  0  0  0  0  0  0  0  0
    6.7120   -0.0550   19.1040 C   0  0  0  0  0  0  0  0  0  0  0  0
    9.7330    5.0900   24.1480 O   0  0  0  0  0  0  0  0  0  0  0  0
   10.5140    3.9930   23.6790 C   0  0  0  0  0  0  0  0  0  0  0  0
    9.7060    2.8590   23.5950 C   0  0  0  0  0  0  0  0  0  0  0  0
    8.6250    3.0740   22.7210 C   0  0  0  0  0  0  0  0  0  0  0  0
    7.9050    4.2170   23.0090 C   0  0  0  0  0  0  0  0  0  0  0  0
    8.6820    5.3690   23.2190 C   0  0  0  0  0  0  0  0  0  0  0  0
    9.1510   -2.0070   21.8370 C   0  0  0  0  0  0  0  0  0  0  0  0
   10.4870   -2.0650   22.2800 C   0  0  0  0  0  0  0  0  0  0  0  0
   10.8110   -1.6580   23.5690 C   0  0  0  0  0  0  0  0  0  0  0  0
    9.7930   -1.1990   24.4180 C   0  0  0  0  0  0  0  0  0  0  0  0
    8.4600   -1.1480   23.9750 C   0  0  0  0  0  0  0  0  0  0  0  0
    8.0970   -1.5420   22.6790 C   0  0  0  0  0  0  0  0  0  0  0  0
    1.9730   -2.0150   26.0220 C   0  0  0  0  0  0  0  0  0  0  0  0
    1.7850   -3.2420   25.4140 C   0  0  0  0  0  0  0  0  0  0  0  0
    2.8960   -4.2710   25.2750 C   0  0  0  0  0  0  0  0  0  0  0  0
    4.2840   -3.8940   25.8520 C   0  0  0  0  0  0  0  0  0  0  0  0
    4.4450   -2.6510   26.4540 C   0  0  0  0  0  0  0  0  0  0  0  0
    3.2320   -1.7130   26.5220 C   0  0  0  0  0  0  0  0  0  0  0  0
    6.7140   -5.1370   21.5010 C   0  0  2  0  0  0  0  0  0  0  0  0
    7.6030   -4.5530   22.3450 C   0  0  2  0  0  0  0  0  0  0  0  0
    7.4600   -5.0460   23.6990 C   0  0  0  0  0  0  0  0  0  0  0  0
    5.9810   -5.0290   24.0430 N   0  0  0  0  0  0  0  0  0  0  0  0
    5.1130   -5.7870   23.0880 C   0  0  0  0  0  0  0  0  0  0  0  0
    6.0050   -6.3100   21.9670 C   0  0  0  0  0  0  0  0  0  0  0  0
  2  4  1  0
  1  7  1  0
  3  7  2  0
  4  7  1  1
  1  8  1  0
  5  9  1  0
  6  9  2  0
  8  9  1  6
 10 11  1  0
 10 12  1  0
 10 13  1  0
  2 14  1  1
 16 18  2  0
 17 18  2  0
 19 20  2  0
 20 21  1  0
 21 22  2  0
  8 23  1  0
 22 23  1  0
 19 24  1  0
 23 24  2  0
 25 26  1  0
 26 27  1  0
  5 28  1  0
 27 28  1  0
 28 29  1  0
 25 30  1  0
 29 30  1  0
 31 32  2  0
 10 33  1  0
 32 33  1  0
 33 34  2  0
 34 35  1  0
  1 36  1  0
 31 36  1  0
 35 36  2  0
 15 37  1  0
 37 38  2  0
 38 39  1  0
 18 40  1  0
 39 40  2  0
 40 41  1  0
 37 42  1  0
 41 42  2  0
  2 43  1  0
  4 43  1  0
  4 44  1  0
 43 44  1  0
 44 45  1  1
 18 46  1  0
 45 46  1  0
 46 47  1  0
 43 48  1  1
 47 48  1  0
M  END
