x3115-x3117
     RDKit          3D

 32 35  0  0  0  0  0  0  0  0999 V2000
    6.8870   -1.6720   21.9700 N   0  0  0  0  0  0  0  0  0  0  0  0
    6.7600   -4.9270   20.4340 C   0  0  0  0  0  0  0  0  0  0  0  0
    4.7960   -3.0130   21.2990 O   0  0  0  0  0  0  0  0  0  0  0  0
    6.7850   -4.1300   21.6900 C   0  0  0  0  0  0  0  0  0  0  0  0
    7.5480    1.8530   22.7830 N   0  0  0  0  0  0  0  0  0  0  0  0
    8.8580    0.4030   21.5510 O   0  0  0  0  0  0  0  0  0  0  0  0
    6.0520   -2.8580   21.6350 C   0  0  0  0  0  0  0  0  0  0  0  0
    6.5290   -0.2110   21.7250 C   0  0  1  0  0  0  0  0  0  0  0  0
    7.7520    0.6750   22.0100 C   0  0  0  0  0  0  0  0  0  0  0  0
    7.5180    5.4810   22.8810 C   0  0  0  0  0  0  0  0  0  0  0  0
   12.2680   -1.8260   24.1290 C   0  0  0  0  0  0  0  0  0  0  0  0
   13.2260   -1.5050   23.1750 C   0  0  0  0  0  0  0  0  0  0  0  0
   12.7240   -3.0190   24.9590 C   0  0  0  0  0  0  0  0  0  0  0  0
   12.5820   -0.5790   24.8950 C   0  0  0  0  0  0  0  0  0  0  0  0
    6.2940    0.3110   17.8690 N   0  0  0  0  0  0  0  0  0  0  0  0
    5.2080    1.0940   17.8450 C   0  0  0  0  0  0  0  0  0  0  0  0
    4.4620    1.5050   18.9490 C   0  0  0  0  0  0  0  0  0  0  0  0
    4.8920    1.0670   20.1930 C   0  0  0  0  0  0  0  0  0  0  0  0
    6.0770    0.2110   20.3500 C   0  0  0  0  0  0  0  0  0  0  0  0
    6.7130   -0.1160   19.0740 C   0  0  0  0  0  0  0  0  0  0  0  0
    9.2920   -2.0100   21.7540 C   0  0  0  0  0  0  0  0  0  0  0  0
   10.6110   -2.0620   22.2180 C   0  0  0  0  0  0  0  0  0  0  0  0
   10.8380   -1.8260   23.5700 C   0  0  0  0  0  0  0  0  0  0  0  0
    9.7730   -1.5740   24.3740 C   0  0  0  0  0  0  0  0  0  0  0  0
    8.4570   -1.5260   23.9250 C   0  0  0  0  0  0  0  0  0  0  0  0
    8.1840   -1.7360   22.5780 C   0  0  0  0  0  0  0  0  0  0  0  0
    9.7460    4.8920   24.2020 O   0  0  0  0  0  0  0  0  0  0  0  0
   10.5170    3.7800   23.6840 C   0  0  0  0  0  0  0  0  0  0  0  0
    9.6880    2.6800   23.3210 C   0  0  0  0  0  0  0  0  0  0  0  0
    8.4810    3.0070   22.6410 C   0  0  2  0  0  0  0  0  0  0  0  0
    7.9870    4.1280   23.3120 C   0  0  1  0  0  0  0  0  0  0  0  0
    8.9500    5.1620   23.0750 C   0  0  1  0  0  0  0  0  0  0  0  0
  2  4  1  0
  1  7  1  0
  3  7  2  0
  4  7  1  0
  1  8  1  0
  5  9  1  0
  6  9  2  0
  8  9  1  6
 11 12  1  0
 11 13  1  0
 11 14  1  0
 15 16  2  0
 16 17  1  0
 17 18  2  0
  8 19  1  0
 18 19  1  0
 15 20  1  0
 19 20  2  0
 21 22  2  0
 11 23  1  0
 22 23  1  0
 23 24  2  0
 24 25  1  0
  1 26  1  0
 21 26  1  0
 25 26  2  0
 27 28  1  0
 28 29  1  0
 30  5  1  1
 29 30  1  0
 31 10  1  6
 30 31  1  0
 32 10  1  1
 27 32  1  0
 31 32  1  0
M  END
