x3113-x0434
     RDKit          3D

 36 38  0  0  0  0  0  0  0  0999 V2000
    7.0890   -1.8860   21.8600 N   0  0  0  0  0  0  0  0  0  0  0  0
    6.8930   -5.0090   20.3630 C   0  0  0  0  0  0  0  0  0  0  0  0
    4.8570   -3.0570   21.2480 O   0  0  0  0  0  0  0  0  0  0  0  0
    6.8070   -4.2740   21.6350 C   0  0  0  0  0  0  0  0  0  0  0  0
    7.9930    1.1250   23.2590 N   0  0  0  0  0  0  0  0  0  0  0  0
    8.6770    0.9010   21.0760 O   0  0  0  0  0  0  0  0  0  0  0  0
    6.1350   -2.9800   21.5620 C   0  0  0  0  0  0  0  0  0  0  0  0
   11.8370    3.9220   22.3510 O   0  0  0  0  0  0  0  0  0  0  0  0
    6.7440   -0.3840   21.6990 C   0  0  1  0  0  0  0  0  0  0  0  0
    7.9040    0.5790   21.9700 C   0  0  0  0  0  0  0  0  0  0  0  0
    8.7590    2.3870   23.5640 C   0  0  0  0  0  0  0  0  0  0  0  0
    9.9310    2.6940   22.6130 C   0  0  0  0  0  0  0  0  0  0  0  0
   10.8210    3.5650   23.2870 C   0  0  0  0  0  0  0  0  0  0  0  0
   12.7930    4.7490   22.8530 C   0  0  0  0  0  0  0  0  0  0  0  0
   12.3450   -2.3650   24.4700 C   0  0  0  0  0  0  0  0  0  0  0  0
   13.2260   -2.5130   23.4550 C   0  0  0  0  0  0  0  0  0  0  0  0
   12.8800   -3.3130   25.5550 C   0  0  0  0  0  0  0  0  0  0  0  0
   12.4570   -1.1310   25.0080 C   0  0  0  0  0  0  0  0  0  0  0  0
    6.4480    0.1470   17.9720 N   0  0  0  0  0  0  0  0  0  0  0  0
    5.2980    0.9490   17.9530 C   0  0  0  0  0  0  0  0  0  0  0  0
    4.5630    1.3330   19.1510 C   0  0  0  0  0  0  0  0  0  0  0  0
    5.0850    0.8540   20.3340 C   0  0  0  0  0  0  0  0  0  0  0  0
    6.2400    0.0560   20.3680 C   0  0  0  0  0  0  0  0  0  0  0  0
    6.8870   -0.2760   19.1650 C   0  0  0  0  0  0  0  0  0  0  0  0
    9.3400   -1.3060   22.4610 C   0  0  0  0  0  0  0  0  0  0  0  0
   10.5270   -1.4940   23.1200 C   0  0  0  0  0  0  0  0  0  0  0  0
   10.8680   -2.5040   23.8870 C   0  0  0  0  0  0  0  0  0  0  0  0
    9.8820   -3.4640   24.0440 C   0  0  0  0  0  0  0  0  0  0  0  0
    8.6100   -3.3030   23.3900 C   0  0  0  0  0  0  0  0  0  0  0  0
    8.3550   -2.1660   22.5670 C   0  0  0  0  0  0  0  0  0  0  0  0
   11.4670    1.8320   23.6800 C   0  0  0  0  0  0  0  0  0  0  0  0
   12.7470    1.8680   23.1970 C   0  0  0  0  0  0  0  0  0  0  0  0
   13.3990    0.7760   22.6370 C   0  0  0  0  0  0  0  0  0  0  0  0
   12.8080   -0.4400   22.5000 C   0  0  0  0  0  0  0  0  0  0  0  0
   11.4200   -0.4980   23.0190 C   0  0  0  0  0  0  0  0  0  0  0  0
   10.8010    0.7070   23.6120 C   0  0  0  0  0  0  0  0  0  0  0  0
  2  4  1  0
  1  7  1  0
  3  7  2  0
  4  7  1  0
  1  9  1  0
  5 10  1  0
  6 10  2  0
  9 10  1  6
  5 11  1  0
 11 12  1  0
  8 13  1  0
 12 13  1  0
  8 14  1  0
 15 16  1  0
 15 17  1  0
 15 18  1  0
 19 20  2  0
 20 21  1  0
 21 22  2  0
  9 23  1  0
 22 23  1  0
 19 24  1  0
 23 24  2  0
 25 26  2  0
 15 27  1  0
 26 27  1  0
 27 28  2  0
 28 29  1  0
  1 30  1  0
 25 30  1  0
 29 30  2  0
 31 32  2  0
 32 33  1  0
 33 34  2  0
 26 35  1  0
 34 35  1  0
 31 36  1  0
 35 36  2  0
M  END
