x3124-x2705
     RDKit          3D

 34 36  0  0  0  0  0  0  0  0999 V2000
    6.9770   -1.5460   21.7620 N   0  0  0  0  0  0  0  0  0  0  0  0
    6.9330   -4.9420   20.5660 C   0  0  0  0  0  0  0  0  0  0  0  0
    4.8380   -3.0230   21.2460 O   0  0  0  0  0  0  0  0  0  0  0  0
    6.8930   -4.0200   21.7340 C   0  0  0  0  0  0  0  0  0  0  0  0
    7.3700    1.9270   22.7770 N   0  0  0  0  0  0  0  0  0  0  0  0
    8.8020    0.7250   21.4240 O   0  0  0  0  0  0  0  0  0  0  0  0
    6.1240   -2.7820   21.5610 C   0  0  0  0  0  0  0  0  0  0  0  0
    6.5320   -0.1120   21.6240 C   0  0  1  0  0  0  0  0  0  0  0  0
    7.6870    0.8530   21.9210 C   0  0  0  0  0  0  0  0  0  0  0  0
   10.0770    1.9530   23.9650 C   0  0  0  0  0  0  0  0  0  0  0  0
    9.2690    1.1000   24.9360 C   0  0  0  0  0  0  0  0  0  0  0  0
    6.1240    4.3890   21.8480 C   0  0  0  0  0  0  0  0  0  0  0  0
   12.0140   -1.5770   23.1740 C   0  0  0  0  0  0  0  0  0  0  0  0
   12.4350   -0.3880   23.7810 C   0  0  0  0  0  0  0  0  0  0  0  0
   12.5250   -2.7380   23.9980 C   0  0  0  0  0  0  0  0  0  0  0  0
   12.6110   -1.7440   21.8860 C   0  0  0  0  0  0  0  0  0  0  0  0
   13.3810   -2.4150   25.1960 C   0  0  0  0  0  0  0  0  0  0  0  0
    6.4100    0.3590   17.8760 N   0  0  0  0  0  0  0  0  0  0  0  0
    5.1970    1.2010   17.7640 C   0  0  0  0  0  0  0  0  0  0  0  0
    4.4740    1.5350   18.9760 C   0  0  0  0  0  0  0  0  0  0  0  0
    4.9330    1.0800   20.1950 C   0  0  0  0  0  0  0  0  0  0  0  0
    6.0850    0.3020   20.2650 C   0  0  0  0  0  0  0  0  0  0  0  0
    6.7830   -0.0390   19.1030 C   0  0  0  0  0  0  0  0  0  0  0  0
    9.7740   -1.7250   24.2460 N   0  0  0  0  0  0  0  0  0  0  0  0
    8.4660   -1.7250   23.8860 N   0  0  0  0  0  0  0  0  0  0  0  0
    8.2690   -1.6110   22.5580 C   0  0  0  0  0  0  0  0  0  0  0  0
    9.5660   -1.5370   22.0570 C   0  0  0  0  0  0  0  0  0  0  0  0
   10.4740   -1.6070   23.1070 C   0  0  0  0  0  0  0  0  0  0  0  0
    9.3730    3.2090   23.4770 C   0  0  0  0  0  0  0  0  0  0  0  0
   10.0430    4.4380   23.6030 C   0  0  0  0  0  0  0  0  0  0  0  0
    9.4490    5.6300   23.1690 C   0  0  0  0  0  0  0  0  0  0  0  0
    8.1710    5.5780   22.6010 C   0  0  0  0  0  0  0  0  0  0  0  0
    7.4920    4.3530   22.4720 C   0  0  0  0  0  0  0  0  0  0  0  0
    8.0860    3.1590   22.9120 C   0  0  0  0  0  0  0  0  0  0  0  0
  2  4  1  0
  1  7  1  0
  3  7  2  0
  4  7  1  0
  1  8  1  0
  5  9  1  0
  6  9  2  0
  8  9  1  6
 10 11  1  0
 13 14  1  0
 13 15  1  0
 13 16  1  0
 15 17  1  0
 18 19  2  0
 19 20  1  0
 20 21  2  0
  8 22  1  0
 21 22  1  0
 18 23  1  0
 22 23  2  0
 24 25  1  0
  1 26  1  0
 25 26  1  0
 26 27  2  0
 13 28  1  0
 24 28  2  0
 27 28  1  0
 10 29  1  0
 29 30  2  0
 30 31  1  0
 31 32  2  0
 12 33  1  0
 32 33  1  0
  5 34  1  0
 29 34  1  0
 33 34  2  0
M  END
