x3124-x0755
     RDKit          3D

 44 48  0  0  0  0  0  0  0  0999 V2000
    6.7190   -1.5240   22.1080 N   0  0  0  0  0  0  0  0  0  0  0  0
    6.6790   -4.6200   20.3140 C   0  0  2  0  0  0  0  0  0  0  0  0
    4.7120   -2.9490   21.3650 O   0  0  0  0  0  0  0  0  0  0  0  0
    6.8430   -3.7710   21.4890 C   0  0  1  0  0  0  0  0  0  0  0  0
    7.4040    1.6090   23.1080 N   0  0  0  0  0  0  0  0  0  0  0  0
    8.6840    0.7070   21.4210 O   0  0  0  0  0  0  0  0  0  0  0  0
    5.9550   -2.6850   21.6460 C   0  0  0  0  0  0  0  0  0  0  0  0
    6.4430   -0.1130   21.7030 C   0  0  1  0  0  0  0  0  0  0  0  0
    7.6260    0.7430   22.0500 C   0  0  0  0  0  0  0  0  0  0  0  0
    7.9520    2.8660   23.1530 C   0  0  0  0  0  0  0  0  0  0  0  0
   12.2370   -1.8250   24.1400 C   0  0  0  0  0  0  0  0  0  0  0  0
   12.5170   -0.6910   24.8870 C   0  0  0  0  0  0  0  0  0  0  0  0
   13.2480   -1.8550   22.9820 C   0  0  0  0  0  0  0  0  0  0  0  0
   12.5630   -3.0240   25.0340 C   0  0  0  0  0  0  0  0  0  0  0  0
    5.4640   -4.5940   19.5830 O   0  0  0  0  0  0  0  0  0  0  0  0
    4.5220   -6.4140   26.3860 O   0  0  0  0  0  0  0  0  0  0  0  0
    6.1860   -4.6790   26.9100 O   0  0  0  0  0  0  0  0  0  0  0  0
    2.1550   -5.4600   25.6190 F   0  0  0  0  0  0  0  0  0  0  0  0
    5.5150   -2.1320   26.2170 F   0  0  0  0  0  0  0  0  0  0  0  0
    5.0970   -5.0870   25.9490 S   0  0  0  0  0  0  0  0  0  0  0  0
    6.2870    0.3520   17.8280 N   0  0  0  0  0  0  0  0  0  0  0  0
    5.2040    1.1370   17.8020 C   0  0  0  0  0  0  0  0  0  0  0  0
    4.4360    1.5650   18.8840 C   0  0  0  0  0  0  0  0  0  0  0  0
    4.8380    1.1440   20.1400 C   0  0  0  0  0  0  0  0  0  0  0  0
    6.0200    0.2850   20.3220 C   0  0  0  0  0  0  0  0  0  0  0  0
    6.6600   -0.0470   19.0500 C   0  0  0  0  0  0  0  0  0  0  0  0
    9.1930   -1.7200   21.7800 C   0  0  0  0  0  0  0  0  0  0  0  0
   10.5270   -1.7960   22.2040 C   0  0  0  0  0  0  0  0  0  0  0  0
   10.7910   -1.7870   23.5810 C   0  0  0  0  0  0  0  0  0  0  0  0
    9.7170   -1.7230   24.4380 C   0  0  0  0  0  0  0  0  0  0  0  0
    8.3750   -1.6500   24.0050 C   0  0  0  0  0  0  0  0  0  0  0  0
    8.0850   -1.6380   22.6360 C   0  0  0  0  0  0  0  0  0  0  0  0
    2.5160   -4.1790   25.7520 C   0  0  0  0  0  0  0  0  0  0  0  0
    3.8620   -3.8430   25.9140 C   0  0  0  0  0  0  0  0  0  0  0  0
    4.2370   -2.5000   26.0570 C   0  0  0  0  0  0  0  0  0  0  0  0
    3.2580   -1.4960   26.0350 C   0  0  0  0  0  0  0  0  0  0  0  0
    1.9150   -1.8470   25.8740 C   0  0  0  0  0  0  0  0  0  0  0  0
    1.5390   -3.1830   25.7310 C   0  0  0  0  0  0  0  0  0  0  0  0
    6.5590   -5.2180   21.7300 C   0  0  0  0  0  0  0  0  0  0  0  0
    7.5500   -5.6710   22.7640 C   0  0  0  0  0  0  0  0  0  0  0  0
    7.1740   -5.1180   24.1570 C   0  0  0  0  0  0  0  0  0  0  0  0
    5.7200   -5.2280   24.3890 N   0  0  0  0  0  0  0  0  0  0  0  0
    5.0060   -6.1390   23.4780 C   0  0  0  0  0  0  0  0  0  0  0  0
    5.1690   -5.7170   22.0250 C   0  0  0  0  0  0  0  0  0  0  0  0
  2  4  1  0
  1  7  1  0
  3  7  2  0
  4  7  1  6
  1  8  1  0
  5  9  1  0
  6  9  2  0
  8  9  1  6
  5 10  1  0
 11 12  1  0
 11 13  1  0
 11 14  1  0
  2 15  1  6
 16 20  2  0
 17 20  2  0
 21 22  2  0
 22 23  1  0
 23 24  2  0
  8 25  1  0
 24 25  1  0
 21 26  1  0
 25 26  2  0
 27 28  2  0
 11 29  1  0
 28 29  1  0
 29 30  2  0
 30 31  1  0
  1 32  1  0
 27 32  1  0
 31 32  2  0
 18 33  1  0
 20 34  1  0
 33 34  2  0
 19 35  1  0
 34 35  1  0
 35 36  2  0
 36 37  1  0
 33 38  1  0
 37 38  2  0
  2 39  1  0
  4 39  1  0
 39 40  1  0
 40 41  1  0
 20 42  1  0
 41 42  1  0
 42 43  1  0
 39 44  1  0
 43 44  1  0
M  END
