x3124-x0771
     RDKit          3D

 44 49  0  0  0  0  0  0  0  0999 V2000
    6.7220   -1.4950   22.0810 N   0  0  0  0  0  0  0  0  0  0  0  0
    6.7110   -4.4800   20.2670 C   0  0  2  0  0  0  0  0  0  0  0  0
    4.7140   -2.9720   21.4070 O   0  0  0  0  0  0  0  0  0  0  0  0
    6.9190   -3.7070   21.4780 C   0  0  2  0  0  0  0  0  0  0  0  0
    7.4500    1.6540   23.1040 N   0  0  0  0  0  0  0  0  0  0  0  0
    8.6500    0.7080   21.3790 O   0  0  0  0  0  0  0  0  0  0  0  0
    5.9620   -2.6700   21.6550 C   0  0  0  0  0  0  0  0  0  0  0  0
    6.4050   -0.0690   21.7740 C   0  0  1  0  0  0  0  0  0  0  0  0
    7.6180    0.7710   22.0490 C   0  0  0  0  0  0  0  0  0  0  0  0
    7.9530    2.9320   23.0660 C   0  0  0  0  0  0  0  0  0  0  0  0
   12.1360   -1.9410   24.1730 C   0  0  0  0  0  0  0  0  0  0  0  0
   12.4450   -0.7920   24.9010 C   0  0  0  0  0  0  0  0  0  0  0  0
   13.2780   -2.1680   23.1650 C   0  0  0  0  0  0  0  0  0  0  0  0
   12.0440   -3.1160   25.1500 C   0  0  0  0  0  0  0  0  0  0  0  0
    5.4750   -4.3460   19.5780 O   0  0  0  0  0  0  0  0  0  0  0  0
    0.4280   -1.5150   26.2630 C   0  0  0  0  0  0  0  0  0  0  0  0
    4.5080   -6.8770   25.7310 O   0  0  0  0  0  0  0  0  0  0  0  0
    6.1230   -5.2370   26.6460 O   0  0  0  0  0  0  0  0  0  0  0  0
    2.0810   -6.0030   25.0180 C   0  0  0  0  0  0  0  0  0  0  0  0
    5.0670   -5.4780   25.5960 S   0  0  0  0  0  0  0  0  0  0  0  0
    6.3790    0.3030   18.0180 N   0  0  0  0  0  0  0  0  0  0  0  0
    5.2460    1.0010   17.8330 C   0  0  0  0  0  0  0  0  0  0  0  0
    4.3080    1.4360   18.8520 C   0  0  0  0  0  0  0  0  0  0  0  0
    4.7290    1.0380   20.1840 C   0  0  0  0  0  0  0  0  0  0  0  0
    5.9050    0.3250   20.4040 C   0  0  0  0  0  0  0  0  0  0  0  0
    6.6840   -0.0200   19.2890 C   0  0  0  0  0  0  0  0  0  0  0  0
    9.1780   -1.6620   21.6980 C   0  0  0  0  0  0  0  0  0  0  0  0
   10.4590   -1.7650   22.2060 C   0  0  0  0  0  0  0  0  0  0  0  0
   10.7270   -1.8290   23.5680 C   0  0  0  0  0  0  0  0  0  0  0  0
    9.6440   -1.7910   24.4300 C   0  0  0  0  0  0  0  0  0  0  0  0
    8.3300   -1.6880   23.9630 C   0  0  0  0  0  0  0  0  0  0  0  0
    8.0890   -1.6200   22.5900 C   0  0  0  0  0  0  0  0  0  0  0  0
    1.6030   -2.4370   26.1150 C   0  0  0  0  0  0  0  0  0  0  0  0
    1.4080   -3.7420   25.6630 C   0  0  0  0  0  0  0  0  0  0  0  0
    2.4700   -4.6370   25.5160 C   0  0  0  0  0  0  0  0  0  0  0  0
    3.7940   -4.2680   25.8170 C   0  0  0  0  0  0  0  0  0  0  0  0
    4.0280   -2.9640   26.2700 C   0  0  0  0  0  0  0  0  0  0  0  0
    2.8780   -1.9850   26.4310 C   0  0  0  0  0  0  0  0  0  0  0  0
    6.6860   -5.2260   21.5240 C   0  0  1  0  0  0  0  0  0  0  0  0
    5.8600   -6.3390   21.9080 C   0  0  0  0  0  0  0  0  0  0  0  0
    4.8830   -5.7570   22.9130 C   0  0  0  0  0  0  0  0  0  0  0  0
    5.6630   -5.1870   24.0480 N   0  0  0  0  0  0  0  0  0  0  0  0
    7.1580   -5.1700   23.8340 C   0  0  0  0  0  0  0  0  0  0  0  0
    7.4500   -4.5500   22.6090 C   0  0  2  0  0  0  0  0  0  0  0  0
  2  4  1  0
  1  7  1  0
  3  7  2  0
  4  7  1  1
  1  8  1  0
  5  9  1  0
  6  9  2  0
  8  9  1  6
  5 10  1  0
 11 12  1  0
 11 13  1  0
 11 14  1  0
  2 15  1  1
 17 20  2  0
 18 20  2  0
 21 22  2  0
 22 23  1  0
 23 24  2  0
  8 25  1  0
 24 25  1  0
 21 26  1  0
 25 26  2  0
 27 28  2  0
 11 29  1  0
 28 29  1  0
 29 30  2  0
 30 31  1  0
  1 32  1  0
 27 32  1  0
 31 32  2  0
 16 33  1  0
 33 34  2  0
 19 35  1  0
 34 35  1  0
 20 36  1  0
 35 36  2  0
 36 37  1  0
 33 38  1  0
 37 38  2  0
  2 39  1  0
  4 39  1  0
 39 40  1  1
 40 41  1  0
 20 42  1  0
 41 42  1  0
 42 43  1  0
  4 44  1  0
 39 44  1  0
 44 43  1  1
M  END
