x3124-x2694
     RDKit          3D

 34 36  0  0  0  0  0  0  0  0999 V2000
    7.1770   -1.5320   21.7330 N   0  0  0  0  0  0  0  0  0  0  0  0
    6.9740   -4.9500   20.7040 C   0  0  0  0  0  0  0  0  0  0  0  0
    4.8820   -3.0240   21.1840 O   0  0  0  0  0  0  0  0  0  0  0  0
    6.9490   -3.9790   21.8170 C   0  0  0  0  0  0  0  0  0  0  0  0
    7.6140    2.0430   22.6950 N   0  0  0  0  0  0  0  0  0  0  0  0
    9.0730    0.6800   21.5240 O   0  0  0  0  0  0  0  0  0  0  0  0
    6.2110   -2.7450   21.5430 C   0  0  0  0  0  0  0  0  0  0  0  0
   10.8190    6.5980   23.8360 O   0  0  0  0  0  0  0  0  0  0  0  0
    6.7580   -0.0590   21.6200 C   0  0  1  0  0  0  0  0  0  0  0  0
    7.9340    0.8850   21.9320 C   0  0  0  0  0  0  0  0  0  0  0  0
   10.2190    1.7130   24.0420 C   0  0  0  0  0  0  0  0  0  0  0  0
   11.8550    6.5160   24.8190 C   0  0  0  0  0  0  0  0  0  0  0  0
   11.9700   -1.4400   22.9640 C   0  0  0  0  0  0  0  0  0  0  0  0
   12.3800   -0.1270   23.1120 C   0  0  0  0  0  0  0  0  0  0  0  0
   12.3280   -1.9410   21.5680 C   0  0  0  0  0  0  0  0  0  0  0  0
   12.9570   -2.2430   23.8380 C   0  0  0  0  0  0  0  0  0  0  0  0
   12.4180   -2.6960   25.0210 C   0  0  0  0  0  0  0  0  0  0  0  0
    6.3730    0.4330   17.8550 N   0  0  0  0  0  0  0  0  0  0  0  0
    5.2800    1.2140   17.8330 C   0  0  0  0  0  0  0  0  0  0  0  0
    4.5280    1.6610   19.0020 C   0  0  0  0  0  0  0  0  0  0  0  0
    5.1030    1.1690   20.2500 C   0  0  0  0  0  0  0  0  0  0  0  0
    6.2390    0.3650   20.2650 C   0  0  0  0  0  0  0  0  0  0  0  0
    6.8700   -0.0110   19.0860 C   0  0  0  0  0  0  0  0  0  0  0  0
    8.4290   -1.9230   23.9340 N   0  0  0  0  0  0  0  0  0  0  0  0
    9.7520   -1.9320   24.4380 O   0  0  0  0  0  0  0  0  0  0  0  0
   10.5150   -1.6510   23.3900 C   0  0  0  0  0  0  0  0  0  0  0  0
    9.8270   -1.4530   22.2130 C   0  0  0  0  0  0  0  0  0  0  0  0
    8.4310   -1.6300   22.5610 C   0  0  0  0  0  0  0  0  0  0  0  0
    9.6870    3.0550   23.6230 C   0  0  0  0  0  0  0  0  0  0  0  0
   10.4920    4.1650   23.9070 C   0  0  0  0  0  0  0  0  0  0  0  0
   10.0970    5.4540   23.5800 C   0  0  0  0  0  0  0  0  0  0  0  0
    8.8660    5.6460   22.9360 C   0  0  0  0  0  0  0  0  0  0  0  0
    8.0520    4.5290   22.6380 C   0  0  0  0  0  0  0  0  0  0  0  0
    8.4330    3.2100   22.9740 C   0  0  0  0  0  0  0  0  0  0  0  0
  2  4  1  0
  1  7  1  0
  3  7  2  0
  4  7  1  0
  1  9  1  0
  5 10  1  0
  6 10  2  0
  9 10  1  6
  8 12  1  0
 13 14  1  0
 13 15  1  0
 13 16  1  0
 16 17  1  0
 18 19  2  0
 19 20  1  0
 20 21  2  0
  9 22  1  0
 21 22  1  0
 18 23  1  0
 22 23  2  0
 24 25  1  0
 13 26  1  0
 25 26  1  0
 26 27  2  0
  1 28  1  0
 24 28  2  0
 27 28  1  0
 11 29  1  0
 29 30  2  0
  8 31  1  0
 30 31  1  0
 31 32  2  0
 32 33  1  0
  5 34  1  0
 29 34  1  0
 33 34  2  0
M  END
