x3124-x3115
     RDKit          3D

 29 30  0  0  0  0  0  0  0  0999 V2000
    6.7150   -1.6210   22.0380 N   0  0  0  0  0  0  0  0  0  0  0  0
    7.5120   -4.0910   20.3170 C   0  0  0  0  0  0  0  0  0  0  0  0
    4.7210   -3.1270   21.6350 O   0  0  0  0  0  0  0  0  0  0  0  0
    6.4340   -3.1360   20.1410 C   0  0  0  0  0  0  0  0  0  0  0  0
    7.2110    1.8060   22.8310 N   0  0  0  0  0  0  0  0  0  0  0  0
    8.7440    0.5010   21.6770 O   0  0  0  0  0  0  0  0  0  0  0  0
    5.8730   -2.6170   21.3490 C   0  0  0  0  0  0  0  0  0  0  0  0
    8.4930    5.2000   22.9210 O   0  0  0  0  0  0  0  0  0  0  0  0
    6.4260   -0.1720   21.7660 C   0  0  1  0  0  0  0  0  0  0  0  0
    7.5970    0.7050   22.0760 C   0  0  0  0  0  0  0  0  0  0  0  0
    8.0250    2.8630   23.1300 C   0  0  0  0  0  0  0  0  0  0  0  0
    7.7830    4.1170   22.3080 C   0  0  0  0  0  0  0  0  0  0  0  0
    8.3060    6.4130   22.1970 C   0  0  0  0  0  0  0  0  0  0  0  0
   12.2630   -1.7920   24.0600 C   0  0  0  0  0  0  0  0  0  0  0  0
   13.1680   -1.7750   23.0070 C   0  0  0  0  0  0  0  0  0  0  0  0
   12.6820   -2.9500   24.9280 C   0  0  0  0  0  0  0  0  0  0  0  0
   12.4070   -0.6350   24.8750 C   0  0  0  0  0  0  0  0  0  0  0  0
    6.3790    0.2980   18.0170 N   0  0  0  0  0  0  0  0  0  0  0  0
    5.2470    1.0030   17.8480 C   0  0  0  0  0  0  0  0  0  0  0  0
    4.3200    1.4100   18.8910 C   0  0  0  0  0  0  0  0  0  0  0  0
    4.7490    0.9750   20.2060 C   0  0  0  0  0  0  0  0  0  0  0  0
    5.9250    0.2540   20.4060 C   0  0  0  0  0  0  0  0  0  0  0  0
    6.6970   -0.0610   19.2730 C   0  0  0  0  0  0  0  0  0  0  0  0
    9.1840   -1.9740   21.6830 C   0  0  0  0  0  0  0  0  0  0  0  0
   10.4800   -2.0070   22.1750 C   0  0  0  0  0  0  0  0  0  0  0  0
   10.8050   -1.7940   23.5060 C   0  0  0  0  0  0  0  0  0  0  0  0
    9.7280   -1.5570   24.3450 C   0  0  0  0  0  0  0  0  0  0  0  0
    8.3890   -1.5160   23.8980 C   0  0  0  0  0  0  0  0  0  0  0  0
    8.1050   -1.7180   22.5410 C   0  0  0  0  0  0  0  0  0  0  0  0
  2  4  1  0
  1  7  1  0
  3  7  2  0
  4  7  1  0
  1  9  1  0
  5 10  1  0
  6 10  2  0
  9 10  1  6
  5 11  1  0
  8 12  1  0
 11 12  1  0
  8 13  1  0
 14 15  1  0
 14 16  1  0
 14 17  1  0
 18 19  2  0
 19 20  1  0
 20 21  2  0
  9 22  1  0
 21 22  1  0
 18 23  1  0
 22 23  2  0
 24 25  2  0
 14 26  1  0
 25 26  1  0
 26 27  2  0
 27 28  1  0
  1 29  1  0
 24 29  1  0
 28 29  2  0
M  END
