x3124-x0354
     RDKit          3D

 37 39  0  0  0  0  0  0  0  0999 V2000
    6.8580   -1.7120   21.6000 N   0  0  0  0  0  0  0  0  0  0  0  0
    6.7340   -4.9680   20.4500 C   0  0  0  0  0  0  0  0  0  0  0  0
    4.8070   -3.0140   21.2230 O   0  0  0  0  0  0  0  0  0  0  0  0
    6.7600   -4.1890   21.7470 C   0  0  0  0  0  0  0  0  0  0  0  0
    7.3210    1.5040   23.0360 N   0  0  0  0  0  0  0  0  0  0  0  0
    8.6680    0.7740   21.3660 O   0  0  0  0  0  0  0  0  0  0  0  0
    6.0370   -2.8980   21.5030 C   0  0  0  0  0  0  0  0  0  0  0  0
    6.4500   -0.2730   21.4790 C   0  0  1  0  0  0  0  0  0  0  0  0
    7.5860    0.6950   21.9510 C   0  0  0  0  0  0  0  0  0  0  0  0
    8.0600    2.7310   23.1800 C   0  0  0  0  0  0  0  0  0  0  0  0
   12.1210   -1.7520   24.2320 C   0  0  0  0  0  0  0  0  0  0  0  0
   12.3320   -0.5430   25.1170 C   0  0  0  0  0  0  0  0  0  0  0  0
   13.1490   -1.6990   23.0790 C   0  0  0  0  0  0  0  0  0  0  0  0
   12.6160   -3.0000   24.9800 C   0  0  0  0  0  0  0  0  0  0  0  0
    7.8110   -2.1370   25.8670 O   0  0  0  0  0  0  0  0  0  0  0  0
    7.8820   -0.3960   27.6420 O   0  0  0  0  0  0  0  0  0  0  0  0
    8.6770   -1.2950   25.6350 C   0  0  0  0  0  0  0  0  0  0  0  0
    8.8480   -0.1340   26.6070 C   0  0  0  0  0  0  0  0  0  0  0  0
    5.5740    3.7900   30.6960 C   0  0  0  0  0  0  0  0  0  0  0  0
    6.2870    0.4970   17.7790 N   0  0  0  0  0  0  0  0  0  0  0  0
    5.1800    1.2660   17.7770 C   0  0  0  0  0  0  0  0  0  0  0  0
    4.4340    1.5570   18.8900 C   0  0  0  0  0  0  0  0  0  0  0  0
    4.8510    1.0370   20.0940 C   0  0  0  0  0  0  0  0  0  0  0  0
    5.9990    0.2440   20.1460 C   0  0  0  0  0  0  0  0  0  0  0  0
    6.6740    0.0010   18.9620 C   0  0  0  0  0  0  0  0  0  0  0  0
    9.3030   -1.9740   21.6630 C   0  0  0  0  0  0  0  0  0  0  0  0
   10.5320   -1.9660   22.3320 C   0  0  0  0  0  0  0  0  0  0  0  0
   10.6430   -1.7380   23.7170 C   0  0  0  0  0  0  0  0  0  0  0  0
    9.3320   -1.5390   24.3330 C   0  0  0  0  0  0  0  0  0  0  0  0
    8.1700   -1.5570   23.5870 C   0  0  0  0  0  0  0  0  0  0  0  0
    8.1250   -1.7580   22.2680 C   0  0  0  0  0  0  0  0  0  0  0  0
    7.7710    1.8080   28.3120 C   0  0  0  0  0  0  0  0  0  0  0  0
    7.2380    2.8710   29.0480 C   0  0  0  0  0  0  0  0  0  0  0  0
    6.1500    2.6560   29.8990 C   0  0  0  0  0  0  0  0  0  0  0  0
    5.6120    1.3700   29.9930 C   0  0  0  0  0  0  0  0  0  0  0  0
    6.1590    0.3130   29.2530 C   0  0  0  0  0  0  0  0  0  0  0  0
    7.2490    0.5360   28.4090 C   0  0  0  0  0  0  0  0  0  0  0  0
  2  4  1  0
  1  7  1  0
  3  7  2  0
  4  7  1  0
  1  8  1  0
  5  9  1  0
  6  9  2  0
  8  9  1  6
  5 10  1  0
 11 12  1  0
 11 13  1  0
 11 14  1  0
 15 17  2  0
 16 18  1  0
 17 18  1  0
 20 21  2  0
 21 22  1  0
 22 23  2  0
  8 24  1  0
 23 24  1  0
 20 25  1  0
 24 25  2  0
 26 27  2  0
 11 28  1  0
 27 28  1  0
 17 29  1  0
 28 29  2  0
 29 30  1  0
  1 31  1  0
 26 31  1  0
 30 31  2  0
 32 33  2  0
 19 34  1  0
 33 34  1  0
 34 35  2  0
 35 36  1  0
 16 37  1  0
 32 37  1  0
 36 37  2  0
M  END
