x3124-x2703
     RDKit          3D

 34 36  0  0  0  0  0  0  0  0999 V2000
    6.9310   -1.7090   21.8510 N   0  0  0  0  0  0  0  0  0  0  0  0
    6.8140   -5.0390   20.4800 C   0  0  0  0  0  0  0  0  0  0  0  0
    4.8130   -3.0160   21.2590 O   0  0  0  0  0  0  0  0  0  0  0  0
    6.7600   -4.1840   21.6980 C   0  0  0  0  0  0  0  0  0  0  0  0
    7.2910    1.8240   22.7530 N   0  0  0  0  0  0  0  0  0  0  0  0
    8.8050    0.5230   21.5790 O   0  0  0  0  0  0  0  0  0  0  0  0
    6.0670   -2.8920   21.5850 C   0  0  0  0  0  0  0  0  0  0  0  0
    6.5180   -0.2560   21.6820 C   0  0  1  0  0  0  0  0  0  0  0  0
    7.6630    0.6980   21.9910 C   0  0  0  0  0  0  0  0  0  0  0  0
   10.0150    1.8720   23.9630 C   0  0  0  0  0  0  0  0  0  0  0  0
    9.1750    1.1320   24.9990 C   0  0  0  0  0  0  0  0  0  0  0  0
    6.0780    4.2640   21.7890 C   0  0  0  0  0  0  0  0  0  0  0  0
   12.3150   -1.8650   23.9870 C   0  0  0  0  0  0  0  0  0  0  0  0
   12.6160   -2.8960   24.8440 C   0  0  0  0  0  0  0  0  0  0  0  0
   12.5760   -0.5810   24.7360 C   0  0  0  0  0  0  0  0  0  0  0  0
   13.2140   -1.8860   22.8900 C   0  0  0  0  0  0  0  0  0  0  0  0
    6.3260    0.3200   17.9610 N   0  0  0  0  0  0  0  0  0  0  0  0
    5.1680    0.9920   17.8470 C   0  0  0  0  0  0  0  0  0  0  0  0
    4.2640    1.3380   18.9310 C   0  0  0  0  0  0  0  0  0  0  0  0
    4.7450    0.8830   20.2230 C   0  0  0  0  0  0  0  0  0  0  0  0
    5.9500    0.1960   20.3570 C   0  0  0  0  0  0  0  0  0  0  0  0
    6.6940   -0.0620   19.1970 C   0  0  0  0  0  0  0  0  0  0  0  0
   10.6620   -2.1960   22.1910 N   0  0  0  0  0  0  0  0  0  0  0  0
   10.8620   -1.8540   23.4610 C   0  0  0  0  0  0  0  0  0  0  0  0
    9.7790   -1.4950   24.2300 C   0  0  0  0  0  0  0  0  0  0  0  0
    8.4440   -1.4390   23.7860 C   0  0  0  0  0  0  0  0  0  0  0  0
    8.2660   -1.7770   22.4490 C   0  0  0  0  0  0  0  0  0  0  0  0
    9.3860   -2.1460   21.7330 C   0  0  0  0  0  0  0  0  0  0  0  0
    9.3410    3.0820   23.4580 C   0  0  0  0  0  0  0  0  0  0  0  0
   10.0120    4.3190   23.5540 C   0  0  0  0  0  0  0  0  0  0  0  0
    9.4070    5.4920   23.0860 C   0  0  0  0  0  0  0  0  0  0  0  0
    8.1340    5.4420   22.5200 C   0  0  0  0  0  0  0  0  0  0  0  0
    7.4490    4.2280   22.4140 C   0  0  0  0  0  0  0  0  0  0  0  0
    8.0410    3.0400   22.8820 C   0  0  0  0  0  0  0  0  0  0  0  0
  2  4  1  0
  1  7  1  0
  3  7  2  0
  4  7  1  0
  1  8  1  0
  5  9  1  0
  6  9  2  0
  8  9  1  6
 10 11  1  0
 13 14  1  0
 13 15  1  0
 13 16  1  0
 17 18  2  0
 18 19  1  0
 19 20  2  0
  8 21  1  0
 20 21  1  0
 17 22  1  0
 21 22  2  0
 13 24  1  0
 23 24  2  0
 24 25  1  0
 25 26  2  0
  1 27  1  0
 26 27  1  0
 23 28  1  0
 27 28  2  0
 10 29  1  0
 29 30  2  0
 30 31  1  0
 31 32  2  0
 12 33  1  0
 32 33  1  0
  5 34  1  0
 29 34  1  0
 33 34  2  0
M  END
