x3124-x3117-x0769-x0731
     RDKit          3D

 49 55  0  0  0  0  0  0  0  0999 V2000
    6.6890   -1.4600   22.1560 N   0  0  0  0  0  0  0  0  0  0  0  0
    6.7030   -4.5480   20.3000 C   0  0  2  0  0  0  0  0  0  0  0  0
    4.6480   -2.9210   21.4500 O   0  0  0  0  0  0  0  0  0  0  0  0
    6.7800   -3.6540   21.4230 C   0  0  2  0  0  0  0  0  0  0  0  0
    7.6640    1.9080   22.9880 N   0  0  0  0  0  0  0  0  0  0  0  0
    8.7630    0.7270   21.3590 O   0  0  0  0  0  0  0  0  0  0  0  0
    5.8930   -2.6090   21.6830 C   0  0  0  0  0  0  0  0  0  0  0  0
    6.4840   -0.0270   21.7520 C   0  0  1  0  0  0  0  0  0  0  0  0
    7.7410    0.8920   22.0240 C   0  0  0  0  0  0  0  0  0  0  0  0
   12.2490   -1.7940   24.0170 C   0  0  0  0  0  0  0  0  0  0  0  0
   12.5090   -0.5330   24.8110 C   0  0  0  0  0  0  0  0  0  0  0  0
   13.2810   -1.8580   22.8880 C   0  0  0  0  0  0  0  0  0  0  0  0
   12.6080   -2.9720   24.9170 C   0  0  0  0  0  0  0  0  0  0  0  0
    5.5070   -4.4240   19.5470 O   0  0  0  0  0  0  0  0  0  0  0  0
    5.9350   -5.0800   26.7120 O   0  0  0  0  0  0  0  0  0  0  0  0
    4.1280   -6.5420   25.7880 O   0  0  0  0  0  0  0  0  0  0  0  0
    5.6060   -2.4010   26.2660 F   0  0  0  0  0  0  0  0  0  0  0  0
    4.9160   -5.3320   25.7210 S   0  0  0  0  0  0  0  0  0  0  0  0
    1.0940   -0.6140   26.0190 C   0  0  0  0  0  0  0  0  0  0  0  0
    6.3260    0.3760   17.9740 N   0  0  0  0  0  0  0  0  0  0  0  0
    5.1830    1.0560   17.8390 C   0  0  0  0  0  0  0  0  0  0  0  0
    4.2980    1.4460   19.0140 C   0  0  0  0  0  0  0  0  0  0  0  0
    4.7400    1.0680   20.2580 C   0  0  0  0  0  0  0  0  0  0  0  0
    5.9420    0.3690   20.3950 C   0  0  0  0  0  0  0  0  0  0  0  0
    6.6760    0.0500   19.2390 C   0  0  0  0  0  0  0  0  0  0  0  0
    9.1280   -1.8880   21.7670 C   0  0  0  0  0  0  0  0  0  0  0  0
   10.4830   -1.9750   22.2030 C   0  0  0  0  0  0  0  0  0  0  0  0
   10.7870   -1.7380   23.5300 C   0  0  0  0  0  0  0  0  0  0  0  0
    9.7330   -1.4340   24.3870 C   0  0  0  0  0  0  0  0  0  0  0  0
    8.3880   -1.3520   23.9610 C   0  0  0  0  0  0  0  0  0  0  0  0
    8.0600   -1.5740   22.6230 C   0  0  0  0  0  0  0  0  0  0  0  0
    9.7900    5.1180   24.1190 O   0  0  0  0  0  0  0  0  0  0  0  0
   10.4450    3.9270   23.6990 C   0  0  0  0  0  0  0  0  0  0  0  0
    9.6230    2.7860   23.8770 C   0  0  0  0  0  0  0  0  0  0  0  0
    8.6280    3.0390   22.9400 C   0  0  0  0  0  0  0  0  0  0  0  0
    7.8900    4.2060   23.1900 C   0  0  0  0  0  0  0  0  0  0  0  0
    8.6960    5.3820   23.2520 C   0  0  0  0  0  0  0  0  0  0  0  0
    4.3080   -2.6570   26.0610 C   0  0  0  0  0  0  0  0  0  0  0  0
    3.8290   -3.9390   25.7940 C   0  0  0  0  0  0  0  0  0  0  0  0
    2.4400   -4.1420   25.5880 C   0  0  0  0  0  0  0  0  0  0  0  0
    1.5350   -3.0530   25.6570 C   0  0  0  0  0  0  0  0  0  0  0  0
    2.0260   -1.7780   25.9310 C   0  0  0  0  0  0  0  0  0  0  0  0
    3.4030   -1.6070   26.1230 C   0  0  0  0  0  0  0  0  0  0  0  0
    6.5800   -5.2610   21.5400 C   0  0  1  0  0  0  0  0  0  0  0  0
    5.4790   -6.0010   21.9220 C   0  0  0  0  0  0  0  0  0  0  0  0
    4.7400   -5.4830   22.9870 C   0  0  0  0  0  0  0  0  0  0  0  0
    5.6590   -5.3790   24.1450 N   0  0  0  0  0  0  0  0  0  0  0  0
    6.8440   -4.4820   23.8680 C   0  0  0  0  0  0  0  0  0  0  0  0
    7.3510   -4.6120   22.5480 C   0  0  2  0  0  0  0  0  0  0  0  0
  2  4  1  0
  1  7  1  0
  3  7  2  0
  4  7  1  6
  1  8  1  0
  5  9  1  0
  6  9  2  0
  8  9  1  6
 10 11  1  0
 10 12  1  0
 10 13  1  0
  2 14  1  6
 15 18  2  0
 16 18  2  0
 20 21  2  0
 21 22  1  0
 22 23  2  0
  8 24  1  0
 23 24  1  0
 20 25  1  0
 24 25  2  0
 26 27  2  0
 10 28  1  0
 27 28  1  0
 28 29  2  0
 29 30  1  0
  1 31  1  0
 26 31  1  0
 30 31  2  0
 32 33  1  0
 33 34  1  0
  5 35  1  0
 34 35  1  0
 35 36  1  0
 32 37  1  0
 36 37  1  0
 17 38  1  0
 18 39  1  0
 38 39  2  0
 39 40  1  0
 40 41  2  0
 19 42  1  0
 41 42  1  0
 38 43  1  0
 42 43  2  0
  2 44  1  0
  4 44  1  0
 44 45  1  6
 45 46  1  0
 18 47  1  0
 46 47  1  0
 47 48  1  0
  4 49  1  0
 44 49  1  0
 49 48  1  1
M  END
