x3124-x0691
     RDKit          3D

 43 47  0  0  0  0  0  0  0  0999 V2000
    6.7400   -1.5880   22.1250 N   0  0  0  0  0  0  0  0  0  0  0  0
    6.6630   -4.1200   20.0210 C   0  0  0  0  0  0  0  0  0  0  0  0
    4.7250   -3.0140   21.4570 O   0  0  0  0  0  0  0  0  0  0  0  0
    6.8800   -3.8620   21.4520 C   0  0  2  0  0  0  0  0  0  0  0  0
    7.3990    1.5510   23.1380 N   0  0  0  0  0  0  0  0  0  0  0  0
    8.6680    0.6460   21.4430 O   0  0  0  0  0  0  0  0  0  0  0  0
    5.9860   -2.7620   21.6890 C   0  0  0  0  0  0  0  0  0  0  0  0
    6.4240   -0.1750   21.7480 C   0  0  1  0  0  0  0  0  0  0  0  0
    7.6130    0.6810   22.0800 C   0  0  0  0  0  0  0  0  0  0  0  0
    7.9170    2.8210   23.1560 C   0  0  0  0  0  0  0  0  0  0  0  0
   12.1600   -1.9270   24.2070 C   0  0  0  0  0  0  0  0  0  0  0  0
   12.5300   -0.7900   24.9220 C   0  0  0  0  0  0  0  0  0  0  0  0
   13.2460   -2.1720   23.1430 C   0  0  0  0  0  0  0  0  0  0  0  0
   12.0870   -3.1090   25.1710 C   0  0  0  0  0  0  0  0  0  0  0  0
    5.7490   -5.1180   19.6140 O   0  0  0  0  0  0  0  0  0  0  0  0
    4.0680   -6.8190   26.0840 O   0  0  0  0  0  0  0  0  0  0  0  0
    5.7290   -5.2050   26.9240 O   0  0  0  0  0  0  0  0  0  0  0  0
    3.1940   -0.6320   25.9980 F   0  0  0  0  0  0  0  0  0  0  0  0
    4.7260   -5.4790   25.8330 S   0  0  0  0  0  0  0  0  0  0  0  0
    6.2810    0.3500   17.8680 N   0  0  0  0  0  0  0  0  0  0  0  0
    5.1830    1.1270   17.8410 C   0  0  0  0  0  0  0  0  0  0  0  0
    4.4100    1.5260   18.9260 C   0  0  0  0  0  0  0  0  0  0  0  0
    4.8410    1.0710   20.1530 C   0  0  0  0  0  0  0  0  0  0  0  0
    6.0230    0.2280   20.3580 C   0  0  0  0  0  0  0  0  0  0  0  0
    6.6730   -0.0760   19.0840 C   0  0  0  0  0  0  0  0  0  0  0  0
    9.2060   -1.6820   21.7710 C   0  0  0  0  0  0  0  0  0  0  0  0
   10.5210   -1.7590   22.2220 C   0  0  0  0  0  0  0  0  0  0  0  0
   10.7630   -1.8440   23.5890 C   0  0  0  0  0  0  0  0  0  0  0  0
    9.6900   -1.8580   24.4460 C   0  0  0  0  0  0  0  0  0  0  0  0
    8.3660   -1.7820   23.9930 C   0  0  0  0  0  0  0  0  0  0  0  0
    8.0970   -1.6890   22.6310 C   0  0  0  0  0  0  0  0  0  0  0  0
    2.8870   -1.9290   25.8900 C   0  0  0  0  0  0  0  0  0  0  0  0
    3.8950   -2.8920   25.9140 C   0  0  0  0  0  0  0  0  0  0  0  0
    3.5610   -4.2450   25.8040 C   0  0  0  0  0  0  0  0  0  0  0  0
    2.2210   -4.6360   25.6650 C   0  0  0  0  0  0  0  0  0  0  0  0
    1.2190   -3.6640   25.6420 C   0  0  0  0  0  0  0  0  0  0  0  0
    1.5460   -2.3110   25.7560 C   0  0  0  0  0  0  0  0  0  0  0  0
    6.7190   -5.2770   21.7220 N   0  0  0  0  0  0  0  0  0  0  0  0
    5.4450   -5.9770   21.9240 C   0  0  0  0  0  0  0  0  0  0  0  0
    4.6060   -5.6580   23.1340 C   0  0  0  0  0  0  0  0  0  0  0  0
    5.4820   -5.4650   24.3130 N   0  0  0  0  0  0  0  0  0  0  0  0
    6.5330   -4.4240   24.0680 C   0  0  0  0  0  0  0  0  0  0  0  0
    7.2670   -4.5930   22.8080 C   0  0  2  0  0  0  0  0  0  0  0  0
  4  2  1  6
  1  7  1  0
  3  7  2  0
  4  7  1  0
  1  8  1  0
  5  9  1  0
  6  9  2  0
  8  9  1  6
  5 10  1  0
 11 12  1  0
 11 13  1  0
 11 14  1  0
  2 15  2  0
 16 19  2  0
 17 19  2  0
 20 21  2  0
 21 22  1  0
 22 23  2  0
  8 24  1  0
 23 24  1  0
 20 25  1  0
 24 25  2  0
 26 27  2  0
 11 28  1  0
 27 28  1  0
 28 29  2  0
 29 30  1  0
  1 31  1  0
 26 31  1  0
 30 31  2  0
 18 32  1  0
 32 33  2  0
 19 34  1  0
 33 34  1  0
 34 35  2  0
 35 36  1  0
 32 37  1  0
 36 37  2  0
  4 38  1  0
 38 39  1  0
 39 40  1  0
 19 41  1  0
 40 41  1  0
 41 42  1  0
  4 43  1  0
 38 43  1  0
 43 42  1  1
M  END
