x3124-x0161-x3117-x0731
     RDKit          3D

 56 63  0  0  0  0  0  0  0  0999 V2000
    6.6760   -1.4710   22.2070 N   0  0  0  0  0  0  0  0  0  0  0  0
    6.8100   -4.6040   20.2670 C   0  0  2  0  0  0  0  0  0  0  0  0
    4.6880   -2.9920   21.4930 O   0  0  0  0  0  0  0  0  0  0  0  0
    6.8720   -3.6780   21.4220 C   0  0  2  0  0  0  0  0  0  0  0  0
    7.1310    2.1840   22.8320 N   0  0  0  0  0  0  0  0  0  0  0  0
    8.6690    0.7270   21.8710 O   0  0  0  0  0  0  0  0  0  0  0  0
    5.9260   -2.6700   21.7170 C   0  0  0  0  0  0  0  0  0  0  0  0
    6.3480   -0.0230   21.8980 C   0  0  1  0  0  0  0  0  0  0  0  0
    7.5120    0.9730   22.2080 C   0  0  0  0  0  0  0  0  0  0  0  0
   12.2750   -2.0470   24.0190 C   0  0  0  0  0  0  0  0  0  0  0  0
   12.7600   -0.7060   24.4490 C   0  0  0  0  0  0  0  0  0  0  0  0
   13.2090   -2.3460   22.8430 C   0  0  0  0  0  0  0  0  0  0  0  0
   12.6830   -3.0050   25.1480 C   0  0  0  0  0  0  0  0  0  0  0  0
    5.5830   -4.7570   19.5890 O   0  0  0  0  0  0  0  0  0  0  0  0
    1.0320   -1.0710   25.9190 C   0  0  0  0  0  0  0  0  0  0  0  0
    6.4550   -4.8360   26.8020 O   0  0  0  0  0  0  0  0  0  0  0  0
    4.7430   -6.5690   26.1710 O   0  0  0  0  0  0  0  0  0  0  0  0
    5.3960   -5.3020   25.9340 S   0  0  0  0  0  0  0  0  0  0  0  0
   13.4190   -0.0160   23.6820 O   0  0  0  0  0  0  0  0  0  0  0  0
    9.8070    6.6030   24.1460 O   0  0  0  0  0  0  0  0  0  0  0  0
    6.2340    0.4910   17.8700 N   0  0  0  0  0  0  0  0  0  0  0  0
    5.2110    1.2880   17.7340 C   0  0  0  0  0  0  0  0  0  0  0  0
    4.5010    1.6890   18.7740 C   0  0  0  0  0  0  0  0  0  0  0  0
    4.8560    1.2710   20.0310 C   0  0  0  0  0  0  0  0  0  0  0  0
    6.0020    0.3610   20.4930 C   0  0  0  0  0  0  0  0  0  0  0  0
    6.5660    0.0790   19.2230 C   0  0  0  0  0  0  0  0  0  0  0  0
    9.1230   -1.7660   21.7870 C   0  0  0  0  0  0  0  0  0  0  0  0
   10.4670   -1.9060   22.1880 C   0  0  0  0  0  0  0  0  0  0  0  0
   10.7940   -1.9170   23.5530 C   0  0  0  0  0  0  0  0  0  0  0  0
    9.7460   -1.7920   24.5160 C   0  0  0  0  0  0  0  0  0  0  0  0
    8.3910   -1.6510   24.1000 C   0  0  0  0  0  0  0  0  0  0  0  0
    8.0730   -1.6340   22.6950 C   0  0  0  0  0  0  0  0  0  0  0  0
    9.9340    5.4010   23.9590 C   0  0  0  0  0  0  0  0  0  0  0  0
    9.7880    4.1120   23.5200 C   0  0  2  0  0  0  0  0  0  0  0  0
    8.8190    3.2920   23.9090 C   0  0  0  0  0  0  0  0  0  0  0  0
    8.1320    3.2580   22.8050 C   0  0  2  0  0  0  0  0  0  0  0  0
    7.7970    4.6080   22.5790 C   0  0  0  0  0  0  0  0  0  0  0  0
    8.7570    5.6380   23.0730 C   0  0  0  0  0  0  0  0  0  0  0  0
    2.1080   -2.1160   25.9030 C   0  0  0  0  0  0  0  0  0  0  0  0
    1.8510   -3.3720   25.3610 C   0  0  0  0  0  0  0  0  0  0  0  0
    2.8790   -4.3140   25.3810 C   0  0  0  0  0  0  0  0  0  0  0  0
    4.1400   -4.0440   25.9200 C   0  0  0  0  0  0  0  0  0  0  0  0
    4.3820   -2.7750   26.4500 C   0  0  0  0  0  0  0  0  0  0  0  0
    3.3620   -1.8160   26.4390 C   0  0  0  0  0  0  0  0  0  0  0  0
    6.8590   -5.1910   21.5770 C   0  0  2  0  0  0  0  0  0  0  0  0
    7.6970   -4.7060   22.5490 C   0  0  2  0  0  0  0  0  0  0  0  0
    7.3290   -4.7850   24.0450 C   0  0  0  0  0  0  0  0  0  0  0  0
    5.9970   -5.3520   24.3560 N   0  0  0  0  0  0  0  0  0  0  0  0
    5.0320   -5.4440   23.2520 C   0  0  0  0  0  0  0  0  0  0  0  0
    5.7000   -6.0250   22.0360 C   0  0  0  0  0  0  0  0  0  0  0  0
   12.9160    1.2810   23.1430 C   0  0  0  0  0  0  0  0  0  0  0  0
   13.1670    2.7050   22.6840 C   0  0  0  0  0  0  0  0  0  0  0  0
   12.1420    3.6250   22.8210 C   0  0  0  0  0  0  0  0  0  0  0  0
   10.9140    3.2000   23.3840 C   0  0  0  0  0  0  0  0  0  0  0  0
   10.7270    1.8800   23.8090 C   0  0  0  0  0  0  0  0  0  0  0  0
   11.6940    0.9440   23.6940 C   0  0  0  0  0  0  0  0  0  0  0  0
  2  4  1  0
  1  7  1  0
  3  7  2  0
  4  7  1  1
  1  8  1  0
  5  9  1  0
  6  9  2  0
  8  9  1  6
 10 11  1  0
 10 12  1  0
 10 13  1  0
  2 14  1  1
 16 18  2  0
 17 18  2  0
 11 19  2  0
 21 22  2  0
 22 23  1  0
 23 24  2  0
  8 25  1  0
 24 25  1  0
 21 26  1  0
 25 26  2  0
 27 28  2  0
 10 29  1  0
 28 29  1  0
 29 30  2  0
 30 31  1  0
  1 32  1  0
 27 32  1  0
 31 32  2  0
 20 33  2  0
 33 34  1  0
 34 35  1  0
 36  5  1  1
 35 36  1  0
 36 37  1  0
 33 38  1  0
 37 38  1  0
 15 39  1  0
 39 40  2  0
 40 41  1  0
 18 42  1  0
 41 42  2  0
 42 43  1  0
 39 44  1  0
 43 44  2  0
  2 45  1  0
  4 45  1  0
  4 46  1  0
 45 46  1  0
 46 47  1  1
 18 48  1  0
 47 48  1  0
 48 49  1  0
 45 50  1  1
 49 50  1  0
 51 52  2  0
 52 53  1  0
 34 54  1  1
 53 54  2  0
 54 55  1  0
 51 56  1  0
 55 56  2  0
M  END
