x3124-x1308
     RDKit          3D

 43 48  0  0  0  0  0  0  0  0999 V2000
    6.7680   -1.6260   21.9570 N   0  0  0  0  0  0  0  0  0  0  0  0
    6.7450   -4.9140   20.4250 C   0  0  2  0  0  0  0  0  0  0  0  0
    4.6920   -2.8980   21.2870 O   0  0  0  0  0  0  0  0  0  0  0  0
    6.6100   -4.0280   21.5290 C   0  0  1  0  0  0  0  0  0  0  0  0
    7.3690    1.5170   23.1050 N   0  0  0  0  0  0  0  0  0  0  0  0
    8.6790    0.6220   21.4360 O   0  0  0  0  0  0  0  0  0  0  0  0
    5.9250   -2.7710   21.5840 C   0  0  0  0  0  0  0  0  0  0  0  0
    6.4280   -0.2020   21.6770 C   0  0  1  0  0  0  0  0  0  0  0  0
    7.6080    0.6540   22.0450 C   0  0  0  0  0  0  0  0  0  0  0  0
    7.9250    2.7700   23.1680 C   0  0  0  0  0  0  0  0  0  0  0  0
   12.1320   -1.9570   24.2060 C   0  0  0  0  0  0  0  0  0  0  0  0
   12.4860   -0.8190   24.9300 C   0  0  0  0  0  0  0  0  0  0  0  0
   13.2390   -2.1920   23.1630 C   0  0  0  0  0  0  0  0  0  0  0  0
   12.0430   -3.1400   25.1710 C   0  0  0  0  0  0  0  0  0  0  0  0
    5.5610   -5.2590   19.7310 O   0  0  0  0  0  0  0  0  0  0  0  0
    0.6780   -1.2060   26.4310 Cl  0  0  0  0  0  0  0  0  0  0  0  0
    6.5560   -5.1510   26.9330 O   0  0  0  0  0  0  0  0  0  0  0  0
    4.8970   -6.8700   26.3560 O   0  0  0  0  0  0  0  0  0  0  0  0
    5.4600   -5.5290   25.9640 S   0  0  0  0  0  0  0  0  0  0  0  0
    6.3000    0.4030   17.8450 N   0  0  0  0  0  0  0  0  0  0  0  0
    5.2070    1.1850   17.8040 C   0  0  0  0  0  0  0  0  0  0  0  0
    4.4360    1.5570   18.9040 C   0  0  0  0  0  0  0  0  0  0  0  0
    4.8350    1.0900   20.1400 C   0  0  0  0  0  0  0  0  0  0  0  0
    6.0210    0.2390   20.3030 C   0  0  0  0  0  0  0  0  0  0  0  0
    6.6980   -0.0570   19.0420 C   0  0  0  0  0  0  0  0  0  0  0  0
    9.2240   -1.7620   21.6860 C   0  0  0  0  0  0  0  0  0  0  0  0
   10.5280   -1.8370   22.1860 C   0  0  0  0  0  0  0  0  0  0  0  0
   10.7420   -1.8800   23.5630 C   0  0  0  0  0  0  0  0  0  0  0  0
    9.6440   -1.8530   24.3760 C   0  0  0  0  0  0  0  0  0  0  0  0
    8.3290   -1.7810   23.9010 C   0  0  0  0  0  0  0  0  0  0  0  0
    8.1040   -1.7300   22.5220 C   0  0  0  0  0  0  0  0  0  0  0  0
    6.9610   -5.3900   21.8530 C   0  0  2  0  0  0  0  0  0  0  0  0
    7.5740   -4.6740   22.7480 C   0  0  2  0  0  0  0  0  0  0  0  0
    7.0480   -4.5100   24.0530 C   0  0  0  0  0  0  0  0  0  0  0  0
    6.0780   -5.5990   24.3940 N   0  0  0  0  0  0  0  0  0  0  0  0
    5.0610   -5.8280   23.3430 C   0  0  0  0  0  0  0  0  0  0  0  0
    5.5450   -5.1920   22.2130 C   0  0  0  0  0  0  0  0  0  0  0  0
    4.4180   -3.0300   26.4530 C   0  0  0  0  0  0  0  0  0  0  0  0
    3.4240   -2.0710   26.5690 C   0  0  0  0  0  0  0  0  0  0  0  0
    1.9540   -2.3400   26.2880 C   0  0  0  0  0  0  0  0  0  0  0  0
    1.6460   -3.7840   25.8430 C   0  0  0  0  0  0  0  0  0  0  0  0
    2.7010   -4.7780   25.7270 C   0  0  0  0  0  0  0  0  0  0  0  0
    4.1380   -4.3370   26.0620 C   0  0  0  0  0  0  0  0  0  0  0  0
  2  4  1  0
  1  7  1  0
  3  7  2  0
  4  7  1  1
  1  8  1  0
  5  9  1  0
  6  9  2  0
  8  9  1  6
  5 10  1  0
 11 12  1  0
 11 13  1  0
 11 14  1  0
  2 15  1  1
 17 19  2  0
 18 19  2  0
 20 21  2  0
 21 22  1  0
 22 23  2  0
  8 24  1  0
 23 24  1  0
 20 25  1  0
 24 25  2  0
 26 27  2  0
 11 28  1  0
 27 28  1  0
 28 29  2  0
 29 30  1  0
  1 31  1  0
 26 31  1  0
 30 31  2  0
  2 32  1  0
  4 32  1  0
  4 33  1  0
 32 33  1  0
 33 34  1  1
 19 35  1  0
 34 35  1  0
 35 36  1  0
 32 37  1  1
 36 37  1  0
 38 39  2  0
 16 40  1  0
 39 40  1  0
 40 41  2  0
 41 42  1  0
 19 43  1  0
 38 43  1  0
 42 43  2  0
M  END
