x3124-x0731
     RDKit          3D

 43 48  0  0  0  0  0  0  0  0999 V2000
    6.6850   -1.4020   22.1660 N   0  0  0  0  0  0  0  0  0  0  0  0
    6.6290   -4.4940   20.2650 C   0  0  2  0  0  0  0  0  0  0  0  0
    4.6810   -2.9250   21.4220 O   0  0  0  0  0  0  0  0  0  0  0  0
    6.8780   -3.5260   21.3850 C   0  0  2  0  0  0  0  0  0  0  0  0
    7.5980    1.4800   23.3450 N   0  0  0  0  0  0  0  0  0  0  0  0
    8.5540    0.9900   21.2960 O   0  0  0  0  0  0  0  0  0  0  0  0
    5.9320   -2.5480   21.6640 C   0  0  0  0  0  0  0  0  0  0  0  0
    6.4140    0.0190   21.8020 C   0  0  1  0  0  0  0  0  0  0  0  0
    7.6310    0.8550   22.1010 C   0  0  0  0  0  0  0  0  0  0  0  0
    8.5400    2.4000   23.7560 C   0  0  0  0  0  0  0  0  0  0  0  0
   12.2180   -1.7560   24.0290 C   0  0  0  0  0  0  0  0  0  0  0  0
   12.5140   -0.6690   24.8340 C   0  0  0  0  0  0  0  0  0  0  0  0
   13.2260   -1.7420   22.8680 C   0  0  0  0  0  0  0  0  0  0  0  0
   12.5400   -2.9840   24.8750 C   0  0  0  0  0  0  0  0  0  0  0  0
    5.4980   -4.3210   19.4280 O   0  0  0  0  0  0  0  0  0  0  0  0
    0.9600   -0.9810   25.9450 C   0  0  0  0  0  0  0  0  0  0  0  0
    6.1730   -5.0600   26.7480 O   0  0  0  0  0  0  0  0  0  0  0  0
    4.5410   -6.6910   26.0050 O   0  0  0  0  0  0  0  0  0  0  0  0
    5.1830   -5.3730   25.6640 S   0  0  0  0  0  0  0  0  0  0  0  0
    6.3760    0.3260   17.9450 N   0  0  0  0  0  0  0  0  0  0  0  0
    5.1700    1.1040   17.8210 C   0  0  0  0  0  0  0  0  0  0  0  0
    4.3820    1.4950   18.8780 C   0  0  0  0  0  0  0  0  0  0  0  0
    4.7210    1.1530   20.2590 C   0  0  0  0  0  0  0  0  0  0  0  0
    5.9550    0.3740   20.4180 C   0  0  0  0  0  0  0  0  0  0  0  0
    6.7210   -0.0140   19.3190 C   0  0  0  0  0  0  0  0  0  0  0  0
    9.0990   -1.8910   21.7660 C   0  0  0  0  0  0  0  0  0  0  0  0
   10.4380   -1.9750   22.2300 C   0  0  0  0  0  0  0  0  0  0  0  0
   10.7480   -1.7000   23.5390 C   0  0  0  0  0  0  0  0  0  0  0  0
    9.7300   -1.3510   24.4210 C   0  0  0  0  0  0  0  0  0  0  0  0
    8.4160   -1.2730   23.9620 C   0  0  0  0  0  0  0  0  0  0  0  0
    8.0810   -1.5310   22.6270 C   0  0  0  0  0  0  0  0  0  0  0  0
    2.0100   -2.0510   25.8670 C   0  0  0  0  0  0  0  0  0  0  0  0
    1.7180   -3.3020   25.3200 C   0  0  0  0  0  0  0  0  0  0  0  0
    2.6750   -4.3080   25.2480 C   0  0  0  0  0  0  0  0  0  0  0  0
    3.9590   -4.0840   25.7290 C   0  0  0  0  0  0  0  0  0  0  0  0
    4.2910   -2.8400   26.2780 C   0  0  0  0  0  0  0  0  0  0  0  0
    3.3240   -1.8250   26.3490 C   0  0  0  0  0  0  0  0  0  0  0  0
    6.1530   -4.9770   21.5680 C   0  0  1  0  0  0  0  0  0  0  0  0
    7.3180   -4.6120   22.3730 C   0  0  2  0  0  0  0  0  0  0  0  0
    7.2070   -4.9040   23.7890 C   0  0  0  0  0  0  0  0  0  0  0  0
    5.8480   -5.4600   24.1010 N   0  0  0  0  0  0  0  0  0  0  0  0
    5.2890   -6.4920   23.1810 C   0  0  0  0  0  0  0  0  0  0  0  0
    6.0150   -6.4030   21.8450 C   0  0  0  0  0  0  0  0  0  0  0  0
  2  4  1  0
  1  7  1  0
  3  7  2  0
  4  7  1  6
  1  8  1  0
  5  9  1  0
  6  9  2  0
  8  9  1  6
  5 10  1  0
 11 12  1  0
 11 13  1  0
 11 14  1  0
  2 15  1  6
 17 19  2  0
 18 19  2  0
 20 21  2  0
 21 22  1  0
 22 23  2  0
  8 24  1  0
 23 24  1  0
 20 25  1  0
 24 25  2  0
 26 27  2  0
 11 28  1  0
 27 28  1  0
 28 29  2  0
 29 30  1  0
  1 31  1  0
 26 31  1  0
 30 31  2  0
 16 32  1  0
 32 33  2  0
 33 34  1  0
 19 35  1  0
 34 35  2  0
 35 36  1  0
 32 37  1  0
 36 37  2  0
  2 38  1  0
  4 38  1  0
  4 39  1  0
 38 39  1  0
 39 40  1  1
 19 41  1  0
 40 41  1  0
 41 42  1  0
 38 43  1  6
 42 43  1  0
M  END
