x3124-x2540
     RDKit          3D

 29 30  0  0  0  0  0  0  0  0999 V2000
    6.8540   -1.3800   21.9830 N   0  0  0  0  0  0  0  0  0  0  0  0
    7.1810   -3.3060   19.3490 C   0  0  0  0  0  0  0  0  0  0  0  0
    4.7750   -3.0140   21.4130 O   0  0  0  0  0  0  0  0  0  0  0  0
    6.9790   -3.4960   20.8000 C   0  0  0  0  0  0  0  0  0  0  0  0
    7.9080    1.6250   23.0630 N   0  0  0  0  0  0  0  0  0  0  0  0
    8.5850    1.2940   20.9020 O   0  0  0  0  0  0  0  0  0  0  0  0
    6.0710   -2.5790   21.4440 C   0  0  0  0  0  0  0  0  0  0  0  0
    6.6030    0.0820   21.6110 C   0  0  1  0  0  0  0  0  0  0  0  0
    7.7970    1.0290   21.8100 C   0  0  0  0  0  0  0  0  0  0  0  0
    8.7970    2.6470   23.3820 C   0  0  0  0  0  0  0  0  0  0  0  0
    8.7410    2.8590   24.8750 C   0  0  0  0  0  0  0  0  0  0  0  0
    8.3680    3.9710   22.6820 C   0  0  0  0  0  0  0  0  0  0  0  0
   10.2510    2.3570   22.9500 C   0  0  0  0  0  0  0  0  0  0  0  0
   11.9240   -1.2510   23.4940 C   0  0  0  0  0  0  0  0  0  0  0  0
   12.5740   -0.6540   22.4790 C   0  0  0  0  0  0  0  0  0  0  0  0
   12.1080   -0.3570   24.7310 C   0  0  0  0  0  0  0  0  0  0  0  0
   12.6190   -2.5930   23.7440 C   0  0  0  0  0  0  0  0  0  0  0  0
   13.1460   -2.6860   25.1000 C   0  0  0  0  0  0  0  0  0  0  0  0
    6.3210    0.3730   17.8930 N   0  0  0  0  0  0  0  0  0  0  0  0
    5.2080    1.1320   17.8030 C   0  0  0  0  0  0  0  0  0  0  0  0
    4.4730    1.5750   18.8810 C   0  0  0  0  0  0  0  0  0  0  0  0
    4.9110    1.2290   20.1430 C   0  0  0  0  0  0  0  0  0  0  0  0
    6.0650    0.4560   20.2600 C   0  0  0  0  0  0  0  0  0  0  0  0
    6.7260    0.0530   19.1350 C   0  0  0  0  0  0  0  0  0  0  0  0
    9.7120   -2.0890   24.2480 O   0  0  0  0  0  0  0  0  0  0  0  0
    8.3390   -2.1940   23.9630 N   0  0  0  0  0  0  0  0  0  0  0  0
    8.1740   -1.5180   22.6500 C   0  0  0  0  0  0  0  0  0  0  0  0
    9.4510   -1.0860   22.2800 C   0  0  0  0  0  0  0  0  0  0  0  0
   10.4110   -1.4260   23.2610 C   0  0  0  0  0  0  0  0  0  0  0  0
  2  4  1  0
  1  7  1  0
  3  7  2  0
  4  7  1  0
  1  8  1  0
  5  9  1  0
  6  9  2  0
  8  9  1  6
 10  5  1  0
 10 11  1  0
 10 12  1  0
 10 13  1  0
 14 15  1  0
 14 16  1  0
 14 17  1  0
 17 18  1  0
 19 20  2  0
 20 21  1  0
 21 22  2  0
  8 23  1  0
 22 23  1  0
 19 24  1  0
 23 24  2  0
 25 26  1  0
  1 27  1  0
 26 27  2  0
 27 28  1  0
 14 29  1  0
 25 29  1  0
 28 29  2  0
M  END
