x3124-x0691-x3117-x0731
     RDKit          3D

 49 54  0  0  0  0  0  0  0  0999 V2000
    6.8530   -1.7560   22.0630 N   0  0  0  0  0  0  0  0  0  0  0  0
    6.7180   -4.7520   20.1630 C   0  0  0  0  0  0  0  0  0  0  0  0
    4.7660   -3.0730   21.4690 O   0  0  0  0  0  0  0  0  0  0  0  0
    6.7320   -4.3160   21.5920 C   0  0  2  0  0  0  0  0  0  0  0  0
    7.6090    1.7800   22.9430 N   0  0  0  0  0  0  0  0  0  0  0  0
    8.8310    0.6390   21.5140 O   0  0  0  0  0  0  0  0  0  0  0  0
    6.0350   -2.9880   21.7300 C   0  0  0  0  0  0  0  0  0  0  0  0
    6.5380   -0.2920   21.6920 C   0  0  1  0  0  0  0  0  0  0  0  0
    7.7270    0.7160   22.0530 C   0  0  0  0  0  0  0  0  0  0  0  0
   12.3610   -1.8320   24.0960 C   0  0  0  0  0  0  0  0  0  0  0  0
   12.5930   -0.5560   24.8620 C   0  0  0  0  0  0  0  0  0  0  0  0
   13.3540   -1.8670   22.9340 C   0  0  0  0  0  0  0  0  0  0  0  0
   12.7320   -2.9990   24.9920 C   0  0  0  0  0  0  0  0  0  0  0  0
    5.4820   -4.5570   19.5040 O   0  0  0  0  0  0  0  0  0  0  0  0
    4.3890   -6.5360   25.7580 O   0  0  0  0  0  0  0  0  0  0  0  0
    5.9040   -4.7510   26.6970 O   0  0  0  0  0  0  0  0  0  0  0  0
    3.1100   -0.4680   26.1440 F   0  0  0  0  0  0  0  0  0  0  0  0
    4.9030   -5.1790   25.7560 S   0  0  0  0  0  0  0  0  0  0  0  0
    0.3780   -1.1970   26.1890 C   0  0  0  0  0  0  0  0  0  0  0  0
    6.2940    0.2780   17.9880 N   0  0  0  0  0  0  0  0  0  0  0  0
    5.1880    1.0440   17.8540 C   0  0  0  0  0  0  0  0  0  0  0  0
    4.3120    1.4880   18.9180 C   0  0  0  0  0  0  0  0  0  0  0  0
    4.8620    0.9250   20.4080 C   0  0  0  0  0  0  0  0  0  0  0  0
    6.0400    0.1520   20.3380 C   0  0  0  0  0  0  0  0  0  0  0  0
    6.7020   -0.1540   19.2090 C   0  0  0  0  0  0  0  0  0  0  0  0
    9.3210   -2.0720   21.7980 C   0  0  0  0  0  0  0  0  0  0  0  0
   10.6280   -2.0930   22.2620 C   0  0  0  0  0  0  0  0  0  0  0  0
   10.9190   -1.8460   23.6040 C   0  0  0  0  0  0  0  0  0  0  0  0
    9.8440   -1.5970   24.4400 C   0  0  0  0  0  0  0  0  0  0  0  0
    8.5200   -1.5830   23.9630 C   0  0  0  0  0  0  0  0  0  0  0  0
    8.2150   -1.8170   22.5970 C   0  0  0  0  0  0  0  0  0  0  0  0
    9.7360    5.1300   24.1000 O   0  0  0  0  0  0  0  0  0  0  0  0
   10.5040    4.0120   23.6620 C   0  0  0  0  0  0  0  0  0  0  0  0
    9.7080    2.7150   23.6630 C   0  0  0  0  0  0  0  0  0  0  0  0
    8.5580    2.9260   22.8840 C   0  0  0  0  0  0  0  0  0  0  0  0
    7.8750    4.1430   23.0470 C   0  0  0  0  0  0  0  0  0  0  0  0
    8.6060    5.3320   23.2470 C   0  0  0  0  0  0  0  0  0  0  0  0
    2.8080   -1.7700   26.0610 C   0  0  0  0  0  0  0  0  0  0  0  0
    3.8530   -2.7100   25.9650 C   0  0  0  0  0  0  0  0  0  0  0  0
    3.5490   -4.0610   25.8810 C   0  0  0  0  0  0  0  0  0  0  0  0
    2.2250   -4.4610   25.8860 C   0  0  0  0  0  0  0  0  0  0  0  0
    1.1770   -3.5650   25.9790 C   0  0  0  0  0  0  0  0  0  0  0  0
    1.4750   -2.2010   26.0730 C   0  0  0  0  0  0  0  0  0  0  0  0
    5.9260   -5.5410   21.7440 N   0  0  0  0  0  0  0  0  0  0  0  0
    4.9810   -6.2470   22.5470 C   0  0  0  0  0  0  0  0  0  0  0  0
    4.2950   -5.2630   23.1810 C   0  0  0  0  0  0  0  0  0  0  0  0
    5.2470   -4.6670   24.1640 N   0  0  0  0  0  0  0  0  0  0  0  0
    6.6340   -4.3060   23.5970 C   0  0  0  0  0  0  0  0  0  0  0  0
    7.0290   -5.4200   22.7370 C   0  0  2  0  0  0  0  0  0  0  0  0
  4  2  1  6
  1  7  1  0
  3  7  2  0
  4  7  1  0
  1  8  1  0
  5  9  1  0
  6  9  2  0
  8  9  1  6
 10 11  1  0
 10 12  1  0
 10 13  1  0
  2 14  2  0
 15 18  2  0
 16 18  2  0
 20 21  2  0
 21 22  1  0
 22 23  2  0
  8 24  1  0
 23 24  1  0
 20 25  1  0
 24 25  2  0
 26 27  2  0
 10 28  1  0
 27 28  1  0
 28 29  2  0
 29 30  1  0
  1 31  1  0
 26 31  1  0
 30 31  2  0
 32 33  1  0
 33 34  1  0
  5 35  1  0
 34 35  1  0
 35 36  1  0
 32 37  1  0
 36 37  1  0
 17 38  1  0
 38 39  2  0
 18 40  1  0
 39 40  1  0
 40 41  2  0
 41 42  1  0
 19 43  1  0
 38 43  1  0
 42 43  2  0
  4 44  1  0
 44 45  1  0
 45 46  1  0
 18 47  1  0
 46 47  1  0
 47 48  1  0
  4 49  1  0
 44 49  1  0
 49 48  1  1
M  END
