x3124-x3117-x0731-x1493
     RDKit          3D

 48 54  0  0  0  0  0  0  0  0999 V2000
    6.9460   -1.7110   21.8240 N   0  0  0  0  0  0  0  0  0  0  0  0
    6.6410   -5.0090   20.6010 C   0  0  2  0  0  0  0  0  0  0  0  0
    4.7810   -2.9100   21.0750 O   0  0  0  0  0  0  0  0  0  0  0  0
    6.2980   -4.2470   21.8930 C   0  0  1  0  0  0  0  0  0  0  0  0
    7.6900    1.8290   22.9750 N   0  0  0  0  0  0  0  0  0  0  0  0
    8.8600    0.6760   21.5120 O   0  0  0  0  0  0  0  0  0  0  0  0
    5.9750   -2.8600   21.5750 C   0  0  0  0  0  0  0  0  0  0  0  0
    6.5970   -0.2310   21.6690 C   0  0  1  0  0  0  0  0  0  0  0  0
    7.7570    0.7680   22.0710 C   0  0  0  0  0  0  0  0  0  0  0  0
   12.2750   -1.8270   24.0870 C   0  0  0  0  0  0  0  0  0  0  0  0
   12.4140   -0.5570   24.8960 C   0  0  0  0  0  0  0  0  0  0  0  0
   13.2890   -1.8670   22.9470 C   0  0  0  0  0  0  0  0  0  0  0  0
   12.6330   -2.9960   24.9110 C   0  0  0  0  0  0  0  0  0  0  0  0
    5.5140   -5.5250   19.9180 O   0  0  0  0  0  0  0  0  0  0  0  0
    0.7430   -0.9690   26.1700 C   0  0  0  0  0  0  0  0  0  0  0  0
    6.1740   -4.4530   26.3890 O   0  0  0  0  0  0  0  0  0  0  0  0
    4.6310   -6.2080   25.7130 O   0  0  0  0  0  0  0  0  0  0  0  0
    5.2430   -4.9260   25.3970 S   0  0  0  0  0  0  0  0  0  0  0  0
    6.2880    0.3630   17.9040 N   0  0  0  0  0  0  0  0  0  0  0  0
    5.1890    1.0820   17.8070 C   0  0  0  0  0  0  0  0  0  0  0  0
    4.4040    1.4200   19.0550 C   0  0  0  0  0  0  0  0  0  0  0  0
    4.9010    0.9450   20.3390 C   0  0  0  0  0  0  0  0  0  0  0  0
    6.0720    0.2060   20.3490 C   0  0  0  0  0  0  0  0  0  0  0  0
    6.7820   -0.1130   19.1910 C   0  0  0  0  0  0  0  0  0  0  0  0
    9.3290   -2.0240   21.6930 C   0  0  0  0  0  0  0  0  0  0  0  0
   10.6550   -2.0630   22.1770 C   0  0  0  0  0  0  0  0  0  0  0  0
   10.8690   -1.8300   23.5250 C   0  0  0  0  0  0  0  0  0  0  0  0
    9.7370   -1.5780   24.3620 C   0  0  0  0  0  0  0  0  0  0  0  0
    8.4190   -1.5460   23.8740 C   0  0  0  0  0  0  0  0  0  0  0  0
    8.2530   -1.7740   22.4750 C   0  0  0  0  0  0  0  0  0  0  0  0
    9.7370    5.0310   24.1650 O   0  0  0  0  0  0  0  0  0  0  0  0
   10.4730    3.9160   23.6660 C   0  0  0  0  0  0  0  0  0  0  0  0
    9.6270    2.8000   23.6870 C   0  0  0  0  0  0  0  0  0  0  0  0
    8.5840    3.0030   22.7900 C   0  0  0  0  0  0  0  0  0  0  0  0
    7.8610    4.1810   23.0370 C   0  0  0  0  0  0  0  0  0  0  0  0
    8.6490    5.3390   23.2900 C   0  0  0  0  0  0  0  0  0  0  0  0
    1.8330   -1.9850   25.9620 C   0  0  0  0  0  0  0  0  0  0  0  0
    1.5990   -3.2390   25.3550 C   0  0  0  0  0  0  0  0  0  0  0  0
    2.5980   -4.1240   25.1840 C   0  0  0  0  0  0  0  0  0  0  0  0
    3.9330   -3.7860   25.6300 C   0  0  0  0  0  0  0  0  0  0  0  0
    4.1840   -2.6100   26.2090 C   0  0  0  0  0  0  0  0  0  0  0  0
    3.1060   -1.6760   26.3830 C   0  0  0  0  0  0  0  0  0  0  0  0
    6.9590   -5.4750   21.8620 C   0  0  2  0  0  0  0  0  0  0  0  0
    7.7120   -4.5640   22.5480 C   0  0  2  0  0  0  0  0  0  0  0  0
    6.7880   -4.0150   23.6330 C   0  0  0  0  0  0  0  0  0  0  0  0
    6.1380   -5.2230   24.3460 N   0  0  0  0  0  0  0  0  0  0  0  0
    5.6000   -6.2890   23.4160 C   0  0  0  0  0  0  0  0  0  0  0  0
    6.7620   -6.6950   22.5540 C   0  0  0  0  0  0  0  0  0  0  0  0
  2  4  1  0
  1  7  1  0
  3  7  2  0
  4  7  1  6
  1  8  1  0
  5  9  1  0
  6  9  2  0
  8  9  1  6
 10 11  1  0
 10 12  1  0
 10 13  1  0
  2 14  1  1
 16 18  2  0
 17 18  2  0
 19 20  2  0
 20 21  1  0
 21 22  2  0
  8 23  1  0
 22 23  1  0
 19 24  1  0
 23 24  2  0
 25 26  2  0
 10 27  1  0
 26 27  1  0
 27 28  2  0
 28 29  1  0
  1 30  1  0
 25 30  1  0
 29 30  2  0
 31 32  1  0
 32 33  1  0
  5 34  1  0
 33 34  1  0
 34 35  1  0
 31 36  1  0
 35 36  1  0
 15 37  1  0
 37 38  2  0
 38 39  1  0
 18 40  1  0
 39 40  2  0
 40 41  1  0
 37 42  1  0
 41 42  2  0
  2 43  1  0
  4 43  1  0
  4 44  1  0
 43 44  1  0
 44 45  1  1
 18 46  1  0
 45 46  1  0
 46 47  1  0
 43 48  1  1
 47 48  1  0
M  END
