x3298-x0770
     RDKit          3D

 38 42  0  0  0  0  0  0  0  0999 V2000
    7.0010    1.8890   22.3110 N   0  0  0  0  0  0  0  0  0  0  0  0
    7.1300   -0.1100   21.1000 C   0  0  2  0  0  0  0  0  0  0  0  0
    6.4400   -0.4970   22.0680 O   0  0  0  0  0  0  0  0  0  0  0  0
    7.7940    0.9600   21.5140 C   0  0  0  0  0  0  0  0  0  0  0  0
    8.9930    1.0930   23.6950 N   0  0  0  0  0  0  0  0  0  0  0  0
    8.9530    1.2220   21.1860 O   0  0  0  0  0  0  0  0  0  0  0  0
   10.8540    1.8660   24.7680 O   0  0  0  0  0  0  0  0  0  0  0  0
    9.8120   -0.3270   25.7800 O   0  0  0  0  0  0  0  0  0  0  0  0
   13.7630   -1.7160   20.8300 F   0  0  0  0  0  0  0  0  0  0  0  0
   10.2720    0.5840   24.6600 S   0  0  0  0  0  0  0  0  0  0  0  0
    7.2290   -2.9320   18.8710 C   0  0  0  0  0  0  0  0  0  0  0  0
    5.3730   -4.1140   19.7510 O   0  0  0  0  0  0  0  0  0  0  0  0
    6.2890   -3.2620   19.9690 C   0  0  0  0  0  0  0  0  0  0  0  0
    9.4420   -3.0000   24.0200 C   0  0  0  0  0  0  0  0  0  0  0  0
    6.2260    0.6910   17.4550 N   0  0  0  0  0  0  0  0  0  0  0  0
    6.9060    0.1760   18.5900 C   0  0  0  0  0  0  0  0  0  0  0  0
    6.3980    0.3750   19.9660 C   0  0  0  0  0  0  0  0  0  0  0  0
    5.2170    1.0760   20.0090 C   0  0  0  0  0  0  0  0  0  0  0  0
    4.5360    1.5830   18.9530 C   0  0  0  0  0  0  0  0  0  0  0  0
    5.1020    1.3630   17.7070 C   0  0  0  0  0  0  0  0  0  0  0  0
    7.6250    4.3650   22.3890 C   0  0  0  0  0  0  0  0  0  0  0  0
    8.5470    5.3570   22.7950 C   0  0  0  0  0  0  0  0  0  0  0  0
    9.6690    4.9270   23.4950 C   0  0  0  0  0  0  0  0  0  0  0  0
    9.9750    3.5430   23.8600 C   0  0  0  0  0  0  0  0  0  0  0  0
    8.9920    2.5520   23.4540 C   0  0  0  0  0  0  0  0  0  0  0  0
    7.8230    3.0040   22.6910 C   0  0  0  0  0  0  0  0  0  0  0  0
   12.4730    0.4840   23.3410 C   0  0  0  0  0  0  0  0  0  0  0  0
   13.2830   -0.0870   22.4160 C   0  0  0  0  0  0  0  0  0  0  0  0
   12.9500   -1.2220   21.7360 C   0  0  0  0  0  0  0  0  0  0  0  0
   11.7650   -1.8730   21.9530 C   0  0  0  0  0  0  0  0  0  0  0  0
   10.9400   -1.3150   22.8760 C   0  0  0  0  0  0  0  0  0  0  0  0
   11.3110   -0.1620   23.5300 C   0  0  0  0  0  0  0  0  0  0  0  0
    6.4560   -2.6630   21.2420 N   0  0  0  0  0  0  0  0  0  0  0  0
    7.2300   -1.5720   21.5570 C   0  0  1  0  0  0  0  0  0  0  0  0
    8.4210   -1.8090   22.2170 C   0  0  0  0  0  0  0  0  0  0  0  0
    8.1680   -2.6330   23.4160 N   0  0  0  0  0  0  0  0  0  0  0  0
    7.3650   -3.8260   23.0940 C   0  0  0  0  0  0  0  0  0  0  0  0
    6.1770   -3.3970   22.4870 C   0  0  0  0  0  0  0  0  0  0  0  0
  2  3  1  0
  1  4  1  0
  2  4  1  1
  4  6  2  0
 10  5  1  0
  7 10  2  0
  8 10  2  0
 11 13  1  0
 12 13  2  0
 15 16  2  0
  2 17  1  0
 16 17  1  0
 17 18  2  0
 18 19  1  0
 15 20  1  0
 19 20  2  0
 21 22  2  0
 22 23  1  0
 23 24  2  0
  5 25  1  0
 24 25  1  0
  1 26  1  0
 21 26  1  0
 25 26  2  0
 27 28  2  0
  9 29  1  0
 28 29  1  0
 29 30  2  0
 30 31  1  0
 10 32  1  0
 27 32  1  0
 31 32  2  0
 13 33  1  0
  2 34  1  0
 34  3  1  0
 33 34  1  0
 34 35  1  1
 14 36  1  0
 35 36  1  0
 36 37  1  0
 33 38  1  0
 37 38  1  0
M  END
