x3298-x1358
     RDKit          3D

 48 52  0  0  0  0  0  0  0  0999 V2000
    7.1480    2.0640   21.9730 N   0  0  0  0  0  0  0  0  0  0  0  0
    7.3870   -0.1010   21.2570 C   0  0  2  0  0  0  0  0  0  0  0  0
    6.8530   -0.3790   22.3330 O   0  0  0  0  0  0  0  0  0  0  0  0
    7.9900    1.0550   21.4250 C   0  0  0  0  0  0  0  0  0  0  0  0
    8.5870    1.2430   24.0250 N   0  0  0  0  0  0  0  0  0  0  0  0
    9.1330    1.3110   21.1110 O   0  0  0  0  0  0  0  0  0  0  0  0
   10.7660    1.9850   24.6260 O   0  0  0  0  0  0  0  0  0  0  0  0
    9.8460   -0.1200   25.9120 O   0  0  0  0  0  0  0  0  0  0  0  0
   13.6640   -1.8610   20.8730 F   0  0  0  0  0  0  0  0  0  0  0  0
   10.0760    0.7290   24.6780 S   0  0  0  0  0  0  0  0  0  0  0  0
    6.9370   -2.4850   25.9530 N   0  0  0  0  0  0  0  0  0  0  0  0
    5.3500   -0.3640   25.4260 O   0  0  0  0  0  0  0  0  0  0  0  0
    4.7370   -3.2650   25.4120 O   0  0  0  0  0  0  0  0  0  0  0  0
    5.2690   -4.1130   19.6890 O   0  0  0  0  0  0  0  0  0  0  0  0
    5.9260   -3.1530   25.1510 C   0  0  0  0  0  0  0  0  0  0  0  0
    6.4480   -3.8460   20.0160 C   0  0  0  0  0  0  0  0  0  0  0  0
    7.3910   -3.1820   19.0860 C   0  0  0  0  0  0  0  0  0  0  0  0
    6.2700   -1.6210   22.3950 C   0  0  0  0  0  0  0  0  0  0  0  0
    6.2440    0.2500   17.7050 N   0  0  0  0  0  0  0  0  0  0  0  0
    6.9710   -0.0900   18.7660 C   0  0  0  0  0  0  0  0  0  0  0  0
    6.5330    0.2380   20.0180 C   0  0  0  0  0  0  0  0  0  0  0  0
    5.3600    0.8910   20.2290 C   0  0  0  0  0  0  0  0  0  0  0  0
    4.6020    1.2400   19.1350 C   0  0  0  0  0  0  0  0  0  0  0  0
    5.0910    0.9030   17.9270 C   0  0  0  0  0  0  0  0  0  0  0  0
    7.7620    4.5060   22.3760 C   0  0  0  0  0  0  0  0  0  0  0  0
    8.4930    5.4130   23.1600 C   0  0  0  0  0  0  0  0  0  0  0  0
    9.3160    4.9680   24.3020 C   0  0  0  0  0  0  0  0  0  0  0  0
    9.2950    3.5190   24.5380 C   0  0  0  0  0  0  0  0  0  0  0  0
    8.5050    2.5990   23.6830 C   0  0  0  0  0  0  0  0  0  0  0  0
    7.7980    3.1380   22.6650 C   0  0  0  0  0  0  0  0  0  0  0  0
   12.3570    0.3580   23.3320 C   0  0  0  0  0  0  0  0  0  0  0  0
   13.1770   -0.2280   22.4720 C   0  0  0  0  0  0  0  0  0  0  0  0
   12.8220   -1.3200   21.7330 C   0  0  0  0  0  0  0  0  0  0  0  0
   11.5590   -1.8530   21.8750 C   0  0  0  0  0  0  0  0  0  0  0  0
   10.6260   -1.3050   22.7540 C   0  0  0  0  0  0  0  0  0  0  0  0
   11.0820   -0.1920   23.4600 C   0  0  0  0  0  0  0  0  0  0  0  0
    5.9810   -0.3710   26.6460 C   0  0  0  0  0  0  0  0  0  0  0  0
    6.8130   -1.4660   26.9450 C   0  0  0  0  0  0  0  0  0  0  0  0
    7.5000   -1.5650   28.1600 C   0  0  0  0  0  0  0  0  0  0  0  0
    7.3820   -0.5720   29.1280 C   0  0  0  0  0  0  0  0  0  0  0  0
    6.5100    0.6360   28.8880 C   0  0  0  0  0  0  0  0  0  0  0  0
    5.7880    0.6920   27.5470 C   0  0  0  0  0  0  0  0  0  0  0  0
    6.9260   -4.2380   21.2520 N   0  0  0  0  0  0  0  0  0  0  0  0
    7.9030   -3.3580   21.8870 C   0  0  0  0  0  0  0  0  0  0  0  0
    7.2180   -2.6450   23.0380 C   0  0  2  0  0  0  0  0  0  0  0  0
    6.5630   -3.7430   23.8860 C   0  0  2  0  0  0  0  0  0  0  0  0
    5.6160   -4.6900   23.1590 C   0  0  0  0  0  0  0  0  0  0  0  0
    6.2980   -5.2580   22.0850 C   0  0  0  0  0  0  0  0  0  0  0  0
  2  3  1  1
  1  4  1  0
  2  4  1  0
  4  6  2  0
 10  5  1  0
  7 10  2  0
  8 10  2  0
 11 15  1  0
 13 15  2  0
 14 16  2  0
 16 17  1  0
  3 18  1  0
 19 20  2  0
  2 21  1  0
 20 21  1  0
 21 22  2  0
 22 23  1  0
 19 24  1  0
 23 24  2  0
 25 26  2  0
 26 27  1  0
 27 28  2  0
  5 29  1  0
 28 29  1  0
  1 30  1  0
 25 30  1  0
 29 30  2  0
 31 32  2  0
  9 33  1  0
 32 33  1  0
 33 34  2  0
 34 35  1  0
 10 36  1  0
 31 36  1  0
 35 36  2  0
 12 37  1  0
 11 38  1  0
 37 38  2  0
 38 39  1  0
 39 40  2  0
 40 41  1  0
 37 42  1  0
 41 42  2  0
 16 43  1  0
 43 44  1  0
 45 18  1  6
 44 45  1  0
 46 15  1  1
 45 46  1  0
 46 47  1  0
 43 48  1  0
 47 48  1  0
M  END
