x3298-x2908
     RDKit          3D

 30 32  0  0  0  0  0  0  0  0999 V2000
    7.5570    1.4980   22.6850 N   0  0  0  0  0  0  0  0  0  0  0  0
    7.3790   -0.2550   21.2790 C   0  0  2  0  0  0  0  0  0  0  0  0
    6.5640   -0.5370   22.1520 O   0  0  0  0  0  0  0  0  0  0  0  0
    8.2250    0.6360   21.7620 C   0  0  1  0  0  0  0  0  0  0  0  0
    9.0690    1.5030   25.1840 N   0  0  0  0  0  0  0  0  0  0  0  0
    8.9420    1.2640   20.9890 O   0  0  0  0  0  0  0  0  0  0  0  0
   10.7370   -0.1160   26.1640 O   0  0  0  0  0  0  0  0  0  0  0  0
    8.7820   -1.0540   25.0140 O   0  0  0  0  0  0  0  0  0  0  0  0
   13.7650   -1.4410   20.8440 F   0  0  0  0  0  0  0  0  0  0  0  0
    9.8820   -0.0350   25.0280 S   0  0  0  0  0  0  0  0  0  0  0  0
    4.7270    1.4680   21.6990 C   0  0  0  0  0  0  0  0  0  0  0  0
    9.2400   -0.2260   22.3760 N   0  0  0  0  0  0  0  0  0  0  0  0
    6.3190    0.5370   17.6330 N   0  0  0  0  0  0  0  0  0  0  0  0
    6.9730    0.0640   18.7040 C   0  0  0  0  0  0  0  0  0  0  0  0
    6.6090    0.2720   20.1150 C   0  0  0  0  0  0  0  0  0  0  0  0
    5.3360    1.1060   20.3060 C   0  0  0  0  0  0  0  0  0  0  0  0
    4.6850    1.5790   19.0280 C   0  0  0  0  0  0  0  0  0  0  0  0
    5.2380    1.2560   17.8140 C   0  0  0  0  0  0  0  0  0  0  0  0
    8.1500    3.9710   22.3740 C   0  0  0  0  0  0  0  0  0  0  0  0
    8.8160    5.1130   22.8350 C   0  0  0  0  0  0  0  0  0  0  0  0
    9.5110    5.0020   23.9850 C   0  0  0  0  0  0  0  0  0  0  0  0
    9.5880    3.8210   24.7280 C   0  0  0  0  0  0  0  0  0  0  0  0
    8.9470    2.6600   24.3270 C   0  0  0  0  0  0  0  0  0  0  0  0
    8.1920    2.7440   23.0750 C   0  0  0  0  0  0  0  0  0  0  0  0
   12.2260    0.4090   23.6960 C   0  0  0  0  0  0  0  0  0  0  0  0
   13.2380    0.0460   22.6330 C   0  0  0  0  0  0  0  0  0  0  0  0
   12.9450   -1.0470   21.8080 C   0  0  0  0  0  0  0  0  0  0  0  0
   11.7570   -1.7370   21.9810 C   0  0  0  0  0  0  0  0  0  0  0  0
   10.8580   -1.4090   22.9290 C   0  0  0  0  0  0  0  0  0  0  0  0
   11.0680   -0.3510   23.8020 C   0  0  0  0  0  0  0  0  0  0  0  0
  2  3  1  1
  1  4  1  0
  2  4  1  0
  4  6  1  0
 10  5  1  0
  7 10  2  0
  8 10  2  0
  4 12  1  1
 13 14  2  0
  2 15  1  0
 14 15  1  0
 11 16  1  0
 15 16  2  0
 16 17  1  0
 13 18  1  0
 17 18  2  0
 19 20  2  0
 20 21  1  0
 21 22  2  0
  5 23  1  0
 22 23  1  0
  1 24  1  0
 19 24  1  0
 23 24  2  0
 25 26  2  0
  9 27  1  0
 26 27  1  0
 27 28  2  0
 28 29  1  0
 10 30  1  0
 25 30  1  0
 29 30  2  0
M  END
