x3298-x2572
     RDKit          3D

 31 33  0  0  0  0  0  0  0  0999 V2000
    7.4220    1.4880   22.6990 N   0  0  0  0  0  0  0  0  0  0  0  0
    7.3230   -0.2750   21.2970 C   0  0  2  0  0  0  0  0  0  0  0  0
    6.5380   -0.6090   22.1800 O   0  0  0  0  0  0  0  0  0  0  0  0
    8.1220    0.6770   21.7500 C   0  0  1  0  0  0  0  0  0  0  0  0
    8.8330    1.5150   25.4040 N   0  0  0  0  0  0  0  0  0  0  0  0
    8.8590    1.3000   20.9840 O   0  0  0  0  0  0  0  0  0  0  0  0
   10.3640   -0.0010   26.7550 O   0  0  0  0  0  0  0  0  0  0  0  0
    8.6480   -1.0310   25.2740 O   0  0  0  0  0  0  0  0  0  0  0  0
   13.4580   -1.1970   21.2950 C   0  0  0  0  0  0  0  0  0  0  0  0
    9.7040    0.0030   25.4950 S   0  0  0  0  0  0  0  0  0  0  0  0
    4.8970    1.3660   21.6000 C   0  0  0  0  0  0  0  0  0  0  0  0
   14.2140   -1.2280   20.1190 N   0  0  0  0  0  0  0  0  0  0  0  0
    9.1920   -0.1550   22.4440 C   0  0  0  0  0  0  0  0  0  0  0  0
    6.3320    0.5280   17.5980 N   0  0  0  0  0  0  0  0  0  0  0  0
    7.0170   -0.0060   18.7360 C   0  0  0  0  0  0  0  0  0  0  0  0
    6.5700    0.2650   20.1430 C   0  0  0  0  0  0  0  0  0  0  0  0
    5.4210    1.0570   20.2620 C   0  0  0  0  0  0  0  0  0  0  0  0
    4.7970    1.5420   19.1420 C   0  0  0  0  0  0  0  0  0  0  0  0
    5.1740    1.3410   17.8340 C   0  0  0  0  0  0  0  0  0  0  0  0
    8.1580    3.8350   22.3490 C   0  0  0  0  0  0  0  0  0  0  0  0
    8.8320    5.0250   22.6990 C   0  0  0  0  0  0  0  0  0  0  0  0
    9.5140    5.0500   23.8940 C   0  0  0  0  0  0  0  0  0  0  0  0
    9.5510    3.9120   24.8000 C   0  0  0  0  0  0  0  0  0  0  0  0
    8.8570    2.6800   24.4780 C   0  0  0  0  0  0  0  0  0  0  0  0
    8.1310    2.6710   23.1510 C   0  0  0  0  0  0  0  0  0  0  0  0
   11.8630    0.6750   23.9180 C   0  0  0  0  0  0  0  0  0  0  0  0
   12.7160    0.2820   22.9090 C   0  0  0  0  0  0  0  0  0  0  0  0
   12.5920   -0.9250   22.3040 C   0  0  0  0  0  0  0  0  0  0  0  0
   11.6570   -1.8480   22.6250 C   0  0  0  0  0  0  0  0  0  0  0  0
   10.8070   -1.4960   23.6190 C   0  0  0  0  0  0  0  0  0  0  0  0
   10.9100   -0.2540   24.2450 C   0  0  0  0  0  0  0  0  0  0  0  0
  2  3  1  1
  1  4  1  0
  2  4  1  0
  4  6  1  0
 10  5  1  0
  7 10  2  0
  8 10  2  0
  9 12  3  0
  4 13  1  1
 14 15  2  0
  2 16  1  0
 15 16  1  0
 11 17  1  0
 16 17  2  0
 17 18  1  0
 14 19  1  0
 18 19  2  0
 20 21  2  0
 21 22  1  0
 22 23  2  0
  5 24  1  0
 23 24  1  0
  1 25  1  0
 20 25  1  0
 24 25  2  0
 26 27  2  0
  9 28  1  0
 27 28  1  0
 28 29  2  0
 29 30  1  0
 10 31  1  0
 26 31  1  0
 30 31  2  0
M  END
