x3298-x0434
     RDKit          3D

 29 31  0  0  0  0  0  0  0  0999 V2000
    6.4630   -1.0070   22.7790 N   0  0  0  0  0  0  0  0  0  0  0  0
    5.8670   -1.7080   20.9510 C   0  0  2  0  0  0  0  0  0  0  0  0
    4.8780   -2.0270   21.6440 O   0  0  0  0  0  0  0  0  0  0  0  0
    7.1550   -1.4510   21.6830 C   0  0  1  0  0  0  0  0  0  0  0  0
    9.0920    0.2980   23.2560 N   0  0  0  0  0  0  0  0  0  0  0  0
    7.9710   -0.6510   20.8150 O   0  0  0  0  0  0  0  0  0  0  0  0
   10.3720   -1.3230   25.1750 O   0  0  0  0  0  0  0  0  0  0  0  0
    8.5930   -2.3920   23.5860 O   0  0  0  0  0  0  0  0  0  0  0  0
   14.2390   -1.4800   20.3060 F   0  0  0  0  0  0  0  0  0  0  0  0
    9.6060   -1.2940   23.8110 S   0  0  0  0  0  0  0  0  0  0  0  0
    7.9140   -2.6980   21.8430 N   0  0  0  0  0  0  0  0  0  0  0  0
    5.8210    0.4210   17.7260 N   0  0  0  0  0  0  0  0  0  0  0  0
    6.0460   -0.5540   18.6350 C   0  0  0  0  0  0  0  0  0  0  0  0
    5.5270   -0.5500   20.0400 C   0  0  0  0  0  0  0  0  0  0  0  0
    4.6950    0.6110   20.5000 C   0  0  0  0  0  0  0  0  0  0  0  0
    4.4210    1.7300   19.4860 C   0  0  0  0  0  0  0  0  0  0  0  0
    5.0190    1.5630   18.1160 C   0  0  0  0  0  0  0  0  0  0  0  0
    5.4530    1.0950   23.6070 C   0  0  0  0  0  0  0  0  0  0  0  0
    5.5220    2.3660   24.0950 C   0  0  0  0  0  0  0  0  0  0  0  0
    6.7530    2.9570   24.3090 C   0  0  0  0  0  0  0  0  0  0  0  0
    7.8610    2.2340   24.0190 C   0  0  0  0  0  0  0  0  0  0  0  0
    7.8510    0.9100   23.5100 C   0  0  0  0  0  0  0  0  0  0  0  0
    6.5960    0.3320   23.2990 C   0  0  0  0  0  0  0  0  0  0  0  0
   12.1400   -0.4860   23.0880 C   0  0  0  0  0  0  0  0  0  0  0  0
   13.2670   -0.5370   22.2310 C   0  0  0  0  0  0  0  0  0  0  0  0
   13.2830   -1.4060   21.1660 C   0  0  0  0  0  0  0  0  0  0  0  0
   12.2010   -2.2200   20.9860 C   0  0  0  0  0  0  0  0  0  0  0  0
   11.0500   -2.2540   21.7560 C   0  0  0  0  0  0  0  0  0  0  0  0
   10.9750   -1.4150   22.7830 C   0  0  0  0  0  0  0  0  0  0  0  0
  2  3  1  1
  1  4  1  0
  2  4  1  0
  4  6  1  0
 10  5  1  0
  7 10  2  0
  8 10  2  0
  4 11  1  1
 12 13  2  0
  2 14  1  0
 13 14  1  0
 14 15  2  0
 15 16  1  0
 12 17  1  0
 16 17  2  0
 18 19  2  0
 19 20  1  0
 20 21  2  0
  5 22  1  0
 21 22  1  0
  1 23  1  0
 18 23  1  0
 22 23  2  0
 24 25  2  0
  9 26  1  0
 25 26  1  0
 26 27  2  0
 27 28  1  0
 10 29  1  0
 24 29  1  0
 28 29  2  0
M  END
