x3298-x2600
     RDKit          3D

 30 32  0  0  0  0  0  0  0  0999 V2000
    7.6350    1.4390   22.8010 N   0  0  0  0  0  0  0  0  0  0  0  0
    7.3470   -0.2090   21.3140 C   0  0  2  0  0  0  0  0  0  0  0  0
    6.5880   -0.4810   22.2350 O   0  0  0  0  0  0  0  0  0  0  0  0
    8.2030    0.7080   21.7130 C   0  0  1  0  0  0  0  0  0  0  0  0
    8.8650    1.5310   25.4370 N   0  0  0  0  0  0  0  0  0  0  0  0
    8.6780    1.4320   20.8440 O   0  0  0  0  0  0  0  0  0  0  0  0
   10.3720   -0.0140   26.7870 O   0  0  0  0  0  0  0  0  0  0  0  0
    8.6080   -1.0210   25.3220 O   0  0  0  0  0  0  0  0  0  0  0  0
   13.5110   -1.1900   21.2030 C   0  0  0  0  0  0  0  0  0  0  0  0
    9.6880   -0.0100   25.5430 S   0  0  0  0  0  0  0  0  0  0  0  0
   14.2720   -1.1680   20.0330 N   0  0  0  0  0  0  0  0  0  0  0  0
    9.3560   -0.1030   22.2720 C   0  0  0  0  0  0  0  0  0  0  0  0
    6.3190    0.4780   17.6600 N   0  0  0  0  0  0  0  0  0  0  0  0
    6.9510    0.0540   18.7410 C   0  0  0  0  0  0  0  0  0  0  0  0
    6.5550    0.2840   20.1760 C   0  0  0  0  0  0  0  0  0  0  0  0
    5.2690    1.0830   20.3130 C   0  0  0  0  0  0  0  0  0  0  0  0
    4.7130    1.4600   19.0860 C   0  0  0  0  0  0  0  0  0  0  0  0
    5.2030    1.1850   17.8350 C   0  0  0  0  0  0  0  0  0  0  0  0
    8.3040    3.8670   22.3850 C   0  0  0  0  0  0  0  0  0  0  0  0
    8.9260    4.9990   22.8280 C   0  0  0  0  0  0  0  0  0  0  0  0
    9.5560    5.0840   24.0760 C   0  0  0  0  0  0  0  0  0  0  0  0
    9.5000    3.9430   24.8390 C   0  0  0  0  0  0  0  0  0  0  0  0
    8.8710    2.6710   24.4990 C   0  0  0  0  0  0  0  0  0  0  0  0
    8.2580    2.7000   23.1750 C   0  0  0  0  0  0  0  0  0  0  0  0
   11.8690    0.6300   23.9160 C   0  0  0  0  0  0  0  0  0  0  0  0
   12.7300    0.2950   22.9110 C   0  0  0  0  0  0  0  0  0  0  0  0
   12.6010   -0.9260   22.2720 C   0  0  0  0  0  0  0  0  0  0  0  0
   11.6540   -1.7940   22.6290 C   0  0  0  0  0  0  0  0  0  0  0  0
   10.7760   -1.5140   23.6260 C   0  0  0  0  0  0  0  0  0  0  0  0
   10.8690   -0.2930   24.2790 C   0  0  0  0  0  0  0  0  0  0  0  0
  2  3  1  1
  1  4  1  0
  2  4  1  0
  4  6  1  0
 10  5  1  0
  7 10  2  0
  8 10  2  0
  9 11  3  0
  4 12  1  1
 13 14  2  0
  2 15  1  0
 14 15  1  0
 15 16  2  0
 16 17  1  0
 13 18  1  0
 17 18  2  0
 19 20  2  0
 20 21  1  0
 21 22  2  0
  5 23  1  0
 22 23  1  0
  1 24  1  0
 19 24  1  0
 23 24  2  0
 25 26  2  0
  9 27  1  0
 26 27  1  0
 27 28  2  0
 28 29  1  0
 10 30  1  0
 25 30  1  0
 29 30  2  0
M  END
