x3298-x2754
     RDKit          3D

 48 53  0  0  0  0  0  0  0  0999 V2000
    7.0510    2.0380   22.0400 N   0  0  0  0  0  0  0  0  0  0  0  0
    7.1010   -0.2110   21.4000 C   0  0  2  0  0  0  0  0  0  0  0  0
    6.4130   -0.5780   22.3860 O   0  0  0  0  0  0  0  0  0  0  0  0
    7.8620    1.0780   21.5290 C   0  0  0  0  0  0  0  0  0  0  0  0
    8.5830    1.3400   23.8820 N   0  0  0  0  0  0  0  0  0  0  0  0
    9.1880    1.1680   21.1130 O   0  0  0  0  0  0  0  0  0  0  0  0
   10.7250    2.1890   24.7300 O   0  0  0  0  0  0  0  0  0  0  0  0
    9.5600    0.1040   25.8950 O   0  0  0  0  0  0  0  0  0  0  0  0
   13.6000   -1.8800   21.0230 F   0  0  0  0  0  0  0  0  0  0  0  0
    9.9900    0.8030   24.6380 S   0  0  0  0  0  0  0  0  0  0  0  0
    4.9540   -3.1060   25.1320 C   0  0  0  0  0  0  0  0  0  0  0  0
    3.7460   -2.4950   24.7200 O   0  0  0  0  0  0  0  0  0  0  0  0
    5.2970   -3.2030   26.4900 N   0  0  0  0  0  0  0  0  0  0  0  0
    5.2120   -4.5460   19.8710 O   0  0  0  0  0  0  0  0  0  0  0  0
    6.2720   -3.9920   20.2150 C   0  0  0  0  0  0  0  0  0  0  0  0
    7.0760   -3.1990   19.2660 C   0  0  0  0  0  0  0  0  0  0  0  0
    4.6740   -2.1710   27.3580 C   0  0  0  0  0  0  0  0  0  0  0  0
    5.9670   -1.8880   22.4910 C   0  0  1  0  0  0  0  0  0  0  0  0
    6.3150    0.3750   17.7360 N   0  0  0  0  0  0  0  0  0  0  0  0
    6.9560   -0.0830   18.9460 C   0  0  0  0  0  0  0  0  0  0  0  0
    6.4230    0.2020   20.1360 C   0  0  0  0  0  0  0  0  0  0  0  0
    5.2590    0.9020   20.2510 C   0  0  0  0  0  0  0  0  0  0  0  0
    4.7020    1.3010   19.0920 C   0  0  0  0  0  0  0  0  0  0  0  0
    5.1610    1.0930   17.7670 C   0  0  0  0  0  0  0  0  0  0  0  0
    7.4810    4.4630   22.2870 C   0  0  0  0  0  0  0  0  0  0  0  0
    8.2310    5.5220   23.0000 C   0  0  0  0  0  0  0  0  0  0  0  0
    9.1360    5.0430   24.0620 C   0  0  0  0  0  0  0  0  0  0  0  0
    9.2310    3.6740   24.3320 C   0  0  0  0  0  0  0  0  0  0  0  0
    8.4970    2.7620   23.6240 C   0  0  0  0  0  0  0  0  0  0  0  0
    7.6590    3.1270   22.6400 C   0  0  0  0  0  0  0  0  0  0  0  0
   12.2860    0.4560   23.3760 C   0  0  0  0  0  0  0  0  0  0  0  0
   13.1440   -0.1620   22.5280 C   0  0  0  0  0  0  0  0  0  0  0  0
   12.7560   -1.3050   21.8610 C   0  0  0  0  0  0  0  0  0  0  0  0
   11.5000   -1.8760   22.0250 C   0  0  0  0  0  0  0  0  0  0  0  0
   10.6180   -1.2430   22.8950 C   0  0  0  0  0  0  0  0  0  0  0  0
   11.0220   -0.0850   23.5520 C   0  0  0  0  0  0  0  0  0  0  0  0
    6.7510   -4.1580   21.5100 N   0  0  0  0  0  0  0  0  0  0  0  0
    7.1180   -3.0340   22.1720 C   0  0  2  0  0  0  0  0  0  0  0  0
    6.6090   -2.7150   23.3570 C   0  0  2  0  0  0  0  0  0  0  0  0
    5.9420   -3.7400   24.0960 C   0  0  2  0  0  0  0  0  0  0  0  0
    5.3100   -4.7220   23.3590 C   0  0  0  0  0  0  0  0  0  0  0  0
    6.2160   -5.2550   22.2850 C   0  0  0  0  0  0  0  0  0  0  0  0
    6.8930   -4.9760   26.9070 C   0  0  0  0  0  0  0  0  0  0  0  0
    8.1580   -5.4290   27.2780 C   0  0  0  0  0  0  0  0  0  0  0  0
    9.1920   -4.3970   27.6480 C   0  0  0  0  0  0  0  0  0  0  0  0
    8.8080   -2.9180   27.6020 C   0  0  0  0  0  0  0  0  0  0  0  0
    7.5250   -2.5910   27.2140 C   0  0  0  0  0  0  0  0  0  0  0  0
    6.5960   -3.6070   26.8780 C   0  0  0  0  0  0  0  0  0  0  0  0
  2  3  1  1
  1  4  1  0
  2  4  1  0
  4  6  2  0
 10  5  1  0
  7 10  2  0
  8 10  2  0
 11 12  2  0
 11 13  1  0
 14 15  2  0
 15 16  1  0
 13 17  1  0
 18  3  1  1
 19 20  2  0
  2 21  1  0
 20 21  1  0
 21 22  2  0
 22 23  1  0
 19 24  1  0
 23 24  2  0
 25 26  2  0
 26 27  1  0
 27 28  2  0
  5 29  1  0
 28 29  1  0
  1 30  1  0
 25 30  1  0
 29 30  2  0
 31 32  2  0
  9 33  1  0
 32 33  1  0
 33 34  2  0
 34 35  1  0
 10 36  1  0
 31 36  1  0
 35 36  2  0
 15 37  1  0
 18 38  1  0
 38 37  1  6
 18 39  1  0
 38 39  1  0
 40 11  1  6
 39 40  1  6
 40 41  1  0
 37 42  1  0
 41 42  1  0
 43 44  2  0
 44 45  1  0
 45 46  2  0
 46 47  1  0
 13 48  1  0
 43 48  1  0
 47 48  2  0
M  END
