x3298-x2779
     RDKit          3D

 38 42  0  0  0  0  0  0  0  0999 V2000
    7.1960    1.7080   21.9970 N   0  0  0  0  0  0  0  0  0  0  0  0
    7.1350   -0.4170   21.3040 C   0  0  2  0  0  0  0  0  0  0  0  0
    6.3130   -0.6290   22.1380 O   0  0  0  0  0  0  0  0  0  0  0  0
    8.0800    0.6890   21.6800 C   0  0  0  0  0  0  0  0  0  0  0  0
    8.6760    1.0780   23.9390 N   0  0  0  0  0  0  0  0  0  0  0  0
    9.4800    0.5530   21.6200 O   0  0  0  0  0  0  0  0  0  0  0  0
   10.7910    2.0580   24.7450 O   0  0  0  0  0  0  0  0  0  0  0  0
    9.9380   -0.1840   25.9200 O   0  0  0  0  0  0  0  0  0  0  0  0
   13.7510   -1.7210   20.8840 F   0  0  0  0  0  0  0  0  0  0  0  0
   10.1480    0.6300   24.6600 S   0  0  0  0  0  0  0  0  0  0  0  0
    7.3400   -2.9850   18.8670 C   0  0  0  0  0  0  0  0  0  0  0  0
    5.3440   -4.0480   19.6770 O   0  0  0  0  0  0  0  0  0  0  0  0
    6.3480   -3.3320   19.9200 C   0  0  0  0  0  0  0  0  0  0  0  0
    9.9650   -2.9120   23.5740 C   0  0  0  0  0  0  0  0  0  0  0  0
    6.2690    0.6160   17.5300 N   0  0  0  0  0  0  0  0  0  0  0  0
    6.9630    0.0060   18.6640 C   0  0  0  0  0  0  0  0  0  0  0  0
    6.4870    0.1260   20.0650 C   0  0  0  0  0  0  0  0  0  0  0  0
    5.3230    0.8570   20.1390 C   0  0  0  0  0  0  0  0  0  0  0  0
    4.6860    1.4160   19.0790 C   0  0  0  0  0  0  0  0  0  0  0  0
    5.1300    1.3270   17.7650 C   0  0  0  0  0  0  0  0  0  0  0  0
    7.7680    4.3220   22.1820 C   0  0  0  0  0  0  0  0  0  0  0  0
    8.5270    5.2730   22.8880 C   0  0  0  0  0  0  0  0  0  0  0  0
    9.3540    4.8730   23.9410 C   0  0  0  0  0  0  0  0  0  0  0  0
    9.4160    3.4340   24.3090 C   0  0  0  0  0  0  0  0  0  0  0  0
    8.6300    2.4660   23.5870 C   0  0  0  0  0  0  0  0  0  0  0  0
    7.8550    2.8770   22.5740 C   0  0  0  0  0  0  0  0  0  0  0  0
   12.4110    0.4830   23.3900 C   0  0  0  0  0  0  0  0  0  0  0  0
   13.2670   -0.0930   22.4790 C   0  0  0  0  0  0  0  0  0  0  0  0
   12.9240   -1.2050   21.7680 C   0  0  0  0  0  0  0  0  0  0  0  0
   11.7100   -1.8020   21.9370 C   0  0  0  0  0  0  0  0  0  0  0  0
   10.8380   -1.2540   22.8330 C   0  0  0  0  0  0  0  0  0  0  0  0
   11.2090   -0.1290   23.5290 C   0  0  0  0  0  0  0  0  0  0  0  0
    6.5730   -2.9060   21.2310 N   0  0  0  0  0  0  0  0  0  0  0  0
    7.2130   -1.7980   21.6300 C   0  0  1  0  0  0  0  0  0  0  0  0
    8.5410   -1.5980   21.9660 C   0  0  0  0  0  0  0  0  0  0  0  0
    8.8720   -2.9250   22.5990 N   0  0  0  0  0  0  0  0  0  0  0  0
    7.8220   -3.6180   23.0990 C   0  0  0  0  0  0  0  0  0  0  0  0
    6.7830   -3.8200   22.1820 C   0  0  0  0  0  0  0  0  0  0  0  0
  2  3  1  0
  1  4  1  0
  2  4  1  1
  4  6  2  0
 10  5  1  0
  7 10  2  0
  8 10  2  0
 11 13  1  0
 12 13  2  0
 15 16  2  0
  2 17  1  0
 16 17  1  0
 17 18  2  0
 18 19  1  0
 15 20  1  0
 19 20  2  0
 21 22  2  0
 22 23  1  0
 23 24  2  0
  5 25  1  0
 24 25  1  0
  1 26  1  0
 21 26  1  0
 25 26  2  0
 27 28  2  0
  9 29  1  0
 28 29  1  0
 29 30  2  0
 30 31  1  0
 10 32  1  0
 27 32  1  0
 31 32  2  0
 13 33  1  0
  2 34  1  0
 34  3  1  0
 33 34  1  0
 34 35  1  1
 14 36  1  0
 35 36  1  0
 36 37  1  0
 33 38  1  0
 37 38  1  0
M  END
