x3298-x2646
     RDKit          3D

 30 32  0  0  0  0  0  0  0  0999 V2000
    7.0820    1.6490   22.3760 N   0  0  0  0  0  0  0  0  0  0  0  0
    7.1590   -0.2620   21.1920 C   0  0  2  0  0  0  0  0  0  0  0  0
    6.3500   -0.6620   22.0240 O   0  0  0  0  0  0  0  0  0  0  0  0
    7.9230    0.6120   21.7790 C   0  0  1  0  0  0  0  0  0  0  0  0
    8.9670    1.1440   23.8360 N   0  0  0  0  0  0  0  0  0  0  0  0
    8.9070    1.0380   21.1500 O   0  0  0  0  0  0  0  0  0  0  0  0
   10.9360    1.9010   24.7250 O   0  0  0  0  0  0  0  0  0  0  0  0
    9.8990   -0.2450   25.8600 O   0  0  0  0  0  0  0  0  0  0  0  0
   13.6920   -1.9070   20.8250 F   0  0  0  0  0  0  0  0  0  0  0  0
   10.3110    0.6280   24.6960 S   0  0  0  0  0  0  0  0  0  0  0  0
    4.4900    1.5280   21.4470 C   0  0  0  0  0  0  0  0  0  0  0  0
    8.5080   -0.3030   22.8540 C   0  0  0  0  0  0  0  0  0  0  0  0
    6.2890    0.6280   17.5100 N   0  0  0  0  0  0  0  0  0  0  0  0
    6.9620    0.0590   18.6560 C   0  0  0  0  0  0  0  0  0  0  0  0
    6.4520    0.2990   20.0580 C   0  0  0  0  0  0  0  0  0  0  0  0
    5.1980    1.1470   20.2000 C   0  0  0  0  0  0  0  0  0  0  0  0
    4.6960    1.6010   18.9920 C   0  0  0  0  0  0  0  0  0  0  0  0
    5.2190    1.3530   17.7750 C   0  0  0  0  0  0  0  0  0  0  0  0
    7.5400    4.2380   22.2760 C   0  0  0  0  0  0  0  0  0  0  0  0
    8.3970    5.2110   22.6800 C   0  0  0  0  0  0  0  0  0  0  0  0
    9.5230    4.9370   23.4650 C   0  0  0  0  0  0  0  0  0  0  0  0
    9.7760    3.6280   23.8600 C   0  0  0  0  0  0  0  0  0  0  0  0
    8.8590    2.5480   23.4710 C   0  0  0  0  0  0  0  0  0  0  0  0
    7.7600    2.9080   22.6540 C   0  0  0  0  0  0  0  0  0  0  0  0
   12.4890    0.3940   23.2820 C   0  0  0  0  0  0  0  0  0  0  0  0
   13.3030   -0.1800   22.3730 C   0  0  0  0  0  0  0  0  0  0  0  0
   12.9220   -1.3530   21.7340 C   0  0  0  0  0  0  0  0  0  0  0  0
   11.7360   -1.9310   22.0350 C   0  0  0  0  0  0  0  0  0  0  0  0
   10.8790   -1.3870   22.9560 C   0  0  0  0  0  0  0  0  0  0  0  0
   11.2760   -0.2130   23.5610 C   0  0  0  0  0  0  0  0  0  0  0  0
  2  3  1  1
  1  4  1  0
  2  4  1  0
  4  6  1  0
 10  5  1  0
  7 10  2  0
  8 10  2  0
  4 12  1  1
 13 14  2  0
  2 15  1  0
 14 15  1  0
 11 16  1  0
 15 16  2  0
 16 17  1  0
 13 18  1  0
 17 18  2  0
 19 20  2  0
 20 21  1  0
 21 22  2  0
  5 23  1  0
 22 23  1  0
  1 24  1  0
 19 24  1  0
 23 24  2  0
 25 26  2  0
  9 27  1  0
 26 27  1  0
 27 28  2  0
 28 29  1  0
 10 30  1  0
 25 30  1  0
 29 30  2  0
M  END
