x3298-x2964
     RDKit          3D

 30 32  0  0  0  0  0  0  0  0999 V2000
    6.7320    1.5960   22.4060 N   0  0  0  0  0  0  0  0  0  0  0  0
    7.5430    0.0170   21.1690 C   0  0  2  0  0  0  0  0  0  0  0  0
    6.9270   -0.6840   21.9710 O   0  0  0  0  0  0  0  0  0  0  0  0
    7.9870    1.0770   21.8160 C   0  0  1  0  0  0  0  0  0  0  0  0
    8.6910    0.9010   24.1360 N   0  0  0  0  0  0  0  0  0  0  0  0
    8.7610    1.8620   21.2400 O   0  0  0  0  0  0  0  0  0  0  0  0
   10.6900    1.8040   24.8260 O   0  0  0  0  0  0  0  0  0  0  0  0
    9.9200   -0.3770   26.0550 O   0  0  0  0  0  0  0  0  0  0  0  0
   13.6880   -1.7980   20.8090 F   0  0  0  0  0  0  0  0  0  0  0  0
   10.1600    0.4860   24.8420 S   0  0  0  0  0  0  0  0  0  0  0  0
    3.2540    2.1780   19.1530 N   0  0  0  0  0  0  0  0  0  0  0  0
    8.9110    0.3490   22.7000 N   0  0  0  0  0  0  0  0  0  0  0  0
    6.2830    0.3330   17.6350 N   0  0  0  0  0  0  0  0  0  0  0  0
    7.0100    0.0270   18.6940 C   0  0  0  0  0  0  0  0  0  0  0  0
    6.6400    0.3860   20.0640 C   0  0  0  0  0  0  0  0  0  0  0  0
    5.3710    1.1150   20.3030 C   0  0  0  0  0  0  0  0  0  0  0  0
    4.5230    1.4650   19.0890 C   0  0  0  0  0  0  0  0  0  0  0  0
    5.1730    0.9810   17.8340 C   0  0  0  0  0  0  0  0  0  0  0  0
    7.8300    3.9770   22.2840 C   0  0  0  0  0  0  0  0  0  0  0  0
    8.8290    4.8250   22.6910 C   0  0  0  0  0  0  0  0  0  0  0  0
    9.8140    4.4080   23.5580 C   0  0  0  0  0  0  0  0  0  0  0  0
    9.7140    3.1250   23.9780 C   0  0  0  0  0  0  0  0  0  0  0  0
    8.7120    2.1930   23.6260 C   0  0  0  0  0  0  0  0  0  0  0  0
    7.7680    2.6390   22.7520 C   0  0  0  0  0  0  0  0  0  0  0  0
   12.3650    0.4230   23.4410 C   0  0  0  0  0  0  0  0  0  0  0  0
   13.3120   -0.0450   22.4720 C   0  0  0  0  0  0  0  0  0  0  0  0
   12.8920   -1.3030   21.7340 C   0  0  0  0  0  0  0  0  0  0  0  0
   11.6790   -1.9120   22.0240 C   0  0  0  0  0  0  0  0  0  0  0  0
   10.8490   -1.3620   22.9880 C   0  0  0  0  0  0  0  0  0  0  0  0
   11.1830   -0.2380   23.6600 C   0  0  0  0  0  0  0  0  0  0  0  0
  2  3  1  1
  1  4  1  0
  2  4  1  0
  4  6  1  0
 10  5  1  0
  7 10  2  0
  8 10  2  0
  4 12  1  1
 13 14  2  0
  2 15  1  0
 14 15  1  0
 15 16  2  0
 11 17  1  0
 16 17  1  0
 13 18  1  0
 17 18  2  0
 19 20  2  0
 20 21  1  0
 21 22  2  0
  5 23  1  0
 22 23  1  0
  1 24  1  0
 19 24  1  0
 23 24  2  0
 25 26  2  0
  9 27  1  0
 26 27  1  0
 27 28  2  0
 28 29  1  0
 10 30  1  0
 25 30  1  0
 29 30  2  0
M  END
