x3298-x0820
     RDKit          3D

 43 47  0  0  0  0  0  0  0  0999 V2000
    7.0050    1.4170   22.0730 N   0  0  0  0  0  0  0  0  0  0  0  0
    7.3130   -0.8520   21.4070 C   0  0  2  0  0  0  0  0  0  0  0  0
    6.6940   -1.3820   22.4040 O   0  0  0  0  0  0  0  0  0  0  0  0
    7.9100    0.3030   21.7440 C   0  0  0  0  0  0  0  0  0  0  0  0
    8.7560    0.8980   23.9250 N   0  0  0  0  0  0  0  0  0  0  0  0
    9.1310    0.4500   21.7180 O   0  0  0  0  0  0  0  0  0  0  0  0
   10.7010    1.8460   24.7790 O   0  0  0  0  0  0  0  0  0  0  0  0
    9.8970   -0.3950   25.8990 O   0  0  0  0  0  0  0  0  0  0  0  0
   13.6930   -1.7600   20.8460 F   0  0  0  0  0  0  0  0  0  0  0  0
   10.1810    0.5190   24.7240 S   0  0  0  0  0  0  0  0  0  0  0  0
    6.8950   -3.7170   21.5830 N   0  0  0  0  0  0  0  0  0  0  0  0
    5.5950   -4.8690   20.0430 O   0  0  0  0  0  0  0  0  0  0  0  0
    6.1220   -2.7720   22.3640 C   0  0  1  0  0  0  0  0  0  0  0  0
    6.4850   -4.0010   20.3110 C   0  0  0  0  0  0  0  0  0  0  0  0
    7.1660   -3.2570   19.2440 C   0  0  0  0  0  0  0  0  0  0  0  0
    6.3000    0.2760   17.7850 N   0  0  0  0  0  0  0  0  0  0  0  0
    7.0680   -0.3460   18.8440 C   0  0  0  0  0  0  0  0  0  0  0  0
    6.5260   -0.2720   20.2560 C   0  0  0  0  0  0  0  0  0  0  0  0
    5.3060    0.3920   20.3370 C   0  0  0  0  0  0  0  0  0  0  0  0
    4.5550    0.9820   19.3460 C   0  0  0  0  0  0  0  0  0  0  0  0
    5.0440    0.9420   18.0460 C   0  0  0  0  0  0  0  0  0  0  0  0
    7.4790    3.9520   22.0910 C   0  0  0  0  0  0  0  0  0  0  0  0
    8.2420    5.0360   22.6010 C   0  0  0  0  0  0  0  0  0  0  0  0
    9.2070    4.7330   23.5480 C   0  0  0  0  0  0  0  0  0  0  0  0
    9.4810    3.3950   24.0610 C   0  0  0  0  0  0  0  0  0  0  0  0
    8.6800    2.3150   23.5450 C   0  0  0  0  0  0  0  0  0  0  0  0
    7.6780    2.6210   22.5260 C   0  0  0  0  0  0  0  0  0  0  0  0
   12.3980    0.3850   23.4070 C   0  0  0  0  0  0  0  0  0  0  0  0
   13.2170   -0.1840   22.4730 C   0  0  0  0  0  0  0  0  0  0  0  0
   12.8550   -1.2760   21.7430 C   0  0  0  0  0  0  0  0  0  0  0  0
   11.6340   -1.8890   21.8910 C   0  0  0  0  0  0  0  0  0  0  0  0
   10.7890   -1.3340   22.8210 C   0  0  0  0  0  0  0  0  0  0  0  0
   11.2000   -0.2200   23.5450 C   0  0  0  0  0  0  0  0  0  0  0  0
    5.7140   -3.3980   23.7350 C   0  0  0  0  0  0  0  0  0  0  0  0
    6.4940   -3.9270   24.8390 C   0  0  0  0  0  0  0  0  0  0  0  0
    5.8010   -4.4280   26.0040 C   0  0  0  0  0  0  0  0  0  0  0  0
    4.4110   -4.4370   26.0960 C   0  0  0  0  0  0  0  0  0  0  0  0
    3.6400   -3.9590   25.0600 C   0  0  0  0  0  0  0  0  0  0  0  0
    4.3190   -3.4220   23.8470 C   0  0  0  0  0  0  0  0  0  0  0  0
    6.4610   -4.9480   27.1320 C   0  0  0  0  0  0  0  0  0  0  0  0
    7.9660   -5.0600   27.2540 C   0  0  0  0  0  0  0  0  0  0  0  0
    8.7460   -4.5570   26.0310 C   0  0  0  0  0  0  0  0  0  0  0  0
    7.9180   -3.9930   24.8620 C   0  0  0  0  0  0  0  0  0  0  0  0
  2  3  1  1
  1  4  1  0
  2  4  1  0
  4  6  2  0
 10  5  1  0
  7 10  2  0
  8 10  2  0
  3 13  1  0
 13 11  1  1
 11 14  1  0
 12 14  2  0
 14 15  1  0
 16 17  2  0
  2 18  1  0
 17 18  1  0
 18 19  2  0
 19 20  1  0
 16 21  1  0
 20 21  2  0
 22 23  2  0
 23 24  1  0
 24 25  2  0
  5 26  1  0
 25 26  1  0
  1 27  1  0
 22 27  1  0
 26 27  2  0
 28 29  2  0
  9 30  1  0
 29 30  1  0
 30 31  2  0
 31 32  1  0
 10 33  1  0
 28 33  1  0
 32 33  2  0
 13 34  1  0
 34 35  2  0
 35 36  1  0
 36 37  2  0
 37 38  1  0
 34 39  1  0
 38 39  2  0
 36 40  1  0
 40 41  2  0
 41 42  1  0
 35 43  1  0
 42 43  2  0
M  END
