x3298-x2764
     RDKit          3D

 30 32  0  0  0  0  0  0  0  0999 V2000
    6.8480    1.8050   22.6370 N   0  0  0  0  0  0  0  0  0  0  0  0
    7.3030   -0.1790   21.5260 C   0  0  1  0  0  0  0  0  0  0  0  0
    6.3750   -0.5840   22.2420 O   0  0  0  0  0  0  0  0  0  0  0  0
    7.7900    1.2290   21.7870 C   0  0  0  0  0  0  0  0  0  0  0  0
    8.8660    1.2330   23.9050 N   0  0  0  0  0  0  0  0  0  0  0  0
    8.9770    1.6590   21.1400 O   0  0  0  0  0  0  0  0  0  0  0  0
   11.0220    1.9550   24.6820 O   0  0  0  0  0  0  0  0  0  0  0  0
    9.9390   -0.1160   25.9140 O   0  0  0  0  0  0  0  0  0  0  0  0
   13.7020   -1.8510   20.8400 F   0  0  0  0  0  0  0  0  0  0  0  0
   10.2600    0.5960   24.6150 S   0  0  0  0  0  0  0  0  0  0  0  0
    8.4200   -1.0000   21.3590 N   0  0  0  0  0  0  0  0  0  0  0  0
    8.6870   -2.2080   22.1400 C   0  0  0  0  0  0  0  0  0  0  0  0
    6.3930    0.2050   17.7610 N   0  0  0  0  0  0  0  0  0  0  0  0
    7.0120   -0.1640   18.8940 C   0  0  0  0  0  0  0  0  0  0  0  0
    6.6240    0.1800   20.2720 C   0  0  0  0  0  0  0  0  0  0  0  0
    5.3530    1.0390   20.3100 C   0  0  0  0  0  0  0  0  0  0  0  0
    4.6770    1.4360   19.0260 C   0  0  0  0  0  0  0  0  0  0  0  0
    5.1940    1.0320   17.8240 C   0  0  0  0  0  0  0  0  0  0  0  0
    7.5540    4.2600   22.4380 C   0  0  0  0  0  0  0  0  0  0  0  0
    8.5510    5.1820   22.7380 C   0  0  0  0  0  0  0  0  0  0  0  0
    9.6550    4.7910   23.3980 C   0  0  0  0  0  0  0  0  0  0  0  0
    9.9140    3.4880   23.8430 C   0  0  0  0  0  0  0  0  0  0  0  0
    8.9120    2.5450   23.5760 C   0  0  0  0  0  0  0  0  0  0  0  0
    7.7300    2.9350   22.8520 C   0  0  0  0  0  0  0  0  0  0  0  0
   12.4550    0.4430   23.2940 C   0  0  0  0  0  0  0  0  0  0  0  0
   13.3100   -0.1180   22.3850 C   0  0  0  0  0  0  0  0  0  0  0  0
   12.9140   -1.2970   21.7440 C   0  0  0  0  0  0  0  0  0  0  0  0
   11.6950   -1.8950   22.0280 C   0  0  0  0  0  0  0  0  0  0  0  0
   10.8810   -1.3320   22.9190 C   0  0  0  0  0  0  0  0  0  0  0  0
   11.2620   -0.1840   23.5230 C   0  0  0  0  0  0  0  0  0  0  0  0
  2  3  1  1
  1  4  1  0
  2  4  1  0
  4  6  2  0
 10  5  1  0
  7 10  2  0
  8 10  2  0
  2 11  1  0
 11 12  1  0
 13 14  2  0
  2 15  1  0
 14 15  1  0
 15 16  2  0
 16 17  1  0
 13 18  1  0
 17 18  2  0
 19 20  2  0
 20 21  1  0
 21 22  2  0
  5 23  1  0
 22 23  1  0
  1 24  1  0
 19 24  1  0
 23 24  2  0
 25 26  2  0
  9 27  1  0
 26 27  1  0
 27 28  2  0
 28 29  1  0
 10 30  1  0
 25 30  1  0
 29 30  2  0
M  END
