x3298-x1418
     RDKit          3D

 38 42  0  0  0  0  0  0  0  0999 V2000
    7.0240    1.9540   22.2960 N   0  0  0  0  0  0  0  0  0  0  0  0
    7.2280   -0.0560   21.1370 C   0  0  2  0  0  0  0  0  0  0  0  0
    6.6380   -0.5750   22.1130 O   0  0  0  0  0  0  0  0  0  0  0  0
    7.8420    1.0370   21.5170 C   0  0  0  0  0  0  0  0  0  0  0  0
    9.0150    1.1360   23.6730 N   0  0  0  0  0  0  0  0  0  0  0  0
    8.9900    1.3270   21.1800 O   0  0  0  0  0  0  0  0  0  0  0  0
   10.8620    1.9080   24.7580 O   0  0  0  0  0  0  0  0  0  0  0  0
    9.8070   -0.2830   25.7560 O   0  0  0  0  0  0  0  0  0  0  0  0
   13.7890   -1.7060   20.8300 F   0  0  0  0  0  0  0  0  0  0  0  0
   10.2860    0.6240   24.6410 S   0  0  0  0  0  0  0  0  0  0  0  0
    7.3680   -2.9610   18.7790 C   0  0  0  0  0  0  0  0  0  0  0  0
    5.4480   -4.0440   19.6990 O   0  0  0  0  0  0  0  0  0  0  0  0
    6.4240   -3.2610   19.8840 C   0  0  0  0  0  0  0  0  0  0  0  0
    9.7610   -3.2350   23.7150 C   0  0  0  0  0  0  0  0  0  0  0  0
    6.2080    0.6430   17.4910 N   0  0  0  0  0  0  0  0  0  0  0  0
    6.9220    0.1670   18.6250 C   0  0  0  0  0  0  0  0  0  0  0  0
    6.4430    0.3900   20.0100 C   0  0  0  0  0  0  0  0  0  0  0  0
    5.2490    1.0640   20.0700 C   0  0  0  0  0  0  0  0  0  0  0  0
    4.5310    1.5300   19.0120 C   0  0  0  0  0  0  0  0  0  0  0  0
    5.0790    1.2920   17.7600 C   0  0  0  0  0  0  0  0  0  0  0  0
    7.6360    4.4180   22.4040 C   0  0  0  0  0  0  0  0  0  0  0  0
    8.5540    5.4080   22.8260 C   0  0  0  0  0  0  0  0  0  0  0  0
    9.6760    4.9740   23.5220 C   0  0  0  0  0  0  0  0  0  0  0  0
    9.9900    3.5860   23.8700 C   0  0  0  0  0  0  0  0  0  0  0  0
    9.0100    2.5970   23.4490 C   0  0  0  0  0  0  0  0  0  0  0  0
    7.8420    3.0590   22.6910 C   0  0  0  0  0  0  0  0  0  0  0  0
   12.4950    0.5140   23.3260 C   0  0  0  0  0  0  0  0  0  0  0  0
   13.3050   -0.0670   22.4060 C   0  0  0  0  0  0  0  0  0  0  0  0
   12.9740   -1.2060   21.7340 C   0  0  0  0  0  0  0  0  0  0  0  0
   11.7910   -1.8550   21.9530 C   0  0  0  0  0  0  0  0  0  0  0  0
   10.9680   -1.2830   22.8740 C   0  0  0  0  0  0  0  0  0  0  0  0
   11.3340   -0.1290   23.5190 C   0  0  0  0  0  0  0  0  0  0  0  0
    6.6740   -2.6960   21.1440 N   0  0  0  0  0  0  0  0  0  0  0  0
    6.4370   -3.3990   22.2610 C   0  0  0  0  0  0  0  0  0  0  0  0
    7.6310   -3.8770   22.8110 C   0  0  0  0  0  0  0  0  0  0  0  0
    8.4890   -2.7350   23.1960 N   0  0  0  0  0  0  0  0  0  0  0  0
    8.7130   -1.8100   22.0700 C   0  0  0  0  0  0  0  0  0  0  0  0
    7.5080   -1.5120   21.4450 C   0  0  1  0  0  0  0  0  0  0  0  0
  2  3  1  0
  1  4  1  0
  2  4  1  1
  4  6  2  0
 10  5  1  0
  7 10  2  0
  8 10  2  0
 11 13  1  0
 12 13  2  0
 15 16  2  0
  2 17  1  0
 16 17  1  0
 17 18  2  0
 18 19  1  0
 15 20  1  0
 19 20  2  0
 21 22  2  0
 22 23  1  0
 23 24  2  0
  5 25  1  0
 24 25  1  0
  1 26  1  0
 21 26  1  0
 25 26  2  0
 27 28  2  0
  9 29  1  0
 28 29  1  0
 29 30  2  0
 30 31  1  0
 10 32  1  0
 27 32  1  0
 31 32  2  0
 13 33  1  0
 33 34  1  0
 34 35  1  0
 14 36  1  0
 35 36  1  0
 36 37  1  0
  2 38  1  0
 38  3  1  0
 33 38  1  0
 38 37  1  1
M  END
