x3303-x0434
     RDKit          3D

 26 31  0  0  0  0  0  0  0  0999 V2000
    6.6500   -1.4050   21.0770 C   0  0  2  0  0  0  0  0  0  0  0  0
    6.2240   -2.4700   20.6270 O   0  0  0  0  0  0  0  0  0  0  0  0
    6.4470    1.2520   16.9480 O   0  0  0  0  0  0  0  0  0  0  0  0
    9.3690   -1.4120   20.9040 O   0  0  0  0  0  0  0  0  0  0  0  0
    8.0640   -1.0230   21.0660 C   0  0  1  0  0  0  0  0  0  0  0  0
    9.1050   -0.3560   21.9420 C   0  0  1  0  0  0  0  0  0  0  0  0
    9.3700   -0.8210   23.3100 N   0  0  0  0  0  0  0  0  0  0  0  0
    8.1720   -1.5390   23.7800 C   0  0  0  0  0  0  0  0  0  0  0  0
    7.7830   -2.6540   22.8690 C   0  0  0  0  0  0  0  0  0  0  0  0
    7.1640   -1.4040   22.3330 N   0  0  0  0  0  0  0  0  0  0  0  0
    4.8700    1.7760   18.6050 N   0  0  0  0  0  0  0  0  0  0  0  0
    4.3000    1.5270   19.9220 C   0  0  0  0  0  0  0  0  0  0  0  0
    4.7900    0.4810   20.8990 C   0  0  0  0  0  0  0  0  0  0  0  0
    5.8690   -0.2200   20.3730 C   0  0  0  0  0  0  0  0  0  0  0  0
    6.3910    0.0310   19.1140 C   0  0  0  0  0  0  0  0  0  0  0  0
    5.9060    1.0100   18.2350 C   0  0  0  0  0  0  0  0  0  0  0  0
   11.9020   -1.0570   22.7040 C   0  0  0  0  0  0  0  0  0  0  0  0
   13.1510   -1.5930   22.9730 C   0  0  0  0  0  0  0  0  0  0  0  0
   13.2910   -2.4340   24.0680 C   0  0  0  0  0  0  0  0  0  0  0  0
   12.2130   -2.8260   25.0010 C   0  0  0  0  0  0  0  0  0  0  0  0
   10.8870   -2.2350   24.6840 C   0  0  0  0  0  0  0  0  0  0  0  0
   10.7420   -1.3870   23.5810 C   0  0  0  0  0  0  0  0  0  0  0  0
    4.1390    0.3710   22.1000 C   0  0  0  0  0  0  0  0  0  0  0  0
    3.0350    1.1990   22.4460 C   0  0  0  0  0  0  0  0  0  0  0  0
    2.5520    2.1640   21.5940 C   0  0  0  0  0  0  0  0  0  0  0  0
    3.1480    2.3360   20.3770 C   0  0  0  0  0  0  0  0  0  0  0  0
  1  2  1  6
  1  5  1  0
  5  4  1  1
  6  4  1  6
  5  6  1  0
  6  7  1  0
  7  8  1  0
  8  9  1  0
  1 10  1  0
  5 10  1  0
  9 10  1  0
 11 12  2  0
 12 13  1  0
  1 14  1  0
 13 14  2  0
 14 15  1  0
  3 16  1  0
 11 16  1  0
 15 16  2  0
 17 18  2  0
 18 19  1  0
 19 20  2  0
 20 21  1  0
  7 22  1  0
 17 22  1  0
 21 22  2  0
 13 23  1  0
 23 24  2  0
 24 25  1  0
 12 26  1  0
 25 26  2  0
M  END
