x3303-x3108
     RDKit          3D

 35 42  0  0  0  0  0  0  0  0999 V2000
    7.4520    2.3370   21.5320 C   0  0  0  0  0  0  0  0  0  0  0  0
    9.3510    0.8590   22.0080 O   0  0  0  0  0  0  0  0  0  0  0  0
    7.7040    0.1390   24.4970 O   0  0  0  0  0  0  0  0  0  0  0  0
    8.4670   -0.8150   24.5680 C   0  0  2  0  0  0  0  0  0  0  0  0
    7.8630   -2.0970   25.0130 C   0  0  2  0  0  0  0  0  0  0  0  0
    5.9420   -2.2920   20.8440 C   0  0  0  0  0  0  0  0  0  0  0  0
    5.1430   -3.1230   21.2990 O   0  0  0  0  0  0  0  0  0  0  0  0
    6.6510    1.2100   17.4680 O   0  0  0  0  0  0  0  0  0  0  0  0
    5.1990    0.4980   19.0560 C   0  0  1  0  0  0  0  0  0  0  0  0
    6.3660   -0.4910   19.1990 C   0  0  0  0  0  0  0  0  0  0  0  0
    7.2020    0.0530   20.3400 C   0  0  0  0  0  0  0  0  0  0  0  0
    6.8460    1.4020   20.4310 C   0  0  0  0  0  0  0  0  0  0  0  0
    5.8910    1.9120   19.5590 C   0  0  1  0  0  0  0  0  0  0  0  0
    5.5720    1.4940   18.3540 C   0  0  1  0  0  0  0  0  0  0  0  0
   10.1030   -5.0530   25.4120 N   0  0  0  0  0  0  0  0  0  0  0  0
    9.4630   -3.8700   25.0130 C   0  0  0  0  0  0  0  0  0  0  0  0
    8.3500   -3.2980   25.6020 C   0  0  0  0  0  0  0  0  0  0  0  0
    7.8390   -3.9960   26.6970 C   0  0  0  0  0  0  0  0  0  0  0  0
    8.3860   -5.2580   27.2380 C   0  0  0  0  0  0  0  0  0  0  0  0
    9.5570   -5.7920   26.5510 C   0  0  0  0  0  0  0  0  0  0  0  0
    8.1080   -0.9070   21.0660 C   0  0  1  0  0  0  0  0  0  0  0  0
    8.9430   -0.3230   22.0670 C   0  0  0  0  0  0  0  0  0  0  0  0
    9.2830   -1.2200   23.1520 C   0  0  2  0  0  0  0  0  0  0  0  0
    8.2890   -1.9390   23.6050 C   0  0  2  0  0  0  0  0  0  0  0  0
    7.0840   -2.0110   22.9920 C   0  0  0  0  0  0  0  0  0  0  0  0
    7.1190   -1.8520   21.5830 N   0  0  0  0  0  0  0  0  0  0  0  0
   11.6790   -1.6200   22.2960 C   0  0  0  0  0  0  0  0  0  0  0  0
   13.0000   -2.0080   22.4690 C   0  0  0  0  0  0  0  0  0  0  0  0
   13.3920   -2.4540   23.7320 C   0  0  0  0  0  0  0  0  0  0  0  0
   12.5060   -2.5090   24.7980 C   0  0  0  0  0  0  0  0  0  0  0  0
   11.1880   -2.1070   24.5980 C   0  0  0  0  0  0  0  0  0  0  0  0
   10.7570   -1.6590   23.3420 C   0  0  0  0  0  0  0  0  0  0  0  0
    4.0800    0.4590   20.1590 C   0  0  0  0  0  0  0  0  0  0  0  0
    3.7510    1.7510   20.5110 C   0  0  0  0  0  0  0  0  0  0  0  0
    4.8190    2.7090   20.1780 C   0  0  0  0  0  0  0  0  0  0  0  0
  4  3  1  1
  4  5  1  0
  6  7  2  0
  9 10  1  6
 10 11  1  0
  1 12  1  0
 11 12  2  0
  9 13  1  0
 13 12  1  0
 14  8  1  6
  9 14  1  0
 13 14  1  0
 15 16  2  0
  5 17  1  1
 16 17  1  0
 17 18  2  0
 18 19  1  0
 15 20  1  0
 19 20  2  0
 21 11  1  1
  2 22  2  0
 21 22  1  0
  4 23  1  0
 22 23  1  0
  4 24  1  0
  5 24  1  0
 23 24  1  0
 24 25  1  6
  6 26  1  0
 21 26  1  0
 25 26  1  0
 27 28  2  0
 28 29  1  0
 29 30  2  0
 30 31  1  0
 23 32  1  1
 27 32  1  0
 31 32  2  0
  9 33  1  0
 33 34  1  0
 13 35  1  1
 34 35  2  0
M  END
