x3303-x0991
     RDKit          3D

 30 34  0  0  0  0  0  0  0  0999 V2000
    6.1490   -1.6460   20.9780 C   0  0  0  0  0  0  0  0  0  0  0  0
    5.3730   -2.5960   20.9950 O   0  0  0  0  0  0  0  0  0  0  0  0
    6.4610    1.2250   16.9930 O   0  0  0  0  0  0  0  0  0  0  0  0
   10.2050   -5.1640   25.3000 N   0  0  0  0  0  0  0  0  0  0  0  0
    8.4950   -3.5310   23.1080 C   0  0  2  0  0  0  0  0  0  0  0  0
    8.1100   -4.6800   23.8230 C   0  0  0  0  0  0  0  0  0  0  0  0
    8.0710   -4.8260   26.0780 N   0  0  0  0  0  0  0  0  0  0  0  0
    8.7710   -4.8920   25.1560 C   0  0  0  0  0  0  0  0  0  0  0  0
    8.4550   -0.9330   21.2400 C   0  0  0  0  0  0  0  0  0  0  0  0
    9.1630   -0.2230   22.3840 C   0  0  0  0  0  0  0  0  0  0  0  0
    9.4360   -1.1900   23.4580 N   0  0  0  0  0  0  0  0  0  0  0  0
    8.4970   -2.1080   23.6900 C   0  0  1  0  0  0  0  0  0  0  0  0
    7.5270   -2.2970   22.8960 C   0  0  1  0  0  0  0  0  0  0  0  0
    7.3490   -1.6330   21.7140 N   0  0  0  0  0  0  0  0  0  0  0  0
    5.0260    1.6670   18.5930 N   0  0  0  0  0  0  0  0  0  0  0  0
    4.4270    1.4610   19.7460 C   0  0  0  0  0  0  0  0  0  0  0  0
    4.7780    0.3810   20.5560 C   0  0  0  0  0  0  0  0  0  0  0  0
    5.7600   -0.4770   20.1380 C   0  0  0  0  0  0  0  0  0  0  0  0
    6.4190   -0.2870   18.9120 C   0  0  0  0  0  0  0  0  0  0  0  0
    5.9850    0.8250   18.1940 C   0  0  0  0  0  0  0  0  0  0  0  0
   11.7400   -1.2950   22.6730 C   0  0  0  0  0  0  0  0  0  0  0  0
   13.1460   -1.6940   22.7850 C   0  0  0  0  0  0  0  0  0  0  0  0
   13.4780   -2.4800   24.0410 C   0  0  0  0  0  0  0  0  0  0  0  0
   12.4840   -2.7510   24.9520 C   0  0  0  0  0  0  0  0  0  0  0  0
   11.1810   -2.3200   24.7420 C   0  0  0  0  0  0  0  0  0  0  0  0
   10.7980   -1.6140   23.6420 C   0  0  0  0  0  0  0  0  0  0  0  0
    4.0840    0.2390   21.7740 C   0  0  0  0  0  0  0  0  0  0  0  0
    3.0970    1.1430   22.1370 C   0  0  0  0  0  0  0  0  0  0  0  0
    2.7410    2.2260   21.3300 C   0  0  0  0  0  0  0  0  0  0  0  0
    3.4380    2.3520   20.1300 C   0  0  0  0  0  0  0  0  0  0  0  0
  1  2  2  0
  5  6  1  1
  4  8  2  3
  6  8  1  0
  7  8  1  0
  9 10  1  0
 10 11  1  0
  5 12  1  0
 12 11  1  6
  5 13  1  0
 12 13  1  0
  1 14  1  0
  9 14  1  0
 13 14  1  6
 15 16  2  0
 16 17  1  0
  1 18  1  0
 17 18  2  0
 18 19  1  0
  3 20  1  0
 15 20  1  0
 19 20  2  0
 21 22  2  0
 22 23  1  0
 23 24  2  0
 24 25  1  0
 11 26  1  0
 21 26  1  0
 25 26  2  0
 17 27  1  0
 27 28  2  0
 28 29  1  0
 16 30  1  0
 29 30  2  0
M  END
