pyridine_urea_12101
     RDKit          3D

 23 25  0  0  0  0  0  0  0  0999 V2000
   13.1260    1.3500   22.9610 C   0  0  0  0  0  0  0  0  0  0  0  0
   12.6340    0.2120   23.8050 C   0  0  1  0  0  0  0  0  0  0  0  0
   11.3750    0.5510   24.3120 C   0  0  0  0  0  0  0  0  0  0  0  0
   10.6920   -0.3360   25.1770 C   0  0  0  0  0  0  0  0  0  0  0  0
    9.4210    0.0370   25.6550 C   0  0  0  0  0  0  0  0  0  0  0  0
    8.7840    1.2430   25.3210 C   0  0  0  0  0  0  0  0  0  0  0  0
    9.4020    2.1480   24.4780 C   0  0  0  0  0  0  0  0  0  0  0  0
   10.7700    1.7690   23.9560 C   0  0  0  0  0  0  0  0  0  0  0  0
   12.3000   -0.8110   22.9060 N   0  0  0  0  0  0  0  0  0  0  0  0
   11.3070   -1.4460   22.1740 C   0  0  0  0  0  0  0  0  0  0  0  0
   10.0530   -1.0090   22.2510 C   0  0  0  0  0  0  0  0  0  0  0  0
    8.9370   -1.4350   21.6430 N   0  0  0  0  0  0  0  0  0  0  0  0
    8.0880   -0.4630   21.2010 C   0  0  0  0  0  0  0  0  0  0  0  0
    8.4220    0.7110   21.0830 O   0  0  0  0  0  0  0  0  0  0  0  0
    6.8610   -0.9090   20.9100 N   0  0  0  0  0  0  0  0  0  0  0  0
    6.3010   -0.1650   19.9440 C   0  0  0  0  0  0  0  0  0  0  0  0
    5.1090    0.5200   20.1870 C   0  0  0  0  0  0  0  0  0  0  0  0
    4.5520    1.2990   19.1680 C   0  0  0  0  0  0  0  0  0  0  0  0
    5.1950    1.3780   17.9370 C   0  0  0  0  0  0  0  0  0  0  0  0
    6.3390    0.7160   17.7020 N   0  0  0  0  0  0  0  0  0  0  0  0
    6.8590   -0.0320   18.6940 C   0  0  0  0  0  0  0  0  0  0  0  0
   10.0760   -0.0140   23.0660 C   0  0  0  0  0  0  0  0  0  0  0  0
   11.3500    0.1090   23.4460 N   0  0  0  0  0  0  0  0  0  0  0  0
  2  1  1  6
  2  3  1  0
  3  4  2  0
  4  5  1  0
  5  6  2  0
  6  7  1  0
  3  8  1  0
  7  8  2  0
  2  9  1  0
  9 10  1  0
 10 11  2  0
 11 12  1  0
 12 13  1  0
 13 14  2  0
 13 15  1  0
 15 16  1  0
 16 17  2  0
 17 18  1  0
 18 19  2  0
 19 20  1  0
 16 21  1  0
 20 21  2  0
 11 22  1  0
  9 23  1  0
 22 23  2  0
M  END
