pyridine_urea_89
     RDKit          3D

 19 22  0  0  0  0  0  0  0  0999 V2000
    8.6270    0.9070   21.1650 O   0  0  0  0  0  0  0  0  0  0  0  0
    8.3440   -0.2310   21.5230 C   0  0  0  0  0  0  0  0  0  0  0  0
    7.1690   -0.8260   21.1240 N   0  0  0  0  0  0  0  0  0  0  0  0
    6.4990   -0.1300   20.0400 C   0  0  0  0  0  0  0  0  0  0  0  0
    5.2060    0.6040   20.3850 C   0  0  0  0  0  0  0  0  0  0  0  0
    4.5680    1.3180   19.2380 C   0  0  0  0  0  0  0  0  0  0  0  0
    5.1820    1.2590   17.9980 C   0  0  0  0  0  0  0  0  0  0  0  0
    6.3230    0.5910   17.7510 N   0  0  0  0  0  0  0  0  0  0  0  0
    6.9450   -0.0750   18.7430 C   0  0  0  0  0  0  0  0  0  0  0  0
    9.1730   -0.9760   22.3450 N   0  0  0  0  0  0  0  0  0  0  0  0
   10.4000   -0.2390   22.7140 C   0  0  2  0  0  0  0  0  0  0  0  0
   11.5720   -0.7930   22.4560 C   0  0  1  0  0  0  0  0  0  0  0  0
   12.0160    0.6400   22.6730 C   0  0  0  0  0  0  0  0  0  0  0  0
   12.0840    0.5350   23.9790 C   0  0  2  0  0  0  0  0  0  0  0  0
   12.7150   -0.5840   24.2110 C   0  0  2  0  0  0  0  0  0  0  0  0
   12.0750   -1.6180   23.5010 C   0  0  0  0  0  0  0  0  0  0  0  0
   11.0620   -0.4280   24.1020 C   0  0  2  0  0  0  0  0  0  0  0  0
    9.9160   -0.4140   25.0640 C   0  0  0  0  0  0  0  0  0  0  0  0
    9.0410    0.2950   24.6060 O   0  0  0  0  0  0  0  0  0  0  0  0
  1  2  2  0
  2  3  1  0
  3  4  1  0
  4  5  2  0
  5  6  1  0
  6  7  2  0
  7  8  1  0
  4  9  1  0
  8  9  2  0
  2 10  1  0
 11 10  1  1
 11 12  1  0
 12 13  1  1
 14 13  1  6
 14 15  1  0
 12 16  1  0
 15 16  1  6
 11 17  1  0
 14 17  1  0
 15 17  1  0
 17 18  1  1
 18 19  1  0
M  END
