pyridine_urea_5853
     RDKit          3D

 19 20  0  0  0  0  0  0  0  0999 V2000
   13.1830   -3.1950   20.8020 C   0  0  0  0  0  0  0  0  0  0  0  0
   12.7250   -1.8940   21.1040 O   0  0  0  0  0  0  0  0  0  0  0  0
   11.5630   -1.9410   21.8090 C   0  0  0  0  0  0  0  0  0  0  0  0
   10.6010   -2.5900   21.4540 O   0  0  0  0  0  0  0  0  0  0  0  0
   11.5320   -1.2210   22.9790 C   0  0  1  0  0  0  0  0  0  0  0  0
   12.5550   -0.2480   23.0070 C   0  0  0  0  0  0  0  0  0  0  0  0
   12.0030    0.8910   23.5770 C   0  0  0  0  0  0  0  0  0  0  0  0
   10.5230    0.8000   23.6630 C   0  0  0  0  0  0  0  0  0  0  0  0
   10.2740   -0.6420   23.2710 C   0  0  1  0  0  0  0  0  0  0  0  0
    9.3540   -0.9630   22.2350 N   0  0  0  0  0  0  0  0  0  0  0  0
    8.5570   -0.0600   21.5440 C   0  0  0  0  0  0  0  0  0  0  0  0
    8.7880    1.1220   21.3270 O   0  0  0  0  0  0  0  0  0  0  0  0
    7.3100   -0.6160   21.0430 N   0  0  0  0  0  0  0  0  0  0  0  0
    6.5620    0.0080   20.0840 C   0  0  0  0  0  0  0  0  0  0  0  0
    5.4140    0.7460   20.3690 C   0  0  0  0  0  0  0  0  0  0  0  0
    4.6880    1.3810   19.3620 C   0  0  0  0  0  0  0  0  0  0  0  0
    5.1460    1.2570   18.0650 C   0  0  0  0  0  0  0  0  0  0  0  0
    6.2420    0.5540   17.7200 N   0  0  0  0  0  0  0  0  0  0  0  0
    6.9390   -0.0700   18.7630 C   0  0  0  0  0  0  0  0  0  0  0  0
  1  2  1  0
  2  3  1  0
  3  4  2  0
  5  3  1  6
  5  6  1  0
  6  7  1  0
  7  8  1  0
  5  9  1  0
  8  9  1  0
  9 10  1  6
 10 11  1  0
 11 12  2  0
 11 13  1  0
 13 14  1  0
 14 15  2  0
 15 16  1  0
 16 17  2  0
 17 18  1  0
 14 19  1  0
 18 19  2  0
M  END
