pyridine_urea_11996
     RDKit          3D

 24 26  0  0  0  0  0  0  0  0999 V2000
    8.8380    0.6870   21.3120 O   0  0  0  0  0  0  0  0  0  0  0  0
    8.3470   -0.4170   21.4960 C   0  0  0  0  0  0  0  0  0  0  0  0
    7.1040   -0.7850   21.0550 N   0  0  0  0  0  0  0  0  0  0  0  0
    6.4520   -0.1010   20.0180 C   0  0  0  0  0  0  0  0  0  0  0  0
    5.2680    0.5890   20.2880 C   0  0  0  0  0  0  0  0  0  0  0  0
    4.6200    1.2890   19.2680 C   0  0  0  0  0  0  0  0  0  0  0  0
    5.1810    1.2720   18.0080 C   0  0  0  0  0  0  0  0  0  0  0  0
    6.3130    0.6120   17.7250 N   0  0  0  0  0  0  0  0  0  0  0  0
    6.9210   -0.0570   18.7250 C   0  0  0  0  0  0  0  0  0  0  0  0
    9.0440   -1.3900   22.1800 N   0  0  0  0  0  0  0  0  0  0  0  0
   10.3420   -0.8850   22.6450 C   0  0  0  0  0  0  0  0  0  0  0  0
   11.5230   -1.4690   21.8960 C   0  0  0  0  0  0  0  0  0  0  0  0
   12.7960   -1.0190   22.2390 C   0  0  0  0  0  0  0  0  0  0  0  0
   12.9380   -0.0670   23.2380 C   0  0  0  0  0  0  0  0  0  0  0  0
   11.8470    0.4470   23.9250 C   0  0  0  0  0  0  0  0  0  0  0  0
   10.5440    0.0380   23.6420 C   0  0  0  0  0  0  0  0  0  0  0  0
    9.5300    0.4250   24.2010 O   0  0  0  0  0  0  0  0  0  0  0  0
    9.3570   -0.0220   25.5470 C   0  0  0  0  0  0  0  0  0  0  0  0
    8.8300   -1.2730   25.8730 C   0  0  0  0  0  0  0  0  0  0  0  0
    8.2300   -1.4550   27.1160 C   0  0  0  0  0  0  0  0  0  0  0  0
    7.7030   -2.6910   27.4820 C   0  0  0  0  0  0  0  0  0  0  0  0
    7.7710   -3.7600   26.5910 C   0  0  0  0  0  0  0  0  0  0  0  0
    8.3670   -3.5880   25.3340 C   0  0  0  0  0  0  0  0  0  0  0  0
    8.9050   -2.3380   24.9650 C   0  0  0  0  0  0  0  0  0  0  0  0
  1  2  2  0
  2  3  1  0
  3  4  1  0
  4  5  2  0
  5  6  1  0
  6  7  2  0
  7  8  1  0
  4  9  1  0
  8  9  2  0
  2 10  1  0
 10 11  1  0
 11 12  2  0
 12 13  1  0
 13 14  2  0
 14 15  1  0
 11 16  1  0
 15 16  2  0
 16 17  1  0
 17 18  1  0
 18 19  1  0
 19 20  2  0
 20 21  1  0
 21 22  2  0
 22 23  1  0
 19 24  1  0
 23 24  2  0
M  END
