pyridine_urea_8045
     RDKit          3D

 24 25  0  0  0  0  0  0  0  0999 V2000
    8.9900  -11.7260   18.9920 C   0  0  0  0  0  0  0  0  0  0  0  0
    9.0320  -11.3300   20.2180 O   0  0  0  0  0  0  0  0  0  0  0  0
    9.8990  -10.2590   20.0020 C   0  0  0  0  0  0  0  0  0  0  0  0
   10.7720  -10.2670   19.3130 O   0  0  0  0  0  0  0  0  0  0  0  0
    9.6710   -9.1350   21.1270 C   0  0  0  0  0  0  0  0  0  0  0  0
    8.7690   -8.8940   22.0550 C   0  0  0  0  0  0  0  0  0  0  0  0
    8.8600   -7.5490   22.7780 C   0  0  0  0  0  0  0  0  0  0  0  0
    9.8610   -6.7610   22.4340 C   0  0  0  0  0  0  0  0  0  0  0  0
    9.8000   -5.4050   23.1560 C   0  0  0  0  0  0  0  0  0  0  0  0
   10.0670   -4.3690   23.6290 N   0  0  0  0  0  0  0  0  0  0  0  0
    9.1060   -3.3340   23.2250 C   0  0  0  0  0  0  0  0  0  0  0  0
    9.5170   -2.1740   22.3240 C   0  0  0  0  0  0  0  0  0  0  0  0
    9.0250   -0.8650   22.5410 N   0  0  0  0  0  0  0  0  0  0  0  0
    8.5010    0.0140   21.5990 C   0  0  0  0  0  0  0  0  0  0  0  0
    9.1210    1.2620   21.2470 O   0  0  0  0  0  0  0  0  0  0  0  0
    7.3090   -0.4850   21.0900 N   0  0  0  0  0  0  0  0  0  0  0  0
    6.5980    0.0980   20.0360 C   0  0  0  0  0  0  0  0  0  0  0  0
    5.3060    0.8470   20.3220 C   0  0  0  0  0  0  0  0  0  0  0  0
    4.6320    1.4270   19.2550 C   0  0  0  0  0  0  0  0  0  0  0  0
    5.1750    1.2920   17.9790 C   0  0  0  0  0  0  0  0  0  0  0  0
    6.3120    0.6260   17.7120 N   0  0  0  0  0  0  0  0  0  0  0  0
    6.9900    0.0500   18.7250 C   0  0  0  0  0  0  0  0  0  0  0  0
   10.7660   -7.2590   21.4760 C   0  0  0  0  0  0  0  0  0  0  0  0
   10.6080   -8.4700   20.8590 C   0  0  0  0  0  0  0  0  0  0  0  0
  1  2  1  0
  2  3  1  0
  3  4  2  0
  3  5  1  0
  5  6  2  0
  6  7  1  0
  7  8  2  0
  8  9  1  0
  9 10  1  0
 10 11  1  0
 11 12  1  0
 12 13  1  0
 13 14  1  0
 14 15  2  0
 14 16  1  0
 16 17  1  0
 17 18  2  0
 18 19  1  0
 19 20  2  0
 20 21  1  0
 17 22  1  0
 21 22  2  0
  8 23  1  0
  5 24  1  0
 23 24  2  0
M  END
