pyridine_urea_5419
     RDKit          3D

 18 19  0  0  0  0  0  0  0  0999 V2000
   11.4040   -1.4430   23.6680 C   0  0  0  0  0  0  0  0  0  0  0  0
   10.5810   -0.6870   22.6400 C   0  0  1  0  0  0  0  0  0  0  0  0
    9.1400   -0.9280   22.7440 N   0  0  0  0  0  0  0  0  0  0  0  0
    8.4350   -0.1860   21.6630 C   0  0  0  0  0  0  0  0  0  0  0  0
    8.8380    0.8780   21.2310 O   0  0  0  0  0  0  0  0  0  0  0  0
    7.1830   -0.8800   21.1840 N   0  0  0  0  0  0  0  0  0  0  0  0
    6.4960   -0.1400   20.1060 C   0  0  0  0  0  0  0  0  0  0  0  0
    5.2010    0.6540   20.3920 C   0  0  0  0  0  0  0  0  0  0  0  0
    4.5960    1.3500   19.3480 C   0  0  0  0  0  0  0  0  0  0  0  0
    5.2050    1.3230   17.9580 C   0  0  0  0  0  0  0  0  0  0  0  0
    6.3550    0.5960   17.7560 N   0  0  0  0  0  0  0  0  0  0  0  0
    6.9820   -0.1170   18.7990 C   0  0  0  0  0  0  0  0  0  0  0  0
   10.8280    0.8080   22.7830 C   0  0  0  0  0  0  0  0  0  0  0  0
   12.1420    1.5520   22.8610 C   0  0  0  0  0  0  0  0  0  0  0  0
   11.8930    2.9000   22.9280 N   0  0  0  0  0  0  0  0  0  0  0  0
   12.6730    4.0760   22.9840 C   0  0  0  0  0  0  0  0  0  0  0  0
   10.5380    2.9770   22.9200 C   0  0  0  0  0  0  0  0  0  0  0  0
    9.8580    1.7840   22.8410 N   0  0  0  0  0  0  0  0  0  0  0  0
  2  1  1  1
  2  3  1  0
  3  4  1  0
  4  5  2  0
  4  6  1  0
  6  7  1  0
  7  8  2  0
  8  9  1  0
  9 10  2  0
 10 11  1  0
  7 12  1  0
 11 12  2  0
  2 13  1  0
 13 14  2  0
 14 15  1  0
 15 16  1  0
 15 17  1  0
 13 18  1  0
 17 18  2  0
M  END
