pyridine_urea_11050
     RDKit          3D

 19 20  0  0  0  0  0  0  0  0999 V2000
    8.3780   -4.0390   22.9370 O   0  0  0  0  0  0  0  0  0  0  0  0
    8.7690   -3.1160   23.6370 C   0  0  0  0  0  0  0  0  0  0  0  0
    7.7940   -2.2700   24.4010 C   0  0  0  0  0  0  0  0  0  0  0  0
    6.8550   -1.5270   23.6930 C   0  0  0  0  0  0  0  0  0  0  0  0
    7.4610   -0.3210   23.3580 C   0  0  0  0  0  0  0  0  0  0  0  0
    8.6390   -0.3030   22.7520 N   0  0  0  0  0  0  0  0  0  0  0  0
    8.3210    0.2280   21.5380 C   0  0  0  0  0  0  0  0  0  0  0  0
    8.8260    1.2600   21.0870 O   0  0  0  0  0  0  0  0  0  0  0  0
    7.3790   -0.5290   20.9380 N   0  0  0  0  0  0  0  0  0  0  0  0
    6.6450    0.0780   19.9860 C   0  0  0  0  0  0  0  0  0  0  0  0
    5.4150    0.8190   20.4420 C   0  0  0  0  0  0  0  0  0  0  0  0
    4.6470    1.4850   19.3260 C   0  0  0  0  0  0  0  0  0  0  0  0
    5.1390    1.3430   18.0420 C   0  0  0  0  0  0  0  0  0  0  0  0
    6.2100    0.6900   17.6070 N   0  0  0  0  0  0  0  0  0  0  0  0
    6.9300    0.0720   18.6490 C   0  0  0  0  0  0  0  0  0  0  0  0
   10.0830   -2.7310   23.8410 N   0  0  0  0  0  0  0  0  0  0  0  0
   11.0770   -2.3190   22.8430 C   0  0  0  0  0  0  0  0  0  0  0  0
   12.3030   -2.4570   23.2640 C   0  0  0  0  0  0  0  0  0  0  0  0
   12.1560   -1.1670   23.3260 C   0  0  0  0  0  0  0  0  0  0  0  0
  1  2  2  0
  2  3  1  0
  3  4  1  0
  4  5  1  0
  5  6  1  0
  6  7  1  0
  7  8  2  0
  7  9  1  0
  9 10  1  0
 10 11  2  0
 11 12  1  0
 12 13  2  0
 13 14  1  0
 10 15  1  0
 14 15  2  0
  2 16  1  0
 16 17  1  0
 17 18  1  0
 17 19  1  0
 18 19  1  0
M  END
