pyridine_urea_12760
     RDKit          3D

 20 20  0  0  0  0  0  0  0  0999 V2000
    8.9050    0.8490   21.3670 O   0  0  0  0  0  0  0  0  0  0  0  0
    8.4060   -0.2490   21.5620 C   0  0  0  0  0  0  0  0  0  0  0  0
    9.0310   -1.1940   22.3320 N   0  0  0  0  0  0  0  0  0  0  0  0
   10.4770   -1.1750   22.4510 C   0  0  0  0  0  0  0  0  0  0  0  0
   10.9540   -0.0470   23.3870 C   0  0  0  0  0  0  0  0  0  0  0  0
   12.2150    0.5370   23.1840 C   0  0  0  0  0  0  0  0  0  0  0  0
   12.3760    1.7030   23.5650 O   0  0  0  0  0  0  0  0  0  0  0  0
   11.5750    2.5350   22.8130 C   0  0  0  0  0  0  0  0  0  0  0  0
   11.0080    3.6390   23.4700 C   0  0  0  0  0  0  0  0  0  0  0  0
   11.2150    4.6700   22.8420 O   0  0  0  0  0  0  0  0  0  0  0  0
   12.0770    5.6270   23.4750 C   0  0  0  0  0  0  0  0  0  0  0  0
   11.4900    6.8770   23.6640 C   0  0  0  0  0  0  0  0  0  0  0  0
   10.8480    6.9030   24.7070 O   0  0  0  0  0  0  0  0  0  0  0  0
    7.1980   -0.6780   21.0690 N   0  0  0  0  0  0  0  0  0  0  0  0
    6.5120   -0.0220   20.0550 C   0  0  0  0  0  0  0  0  0  0  0  0
    5.3310    0.6690   20.3720 C   0  0  0  0  0  0  0  0  0  0  0  0
    4.6370    1.3510   19.3570 C   0  0  0  0  0  0  0  0  0  0  0  0
    5.2020    1.3040   17.9780 C   0  0  0  0  0  0  0  0  0  0  0  0
    6.3220    0.6310   17.7140 N   0  0  0  0  0  0  0  0  0  0  0  0
    6.9390   -0.0070   18.7370 C   0  0  0  0  0  0  0  0  0  0  0  0
  1  2  2  0
  2  3  1  0
  3  4  1  0
  4  5  1  0
  5  6  1  0
  6  7  1  0
  7  8  1  0
  8  9  1  0
  9 10  1  0
 10 11  1  0
 11 12  1  0
 12 13  1  0
  2 14  1  0
 14 15  1  0
 15 16  2  0
 16 17  1  0
 17 18  2  0
 18 19  1  0
 15 20  1  0
 19 20  2  0
M  END
