pyridine_urea_10512
     RDKit          3D

 21 22  0  0  0  0  0  0  0  0999 V2000
   13.2870   -2.3350   24.9330 C   0  0  0  0  0  0  0  0  0  0  0  0
   13.7090   -1.5230   23.8410 O   0  0  0  0  0  0  0  0  0  0  0  0
   12.8630   -0.5180   23.5000 C   0  0  0  0  0  0  0  0  0  0  0  0
   12.6710    0.8150   23.2670 C   0  0  0  0  0  0  0  0  0  0  0  0
   11.1220    0.4430   22.9320 C   0  0  0  0  0  0  0  0  0  0  0  0
   10.4810   -0.9240   22.9100 C   0  0  2  0  0  0  0  0  0  0  0  0
   11.2890   -1.8160   22.1680 C   0  0  0  0  0  0  0  0  0  0  0  0
    9.1450   -1.2100   22.2830 N   0  0  0  0  0  0  0  0  0  0  0  0
    8.4390   -0.2930   21.5050 C   0  0  0  0  0  0  0  0  0  0  0  0
    8.8150    0.8260   21.1790 O   0  0  0  0  0  0  0  0  0  0  0  0
    7.2030   -0.7180   21.0780 N   0  0  0  0  0  0  0  0  0  0  0  0
    6.5050   -0.0520   20.0600 C   0  0  0  0  0  0  0  0  0  0  0  0
    5.3380    0.6620   20.3720 C   0  0  0  0  0  0  0  0  0  0  0  0
    4.6870    1.3180   19.3460 C   0  0  0  0  0  0  0  0  0  0  0  0
    5.1840    1.2620   18.0530 C   0  0  0  0  0  0  0  0  0  0  0  0
    6.2860    0.5840   17.7220 N   0  0  0  0  0  0  0  0  0  0  0  0
    6.9210   -0.0580   18.7330 C   0  0  0  0  0  0  0  0  0  0  0  0
   10.2070    1.4520   22.5880 C   0  0  0  0  0  0  0  0  0  0  0  0
   11.5270    1.3830   22.8990 C   0  0  0  0  0  0  0  0  0  0  0  0
   11.4240   -0.1770   23.1520 C   0  0  0  0  0  0  0  0  0  0  0  0
    9.9300   -1.3790   23.0870 Br  0  0  0  0  0  0  0  0  0  0  0  0
  1  2  1  0
  2  3  1  0
  3  4  2  0
  4  5  1  0
  5  6  1  0
  6  7  1  6
  6  8  1  0
  8  9  1  0
  9 10  2  0
  9 11  1  0
 11 12  1  0
 12 13  2  0
 13 14  1  0
 14 15  2  0
 15 16  1  0
 12 17  1  0
 16 17  2  0
  5 18  2  0
 18 19  1  0
  3 20  1  0
 19 20  2  0
 20 21  1  0
M  END
