pyridine_urea_4419
     RDKit          3D

 23 24  0  0  0  0  0  0  0  0999 V2000
   12.0400    3.4500   22.5290 C   0  0  0  0  0  0  0  0  0  0  0  0
   10.5980    3.1960   22.9980 C   0  0  0  0  0  0  0  0  0  0  0  0
   10.2530    1.8530   22.6200 O   0  0  0  0  0  0  0  0  0  0  0  0
    9.9300    0.9470   23.6870 C   0  0  0  0  0  0  0  0  0  0  0  0
    9.6310    1.3790   24.9490 O   0  0  0  0  0  0  0  0  0  0  0  0
    9.9250   -0.5270   23.3070 C   0  0  2  0  0  0  0  0  0  0  0  0
   10.8580   -0.7390   22.1480 C   0  0  0  0  0  0  0  0  0  0  0  0
   12.3220   -1.0020   22.4290 C   0  0  0  0  0  0  0  0  0  0  0  0
   12.6960   -0.0190   23.5370 C   0  0  0  0  0  0  0  0  0  0  0  0
   12.2740   -0.5910   24.7530 C   0  0  0  0  0  0  0  0  0  0  0  0
   12.5530   -1.9610   24.8980 C   0  0  0  0  0  0  0  0  0  0  0  0
   13.3030   -2.4050   23.8670 C   0  0  0  0  0  0  0  0  0  0  0  0
   12.5950   -2.3310   22.7120 C   0  0  0  0  0  0  0  0  0  0  0  0
    8.5810   -0.8170   22.7740 N   0  0  0  0  0  0  0  0  0  0  0  0
    8.3030   -0.0570   21.6650 C   0  0  0  0  0  0  0  0  0  0  0  0
    8.9740    1.0770   21.2560 O   0  0  0  0  0  0  0  0  0  0  0  0
    7.2200   -0.6060   21.0280 N   0  0  0  0  0  0  0  0  0  0  0  0
    6.4630    0.0630   20.0670 C   0  0  0  0  0  0  0  0  0  0  0  0
    5.2800    0.7700   20.2950 C   0  0  0  0  0  0  0  0  0  0  0  0
    4.6240    1.4370   19.1560 C   0  0  0  0  0  0  0  0  0  0  0  0
    5.1910    1.3450   17.9130 C   0  0  0  0  0  0  0  0  0  0  0  0
    6.3260    0.6570   17.6890 N   0  0  0  0  0  0  0  0  0  0  0  0
    6.9190    0.0430   18.7510 C   0  0  0  0  0  0  0  0  0  0  0  0
  1  2  1  0
  2  3  1  0
  3  4  1  0
  4  5  2  0
  4  6  1  0
  6  7  1  6
  7  8  1  0
  8  9  1  0
  9 10  1  0
 10 11  1  0
 11 12  1  0
  8 13  1  0
 12 13  1  0
  6 14  1  0
 14 15  1  0
 15 16  2  0
 15 17  1  0
 17 18  1  0
 18 19  2  0
 19 20  1  0
 20 21  2  0
 21 22  1  0
 18 23  1  0
 22 23  2  0
M  END
