pyridine_urea_14169
     RDKit          3D

 22 23  0  0  0  0  0  0  0  0999 V2000
    8.9690    1.2230   21.2370 O   0  0  0  0  0  0  0  0  0  0  0  0
    8.4730    0.1360   21.5490 C   0  0  0  0  0  0  0  0  0  0  0  0
    9.0640   -0.7330   22.5460 N   0  0  0  0  0  0  0  0  0  0  0  0
    8.5810   -0.6970   23.8500 C   0  0  0  0  0  0  0  0  0  0  0  0
    8.7610   -1.8610   24.6020 C   0  0  0  0  0  0  0  0  0  0  0  0
    7.7010   -2.3440   25.3480 C   0  0  0  0  0  0  0  0  0  0  0  0
    7.8630   -3.4940   26.0950 C   0  0  0  0  0  0  0  0  0  0  0  0
    8.9810   -4.2150   26.1740 N   0  0  0  0  0  0  0  0  0  0  0  0
   10.0970   -3.8240   25.4720 C   0  0  0  0  0  0  0  0  0  0  0  0
    9.9860   -2.5430   24.6130 C   0  0  0  0  0  0  0  0  0  0  0  0
   10.9800   -1.9980   23.8440 O   0  0  0  0  0  0  0  0  0  0  0  0
   12.1150   -1.3740   24.4530 C   0  0  0  0  0  0  0  0  0  0  0  0
   13.1260   -2.2890   24.6510 C   0  0  0  0  0  0  0  0  0  0  0  0
   12.7300   -3.3400   25.3800 F   0  0  0  0  0  0  0  0  0  0  0  0
   13.4970   -2.7750   23.4510 F   0  0  0  0  0  0  0  0  0  0  0  0
    7.3170   -0.4220   21.0530 N   0  0  0  0  0  0  0  0  0  0  0  0
    6.5730    0.1470   20.0250 C   0  0  0  0  0  0  0  0  0  0  0  0
    5.4110    0.8570   20.3360 C   0  0  0  0  0  0  0  0  0  0  0  0
    4.6850    1.4400   19.3090 C   0  0  0  0  0  0  0  0  0  0  0  0
    5.1390    1.2930   18.0170 C   0  0  0  0  0  0  0  0  0  0  0  0
    6.2410    0.6100   17.6880 N   0  0  0  0  0  0  0  0  0  0  0  0
    6.9270    0.0560   18.7020 C   0  0  0  0  0  0  0  0  0  0  0  0
  1  2  2  0
  2  3  1  0
  3  4  1  0
  4  5  1  0
  5  6  2  0
  6  7  1  0
  7  8  2  0
  8  9  1  0
  5 10  1  0
  9 10  2  0
 10 11  1  0
 11 12  1  0
 12 13  1  0
 13 14  1  0
 13 15  1  0
  2 16  1  0
 16 17  1  0
 17 18  2  0
 18 19  1  0
 19 20  2  0
 20 21  1  0
 17 22  1  0
 21 22  2  0
M  END
