pyridine_urea_1200
     RDKit          3D

 21 22  0  0  0  0  0  0  0  0999 V2000
   13.4770   -0.8390   21.7290 C   0  0  0  0  0  0  0  0  0  0  0  0
   13.6700    0.5170   22.4630 C   0  0  0  0  0  0  0  0  0  0  0  0
   13.4270    0.2300   23.7020 O   0  0  0  0  0  0  0  0  0  0  0  0
   12.2750   -0.0670   23.1770 C   0  0  0  0  0  0  0  0  0  0  0  0
   11.2270    0.7350   23.2340 C   0  0  0  0  0  0  0  0  0  0  0  0
   10.0170    0.4590   22.7950 C   0  0  0  0  0  0  0  0  0  0  0  0
    9.0060    1.4000   22.9720 C   0  0  0  0  0  0  0  0  0  0  0  0
    9.8850   -0.7740   22.1870 C   0  0  0  0  0  0  0  0  0  0  0  0
    8.6680   -1.1240   21.7260 N   0  0  0  0  0  0  0  0  0  0  0  0
    7.9360   -0.1530   21.1640 C   0  0  0  0  0  0  0  0  0  0  0  0
    8.4090    1.1860   20.8860 O   0  0  0  0  0  0  0  0  0  0  0  0
    6.6910   -0.5900   20.8740 N   0  0  0  0  0  0  0  0  0  0  0  0
    6.1170    0.0960   19.8700 C   0  0  0  0  0  0  0  0  0  0  0  0
    4.9120    0.7490   20.0920 C   0  0  0  0  0  0  0  0  0  0  0  0
    4.3580    1.4770   19.0390 C   0  0  0  0  0  0  0  0  0  0  0  0
    5.1060    1.4990   17.7460 C   0  0  0  0  0  0  0  0  0  0  0  0
    6.2590    0.8420   17.5850 N   0  0  0  0  0  0  0  0  0  0  0  0
    6.7250    0.1680   18.6400 C   0  0  0  0  0  0  0  0  0  0  0  0
   10.9530   -1.6260   22.0230 C   0  0  0  0  0  0  0  0  0  0  0  0
   12.1570   -1.2700   22.5040 C   0  0  0  0  0  0  0  0  0  0  0  0
   13.3160   -2.1940   22.2780 C   0  0  0  0  0  0  0  0  0  0  0  0
  1  2  1  0
  2  3  1  0
  3  4  1  0
  4  5  2  0
  5  6  1  0
  6  7  1  0
  6  8  2  0
  8  9  1  0
  9 10  1  0
 10 11  2  0
 10 12  1  0
 12 13  1  0
 13 14  2  0
 14 15  1  0
 15 16  2  0
 16 17  1  0
 13 18  1  0
 17 18  2  0
  8 19  1  0
  4 20  1  0
 19 20  2  0
 20 21  1  0
M  END
