pyridine_urea_1747
     RDKit          3D

 18 19  0  0  0  0  0  0  0  0999 V2000
   10.8930   -2.1600   21.6970 C   0  0  0  0  0  0  0  0  0  0  0  0
   11.3830   -1.3900   22.8510 C   0  0  1  0  0  0  0  0  0  0  0  0
   12.6710   -0.8580   22.7650 C   0  0  0  0  0  0  0  0  0  0  0  0
   12.8880    0.3550   23.3770 C   0  0  0  0  0  0  0  0  0  0  0  0
   11.8500    1.2410   23.3960 C   0  0  0  0  0  0  0  0  0  0  0  0
   10.5880    0.7780   23.0560 C   0  0  0  0  0  0  0  0  0  0  0  0
   10.3480   -0.5460   23.3270 C   0  0  2  0  0  0  0  0  0  0  0  0
   10.1440   -0.7750   24.8450 C   0  0  0  0  0  0  0  0  0  0  0  0
    9.0590   -0.8760   22.7040 N   0  0  0  0  0  0  0  0  0  0  0  0
    8.4650   -0.1450   21.6910 C   0  0  0  0  0  0  0  0  0  0  0  0
    8.9630    0.9310   21.3850 O   0  0  0  0  0  0  0  0  0  0  0  0
    7.3450   -0.6630   21.0980 N   0  0  0  0  0  0  0  0  0  0  0  0
    6.5540   -0.0010   20.1320 C   0  0  0  0  0  0  0  0  0  0  0  0
    5.3850    0.7160   20.3920 C   0  0  0  0  0  0  0  0  0  0  0  0
    4.7030    1.3370   19.3450 C   0  0  0  0  0  0  0  0  0  0  0  0
    5.2150    1.2230   18.0680 C   0  0  0  0  0  0  0  0  0  0  0  0
    6.3320    0.5380   17.7840 N   0  0  0  0  0  0  0  0  0  0  0  0
    6.9660   -0.0550   18.8120 C   0  0  0  0  0  0  0  0  0  0  0  0
  2  1  1  6
  2  3  1  0
  3  4  1  0
  4  5  1  0
  5  6  1  0
  2  7  1  0
  6  7  1  0
  7  8  1  1
  7  9  1  0
  9 10  1  0
 10 11  2  0
 10 12  1  0
 12 13  1  0
 13 14  2  0
 14 15  1  0
 15 16  2  0
 16 17  1  0
 13 18  1  0
 17 18  2  0
M  END
