pyridine_urea_4261
     RDKit          3D

 24 26  0  0  0  0  0  0  0  0999 V2000
    8.9950    0.7430   21.2570 O   0  0  0  0  0  0  0  0  0  0  0  0
    8.5130   -0.3510   21.5120 C   0  0  0  0  0  0  0  0  0  0  0  0
    9.0770   -1.3150   22.3640 N   0  0  0  0  0  0  0  0  0  0  0  0
   10.3460   -1.1360   23.1440 C   0  0  0  0  0  0  0  0  0  0  0  0
   10.8650    0.2710   22.9700 C   0  0  0  0  0  0  0  0  0  0  0  0
    9.7790    1.2830   22.8800 C   0  0  0  0  0  0  0  0  0  0  0  0
   11.2070    1.5210   22.7610 C   0  0  0  0  0  0  0  0  0  0  0  0
   11.2050   -0.0730   23.0460 C   0  0  0  0  0  0  0  0  0  0  0  0
    9.9790   -0.9770   23.3330 C   0  0  0  0  0  0  0  0  0  0  0  0
    9.8590   -2.2070   22.6110 C   0  0  0  0  0  0  0  0  0  0  0  0
    8.7620   -3.0810   22.8570 C   0  0  0  0  0  0  0  0  0  0  0  0
    7.7900   -2.7590   23.8040 C   0  0  0  0  0  0  0  0  0  0  0  0
    7.9110   -1.5780   24.4940 N   0  0  0  0  0  0  0  0  0  0  0  0
    8.9760   -0.6930   24.2770 C   0  0  0  0  0  0  0  0  0  0  0  0
   12.4990   -0.6860   23.0510 C   0  0  0  0  0  0  0  0  0  0  0  0
   13.7910   -0.4580   22.9160 F   0  0  0  0  0  0  0  0  0  0  0  0
   12.4120    0.7230   22.8560 C   0  0  0  0  0  0  0  0  0  0  0  0
    7.3000   -0.7580   20.9720 N   0  0  0  0  0  0  0  0  0  0  0  0
    6.5550   -0.0720   20.0710 C   0  0  0  0  0  0  0  0  0  0  0  0
    5.3010    0.6970   20.3470 C   0  0  0  0  0  0  0  0  0  0  0  0
    4.6660    1.3590   19.2970 C   0  0  0  0  0  0  0  0  0  0  0  0
    5.2220    1.2770   18.0350 C   0  0  0  0  0  0  0  0  0  0  0  0
    6.3460    0.5850   17.7580 N   0  0  0  0  0  0  0  0  0  0  0  0
    6.9740   -0.0630   18.7610 C   0  0  0  0  0  0  0  0  0  0  0  0
  1  2  2  0
  2  3  1  0
  3  4  1  0
  4  5  1  0
  5  6  2  0
  6  7  1  0
  7  8  2  0
  8  9  1  0
  9 10  2  0
 10 11  1  0
 11 12  2  0
 12 13  1  0
  9 14  1  0
 13 14  2  0
  8 15  1  0
 15 16  1  0
  5 17  1  0
 15 17  2  0
  2 18  1  0
 18 19  1  0
 19 20  2  0
 20 21  1  0
 21 22  2  0
 22 23  1  0
 19 24  1  0
 23 24  2  0
M  END
