pyridine_urea_2449
     RDKit          3D

 24 26  0  0  0  0  0  0  0  0999 V2000
    8.9950    1.2340   21.2380 O   0  0  0  0  0  0  0  0  0  0  0  0
    8.5380    0.1340   21.5700 C   0  0  0  0  0  0  0  0  0  0  0  0
    9.0390   -0.7140   22.5330 N   0  0  0  0  0  0  0  0  0  0  0  0
    9.2840   -2.0930   22.3630 C   0  0  0  0  0  0  0  0  0  0  0  0
    8.7050   -2.9870   23.2750 C   0  0  0  0  0  0  0  0  0  0  0  0
    9.6280   -3.3530   24.2990 O   0  0  0  0  0  0  0  0  0  0  0  0
    7.3970   -3.4430   23.1370 N   0  0  0  0  0  0  0  0  0  0  0  0
    6.3970   -3.0720   22.1460 C   0  0  0  0  0  0  0  0  0  0  0  0
    5.5750   -4.1810   21.9600 C   0  0  0  0  0  0  0  0  0  0  0  0
    6.2210   -5.4200   21.8880 C   0  0  0  0  0  0  0  0  0  0  0  0
    6.2300   -6.1170   23.0980 C   0  0  0  0  0  0  0  0  0  0  0  0
    6.0910   -5.1630   24.2940 C   0  0  0  0  0  0  0  0  0  0  0  0
    5.3770   -5.5240   25.4580 C   0  0  0  0  0  0  0  0  0  0  0  0
    5.2610   -4.6350   26.5360 C   0  0  0  0  0  0  0  0  0  0  0  0
    5.8500   -3.3720   26.4760 C   0  0  0  0  0  0  0  0  0  0  0  0
    6.5530   -3.0150   25.3330 C   0  0  0  0  0  0  0  0  0  0  0  0
    6.6750   -3.8890   24.2580 C   0  0  0  0  0  0  0  0  0  0  0  0
    7.3990   -0.4080   21.0070 N   0  0  0  0  0  0  0  0  0  0  0  0
    6.5830    0.2010   20.0490 C   0  0  0  0  0  0  0  0  0  0  0  0
    5.4240    0.9310   20.3270 C   0  0  0  0  0  0  0  0  0  0  0  0
    4.7100    1.5000   19.2760 C   0  0  0  0  0  0  0  0  0  0  0  0
    5.1730    1.3230   17.9850 C   0  0  0  0  0  0  0  0  0  0  0  0
    6.2750    0.6200   17.6930 N   0  0  0  0  0  0  0  0  0  0  0  0
    6.9470    0.0790   18.7270 C   0  0  0  0  0  0  0  0  0  0  0  0
  1  2  2  0
  2  3  1  0
  3  4  1  0
  4  5  1  0
  5  6  2  0
  5  7  1  0
  7  8  1  0
  8  9  1  0
  9 10  1  0
 10 11  1  0
 11 12  1  0
 12 13  1  0
 13 14  2  0
 14 15  1  0
 15 16  2  0
  7 17  1  0
 12 17  2  0
 16 17  1  0
  2 18  1  0
 18 19  1  0
 19 20  2  0
 20 21  1  0
 21 22  2  0
 22 23  1  0
 19 24  1  0
 23 24  2  0
M  END
