pyridine_urea_12195
     RDKit          3D

 22 24  0  0  0  0  0  0  0  0999 V2000
   13.7690   -3.0630   25.4940 C   0  0  0  0  0  0  0  0  0  0  0  0
   13.3000   -2.6520   24.1220 C   0  0  0  0  0  0  0  0  0  0  0  0
   11.8800   -2.8430   24.0540 O   0  0  0  0  0  0  0  0  0  0  0  0
   11.2240   -1.6650   24.1830 C   0  0  2  0  0  0  0  0  0  0  0  0
    9.8910   -1.8150   24.1600 C   0  0  0  0  0  0  0  0  0  0  0  0
    9.8760   -0.8550   23.2250 C   0  0  2  0  0  0  0  0  0  0  0  0
    9.1080   -1.1720   22.0410 N   0  0  0  0  0  0  0  0  0  0  0  0
    8.3500   -0.2520   21.4010 C   0  0  0  0  0  0  0  0  0  0  0  0
    8.6960    0.9060   21.2150 O   0  0  0  0  0  0  0  0  0  0  0  0
    7.0630   -0.7810   20.9510 N   0  0  0  0  0  0  0  0  0  0  0  0
    6.3660   -0.0650   20.0150 C   0  0  0  0  0  0  0  0  0  0  0  0
    5.0660    0.6990   20.2330 C   0  0  0  0  0  0  0  0  0  0  0  0
    4.5160    1.3850   19.1460 C   0  0  0  0  0  0  0  0  0  0  0  0
    5.1960    1.3230   17.9360 C   0  0  0  0  0  0  0  0  0  0  0  0
    6.3390    0.6560   17.7050 N   0  0  0  0  0  0  0  0  0  0  0  0
    6.8880   -0.0150   18.7350 C   0  0  0  0  0  0  0  0  0  0  0  0
   11.4180   -0.8130   23.0790 C   0  0  0  0  0  0  0  0  0  0  0  0
   11.9600    0.3900   23.3820 C   0  0  0  0  0  0  0  0  0  0  0  0
   12.8710    0.9940   22.6390 C   0  0  0  0  0  0  0  0  0  0  0  0
   13.5990    0.1170   21.9430 O   0  0  0  0  0  0  0  0  0  0  0  0
   13.3300   -1.2760   21.9870 C   0  0  0  0  0  0  0  0  0  0  0  0
   12.0010   -1.5340   22.0760 C   0  0  0  0  0  0  0  0  0  0  0  0
  1  2  1  0
  2  3  1  0
  4  3  1  6
  4  5  1  0
  5  6  1  0
  6  7  1  6
  7  8  1  0
  8  9  2  0
  8 10  1  0
 10 11  1  0
 11 12  2  0
 12 13  1  0
 13 14  2  0
 14 15  1  0
 11 16  1  0
 15 16  2  0
  4 17  1  0
  6 17  1  0
 17 18  1  0
 18 19  1  0
 19 20  1  0
 20 21  1  0
 17 22  1  0
 21 22  1  0
M  END
