pyridine_urea_3556
     RDKit          3D

 17 17  0  0  0  0  0  0  0  0999 V2000
   12.5360   -0.6710   25.0240 C   0  0  0  0  0  0  0  0  0  0  0  0
   13.1240   -1.2830   23.9540 N   0  0  0  0  0  0  0  0  0  0  0  0
   13.2850   -2.7100   24.0140 C   0  0  0  0  0  0  0  0  0  0  0  0
   12.9100   -0.6030   22.7740 C   0  0  0  0  0  0  0  0  0  0  0  0
   12.2160    0.7280   22.9970 C   0  0  0  0  0  0  0  0  0  0  0  0
   10.7650    0.4730   23.4000 C   0  0  0  0  0  0  0  0  0  0  0  0
   10.1390   -0.8310   22.9210 C   0  0  0  0  0  0  0  0  0  0  0  0
    8.8220   -0.5970   22.6420 N   0  0  0  0  0  0  0  0  0  0  0  0
    8.3210    0.1250   21.5400 C   0  0  0  0  0  0  0  0  0  0  0  0
    8.8200    1.1960   21.1540 O   0  0  0  0  0  0  0  0  0  0  0  0
    7.2470   -0.5220   21.0410 N   0  0  0  0  0  0  0  0  0  0  0  0
    6.5650    0.0850   20.0460 C   0  0  0  0  0  0  0  0  0  0  0  0
    5.4180    0.8220   20.3730 C   0  0  0  0  0  0  0  0  0  0  0  0
    4.7460    1.4360   19.3350 C   0  0  0  0  0  0  0  0  0  0  0  0
    5.2030    1.3170   18.0450 C   0  0  0  0  0  0  0  0  0  0  0  0
    6.2860    0.6200   17.6950 N   0  0  0  0  0  0  0  0  0  0  0  0
    6.9350    0.0220   18.7160 C   0  0  0  0  0  0  0  0  0  0  0  0
  1  2  1  0
  2  3  1  0
  2  4  1  0
  4  5  1  0
  5  6  3  0
  6  7  1  0
  7  8  1  0
  8  9  1  0
  9 10  2  0
  9 11  1  0
 11 12  1  0
 12 13  2  0
 13 14  1  0
 14 15  2  0
 15 16  1  0
 12 17  1  0
 16 17  2  0
M  END
