pyridine_urea_1168
     RDKit          3D

 21 22  0  0  0  0  0  0  0  0999 V2000
    9.7620   -0.0890   24.8400 C   0  0  0  0  0  0  0  0  0  0  0  0
    9.7410   -0.5080   23.3500 C   0  0  2  0  0  0  0  0  0  0  0  0
   10.5260    0.5620   22.6140 C   0  0  0  0  0  0  0  0  0  0  0  0
   11.2030    1.3330   23.5680 O   0  0  0  0  0  0  0  0  0  0  0  0
   12.4050    0.6340   23.7710 C   0  0  0  0  0  0  0  0  0  0  0  0
   12.3460   -0.4010   22.8800 C   0  0  0  0  0  0  0  0  0  0  0  0
   13.3980   -0.5820   22.0700 C   0  0  0  0  0  0  0  0  0  0  0  0
   13.4010   -1.5980   21.1350 C   0  0  0  0  0  0  0  0  0  0  0  0
   12.3290   -2.4430   21.0240 C   0  0  0  0  0  0  0  0  0  0  0  0
   11.2460   -2.2660   21.8440 C   0  0  0  0  0  0  0  0  0  0  0  0
   11.2500   -1.2460   22.7720 C   0  0  0  0  0  0  0  0  0  0  0  0
    8.4130   -0.5590   22.7900 N   0  0  0  0  0  0  0  0  0  0  0  0
    8.1550    0.0850   21.5990 C   0  0  0  0  0  0  0  0  0  0  0  0
    8.7860    1.0660   21.1700 O   0  0  0  0  0  0  0  0  0  0  0  0
    7.0900   -0.5120   20.9870 N   0  0  0  0  0  0  0  0  0  0  0  0
    6.4180    0.1090   19.9500 C   0  0  0  0  0  0  0  0  0  0  0  0
    5.2460    0.7920   20.2380 C   0  0  0  0  0  0  0  0  0  0  0  0
    4.5710    1.4490   19.1580 C   0  0  0  0  0  0  0  0  0  0  0  0
    5.1470    1.3480   17.9150 C   0  0  0  0  0  0  0  0  0  0  0  0
    6.2720    0.6780   17.6520 N   0  0  0  0  0  0  0  0  0  0  0  0
    6.8790    0.0760   18.6700 C   0  0  0  0  0  0  0  0  0  0  0  0
  2  1  1  1
  2  3  1  0
  3  4  1  0
  4  5  1  0
  5  6  1  0
  6  7  2  0
  7  8  1  0
  8  9  2  0
  9 10  1  0
  6 11  1  0
 10 11  2  0
  2 12  1  0
 12 13  1  0
 13 14  2  0
 13 15  1  0
 15 16  1  0
 16 17  2  0
 17 18  1  0
 18 19  2  0
 19 20  1  0
 16 21  1  0
 20 21  2  0
M  END
