pyridine_urea_9855
     RDKit          3D

 26 28  0  0  0  0  0  0  0  0999 V2000
   10.1130    0.0910   25.0590 C   0  0  0  0  0  0  0  0  0  0  0  0
   11.3790    0.7040   24.3800 C   0  0  0  0  0  0  0  0  0  0  0  0
   11.1710    1.8290   23.4910 O   0  0  0  0  0  0  0  0  0  0  0  0
   12.7420    0.2420   24.6910 N   0  0  0  0  0  0  0  0  0  0  0  0
   12.9960   -1.0530   24.9980 C   0  0  0  0  0  0  0  0  0  0  0  0
   13.8210   -1.8990   25.8560 C   0  0  0  0  0  0  0  0  0  0  0  0
   13.4200   -3.1650   25.4940 C   0  0  0  0  0  0  0  0  0  0  0  0
   13.9310   -4.3340   26.1070 C   0  0  0  0  0  0  0  0  0  0  0  0
   12.4610   -3.0990   24.5450 N   0  0  0  0  0  0  0  0  0  0  0  0
   12.2410   -1.7950   24.3060 N   0  0  0  0  0  0  0  0  0  0  0  0
   11.3780   -1.3620   23.5320 C   0  0  0  0  0  0  0  0  0  0  0  0
   10.6900   -0.1890   23.6460 C   0  0  0  0  0  0  0  0  0  0  0  0
    9.7380    0.0550   22.7340 C   0  0  0  0  0  0  0  0  0  0  0  0
    9.5520   -0.9060   21.7800 C   0  0  0  0  0  0  0  0  0  0  0  0
    8.6690   -0.8280   20.8800 N   0  0  0  0  0  0  0  0  0  0  0  0
    7.9630    0.2580   21.0290 C   0  0  0  0  0  0  0  0  0  0  0  0
    8.4870    1.3800   21.0510 O   0  0  0  0  0  0  0  0  0  0  0  0
    6.6890   -0.0810   21.1050 N   0  0  0  0  0  0  0  0  0  0  0  0
    6.1510    0.4200   20.0140 C   0  0  0  0  0  0  0  0  0  0  0  0
    4.8890    1.1860   20.1500 C   0  0  0  0  0  0  0  0  0  0  0  0
    4.4060    1.7140   18.9680 C   0  0  0  0  0  0  0  0  0  0  0  0
    5.1430    1.4930   17.7040 C   0  0  0  0  0  0  0  0  0  0  0  0
    6.2610    0.7860   17.6480 N   0  0  0  0  0  0  0  0  0  0  0  0
    6.7670    0.2490   18.7840 C   0  0  0  0  0  0  0  0  0  0  0  0
   10.2410   -2.0700   21.6330 C   0  0  0  0  0  0  0  0  0  0  0  0
   11.1610   -2.2850   22.5110 C   0  0  0  0  0  0  0  0  0  0  0  0
  1  2  1  0
  2  3  2  0
  2  4  1  0
  4  5  1  0
  5  6  2  0
  6  7  1  0
  7  8  1  0
  7  9  2  0
  5 10  1  0
  9 10  1  0
 10 11  1  0
 11 12  2  0
 12 13  1  0
 13 14  2  0
 14 15  1  0
 15 16  1  0
 16 17  2  0
 16 18  1  0
 18 19  1  0
 19 20  2  0
 20 21  1  0
 21 22  2  0
 22 23  1  0
 19 24  1  0
 23 24  2  0
 14 25  1  0
 11 26  1  0
 25 26  2  0
M  END
