pyridine_urea_11140
     RDKit          3D

 18 19  0  0  0  0  0  0  0  0999 V2000
    9.0130    0.5590   21.3660 O   0  0  0  0  0  0  0  0  0  0  0  0
    8.2800   -0.3070   21.8230 C   0  0  0  0  0  0  0  0  0  0  0  0
    8.4670   -0.8970   23.0670 N   0  0  0  0  0  0  0  0  0  0  0  0
    8.9710   -2.2510   23.2780 C   0  0  0  0  0  0  0  0  0  0  0  0
   10.4890   -2.2960   23.1500 C   0  0  0  0  0  0  0  0  0  0  0  0
   11.3320   -2.8380   24.2000 C   0  0  0  0  0  0  0  0  0  0  0  0
   12.6590   -2.8910   24.1550 C   0  0  0  0  0  0  0  0  0  0  0  0
   13.3200   -2.4630   23.1200 N   0  0  0  0  0  0  0  0  0  0  0  0
   12.6200   -1.9470   22.0720 C   0  0  0  0  0  0  0  0  0  0  0  0
   13.6110   -1.4800   20.8310 Cl  0  0  0  0  0  0  0  0  0  0  0  0
   11.1530   -1.7460   21.8680 C   0  0  0  0  0  0  0  0  0  0  0  0
    7.1620   -0.7680   21.1480 N   0  0  0  0  0  0  0  0  0  0  0  0
    6.5380   -0.0910   20.0860 C   0  0  0  0  0  0  0  0  0  0  0  0
    5.2860    0.6960   20.3170 C   0  0  0  0  0  0  0  0  0  0  0  0
    4.6440    1.3920   19.2930 C   0  0  0  0  0  0  0  0  0  0  0  0
    5.1570    1.3840   17.9880 C   0  0  0  0  0  0  0  0  0  0  0  0
    6.3910    0.6060   17.7430 N   0  0  0  0  0  0  0  0  0  0  0  0
    6.9820   -0.0680   18.7920 C   0  0  0  0  0  0  0  0  0  0  0  0
  1  2  2  0
  2  3  1  0
  3  4  1  0
  4  5  1  0
  5  6  2  0
  6  7  1  0
  7  8  2  0
  8  9  1  0
  9 10  1  0
  5 11  1  0
  9 11  2  0
  2 12  1  0
 12 13  1  0
 13 14  2  0
 14 15  1  0
 15 16  2  0
 16 17  1  0
 13 18  1  0
 17 18  2  0
M  END
