pyridine_urea_3284
     RDKit          3D

 20 21  0  0  0  0  0  0  0  0999 V2000
   10.2990   -0.4760   25.6450 C   0  0  0  0  0  0  0  0  0  0  0  0
   11.5970   -0.7420   24.9060 C   0  0  1  0  0  0  0  0  0  0  0  0
   11.9700   -2.0810   24.8220 C   0  0  0  0  0  0  0  0  0  0  0  0
   12.4590   -2.5640   23.6140 C   0  0  0  0  0  0  0  0  0  0  0  0
   13.1420   -1.7240   22.7670 C   0  0  0  0  0  0  0  0  0  0  0  0
   12.9190   -0.2630   23.0480 C   0  0  0  0  0  0  0  0  0  0  0  0
   11.7350   -0.0710   23.6770 C   0  0  2  0  0  0  0  0  0  0  0  0
   11.3850    1.0710   23.7640 O   0  0  0  0  0  0  0  0  0  0  0  0
   10.0130    0.9580   23.5160 C   0  0  0  0  0  0  0  0  0  0  0  0
    9.7790   -0.4110   23.2760 C   0  0  0  0  0  0  0  0  0  0  0  0
    8.5750   -0.6340   22.5410 N   0  0  0  0  0  0  0  0  0  0  0  0
    8.1760    0.1060   21.4830 C   0  0  0  0  0  0  0  0  0  0  0  0
    8.7760    1.2840   21.0690 O   0  0  0  0  0  0  0  0  0  0  0  0
    7.0820   -0.4820   20.9190 N   0  0  0  0  0  0  0  0  0  0  0  0
    6.4020    0.1460   19.9090 C   0  0  0  0  0  0  0  0  0  0  0  0
    5.2420    0.8660   20.2030 C   0  0  0  0  0  0  0  0  0  0  0  0
    4.5830    1.5190   19.1580 C   0  0  0  0  0  0  0  0  0  0  0  0
    5.1350    1.3970   17.8960 C   0  0  0  0  0  0  0  0  0  0  0  0
    6.2350    0.7060   17.5800 N   0  0  0  0  0  0  0  0  0  0  0  0
    6.8260    0.1070   18.6100 C   0  0  0  0  0  0  0  0  0  0  0  0
  2  1  1  6
  2  3  1  0
  3  4  1  0
  4  5  1  0
  5  6  1  0
  2  7  1  0
  6  7  1  0
  7  8  1  1
  8  9  1  0
  9 10  1  0
 10 11  1  0
 11 12  1  0
 12 13  2  0
 12 14  1  0
 14 15  1  0
 15 16  2  0
 16 17  1  0
 17 18  2  0
 18 19  1  0
 15 20  1  0
 19 20  2  0
M  END
