pyridine_urea_9993
     RDKit          3D

 24 26  0  0  0  0  0  0  0  0999 V2000
    8.5910    0.8920   21.3310 O   0  0  0  0  0  0  0  0  0  0  0  0
    8.3070   -0.2860   21.4760 C   0  0  0  0  0  0  0  0  0  0  0  0
    7.1310   -0.8200   20.9960 N   0  0  0  0  0  0  0  0  0  0  0  0
    6.3840   -0.0990   20.0450 C   0  0  0  0  0  0  0  0  0  0  0  0
    5.1750    0.5640   20.2630 C   0  0  0  0  0  0  0  0  0  0  0  0
    4.5640    1.2570   19.2100 C   0  0  0  0  0  0  0  0  0  0  0  0
    5.1850    1.2600   17.9760 C   0  0  0  0  0  0  0  0  0  0  0  0
    6.3430    0.6230   17.7410 N   0  0  0  0  0  0  0  0  0  0  0  0
    6.9050   -0.0330   18.7690 C   0  0  0  0  0  0  0  0  0  0  0  0
    9.1460   -1.1780   22.1220 N   0  0  0  0  0  0  0  0  0  0  0  0
   10.4540   -0.7560   22.3770 C   0  0  0  0  0  0  0  0  0  0  0  0
   11.6640   -1.4210   22.2100 C   0  0  0  0  0  0  0  0  0  0  0  0
   12.8780   -0.7770   22.5160 C   0  0  0  0  0  0  0  0  0  0  0  0
   12.9080    0.5390   22.9870 C   0  0  0  0  0  0  0  0  0  0  0  0
   11.7340    1.2580   23.1750 C   0  0  0  0  0  0  0  0  0  0  0  0
   11.8570    2.4020   23.5830 O   0  0  0  0  0  0  0  0  0  0  0  0
   10.7210    3.1580   23.7660 C   0  0  0  0  0  0  0  0  0  0  0  0
   10.5890    4.0600   22.7220 C   0  0  0  0  0  0  0  0  0  0  0  0
   11.4790    5.0590   22.7410 N   0  0  0  0  0  0  0  0  0  0  0  0
   12.5260    5.1300   21.8550 C   0  0  0  0  0  0  0  0  0  0  0  0
   13.2750    6.1780   22.0480 N   0  0  0  0  0  0  0  0  0  0  0  0
   12.6530    6.7680   23.1020 C   0  0  0  0  0  0  0  0  0  0  0  0
   11.5280    6.1280   23.5830 N   0  0  0  0  0  0  0  0  0  0  0  0
   10.5360    0.6540   22.8930 C   0  0  0  0  0  0  0  0  0  0  0  0
  1  2  2  0
  2  3  1  0
  3  4  1  0
  4  5  2  0
  5  6  1  0
  6  7  2  0
  7  8  1  0
  4  9  1  0
  8  9  2  0
  2 10  1  0
 10 11  1  0
 11 12  2  0
 12 13  1  0
 13 14  2  0
 14 15  1  0
 15 16  1  0
 16 17  1  0
 17 18  1  0
 18 19  1  0
 19 20  1  0
 20 21  2  0
 21 22  1  0
 19 23  1  0
 22 23  2  0
 11 24  1  0
 15 24  2  0
M  END
