pyridine_urea_10958
     RDKit          3D

 19 20  0  0  0  0  0  0  0  0999 V2000
    9.6170    0.0800   24.1500 C   0  0  0  0  0  0  0  0  0  0  0  0
    9.6860   -1.2280   23.4740 C   0  0  1  0  0  0  0  0  0  0  0  0
    8.6720   -1.4170   22.4590 N   0  0  0  0  0  0  0  0  0  0  0  0
    8.2750   -0.3880   21.6450 C   0  0  0  0  0  0  0  0  0  0  0  0
    8.9330    0.6250   21.4480 O   0  0  0  0  0  0  0  0  0  0  0  0
    7.0440   -0.6850   21.1250 N   0  0  0  0  0  0  0  0  0  0  0  0
    6.3990    0.0300   20.0110 C   0  0  0  0  0  0  0  0  0  0  0  0
    5.2260    0.7280   20.2860 C   0  0  0  0  0  0  0  0  0  0  0  0
    4.5300    1.4820   19.2150 C   0  0  0  0  0  0  0  0  0  0  0  0
    5.2190    1.4000   17.8710 C   0  0  0  0  0  0  0  0  0  0  0  0
    6.3570    0.6990   17.6680 N   0  0  0  0  0  0  0  0  0  0  0  0
    6.9060    0.0410   18.7200 C   0  0  0  0  0  0  0  0  0  0  0  0
   11.0100   -1.3170   22.8320 C   0  0  0  0  0  0  0  0  0  0  0  0
   11.7000   -2.0760   21.9210 C   0  0  0  0  0  0  0  0  0  0  0  0
   13.1130   -1.5170   21.7550 C   0  0  0  0  0  0  0  0  0  0  0  0
   13.6570   -0.2850   22.5100 N   0  0  0  0  0  0  0  0  0  0  0  0
   12.6830    0.1920   23.3090 C   0  0  0  0  0  0  0  0  0  0  0  0
   12.0880   -0.7730   22.8030 C   0  0  0  0  0  0  0  0  0  0  0  0
   13.1380   -1.7620   21.6060 Br  0  0  0  0  0  0  0  0  0  0  0  0
  2  1  1  6
  2  3  1  0
  3  4  1  0
  4  5  2  0
  4  6  1  0
  6  7  1  0
  7  8  2  0
  8  9  1  0
  9 10  2  0
 10 11  1  0
  7 12  1  0
 11 12  2  0
  2 13  1  0
 13 14  2  0
 14 15  1  0
 15 16  2  0
 16 17  1  0
 13 18  1  0
 17 18  2  0
 18 19  1  0
M  END
