pyridine_urea_4595
     RDKit          3D

 23 24  0  0  0  0  0  0  0  0999 V2000
   13.5110    0.2500   22.2710 C   0  0  0  0  0  0  0  0  0  0  0  0
   13.1640   -0.7800   23.0250 O   0  0  0  0  0  0  0  0  0  0  0  0
   11.8830   -0.6310   23.2280 C   0  0  0  0  0  0  0  0  0  0  0  0
   11.5170    0.4460   24.2120 C   0  0  0  0  0  0  0  0  0  0  0  0
   10.2600    0.6580   24.5440 C   0  0  0  0  0  0  0  0  0  0  0  0
    9.8390    1.4380   25.3300 O   0  0  0  0  0  0  0  0  0  0  0  0
    9.2530    0.4620   26.1460 C   0  0  0  0  0  0  0  0  0  0  0  0
    9.3830   -0.1040   23.9540 C   0  0  0  0  0  0  0  0  0  0  0  0
    8.2100    0.0810   24.2510 O   0  0  0  0  0  0  0  0  0  0  0  0
    7.5430   -1.0970   24.7220 C   0  0  0  0  0  0  0  0  0  0  0  0
    9.8550   -1.1540   22.9690 C   0  0  0  0  0  0  0  0  0  0  0  0
   11.0490   -1.6360   22.4190 C   0  0  0  0  0  0  0  0  0  0  0  0
    9.9430   -2.2930   21.9490 C   0  0  0  0  0  0  0  0  0  0  0  0
    8.7710   -1.4620   22.2230 N   0  0  0  0  0  0  0  0  0  0  0  0
    8.3180   -0.3990   21.4670 C   0  0  0  0  0  0  0  0  0  0  0  0
    8.9410    0.6440   21.3050 O   0  0  0  0  0  0  0  0  0  0  0  0
    7.0760   -0.6970   20.9710 N   0  0  0  0  0  0  0  0  0  0  0  0
    6.4260   -0.0020   19.9550 C   0  0  0  0  0  0  0  0  0  0  0  0
    5.2500    0.6730   20.2510 C   0  0  0  0  0  0  0  0  0  0  0  0
    4.5980    1.3910   19.1940 C   0  0  0  0  0  0  0  0  0  0  0  0
    5.1940    1.3550   17.9550 C   0  0  0  0  0  0  0  0  0  0  0  0
    6.3270    0.6970   17.6840 N   0  0  0  0  0  0  0  0  0  0  0  0
    6.9110    0.0370   18.6800 C   0  0  0  0  0  0  0  0  0  0  0  0
  1  2  1  0
  2  3  1  0
  3  4  2  0
  4  5  1  0
  5  6  1  0
  6  7  1  0
  5  8  2  0
  8  9  1  0
  9 10  1  0
  8 11  1  0
  3 12  1  0
 11 12  2  0
 12 13  1  0
 13 14  1  0
 14 15  1  0
 15 16  2  0
 15 17  1  0
 17 18  1  0
 18 19  2  0
 19 20  1  0
 20 21  2  0
 21 22  1  0
 18 23  1  0
 22 23  2  0
M  END
