pyridine_urea_6480
     RDKit          3D

 23 24  0  0  0  0  0  0  0  0999 V2000
   12.5380   -0.8220   23.9210 C   0  0  0  0  0  0  0  0  0  0  0  0
   11.9980   -0.1470   22.7590 O   0  0  0  0  0  0  0  0  0  0  0  0
   10.9570    0.7850   23.0640 C   0  0  0  0  0  0  0  0  0  0  0  0
   10.4340   -0.5010   22.8670 C   0  0  0  0  0  0  0  0  0  0  0  0
   11.1750   -1.7110   22.5070 C   0  0  0  0  0  0  0  0  0  0  0  0
    9.8340   -2.0000   22.6290 C   0  0  0  0  0  0  0  0  0  0  0  0
    9.1370   -1.5520   21.4340 N   0  0  0  0  0  0  0  0  0  0  0  0
    8.3950   -0.3920   21.3390 C   0  0  0  0  0  0  0  0  0  0  0  0
    8.9350    0.8520   21.4880 O   0  0  0  0  0  0  0  0  0  0  0  0
    7.0770   -0.6580   21.0460 N   0  0  0  0  0  0  0  0  0  0  0  0
    6.3210    0.0460   20.0910 C   0  0  0  0  0  0  0  0  0  0  0  0
    5.1580    0.6860   20.4100 C   0  0  0  0  0  0  0  0  0  0  0  0
    4.6060    1.3560   19.1620 C   0  0  0  0  0  0  0  0  0  0  0  0
    5.2380    1.2810   17.9440 C   0  0  0  0  0  0  0  0  0  0  0  0
    6.3630    0.6290   17.7350 N   0  0  0  0  0  0  0  0  0  0  0  0
    6.8630    0.0350   18.8130 C   0  0  0  0  0  0  0  0  0  0  0  0
   12.5430   -0.7640   22.5260 C   0  0  0  0  0  0  0  0  0  0  0  0
   13.2920    0.6410   22.7300 C   0  0  0  0  0  0  0  0  0  0  0  0
   12.1620    1.5030   23.0540 C   0  0  0  0  0  0  0  0  0  0  0  0
   12.3850    2.8830   23.3040 O   0  0  0  0  0  0  0  0  0  0  0  0
   11.6560    3.9620   22.6710 C   0  0  0  0  0  0  0  0  0  0  0  0
   11.4230    4.9530   23.6340 C   0  0  0  0  0  0  0  0  0  0  0  0
   12.5430    4.6510   21.6140 C   0  0  0  0  0  0  0  0  0  0  0  0
  1  2  1  0
  2  3  1  0
  3  4  2  0
  4  5  1  0
  5  6  1  0
  6  7  1  0
  7  8  1  0
  8  9  2  0
  8 10  1  0
 10 11  1  0
 11 12  2  0
 12 13  1  0
 13 14  2  0
 14 15  1  0
 11 16  1  0
 15 16  2  0
  5 17  2  0
 17 18  1  0
  3 19  1  0
 18 19  2  0
 19 20  1  0
 20 21  1  0
 21 22  1  0
 21 23  1  0
M  END
