pyridine_urea_14620
     RDKit          3D

 20 21  0  0  0  0  0  0  0  0999 V2000
   13.3180   -3.3590   25.0510 C   0  0  0  0  0  0  0  0  0  0  0  0
   13.4280   -1.9590   25.3040 C   0  0  0  0  0  0  0  0  0  0  0  0
   12.2290   -1.3020   25.0850 O   0  0  0  0  0  0  0  0  0  0  0  0
   12.4670   -0.0350   24.7740 C   0  0  0  0  0  0  0  0  0  0  0  0
   13.0500   -0.1500   25.8220 O   0  0  0  0  0  0  0  0  0  0  0  0
   11.7450   -0.3890   23.7470 C   0  0  0  0  0  0  0  0  0  0  0  0
   12.1860   -1.3470   22.9000 C   0  0  0  0  0  0  0  0  0  0  0  0
   11.2840   -1.6400   21.9510 C   0  0  0  0  0  0  0  0  0  0  0  0
   10.1730   -0.5940   22.2400 C   0  0  1  0  0  0  0  0  0  0  0  0
    8.8870   -1.0370   22.0340 N   0  0  0  0  0  0  0  0  0  0  0  0
    8.0440   -0.2110   21.3560 C   0  0  0  0  0  0  0  0  0  0  0  0
    8.3390    0.9320   21.0260 O   0  0  0  0  0  0  0  0  0  0  0  0
    6.7860   -0.8500   21.0640 N   0  0  0  0  0  0  0  0  0  0  0  0
    6.2030   -0.0670   19.9720 C   0  0  0  0  0  0  0  0  0  0  0  0
    5.0180    0.6230   20.2160 C   0  0  0  0  0  0  0  0  0  0  0  0
    4.5050    1.3620   19.1660 C   0  0  0  0  0  0  0  0  0  0  0  0
    5.2060    1.3930   17.8720 C   0  0  0  0  0  0  0  0  0  0  0  0
    6.3490    0.7050   17.6840 N   0  0  0  0  0  0  0  0  0  0  0  0
    6.8220   -0.0080   18.7300 C   0  0  0  0  0  0  0  0  0  0  0  0
   10.4950    0.0870   23.4210 C   0  0  0  0  0  0  0  0  0  0  0  0
  1  2  1  0
  2  3  1  0
  3  4  1  0
  4  5  2  0
  4  6  1  0
  6  7  2  0
  7  8  1  0
  8  9  1  0
  9 10  1  1
 10 11  1  0
 11 12  2  0
 11 13  1  0
 13 14  1  0
 14 15  2  0
 15 16  1  0
 16 17  2  0
 17 18  1  0
 14 19  1  0
 18 19  2  0
  6 20  1  0
  9 20  1  0
M  END
