pyridine_urea_6963
     RDKit          3D

 21 22  0  0  0  0  0  0  0  0999 V2000
    9.9130   -0.2320   21.9000 C   0  0  0  0  0  0  0  0  0  0  0  0
   10.2930    0.8810   22.8690 C   0  0  0  0  0  0  0  0  0  0  0  0
    9.6660    2.1370   22.7530 C   0  0  0  0  0  0  0  0  0  0  0  0
   11.8160    1.1320   22.9030 C   0  0  0  0  0  0  0  0  0  0  0  0
   12.2580    2.2800   22.7120 C   0  0  0  0  0  0  0  0  0  0  0  0
   12.7760    1.0190   22.9880 C   0  0  0  0  0  0  0  0  0  0  0  0
   11.1830    0.2870   23.0010 C   0  0  0  0  0  0  0  0  0  0  0  0
   10.3660   -0.8650   23.1530 C   0  0  2  0  0  0  0  0  0  0  0  0
   10.6910   -1.8690   22.2110 C   0  0  0  0  0  0  0  0  0  0  0  0
    8.8690   -0.5980   22.9260 N   0  0  0  0  0  0  0  0  0  0  0  0
    8.4420    0.0900   21.6430 C   0  0  0  0  0  0  0  0  0  0  0  0
    8.9310    1.1380   21.1820 O   0  0  0  0  0  0  0  0  0  0  0  0
    7.3790   -0.5770   21.0440 N   0  0  0  0  0  0  0  0  0  0  0  0
    6.5680    0.0500   20.0830 C   0  0  0  0  0  0  0  0  0  0  0  0
    5.3080    0.7920   20.3320 C   0  0  0  0  0  0  0  0  0  0  0  0
    4.6200    1.3820   19.2730 C   0  0  0  0  0  0  0  0  0  0  0  0
    5.1540    1.2490   17.9970 C   0  0  0  0  0  0  0  0  0  0  0  0
    6.2900    0.5730   17.7370 N   0  0  0  0  0  0  0  0  0  0  0  0
    6.9560   -0.0020   18.7610 C   0  0  0  0  0  0  0  0  0  0  0  0
   12.1180   -0.7890   23.3030 C   0  0  0  0  0  0  0  0  0  0  0  0
   12.8910    0.1450   23.1670 C   0  0  0  0  0  0  0  0  0  0  0  0
  1  2  1  0
  2  3  1  0
  2  4  1  0
  4  5  2  0
  5  6  1  0
  6  7  2  0
  7  8  1  0
  8  9  1  6
  8 10  1  0
 10 11  1  0
 11 12  2  0
 11 13  1  0
 13 14  1  0
 14 15  2  0
 15 16  1  0
 16 17  2  0
 17 18  1  0
 14 19  1  0
 18 19  2  0
  7 20  1  0
  4 21  1  0
 20 21  2  0
M  END
