pyridine_urea_13985
     RDKit          3D

 23 25  0  0  0  0  0  0  0  0999 V2000
   14.2030   -2.6970   25.6180 C   0  0  0  0  0  0  0  0  0  0  0  0
   13.0750   -2.7060   25.4810 C   0  0  0  0  0  0  0  0  0  0  0  0
   11.6340   -3.2420   25.5150 C   0  0  0  0  0  0  0  0  0  0  0  0
   12.8860   -2.3490   24.0700 C   0  0  0  0  0  0  0  0  0  0  0  0
   13.5610   -2.8330   23.0520 C   0  0  0  0  0  0  0  0  0  0  0  0
   13.1770   -2.4050   21.6510 C   0  0  0  0  0  0  0  0  0  0  0  0
   12.0670   -1.4410   21.6290 C   0  0  0  0  0  0  0  0  0  0  0  0
   11.2720   -0.7870   22.3910 C   0  0  0  0  0  0  0  0  0  0  0  0
   11.8750   -1.4130   23.5340 C   0  0  0  0  0  0  0  0  0  0  0  0
   10.2850    0.0870   22.4740 C   0  0  1  0  0  0  0  0  0  0  0  0
    8.9620   -0.5030   22.4130 N   0  0  0  0  0  0  0  0  0  0  0  0
    8.1900    0.2040   21.4020 C   0  0  0  0  0  0  0  0  0  0  0  0
    8.5570    1.3160   21.0000 O   0  0  0  0  0  0  0  0  0  0  0  0
    7.0800   -0.4580   20.9730 N   0  0  0  0  0  0  0  0  0  0  0  0
    6.3220    0.1580   19.9870 C   0  0  0  0  0  0  0  0  0  0  0  0
    5.0240    0.8060   20.5230 C   0  0  0  0  0  0  0  0  0  0  0  0
    4.5360    1.3800   19.1980 C   0  0  0  0  0  0  0  0  0  0  0  0
    5.1870    1.2810   17.8680 C   0  0  0  0  0  0  0  0  0  0  0  0
    6.3000    0.6650   17.6320 N   0  0  0  0  0  0  0  0  0  0  0  0
    6.8280    0.1230   18.7020 C   0  0  0  0  0  0  0  0  0  0  0  0
   10.9000    0.4200   23.7880 C   0  0  0  0  0  0  0  0  0  0  0  0
   12.0490   -0.3860   23.8840 C   0  0  0  0  0  0  0  0  0  0  0  0
   12.2010   -1.5880   23.0920 O   0  0  0  0  0  0  0  0  0  0  0  0
  1  2  1  0
  2  3  1  0
  2  4  1  0
  4  5  2  0
  5  6  1  0
  6  7  2  0
  7  8  1  0
  4  9  1  0
  8  9  2  0
  8 10  1  0
 10 11  1  1
 11 12  1  0
 12 13  2  0
 12 14  1  0
 14 15  1  0
 15 16  2  0
 16 17  1  0
 17 18  2  0
 18 19  1  0
 15 20  1  0
 19 20  2  0
 10 21  1  0
 21 22  1  0
  7 23  1  0
 22 23  1  0
M  END
