pyridine_urea_9783
     RDKit          3D

 25 27  0  0  0  0  0  0  0  0999 V2000
    8.6670    0.5560   21.1410 O   0  0  0  0  0  0  0  0  0  0  0  0
    8.3760   -0.5370   21.5980 C   0  0  0  0  0  0  0  0  0  0  0  0
    7.1960   -1.1210   21.1850 N   0  0  0  0  0  0  0  0  0  0  0  0
    6.5220   -0.3420   20.1430 C   0  0  0  0  0  0  0  0  0  0  0  0
    5.2360    0.4160   20.5120 C   0  0  0  0  0  0  0  0  0  0  0  0
    4.5460    1.2410   19.4170 C   0  0  0  0  0  0  0  0  0  0  0  0
    5.2240    1.2290   18.0460 C   0  0  0  0  0  0  0  0  0  0  0  0
    6.3950    0.4850   17.8620 N   0  0  0  0  0  0  0  0  0  0  0  0
    7.0050   -0.2560   18.8460 C   0  0  0  0  0  0  0  0  0  0  0  0
    9.2170   -1.1810   22.5360 N   0  0  0  0  0  0  0  0  0  0  0  0
   10.3380   -0.3390   22.6440 C   0  0  0  0  0  0  0  0  0  0  0  0
   11.7460   -0.4140   22.6070 C   0  0  0  0  0  0  0  0  0  0  0  0
   12.6180    0.7110   22.6830 C   0  0  0  0  0  0  0  0  0  0  0  0
   12.0560    2.0070   22.8020 C   0  0  0  0  0  0  0  0  0  0  0  0
   13.0160    3.6520   22.8030 Br  0  0  0  0  0  0  0  0  0  0  0  0
   10.7110    2.1340   22.8920 C   0  0  0  0  0  0  0  0  0  0  0  0
   10.4020    3.3160   23.0160 O   0  0  0  0  0  0  0  0  0  0  0  0
    9.0970    3.6430   23.2990 C   0  0  0  0  0  0  0  0  0  0  0  0
    9.1350    4.8390   24.2050 C   0  0  0  0  0  0  0  0  0  0  0  0
    8.8390    5.9930   23.4770 C   0  0  0  0  0  0  0  0  0  0  0  0
    9.8570    7.0820   23.3270 C   0  0  0  0  0  0  0  0  0  0  0  0
   10.7940    7.2000   24.3620 C   0  0  0  0  0  0  0  0  0  0  0  0
   10.6230    6.2590   25.3630 C   0  0  0  0  0  0  0  0  0  0  0  0
   10.3430    4.9640   24.9050 C   0  0  0  0  0  0  0  0  0  0  0  0
    9.8500    1.0870   22.8310 C   0  0  0  0  0  0  0  0  0  0  0  0
  1  2  2  0
  2  3  1  0
  3  4  1  0
  4  5  2  0
  5  6  1  0
  6  7  2  0
  7  8  1  0
  4  9  1  0
  8  9  2  0
  2 10  1  0
 10 11  1  0
 11 12  2  0
 12 13  1  0
 13 14  2  0
 14 15  1  0
 14 16  1  0
 16 17  1  0
 17 18  1  0
 18 19  1  0
 19 20  1  0
 20 21  1  0
 21 22  1  0
 22 23  1  0
 19 24  1  0
 23 24  1  0
 11 25  1  0
 16 25  2  0
M  END
