pyridine_urea_1136
     RDKit          3D

 21 23  0  0  0  0  0  0  0  0999 V2000
   12.0300   -3.3570   20.0290 O   0  0  0  0  0  0  0  0  0  0  0  0
   12.0850   -2.5940   20.9390 C   0  0  0  0  0  0  0  0  0  0  0  0
   13.3470   -1.9310   21.1090 C   0  0  0  0  0  0  0  0  0  0  0  0
   13.5060   -1.5650   22.2490 O   0  0  0  0  0  0  0  0  0  0  0  0
   12.5340   -0.7210   22.6750 C   0  0  0  0  0  0  0  0  0  0  0  0
   12.8220    0.4700   23.2790 C   0  0  0  0  0  0  0  0  0  0  0  0
   11.8170    1.3080   23.7020 C   0  0  0  0  0  0  0  0  0  0  0  0
   10.4010    0.9480   23.5160 C   0  0  0  0  0  0  0  0  0  0  0  0
   10.1190   -0.3660   22.8300 C   0  0  0  0  0  0  0  0  0  0  0  0
    8.8270   -0.7970   22.5530 N   0  0  0  0  0  0  0  0  0  0  0  0
    8.1700   -0.0880   21.5820 C   0  0  0  0  0  0  0  0  0  0  0  0
    8.5250    0.9990   21.1440 O   0  0  0  0  0  0  0  0  0  0  0  0
    6.9620   -0.6580   21.0440 N   0  0  0  0  0  0  0  0  0  0  0  0
    6.3190   -0.0120   20.0460 C   0  0  0  0  0  0  0  0  0  0  0  0
    5.1170    0.6760   20.2350 C   0  0  0  0  0  0  0  0  0  0  0  0
    4.5520    1.3330   19.1430 C   0  0  0  0  0  0  0  0  0  0  0  0
    5.1870    1.2830   17.9230 C   0  0  0  0  0  0  0  0  0  0  0  0
    6.3300    0.6330   17.6920 N   0  0  0  0  0  0  0  0  0  0  0  0
    6.8880   -0.0220   18.7880 C   0  0  0  0  0  0  0  0  0  0  0  0
   11.2150   -1.1110   22.4600 C   0  0  0  0  0  0  0  0  0  0  0  0
   11.1310   -2.2760   21.8450 N   0  0  0  0  0  0  0  0  0  0  0  0
  1  2  2  0
  2  3  1  0
  3  4  1  0
  4  5  1  0
  5  6  1  0
  6  7  2  0
  7  8  1  0
  8  9  2  0
  9 10  1  0
 10 11  1  0
 11 12  2  0
 11 13  1  0
 13 14  1  0
 14 15  2  0
 15 16  1  0
 16 17  2  0
 17 18  1  0
 14 19  1  0
 18 19  2  0
  5 20  2  0
  9 20  1  0
  2 21  1  0
 20 21  1  0
M  END
