pyridine_urea_12155
     RDKit          3D

 23 25  0  0  0  0  0  0  0  0999 V2000
    8.6260    0.4230   21.1210 O   0  0  0  0  0  0  0  0  0  0  0  0
    8.0040   -0.6000   21.3630 C   0  0  0  0  0  0  0  0  0  0  0  0
    8.4060   -1.6590   22.1110 N   0  0  0  0  0  0  0  0  0  0  0  0
    9.2180   -1.4850   23.2050 C   0  0  0  0  0  0  0  0  0  0  0  0
    9.9390   -0.3350   23.1000 C   0  0  0  0  0  0  0  0  0  0  0  0
    9.4310    0.9420   23.1150 C   0  0  0  0  0  0  0  0  0  0  0  0
   10.3760    1.9170   22.9900 C   0  0  0  0  0  0  0  0  0  0  0  0
   11.7180    1.5500   22.8680 C   0  0  0  0  0  0  0  0  0  0  0  0
   12.1530    0.2240   22.8620 C   0  0  0  0  0  0  0  0  0  0  0  0
   13.4810   -0.2630   22.7370 C   0  0  0  0  0  0  0  0  0  0  0  0
   14.3520    0.8370   22.6210 O   0  0  0  0  0  0  0  0  0  0  0  0
   13.6550   -1.6240   22.7500 N   0  0  0  0  0  0  0  0  0  0  0  0
   13.4400   -2.5020   23.8390 C   0  0  0  0  0  0  0  0  0  0  0  0
   13.3060   -2.0430   24.9710 C   0  0  0  0  0  0  0  0  0  0  0  0
   12.1320   -2.7330   24.4740 C   0  0  0  0  0  0  0  0  0  0  0  0
   11.2130   -0.7120   22.9790 C   0  0  0  0  0  0  0  0  0  0  0  0
    6.7500   -0.8150   20.8970 N   0  0  0  0  0  0  0  0  0  0  0  0
    6.1890   -0.0600   19.9480 C   0  0  0  0  0  0  0  0  0  0  0  0
    5.0150    0.6910   20.1040 C   0  0  0  0  0  0  0  0  0  0  0  0
    4.5190    1.4570   19.0350 C   0  0  0  0  0  0  0  0  0  0  0  0
    5.1970    1.4620   17.8270 C   0  0  0  0  0  0  0  0  0  0  0  0
    6.3280    0.7290   17.6830 N   0  0  0  0  0  0  0  0  0  0  0  0
    6.8240   -0.0250   18.7290 C   0  0  0  0  0  0  0  0  0  0  0  0
  1  2  2  0
  2  3  1  0
  3  4  1  0
  4  5  1  0
  5  6  2  0
  6  7  1  0
  7  8  2  0
  8  9  1  0
  9 10  1  0
 10 11  2  0
 10 12  1  0
 12 13  1  0
 13 14  1  0
 13 15  1  0
 14 15  1  0
  5 16  1  0
  9 16  2  0
  2 17  1  0
 17 18  1  0
 18 19  2  0
 19 20  1  0
 20 21  2  0
 21 22  1  0
 18 23  1  0
 22 23  2  0
M  END
