pyridine_urea_9219
     RDKit          3D

 18 19  0  0  0  0  0  0  0  0999 V2000
    8.8640    1.1250   21.1980 O   0  0  0  0  0  0  0  0  0  0  0  0
    8.4050    0.0130   21.5130 C   0  0  0  0  0  0  0  0  0  0  0  0
    7.2300   -0.5150   21.0660 N   0  0  0  0  0  0  0  0  0  0  0  0
    6.5170    0.0770   20.0260 C   0  0  0  0  0  0  0  0  0  0  0  0
    5.3460    0.7840   20.3090 C   0  0  0  0  0  0  0  0  0  0  0  0
    4.6390    1.3950   19.2750 C   0  0  0  0  0  0  0  0  0  0  0  0
    5.1380    1.2720   17.9960 C   0  0  0  0  0  0  0  0  0  0  0  0
    6.2540    0.5930   17.7010 N   0  0  0  0  0  0  0  0  0  0  0  0
    6.9160    0.0110   18.7140 C   0  0  0  0  0  0  0  0  0  0  0  0
    9.0920   -0.8200   22.3600 N   0  0  0  0  0  0  0  0  0  0  0  0
   10.4670   -0.4290   22.5820 C   0  0  0  0  0  0  0  0  0  0  0  0
   10.6680    1.0460   22.8760 C   0  0  0  0  0  0  0  0  0  0  0  0
   11.9580    1.4580   23.0640 C   0  0  0  0  0  0  0  0  0  0  0  0
   12.0250    2.6590   23.2820 O   0  0  0  0  0  0  0  0  0  0  0  0
   13.0110    0.5550   22.9910 C   0  0  0  0  0  0  0  0  0  0  0  0
   12.8250   -0.8000   22.7310 C   0  0  0  0  0  0  0  0  0  0  0  0
   11.5470   -1.2960   22.5250 C   0  0  0  0  0  0  0  0  0  0  0  0
   11.3640   -2.5880   22.2740 F   0  0  0  0  0  0  0  0  0  0  0  0
  1  2  2  0
  2  3  1  0
  3  4  1  0
  4  5  2  0
  5  6  1  0
  6  7  2  0
  7  8  1  0
  4  9  1  0
  8  9  2  0
  2 10  1  0
 10 11  1  0
 11 12  2  0
 12 13  1  0
 13 14  1  0
 13 15  2  0
 15 16  1  0
 11 17  1  0
 16 17  2  0
 17 18  1  0
M  END
