pyridine_urea_2975
     RDKit          3D

 21 22  0  0  0  0  0  0  0  0999 V2000
   10.6580    0.0230   24.6750 C   0  0  0  0  0  0  0  0  0  0  0  0
    9.1680    0.1830   24.3980 C   0  0  1  0  0  0  0  0  0  0  0  0
    8.7400   -1.1160   23.6380 C   0  0  0  0  0  0  0  0  0  0  0  0
    9.0480   -0.9880   22.2280 N   0  0  0  0  0  0  0  0  0  0  0  0
    8.4160   -0.0790   21.4230 C   0  0  0  0  0  0  0  0  0  0  0  0
    8.8910    1.0360   21.1450 O   0  0  0  0  0  0  0  0  0  0  0  0
    7.1490   -0.6230   20.9920 N   0  0  0  0  0  0  0  0  0  0  0  0
    6.4540    0.0450   20.0370 C   0  0  0  0  0  0  0  0  0  0  0  0
    5.2800    0.7260   20.3550 C   0  0  0  0  0  0  0  0  0  0  0  0
    4.5790    1.4570   19.2340 C   0  0  0  0  0  0  0  0  0  0  0  0
    5.2050    1.3920   17.8700 C   0  0  0  0  0  0  0  0  0  0  0  0
    6.3410    0.6980   17.6690 N   0  0  0  0  0  0  0  0  0  0  0  0
    6.9160    0.0620   18.7230 C   0  0  0  0  0  0  0  0  0  0  0  0
    8.3800    0.1880   25.6470 N   0  0  0  0  0  0  0  0  0  0  0  0
    7.7490    1.4110   25.9450 C   0  0  0  0  0  0  0  0  0  0  0  0
    7.1890    1.5410   27.3670 C   0  0  2  0  0  0  0  0  0  0  0  0
    7.2640    3.0510   27.5840 C   0  0  0  0  0  0  0  0  0  0  0  0
    7.6830    0.8700   28.2600 O   0  0  0  0  0  0  0  0  0  0  0  0
    7.9620   -0.4920   27.8850 C   0  0  2  0  0  0  0  0  0  0  0  0
    8.3790   -1.1590   29.0360 C   0  0  0  0  0  0  0  0  0  0  0  0
    8.9110   -0.4490   26.7200 C   0  0  0  0  0  0  0  0  0  0  0  0
  2  1  1  1
  2  3  1  0
  3  4  1  0
  4  5  1  0
  5  6  2  0
  5  7  1  0
  7  8  1  0
  8  9  2  0
  9 10  1  0
 10 11  2  0
 11 12  1  0
  8 13  1  0
 12 13  2  0
  2 14  1  0
 14 15  1  0
 15 16  1  0
 16 17  1  1
 16 18  1  0
 18 19  1  0
 19 20  1  1
 14 21  1  0
 19 21  1  0
M  END
