pyridine_urea_9575
     RDKit          3D

 21 23  0  0  0  0  0  0  0  0999 V2000
    8.7530    1.1930   21.1350 O   0  0  0  0  0  0  0  0  0  0  0  0
    8.2540    0.1130   21.4910 C   0  0  0  0  0  0  0  0  0  0  0  0
    8.7830   -0.6290   22.4910 N   0  0  0  0  0  0  0  0  0  0  0  0
   10.0150   -0.1180   22.9750 C   0  0  0  0  0  0  0  0  0  0  0  0
   11.0410   -1.2220   23.0280 C   0  0  1  0  0  0  0  0  0  0  0  0
   11.0270   -1.9430   21.7390 C   0  0  0  0  0  0  0  0  0  0  0  0
   12.4210   -2.4160   21.3530 C   0  0  0  0  0  0  0  0  0  0  0  0
   13.1090   -1.4250   21.3320 O   0  0  0  0  0  0  0  0  0  0  0  0
   13.5110   -1.0360   22.6320 C   0  0  0  0  0  0  0  0  0  0  0  0
   12.3770   -0.7880   23.5590 C   0  0  0  0  0  0  0  0  0  0  0  0
   11.6840    0.3020   23.1070 C   0  0  0  0  0  0  0  0  0  0  0  0
   11.0410    0.7250   24.2210 C   0  0  0  0  0  0  0  0  0  0  0  0
   11.0850   -0.4080   25.0180 C   0  0  0  0  0  0  0  0  0  0  0  0
   12.3620   -1.0220   24.9360 C   0  0  0  0  0  0  0  0  0  0  0  0
    7.1370   -0.4840   20.9960 N   0  0  0  0  0  0  0  0  0  0  0  0
    6.4220    0.1580   19.9510 C   0  0  0  0  0  0  0  0  0  0  0  0
    5.1640    0.8980   20.2500 C   0  0  0  0  0  0  0  0  0  0  0  0
    4.5650    1.5120   19.1740 C   0  0  0  0  0  0  0  0  0  0  0  0
    5.1500    1.4240   17.8220 C   0  0  0  0  0  0  0  0  0  0  0  0
    6.2720    0.7410   17.5760 N   0  0  0  0  0  0  0  0  0  0  0  0
    6.8460    0.1480   18.6410 C   0  0  0  0  0  0  0  0  0  0  0  0
  1  2  2  0
  2  3  1  0
  3  4  1  0
  5  4  1  6
  5  6  1  0
  6  7  1  0
  7  8  1  0
  8  9  1  0
  5 10  1  0
 10  9  1  0
 10 11  1  0
 11 12  1  0
 12 13  1  0
 10 14  1  0
 13 14  1  0
  2 15  1  0
 15 16  1  0
 16 17  2  0
 17 18  1  0
 18 19  2  0
 19 20  1  0
 16 21  1  0
 20 21  2  0
M  END
