pyridine_urea_3754
     RDKit          3D

 20 22  0  0  0  0  0  0  0  0999 V2000
    8.9710    0.8420   21.3720 O   0  0  0  0  0  0  0  0  0  0  0  0
    8.4440   -0.2320   21.6300 C   0  0  0  0  0  0  0  0  0  0  0  0
    8.9450   -1.1170   22.5820 N   0  0  0  0  0  0  0  0  0  0  0  0
   10.3120   -1.0100   23.0820 C   0  0  0  0  0  0  0  0  0  0  0  0
   10.9390    0.3460   22.8180 C   0  0  2  0  0  0  0  0  0  0  0  0
   12.4270    0.3440   22.8050 C   0  0  0  0  0  0  0  0  0  0  0  0
   12.1360    1.6210   23.4960 C   0  0  1  0  0  0  0  0  0  0  0  0
   12.3810    2.9460   22.8790 N   0  0  0  0  0  0  0  0  0  0  0  0
   13.3300    3.9750   23.1250 C   0  0  0  0  0  0  0  0  0  0  0  0
   13.2180    4.9960   22.3440 N   0  0  0  0  0  0  0  0  0  0  0  0
   12.1980    4.7100   21.5580 C   0  0  0  0  0  0  0  0  0  0  0  0
   11.6300    3.4600   21.8490 N   0  0  0  0  0  0  0  0  0  0  0  0
   10.7430    1.4690   23.7010 C   0  0  0  0  0  0  0  0  0  0  0  0
    7.2890   -0.7060   21.0440 N   0  0  0  0  0  0  0  0  0  0  0  0
    6.5520   -0.0420   20.1160 C   0  0  0  0  0  0  0  0  0  0  0  0
    5.3720    0.6480   20.3490 C   0  0  0  0  0  0  0  0  0  0  0  0
    4.7120    1.2980   19.3160 C   0  0  0  0  0  0  0  0  0  0  0  0
    5.2390    1.2570   18.0380 C   0  0  0  0  0  0  0  0  0  0  0  0
    6.3790    0.5940   17.7690 N   0  0  0  0  0  0  0  0  0  0  0  0
    7.0000   -0.0340   18.7990 C   0  0  0  0  0  0  0  0  0  0  0  0
  1  2  2  0
  2  3  1  0
  3  4  1  0
  5  4  1  1
  5  6  1  0
  6  7  1  0
  7  8  1  6
  8  9  1  0
  9 10  2  0
 10 11  1  0
  8 12  1  0
 11 12  2  0
  5 13  1  0
  7 13  1  0
  2 14  1  0
 14 15  1  0
 15 16  2  0
 16 17  1  0
 17 18  2  0
 18 19  1  0
 15 20  1  0
 19 20  2  0
M  END
