pyridine_urea_7346
     RDKit          3D

 18 19  0  0  0  0  0  0  0  0999 V2000
    8.8890    0.7500   21.3820 O   0  0  0  0  0  0  0  0  0  0  0  0
    8.3830   -0.3280   21.6490 C   0  0  0  0  0  0  0  0  0  0  0  0
    8.8760   -1.2440   22.5760 N   0  0  0  0  0  0  0  0  0  0  0  0
   10.1230   -1.9530   22.5810 C   0  0  0  0  0  0  0  0  0  0  0  0
   11.2960   -1.2260   22.4390 C   0  0  2  0  0  0  0  0  0  0  0  0
   11.9150   -1.6980   21.2380 O   0  0  0  0  0  0  0  0  0  0  0  0
   12.3040   -1.3810   23.3700 C   0  0  0  0  0  0  0  0  0  0  0  0
   12.5270   -0.1560   23.9670 C   0  0  0  0  0  0  0  0  0  0  0  0
   11.4190    0.6300   24.3040 C   0  0  0  0  0  0  0  0  0  0  0  0
   10.5130    0.5600   23.5220 O   0  0  0  0  0  0  0  0  0  0  0  0
   11.0220    0.1080   22.3110 C   0  0  0  0  0  0  0  0  0  0  0  0
    7.2130   -0.7720   21.0710 N   0  0  0  0  0  0  0  0  0  0  0  0
    6.5380   -0.1010   20.0670 C   0  0  0  0  0  0  0  0  0  0  0  0
    5.3680    0.6230   20.3770 C   0  0  0  0  0  0  0  0  0  0  0  0
    4.6950    1.3100   19.3640 C   0  0  0  0  0  0  0  0  0  0  0  0
    5.2070    1.2550   18.0810 C   0  0  0  0  0  0  0  0  0  0  0  0
    6.3150    0.5690   17.7600 N   0  0  0  0  0  0  0  0  0  0  0  0
    6.9500   -0.0910   18.7510 C   0  0  0  0  0  0  0  0  0  0  0  0
  1  2  2  0
  2  3  1  0
  3  4  1  0
  4  5  1  0
  5  6  1  6
  5  7  1  0
  7  8  1  0
  8  9  1  0
  9 10  1  0
  5 11  1  0
 10 11  1  0
  2 12  1  0
 12 13  1  0
 13 14  2  0
 14 15  1  0
 15 16  2  0
 16 17  1  0
 13 18  1  0
 17 18  2  0
M  END
