pyridine_urea_4410
     RDKit          3D

 23 25  0  0  0  0  0  0  0  0999 V2000
   13.3000    1.4140   22.8100 C   0  0  0  0  0  0  0  0  0  0  0  0
   13.0010    2.9270   22.6880 C   0  0  0  0  0  0  0  0  0  0  0  0
   11.9650    2.8380   23.5300 O   0  0  0  0  0  0  0  0  0  0  0  0
   11.4220    1.6010   23.1600 C   0  0  0  0  0  0  0  0  0  0  0  0
   12.2090    0.3440   22.7630 C   0  0  0  0  0  0  0  0  0  0  0  0
   11.3940   -0.8660   22.3840 C   0  0  0  0  0  0  0  0  0  0  0  0
    9.8960   -0.6430   22.4660 C   0  0  0  0  0  0  0  0  0  0  0  0
    8.9050   -1.6090   22.0960 N   0  0  0  0  0  0  0  0  0  0  0  0
    8.1160   -0.8130   21.2780 C   0  0  0  0  0  0  0  0  0  0  0  0
    8.5190    0.2860   20.9440 O   0  0  0  0  0  0  0  0  0  0  0  0
    6.8210   -1.2880   20.8800 N   0  0  0  0  0  0  0  0  0  0  0  0
    6.1980   -0.3950   19.9810 C   0  0  0  0  0  0  0  0  0  0  0  0
    5.0230    0.3240   20.2250 C   0  0  0  0  0  0  0  0  0  0  0  0
    4.5460    1.1680   19.2360 C   0  0  0  0  0  0  0  0  0  0  0  0
    5.2290    1.2880   18.0370 C   0  0  0  0  0  0  0  0  0  0  0  0
    6.3600    0.6100   17.7740 N   0  0  0  0  0  0  0  0  0  0  0  0
    6.8110   -0.2080   18.7500 C   0  0  0  0  0  0  0  0  0  0  0  0
    9.2220    0.6470   22.9090 C   0  0  0  0  0  0  0  0  0  0  0  0
    7.8330    0.8640   23.0150 C   0  0  0  0  0  0  0  0  0  0  0  0
    7.2470    2.1570   23.4440 C   0  0  0  0  0  0  0  0  0  0  0  0
    8.1320    3.1660   23.7420 C   0  0  0  0  0  0  0  0  0  0  0  0
    9.4810    2.9270   23.6280 C   0  0  0  0  0  0  0  0  0  0  0  0
   10.0510    1.6990   23.2240 C   0  0  0  0  0  0  0  0  0  0  0  0
  1  2  1  0
  2  3  1  0
  3  4  1  0
  4  5  2  0
  5  6  1  0
  6  7  2  0
  7  8  1  0
  8  9  1  0
  9 10  2  0
  9 11  1  0
 11 12  1  0
 12 13  2  0
 13 14  1  0
 14 15  2  0
 15 16  1  0
 12 17  1  0
 16 17  2  0
  7 18  1  0
 18 19  1  0
 19 20  2  0
 20 21  1  0
 21 22  2  0
  4 23  1  0
 18 23  2  0
 22 23  1  0
M  END
