pyridine_urea_14692
     RDKit          3D

 20 21  0  0  0  0  0  0  0  0999 V2000
   13.2840   -2.4750   23.7030 C   0  0  0  0  0  0  0  0  0  0  0  0
   12.5940   -1.6710   22.6080 C   0  0  0  0  0  0  0  0  0  0  0  0
   13.0290   -1.9430   21.3200 C   0  0  0  0  0  0  0  0  0  0  0  0
   11.0860   -1.9890   22.5520 C   0  0  0  0  0  0  0  0  0  0  0  0
   10.2650   -0.8980   22.4710 C   0  0  0  0  0  0  0  0  0  0  0  0
    8.8940   -1.0800   22.5260 N   0  0  0  0  0  0  0  0  0  0  0  0
    8.2690   -0.1400   21.5780 C   0  0  0  0  0  0  0  0  0  0  0  0
    8.7610    0.9560   21.3430 O   0  0  0  0  0  0  0  0  0  0  0  0
    7.1240   -0.6360   21.0330 N   0  0  0  0  0  0  0  0  0  0  0  0
    6.4150    0.0280   20.0730 C   0  0  0  0  0  0  0  0  0  0  0  0
    5.2440    0.7670   20.2890 C   0  0  0  0  0  0  0  0  0  0  0  0
    4.6180    1.4180   19.2240 C   0  0  0  0  0  0  0  0  0  0  0  0
    5.1800    1.3150   17.9650 C   0  0  0  0  0  0  0  0  0  0  0  0
    6.2860    0.6290   17.6640 N   0  0  0  0  0  0  0  0  0  0  0  0
    6.9030   -0.0290   18.7820 C   0  0  0  0  0  0  0  0  0  0  0  0
   10.5640    0.0910   23.3780 C   0  0  0  0  0  0  0  0  0  0  0  0
   11.9170    0.0980   23.6450 C   0  0  0  0  0  0  0  0  0  0  0  0
   12.1810   -0.5330   24.8630 C   0  0  0  0  0  0  0  0  0  0  0  0
   12.4060    1.3550   23.3660 C   0  0  0  0  0  0  0  0  0  0  0  0
   12.6110   -0.4640   22.7940 O   0  0  0  0  0  0  0  0  0  0  0  0
  2  1  1  0
  2  3  1  0
  2  4  1  0
  4  5  1  0
  5  6  1  0
  6  7  1  0
  7  8  2  0
  7  9  1  0
  9 10  1  0
 10 11  2  0
 11 12  1  0
 12 13  2  0
 13 14  1  0
 10 15  1  0
 14 15  2  0
  5 16  1  0
 16 17  1  0
 17 18  1  0
 17 19  1  0
  2 20  1  0
 17 20  1  0
M  END
