pyridine_urea_3830
     RDKit          3D

 17 18  0  0  0  0  0  0  0  0999 V2000
    8.8660    0.8590   21.2820 O   0  0  0  0  0  0  0  0  0  0  0  0
    8.4300   -0.2390   21.5920 C   0  0  0  0  0  0  0  0  0  0  0  0
    9.0300   -1.1340   22.4400 N   0  0  0  0  0  0  0  0  0  0  0  0
   10.2940   -0.9530   23.0310 C   0  0  0  0  0  0  0  0  0  0  0  0
   10.7780    0.3510   22.9810 C   0  0  0  0  0  0  0  0  0  0  0  0
   10.4850    1.9790   22.8250 S   0  0  0  0  0  0  0  0  0  0  0  0
   12.3390    2.0520   23.0050 N   0  0  0  0  0  0  0  0  0  0  0  0
   12.7830    0.6380   23.1610 C   0  0  0  0  0  0  0  0  0  0  0  0
   11.7920    1.3220   23.0080 C   0  0  0  0  0  0  0  0  0  0  0  0
   11.7290    3.2090   22.8480 Br  0  0  0  0  0  0  0  0  0  0  0  0
    7.2310   -0.6770   21.0960 N   0  0  0  0  0  0  0  0  0  0  0  0
    6.5170   -0.0280   20.0750 C   0  0  0  0  0  0  0  0  0  0  0  0
    5.3480    0.6560   20.4040 C   0  0  0  0  0  0  0  0  0  0  0  0
    4.6010    1.3700   19.2670 C   0  0  0  0  0  0  0  0  0  0  0  0
    5.1570    1.2720   18.0180 C   0  0  0  0  0  0  0  0  0  0  0  0
    6.2970    0.5900   17.7340 N   0  0  0  0  0  0  0  0  0  0  0  0
    6.9260   -0.0280   18.7510 C   0  0  0  0  0  0  0  0  0  0  0  0
  1  2  2  0
  2  3  1  0
  3  4  1  0
  4  5  1  0
  5  6  1  0
  6  7  1  0
  7  8  2  0
  5  9  2  0
  8  9  1  0
  9 10  1  0
  2 11  1  0
 11 12  1  0
 12 13  2  0
 13 14  1  0
 14 15  2  0
 15 16  1  0
 12 17  1  0
 16 17  2  0
M  END
