pyridine_urea_10989
     RDKit          3D

 19 20  0  0  0  0  0  0  0  0999 V2000
   13.5130   -2.0690   20.7610 C   0  0  0  0  0  0  0  0  0  0  0  0
   13.6770   -1.4320   21.9870 N   0  0  0  0  0  0  0  0  0  0  0  0
   12.5580   -0.8230   22.2110 C   0  0  0  0  0  0  0  0  0  0  0  0
   12.4370    0.3740   22.1870 O   0  0  0  0  0  0  0  0  0  0  0  0
   11.6060   -1.7420   22.4840 C   0  0  1  0  0  0  0  0  0  0  0  0
   11.8530   -1.9230   23.8060 C   0  0  0  0  0  0  0  0  0  0  0  0
   10.6690   -1.8310   24.4470 C   0  0  0  0  0  0  0  0  0  0  0  0
    9.5720   -1.3420   23.6000 C   0  0  0  0  0  0  0  0  0  0  0  0
   10.2080   -1.5750   22.2620 C   0  0  1  0  0  0  0  0  0  0  0  0
    9.6490   -0.7070   21.2860 N   0  0  0  0  0  0  0  0  0  0  0  0
    8.5660    0.1110   21.4930 C   0  0  0  0  0  0  0  0  0  0  0  0
    8.6610    1.2380   21.9310 O   0  0  0  0  0  0  0  0  0  0  0  0
    7.3740   -0.4580   21.0930 N   0  0  0  0  0  0  0  0  0  0  0  0
    6.6050    0.1010   20.0630 C   0  0  0  0  0  0  0  0  0  0  0  0
    5.4250    0.7920   20.3700 C   0  0  0  0  0  0  0  0  0  0  0  0
    4.6800    1.3630   19.3390 C   0  0  0  0  0  0  0  0  0  0  0  0
    5.1360    1.2280   18.0440 C   0  0  0  0  0  0  0  0  0  0  0  0
    6.2530    0.5670   17.7180 N   0  0  0  0  0  0  0  0  0  0  0  0
    6.9460    0.0260   18.7330 C   0  0  0  0  0  0  0  0  0  0  0  0
  1  2  1  0
  2  3  1  0
  3  4  2  0
  5  3  1  1
  5  6  1  0
  6  7  1  0
  7  8  1  0
  5  9  1  0
  8  9  1  0
  9 10  1  6
 10 11  1  0
 11 12  2  0
 11 13  1  0
 13 14  1  0
 14 15  2  0
 15 16  1  0
 16 17  2  0
 17 18  1  0
 14 19  1  0
 18 19  2  0
M  END
