pyridine_urea_1095
     RDKit          3D

 21 23  0  0  0  0  0  0  0  0999 V2000
    9.2660    1.3170   21.3550 O   0  0  0  0  0  0  0  0  0  0  0  0
    8.8120    0.2410   21.7660 C   0  0  0  0  0  0  0  0  0  0  0  0
    9.4240   -0.4790   22.9610 N   0  0  0  0  0  0  0  0  0  0  0  0
   10.6450   -1.2850   22.9360 C   0  0  0  0  0  0  0  0  0  0  0  0
   11.1260   -1.3990   21.6690 C   0  0  0  0  0  0  0  0  0  0  0  0
   12.2800   -0.9670   22.3210 C   0  0  0  0  0  0  0  0  0  0  0  0
   13.4500   -0.7090   21.6940 F   0  0  0  0  0  0  0  0  0  0  0  0
   12.2500   -0.8130   23.7180 C   0  0  0  0  0  0  0  0  0  0  0  0
   10.9260   -1.1540   24.4630 C   0  0  0  0  0  0  0  0  0  0  0  0
    9.7050   -1.6120   23.6270 C   0  0  0  0  0  0  0  0  0  0  0  0
    8.3950   -1.9680   24.1280 N   0  0  0  0  0  0  0  0  0  0  0  0
    7.6550   -2.3180   22.9990 C   0  0  0  0  0  0  0  0  0  0  0  0
    8.4120   -2.2110   21.8190 N   0  0  0  0  0  0  0  0  0  0  0  0
    9.7260   -1.7690   22.1100 C   0  0  0  0  0  0  0  0  0  0  0  0
    7.6860   -0.3830   21.1960 N   0  0  0  0  0  0  0  0  0  0  0  0
    6.8640    0.1200   20.2070 C   0  0  0  0  0  0  0  0  0  0  0  0
    5.7610    0.9140   20.5390 C   0  0  0  0  0  0  0  0  0  0  0  0
    4.9610    1.4090   19.5230 C   0  0  0  0  0  0  0  0  0  0  0  0
    5.2340    1.1350   18.2040 C   0  0  0  0  0  0  0  0  0  0  0  0
    6.2850    0.3700   17.8510 N   0  0  0  0  0  0  0  0  0  0  0  0
    7.0670   -0.1180   18.8510 C   0  0  0  0  0  0  0  0  0  0  0  0
  1  2  2  0
  2  3  1  0
  3  4  1  0
  4  5  1  0
  5  6  2  0
  6  7  1  0
  6  8  1  0
  8  9  2  0
  9 10  1  0
 10 11  1  0
 11 12  1  0
 12 13  2  0
  5 14  1  0
 10 14  2  0
 13 14  1  0
  2 15  1  0
 15 16  1  0
 16 17  2  0
 17 18  1  0
 18 19  2  0
 19 20  1  0
 16 21  1  0
 20 21  2  0
M  END
