pyridine_urea_8133
     RDKit          3D

 24 26  0  0  0  0  0  0  0  0999 V2000
    9.0550    1.1350   21.2330 O   0  0  0  0  0  0  0  0  0  0  0  0
    8.5660    0.0330   21.5010 C   0  0  0  0  0  0  0  0  0  0  0  0
    9.2520   -0.9360   22.2170 N   0  0  0  0  0  0  0  0  0  0  0  0
    8.6500   -1.5480   23.3890 C   0  0  0  0  0  0  0  0  0  0  0  0
    8.5680   -3.1130   23.3040 C   0  0  0  0  0  0  0  0  0  0  0  0
    7.3690   -3.7330   23.6580 C   0  0  0  0  0  0  0  0  0  0  0  0
    6.5450   -2.9700   24.7110 C   0  0  0  0  0  0  0  0  0  0  0  0
    5.6170   -3.6550   25.4140 N   0  0  0  0  0  0  0  0  0  0  0  0
    5.1250   -4.7820   24.8430 C   0  0  0  0  0  0  0  0  0  0  0  0
    5.8660   -5.6460   24.4010 O   0  0  0  0  0  0  0  0  0  0  0  0
    3.8950   -4.8600   24.8150 O   0  0  0  0  0  0  0  0  0  0  0  0
    3.5180   -3.5930   25.3940 C   0  0  0  0  0  0  0  0  0  0  0  0
    2.0430   -3.2700   25.5100 C   0  0  0  0  0  0  0  0  0  0  0  0
    1.8210   -1.8890   26.1480 C   0  0  0  0  0  0  0  0  0  0  0  0
    2.9890   -0.9750   26.5980 C   0  0  0  0  0  0  0  0  0  0  0  0
    4.4370   -1.4450   26.4120 C   0  0  0  0  0  0  0  0  0  0  0  0
    4.5950   -2.8100   25.7830 C   0  0  0  0  0  0  0  0  0  0  0  0
    7.3100   -0.4000   21.1410 N   0  0  0  0  0  0  0  0  0  0  0  0
    6.5720    0.1520   20.0840 C   0  0  0  0  0  0  0  0  0  0  0  0
    5.4110    0.8820   20.3380 C   0  0  0  0  0  0  0  0  0  0  0  0
    4.6910    1.4460   19.3020 C   0  0  0  0  0  0  0  0  0  0  0  0
    5.1260    1.2850   18.0140 C   0  0  0  0  0  0  0  0  0  0  0  0
    6.2260    0.5850   17.7100 N   0  0  0  0  0  0  0  0  0  0  0  0
    6.9170    0.0370   18.7450 C   0  0  0  0  0  0  0  0  0  0  0  0
  1  2  2  0
  2  3  1  0
  3  4  1  0
  4  5  1  0
  5  6  1  0
  6  7  1  0
  7  8  1  0
  8  9  1  0
  9 10  2  0
  9 11  1  0
 11 12  1  0
 12 13  1  0
 13 14  2  0
 14 15  1  0
 15 16  2  0
  8 17  1  0
 12 17  2  0
 16 17  1  0
  2 18  1  0
 18 19  1  0
 19 20  2  0
 20 21  1  0
 21 22  2  0
 22 23  1  0
 19 24  1  0
 23 24  2  0
M  END
