pyridine_urea_5
     RDKit          3D

 18 19  0  0  0  0  0  0  0  0999 V2000
   13.1990   -2.9550   20.8060 C   0  0  0  0  0  0  0  0  0  0  0  0
   12.2160   -2.4410   21.2000 C   0  0  0  0  0  0  0  0  0  0  0  0
   10.8950   -1.8630   21.6470 C   0  0  0  0  0  0  0  0  0  0  0  0
   10.9830   -1.4360   23.0250 C   0  0  2  0  0  0  0  0  0  0  0  0
    9.8530   -0.8460   23.5220 C   0  0  0  0  0  0  0  0  0  0  0  0
    8.7820   -1.1230   22.5780 N   0  0  0  0  0  0  0  0  0  0  0  0
    8.3370   -0.2170   21.6310 C   0  0  0  0  0  0  0  0  0  0  0  0
    8.9040    0.8420   21.3910 O   0  0  0  0  0  0  0  0  0  0  0  0
    7.1800   -0.6710   21.0190 N   0  0  0  0  0  0  0  0  0  0  0  0
    6.3990    0.0400   20.0840 C   0  0  0  0  0  0  0  0  0  0  0  0
    5.2640    0.7050   20.4470 C   0  0  0  0  0  0  0  0  0  0  0  0
    4.6690    1.3760   19.2190 C   0  0  0  0  0  0  0  0  0  0  0  0
    5.2440    1.2800   17.9740 C   0  0  0  0  0  0  0  0  0  0  0  0
    6.3440    0.6050   17.7210 N   0  0  0  0  0  0  0  0  0  0  0  0
    6.8820    0.0080   18.7810 C   0  0  0  0  0  0  0  0  0  0  0  0
   12.1260   -0.5160   22.5730 C   0  0  0  0  0  0  0  0  0  0  0  0
   11.9220    0.9600   22.8130 C   0  0  0  0  0  0  0  0  0  0  0  0
   13.0310    0.2260   23.4700 C   0  0  0  0  0  0  0  0  0  0  0  0
  1  2  3  0
  2  3  1  0
  4  3  1  6
  4  5  1  0
  5  6  1  0
  6  7  1  0
  7  8  2  0
  7  9  1  0
  9 10  1  0
 10 11  2  0
 11 12  1  0
 12 13  2  0
 13 14  1  0
 10 15  1  0
 14 15  2  0
  4 16  1  0
 16 17  1  0
 16 18  1  0
 17 18  1  0
M  END
