pyridine_urea_1051
     RDKit          3D

 21 23  0  0  0  0  0  0  0  0999 V2000
    8.7760    1.1230   21.4040 O   0  0  0  0  0  0  0  0  0  0  0  0
    8.5180   -0.0670   21.2960 C   0  0  0  0  0  0  0  0  0  0  0  0
    9.5440   -1.0920   21.3860 N   0  0  0  0  0  0  0  0  0  0  0  0
    9.8830   -1.7540   22.5470 C   0  0  0  0  0  0  0  0  0  0  0  0
   10.9670   -1.3190   23.3000 C   0  0  1  0  0  0  0  0  0  0  0  0
   12.1740   -1.2070   22.5780 C   0  0  0  0  0  0  0  0  0  0  0  0
   12.8440   -0.1170   23.1130 C   0  0  0  0  0  0  0  0  0  0  0  0
   12.0860    0.4350   24.2470 C   0  0  0  0  0  0  0  0  0  0  0  0
   10.7120   -0.1530   24.0420 C   0  0  0  0  0  0  0  0  0  0  0  0
   10.0300   -0.5130   25.3480 C   0  0  0  0  0  0  0  0  0  0  0  0
    8.9260    0.2830   25.5870 C   0  0  0  0  0  0  0  0  0  0  0  0
    8.9470    1.4540   25.2080 O   0  0  0  0  0  0  0  0  0  0  0  0
    9.6610    1.7420   24.0670 C   0  0  0  0  0  0  0  0  0  0  0  0
    9.8720    0.6260   23.2660 C   0  0  0  0  0  0  0  0  0  0  0  0
    7.2520   -0.5510   21.0110 N   0  0  0  0  0  0  0  0  0  0  0  0
    6.4390    0.0830   20.0710 C   0  0  0  0  0  0  0  0  0  0  0  0
    5.2650    0.7670   20.3360 C   0  0  0  0  0  0  0  0  0  0  0  0
    4.6220    1.3550   19.2630 C   0  0  0  0  0  0  0  0  0  0  0  0
    5.1320    1.2570   17.9940 C   0  0  0  0  0  0  0  0  0  0  0  0
    6.2520    0.5970   17.6940 N   0  0  0  0  0  0  0  0  0  0  0  0
    6.8760    0.0270   18.7440 C   0  0  0  0  0  0  0  0  0  0  0  0
  1  2  2  0
  2  3  1  0
  3  4  1  0
  5  4  1  6
  5  6  1  0
  6  7  1  0
  7  8  1  0
  5  9  1  0
  9  8  1  0
  9 10  1  0
 10 11  1  0
 11 12  1  0
 12 13  1  0
  9 14  1  0
 13 14  1  0
  2 15  1  0
 15 16  1  0
 16 17  2  0
 17 18  1  0
 18 19  2  0
 19 20  1  0
 16 21  1  0
 20 21  2  0
M  END
