pyridine_urea_12733
     RDKit          3D

 20 21  0  0  0  0  0  0  0  0999 V2000
   10.8510   -4.0090   25.7760 C   0  0  0  0  0  0  0  0  0  0  0  0
   10.8880   -2.7520   25.0990 O   0  0  0  0  0  0  0  0  0  0  0  0
    9.8730   -2.4970   24.2160 C   0  0  0  0  0  0  0  0  0  0  0  0
    8.8100   -3.1010   24.2280 O   0  0  0  0  0  0  0  0  0  0  0  0
   10.1860   -1.3730   23.1920 C   0  0  1  0  0  0  0  0  0  0  0  0
    8.9970   -1.3780   22.3350 N   0  0  0  0  0  0  0  0  0  0  0  0
    8.5150   -0.3030   21.6130 C   0  0  0  0  0  0  0  0  0  0  0  0
    9.1790    0.8660   21.4540 O   0  0  0  0  0  0  0  0  0  0  0  0
    7.2600   -0.6080   21.1080 N   0  0  0  0  0  0  0  0  0  0  0  0
    6.5630    0.0390   20.0690 C   0  0  0  0  0  0  0  0  0  0  0  0
    5.4210    0.7980   20.3880 C   0  0  0  0  0  0  0  0  0  0  0  0
    4.7640    1.4260   19.3440 C   0  0  0  0  0  0  0  0  0  0  0  0
    5.2230    1.3030   18.0570 C   0  0  0  0  0  0  0  0  0  0  0  0
    6.2930    0.5930   17.7050 N   0  0  0  0  0  0  0  0  0  0  0  0
    6.9390   -0.0240   18.7280 C   0  0  0  0  0  0  0  0  0  0  0  0
   10.2580   -0.0840   23.9560 C   0  0  0  0  0  0  0  0  0  0  0  0
   11.5550    0.1150   24.3590 C   0  0  0  0  0  0  0  0  0  0  0  0
   12.4100   -0.5770   23.3640 C   0  0  2  0  0  0  0  0  0  0  0  0
   13.1540    0.2100   22.5620 C   0  0  0  0  0  0  0  0  0  0  0  0
   11.4310   -1.4050   22.5160 C   0  0  0  0  0  0  0  0  0  0  0  0
  1  2  1  0
  2  3  1  0
  3  4  2  0
  5  3  1  0
  5  6  1  6
  6  7  1  0
  7  8  2  0
  7  9  1  0
  9 10  1  0
 10 11  2  0
 11 12  1  0
 12 13  2  0
 13 14  1  0
 10 15  1  0
 14 15  2  0
  5 16  1  0
 16 17  1  0
 17 18  1  0
 18 19  1  6
  5 20  1  0
 18 20  1  0
M  END
