pyridine_urea_3590
     RDKit          3D

 17 18  0  0  0  0  0  0  0  0999 V2000
    8.4810    0.7210   21.0570 O   0  0  0  0  0  0  0  0  0  0  0  0
    8.2600   -0.4510   21.3210 C   0  0  0  0  0  0  0  0  0  0  0  0
    7.0630   -1.0230   20.9820 N   0  0  0  0  0  0  0  0  0  0  0  0
    6.3970   -0.2350   19.9770 C   0  0  0  0  0  0  0  0  0  0  0  0
    5.1070    0.4900   20.3480 C   0  0  0  0  0  0  0  0  0  0  0  0
    4.4400    1.3370   19.2600 C   0  0  0  0  0  0  0  0  0  0  0  0
    5.1570    1.3590   17.9090 C   0  0  0  0  0  0  0  0  0  0  0  0
    6.3370    0.6280   17.7360 N   0  0  0  0  0  0  0  0  0  0  0  0
    6.9180   -0.1240   18.7140 C   0  0  0  0  0  0  0  0  0  0  0  0
    9.1750   -1.2690   21.9600 N   0  0  0  0  0  0  0  0  0  0  0  0
   10.1920   -0.5430   22.5970 C   0  0  0  0  0  0  0  0  0  0  0  0
   10.2130    0.8240   22.3730 C   0  0  0  0  0  0  0  0  0  0  0  0
    9.3090    1.7150   22.9320 C   0  0  0  0  0  0  0  0  0  0  0  0
    8.8350    2.4320   22.0300 O   0  0  0  0  0  0  0  0  0  0  0  0
   11.6710   -1.1750   22.3850 C   0  0  0  0  0  0  0  0  0  0  0  0
   11.6970   -1.2290   23.7540 C   0  0  0  0  0  0  0  0  0  0  0  0
   10.4370   -0.8850   23.8980 C   0  0  0  0  0  0  0  0  0  0  0  0
  1  2  2  0
  2  3  1  0
  3  4  1  0
  4  5  2  0
  5  6  1  0
  6  7  2  0
  7  8  1  0
  4  9  1  0
  8  9  2  0
  2 10  1  0
 11 10  1  0
 11 12  1  0
 12 13  1  0
 13 14  1  0
 11 15  1  0
 15 16  1  0
 11 17  1  0
 16 17  1  0
M  END
