pyridine_urea_9242
     RDKit          3D

 18 19  0  0  0  0  0  0  0  0999 V2000
    8.7290    0.9150   21.3010 O   0  0  0  0  0  0  0  0  0  0  0  0
    8.3320   -0.2000   21.6020 C   0  0  0  0  0  0  0  0  0  0  0  0
    7.1780   -0.7430   21.1020 N   0  0  0  0  0  0  0  0  0  0  0  0
    6.4910   -0.0870   20.0590 C   0  0  0  0  0  0  0  0  0  0  0  0
    5.3040    0.6020   20.3320 C   0  0  0  0  0  0  0  0  0  0  0  0
    4.6290    1.2710   19.3060 C   0  0  0  0  0  0  0  0  0  0  0  0
    5.1690    1.2270   18.0380 C   0  0  0  0  0  0  0  0  0  0  0  0
    6.3030    0.5680   17.7520 N   0  0  0  0  0  0  0  0  0  0  0  0
    6.9320   -0.0700   18.7580 C   0  0  0  0  0  0  0  0  0  0  0  0
    9.0560   -0.9810   22.4740 N   0  0  0  0  0  0  0  0  0  0  0  0
   10.4130   -0.4830   22.6720 C   0  0  0  0  0  0  0  0  0  0  0  0
   10.5120    1.0270   22.7310 C   0  0  0  0  0  0  0  0  0  0  0  0
   11.7520    1.5800   22.8730 C   0  0  0  0  0  0  0  0  0  0  0  0
   11.8610    3.6650   22.8810 I   0  0  0  0  0  0  0  0  0  0  0  0
   12.8830    0.7640   22.9790 C   0  0  0  0  0  0  0  0  0  0  0  0
   12.7890   -0.6340   22.9390 C   0  0  0  0  0  0  0  0  0  0  0  0
   11.5550   -1.2590   22.7830 C   0  0  0  0  0  0  0  0  0  0  0  0
   11.4420   -2.6210   22.7350 O   0  0  0  0  0  0  0  0  0  0  0  0
  1  2  2  0
  2  3  1  0
  3  4  1  0
  4  5  2  0
  5  6  1  0
  6  7  2  0
  7  8  1  0
  4  9  1  0
  8  9  2  0
  2 10  1  0
 10 11  1  0
 11 12  2  0
 12 13  1  0
 13 14  1  0
 13 15  2  0
 15 16  1  0
 11 17  1  0
 16 17  2  0
 17 18  1  0
M  END
