pyridine_urea_2980
     RDKit          3D

 21 22  0  0  0  0  0  0  0  0999 V2000
    8.8890    0.2590   27.1200 C   0  0  0  0  0  0  0  0  0  0  0  0
    8.8070    0.0960   25.6020 C   0  0  0  0  0  0  0  0  0  0  0  0
    9.9880   -0.5240   25.0710 O   0  0  0  0  0  0  0  0  0  0  0  0
   10.4960    0.0190   23.9210 C   0  0  2  0  0  0  0  0  0  0  0  0
   10.2210   -0.8210   22.8520 C   0  0  0  0  0  0  0  0  0  0  0  0
    8.9120   -0.8530   22.3710 N   0  0  0  0  0  0  0  0  0  0  0  0
    8.2840   -0.0850   21.4370 C   0  0  0  0  0  0  0  0  0  0  0  0
    8.7120    1.1790   21.0820 O   0  0  0  0  0  0  0  0  0  0  0  0
    7.1970   -0.7010   20.9300 N   0  0  0  0  0  0  0  0  0  0  0  0
    6.5020   -0.0090   20.0170 C   0  0  0  0  0  0  0  0  0  0  0  0
    5.2150    0.7830   20.2770 C   0  0  0  0  0  0  0  0  0  0  0  0
    4.4840    1.5560   19.1850 C   0  0  0  0  0  0  0  0  0  0  0  0
    5.1880    1.4350   17.8480 C   0  0  0  0  0  0  0  0  0  0  0  0
    6.3330    0.6970   17.7040 N   0  0  0  0  0  0  0  0  0  0  0  0
    6.9660    0.0030   18.7300 C   0  0  0  0  0  0  0  0  0  0  0  0
   12.0490    0.1930   24.0950 C   0  0  0  0  0  0  0  0  0  0  0  0
   12.3720   -0.9330   25.0660 C   0  0  0  0  0  0  0  0  0  0  0  0
   12.6810   -2.1280   24.4470 C   0  0  0  0  0  0  0  0  0  0  0  0
   12.2670   -2.0800   23.1630 O   0  0  0  0  0  0  0  0  0  0  0  0
   12.9920   -1.0850   22.4410 C   0  0  0  0  0  0  0  0  0  0  0  0
   12.7540    0.2270   22.9020 C   0  0  0  0  0  0  0  0  0  0  0  0
  1  2  1  0
  2  3  1  0
  3  4  1  0
  4  5  1  6
  5  6  1  0
  6  7  1  0
  7  8  2  0
  7  9  1  0
  9 10  1  0
 10 11  2  0
 11 12  1  0
 12 13  2  0
 13 14  1  0
 10 15  1  0
 14 15  2  0
  4 16  1  0
 16 17  1  0
 17 18  1  0
 18 19  1  0
 19 20  1  0
 16 21  1  0
 20 21  1  0
M  END
