pyridine_urea_11818
     RDKit          3D

 25 27  0  0  0  0  0  0  0  0999 V2000
    7.7060   -3.2150   24.6560 C   0  0  0  0  0  0  0  0  0  0  0  0
    8.2860   -2.0590   25.4280 C   0  0  0  0  0  0  0  0  0  0  0  0
    8.0820   -1.9820   26.8010 C   0  0  0  0  0  0  0  0  0  0  0  0
    8.5930   -0.9640   27.5520 C   0  0  0  0  0  0  0  0  0  0  0  0
    9.3460    0.0370   26.9470 N   0  0  0  0  0  0  0  0  0  0  0  0
    9.6050    0.0630   25.5900 C   0  0  0  0  0  0  0  0  0  0  0  0
   10.2780    0.9270   24.9650 O   0  0  0  0  0  0  0  0  0  0  0  0
   10.6840    0.1540   23.8650 C   0  0  0  0  0  0  0  0  0  0  0  0
    9.7160   -0.3710   23.2340 C   0  0  0  0  0  0  0  0  0  0  0  0
   10.0560   -1.2660   22.0810 C   0  0  0  0  0  0  0  0  0  0  0  0
    8.8280   -1.6740   21.5440 N   0  0  0  0  0  0  0  0  0  0  0  0
    7.9840   -0.6840   21.1690 C   0  0  0  0  0  0  0  0  0  0  0  0
    8.4600    0.4520   21.1310 O   0  0  0  0  0  0  0  0  0  0  0  0
    6.7220   -0.9980   20.8770 N   0  0  0  0  0  0  0  0  0  0  0  0
    6.2140   -0.2090   19.9160 C   0  0  0  0  0  0  0  0  0  0  0  0
    5.0180    0.4750   20.1600 C   0  0  0  0  0  0  0  0  0  0  0  0
    4.5140    1.2870   19.1570 C   0  0  0  0  0  0  0  0  0  0  0  0
    5.2110    1.3790   17.9850 C   0  0  0  0  0  0  0  0  0  0  0  0
    6.3560    0.7490   17.6990 N   0  0  0  0  0  0  0  0  0  0  0  0
    6.8350   -0.0410   18.6860 C   0  0  0  0  0  0  0  0  0  0  0  0
   11.4550   -1.6950   21.5160 C   0  0  0  0  0  0  0  0  0  0  0  0
   12.2630   -0.9340   22.3780 C   0  0  0  0  0  0  0  0  0  0  0  0
   11.9200   -0.1140   23.4090 C   0  0  0  0  0  0  0  0  0  0  0  0
   12.8370    0.4880   24.0580 C   0  0  0  0  0  0  0  0  0  0  0  0
    9.0550   -1.0130   24.8310 C   0  0  0  0  0  0  0  0  0  0  0  0
  1  2  1  0
  2  3  2  0
  3  4  1  0
  4  5  2  0
  5  6  1  0
  6  7  1  0
  7  8  1  0
  8  9  2  0
  9 10  1  0
 10 11  1  0
 11 12  1  0
 12 13  2  0
 12 14  1  0
 14 15  1  0
 15 16  2  0
 16 17  1  0
 17 18  2  0
 18 19  1  0
 15 20  1  0
 19 20  2  0
 10 21  2  0
 21 22  1  0
  8 23  1  0
 22 23  2  0
 23 24  1  0
  2 25  1  0
  6 25  2  0
M  END
