pyridine_urea_7380
     RDKit          3D

 17 18  0  0  0  0  0  0  0  0999 V2000
   12.5860    3.5160   22.6230 C   0  0  0  0  0  0  0  0  0  0  0  0
   11.6200    2.5490   22.7640 N   0  0  0  0  0  0  0  0  0  0  0  0
   10.3340    2.9080   22.9000 N   0  0  0  0  0  0  0  0  0  0  0  0
    9.6580    1.7310   23.0000 N   0  0  0  0  0  0  0  0  0  0  0  0
   10.6020    0.7400   22.9210 C   0  0  0  0  0  0  0  0  0  0  0  0
   10.2780   -0.6190   22.9800 C   0  0  0  0  0  0  0  0  0  0  0  0
    9.1390   -1.1730   22.4340 N   0  0  0  0  0  0  0  0  0  0  0  0
    8.5150   -0.2780   21.5720 C   0  0  0  0  0  0  0  0  0  0  0  0
    8.9100    0.8210   21.2190 O   0  0  0  0  0  0  0  0  0  0  0  0
    7.2690   -0.6870   21.0470 N   0  0  0  0  0  0  0  0  0  0  0  0
    6.4890   -0.0030   20.0820 C   0  0  0  0  0  0  0  0  0  0  0  0
    5.2930    0.6790   20.3520 C   0  0  0  0  0  0  0  0  0  0  0  0
    4.6130    1.3280   19.3180 C   0  0  0  0  0  0  0  0  0  0  0  0
    5.2280    1.2640   17.9390 C   0  0  0  0  0  0  0  0  0  0  0  0
    6.3660    0.6020   17.7170 N   0  0  0  0  0  0  0  0  0  0  0  0
    6.9570   -0.0080   18.7640 C   0  0  0  0  0  0  0  0  0  0  0  0
   11.8700    1.2150   22.7690 N   0  0  0  0  0  0  0  0  0  0  0  0
  1  2  1  0
  2  3  1  0
  3  4  2  0
  4  5  1  0
  5  6  1  0
  6  7  1  0
  7  8  1  0
  8  9  2  0
  8 10  1  0
 10 11  1  0
 11 12  2  0
 12 13  1  0
 13 14  2  0
 14 15  1  0
 11 16  1  0
 15 16  2  0
  2 17  1  0
  5 17  2  0
M  END
