pyridine_urea_9957
     RDKit          3D

 24 25  0  0  0  0  0  0  0  0999 V2000
    9.3770   -0.2910   25.3180 C   0  0  0  0  0  0  0  0  0  0  0  0
   10.3980   -0.9220   24.3610 C   0  0  0  0  0  0  0  0  0  0  0  0
   11.6310   -0.3820   23.9380 C   0  0  0  0  0  0  0  0  0  0  0  0
   11.7880   -0.3290   22.5650 C   0  0  0  0  0  0  0  0  0  0  0  0
   10.7030    0.2690   22.9440 C   0  0  0  0  0  0  0  0  0  0  0  0
   10.2210    0.4310   24.2710 C   0  0  0  0  0  0  0  0  0  0  0  0
    9.2810    1.0490   23.2890 C   0  0  0  0  0  0  0  0  0  0  0  0
    8.6550    0.0370   22.5600 N   0  0  0  0  0  0  0  0  0  0  0  0
    8.0620    0.2850   21.3780 C   0  0  0  0  0  0  0  0  0  0  0  0
    8.2840    1.2550   20.6520 O   0  0  0  0  0  0  0  0  0  0  0  0
    7.0500   -0.6840   21.0030 N   0  0  0  0  0  0  0  0  0  0  0  0
    6.3540    0.0210   19.9340 C   0  0  0  0  0  0  0  0  0  0  0  0
    5.1670    0.6800   20.1950 C   0  0  0  0  0  0  0  0  0  0  0  0
    4.4980    1.3770   19.2090 C   0  0  0  0  0  0  0  0  0  0  0  0
    5.1450    1.3590   17.8810 C   0  0  0  0  0  0  0  0  0  0  0  0
    6.2980    0.7060   17.6340 N   0  0  0  0  0  0  0  0  0  0  0  0
    6.8780    0.0500   18.6600 C   0  0  0  0  0  0  0  0  0  0  0  0
   11.4730   -0.3440   24.9180 C   0  0  0  0  0  0  0  0  0  0  0  0
   12.6410   -0.9820   24.4180 C   0  0  0  0  0  0  0  0  0  0  0  0
   13.5070   -1.5870   25.3480 O   0  0  0  0  0  0  0  0  0  0  0  0
   13.5510   -2.9730   25.0740 C   0  0  0  0  0  0  0  0  0  0  0  0
   12.8270   -0.9710   22.9740 C   0  0  0  0  0  0  0  0  0  0  0  0
   13.8100   -1.4880   22.1510 O   0  0  0  0  0  0  0  0  0  0  0  0
   13.2930   -1.9570   20.9370 C   0  0  0  0  0  0  0  0  0  0  0  0
  1  2  2  3
  2  3  1  0
  3  4  1  0
  4  5  2  0
  5  6  1  0
  6  7  1  0
  7  8  1  0
  8  9  1  0
  9 10  2  0
  9 11  1  0
 11 12  1  0
 12 13  2  0
 13 14  1  0
 14 15  2  0
 15 16  1  0
 12 17  1  0
 16 17  2  0
  6 18  2  0
 18 19  1  0
 19 20  1  0
 20 21  1  0
  4 22  1  0
 19 22  2  0
 22 23  1  0
 23 24  1  0
M  END
