pyridine_urea_10109
     RDKit          3D

 23 24  0  0  0  0  0  0  0  0999 V2000
    8.4680    0.4010   27.9660 C   0  0  0  0  0  0  0  0  0  0  0  0
    7.9330    1.0160   26.6780 C   0  0  0  0  0  0  0  0  0  0  0  0
    8.6450    0.5940   25.5120 O   0  0  0  0  0  0  0  0  0  0  0  0
    9.8480   -0.0420   25.6500 C   0  0  0  0  0  0  0  0  0  0  0  0
   10.2830   -0.2270   26.7680 O   0  0  0  0  0  0  0  0  0  0  0  0
   10.5190   -0.5060   24.5120 C   0  0  0  0  0  0  0  0  0  0  0  0
    9.7530   -0.6420   23.4310 C   0  0  0  0  0  0  0  0  0  0  0  0
   10.1890   -1.1080   22.2260 C   0  0  0  0  0  0  0  0  0  0  0  0
    9.1880   -1.1790   21.2170 N   0  0  0  0  0  0  0  0  0  0  0  0
    8.2640   -0.1890   21.2030 C   0  0  0  0  0  0  0  0  0  0  0  0
    8.5830    0.9920   21.2670 O   0  0  0  0  0  0  0  0  0  0  0  0
    6.8940   -0.7180   21.0990 N   0  0  0  0  0  0  0  0  0  0  0  0
    6.3140   -0.0120   19.9910 C   0  0  0  0  0  0  0  0  0  0  0  0
    5.1280    0.7020   20.2070 C   0  0  0  0  0  0  0  0  0  0  0  0
    4.5520    1.4110   19.1530 C   0  0  0  0  0  0  0  0  0  0  0  0
    5.1630    1.4010   17.9010 C   0  0  0  0  0  0  0  0  0  0  0  0
    6.2900    0.7340   17.6270 N   0  0  0  0  0  0  0  0  0  0  0  0
    6.8630    0.0070   18.7390 C   0  0  0  0  0  0  0  0  0  0  0  0
   11.6040   -1.4980   22.0460 C   0  0  0  0  0  0  0  0  0  0  0  0
   12.1340   -1.9800   20.9190 F   0  0  0  0  0  0  0  0  0  0  0  0
   12.4070   -1.3520   23.1250 C   0  0  0  0  0  0  0  0  0  0  0  0
   11.8740   -0.8770   24.3180 C   0  0  0  0  0  0  0  0  0  0  0  0
   12.8180   -0.8370   25.2280 C   0  0  0  0  0  0  0  0  0  0  0  0
  1  2  1  0
  2  3  1  0
  3  4  1  0
  4  5  2  0
  4  6  1  0
  6  7  2  0
  7  8  1  0
  8  9  1  0
  9 10  1  0
 10 11  2  0
 10 12  1  0
 12 13  1  0
 13 14  2  0
 14 15  1  0
 15 16  2  0
 16 17  1  0
 13 18  1  0
 17 18  2  0
  8 19  2  0
 19 20  1  0
 19 21  1  0
  6 22  1  0
 21 22  2  0
 22 23  1  0
M  END
