pyridine_urea_13061
     RDKit          3D

 18 19  0  0  0  0  0  0  0  0999 V2000
    8.8180    1.1890   21.1370 O   0  0  0  0  0  0  0  0  0  0  0  0
    8.4070    0.0490   21.3920 C   0  0  0  0  0  0  0  0  0  0  0  0
    9.1400   -0.9260   21.9850 N   0  0  0  0  0  0  0  0  0  0  0  0
   10.3500   -0.6350   22.6060 C   0  0  0  0  0  0  0  0  0  0  0  0
   10.2780    0.4220   23.5060 C   0  0  0  0  0  0  0  0  0  0  0  0
   10.7140   -0.0190   24.7010 C   0  0  0  0  0  0  0  0  0  0  0  0
   12.0670    0.1270   24.6140 C   0  0  0  0  0  0  0  0  0  0  0  0
   12.7230   -0.5390   23.4280 C   0  0  0  0  0  0  0  0  0  0  0  0
   12.8600    0.3150   22.4700 C   0  0  0  0  0  0  0  0  0  0  0  0
   12.2890    1.6800   22.8340 C   0  0  0  0  0  0  0  0  0  0  0  0
   10.9110    1.6480   23.1700 C   0  0  0  0  0  0  0  0  0  0  0  0
    7.1490   -0.3860   21.0960 N   0  0  0  0  0  0  0  0  0  0  0  0
    6.4460    0.1740   20.0430 C   0  0  0  0  0  0  0  0  0  0  0  0
    5.2750    0.8900   20.3060 C   0  0  0  0  0  0  0  0  0  0  0  0
    4.6400    1.4520   19.2090 C   0  0  0  0  0  0  0  0  0  0  0  0
    5.1360    1.3110   17.9390 C   0  0  0  0  0  0  0  0  0  0  0  0
    6.2410    0.6240   17.6580 N   0  0  0  0  0  0  0  0  0  0  0  0
    6.8710    0.0690   18.7210 C   0  0  0  0  0  0  0  0  0  0  0  0
  1  2  2  0
  2  3  1  0
  3  4  1  0
  4  5  1  0
  5  6  1  0
  6  7  1  0
  7  8  1  0
  8  9  2  0
  9 10  1  0
  5 11  1  0
 10 11  1  0
  2 12  1  0
 12 13  1  0
 13 14  2  0
 14 15  1  0
 15 16  2  0
 16 17  1  0
 13 18  1  0
 17 18  2  0
M  END
