pyridine_urea_6583
     RDKit          3D

 22 24  0  0  0  0  0  0  0  0999 V2000
    6.9740    4.2550   23.5080 C   0  0  0  0  0  0  0  0  0  0  0  0
    7.9230    3.0740   23.8020 C   0  0  0  0  0  0  0  0  0  0  0  0
    9.2440    3.1770   23.0370 C   0  0  0  0  0  0  0  0  0  0  0  0
   10.2480    2.0530   23.2600 C   0  0  0  0  0  0  0  0  0  0  0  0
    9.9550    0.8960   24.1890 C   0  0  0  0  0  0  0  0  0  0  0  0
   10.8510   -0.1290   24.4050 C   0  0  2  0  0  0  0  0  0  0  0  0
   12.1710    0.1810   24.1580 C   0  0  0  0  0  0  0  0  0  0  0  0
   12.4210   -0.3070   22.8910 C   0  0  0  0  0  0  0  0  0  0  0  0
   11.2050   -0.7200   22.3480 C   0  0  0  0  0  0  0  0  0  0  0  0
   10.2530   -1.0190   23.3220 C   0  0  2  0  0  0  0  0  0  0  0  0
    8.8770   -0.6910   22.9260 N   0  0  0  0  0  0  0  0  0  0  0  0
    8.5090    0.0560   21.6900 C   0  0  0  0  0  0  0  0  0  0  0  0
    9.0830    1.0730   21.2820 O   0  0  0  0  0  0  0  0  0  0  0  0
    7.4190   -0.5280   21.0810 N   0  0  0  0  0  0  0  0  0  0  0  0
    6.6670    0.0750   20.0690 C   0  0  0  0  0  0  0  0  0  0  0  0
    5.4310    0.8950   20.4000 C   0  0  0  0  0  0  0  0  0  0  0  0
    4.7530    1.4700   19.3690 C   0  0  0  0  0  0  0  0  0  0  0  0
    5.1640    1.3210   18.0590 C   0  0  0  0  0  0  0  0  0  0  0  0
    6.2470    0.5970   17.7170 N   0  0  0  0  0  0  0  0  0  0  0  0
    6.9620   -0.0020   18.7150 C   0  0  0  0  0  0  0  0  0  0  0  0
    8.7110    0.8560   24.8760 C   0  0  0  0  0  0  0  0  0  0  0  0
    7.6950    1.9940   24.6490 C   0  0  0  0  0  0  0  0  0  0  0  0
  1  2  1  0
  2  3  2  0
  3  4  1  0
  4  5  2  0
  6  5  1  6
  6  7  1  0
  7  8  1  0
  8  9  1  0
  6 10  1  0
  9 10  1  0
 10 11  1  6
 11 12  1  0
 12 13  2  0
 12 14  1  0
 14 15  1  0
 15 16  2  0
 16 17  1  0
 17 18  2  0
 18 19  1  0
 15 20  1  0
 19 20  2  0
  5 21  1  0
  2 22  1  0
 21 22  2  0
M  END
