pyridine_urea_4055
     RDKit          3D

 26 29  0  0  0  0  0  0  0  0999 V2000
    8.4920    1.5720   20.6160 O   0  0  0  0  0  0  0  0  0  0  0  0
    7.8920    0.8970   21.4160 C   0  0  0  0  0  0  0  0  0  0  0  0
    6.9690   -0.0430   21.1300 N   0  0  0  0  0  0  0  0  0  0  0  0
    6.3100    0.3380   20.0080 C   0  0  0  0  0  0  0  0  0  0  0  0
    5.1060    1.0070   20.1650 C   0  0  0  0  0  0  0  0  0  0  0  0
    4.4500    1.4530   19.0400 C   0  0  0  0  0  0  0  0  0  0  0  0
    5.0410    1.2020   17.8270 C   0  0  0  0  0  0  0  0  0  0  0  0
    6.1880    0.5480   17.6520 N   0  0  0  0  0  0  0  0  0  0  0  0
    6.8030    0.1230   18.7510 C   0  0  0  0  0  0  0  0  0  0  0  0
    8.1710    1.0860   22.6820 N   0  0  0  0  0  0  0  0  0  0  0  0
    9.5480    0.8610   22.7510 C   0  0  0  0  0  0  0  0  0  0  0  0
   10.5700    1.9900   22.9900 C   0  0  0  0  0  0  0  0  0  0  0  0
   11.9100    1.6340   23.0570 C   0  0  0  0  0  0  0  0  0  0  0  0
   12.1570    0.2920   22.9110 C   0  0  0  0  0  0  0  0  0  0  0  0
   13.1750   -0.4820   22.9440 N   0  0  0  0  0  0  0  0  0  0  0  0
   12.7360   -1.7480   22.7640 C   0  0  0  0  0  0  0  0  0  0  0  0
   13.5890   -2.6490   22.8910 C   0  0  0  0  0  0  0  0  0  0  0  0
   13.2530   -3.3080   23.9860 N   0  0  0  0  0  0  0  0  0  0  0  0
   13.6940   -2.6880   25.0210 C   0  0  0  0  0  0  0  0  0  0  0  0
   13.1120   -1.3640   25.0470 C   0  0  0  0  0  0  0  0  0  0  0  0
   11.6340   -1.2990   24.5550 C   0  0  0  0  0  0  0  0  0  0  0  0
   11.2810   -2.3190   23.7330 C   0  0  0  0  0  0  0  0  0  0  0  0
   11.8770   -3.3250   24.3390 C   0  0  0  0  0  0  0  0  0  0  0  0
   11.5000   -1.9300   22.5380 N   0  0  0  0  0  0  0  0  0  0  0  0
   11.0910   -0.7200   22.6550 C   0  0  0  0  0  0  0  0  0  0  0  0
    9.8550   -0.4070   22.5790 C   0  0  0  0  0  0  0  0  0  0  0  0
  1  2  2  0
  2  3  1  0
  3  4  1  0
  4  5  2  0
  5  6  1  0
  6  7  2  0
  7  8  1  0
  4  9  1  0
  8  9  2  0
  2 10  1  0
 10 11  1  0
 11 12  2  0
 12 13  1  0
 13 14  2  0
 14 15  1  0
 15 16  1  0
 16 17  1  0
 17 18  1  0
 18 19  1  0
 19 20  1  0
 20 21  1  0
 21 22  1  0
 18 23  1  0
 22 23  1  0
 16 24  2  0
 14 25  1  0
 24 25  1  0
 11 26  1  0
 25 26  2  0
M  END
