pyridine_urea_6655
     RDKit          3D

 22 23  0  0  0  0  0  0  0  0999 V2000
   12.3370    4.4960   21.0990 C   0  0  0  0  0  0  0  0  0  0  0  0
   11.5030    3.8870   22.2190 C   0  0  0  0  0  0  0  0  0  0  0  0
   10.6890    5.0010   22.9030 C   0  0  0  0  0  0  0  0  0  0  0  0
   12.4910    3.4280   23.1430 N   0  0  0  0  0  0  0  0  0  0  0  0
   13.4500    4.4030   22.9620 C   0  0  0  0  0  0  0  0  0  0  0  0
   12.8200    2.0650   23.1100 C   0  0  0  0  0  0  0  0  0  0  0  0
   11.9350    1.1310   22.9040 C   0  0  0  0  0  0  0  0  0  0  0  0
   10.6810    1.5640   23.0200 C   0  0  0  0  0  0  0  0  0  0  0  0
    9.5560    0.8640   22.8500 C   0  0  0  0  0  0  0  0  0  0  0  0
    9.6050   -0.4620   22.5130 C   0  0  0  0  0  0  0  0  0  0  0  0
    8.4320   -1.0890   22.2870 N   0  0  0  0  0  0  0  0  0  0  0  0
    8.1970   -0.9480   20.9150 C   0  0  0  0  0  0  0  0  0  0  0  0
    9.3920   -0.9730   20.9750 O   0  0  0  0  0  0  0  0  0  0  0  0
    6.9020   -0.9420   21.2150 N   0  0  0  0  0  0  0  0  0  0  0  0
    6.2550   -0.1960   20.2620 C   0  0  0  0  0  0  0  0  0  0  0  0
    5.0470    0.5340   20.4920 C   0  0  0  0  0  0  0  0  0  0  0  0
    4.5580    1.2890   19.2340 C   0  0  0  0  0  0  0  0  0  0  0  0
    5.2420    1.2410   18.0340 C   0  0  0  0  0  0  0  0  0  0  0  0
    6.3640    0.5510   17.8530 N   0  0  0  0  0  0  0  0  0  0  0  0
    6.8510   -0.1680   18.9980 C   0  0  0  0  0  0  0  0  0  0  0  0
   11.0900   -1.0320   22.3940 C   0  0  0  0  0  0  0  0  0  0  0  0
   12.1670   -0.1940   22.6000 C   0  0  0  0  0  0  0  0  0  0  0  0
  1  2  1  0
  2  3  1  0
  2  4  1  0
  4  5  1  0
  4  6  1  0
  6  7  1  0
  7  8  2  0
  8  9  1  0
  9 10  2  0
 10 11  1  0
 11 12  1  0
 12 13  2  0
 12 14  1  0
 14 15  1  0
 15 16  2  0
 16 17  1  0
 17 18  2  0
 18 19  1  0
 15 20  1  0
 19 20  2  0
 10 21  1  0
  7 22  1  0
 21 22  2  0
M  END
