pyridine_urea_7905
     RDKit          3D

 27 29  0  0  0  0  0  0  0  0999 V2000
    8.9010    0.8560   25.1870 C   0  0  0  0  0  0  0  0  0  0  0  0
    9.2200    1.4120   24.1350 O   0  0  0  0  0  0  0  0  0  0  0  0
   10.4050    0.9790   23.6410 C   0  0  0  0  0  0  0  0  0  0  0  0
   10.4600   -0.3240   23.2190 C   0  0  0  0  0  0  0  0  0  0  0  0
   11.4660   -1.1550   22.6560 C   0  0  0  0  0  0  0  0  0  0  0  0
   10.2620   -1.8240   22.7880 C   0  0  0  0  0  0  0  0  0  0  0  0
    9.4090   -1.4780   21.6260 N   0  0  0  0  0  0  0  0  0  0  0  0
    8.5830   -0.4010   21.4320 C   0  0  0  0  0  0  0  0  0  0  0  0
    8.9500    0.7630   21.5120 O   0  0  0  0  0  0  0  0  0  0  0  0
    7.2050   -0.7870   21.0740 N   0  0  0  0  0  0  0  0  0  0  0  0
    6.4920   -0.0850   20.1210 C   0  0  0  0  0  0  0  0  0  0  0  0
    5.2080    0.7130   20.3030 C   0  0  0  0  0  0  0  0  0  0  0  0
    4.6090    1.3810   19.2380 C   0  0  0  0  0  0  0  0  0  0  0  0
    5.2250    1.2980   17.9930 C   0  0  0  0  0  0  0  0  0  0  0  0
    6.3650    0.6030   17.7580 N   0  0  0  0  0  0  0  0  0  0  0  0
    6.9350   -0.0470   18.8070 C   0  0  0  0  0  0  0  0  0  0  0  0
   12.5290   -0.1780   22.6600 C   0  0  0  0  0  0  0  0  0  0  0  0
   12.5880    1.1660   23.0550 C   0  0  0  0  0  0  0  0  0  0  0  0
   11.4780    1.7660   23.5550 C   0  0  0  0  0  0  0  0  0  0  0  0
   11.4880    3.0700   23.9240 O   0  0  0  0  0  0  0  0  0  0  0  0
   11.6810    4.1300   22.9440 C   0  0  0  0  0  0  0  0  0  0  0  0
   11.2490    5.3250   23.5270 C   0  0  0  0  0  0  0  0  0  0  0  0
   11.9900    5.9150   24.5380 C   0  0  0  0  0  0  0  0  0  0  0  0
   11.5740    7.1050   25.1300 C   0  0  0  0  0  0  0  0  0  0  0  0
   10.3880    7.7330   24.7100 C   0  0  0  0  0  0  0  0  0  0  0  0
    9.6430    7.1510   23.6990 C   0  0  0  0  0  0  0  0  0  0  0  0
   10.0660    5.9560   23.1100 C   0  0  0  0  0  0  0  0  0  0  0  0
  1  2  1  0
  2  3  1  0
  3  4  2  0
  4  5  1  0
  5  6  1  0
  6  7  1  0
  7  8  1  0
  8  9  2  0
  8 10  1  0
 10 11  1  0
 11 12  2  0
 12 13  1  0
 13 14  2  0
 14 15  1  0
 11 16  1  0
 15 16  2  0
  5 17  2  0
 17 18  1  0
  3 19  1  0
 18 19  2  0
 19 20  1  0
 20 21  1  0
 21 22  1  0
 22 23  2  0
 23 24  1  0
 24 25  2  0
 25 26  1  0
 22 27  1  0
 26 27  2  0
M  END
