pyridine_urea_3703
     RDKit          3D

 24 26  0  0  0  0  0  0  0  0999 V2000
   10.4470   -1.1130   21.7080 C   0  0  0  0  0  0  0  0  0  0  0  0
   10.0420   -0.3890   22.9750 C   0  0  1  0  0  0  0  0  0  0  0  0
   10.9230    0.8070   23.2310 C   0  0  0  0  0  0  0  0  0  0  0  0
   12.3560    0.4370   23.5480 C   0  0  0  0  0  0  0  0  0  0  0  0
   12.2330   -0.8220   24.3800 C   0  0  2  0  0  0  0  0  0  0  0  0
   13.2490   -1.9550   24.2950 C   0  0  0  0  0  0  0  0  0  0  0  0
   13.1520   -2.5920   22.9840 N   0  0  0  0  0  0  0  0  0  0  0  0
   12.1410   -2.1990   22.1490 C   0  0  0  0  0  0  0  0  0  0  0  0
   10.9530   -2.0640   22.8880 C   0  0  0  0  0  0  0  0  0  0  0  0
    9.7380   -2.6350   22.4660 C   0  0  0  0  0  0  0  0  0  0  0  0
    8.5800   -2.4850   23.2240 C   0  0  0  0  0  0  0  0  0  0  0  0
    8.5650   -1.7600   24.4180 C   0  0  0  0  0  0  0  0  0  0  0  0
    9.7460   -1.1630   24.8760 C   0  0  0  0  0  0  0  0  0  0  0  0
   10.9960   -1.3260   24.0820 C   0  0  0  0  0  0  0  0  0  0  0  0
    8.7360   -0.0560   22.7820 N   0  0  0  0  0  0  0  0  0  0  0  0
    8.2810    0.4070   21.5440 C   0  0  0  0  0  0  0  0  0  0  0  0
    8.7530    1.4170   21.0200 O   0  0  0  0  0  0  0  0  0  0  0  0
    7.2940   -0.3870   21.0630 N   0  0  0  0  0  0  0  0  0  0  0  0
    6.5980    0.1540   20.0490 C   0  0  0  0  0  0  0  0  0  0  0  0
    5.4440    0.8850   20.3460 C   0  0  0  0  0  0  0  0  0  0  0  0
    4.7320    1.4630   19.3090 C   0  0  0  0  0  0  0  0  0  0  0  0
    5.1820    1.2990   18.0040 C   0  0  0  0  0  0  0  0  0  0  0  0
    6.2800    0.5920   17.7050 N   0  0  0  0  0  0  0  0  0  0  0  0
    6.9600    0.0350   18.7280 C   0  0  0  0  0  0  0  0  0  0  0  0
  2  1  1  6
  2  3  1  0
  3  4  1  0
  5  4  1  6
  5  6  1  0
  6  7  1  0
  7  8  1  0
  8  9  1  0
  9 10  2  0
 10 11  1  0
 11 12  2  0
 12 13  1  0
  5 14  1  0
  9 14  1  0
 13 14  2  0
  2 15  1  0
 15 16  1  0
 16 17  2  0
 16 18  1  0
 18 19  1  0
 19 20  2  0
 20 21  1  0
 21 22  2  0
 22 23  1  0
 19 24  1  0
 23 24  2  0
M  END
