pyridine_urea_9837
     RDKit          3D

 25 26  0  0  0  0  0  0  0  0999 V2000
   14.7400    3.0460   19.0740 C   0  0  0  0  0  0  0  0  0  0  0  0
   15.2320    1.7940   18.3270 C   0  0  0  0  0  0  0  0  0  0  0  0
   14.4700    0.5060   18.5060 O   0  0  0  0  0  0  0  0  0  0  0  0
   14.3140    0.2770   19.8840 C   0  0  0  0  0  0  0  0  0  0  0  0
   14.8010    1.4010   20.4820 O   0  0  0  0  0  0  0  0  0  0  0  0
   13.5350   -0.9050   20.7690 C   0  0  0  0  0  0  0  0  0  0  0  0
   13.4720   -2.3560   20.7840 N   0  0  0  0  0  0  0  0  0  0  0  0
   12.4910   -2.8230   21.6640 N   0  0  0  0  0  0  0  0  0  0  0  0
   12.0040   -1.6100   22.1200 C   0  0  0  0  0  0  0  0  0  0  0  0
   10.8030   -1.2190   23.0340 C   0  0  2  0  0  0  0  0  0  0  0  0
   11.1330   -1.7180   24.4110 C   0  0  0  0  0  0  0  0  0  0  0  0
   12.5110   -1.4770   24.5280 C   0  0  0  0  0  0  0  0  0  0  0  0
   13.2020   -2.6300   24.2230 C   0  0  0  0  0  0  0  0  0  0  0  0
   12.7370   -0.2370   23.7350 C   0  0  0  0  0  0  0  0  0  0  0  0
    9.5660   -1.5570   22.3740 N   0  0  0  0  0  0  0  0  0  0  0  0
    8.6650   -0.5870   21.8670 C   0  0  0  0  0  0  0  0  0  0  0  0
    8.8100    0.8040   22.0790 O   0  0  0  0  0  0  0  0  0  0  0  0
    7.5910   -1.1170   21.1760 N   0  0  0  0  0  0  0  0  0  0  0  0
    6.9000   -0.3910   20.1940 C   0  0  0  0  0  0  0  0  0  0  0  0
    5.7520    0.4600   20.6940 C   0  0  0  0  0  0  0  0  0  0  0  0
    5.0160    1.2080   19.7540 C   0  0  0  0  0  0  0  0  0  0  0  0
    5.3660    1.1540   18.3180 C   0  0  0  0  0  0  0  0  0  0  0  0
    6.3510    0.4310   17.8250 N   0  0  0  0  0  0  0  0  0  0  0  0
    7.1370   -0.3670   18.8080 C   0  0  0  0  0  0  0  0  0  0  0  0
   12.5760   -0.6220   21.7170 N   0  0  0  0  0  0  0  0  0  0  0  0
  1  2  1  0
  2  3  1  0
  3  4  1  0
  4  5  2  0
  4  6  1  0
  6  7  2  0
  7  8  1  0
  8  9  2  0
  9 10  1  0
 10 11  1  1
 11 12  1  0
 12 13  1  0
 12 14  1  0
 10 15  1  0
 15 16  1  0
 16 17  2  0
 16 18  1  0
 18 19  1  0
 19 20  2  0
 20 21  1  0
 21 22  2  0
 22 23  1  0
 19 24  1  0
 23 24  2  0
  6 25  1  0
  9 25  1  0
M  END
