pyridine_urea_2190
     RDKit          3D

 28 30  0  0  0  0  0  0  0  0999 V2000
    8.6380    0.9480   21.1610 O   0  0  0  0  0  0  0  0  0  0  0  0
    8.2320   -0.2100   21.1930 C   0  0  0  0  0  0  0  0  0  0  0  0
    8.9500   -1.3210   21.4860 N   0  0  0  0  0  0  0  0  0  0  0  0
   10.1350   -1.3260   22.2080 C   0  0  0  0  0  0  0  0  0  0  0  0
   10.3210   -0.3890   23.4070 C   0  0  2  0  0  0  0  0  0  0  0  0
   11.8530   -0.5780   23.8060 C   0  0  0  0  0  0  0  0  0  0  0  0
   12.2240   -1.7730   24.6690 C   0  0  0  0  0  0  0  0  0  0  0  0
   13.3780   -1.4320   24.6140 C   0  0  0  0  0  0  0  0  0  0  0  0
   12.1100   -0.8800   24.0380 C   0  0  0  0  0  0  0  0  0  0  0  0
   10.9120   -1.5190   24.2850 C   0  0  0  0  0  0  0  0  0  0  0  0
   10.2050   -1.0170   25.3370 F   0  0  0  0  0  0  0  0  0  0  0  0
   10.9980   -2.8670   24.4890 F   0  0  0  0  0  0  0  0  0  0  0  0
   10.0940   -1.4490   23.2110 F   0  0  0  0  0  0  0  0  0  0  0  0
   11.7480    0.3830   23.1260 C   0  0  0  0  0  0  0  0  0  0  0  0
   12.9150    0.4470   23.2830 C   0  0  0  0  0  0  0  0  0  0  0  0
    9.2750   -0.5780   24.3750 N   0  0  0  0  0  0  0  0  0  0  0  0
    8.3710    0.5030   24.5290 C   0  0  0  0  0  0  0  0  0  0  0  0
    6.9850    0.3320   24.2210 C   0  0  0  0  0  0  0  0  0  0  0  0
    6.4850   -0.8770   24.7790 O   0  0  0  0  0  0  0  0  0  0  0  0
    7.5500   -1.7050   25.2780 C   0  0  0  0  0  0  0  0  0  0  0  0
    8.4580   -1.7130   24.2250 C   0  0  0  0  0  0  0  0  0  0  0  0
    6.9420   -0.5440   20.8940 N   0  0  0  0  0  0  0  0  0  0  0  0
    6.2460    0.1290   19.9790 C   0  0  0  0  0  0  0  0  0  0  0  0
    5.0320    0.7870   20.2110 C   0  0  0  0  0  0  0  0  0  0  0  0
    4.4740    1.4450   19.1440 C   0  0  0  0  0  0  0  0  0  0  0  0
    5.1970    1.4120   17.8200 C   0  0  0  0  0  0  0  0  0  0  0  0
    6.3420    0.7740   17.6240 N   0  0  0  0  0  0  0  0  0  0  0  0
    6.8290    0.1510   18.7110 C   0  0  0  0  0  0  0  0  0  0  0  0
  1  2  2  0
  2  3  1  0
  3  4  1  0
  5  4  1  6
  5  6  1  0
  6  7  2  0
  7  8  1  0
  8  9  2  0
  9 10  1  0
 10 11  1  0
 10 12  1  0
 10 13  1  0
  9 14  1  0
  6 15  1  0
 14 15  2  0
  5 16  1  0
 16 17  1  0
 17 18  1  0
 18 19  1  0
 19 20  1  0
 16 21  1  0
 20 21  1  0
  2 22  1  0
 22 23  1  0
 23 24  2  0
 24 25  1  0
 25 26  2  0
 26 27  1  0
 23 28  1  0
 27 28  2  0
M  END
