pyridine_urea_5738
     RDKit          3D

 20 22  0  0  0  0  0  0  0  0999 V2000
   11.6680   -2.8040   21.0090 C   0  0  0  0  0  0  0  0  0  0  0  0
   11.4390   -1.6460   21.8720 C   0  0  0  0  0  0  0  0  0  0  0  0
   10.2420   -1.0790   22.3150 C   0  0  0  0  0  0  0  0  0  0  0  0
    8.9450   -1.5950   21.9180 N   0  0  0  0  0  0  0  0  0  0  0  0
    8.1460   -0.6410   21.4050 C   0  0  0  0  0  0  0  0  0  0  0  0
    8.6540    0.4750   21.2670 O   0  0  0  0  0  0  0  0  0  0  0  0
    6.7870   -0.9350   21.0480 N   0  0  0  0  0  0  0  0  0  0  0  0
    6.2600   -0.1850   20.0320 C   0  0  0  0  0  0  0  0  0  0  0  0
    4.9870    0.5980   20.3440 C   0  0  0  0  0  0  0  0  0  0  0  0
    4.4750    1.4180   19.1630 C   0  0  0  0  0  0  0  0  0  0  0  0
    5.2250    1.3900   17.8590 C   0  0  0  0  0  0  0  0  0  0  0  0
    6.3420    0.6480   17.7150 N   0  0  0  0  0  0  0  0  0  0  0  0
    6.8450   -0.1160   18.7650 C   0  0  0  0  0  0  0  0  0  0  0  0
   10.5960   -0.0670   23.0810 C   0  0  0  0  0  0  0  0  0  0  0  0
   11.9350   -0.0440   23.0660 N   0  0  0  0  0  0  0  0  0  0  0  0
   12.5740   -1.0370   22.2880 N   0  0  0  0  0  0  0  0  0  0  0  0
   13.4870   -0.2870   22.8150 C   0  0  0  0  0  0  0  0  0  0  0  0
   13.7190    0.9500   22.2690 C   0  0  0  0  0  0  0  0  0  0  0  0
   12.7600    1.5290   22.9320 C   0  0  0  0  0  0  0  0  0  0  0  0
   12.6160    0.4560   23.7690 C   0  0  0  0  0  0  0  0  0  0  0  0
  1  2  1  0
  2  3  2  0
  3  4  1  0
  4  5  1  0
  5  6  2  0
  5  7  1  0
  7  8  1  0
  8  9  2  0
  9 10  1  0
 10 11  2  0
 11 12  1  0
  8 13  1  0
 12 13  2  0
  3 14  1  0
 14 15  2  0
  2 16  1  0
 15 16  1  0
 16 17  1  0
 17 18  1  0
 18 19  1  0
 17 20  1  0
 19 20  1  0
M  END
