pyridine_urea_1514
     RDKit          3D

 19 19  0  0  0  0  0  0  0  0999 V2000
   12.5270   -0.5860   24.6470 C   0  0  0  0  0  0  0  0  0  0  0  0
   12.5330   -1.0600   23.1810 C   0  0  0  0  0  0  0  0  0  0  0  0
   13.1920   -2.4410   23.1480 C   0  0  0  0  0  0  0  0  0  0  0  0
   13.3030   -0.0400   22.3670 C   0  0  0  0  0  0  0  0  0  0  0  0
   11.1030   -1.1860   22.6620 C   0  0  0  0  0  0  0  0  0  0  0  0
   10.0490   -0.7160   23.4270 C   0  0  1  0  0  0  0  0  0  0  0  0
   10.0950    0.6100   23.8740 C   0  0  0  0  0  0  0  0  0  0  0  0
   11.2620    1.3650   23.7460 C   0  0  0  0  0  0  0  0  0  0  0  0
   11.1960    1.9190   22.6580 O   0  0  0  0  0  0  0  0  0  0  0  0
    8.8110   -0.8750   22.6330 N   0  0  0  0  0  0  0  0  0  0  0  0
    8.3930   -0.0270   21.6350 C   0  0  0  0  0  0  0  0  0  0  0  0
    9.0450    1.1750   21.2750 O   0  0  0  0  0  0  0  0  0  0  0  0
    7.2090   -0.5260   21.0580 N   0  0  0  0  0  0  0  0  0  0  0  0
    6.5570    0.0670   20.0060 C   0  0  0  0  0  0  0  0  0  0  0  0
    5.4190    0.7870   20.3870 C   0  0  0  0  0  0  0  0  0  0  0  0
    4.7010    1.4610   19.2600 C   0  0  0  0  0  0  0  0  0  0  0  0
    5.1540    1.3560   17.9700 C   0  0  0  0  0  0  0  0  0  0  0  0
    6.2540    0.6390   17.6500 N   0  0  0  0  0  0  0  0  0  0  0  0
    6.9420    0.0000   18.6950 C   0  0  0  0  0  0  0  0  0  0  0  0
  2  1  1  0
  2  3  1  0
  2  4  1  0
  2  5  1  0
  6  5  1  6
  6  7  1  0
  7  8  1  0
  8  9  1  0
  6 10  1  0
 10 11  1  0
 11 12  2  0
 11 13  1  0
 13 14  1  0
 14 15  2  0
 15 16  1  0
 16 17  2  0
 17 18  1  0
 14 19  1  0
 18 19  2  0
M  END
