pyridine_urea_13261
     RDKit          3D

 15 16  0  0  0  0  0  0  0  0999 V2000
    9.0340    1.1550   21.2160 O   0  0  0  0  0  0  0  0  0  0  0  0
    8.5760    0.0360   21.4810 C   0  0  0  0  0  0  0  0  0  0  0  0
    7.3420   -0.4370   21.0990 N   0  0  0  0  0  0  0  0  0  0  0  0
    6.5910    0.1220   20.0530 C   0  0  0  0  0  0  0  0  0  0  0  0
    5.4280    0.8370   20.3510 C   0  0  0  0  0  0  0  0  0  0  0  0
    4.6860    1.4160   19.3210 C   0  0  0  0  0  0  0  0  0  0  0  0
    5.1390    1.2560   18.0300 C   0  0  0  0  0  0  0  0  0  0  0  0
    6.2430    0.5680   17.7170 N   0  0  0  0  0  0  0  0  0  0  0  0
    6.9420    0.0170   18.7270 C   0  0  0  0  0  0  0  0  0  0  0  0
    9.2990   -0.8950   22.2040 N   0  0  0  0  0  0  0  0  0  0  0  0
   10.4030   -0.4020   23.0130 C   0  0  1  0  0  0  0  0  0  0  0  0
   10.9820   -1.3420   24.0590 C   0  0  0  0  0  0  0  0  0  0  0  0
   12.2460   -1.2570   23.5370 C   0  0  1  0  0  0  0  0  0  0  0  0
   12.9470   -2.3920   23.3880 F   0  0  0  0  0  0  0  0  0  0  0  0
   11.7960   -0.5850   22.4290 C   0  0  0  0  0  0  0  0  0  0  0  0
  1  2  2  0
  2  3  1  0
  3  4  1  0
  4  5  2  0
  5  6  1  0
  6  7  2  0
  7  8  1  0
  4  9  1  0
  8  9  2  0
  2 10  1  0
 11 10  1  6
 11 12  1  0
 12 13  1  0
 13 14  1  6
 11 15  1  0
 13 15  1  0
M  END
