pyridine_urea_2709
     RDKit          3D

 23 26  0  0  0  0  0  0  0  0999 V2000
    8.8760    1.4060   21.0000 O   0  0  0  0  0  0  0  0  0  0  0  0
    8.3620    0.4430   21.5600 C   0  0  0  0  0  0  0  0  0  0  0  0
    7.4410   -0.4120   20.9930 N   0  0  0  0  0  0  0  0  0  0  0  0
    6.6120    0.1770   19.9870 C   0  0  0  0  0  0  0  0  0  0  0  0
    5.3150    0.9470   20.3930 C   0  0  0  0  0  0  0  0  0  0  0  0
    4.5790    1.5090   19.3650 C   0  0  0  0  0  0  0  0  0  0  0  0
    5.1230    1.3120   17.9480 C   0  0  0  0  0  0  0  0  0  0  0  0
    6.2410    0.6290   17.6560 N   0  0  0  0  0  0  0  0  0  0  0  0
    6.9440    0.0870   18.6640 C   0  0  0  0  0  0  0  0  0  0  0  0
    8.5940    0.0880   22.8380 N   0  0  0  0  0  0  0  0  0  0  0  0
    9.6720   -0.8010   23.1700 C   0  0  0  0  0  0  0  0  0  0  0  0
    9.1470   -1.7710   24.2210 C   0  0  0  0  0  0  0  0  0  0  0  0
    8.7610   -0.9840   25.4660 C   0  0  0  0  0  0  0  0  0  0  0  0
    8.1970   -1.8080   26.6310 C   0  0  0  0  0  0  0  0  0  0  0  0
    8.0780   -3.3300   26.4420 C   0  0  0  0  0  0  0  0  0  0  0  0
    8.5230   -3.9200   25.1240 C   0  0  0  0  0  0  0  0  0  0  0  0
    9.0240   -3.1510   24.0840 C   0  0  0  0  0  0  0  0  0  0  0  0
    8.4430   -5.1160   24.9840 O   0  0  0  0  0  0  0  0  0  0  0  0
    8.8580   -5.6670   26.2480 C   0  0  0  0  0  0  0  0  0  0  0  0
    7.8740   -5.5180   27.2420 C   0  0  0  0  0  0  0  0  0  0  0  0
    7.5900   -4.1120   27.4540 O   0  0  0  0  0  0  0  0  0  0  0  0
   10.7760    0.1160   24.0420 C   0  0  0  0  0  0  0  0  0  0  0  0
   10.9440   -0.5370   22.9160 C   0  0  0  0  0  0  0  0  0  0  0  0
  1  2  2  0
  2  3  1  0
  3  4  1  0
  4  5  2  0
  5  6  1  0
  6  7  2  0
  7  8  1  0
  4  9  1  0
  8  9  2  0
  2 10  1  0
 11 10  1  0
 11 12  1  0
 12 13  2  0
 13 14  1  0
 14 15  2  0
 15 16  1  0
 12 17  1  0
 16 17  2  0
 16 18  1  0
 18 19  1  0
 19 20  1  0
 15 21  1  0
 20 21  1  0
 11 22  1  0
 11 23  1  0
 22 23  1  0
M  END
