pyridine_urea_12986
     RDKit          3D

 19 20  0  0  0  0  0  0  0  0999 V2000
    8.9100    1.1150   21.2670 O   0  0  0  0  0  0  0  0  0  0  0  0
    8.1850    0.1950   21.6760 C   0  0  0  0  0  0  0  0  0  0  0  0
    8.1750   -0.2700   22.9670 N   0  0  0  0  0  0  0  0  0  0  0  0
    9.3520   -0.6480   23.6920 C   0  0  0  0  0  0  0  0  0  0  0  0
   10.5250    0.2790   23.4170 C   0  0  0  0  0  0  0  0  0  0  0  0
   10.8790   -1.0970   23.3170 C   0  0  0  0  0  0  0  0  0  0  0  0
   12.1060   -1.4230   23.0190 C   0  0  0  0  0  0  0  0  0  0  0  0
   12.0500    0.2680   23.0780 Cl  0  0  0  0  0  0  0  0  0  0  0  0
   13.2720   -0.9690   22.7510 C   0  0  0  0  0  0  0  0  0  0  0  0
   13.1360    0.3810   22.8050 C   0  0  0  0  0  0  0  0  0  0  0  0
   11.8390    0.9360   23.1080 C   0  0  0  0  0  0  0  0  0  0  0  0
   11.8650    2.6680   23.0780 Cl  0  0  0  0  0  0  0  0  0  0  0  0
    7.2580   -0.4950   20.9580 N   0  0  0  0  0  0  0  0  0  0  0  0
    6.5300    0.1130   19.9710 C   0  0  0  0  0  0  0  0  0  0  0  0
    5.3610    0.8040   20.3210 C   0  0  0  0  0  0  0  0  0  0  0  0
    4.6310    1.4450   19.3140 C   0  0  0  0  0  0  0  0  0  0  0  0
    5.1520    1.3460   17.9220 C   0  0  0  0  0  0  0  0  0  0  0  0
    6.2620    0.6650   17.6340 N   0  0  0  0  0  0  0  0  0  0  0  0
    6.9130    0.0750   18.6530 C   0  0  0  0  0  0  0  0  0  0  0  0
  1  2  2  0
  2  3  1  0
  3  4  1  0
  4  5  1  0
  5  6  2  0
  6  7  1  0
  7  8  1  0
  7  9  2  0
  9 10  1  0
  5 11  1  0
 10 11  2  0
 11 12  1  0
  2 13  1  0
 13 14  1  0
 14 15  2  0
 15 16  1  0
 16 17  2  0
 17 18  1  0
 14 19  1  0
 18 19  2  0
M  END
