pyridine_urea_12985
     RDKit          3D

 19 20  0  0  0  0  0  0  0  0999 V2000
   11.6660   -1.4560   23.5030 C   0  0  0  0  0  0  0  0  0  0  0  0
   12.0360   -1.3250   22.0170 C   0  0  0  0  0  0  0  0  0  0  0  0
   13.1260   -1.5370   22.9260 C   0  0  0  0  0  0  0  0  0  0  0  0
   12.6650   -1.6340   24.1950 C   0  0  0  0  0  0  0  0  0  0  0  0
   13.4810   -1.8880   25.2570 C   0  0  0  0  0  0  0  0  0  0  0  0
   11.2770   -1.5050   24.4850 C   0  0  0  0  0  0  0  0  0  0  0  0
   10.0770   -1.3050   23.7130 C   0  0  0  0  0  0  0  0  0  0  0  0
    9.2040   -1.1210   22.6960 C   0  0  0  0  0  0  0  0  0  0  0  0
    8.6440    0.1590   22.7850 N   0  0  0  0  0  0  0  0  0  0  0  0
    8.2910    0.6750   21.6080 C   0  0  0  0  0  0  0  0  0  0  0  0
    8.8760    1.6250   21.1010 O   0  0  0  0  0  0  0  0  0  0  0  0
    7.2000   -0.0370   21.0950 N   0  0  0  0  0  0  0  0  0  0  0  0
    6.5420    0.3810   19.9940 C   0  0  0  0  0  0  0  0  0  0  0  0
    5.4190    1.1420   20.3160 C   0  0  0  0  0  0  0  0  0  0  0  0
    4.6950    1.6480   19.1270 C   0  0  0  0  0  0  0  0  0  0  0  0
    5.1160    1.3750   17.8570 C   0  0  0  0  0  0  0  0  0  0  0  0
    6.2000    0.6210   17.5950 N   0  0  0  0  0  0  0  0  0  0  0  0
    6.9070    0.1260   18.6970 C   0  0  0  0  0  0  0  0  0  0  0  0
   10.5910   -1.2110   22.2930 C   0  0  0  0  0  0  0  0  0  0  0  0
  1  2  1  0
  2  3  2  0
  3  4  1  0
  4  5  1  0
  4  6  2  0
  6  7  1  0
  7  8  1  0
  8  9  1  0
  9 10  1  0
 10 11  2  0
 10 12  1  0
 12 13  1  0
 13 14  2  0
 14 15  1  0
 15 16  2  0
 16 17  1  0
 13 18  1  0
 17 18  2  0
  2 19  1  0
  7 19  2  0
M  END
