pyridine_urea_3101
     RDKit          3D

 21 23  0  0  0  0  0  0  0  0999 V2000
    9.0130    1.1700   21.1750 O   0  0  0  0  0  0  0  0  0  0  0  0
    8.5570    0.0690   21.4960 C   0  0  0  0  0  0  0  0  0  0  0  0
    7.3510   -0.4470   21.0750 N   0  0  0  0  0  0  0  0  0  0  0  0
    6.5980    0.1150   20.0350 C   0  0  0  0  0  0  0  0  0  0  0  0
    5.4320    0.8260   20.3430 C   0  0  0  0  0  0  0  0  0  0  0  0
    4.6910    1.4080   19.3140 C   0  0  0  0  0  0  0  0  0  0  0  0
    5.1410    1.2560   18.0230 C   0  0  0  0  0  0  0  0  0  0  0  0
    6.2480    0.5720   17.7050 N   0  0  0  0  0  0  0  0  0  0  0  0
    6.9480    0.0180   18.7130 C   0  0  0  0  0  0  0  0  0  0  0  0
    9.2240   -0.8070   22.3400 N   0  0  0  0  0  0  0  0  0  0  0  0
   10.6330   -0.6420   22.7180 C   0  0  0  0  0  0  0  0  0  0  0  0
   10.9590    0.8790   22.7680 C   0  0  0  0  0  0  0  0  0  0  0  0
    9.9260    1.7330   22.8210 N   0  0  0  0  0  0  0  0  0  0  0  0
   10.4360    2.9780   22.8580 N   0  0  0  0  0  0  0  0  0  0  0  0
   11.7780    2.9290   22.8310 N   0  0  0  0  0  0  0  0  0  0  0  0
   12.1130    1.6180   22.7770 N   0  0  0  0  0  0  0  0  0  0  0  0
   11.6850   -1.4590   22.0290 C   0  0  0  0  0  0  0  0  0  0  0  0
   12.9030   -0.9070   22.3880 C   0  0  0  0  0  0  0  0  0  0  0  0
   13.0000   -0.6830   23.7210 O   0  0  0  0  0  0  0  0  0  0  0  0
   12.1000   -1.5640   24.3560 C   0  0  0  0  0  0  0  0  0  0  0  0
   10.7860   -1.2460   23.9650 C   0  0  0  0  0  0  0  0  0  0  0  0
  1  2  2  0
  2  3  1  0
  3  4  1  0
  4  5  2  0
  5  6  1  0
  6  7  2  0
  7  8  1  0
  4  9  1  0
  8  9  2  0
  2 10  1  0
 11 10  1  0
 11 12  1  0
 12 13  2  0
 13 14  1  0
 14 15  2  0
 12 16  1  0
 15 16  1  0
 11 17  1  0
 17 18  1  0
 18 19  1  0
 19 20  1  0
 11 21  1  0
 20 21  1  0
M  END
