pyridine_urea_1475
     RDKit          3D

 19 21  0  0  0  0  0  0  0  0999 V2000
    8.5170    1.4420   21.0240 O   0  0  0  0  0  0  0  0  0  0  0  0
    8.3800    0.2610   21.3420 C   0  0  0  0  0  0  0  0  0  0  0  0
    7.2170   -0.4150   21.1180 N   0  0  0  0  0  0  0  0  0  0  0  0
    6.5610    0.1170   19.9700 C   0  0  0  0  0  0  0  0  0  0  0  0
    5.3080    0.9600   20.2430 C   0  0  0  0  0  0  0  0  0  0  0  0
    4.6220    1.5460   19.1900 C   0  0  0  0  0  0  0  0  0  0  0  0
    5.1200    1.3340   17.9070 C   0  0  0  0  0  0  0  0  0  0  0  0
    6.2330    0.5640   17.7090 N   0  0  0  0  0  0  0  0  0  0  0  0
    6.9710   -0.0570   18.7140 C   0  0  0  0  0  0  0  0  0  0  0  0
    9.3510   -0.4860   21.8960 N   0  0  0  0  0  0  0  0  0  0  0  0
   10.4100   -1.1090   22.3980 C   0  0  0  0  0  0  0  0  0  0  0  0
   11.4290   -1.5270   21.6140 C   0  0  0  0  0  0  0  0  0  0  0  0
   12.6180   -2.1100   21.5850 C   0  0  0  0  0  0  0  0  0  0  0  0
   12.7880   -2.3420   22.9020 C   0  0  0  0  0  0  0  0  0  0  0  0
   13.7930   -2.9160   23.6520 C   0  0  0  0  0  0  0  0  0  0  0  0
   13.5610   -2.9450   24.9520 N   0  0  0  0  0  0  0  0  0  0  0  0
   12.3600   -2.3760   24.9980 C   0  0  0  0  0  0  0  0  0  0  0  0
   11.8460   -2.0000   23.8740 N   0  0  0  0  0  0  0  0  0  0  0  0
   10.5930   -1.3760   23.7410 C   0  0  0  0  0  0  0  0  0  0  0  0
  1  2  2  0
  2  3  1  0
  3  4  1  0
  4  5  2  0
  5  6  1  0
  6  7  2  0
  7  8  1  0
  4  9  1  0
  8  9  2  0
  2 10  1  0
 10 11  1  0
 11 12  1  0
 12 13  2  0
 13 14  1  0
 14 15  2  0
 15 16  1  0
 16 17  2  0
 14 18  1  0
 17 18  1  0
 11 19  2  0
 18 19  1  0
M  END
