pyridine_urea_12188
     RDKit          3D

 22 24  0  0  0  0  0  0  0  0999 V2000
    8.9720    1.2540   21.2130 O   0  0  0  0  0  0  0  0  0  0  0  0
    8.4630    0.1550   21.4580 C   0  0  0  0  0  0  0  0  0  0  0  0
    9.0110   -0.8650   22.1800 N   0  0  0  0  0  0  0  0  0  0  0  0
    8.6590   -2.2010   21.9210 C   0  0  0  0  0  0  0  0  0  0  0  0
    7.6700   -2.7780   22.7260 C   0  0  0  0  0  0  0  0  0  0  0  0
    7.3320   -1.9790   23.8110 C   0  0  0  0  0  0  0  0  0  0  0  0
    8.4900   -1.8220   24.5270 C   0  0  0  0  0  0  0  0  0  0  0  0
    9.3780   -2.8210   24.4640 N   0  0  0  0  0  0  0  0  0  0  0  0
   10.7010   -2.4630   24.4430 C   0  0  0  0  0  0  0  0  0  0  0  0
   11.6730   -3.2600   24.9810 N   0  0  0  0  0  0  0  0  0  0  0  0
   12.9020   -2.7060   24.8430 N   0  0  0  0  0  0  0  0  0  0  0  0
   12.6740   -1.5100   24.1890 C   0  0  0  0  0  0  0  0  0  0  0  0
   11.3190   -1.3350   23.9280 N   0  0  0  0  0  0  0  0  0  0  0  0
    9.0850   -4.0920   24.0560 C   0  0  0  0  0  0  0  0  0  0  0  0
    8.1010   -4.0910   23.0510 C   0  0  0  0  0  0  0  0  0  0  0  0
    7.2230   -0.2720   21.0450 N   0  0  0  0  0  0  0  0  0  0  0  0
    6.4470    0.3270   20.0550 C   0  0  0  0  0  0  0  0  0  0  0  0
    5.2950    1.0710   20.2710 C   0  0  0  0  0  0  0  0  0  0  0  0
    4.6810    1.5970   19.1510 C   0  0  0  0  0  0  0  0  0  0  0  0
    5.1530    1.4150   17.8660 C   0  0  0  0  0  0  0  0  0  0  0  0
    6.2540    0.6920   17.6380 N   0  0  0  0  0  0  0  0  0  0  0  0
    6.8440    0.1840   18.7340 C   0  0  0  0  0  0  0  0  0  0  0  0
  1  2  2  0
  2  3  1  0
  3  4  1  0
  4  5  1  0
  5  6  1  0
  6  7  1  0
  7  8  1  0
  8  9  1  0
  9 10  2  0
 10 11  1  0
 11 12  2  0
  9 13  1  0
 12 13  1  0
  8 14  1  0
  5 15  1  0
 14 15  1  0
  2 16  1  0
 16 17  1  0
 17 18  2  0
 18 19  1  0
 19 20  2  0
 20 21  1  0
 17 22  1  0
 21 22  2  0
M  END
