pyridine_urea_14100
     RDKit          3D

 23 24  0  0  0  0  0  0  0  0999 V2000
   13.5110    0.0220   22.6840 C   0  0  0  0  0  0  0  0  0  0  0  0
   13.0580   -0.9490   23.1640 C   0  0  0  0  0  0  0  0  0  0  0  0
   12.0450   -1.9530   23.5970 C   0  0  0  0  0  0  0  0  0  0  0  0
   10.7390   -1.2680   23.6190 C   0  0  0  0  0  0  0  0  0  0  0  0
   10.2930   -0.8360   22.4110 C   0  0  1  0  0  0  0  0  0  0  0  0
    8.9180   -1.1910   22.1870 N   0  0  0  0  0  0  0  0  0  0  0  0
    8.2230   -0.3140   21.3870 C   0  0  0  0  0  0  0  0  0  0  0  0
    8.6680    0.7870   21.1020 O   0  0  0  0  0  0  0  0  0  0  0  0
    7.0180   -0.7840   20.9470 N   0  0  0  0  0  0  0  0  0  0  0  0
    6.2550   -0.0450   20.0340 C   0  0  0  0  0  0  0  0  0  0  0  0
    5.0710    0.5430   20.3830 C   0  0  0  0  0  0  0  0  0  0  0  0
    4.5640    1.2600   19.1480 C   0  0  0  0  0  0  0  0  0  0  0  0
    5.2060    1.2840   17.9360 C   0  0  0  0  0  0  0  0  0  0  0  0
    6.3460    0.6740   17.7080 N   0  0  0  0  0  0  0  0  0  0  0  0
    6.8330    0.0290   18.7650 C   0  0  0  0  0  0  0  0  0  0  0  0
   10.4350    0.6860   22.7800 C   0  0  0  0  0  0  0  0  0  0  0  0
    9.1700    1.3610   22.9950 C   0  0  0  0  0  0  0  0  0  0  0  0
   10.1240    2.6370   23.2010 C   0  0  0  0  0  0  0  0  0  0  0  0
   11.7300    2.8340   23.1620 C   0  0  0  0  0  0  0  0  0  0  0  0
   12.1400    4.1830   23.3980 O   0  0  0  0  0  0  0  0  0  0  0  0
   11.2770    4.9070   24.2840 C   0  0  0  0  0  0  0  0  0  0  0  0
   12.6410    1.5910   22.8860 C   0  0  0  0  0  0  0  0  0  0  0  0
   11.3770    1.5310   22.9290 C   0  0  0  0  0  0  0  0  0  0  0  0
  1  2  1  0
  2  3  1  0
  3  4  1  0
  5  4  1  1
  5  6  1  0
  6  7  1  0
  7  8  2  0
  7  9  1  0
  9 10  1  0
 10 11  2  0
 11 12  1  0
 12 13  2  0
 13 14  1  0
 10 15  1  0
 14 15  2  0
  5 16  1  0
 16 17  2  0
 17 18  1  0
 18 19  2  0
 19 20  1  0
 20 21  1  0
 19 22  1  0
 16 23  1  0
 22 23  2  0
M  END
