pyridine_urea_7937
     RDKit          3D

 25 27  0  0  0  0  0  0  0  0999 V2000
   13.4890   -1.6500   25.6650 C   0  0  0  0  0  0  0  0  0  0  0  0
   12.4790   -1.2040   24.7050 C   0  0  0  0  0  0  0  0  0  0  0  0
   11.1730   -0.7450   25.0160 C   0  0  0  0  0  0  0  0  0  0  0  0
   10.1640   -0.3910   24.1000 C   0  0  0  0  0  0  0  0  0  0  0  0
   10.5510   -0.5300   22.7890 C   0  0  0  0  0  0  0  0  0  0  0  0
    9.6720   -0.3000   21.6530 N   0  0  0  0  0  0  0  0  0  0  0  0
    8.6440    0.5240   21.3880 C   0  0  0  0  0  0  0  0  0  0  0  0
    8.8680    1.7260   21.2840 O   0  0  0  0  0  0  0  0  0  0  0  0
    7.3660   -0.1740   21.1790 N   0  0  0  0  0  0  0  0  0  0  0  0
    6.5740    0.2970   20.1650 C   0  0  0  0  0  0  0  0  0  0  0  0
    5.2860    1.0800   20.3190 C   0  0  0  0  0  0  0  0  0  0  0  0
    4.6270    1.5080   19.1910 C   0  0  0  0  0  0  0  0  0  0  0  0
    5.1450    1.2170   17.9490 C   0  0  0  0  0  0  0  0  0  0  0  0
    6.2720    0.5150   17.7330 N   0  0  0  0  0  0  0  0  0  0  0  0
    6.9550    0.0720   18.8320 C   0  0  0  0  0  0  0  0  0  0  0  0
   11.9510   -0.9650   22.4990 C   0  0  0  0  0  0  0  0  0  0  0  0
   12.2870   -1.0540   21.4640 O   0  0  0  0  0  0  0  0  0  0  0  0
   13.3800   -1.8440   21.3280 C   0  0  0  0  0  0  0  0  0  0  0  0
   12.9160   -3.0050   20.9780 C   0  0  0  0  0  0  0  0  0  0  0  0
   13.6030   -4.1190   20.7320 C   0  0  0  0  0  0  0  0  0  0  0  0
   12.9230   -5.1910   20.3810 C   0  0  0  0  0  0  0  0  0  0  0  0
   11.5440   -5.1840   20.2230 C   0  0  0  0  0  0  0  0  0  0  0  0
   10.8770   -4.0490   20.4850 C   0  0  0  0  0  0  0  0  0  0  0  0
   11.5750   -2.9580   20.8820 C   0  0  0  0  0  0  0  0  0  0  0  0
   12.9140   -1.3050   23.4980 C   0  0  0  0  0  0  0  0  0  0  0  0
  1  2  1  0
  2  3  2  0
  3  4  1  0
  4  5  2  0
  5  6  1  0
  6  7  1  0
  7  8  2  0
  7  9  1  0
  9 10  1  0
 10 11  2  0
 11 12  1  0
 12 13  2  0
 13 14  1  0
 10 15  1  0
 14 15  2  0
  5 16  1  0
 16 17  1  0
 17 18  1  0
 18 19  1  0
 19 20  2  0
 20 21  1  0
 21 22  2  0
 22 23  1  0
 19 24  1  0
 23 24  2  0
  2 25  1  0
 16 25  2  0
M  END
