pyridine_urea_14745
     RDKit          3D

 20 22  0  0  0  0  0  0  0  0999 V2000
    8.1120    0.9680   22.4060 O   0  0  0  0  0  0  0  0  0  0  0  0
    7.2510    0.2780   21.8860 C   0  0  0  0  0  0  0  0  0  0  0  0
    8.1850   -0.0570   20.9630 N   0  0  0  0  0  0  0  0  0  0  0  0
    9.4920   -0.0540   21.3500 C   0  0  0  0  0  0  0  0  0  0  0  0
    9.6750   -0.4710   22.4740 C   0  0  0  0  0  0  0  0  0  0  0  0
   11.0780    0.1270   22.6720 C   0  0  0  0  0  0  0  0  0  0  0  0
   11.2330   -0.3460   23.9140 C   0  0  0  0  0  0  0  0  0  0  0  0
   10.0680   -0.6100   23.2170 C   0  0  0  0  0  0  0  0  0  0  0  0
    8.6520   -1.2430   23.0800 C   0  0  0  0  0  0  0  0  0  0  0  0
    8.1730   -1.9430   24.1460 C   0  0  0  0  0  0  0  0  0  0  0  0
    9.1990   -1.8190   25.0090 C   0  0  0  0  0  0  0  0  0  0  0  0
   10.1650   -1.0390   24.3070 C   0  0  0  0  0  0  0  0  0  0  0  0
   10.2400   -0.5630   23.3060 O   0  0  0  0  0  0  0  0  0  0  0  0
    6.6280   -0.5560   21.0200 N   0  0  0  0  0  0  0  0  0  0  0  0
    6.0760    0.0990   19.9440 C   0  0  0  0  0  0  0  0  0  0  0  0
    4.8060    0.8460   20.0290 C   0  0  0  0  0  0  0  0  0  0  0  0
    4.4050    1.4850   18.8750 C   0  0  0  0  0  0  0  0  0  0  0  0
    5.1560    1.4190   17.7160 C   0  0  0  0  0  0  0  0  0  0  0  0
    6.3070    0.7270   17.6270 N   0  0  0  0  0  0  0  0  0  0  0  0
    6.7380    0.0900   18.7310 C   0  0  0  0  0  0  0  0  0  0  0  0
  1  2  2  0
  2  3  1  0
  3  4  1  0
  4  5  1  0
  5  6  2  0
  6  7  1  0
  7  8  2  0
  8  9  1  0
  9 10  2  0
 10 11  1  0
  7 12  1  0
 11 12  2  0
  5 13  1  0
 12 13  1  0
  2 14  1  0
 14 15  1  0
 15 16  2  0
 16 17  1  0
 17 18  2  0
 18 19  1  0
 15 20  1  0
 19 20  2  0
M  END
