pyridine_urea_2989
     RDKit          3D

 21 21  0  0  0  0  0  0  0  0999 V2000
    8.1400   -3.5770   23.4140 C   0  0  0  0  0  0  0  0  0  0  0  0
    8.6420   -2.1830   23.7700 C   0  0  0  0  0  0  0  0  0  0  0  0
   10.0140   -1.9940   23.3630 O   0  0  0  0  0  0  0  0  0  0  0  0
   10.5910   -0.8320   23.8010 C   0  0  0  0  0  0  0  0  0  0  0  0
   10.3820   -1.4450   25.0390 O   0  0  0  0  0  0  0  0  0  0  0  0
   10.5510   -0.8590   22.4330 C   0  0  1  0  0  0  0  0  0  0  0  0
   11.8500   -1.5340   21.9890 C   0  0  0  0  0  0  0  0  0  0  0  0
   12.9990   -0.8260   22.3730 C   0  0  0  0  0  0  0  0  0  0  0  0
   12.6980    0.4320   23.1990 C   0  0  0  0  0  0  0  0  0  0  0  0
   13.1100    1.5070   22.7920 O   0  0  0  0  0  0  0  0  0  0  0  0
   12.0780    2.5160   22.7070 C   0  0  0  0  0  0  0  0  0  0  0  0
    9.3330   -1.1940   21.8290 N   0  0  0  0  0  0  0  0  0  0  0  0
    8.5060   -0.1730   21.4260 C   0  0  0  0  0  0  0  0  0  0  0  0
    8.8860    0.9930   21.3790 O   0  0  0  0  0  0  0  0  0  0  0  0
    7.2290   -0.6230   21.0620 N   0  0  0  0  0  0  0  0  0  0  0  0
    6.5460   -0.0070   20.0480 C   0  0  0  0  0  0  0  0  0  0  0  0
    5.2580    0.7670   20.3310 C   0  0  0  0  0  0  0  0  0  0  0  0
    4.5500    1.4600   19.1760 C   0  0  0  0  0  0  0  0  0  0  0  0
    5.1260    1.3470   17.9180 C   0  0  0  0  0  0  0  0  0  0  0  0
    6.2750    0.6340   17.7280 N   0  0  0  0  0  0  0  0  0  0  0  0
    6.9640   -0.0230   18.7380 C   0  0  0  0  0  0  0  0  0  0  0  0
  1  2  1  0
  2  3  1  0
  3  4  1  0
  4  5  2  0
  4  6  1  0
  6  7  1  1
  7  8  1  0
  8  9  1  0
  9 10  1  0
 10 11  1  0
  6 12  1  0
 12 13  1  0
 13 14  2  0
 13 15  1  0
 15 16  1  0
 16 17  2  0
 17 18  1  0
 18 19  2  0
 19 20  1  0
 16 21  1  0
 20 21  2  0
M  END
