pyridine_urea_2874
     RDKit          3D

 22 24  0  0  0  0  0  0  0  0999 V2000
    8.9340    0.8070   21.3520 O   0  0  0  0  0  0  0  0  0  0  0  0
    8.2990   -0.1900   21.6670 C   0  0  0  0  0  0  0  0  0  0  0  0
    8.6560   -1.0050   22.7290 N   0  0  0  0  0  0  0  0  0  0  0  0
    9.3180   -0.4640   23.9220 C   0  0  0  0  0  0  0  0  0  0  0  0
    9.7210    1.0560   23.8480 C   0  0  0  0  0  0  0  0  0  0  0  0
    9.0390    2.2330   24.1500 C   0  0  0  0  0  0  0  0  0  0  0  0
    9.9120    3.3750   23.8720 N   0  0  0  0  0  0  0  0  0  0  0  0
   11.1200    2.9040   23.4130 N   0  0  0  0  0  0  0  0  0  0  0  0
   11.0940    1.4930   23.3630 C   0  0  0  0  0  0  0  0  0  0  0  0
   12.0090    0.5560   22.9660 C   0  0  0  0  0  0  0  0  0  0  0  0
   13.3200    0.2900   22.7930 C   0  0  0  0  0  0  0  0  0  0  0  0
   13.3300   -1.2020   22.2300 C   0  0  0  0  0  0  0  0  0  0  0  0
   12.1110   -2.2890   21.8720 C   0  0  0  0  0  0  0  0  0  0  0  0
   10.8100   -1.4570   22.2390 C   0  0  0  0  0  0  0  0  0  0  0  0
   11.9490   -0.7720   22.4600 C   0  0  0  0  0  0  0  0  0  0  0  0
    7.1570   -0.6440   21.0440 N   0  0  0  0  0  0  0  0  0  0  0  0
    6.4460    0.0180   20.0970 C   0  0  0  0  0  0  0  0  0  0  0  0
    5.2680    0.7380   20.3300 C   0  0  0  0  0  0  0  0  0  0  0  0
    4.6600    1.3770   19.2480 C   0  0  0  0  0  0  0  0  0  0  0  0
    5.2330    1.2790   18.0000 C   0  0  0  0  0  0  0  0  0  0  0  0
    6.3540    0.5980   17.7380 N   0  0  0  0  0  0  0  0  0  0  0  0
    6.9280   -0.0170   18.7940 C   0  0  0  0  0  0  0  0  0  0  0  0
  1  2  2  0
  2  3  1  0
  3  4  1  0
  4  5  1  0
  5  6  2  0
  6  7  1  0
  7  8  1  0
  5  9  1  0
  8  9  2  0
  9 10  1  0
 10 11  2  0
 11 12  1  0
 12 13  2  0
 13 14  1  0
 10 15  1  0
 14 15  2  0
  2 16  1  0
 16 17  1  0
 17 18  2  0
 18 19  1  0
 19 20  2  0
 20 21  1  0
 17 22  1  0
 21 22  2  0
M  END
