pyridine_urea_11853
     RDKit          3D

 25 26  0  0  0  0  0  0  0  0999 V2000
   16.2880    4.6700   24.4660 C   0  0  0  0  0  0  0  0  0  0  0  0
   14.4260    4.7570   23.7230 C   0  0  0  0  0  0  0  0  0  0  0  0
   13.6550    3.9410   22.7960 C   0  0  0  0  0  0  0  0  0  0  0  0
   12.3230    3.7740   23.0940 N   0  0  0  0  0  0  0  0  0  0  0  0
   11.5210    4.8170   23.4920 C   0  0  0  0  0  0  0  0  0  0  0  0
   11.8970    5.9180   22.7460 C   0  0  0  0  0  0  0  0  0  0  0  0
   12.9100    5.7490   21.8240 C   0  0  0  0  0  0  0  0  0  0  0  0
   12.0990    2.4920   23.4570 C   0  0  0  0  0  0  0  0  0  0  0  0
   12.9360    1.8240   23.8780 O   0  0  0  0  0  0  0  0  0  0  0  0
   10.9960    1.5710   23.3490 C   0  0  0  0  0  0  0  0  0  0  0  0
   10.1260    1.7030   22.3370 C   0  0  0  0  0  0  0  0  0  0  0  0
    9.1560    0.7790   22.2020 C   0  0  0  0  0  0  0  0  0  0  0  0
    9.0270   -0.2540   23.0670 C   0  0  0  0  0  0  0  0  0  0  0  0
    8.0300   -1.0640   22.7440 N   0  0  0  0  0  0  0  0  0  0  0  0
    7.6900   -0.9520   21.3940 C   0  0  0  0  0  0  0  0  0  0  0  0
    8.5700   -0.7520   20.6100 O   0  0  0  0  0  0  0  0  0  0  0  0
    6.3990   -1.0370   21.1040 N   0  0  0  0  0  0  0  0  0  0  0  0
    5.9900   -0.2390   20.0780 C   0  0  0  0  0  0  0  0  0  0  0  0
    4.8500    0.5850   20.1430 C   0  0  0  0  0  0  0  0  0  0  0  0
    4.4860    1.3760   19.0480 C   0  0  0  0  0  0  0  0  0  0  0  0
    5.2450    1.3520   17.9000 C   0  0  0  0  0  0  0  0  0  0  0  0
    6.3490    0.5750   17.7990 N   0  0  0  0  0  0  0  0  0  0  0  0
    6.7260   -0.2210   18.8860 C   0  0  0  0  0  0  0  0  0  0  0  0
    9.8600   -0.4080   24.1320 C   0  0  0  0  0  0  0  0  0  0  0  0
   10.8640    0.5180   24.2650 C   0  0  0  0  0  0  0  0  0  0  0  0
  1  2  1  0
  2  3  1  0
  3  4  1  0
  4  5  1  0
  5  6  1  0
  6  7  1  0
  4  8  1  0
  8  9  2  0
  8 10  1  0
 10 11  2  0
 11 12  1  0
 12 13  2  0
 13 14  1  0
 14 15  1  0
 15 16  2  0
 15 17  1  0
 17 18  1  0
 18 19  2  0
 19 20  1  0
 20 21  2  0
 21 22  1  0
 18 23  1  0
 22 23  2  0
 13 24  1  0
 10 25  1  0
 24 25  2  0
M  END
