pyridine_urea_14403
     RDKit          3D

 23 24  0  0  0  0  0  0  0  0999 V2000
    8.2910    2.8200   27.9260 C   0  0  0  0  0  0  0  0  0  0  0  0
    7.5530    1.5130   27.8500 C   0  0  0  0  0  0  0  0  0  0  0  0
    6.4410    1.5680   27.3230 O   0  0  0  0  0  0  0  0  0  0  0  0
    8.2230    0.3460   28.4090 N   0  0  0  0  0  0  0  0  0  0  0  0
    8.0570   -0.9110   27.8530 C   0  0  0  0  0  0  0  0  0  0  0  0
    7.7190   -1.9630   28.6770 C   0  0  0  0  0  0  0  0  0  0  0  0
    7.5630   -3.2170   28.0700 C   0  0  0  0  0  0  0  0  0  0  0  0
    7.7650   -3.3510   26.5700 C   0  0  0  0  0  0  0  0  0  0  0  0
    8.1400   -2.1430   25.6880 C   0  0  0  0  0  0  0  0  0  0  0  0
    8.3430   -2.1620   24.3390 O   0  0  0  0  0  0  0  0  0  0  0  0
    9.2200   -1.1600   23.8230 C   0  0  0  0  0  0  0  0  0  0  0  0
    9.8850   -1.6030   22.6890 C   0  0  0  0  0  0  0  0  0  0  0  0
    9.2560   -1.2600   21.5250 N   0  0  0  0  0  0  0  0  0  0  0  0
    8.3550   -0.2070   21.3330 C   0  0  0  0  0  0  0  0  0  0  0  0
    8.7510    0.9510   21.3460 O   0  0  0  0  0  0  0  0  0  0  0  0
    7.0750   -0.5840   21.1180 N   0  0  0  0  0  0  0  0  0  0  0  0
    6.4630    0.0300   20.0810 C   0  0  0  0  0  0  0  0  0  0  0  0
    5.3040    0.7540   20.3300 C   0  0  0  0  0  0  0  0  0  0  0  0
    4.6760    1.3970   19.2730 C   0  0  0  0  0  0  0  0  0  0  0  0
    5.2160    1.3020   18.0030 C   0  0  0  0  0  0  0  0  0  0  0  0
    6.3270    0.6050   17.7420 N   0  0  0  0  0  0  0  0  0  0  0  0
    6.9270   -0.0170   18.7770 C   0  0  0  0  0  0  0  0  0  0  0  0
    8.2860   -0.9220   26.3350 C   0  0  0  0  0  0  0  0  0  0  0  0
  1  2  1  0
  2  3  2  0
  2  4  1  0
  4  5  1  0
  5  6  2  0
  6  7  1  0
  7  8  2  0
  8  9  1  0
  9 10  1  0
 10 11  1  0
 11 12  1  0
 12 13  1  0
 13 14  1  0
 14 15  2  0
 14 16  1  0
 16 17  1  0
 17 18  2  0
 18 19  1  0
 19 20  2  0
 20 21  1  0
 17 22  1  0
 21 22  2  0
  5 23  1  0
  9 23  2  0
M  END
