pyridine_urea_11031
     RDKit          3D

 19 20  0  0  0  0  0  0  0  0999 V2000
   13.1380   -2.6250   21.6460 C   0  0  0  0  0  0  0  0  0  0  0  0
   13.6690   -2.8870   23.0400 C   0  0  0  0  0  0  0  0  0  0  0  0
   13.1130   -2.3150   24.1220 C   0  0  0  0  0  0  0  0  0  0  0  0
   12.7420   -1.1560   23.3490 N   0  0  0  0  0  0  0  0  0  0  0  0
   12.5430   -1.2870   22.0930 C   0  0  0  0  0  0  0  0  0  0  0  0
   11.1910   -1.6390   21.9270 C   0  0  0  0  0  0  0  0  0  0  0  0
   10.1830   -0.5550   22.2050 C   0  0  0  0  0  0  0  0  0  0  0  0
    8.9050   -1.0490   22.2380 N   0  0  0  0  0  0  0  0  0  0  0  0
    8.0280   -0.8440   21.1660 C   0  0  0  0  0  0  0  0  0  0  0  0
    8.3270   -1.1240   20.0740 O   0  0  0  0  0  0  0  0  0  0  0  0
    6.8440   -0.3080   21.4230 N   0  0  0  0  0  0  0  0  0  0  0  0
    6.2730    0.2420   20.3080 C   0  0  0  0  0  0  0  0  0  0  0  0
    5.1130    1.0040   20.3010 C   0  0  0  0  0  0  0  0  0  0  0  0
    4.5410    1.5740   19.1620 C   0  0  0  0  0  0  0  0  0  0  0  0
    5.1420    1.3920   17.9310 C   0  0  0  0  0  0  0  0  0  0  0  0
    6.3080    0.6250   17.8830 N   0  0  0  0  0  0  0  0  0  0  0  0
    6.8600    0.0600   19.0380 C   0  0  0  0  0  0  0  0  0  0  0  0
   10.5910    0.0130   23.4870 C   0  0  0  0  0  0  0  0  0  0  0  0
   11.8640   -0.3690   23.9050 C   0  0  0  0  0  0  0  0  0  0  0  0
  1  2  2  3
  2  3  1  0
  3  4  1  0
  4  5  1  0
  5  6  1  0
  6  7  1  0
  7  8  1  0
  8  9  1  0
  9 10  2  0
  9 11  1  0
 11 12  1  0
 12 13  2  0
 13 14  1  0
 14 15  2  0
 15 16  1  0
 12 17  1  0
 16 17  2  0
  7 18  1  0
  4 19  1  0
 18 19  1  0
M  END
