pyridine_urea_4277
     RDKit          3D

 24 26  0  0  0  0  0  0  0  0999 V2000
    9.0360    1.2880   21.2410 O   0  0  0  0  0  0  0  0  0  0  0  0
    8.7500    0.1020   21.4550 C   0  0  0  0  0  0  0  0  0  0  0  0
    9.5780   -0.7920   22.1720 N   0  0  0  0  0  0  0  0  0  0  0  0
   10.2420   -0.4270   23.4660 C   0  0  0  0  0  0  0  0  0  0  0  0
   11.7770   -0.6370   23.5120 C   0  0  0  0  0  0  0  0  0  0  0  0
   12.4650   -0.9030   22.0740 C   0  0  0  0  0  0  0  0  0  0  0  0
   12.7700   -0.7710   23.3460 C   0  0  0  0  0  0  0  0  0  0  0  0
   11.3050   -0.5660   23.8720 C   0  0  0  0  0  0  0  0  0  0  0  0
    9.9290   -0.5290   23.2220 C   0  0  0  0  0  0  0  0  0  0  0  0
    9.0410   -1.1130   24.2810 N   0  0  0  0  0  0  0  0  0  0  0  0
    8.9050   -2.4920   24.4990 C   0  0  0  0  0  0  0  0  0  0  0  0
    7.6840   -2.8110   25.0550 C   0  0  0  0  0  0  0  0  0  0  0  0
    6.9640   -1.6240   25.0410 C   0  0  1  0  0  0  0  0  0  0  0  0
    6.4450   -1.3070   26.2620 O   0  0  0  0  0  0  0  0  0  0  0  0
    7.7610   -0.5560   24.5710 C   0  0  0  0  0  0  0  0  0  0  0  0
   11.4550   -0.4360   25.0910 C   0  0  0  0  0  0  0  0  0  0  0  0
   12.8300   -0.6090   24.9310 C   0  0  0  0  0  0  0  0  0  0  0  0
    7.5600   -0.4710   20.9950 N   0  0  0  0  0  0  0  0  0  0  0  0
    6.7090    0.1010   20.1030 C   0  0  0  0  0  0  0  0  0  0  0  0
    5.4760    0.8840   20.4260 C   0  0  0  0  0  0  0  0  0  0  0  0
    4.7240    1.4190   19.3830 C   0  0  0  0  0  0  0  0  0  0  0  0
    5.1510    1.2030   18.0900 C   0  0  0  0  0  0  0  0  0  0  0  0
    6.2480    0.4970   17.7660 N   0  0  0  0  0  0  0  0  0  0  0  0
    6.9880   -0.0300   18.7620 C   0  0  0  0  0  0  0  0  0  0  0  0
  1  2  2  0
  2  3  1  0
  3  4  1  0
  4  5  1  0
  5  6  2  0
  6  7  1  0
  7  8  2  0
  8  9  1  0
  9 10  1  0
 10 11  1  0
 11 12  1  0
 12 13  1  0
 13 14  1  1
 10 15  1  0
 13 15  1  0
  8 16  1  0
  5 17  1  0
 16 17  2  0
  2 18  1  0
 18 19  1  0
 19 20  2  0
 20 21  1  0
 21 22  2  0
 22 23  1  0
 19 24  1  0
 23 24  2  0
M  END
