pyridine_urea_3907
     RDKit          3D

 22 24  0  0  0  0  0  0  0  0999 V2000
   11.1160    0.4560   23.2880 C   0  0  0  0  0  0  0  0  0  0  0  0
   10.7740   -0.9660   23.6900 C   0  0  0  0  0  0  0  0  0  0  0  0
   11.4350   -1.7180   24.6840 C   0  0  0  0  0  0  0  0  0  0  0  0
    9.1880   -1.1240   23.4580 C   0  0  1  0  0  0  0  0  0  0  0  0
    8.4870    0.0190   23.0280 N   0  0  0  0  0  0  0  0  0  0  0  0
    8.2570    0.3990   21.7000 C   0  0  0  0  0  0  0  0  0  0  0  0
    8.8520    1.3490   21.1780 O   0  0  0  0  0  0  0  0  0  0  0  0
    7.3160   -0.4020   21.1350 N   0  0  0  0  0  0  0  0  0  0  0  0
    6.6120    0.1400   20.1120 C   0  0  0  0  0  0  0  0  0  0  0  0
    5.4680    0.8720   20.4190 C   0  0  0  0  0  0  0  0  0  0  0  0
    4.6790    1.5010   19.2590 C   0  0  0  0  0  0  0  0  0  0  0  0
    5.1680    1.2900   17.9970 C   0  0  0  0  0  0  0  0  0  0  0  0
    6.2700    0.5680   17.7420 N   0  0  0  0  0  0  0  0  0  0  0  0
    6.9530    0.0190   18.7760 C   0  0  0  0  0  0  0  0  0  0  0  0
    9.5050   -1.9680   22.4520 C   0  0  0  0  0  0  0  0  0  0  0  0
   10.7570   -1.8590   22.7030 C   0  0  1  0  0  0  0  0  0  0  0  0
   11.5520   -1.3020   21.9720 N   0  0  0  0  0  0  0  0  0  0  0  0
   12.0780   -2.1990   21.2550 C   0  0  0  0  0  0  0  0  0  0  0  0
   13.4450   -2.3480   21.3420 C   0  0  0  0  0  0  0  0  0  0  0  0
   13.9050   -1.0260   21.1450 O   0  0  0  0  0  0  0  0  0  0  0  0
   13.4070   -0.2440   22.2310 C   0  0  0  0  0  0  0  0  0  0  0  0
   12.4900   -0.9440   22.8570 C   0  0  0  0  0  0  0  0  0  0  0  0
  2  1  1  0
  2  3  1  0
  2  4  1  0
  4  5  1  6
  5  6  1  0
  6  7  2  0
  6  8  1  0
  8  9  1  0
  9 10  2  0
 10 11  1  0
 11 12  2  0
 12 13  1  0
  9 14  1  0
 13 14  2  0
  4 15  1  0
  2 16  1  0
 15 16  1  0
 16 17  1  6
 17 18  1  0
 18 19  1  0
 19 20  1  0
 20 21  1  0
 17 22  1  0
 21 22  1  0
M  END
