pyridine_urea_14076
     RDKit          3D

 23 24  0  0  0  0  0  0  0  0999 V2000
   12.0790   -0.2430   24.7480 C   0  0  0  0  0  0  0  0  0  0  0  0
   10.8720   -0.2840   24.8640 C   0  0  0  0  0  0  0  0  0  0  0  0
   10.2070   -0.2330   26.1800 N   0  0  0  0  0  0  0  0  0  0  0  0
    8.9310   -0.3010   25.7690 N   0  0  0  0  0  0  0  0  0  0  0  0
    8.0250   -0.2650   26.8130 C   0  0  0  0  0  0  0  0  0  0  0  0
    8.8060   -0.3900   24.4240 C   0  0  0  0  0  0  0  0  0  0  0  0
    7.5770   -0.4740   23.7990 C   0  0  0  0  0  0  0  0  0  0  0  0
   10.0680   -0.3830   23.7760 C   0  0  0  0  0  0  0  0  0  0  0  0
   10.4830   -0.4520   22.3840 C   0  0  2  0  0  0  0  0  0  0  0  0
    9.4540   -0.8330   21.5630 N   0  0  0  0  0  0  0  0  0  0  0  0
    8.4210    0.0490   21.2240 C   0  0  0  0  0  0  0  0  0  0  0  0
    8.6660    1.4470   21.0570 O   0  0  0  0  0  0  0  0  0  0  0  0
    7.2270   -0.5640   21.0410 N   0  0  0  0  0  0  0  0  0  0  0  0
    6.5260    0.0410   20.0700 C   0  0  0  0  0  0  0  0  0  0  0  0
    5.3610    0.7660   20.2990 C   0  0  0  0  0  0  0  0  0  0  0  0
    4.6580    1.4010   19.2870 C   0  0  0  0  0  0  0  0  0  0  0  0
    5.1560    1.2920   18.0140 C   0  0  0  0  0  0  0  0  0  0  0  0
    6.2650    0.6030   17.7070 N   0  0  0  0  0  0  0  0  0  0  0  0
    6.9080    0.0040   18.7410 C   0  0  0  0  0  0  0  0  0  0  0  0
   11.6810   -1.4650   22.4160 C   0  0  0  0  0  0  0  0  0  0  0  0
   11.7960   -2.1350   21.2730 F   0  0  0  0  0  0  0  0  0  0  0  0
   12.8870   -0.8700   22.5910 F   0  0  0  0  0  0  0  0  0  0  0  0
   11.5310   -2.3840   23.3960 F   0  0  0  0  0  0  0  0  0  0  0  0
  1  2  1  0
  2  3  2  0
  3  4  1  0
  4  5  1  0
  4  6  1  0
  6  7  1  0
  2  8  1  0
  6  8  2  0
  8  9  1  0
  9 10  1  6
 10 11  1  0
 11 12  2  0
 11 13  1  0
 13 14  1  0
 14 15  2  0
 15 16  1  0
 16 17  2  0
 17 18  1  0
 14 19  1  0
 18 19  2  0
  9 20  1  0
 20 21  1  0
 20 22  1  0
 20 23  1  0
M  END
