pyridine_urea_3532
     RDKit          3D

 18 19  0  0  0  0  0  0  0  0999 V2000
    8.7730    0.7300   21.3140 O   0  0  0  0  0  0  0  0  0  0  0  0
    8.2870   -0.3530   21.6150 C   0  0  0  0  0  0  0  0  0  0  0  0
    7.1280   -0.8650   21.0660 N   0  0  0  0  0  0  0  0  0  0  0  0
    6.4800   -0.1130   20.0260 C   0  0  0  0  0  0  0  0  0  0  0  0
    5.2090    0.6490   20.3900 C   0  0  0  0  0  0  0  0  0  0  0  0
    4.5250    1.4520   19.2830 C   0  0  0  0  0  0  0  0  0  0  0  0
    5.2070    1.3990   17.9150 C   0  0  0  0  0  0  0  0  0  0  0  0
    6.3750    0.6450   17.7490 N   0  0  0  0  0  0  0  0  0  0  0  0
    6.9720   -0.0710   18.7450 C   0  0  0  0  0  0  0  0  0  0  0  0
    8.8200   -1.2190   22.5590 N   0  0  0  0  0  0  0  0  0  0  0  0
   10.1000   -0.9990   23.1030 C   0  0  1  0  0  0  0  0  0  0  0  0
   11.0770   -0.6270   22.2130 C   0  0  0  0  0  0  0  0  0  0  0  0
   12.3870   -0.8870   22.5880 C   0  0  0  0  0  0  0  0  0  0  0  0
   12.6640   -0.0610   23.6360 C   0  0  0  0  0  0  0  0  0  0  0  0
   12.1740   -0.5840   24.8230 C   0  0  0  0  0  0  0  0  0  0  0  0
   10.9020   -0.3620   25.1850 N   0  0  0  0  0  0  0  0  0  0  0  0
   10.0640   -0.0980   24.1770 C   0  0  0  0  0  0  0  0  0  0  0  0
    9.3220    0.8800   24.2140 O   0  0  0  0  0  0  0  0  0  0  0  0
  1  2  2  0
  2  3  1  0
  3  4  1  0
  4  5  2  0
  5  6  1  0
  6  7  2  0
  7  8  1  0
  4  9  1  0
  8  9  2  0
  2 10  1  0
 11 10  1  6
 11 12  1  0
 12 13  1  0
 13 14  1  0
 14 15  1  0
 15 16  1  0
 11 17  1  0
 16 17  1  0
 17 18  2  0
M  END
