pyridine_urea_7358
     RDKit          3D

 17 18  0  0  0  0  0  0  0  0999 V2000
    9.5440   -5.4650   26.6240 C   0  0  0  0  0  0  0  0  0  0  0  0
    9.8830   -4.2330   25.7790 C   0  0  0  0  0  0  0  0  0  0  0  0
    8.7320   -3.7860   24.9960 N   0  0  0  0  0  0  0  0  0  0  0  0
    7.4920   -3.9230   25.5260 C   0  0  0  0  0  0  0  0  0  0  0  0
    7.3510   -2.6120   25.2240 C   0  0  0  0  0  0  0  0  0  0  0  0
    8.6180   -2.4300   24.6420 C   0  0  2  0  0  0  0  0  0  0  0  0
    8.8050   -2.2180   23.2700 C   0  0  0  0  0  0  0  0  0  0  0  0
    8.6460   -0.7870   22.9560 N   0  0  0  0  0  0  0  0  0  0  0  0
    8.3770   -0.1920   21.7360 C   0  0  0  0  0  0  0  0  0  0  0  0
    9.0730    0.6980   21.2860 O   0  0  0  0  0  0  0  0  0  0  0  0
    7.2390   -0.6960   21.1340 N   0  0  0  0  0  0  0  0  0  0  0  0
    6.5380   -0.0450   20.0940 C   0  0  0  0  0  0  0  0  0  0  0  0
    5.3780    0.7000   20.4040 C   0  0  0  0  0  0  0  0  0  0  0  0
    4.7110    1.3420   19.3660 C   0  0  0  0  0  0  0  0  0  0  0  0
    5.1720    1.2520   18.0760 C   0  0  0  0  0  0  0  0  0  0  0  0
    6.2610    0.5530   17.7420 N   0  0  0  0  0  0  0  0  0  0  0  0
    6.9200   -0.0800   18.7550 C   0  0  0  0  0  0  0  0  0  0  0  0
  1  2  1  0
  2  3  1  0
  3  4  1  0
  4  5  1  0
  3  6  1  0
  5  6  1  0
  6  7  1  6
  7  8  1  0
  8  9  1  0
  9 10  2  0
  9 11  1  0
 11 12  1  0
 12 13  2  0
 13 14  1  0
 14 15  2  0
 15 16  1  0
 12 17  1  0
 16 17  2  0
M  END
