pyridine_urea_3302
     RDKit          3D

 20 21  0  0  0  0  0  0  0  0999 V2000
   10.3650   -2.3350   21.7960 C   0  0  0  0  0  0  0  0  0  0  0  0
   11.0620   -1.3770   22.6790 C   0  0  2  0  0  0  0  0  0  0  0  0
   10.3800   -0.2030   22.9120 C   0  0  0  0  0  0  0  0  0  0  0  0
    8.9570   -0.3620   22.6450 N   0  0  0  0  0  0  0  0  0  0  0  0
    8.4200    0.2780   21.5560 C   0  0  0  0  0  0  0  0  0  0  0  0
    8.8580    1.3520   21.1310 O   0  0  0  0  0  0  0  0  0  0  0  0
    7.2860   -0.4800   21.0200 N   0  0  0  0  0  0  0  0  0  0  0  0
    6.5530    0.1140   20.0320 C   0  0  0  0  0  0  0  0  0  0  0  0
    5.2870    0.8760   20.4040 C   0  0  0  0  0  0  0  0  0  0  0  0
    4.5960    1.4750   19.3560 C   0  0  0  0  0  0  0  0  0  0  0  0
    5.1690    1.3110   17.9490 C   0  0  0  0  0  0  0  0  0  0  0  0
    6.2880    0.6150   17.6840 N   0  0  0  0  0  0  0  0  0  0  0  0
    6.9410    0.0420   18.7150 C   0  0  0  0  0  0  0  0  0  0  0  0
   12.4650   -1.0900   22.1710 C   0  0  0  0  0  0  0  0  0  0  0  0
   13.3590   -1.4860   23.0360 N   0  0  0  0  0  0  0  0  0  0  0  0
   13.2480   -2.7500   23.4960 C   0  0  0  0  0  0  0  0  0  0  0  0
   13.1770   -2.6690   24.8740 C   0  0  0  0  0  0  0  0  0  0  0  0
   13.1870   -1.3780   25.2480 O   0  0  0  0  0  0  0  0  0  0  0  0
   13.1490   -0.6420   24.0390 C   0  0  0  0  0  0  0  0  0  0  0  0
   12.9200    0.6830   23.8730 O   0  0  0  0  0  0  0  0  0  0  0  0
  2  1  1  6
  2  3  1  0
  3  4  1  0
  4  5  1  0
  5  6  2  0
  5  7  1  0
  7  8  1  0
  8  9  2  0
  9 10  1  0
 10 11  2  0
 11 12  1  0
  8 13  1  0
 12 13  2  0
  2 14  1  0
 14 15  1  0
 15 16  1  0
 16 17  1  0
 17 18  1  0
 15 19  1  0
 18 19  1  0
 19 20  2  0
M  END
