pyridine_urea_3769
     RDKit          3D

 21 22  0  0  0  0  0  0  0  0999 V2000
    8.5910    1.2140   21.0190 O   0  0  0  0  0  0  0  0  0  0  0  0
    8.1720    0.1460   21.4900 C   0  0  0  0  0  0  0  0  0  0  0  0
    7.1210   -0.5850   21.0010 N   0  0  0  0  0  0  0  0  0  0  0  0
    6.4390    0.0840   19.9550 C   0  0  0  0  0  0  0  0  0  0  0  0
    5.1580    0.8290   20.3040 C   0  0  0  0  0  0  0  0  0  0  0  0
    4.4580    1.5650   19.1670 C   0  0  0  0  0  0  0  0  0  0  0  0
    5.1430    1.4600   17.8060 C   0  0  0  0  0  0  0  0  0  0  0  0
    6.3180    0.7220   17.6650 N   0  0  0  0  0  0  0  0  0  0  0  0
    6.9270    0.0680   18.6830 C   0  0  0  0  0  0  0  0  0  0  0  0
    8.7250   -0.4410   22.5760 N   0  0  0  0  0  0  0  0  0  0  0  0
   10.0700   -0.1670   22.7400 C   0  0  0  0  0  0  0  0  0  0  0  0
   10.6110    1.0820   23.0170 C   0  0  0  0  0  0  0  0  0  0  0  0
   11.9590    1.4390   23.1990 C   0  0  0  0  0  0  0  0  0  0  0  0
   12.9380    0.4760   23.0940 C   0  0  0  0  0  0  0  0  0  0  0  0
   12.5190   -0.7890   22.8180 C   0  0  0  0  0  0  0  0  0  0  0  0
   12.9680   -2.0370   22.6120 C   0  0  0  0  0  0  0  0  0  0  0  0
   11.9980   -2.7550   23.1510 F   0  0  0  0  0  0  0  0  0  0  0  0
   14.0060   -2.3730   23.3640 F   0  0  0  0  0  0  0  0  0  0  0  0
   13.0870   -2.3990   21.1700 C   0  0  0  0  0  0  0  0  0  0  0  0
   13.5100   -3.6730   21.0010 F   0  0  0  0  0  0  0  0  0  0  0  0
   11.0880   -1.2350   22.6170 C   0  0  0  0  0  0  0  0  0  0  0  0
  1  2  2  0
  2  3  1  0
  3  4  1  0
  4  5  2  0
  5  6  1  0
  6  7  2  0
  7  8  1  0
  4  9  1  0
  8  9  2  0
  2 10  1  0
 10 11  1  0
 11 12  2  0
 12 13  1  0
 13 14  2  0
 14 15  1  0
 15 16  1  0
 16 17  1  0
 16 18  1  0
 16 19  1  0
 19 20  1  0
 11 21  1  0
 15 21  2  0
M  END
