pyridine_urea_4351
     RDKit          3D

 24 26  0  0  0  0  0  0  0  0999 V2000
    8.6130    0.6590   21.1350 O   0  0  0  0  0  0  0  0  0  0  0  0
    8.3300   -0.4900   21.4330 C   0  0  0  0  0  0  0  0  0  0  0  0
    7.1190   -1.0230   21.0620 N   0  0  0  0  0  0  0  0  0  0  0  0
    6.4590   -0.2420   20.0400 C   0  0  0  0  0  0  0  0  0  0  0  0
    5.1710    0.4980   20.4070 C   0  0  0  0  0  0  0  0  0  0  0  0
    4.4970    1.3300   19.3130 C   0  0  0  0  0  0  0  0  0  0  0  0
    5.1980    1.3320   17.9540 C   0  0  0  0  0  0  0  0  0  0  0  0
    6.3760    0.5950   17.7810 N   0  0  0  0  0  0  0  0  0  0  0  0
    6.9660   -0.1470   18.7650 C   0  0  0  0  0  0  0  0  0  0  0  0
    9.1880   -1.3230   22.1450 N   0  0  0  0  0  0  0  0  0  0  0  0
   10.4170   -0.6910   22.3980 C   0  0  0  0  0  0  0  0  0  0  0  0
   11.7590   -1.0640   22.4300 C   0  0  0  0  0  0  0  0  0  0  0  0
   12.8250   -0.2010   22.6990 C   0  0  0  0  0  0  0  0  0  0  0  0
   12.5740    1.1490   22.9550 C   0  0  0  0  0  0  0  0  0  0  0  0
   11.2560    1.6420   22.9520 C   0  0  0  0  0  0  0  0  0  0  0  0
   10.8750    2.9770   23.2030 C   0  0  0  0  0  0  0  0  0  0  0  0
    9.7240    3.1480   23.5930 O   0  0  0  0  0  0  0  0  0  0  0  0
   11.6390    4.2320   23.0690 C   0  0  0  0  0  0  0  0  0  0  0  0
   12.5730    4.3600   22.0840 C   0  0  0  0  0  0  0  0  0  0  0  0
   13.3530    5.5920   21.9080 C   0  0  0  0  0  0  0  0  0  0  0  0
   13.1050    6.6400   22.7820 C   0  0  0  0  0  0  0  0  0  0  0  0
   12.1520    6.5050   23.7820 C   0  0  0  0  0  0  0  0  0  0  0  0
   11.4220    5.3140   23.9340 C   0  0  0  0  0  0  0  0  0  0  0  0
   10.2070    0.7930   22.6990 C   0  0  0  0  0  0  0  0  0  0  0  0
  1  2  2  0
  2  3  1  0
  3  4  1  0
  4  5  2  0
  5  6  1  0
  6  7  2  0
  7  8  1  0
  4  9  1  0
  8  9  2  0
  2 10  1  0
 10 11  1  0
 11 12  2  0
 12 13  1  0
 13 14  2  0
 14 15  1  0
 15 16  1  0
 16 17  2  0
 16 18  1  0
 18 19  2  0
 19 20  1  0
 20 21  2  0
 21 22  1  0
 18 23  1  0
 22 23  2  0
 11 24  1  0
 15 24  2  0
M  END
