pyridine_urea_6357
     RDKit          3D

 23 25  0  0  0  0  0  0  0  0999 V2000
    8.3750    0.8270   21.0410 O   0  0  0  0  0  0  0  0  0  0  0  0
    7.7260   -0.1670   21.3550 C   0  0  0  0  0  0  0  0  0  0  0  0
    8.0280   -0.9510   22.3820 N   0  0  0  0  0  0  0  0  0  0  0  0
    9.3370   -0.7080   22.7840 C   0  0  0  0  0  0  0  0  0  0  0  0
    9.8890    0.6700   22.8370 C   0  0  0  0  0  0  0  0  0  0  0  0
   11.2750    0.7040   23.2750 C   0  0  0  0  0  0  0  0  0  0  0  0
   11.9840   -0.4270   23.6230 C   0  0  0  0  0  0  0  0  0  0  0  0
   13.1340   -0.4910   23.9930 N   0  0  0  0  0  0  0  0  0  0  0  0
   13.2360   -1.6840   24.6320 C   0  0  0  0  0  0  0  0  0  0  0  0
   13.1580   -2.8770   23.8100 C   0  0  0  0  0  0  0  0  0  0  0  0
   13.5160   -2.6150   22.4420 O   0  0  0  0  0  0  0  0  0  0  0  0
   13.2940   -1.3980   21.8400 C   0  0  0  0  0  0  0  0  0  0  0  0
   13.6290   -0.2820   22.7740 C   0  0  0  0  0  0  0  0  0  0  0  0
   14.2020    0.7270   22.5030 O   0  0  0  0  0  0  0  0  0  0  0  0
   11.2950   -1.7460   23.5110 C   0  0  0  0  0  0  0  0  0  0  0  0
   10.0480   -1.9180   23.1160 C   0  0  0  0  0  0  0  0  0  0  0  0
    6.6260   -0.5890   20.7190 N   0  0  0  0  0  0  0  0  0  0  0  0
    6.0280    0.1350   19.7790 C   0  0  0  0  0  0  0  0  0  0  0  0
    4.7000    0.7440   20.2630 C   0  0  0  0  0  0  0  0  0  0  0  0
    4.3990    1.4590   18.9690 C   0  0  0  0  0  0  0  0  0  0  0  0
    5.1720    1.5090   17.7040 C   0  0  0  0  0  0  0  0  0  0  0  0
    6.3020    0.8930   17.5200 N   0  0  0  0  0  0  0  0  0  0  0  0
    6.6860    0.2260   18.5740 C   0  0  0  0  0  0  0  0  0  0  0  0
  1  2  2  0
  2  3  1  0
  3  4  1  0
  4  5  2  0
  5  6  1  0
  6  7  2  0
  7  8  1  0
  8  9  1  0
  9 10  1  0
 10 11  1  0
 11 12  1  0
  8 13  1  0
 12 13  1  0
 13 14  2  0
  7 15  1  0
  4 16  1  0
 15 16  2  0
  2 17  1  0
 17 18  1  0
 18 19  2  0
 19 20  1  0
 20 21  2  0
 21 22  1  0
 18 23  1  0
 22 23  2  0
M  END
