pyridine_urea_11701
     RDKit          3D

 26 28  0  0  0  0  0  0  0  0999 V2000
   13.4910   -2.0100   25.1820 C   0  0  0  0  0  0  0  0  0  0  0  0
   13.2830   -2.2440   23.7410 C   0  0  0  0  0  0  0  0  0  0  0  0
   13.9010   -3.0680   22.8570 C   0  0  0  0  0  0  0  0  0  0  0  0
   13.7730   -3.3720   21.4000 C   0  0  0  0  0  0  0  0  0  0  0  0
   15.2320   -4.9180   20.5010 Br  0  0  0  0  0  0  0  0  0  0  0  0
   12.7150   -2.6540   20.8790 C   0  0  0  0  0  0  0  0  0  0  0  0
   12.0580   -1.8230   21.6610 C   0  0  0  0  0  0  0  0  0  0  0  0
   11.0390   -0.9300   21.8360 C   0  0  0  0  0  0  0  0  0  0  0  0
   12.2520   -1.4930   23.0160 C   0  0  0  0  0  0  0  0  0  0  0  0
   11.5830   -0.5090   23.6780 N   0  0  0  0  0  0  0  0  0  0  0  0
   12.1070    0.7250   23.3590 C   0  0  0  0  0  0  0  0  0  0  0  0
   11.3570    1.8680   23.0520 C   0  0  0  0  0  0  0  0  0  0  0  0
    9.9670    1.6160   23.0310 C   0  0  0  0  0  0  0  0  0  0  0  0
    9.6580    0.3080   22.7060 C   0  0  2  0  0  0  0  0  0  0  0  0
    8.3450    0.2010   22.4900 N   0  0  0  0  0  0  0  0  0  0  0  0
    7.8890   -0.4840   21.3780 C   0  0  0  0  0  0  0  0  0  0  0  0
    8.6300   -0.9830   20.6030 O   0  0  0  0  0  0  0  0  0  0  0  0
    6.5680   -0.5180   21.2660 N   0  0  0  0  0  0  0  0  0  0  0  0
    6.1620    0.0720   20.1350 C   0  0  0  0  0  0  0  0  0  0  0  0
    4.8930    0.9050   20.1720 C   0  0  0  0  0  0  0  0  0  0  0  0
    4.4560    1.5360   19.0210 C   0  0  0  0  0  0  0  0  0  0  0  0
    5.1990    1.3870   17.8580 C   0  0  0  0  0  0  0  0  0  0  0  0
    6.3320    0.6600   17.7470 N   0  0  0  0  0  0  0  0  0  0  0  0
    6.7940    0.0070   18.9020 C   0  0  0  0  0  0  0  0  0  0  0  0
   10.1620   -0.6150   23.5690 C   0  0  0  0  0  0  0  0  0  0  0  0
    9.3400   -1.5520   24.2700 O   0  0  0  0  0  0  0  0  0  0  0  0
  1  2  1  0
  2  3  2  0
  3  4  1  0
  4  5  1  0
  4  6  2  0
  6  7  1  0
  7  8  1  0
  2  9  1  0
  7  9  2  0
  9 10  1  0
 10 11  1  0
 11 12  1  0
 12 13  1  0
 13 14  1  0
 14 15  1  1
 15 16  1  0
 16 17  2  0
 16 18  1  0
 18 19  1  0
 19 20  2  0
 20 21  1  0
 21 22  2  0
 22 23  1  0
 19 24  1  0
 23 24  2  0
 10 25  1  0
 14 25  1  0
 25 26  2  0
M  END
