pyridine_urea_13164
     RDKit          3D

 17 18  0  0  0  0  0  0  0  0999 V2000
   13.2890   -1.6580   21.6850 C   0  0  0  0  0  0  0  0  0  0  0  0
   12.2920   -0.8160   22.3740 C   0  0  0  0  0  0  0  0  0  0  0  0
   10.9920   -1.2660   22.4100 C   0  0  1  0  0  0  0  0  0  0  0  0
   11.0220   -2.1680   23.2690 O   0  0  0  0  0  0  0  0  0  0  0  0
   10.0980   -0.2980   22.7930 C   0  0  0  0  0  0  0  0  0  0  0  0
    8.7970   -0.4920   22.5760 N   0  0  0  0  0  0  0  0  0  0  0  0
    8.2910    0.1320   21.4980 C   0  0  0  0  0  0  0  0  0  0  0  0
    8.7570    1.2110   21.1080 O   0  0  0  0  0  0  0  0  0  0  0  0
    7.2620   -0.5770   20.9890 N   0  0  0  0  0  0  0  0  0  0  0  0
    6.5280    0.0680   20.0620 C   0  0  0  0  0  0  0  0  0  0  0  0
    5.3490    0.8020   20.3230 C   0  0  0  0  0  0  0  0  0  0  0  0
    4.6210    1.5080   19.1570 C   0  0  0  0  0  0  0  0  0  0  0  0
    5.1890    1.3690   17.9050 C   0  0  0  0  0  0  0  0  0  0  0  0
    6.3090    0.6510   17.7220 N   0  0  0  0  0  0  0  0  0  0  0  0
    6.9720    0.0090   18.7510 C   0  0  0  0  0  0  0  0  0  0  0  0
   12.8060   -0.5160   23.8270 C   0  0  0  0  0  0  0  0  0  0  0  0
   12.4340    0.4520   23.1230 C   0  0  0  0  0  0  0  0  0  0  0  0
  2  1  1  0
  2  3  1  0
  3  4  1  1
  3  5  1  0
  5  6  1  0
  6  7  1  0
  7  8  2  0
  7  9  1  0
  9 10  1  0
 10 11  2  0
 11 12  1  0
 12 13  2  0
 13 14  1  0
 10 15  1  0
 14 15  2  0
  2 16  1  0
  2 17  1  0
 16 17  1  0
M  END
