pyridine_urea_11827
     RDKit          3D

 25 27  0  0  0  0  0  0  0  0999 V2000
    5.5760   -6.4610   21.4280 C   0  0  0  0  0  0  0  0  0  0  0  0
    4.6050   -5.6840   22.0830 O   0  0  0  0  0  0  0  0  0  0  0  0
    5.2560   -4.6340   22.6200 C   0  0  0  0  0  0  0  0  0  0  0  0
    6.5980   -4.7750   22.9800 C   0  0  0  0  0  0  0  0  0  0  0  0
    7.3830   -3.7820   23.5290 C   0  0  0  0  0  0  0  0  0  0  0  0
    6.7570   -2.5700   23.7220 C   0  0  0  0  0  0  0  0  0  0  0  0
    7.6440   -1.3130   24.3940 S   0  0  0  0  0  0  0  0  0  0  0  0
    7.4160   -1.4390   25.8200 O   0  0  0  0  0  0  0  0  0  0  0  0
    7.1880   -0.1520   23.6640 O   0  0  0  0  0  0  0  0  0  0  0  0
    9.2810   -1.4970   24.0390 N   0  0  0  0  0  0  0  0  0  0  0  0
    9.7880   -2.1980   22.9620 C   0  0  0  0  0  0  0  0  0  0  0  0
   10.3200   -1.1830   22.3220 C   0  0  0  0  0  0  0  0  0  0  0  0
    9.5770   -0.7790   21.2610 N   0  0  0  0  0  0  0  0  0  0  0  0
    8.4760    0.1890   21.1990 C   0  0  0  0  0  0  0  0  0  0  0  0
    8.6780    1.6110   21.2060 O   0  0  0  0  0  0  0  0  0  0  0  0
    7.2800   -0.4220   21.0650 N   0  0  0  0  0  0  0  0  0  0  0  0
    6.5070    0.1510   20.1090 C   0  0  0  0  0  0  0  0  0  0  0  0
    5.3300    0.8630   20.3530 C   0  0  0  0  0  0  0  0  0  0  0  0
    4.6460    1.4160   19.2750 C   0  0  0  0  0  0  0  0  0  0  0  0
    5.1510    1.2440   18.0030 C   0  0  0  0  0  0  0  0  0  0  0  0
    6.2690    0.5570   17.7410 N   0  0  0  0  0  0  0  0  0  0  0  0
    6.9190    0.0260   18.7930 C   0  0  0  0  0  0  0  0  0  0  0  0
   10.1260   -0.4280   23.4500 C   0  0  0  0  0  0  0  0  0  0  0  0
    5.2910   -2.4060   23.3360 C   0  0  0  0  0  0  0  0  0  0  0  0
    4.5760   -3.4440   22.7950 C   0  0  0  0  0  0  0  0  0  0  0  0
  1  2  1  0
  2  3  1  0
  3  4  2  0
  4  5  1  0
  5  6  2  0
  7  6  1  0
  7  8  2  0
  7  9  2  0
  7 10  1  0
 10 11  1  0
 11 12  1  0
 12 13  1  0
 13 14  1  0
 14 15  2  0
 14 16  1  0
 16 17  1  0
 17 18  2  0
 18 19  1  0
 19 20  2  0
 20 21  1  0
 17 22  1  0
 21 22  2  0
 10 23  1  0
 12 23  1  0
  6 24  1  0
  3 25  1  0
 24 25  2  0
M  END
