pyridine_urea_7876
     RDKit          3D

 28 30  0  0  0  0  0  0  0  0999 V2000
    4.0380   -0.7120   25.1890 C   0  0  0  0  0  0  0  0  0  0  0  0
    5.4030   -0.7170   24.5110 C   0  0  2  0  0  0  0  0  0  0  0  0
    5.4800   -1.7170   23.5340 C   0  0  0  0  0  0  0  0  0  0  0  0
    5.2860   -3.0120   23.9970 C   0  0  0  0  0  0  0  0  0  0  0  0
    5.7720   -3.2250   25.2680 C   0  0  0  0  0  0  0  0  0  0  0  0
    6.7540   -2.3530   25.7480 C   0  0  0  0  0  0  0  0  0  0  0  0
    6.4110   -0.9640   25.5400 N   0  0  0  0  0  0  0  0  0  0  0  0
    7.5060    0.2640   26.0310 S   0  0  0  0  0  0  0  0  0  0  0  0
    6.9480    1.5440   25.6480 O   0  0  0  0  0  0  0  0  0  0  0  0
    7.7510   -0.0740   27.4160 O   0  0  0  0  0  0  0  0  0  0  0  0
    9.0550    0.0100   25.1400 C   0  0  0  0  0  0  0  0  0  0  0  0
    9.2570    0.0360   23.7060 C   0  0  0  0  0  0  0  0  0  0  0  0
   10.5270   -0.2020   23.1420 C   0  0  0  0  0  0  0  0  0  0  0  0
   11.8400   -0.4940   23.6570 C   0  0  0  0  0  0  0  0  0  0  0  0
   11.7230   -0.4410   22.3600 C   0  0  0  0  0  0  0  0  0  0  0  0
   10.5650   -1.1960   22.0800 C   0  0  0  0  0  0  0  0  0  0  0  0
    9.2530   -0.7150   22.2230 N   0  0  0  0  0  0  0  0  0  0  0  0
    8.2640   -0.6540   21.2070 C   0  0  0  0  0  0  0  0  0  0  0  0
    8.4250   -1.1500   20.1660 O   0  0  0  0  0  0  0  0  0  0  0  0
    7.1320   -0.0060   21.4820 N   0  0  0  0  0  0  0  0  0  0  0  0
    6.4150    0.4400   20.3350 C   0  0  0  0  0  0  0  0  0  0  0  0
    5.2340    1.1850   20.4090 C   0  0  0  0  0  0  0  0  0  0  0  0
    4.6260    1.5780   19.2250 C   0  0  0  0  0  0  0  0  0  0  0  0
    5.1760    1.2420   18.0100 C   0  0  0  0  0  0  0  0  0  0  0  0
    6.2960    0.5250   17.8820 N   0  0  0  0  0  0  0  0  0  0  0  0
    6.8830    0.1420   19.0430 C   0  0  0  0  0  0  0  0  0  0  0  0
   11.5590   -0.4740   25.0090 C   0  0  0  0  0  0  0  0  0  0  0  0
   10.3930   -0.2720   25.7450 C   0  0  0  0  0  0  0  0  0  0  0  0
  2  1  1  1
  2  3  1  0
  3  4  1  0
  4  5  1  0
  5  6  1  0
  2  7  1  0
  6  7  1  0
  7  8  1  0
  8  9  2  0
  8 10  2  0
  8 11  1  0
 11 12  2  0
 12 13  1  0
 13 14  2  0
 14 15  1  0
 15 16  1  0
 16 17  1  0
 17 18  1  0
 18 19  2  0
 18 20  1  0
 20 21  1  0
 21 22  2  0
 22 23  1  0
 23 24  2  0
 24 25  1  0
 21 26  1  0
 25 26  2  0
 14 27  1  0
 11 28  1  0
 27 28  2  0
M  END
