pyridine_urea_15210
     RDKit          3D

 18 18  0  0  0  0  0  0  0  0999 V2000
    8.3010   -3.9510   24.2200 C   0  0  0  0  0  0  0  0  0  0  0  0
    8.3490   -2.6390   23.6700 O   0  0  0  0  0  0  0  0  0  0  0  0
    9.5720   -1.9780   23.9920 C   0  0  0  0  0  0  0  0  0  0  0  0
   10.1270   -1.1400   22.8370 C   0  0  0  0  0  0  0  0  0  0  0  0
   10.3800    0.2870   23.2480 C   0  0  0  0  0  0  0  0  0  0  0  0
   11.5070   -1.7420   22.5000 C   0  0  0  0  0  0  0  0  0  0  0  0
   11.7770   -1.7820   21.3270 O   0  0  0  0  0  0  0  0  0  0  0  0
   13.1670   -2.0290   21.2130 C   0  0  0  0  0  0  0  0  0  0  0  0
    9.3820   -1.1600   21.7030 N   0  0  0  0  0  0  0  0  0  0  0  0
    8.5110   -0.1320   21.4050 C   0  0  0  0  0  0  0  0  0  0  0  0
    8.8740    1.0370   21.3770 O   0  0  0  0  0  0  0  0  0  0  0  0
    7.1550   -0.5890   21.1070 N   0  0  0  0  0  0  0  0  0  0  0  0
    6.4150    0.0590   20.1050 C   0  0  0  0  0  0  0  0  0  0  0  0
    5.2220    0.7590   20.3100 C   0  0  0  0  0  0  0  0  0  0  0  0
    4.6090    1.3660   19.2310 C   0  0  0  0  0  0  0  0  0  0  0  0
    5.1840    1.2700   17.9730 C   0  0  0  0  0  0  0  0  0  0  0  0
    6.3230    0.5990   17.7510 N   0  0  0  0  0  0  0  0  0  0  0  0
    6.9030    0.0120   18.8100 C   0  0  0  0  0  0  0  0  0  0  0  0
  1  2  1  0
  2  3  1  0
  3  4  1  0
  4  5  1  0
  4  6  1  0
  6  7  1  0
  7  8  1  0
  4  9  1  0
  9 10  1  0
 10 11  2  0
 10 12  1  0
 12 13  1  0
 13 14  2  0
 14 15  1  0
 15 16  2  0
 16 17  1  0
 13 18  1  0
 17 18  2  0
M  END
