pyridine_urea_8935
     RDKit          3D

 20 22  0  0  0  0  0  0  0  0999 V2000
    8.6320    1.5390   21.1250 O   0  0  0  0  0  0  0  0  0  0  0  0
    8.4920    0.3650   21.4640 C   0  0  0  0  0  0  0  0  0  0  0  0
    7.3410   -0.3310   21.1840 N   0  0  0  0  0  0  0  0  0  0  0  0
    6.6530    0.1490   20.0220 C   0  0  0  0  0  0  0  0  0  0  0  0
    5.4130    1.0130   20.3020 C   0  0  0  0  0  0  0  0  0  0  0  0
    4.6850    1.5530   19.2510 C   0  0  0  0  0  0  0  0  0  0  0  0
    5.1250    1.2820   17.9620 C   0  0  0  0  0  0  0  0  0  0  0  0
    6.2280    0.5000   17.7510 N   0  0  0  0  0  0  0  0  0  0  0  0
    7.0070   -0.0810   18.7520 C   0  0  0  0  0  0  0  0  0  0  0  0
    9.4250   -0.3890   22.1020 N   0  0  0  0  0  0  0  0  0  0  0  0
   10.3990   -1.1250   22.6610 C   0  0  1  0  0  0  0  0  0  0  0  0
   11.4510   -1.3080   21.8560 C   0  0  0  0  0  0  0  0  0  0  0  0
   12.1880   -2.1560   22.4380 C   0  0  0  0  0  0  0  0  0  0  0  0
   12.1340   -1.6990   23.6710 C   0  0  0  0  0  0  0  0  0  0  0  0
   13.3680   -2.1450   24.3810 C   0  0  0  0  0  0  0  0  0  0  0  0
   13.4820   -1.7230   25.7490 C   0  0  0  0  0  0  0  0  0  0  0  0
   12.5040   -1.4290   24.9550 C   0  0  0  0  0  0  0  0  0  0  0  0
   12.6220   -1.9360   23.7300 F   0  0  0  0  0  0  0  0  0  0  0  0
   11.4380   -0.7260   25.2010 C   0  0  0  0  0  0  0  0  0  0  0  0
   10.8570   -0.8450   24.0490 C   0  0  0  0  0  0  0  0  0  0  0  0
  1  2  2  0
  2  3  1  0
  3  4  1  0
  4  5  2  0
  5  6  1  0
  6  7  2  0
  7  8  1  0
  4  9  1  0
  8  9  2  0
  2 10  1  0
 11 10  1  6
 11 12  1  0
 12 13  1  0
 13 14  1  0
 14 15  1  0
 15 16  2  0
 16 17  1  0
 17 18  1  0
 17 19  2  0
 11 20  1  0
 14 20  2  0
 19 20  1  0
M  END
