pyridine_urea_13732
     RDKit          3D

 25 28  0  0  0  0  0  0  0  0999 V2000
    8.4210    0.5470   21.1170 O   0  0  0  0  0  0  0  0  0  0  0  0
    7.8790   -0.4860   21.4910 C   0  0  0  0  0  0  0  0  0  0  0  0
    6.7390   -0.9570   20.9550 N   0  0  0  0  0  0  0  0  0  0  0  0
    6.1130   -0.1570   20.0060 C   0  0  0  0  0  0  0  0  0  0  0  0
    4.8230    0.6300   20.2630 C   0  0  0  0  0  0  0  0  0  0  0  0
    4.3570    1.4500   19.0680 C   0  0  0  0  0  0  0  0  0  0  0  0
    5.1810    1.3930   17.8250 C   0  0  0  0  0  0  0  0  0  0  0  0
    6.3010    0.6580   17.7080 N   0  0  0  0  0  0  0  0  0  0  0  0
    6.7230   -0.0720   18.7650 C   0  0  0  0  0  0  0  0  0  0  0  0
    8.4210   -1.2370   22.4910 N   0  0  0  0  0  0  0  0  0  0  0  0
    9.7280   -0.7690   22.6240 C   0  0  0  0  0  0  0  0  0  0  0  0
   10.8120   -1.5870   22.5770 C   0  0  0  0  0  0  0  0  0  0  0  0
   12.0050   -1.0340   22.6650 C   0  0  0  0  0  0  0  0  0  0  0  0
   12.1120    0.3140   22.7920 C   0  0  0  0  0  0  0  0  0  0  0  0
   13.6710    0.6870   22.8330 Cl  0  0  0  0  0  0  0  0  0  0  0  0
   11.1680    1.3510   22.8720 C   0  0  0  0  0  0  0  0  0  0  0  0
   11.3860    2.6950   22.9890 N   0  0  0  0  0  0  0  0  0  0  0  0
   12.5320    3.2190   22.5860 N   0  0  0  0  0  0  0  0  0  0  0  0
   12.4110    4.5410   22.8350 N   0  0  0  0  0  0  0  0  0  0  0  0
   11.1590    4.7880   23.4040 N   0  0  0  0  0  0  0  0  0  0  0  0
   10.5300    3.5900   23.4870 C   0  0  0  0  0  0  0  0  0  0  0  0
    9.1300    3.3350   24.0430 C   0  0  0  0  0  0  0  0  0  0  0  0
    8.3810    4.3260   24.2440 C   0  0  0  0  0  0  0  0  0  0  0  0
    9.1850    4.1160   25.4220 C   0  0  0  0  0  0  0  0  0  0  0  0
    9.8310    0.6130   22.7740 C   0  0  0  0  0  0  0  0  0  0  0  0
  1  2  2  0
  2  3  1  0
  3  4  1  0
  4  5  2  0
  5  6  1  0
  6  7  2  0
  7  8  1  0
  4  9  1  0
  8  9  2  0
  2 10  1  0
 10 11  1  0
 11 12  2  0
 12 13  1  0
 13 14  2  0
 14 15  1  0
 14 16  1  0
 16 17  1  0
 17 18  1  0
 18 19  2  0
 19 20  1  0
 17 21  1  0
 20 21  2  0
 21 22  1  0
 22 23  1  0
 22 24  1  0
 23 24  1  0
 11 25  1  0
 16 25  2  0
M  END
