pyridine_urea_13852
     RDKit          3D

 24 26  0  0  0  0  0  0  0  0999 V2000
    8.7490    1.1480   21.0610 O   0  0  0  0  0  0  0  0  0  0  0  0
    8.4120    0.0270   21.4700 C   0  0  0  0  0  0  0  0  0  0  0  0
    7.2430   -0.6010   21.0970 N   0  0  0  0  0  0  0  0  0  0  0  0
    6.5420    0.0310   20.0120 C   0  0  0  0  0  0  0  0  0  0  0  0
    5.2690    0.7870   20.3750 C   0  0  0  0  0  0  0  0  0  0  0  0
    4.5920    1.4430   19.2220 C   0  0  0  0  0  0  0  0  0  0  0  0
    5.1550    1.3150   17.9680 C   0  0  0  0  0  0  0  0  0  0  0  0
    6.2790    0.6260   17.7040 N   0  0  0  0  0  0  0  0  0  0  0  0
    6.9360    0.0110   18.7030 C   0  0  0  0  0  0  0  0  0  0  0  0
    9.1840   -0.7060   22.3360 N   0  0  0  0  0  0  0  0  0  0  0  0
   10.4190   -0.0400   22.7970 C   0  0  0  0  0  0  0  0  0  0  0  0
   10.3440    1.2930   23.0340 C   0  0  0  0  0  0  0  0  0  0  0  0
   11.6750    1.9680   22.7350 C   0  0  0  0  0  0  0  0  0  0  0  0
   11.7990    3.3760   22.9150 C   0  0  0  0  0  0  0  0  0  0  0  0
   13.0260    3.8640   22.6060 F   0  0  0  0  0  0  0  0  0  0  0  0
   10.7610    4.2150   23.3730 C   0  0  0  0  0  0  0  0  0  0  0  0
    9.5730    3.5840   23.6440 C   0  0  0  0  0  0  0  0  0  0  0  0
    8.1580    3.8440   24.1340 C   0  0  0  0  0  0  0  0  0  0  0  0
    7.9250    5.1160   24.5310 F   0  0  0  0  0  0  0  0  0  0  0  0
    7.8020    3.0830   25.2040 F   0  0  0  0  0  0  0  0  0  0  0  0
    7.2030    3.5990   23.1890 F   0  0  0  0  0  0  0  0  0  0  0  0
    9.1640    2.1490   23.5370 C   0  0  0  0  0  0  0  0  0  0  0  0
   11.7140   -0.7760   22.4350 C   0  0  0  0  0  0  0  0  0  0  0  0
   11.4670   -0.9890   23.6880 C   0  0  0  0  0  0  0  0  0  0  0  0
  1  2  2  0
  2  3  1  0
  3  4  1  0
  4  5  2  0
  5  6  1  0
  6  7  2  0
  7  8  1  0
  4  9  1  0
  8  9  2  0
  2 10  1  0
 11 10  1  0
 11 12  1  0
 12 13  2  0
 13 14  1  0
 14 15  1  0
 14 16  2  0
 16 17  1  0
 17 18  1  0
 18 19  1  0
 18 20  1  0
 18 21  1  0
 12 22  1  0
 17 22  2  0
 11 23  1  0
 11 24  1  0
 23 24  1  0
M  END
