pyridine_urea_8969
     RDKit          3D

 20 21  0  0  0  0  0  0  0  0999 V2000
    9.4030   -1.1080   21.3510 O   0  0  0  0  0  0  0  0  0  0  0  0
    8.4290   -0.4830   21.6700 C   0  0  0  0  0  0  0  0  0  0  0  0
    8.3770    0.2000   22.8290 N   0  0  0  0  0  0  0  0  0  0  0  0
    9.3660    1.2290   22.9460 C   0  0  0  0  0  0  0  0  0  0  0  0
   10.7100    0.5200   23.1150 C   0  0  0  0  0  0  0  0  0  0  0  0
   10.7830   -0.7650   23.5310 N   0  0  0  0  0  0  0  0  0  0  0  0
   12.1190   -1.1270   23.6060 C   0  0  0  0  0  0  0  0  0  0  0  0
   12.6970   -2.3170   23.9830 C   0  0  0  0  0  0  0  0  0  0  0  0
   13.5270   -2.9250   23.1430 F   0  0  0  0  0  0  0  0  0  0  0  0
   11.6910   -3.1950   24.2360 F   0  0  0  0  0  0  0  0  0  0  0  0
   13.3790   -2.1920   25.1530 F   0  0  0  0  0  0  0  0  0  0  0  0
   12.9830   -0.0710   23.2250 C   0  0  0  0  0  0  0  0  0  0  0  0
   12.2100    1.3740   22.7870 S   0  0  0  0  0  0  0  0  0  0  0  0
    7.3100   -0.3030   20.9360 N   0  0  0  0  0  0  0  0  0  0  0  0
    6.5570    0.2280   19.9780 C   0  0  0  0  0  0  0  0  0  0  0  0
    5.4070    0.9210   20.3360 C   0  0  0  0  0  0  0  0  0  0  0  0
    4.6910    1.4720   19.3010 C   0  0  0  0  0  0  0  0  0  0  0  0
    5.0830    1.3480   17.9800 C   0  0  0  0  0  0  0  0  0  0  0  0
    6.1680    0.6810   17.5780 N   0  0  0  0  0  0  0  0  0  0  0  0
    6.8920    0.1240   18.6580 C   0  0  0  0  0  0  0  0  0  0  0  0
  1  2  2  0
  2  3  1  0
  3  4  1  0
  4  5  1  0
  5  6  2  0
  6  7  1  0
  7  8  1  0
  8  9  1  0
  8 10  1  0
  8 11  1  0
  7 12  2  0
  5 13  1  0
 12 13  1  0
  2 14  1  0
 14 15  1  0
 15 16  2  0
 16 17  1  0
 17 18  2  0
 18 19  1  0
 15 20  1  0
 19 20  2  0
M  END
