pyridine_urea_15034
     RDKit          3D

 18 19  0  0  0  0  0  0  0  0999 V2000
    8.6120    0.9310   21.1700 O   0  0  0  0  0  0  0  0  0  0  0  0
    8.2720   -0.1840   21.5410 C   0  0  0  0  0  0  0  0  0  0  0  0
    7.1440   -0.8120   21.0800 N   0  0  0  0  0  0  0  0  0  0  0  0
    6.4740   -0.0940   20.0310 C   0  0  0  0  0  0  0  0  0  0  0  0
    5.1890    0.6460   20.3870 C   0  0  0  0  0  0  0  0  0  0  0  0
    4.4940    1.4200   19.2700 C   0  0  0  0  0  0  0  0  0  0  0  0
    5.1780    1.3630   17.9060 C   0  0  0  0  0  0  0  0  0  0  0  0
    6.3570    0.6300   17.7470 N   0  0  0  0  0  0  0  0  0  0  0  0
    6.9650   -0.0610   18.7520 C   0  0  0  0  0  0  0  0  0  0  0  0
    8.9910   -0.9110   22.4570 N   0  0  0  0  0  0  0  0  0  0  0  0
   10.3140   -0.4940   22.6220 C   0  0  0  0  0  0  0  0  0  0  0  0
   10.6750    0.8220   22.8280 C   0  0  0  0  0  0  0  0  0  0  0  0
   11.9740    1.2450   22.9790 C   0  0  0  0  0  0  0  0  0  0  0  0
   12.1610    2.4470   23.1510 O   0  0  0  0  0  0  0  0  0  0  0  0
   12.9820    0.3260   22.9330 C   0  0  0  0  0  0  0  0  0  0  0  0
   12.6790   -1.0200   22.7330 C   0  0  0  0  0  0  0  0  0  0  0  0
   13.6440   -1.9430   22.6880 F   0  0  0  0  0  0  0  0  0  0  0  0
   11.3550   -1.4280   22.5760 C   0  0  0  0  0  0  0  0  0  0  0  0
  1  2  2  0
  2  3  1  0
  3  4  1  0
  4  5  2  0
  5  6  1  0
  6  7  2  0
  7  8  1  0
  4  9  1  0
  8  9  2  0
  2 10  1  0
 10 11  1  0
 11 12  2  0
 12 13  1  0
 13 14  1  0
 13 15  2  0
 15 16  1  0
 16 17  1  0
 11 18  1  0
 16 18  2  0
M  END
