pyridine_urea_9001
     RDKit          3D

 19 19  0  0  0  0  0  0  0  0999 V2000
   13.5830   -2.6600   25.2020 C   0  0  0  0  0  0  0  0  0  0  0  0
   13.2250   -2.2680   23.7600 C   0  0  0  0  0  0  0  0  0  0  0  0
   12.7090   -0.9300   23.8100 O   0  0  0  0  0  0  0  0  0  0  0  0
   12.4400   -0.6070   22.5050 C   0  0  0  0  0  0  0  0  0  0  0  0
   13.8080   -0.1510   22.6500 O   0  0  0  0  0  0  0  0  0  0  0  0
   11.2310   -1.1560   22.8740 C   0  0  0  0  0  0  0  0  0  0  0  0
   10.9880   -2.2020   22.0500 F   0  0  0  0  0  0  0  0  0  0  0  0
   11.3230   -1.7490   24.0910 F   0  0  0  0  0  0  0  0  0  0  0  0
   10.2260   -0.2300   23.0470 C   0  0  0  0  0  0  0  0  0  0  0  0
    9.0110   -0.7230   22.4310 N   0  0  0  0  0  0  0  0  0  0  0  0
    8.4200    0.0910   21.4990 C   0  0  0  0  0  0  0  0  0  0  0  0
    8.8810    1.1990   21.1950 O   0  0  0  0  0  0  0  0  0  0  0  0
    7.2790   -0.4830   20.9970 N   0  0  0  0  0  0  0  0  0  0  0  0
    6.4980    0.1410   20.0290 C   0  0  0  0  0  0  0  0  0  0  0  0
    5.3100    0.8580   20.2730 C   0  0  0  0  0  0  0  0  0  0  0  0
    4.6420    1.4550   19.2100 C   0  0  0  0  0  0  0  0  0  0  0  0
    5.1230    1.3560   17.9150 C   0  0  0  0  0  0  0  0  0  0  0  0
    6.2640    0.6500   17.6750 N   0  0  0  0  0  0  0  0  0  0  0  0
    6.9410    0.0510   18.7210 C   0  0  0  0  0  0  0  0  0  0  0  0
  1  2  1  0
  2  3  1  0
  3  4  1  0
  4  5  2  0
  4  6  1  0
  6  7  1  0
  6  8  1  0
  6  9  1  0
  9 10  1  0
 10 11  1  0
 11 12  2  0
 11 13  1  0
 13 14  1  0
 14 15  2  0
 15 16  1  0
 16 17  2  0
 17 18  1  0
 14 19  1  0
 18 19  2  0
M  END
