pyridine_urea_972
     RDKit          3D

 22 24  0  0  0  0  0  0  0  0999 V2000
    8.9260    1.1370   21.2350 O   0  0  0  0  0  0  0  0  0  0  0  0
    8.2850    0.1390   21.6050 C   0  0  0  0  0  0  0  0  0  0  0  0
    8.5060   -0.5970   22.8340 N   0  0  0  0  0  0  0  0  0  0  0  0
    9.5360   -0.2630   23.6970 C   0  0  0  0  0  0  0  0  0  0  0  0
   10.3070    0.8580   23.4350 C   0  0  0  0  0  0  0  0  0  0  0  0
   11.3240    1.8010   23.1340 C   0  0  0  0  0  0  0  0  0  0  0  0
   12.6570    1.7130   22.8530 C   0  0  0  0  0  0  0  0  0  0  0  0
   13.4270    0.5150   22.7660 C   0  0  0  0  0  0  0  0  0  0  0  0
   12.5510   -0.5940   23.0380 C   0  0  0  0  0  0  0  0  0  0  0  0
   11.1240   -0.2770   23.3310 C   0  0  0  0  0  0  0  0  0  0  0  0
   10.5890   -1.3160   23.4900 O   0  0  0  0  0  0  0  0  0  0  0  0
   10.4880   -1.6090   22.1640 C   0  0  0  0  0  0  0  0  0  0  0  0
   11.4970   -2.4770   21.8540 C   0  0  0  0  0  0  0  0  0  0  0  0
   12.8280   -2.0910   21.8930 C   0  0  0  0  0  0  0  0  0  0  0  0
   13.0540   -1.6730   22.9910 O   0  0  0  0  0  0  0  0  0  0  0  0
    7.2330   -0.4560   20.9410 N   0  0  0  0  0  0  0  0  0  0  0  0
    6.4510    0.1850   19.9950 C   0  0  0  0  0  0  0  0  0  0  0  0
    5.2930    0.8920   20.2560 C   0  0  0  0  0  0  0  0  0  0  0  0
    4.6410    1.4900   19.1920 C   0  0  0  0  0  0  0  0  0  0  0  0
    5.1440    1.3760   17.9100 C   0  0  0  0  0  0  0  0  0  0  0  0
    6.2580    0.6850   17.6400 N   0  0  0  0  0  0  0  0  0  0  0  0
    6.8780    0.1110   18.6850 C   0  0  0  0  0  0  0  0  0  0  0  0
  1  2  2  0
  2  3  1  0
  3  4  1  0
  4  5  1  0
  5  6  2  0
  6  7  1  0
  7  8  2  0
  8  9  1  0
  5 10  1  0
  9 10  2  0
 10 11  1  0
 11 12  1  0
 12 13  1  0
 13 14  1  0
  9 15  1  0
 14 15  1  0
  2 16  1  0
 16 17  1  0
 17 18  2  0
 18 19  1  0
 19 20  2  0
 20 21  1  0
 17 22  1  0
 21 22  2  0
M  END
