pyridine_urea_2744
     RDKit          3D

 23 24  0  0  0  0  0  0  0  0999 V2000
   13.2980    4.9830   21.5260 C   0  0  0  0  0  0  0  0  0  0  0  0
   12.2010    5.5940   22.0510 N   0  0  0  0  0  0  0  0  0  0  0  0
   11.8620    4.9830   23.2930 C   0  0  0  0  0  0  0  0  0  0  0  0
   11.7200    5.5580   24.6010 O   0  0  0  0  0  0  0  0  0  0  0  0
   11.6060    3.4520   23.1760 C   0  0  0  0  0  0  0  0  0  0  0  0
   12.7830    2.5950   23.2850 O   0  0  0  0  0  0  0  0  0  0  0  0
   12.1010    1.4620   23.0110 C   0  0  0  0  0  0  0  0  0  0  0  0
   10.5730    1.5520   23.0480 C   0  0  0  0  0  0  0  0  0  0  0  0
    9.7620    0.5090   22.7720 C   0  0  0  0  0  0  0  0  0  0  0  0
   10.2940   -0.8260   22.3900 C   0  0  0  0  0  0  0  0  0  0  0  0
    9.1580   -1.6280   22.1310 N   0  0  0  0  0  0  0  0  0  0  0  0
    8.3120   -0.7570   21.3930 C   0  0  0  0  0  0  0  0  0  0  0  0
    8.7330    0.3720   21.1550 O   0  0  0  0  0  0  0  0  0  0  0  0
    7.0960   -1.1810   20.9880 N   0  0  0  0  0  0  0  0  0  0  0  0
    6.4450   -0.3610   20.1090 C   0  0  0  0  0  0  0  0  0  0  0  0
    5.1840    0.4410   20.4040 C   0  0  0  0  0  0  0  0  0  0  0  0
    4.5500    1.3210   19.3410 C   0  0  0  0  0  0  0  0  0  0  0  0
    5.2980    1.2970   18.0190 C   0  0  0  0  0  0  0  0  0  0  0  0
    6.4120    0.5560   17.8310 N   0  0  0  0  0  0  0  0  0  0  0  0
    6.9370   -0.2130   18.8150 C   0  0  0  0  0  0  0  0  0  0  0  0
   11.6850   -0.8770   22.3860 C   0  0  0  0  0  0  0  0  0  0  0  0
   12.7450   -1.7480   22.1410 C   0  0  0  0  0  0  0  0  0  0  0  0
   12.6940    0.2130   22.6860 C   0  0  0  0  0  0  0  0  0  0  0  0
  1  2  1  0
  2  3  1  0
  3  4  2  0
  3  5  1  0
  5  6  1  0
  6  7  1  0
  7  8  2  0
  8  9  1  0
  9 10  2  0
 10 11  1  0
 11 12  1  0
 12 13  2  0
 12 14  1  0
 14 15  1  0
 15 16  2  0
 16 17  1  0
 17 18  2  0
 18 19  1  0
 15 20  1  0
 19 20  2  0
 10 21  1  0
 21 22  1  0
  7 23  1  0
 21 23  2  0
M  END
