pyridine_urea_4731
     RDKit          3D

 22 24  0  0  0  0  0  0  0  0999 V2000
   13.6600    0.7820   22.7810 C   0  0  0  0  0  0  0  0  0  0  0  0
   12.7930    1.6810   23.2410 N   0  0  0  0  0  0  0  0  0  0  0  0
   12.6980    3.0620   22.7550 C   0  0  0  0  0  0  0  0  0  0  0  0
   13.7550    3.9290   22.3520 O   0  0  0  0  0  0  0  0  0  0  0  0
   11.3050    3.6740   22.6940 C   0  0  0  0  0  0  0  0  0  0  0  0
   10.2720    2.8820   23.1140 C   0  0  0  0  0  0  0  0  0  0  0  0
   10.4490    1.5080   23.0250 C   0  0  0  0  0  0  0  0  0  0  0  0
    9.3800    0.6930   22.8690 C   0  0  0  0  0  0  0  0  0  0  0  0
    9.5240   -0.6790   22.7580 C   0  0  0  0  0  0  0  0  0  0  0  0
    8.3810   -1.3490   22.5700 N   0  0  0  0  0  0  0  0  0  0  0  0
    7.7300   -1.0530   21.4250 C   0  0  0  0  0  0  0  0  0  0  0  0
    8.4890   -0.8110   20.3150 O   0  0  0  0  0  0  0  0  0  0  0  0
    6.4090   -0.9270   21.3330 N   0  0  0  0  0  0  0  0  0  0  0  0
    6.0380   -0.1970   20.2250 C   0  0  0  0  0  0  0  0  0  0  0  0
    4.9250    0.6400   20.3610 C   0  0  0  0  0  0  0  0  0  0  0  0
    4.4970    1.4090   19.2700 C   0  0  0  0  0  0  0  0  0  0  0  0
    5.2510    1.3110   17.9870 C   0  0  0  0  0  0  0  0  0  0  0  0
    6.3160    0.5060   17.8680 N   0  0  0  0  0  0  0  0  0  0  0  0
    6.6810   -0.2190   18.9670 C   0  0  0  0  0  0  0  0  0  0  0  0
   10.7600   -1.3550   22.8040 C   0  0  0  0  0  0  0  0  0  0  0  0
   11.8800   -0.6140   22.9680 C   0  0  0  0  0  0  0  0  0  0  0  0
   11.6650    0.8640   23.0750 C   0  0  0  0  0  0  0  0  0  0  0  0
  1  2  1  0
  2  3  1  0
  3  4  2  0
  3  5  1  0
  5  6  1  0
  6  7  1  0
  7  8  1  0
  8  9  2  0
  9 10  1  0
 10 11  1  0
 11 12  2  0
 11 13  1  0
 13 14  1  0
 14 15  2  0
 15 16  1  0
 16 17  2  0
 17 18  1  0
 14 19  1  0
 18 19  2  0
  9 20  1  0
 20 21  2  0
  2 22  1  0
  7 22  2  0
 21 22  1  0
M  END
