pyridine_urea_668
     RDKit          3D

 24 26  0  0  0  0  0  0  0  0999 V2000
    8.4640    1.5000   20.9120 O   0  0  0  0  0  0  0  0  0  0  0  0
    7.9340    0.5350   21.4780 C   0  0  0  0  0  0  0  0  0  0  0  0
    8.2950    0.1160   22.6960 N   0  0  0  0  0  0  0  0  0  0  0  0
    9.6190   -0.1100   22.8140 C   0  0  0  0  0  0  0  0  0  0  0  0
   10.1820   -1.0790   22.0230 C   0  0  0  0  0  0  0  0  0  0  0  0
   11.4920   -1.3370   22.1010 C   0  0  0  0  0  0  0  0  0  0  0  0
   12.2370   -0.6330   22.9590 C   0  0  0  0  0  0  0  0  0  0  0  0
   13.4650   -1.0230   22.9370 C   0  0  0  0  0  0  0  0  0  0  0  0
   13.4430   -2.5550   23.1130 C   0  0  0  0  0  0  0  0  0  0  0  0
   12.7420   -2.9470   24.3200 N   0  0  0  0  0  0  0  0  0  0  0  0
   13.3700   -2.0810   25.2560 C   0  0  0  0  0  0  0  0  0  0  0  0
   12.6180   -0.9120   25.2590 C   0  0  0  0  0  0  0  0  0  0  0  0
   11.2500   -1.3660   25.0850 O   0  0  0  0  0  0  0  0  0  0  0  0
   11.4070   -2.6030   24.5160 C   0  0  0  0  0  0  0  0  0  0  0  0
   10.4930   -3.3540   24.2020 O   0  0  0  0  0  0  0  0  0  0  0  0
   11.7590    0.3750   23.7840 C   0  0  0  0  0  0  0  0  0  0  0  0
   10.3400    0.6680   23.7200 C   0  0  0  0  0  0  0  0  0  0  0  0
    6.9440   -0.2460   20.9560 N   0  0  0  0  0  0  0  0  0  0  0  0
    6.3510    0.2550   19.9030 C   0  0  0  0  0  0  0  0  0  0  0  0
    5.2310    1.0490   20.1240 C   0  0  0  0  0  0  0  0  0  0  0  0
    4.5960    1.6330   19.0430 C   0  0  0  0  0  0  0  0  0  0  0  0
    5.1200    1.3860   17.7980 C   0  0  0  0  0  0  0  0  0  0  0  0
    6.1730    0.6260   17.5220 N   0  0  0  0  0  0  0  0  0  0  0  0
    6.7900    0.0540   18.6160 C   0  0  0  0  0  0  0  0  0  0  0  0
  1  2  2  0
  2  3  1  0
  3  4  1  0
  4  5  2  0
  5  6  1  0
  6  7  2  0
  7  8  1  0
  8  9  1  0
  9 10  1  0
 10 11  1  0
 11 12  1  0
 12 13  1  0
 10 14  1  0
 13 14  1  0
 14 15  2  0
  7 16  1  0
  4 17  1  0
 16 17  2  0
  2 18  1  0
 18 19  1  0
 19 20  2  0
 20 21  1  0
 21 22  2  0
 22 23  1  0
 19 24  1  0
 23 24  2  0
M  END
