pyridine_urea_10248
     RDKit          3D

 23 24  0  0  0  0  0  0  0  0999 V2000
   13.1070   -1.8680   21.6390 C   0  0  0  0  0  0  0  0  0  0  0  0
   12.0270   -1.3180   22.2800 N   0  0  0  0  0  0  0  0  0  0  0  0
   10.9280   -2.0740   22.7540 C   0  0  0  0  0  0  0  0  0  0  0  0
   11.0120   -3.2950   23.4890 O   0  0  0  0  0  0  0  0  0  0  0  0
    9.6050   -1.7120   22.5240 C   0  0  2  0  0  0  0  0  0  0  0  0
    9.5060   -0.8050   21.4700 N   0  0  0  0  0  0  0  0  0  0  0  0
    8.5140    0.2540   21.3270 C   0  0  0  0  0  0  0  0  0  0  0  0
    8.7820    1.4650   21.2310 O   0  0  0  0  0  0  0  0  0  0  0  0
    7.1290   -0.1540   21.2280 N   0  0  0  0  0  0  0  0  0  0  0  0
    6.5110    0.3100   20.1140 C   0  0  0  0  0  0  0  0  0  0  0  0
    5.3670    1.0570   20.3060 C   0  0  0  0  0  0  0  0  0  0  0  0
    4.6400    1.6280   19.1110 C   0  0  0  0  0  0  0  0  0  0  0  0
    5.1330    1.3980   17.8550 C   0  0  0  0  0  0  0  0  0  0  0  0
    6.2500    0.6520   17.6730 N   0  0  0  0  0  0  0  0  0  0  0  0
    6.8920    0.1400   18.7610 C   0  0  0  0  0  0  0  0  0  0  0  0
    8.8670   -1.4540   23.8110 C   0  0  0  0  0  0  0  0  0  0  0  0
    9.6260   -1.0790   24.8140 C   0  0  0  0  0  0  0  0  0  0  0  0
   10.3710   -1.3790   23.5630 C   0  0  0  0  0  0  0  0  0  0  0  0
    9.5600   -1.8180   22.4950 C   0  0  0  0  0  0  0  0  0  0  0  0
   10.1390   -2.1420   21.3550 F   0  0  0  0  0  0  0  0  0  0  0  0
    8.1150   -1.9330   22.6400 C   0  0  0  0  0  0  0  0  0  0  0  0
    7.3740   -2.3640   21.5930 F   0  0  0  0  0  0  0  0  0  0  0  0
    7.5070   -1.6180   23.8330 C   0  0  0  0  0  0  0  0  0  0  0  0
  1  2  1  0
  2  3  1  0
  3  4  2  0
  3  5  1  0
  5  6  1  6
  6  7  1  0
  7  8  2  0
  7  9  1  0
  9 10  1  0
 10 11  2  0
 11 12  1  0
 12 13  2  0
 13 14  1  0
 10 15  1  0
 14 15  2  0
  5 16  1  0
 16 17  2  0
 17 18  1  0
 18 19  2  0
 19 20  1  0
 19 21  1  0
 21 22  1  0
 16 23  1  0
 21 23  2  0
M  END
