pyridine_urea_1392
     RDKit          3D

 20 21  0  0  0  0  0  0  0  0999 V2000
    8.6850    0.8110   21.2520 O   0  0  0  0  0  0  0  0  0  0  0  0
    8.1490   -0.2540   21.5260 C   0  0  0  0  0  0  0  0  0  0  0  0
    8.6830   -1.1000   22.4430 N   0  0  0  0  0  0  0  0  0  0  0  0
    9.5640   -0.4580   23.3640 C   0  0  0  0  0  0  0  0  0  0  0  0
   10.7740    0.0490   22.6080 C   0  0  0  0  0  0  0  0  0  0  0  0
   11.6410   -1.3180   21.8730 S   0  0  0  0  0  0  0  0  0  0  0  0
   10.6570   -2.3600   21.7120 O   0  0  0  0  0  0  0  0  0  0  0  0
   12.4800   -1.6930   23.3380 C   0  0  0  0  0  0  0  0  0  0  0  0
   12.9760   -2.9010   23.4230 C   0  0  0  0  0  0  0  0  0  0  0  0
   13.6090   -3.2150   24.6100 C   0  0  0  0  0  0  0  0  0  0  0  0
   13.7450   -2.3950   25.6110 C   0  0  0  0  0  0  0  0  0  0  0  0
   13.2370   -1.1930   25.4600 C   0  0  0  0  0  0  0  0  0  0  0  0
   12.6180   -0.8660   24.3240 C   0  0  0  0  0  0  0  0  0  0  0  0
    6.9870   -0.7110   20.9960 N   0  0  0  0  0  0  0  0  0  0  0  0
    6.3970   -0.0530   19.9520 C   0  0  0  0  0  0  0  0  0  0  0  0
    5.2710    0.6830   20.3260 C   0  0  0  0  0  0  0  0  0  0  0  0
    4.6110    1.4320   19.2130 C   0  0  0  0  0  0  0  0  0  0  0  0
    5.1100    1.3730   17.9330 C   0  0  0  0  0  0  0  0  0  0  0  0
    6.2000    0.6390   17.6170 N   0  0  0  0  0  0  0  0  0  0  0  0
    6.8350   -0.0740   18.6500 C   0  0  0  0  0  0  0  0  0  0  0  0
  1  2  2  0
  2  3  1  0
  3  4  1  0
  4  5  1  0
  6  5  1  1
  6  7  2  0
  6  8  1  0
  8  9  2  0
  9 10  1  0
 10 11  2  0
 11 12  1  0
  8 13  1  0
 12 13  2  0
  2 14  1  0
 14 15  1  0
 15 16  2  0
 16 17  1  0
 17 18  2  0
 18 19  1  0
 15 20  1  0
 19 20  2  0
M  END
