pyridine_urea_3060
     RDKit          3D

 21 22  0  0  0  0  0  0  0  0999 V2000
   13.1200   -2.2380   21.0350 C   0  0  0  0  0  0  0  0  0  0  0  0
   12.6420   -1.9250   22.2660 N   0  0  0  0  0  0  0  0  0  0  0  0
   13.0580   -2.4870   23.4980 C   0  0  0  0  0  0  0  0  0  0  0  0
   11.1700   -1.7990   22.1390 C   0  0  0  0  0  0  0  0  0  0  0  0
   10.6010   -0.6170   22.5950 C   0  0  1  0  0  0  0  0  0  0  0  0
    9.1370   -0.6200   22.5170 N   0  0  0  0  0  0  0  0  0  0  0  0
    8.5180    0.1570   21.5610 C   0  0  0  0  0  0  0  0  0  0  0  0
    8.9490    1.2700   21.2290 O   0  0  0  0  0  0  0  0  0  0  0  0
    7.3890   -0.4550   21.0670 N   0  0  0  0  0  0  0  0  0  0  0  0
    6.6170    0.1230   20.0530 C   0  0  0  0  0  0  0  0  0  0  0  0
    5.4580    0.8190   20.3890 C   0  0  0  0  0  0  0  0  0  0  0  0
    4.6500    1.4590   19.2580 C   0  0  0  0  0  0  0  0  0  0  0  0
    5.1400    1.2960   17.9750 C   0  0  0  0  0  0  0  0  0  0  0  0
    6.2570    0.6070   17.7020 N   0  0  0  0  0  0  0  0  0  0  0  0
    6.9540    0.0480   18.7200 C   0  0  0  0  0  0  0  0  0  0  0  0
   11.0560   -0.4900   24.0090 C   0  0  0  0  0  0  0  0  0  0  0  0
   10.4180   -0.8010   24.9810 C   0  0  0  0  0  0  0  0  0  0  0  0
   11.7300   -0.2730   24.7900 C   0  0  0  0  0  0  0  0  0  0  0  0
   11.5560   -0.2220   23.2000 C   0  0  0  0  0  0  0  0  0  0  0  0
   12.7870    0.2530   23.4070 C   0  0  0  0  0  0  0  0  0  0  0  0
   12.3580    0.0030   24.5000 C   0  0  0  0  0  0  0  0  0  0  0  0
  1  2  1  0
  2  3  1  0
  2  4  1  0
  5  4  1  1
  5  6  1  0
  6  7  1  0
  7  8  2  0
  7  9  1  0
  9 10  1  0
 10 11  2  0
 11 12  1  0
 12 13  2  0
 13 14  1  0
 10 15  1  0
 14 15  2  0
  5 16  1  0
 16 17  2  0
 17 18  1  0
 18 19  2  0
 19 20  1  0
 16 21  1  0
 20 21  2  0
M  END
