pyridine_urea_12474
     RDKit          3D

 22 23  0  0  0  0  0  0  0  0999 V2000
    8.8440    1.2460   21.1310 O   0  0  0  0  0  0  0  0  0  0  0  0
    8.4070    0.1480   21.4920 C   0  0  0  0  0  0  0  0  0  0  0  0
    8.9940   -0.5560   22.5030 N   0  0  0  0  0  0  0  0  0  0  0  0
    9.6850    0.2540   23.4750 C   0  0  0  0  0  0  0  0  0  0  0  0
   11.2030   -0.0190   23.6170 C   0  0  0  0  0  0  0  0  0  0  0  0
   11.5800   -0.5300   24.8600 C   0  0  0  0  0  0  0  0  0  0  0  0
   11.8420   -2.2200   24.8320 S   0  0  0  0  0  0  0  0  0  0  0  0
   13.0110   -2.6040   25.5910 O   0  0  0  0  0  0  0  0  0  0  0  0
   10.6150   -2.9610   24.6820 O   0  0  0  0  0  0  0  0  0  0  0  0
   12.4080   -1.8520   23.2820 C   0  0  0  0  0  0  0  0  0  0  0  0
   12.2230   -2.5720   22.2110 C   0  0  0  0  0  0  0  0  0  0  0  0
   12.7390   -2.2550   20.8830 C   0  0  0  0  0  0  0  0  0  0  0  0
   13.5380   -0.9990   20.6770 C   0  0  0  0  0  0  0  0  0  0  0  0
   13.6660   -0.2010   21.9870 C   0  0  0  0  0  0  0  0  0  0  0  0
   13.0920   -0.6810   23.2720 C   0  0  0  0  0  0  0  0  0  0  0  0
    7.3080   -0.4950   20.9940 N   0  0  0  0  0  0  0  0  0  0  0  0
    6.5670    0.0900   19.9770 C   0  0  0  0  0  0  0  0  0  0  0  0
    5.3030    0.8580   20.3110 C   0  0  0  0  0  0  0  0  0  0  0  0
    4.6050    1.4510   19.2690 C   0  0  0  0  0  0  0  0  0  0  0  0
    5.1080    1.3030   17.9800 C   0  0  0  0  0  0  0  0  0  0  0  0
    6.2190    0.6140   17.6740 N   0  0  0  0  0  0  0  0  0  0  0  0
    6.9210    0.0260   18.6610 C   0  0  0  0  0  0  0  0  0  0  0  0
  1  2  2  0
  2  3  1  0
  3  4  1  0
  4  5  1  0
  5  6  1  0
  7  6  1  0
  7  8  2  0
  7  9  2  0
  7 10  1  0
 10 11  2  0
 11 12  1  0
 12 13  2  0
 13 14  1  0
 10 15  1  0
 14 15  2  0
  2 16  1  0
 16 17  1  0
 17 18  2  0
 18 19  1  0
 19 20  2  0
 20 21  1  0
 17 22  1  0
 21 22  2  0
M  END
