pyridine_urea_9860
     RDKit          3D

 25 26  0  0  0  0  0  0  0  0999 V2000
   11.3570   -3.7710   24.9290 O   0  0  0  0  0  0  0  0  0  0  0  0
   10.8760   -3.5410   23.8750 C   0  0  0  0  0  0  0  0  0  0  0  0
    9.4100   -3.6860   23.4620 C   0  0  0  0  0  0  0  0  0  0  0  0
    9.2520   -2.8480   22.2940 N   0  0  0  0  0  0  0  0  0  0  0  0
   10.2730   -1.9380   22.0870 C   0  0  0  0  0  0  0  0  0  0  0  0
   11.2830   -2.2830   21.2390 O   0  0  0  0  0  0  0  0  0  0  0  0
   10.1900   -0.6650   22.8790 C   0  0  0  0  0  0  0  0  0  0  0  0
    8.8640   -0.1210   22.9060 N   0  0  0  0  0  0  0  0  0  0  0  0
    8.3970    0.4540   21.7270 C   0  0  0  0  0  0  0  0  0  0  0  0
    8.9350    1.4520   21.2360 O   0  0  0  0  0  0  0  0  0  0  0  0
    7.3070   -0.2130   21.2070 N   0  0  0  0  0  0  0  0  0  0  0  0
    6.5800    0.2450   20.1020 C   0  0  0  0  0  0  0  0  0  0  0  0
    5.3220    1.0710   20.3730 C   0  0  0  0  0  0  0  0  0  0  0  0
    4.6530    1.5210   19.2350 C   0  0  0  0  0  0  0  0  0  0  0  0
    5.1370    1.2110   17.9740 C   0  0  0  0  0  0  0  0  0  0  0  0
    6.2290    0.4810   17.7360 N   0  0  0  0  0  0  0  0  0  0  0  0
    6.9260    0.0100   18.7870 C   0  0  0  0  0  0  0  0  0  0  0  0
   11.7020   -3.1180   22.9720 N   0  0  0  0  0  0  0  0  0  0  0  0
   12.8910   -2.7380   23.3670 C   0  0  0  0  0  0  0  0  0  0  0  0
   13.0580   -1.5200   23.0370 C   0  0  0  0  0  0  0  0  0  0  0  0
   13.5140   -1.2320   21.7130 C   0  0  0  0  0  0  0  0  0  0  0  0
   13.6690    0.0800   21.5030 C   0  0  0  0  0  0  0  0  0  0  0  0
   13.3950    1.1190   22.4550 C   0  0  0  0  0  0  0  0  0  0  0  0
   12.9630    0.7350   23.6120 C   0  0  0  0  0  0  0  0  0  0  0  0
   12.7960   -0.5650   23.9240 C   0  0  0  0  0  0  0  0  0  0  0  0
  1  2  2  0
  2  3  1  0
  3  4  1  0
  4  5  1  0
  5  6  2  0
  5  7  1  0
  7  8  1  0
  8  9  1  0
  9 10  2  0
  9 11  1  0
 11 12  1  0
 12 13  2  0
 13 14  1  0
 14 15  2  0
 15 16  1  0
 12 17  1  0
 16 17  2  0
  2 18  1  0
 18 19  1  0
 19 20  1  0
 20 21  2  0
 21 22  1  0
 22 23  2  0
 23 24  1  0
 20 25  1  0
 24 25  2  0
M  END
