pyridine_urea_11051
     RDKit          3D

 18 18  0  0  0  0  0  0  0  0999 V2000
    6.9280   -6.2430   22.5280 C   0  0  0  0  0  0  0  0  0  0  0  0
    7.5340   -5.1850   23.4070 C   0  0  0  0  0  0  0  0  0  0  0  0
    8.3210   -4.2170   22.6500 N   0  0  0  0  0  0  0  0  0  0  0  0
    8.3750   -2.8790   23.0260 C   0  0  0  0  0  0  0  0  0  0  0  0
    9.4590   -2.1220   22.5480 C   0  0  1  0  0  0  0  0  0  0  0  0
    9.1600   -0.6890   22.6420 N   0  0  0  0  0  0  0  0  0  0  0  0
    8.5640    0.0220   21.5970 C   0  0  0  0  0  0  0  0  0  0  0  0
    9.0530    1.1130   21.2640 O   0  0  0  0  0  0  0  0  0  0  0  0
    7.4410   -0.5880   21.0670 N   0  0  0  0  0  0  0  0  0  0  0  0
    6.6180    0.0480   20.1200 C   0  0  0  0  0  0  0  0  0  0  0  0
    5.3490    0.8250   20.4030 C   0  0  0  0  0  0  0  0  0  0  0  0
    4.6080    1.4580   19.2420 C   0  0  0  0  0  0  0  0  0  0  0  0
    5.1580    1.2710   17.9930 C   0  0  0  0  0  0  0  0  0  0  0  0
    6.2880    0.5650   17.7590 N   0  0  0  0  0  0  0  0  0  0  0  0
    6.9680   -0.0100   18.7840 C   0  0  0  0  0  0  0  0  0  0  0  0
   10.6700   -2.4800   23.1360 C   0  0  0  0  0  0  0  0  0  0  0  0
   11.2210   -1.8050   24.2180 C   0  0  0  0  0  0  0  0  0  0  0  0
   12.0070   -1.7990   22.8840 C   0  0  0  0  0  0  0  0  0  0  0  0
  1  2  1  0
  2  3  1  0
  3  4  1  0
  5  4  1  1
  5  6  1  0
  6  7  1  0
  7  8  2  0
  7  9  1  0
  9 10  1  0
 10 11  2  0
 11 12  1  0
 12 13  2  0
 13 14  1  0
 10 15  1  0
 14 15  2  0
  5 16  1  0
 16 17  1  0
 16 18  1  0
M  END
