pyridine_urea_5814
     RDKit          3D

 24 26  0  0  0  0  0  0  0  0999 V2000
   13.4040   -1.9230   20.8110 C   0  0  0  0  0  0  0  0  0  0  0  0
   13.9170   -1.4950   22.0260 O   0  0  0  0  0  0  0  0  0  0  0  0
   13.2520   -0.4710   22.4840 C   0  0  0  0  0  0  0  0  0  0  0  0
   13.6350    0.6800   22.5250 O   0  0  0  0  0  0  0  0  0  0  0  0
   12.0980   -0.8840   22.9600 C   0  0  0  0  0  0  0  0  0  0  0  0
   10.9180   -1.2220   22.2110 C   0  0  0  0  0  0  0  0  0  0  0  0
    9.6740   -1.6690   22.8030 C   0  0  0  0  0  0  0  0  0  0  0  0
    9.4640   -1.8330   24.2920 C   0  0  0  0  0  0  0  0  0  0  0  0
   10.8040   -1.4390   24.8230 C   0  0  0  0  0  0  0  0  0  0  0  0
   10.6970   -1.3840   23.3400 C   0  0  0  0  0  0  0  0  0  0  0  0
   10.2930   -0.1700   22.8160 C   0  0  0  0  0  0  0  0  0  0  0  0
    8.9070   -0.1280   22.6150 N   0  0  0  0  0  0  0  0  0  0  0  0
    8.3620    0.4620   21.5130 C   0  0  0  0  0  0  0  0  0  0  0  0
    8.7770    1.5260   21.0520 O   0  0  0  0  0  0  0  0  0  0  0  0
    7.3030   -0.2700   21.0060 N   0  0  0  0  0  0  0  0  0  0  0  0
    6.5080    0.2660   20.0430 C   0  0  0  0  0  0  0  0  0  0  0  0
    5.3330    0.9560   20.2680 C   0  0  0  0  0  0  0  0  0  0  0  0
    4.6550    1.4660   19.1950 C   0  0  0  0  0  0  0  0  0  0  0  0
    5.1310    1.2960   17.9150 C   0  0  0  0  0  0  0  0  0  0  0  0
    6.2580    0.6200   17.6640 N   0  0  0  0  0  0  0  0  0  0  0  0
    6.9130    0.1240   18.7280 C   0  0  0  0  0  0  0  0  0  0  0  0
   11.2990   -2.3360   22.6220 C   0  0  0  0  0  0  0  0  0  0  0  0
   10.0500   -2.6800   22.7720 C   0  0  0  0  0  0  0  0  0  0  0  0
   12.1160   -0.9830   24.2860 C   0  0  0  0  0  0  0  0  0  0  0  0
  1  2  1  0
  2  3  1  0
  3  4  2  0
  3  5  1  0
  5  6  2  0
  6  7  1  0
  7  8  2  0
  8  9  1  0
  9 10  1  0
 10 11  1  0
 11 12  1  0
 12 13  1  0
 13 14  2  0
 13 15  1  0
 15 16  1  0
 16 17  2  0
 17 18  1  0
 18 19  2  0
 19 20  1  0
 16 21  1  0
 20 21  2  0
 10 22  1  0
 10 23  1  0
 22 23  1  0
  5 24  1  0
  9 24  2  0
M  END
