pyridine_urea_4636
     RDKit          3D

 22 23  0  0  0  0  0  0  0  0999 V2000
   12.4210    3.6460   22.6080 C   0  0  0  0  0  0  0  0  0  0  0  0
   11.8770    2.3310   22.5590 O   0  0  0  0  0  0  0  0  0  0  0  0
   11.6540    1.6610   23.7300 C   0  0  0  0  0  0  0  0  0  0  0  0
   10.7230    2.0160   24.4360 O   0  0  0  0  0  0  0  0  0  0  0  0
   12.5510    0.5480   24.0600 N   0  0  0  0  0  0  0  0  0  0  0  0
   13.1520   -0.0760   23.0320 C   0  0  0  0  0  0  0  0  0  0  0  0
   12.1450   -0.7140   22.3380 C   0  0  0  0  0  0  0  0  0  0  0  0
   11.2970   -1.5930   22.9830 C   0  0  0  0  0  0  0  0  0  0  0  0
    9.9490   -1.2030   22.8710 C   0  0  1  0  0  0  0  0  0  0  0  0
    9.7160    0.0640   23.4070 C   0  0  0  0  0  0  0  0  0  0  0  0
    9.3590   -1.0680   21.6230 N   0  0  0  0  0  0  0  0  0  0  0  0
    8.4670   -0.0660   21.3170 C   0  0  0  0  0  0  0  0  0  0  0  0
    8.8420    1.3130   21.1510 O   0  0  0  0  0  0  0  0  0  0  0  0
    7.1900   -0.4840   21.1550 N   0  0  0  0  0  0  0  0  0  0  0  0
    6.5170    0.0880   20.1250 C   0  0  0  0  0  0  0  0  0  0  0  0
    5.3410    0.7950   20.4210 C   0  0  0  0  0  0  0  0  0  0  0  0
    4.6570    1.3990   19.3620 C   0  0  0  0  0  0  0  0  0  0  0  0
    5.1890    1.2740   17.9850 C   0  0  0  0  0  0  0  0  0  0  0  0
    6.3050    0.5900   17.7330 N   0  0  0  0  0  0  0  0  0  0  0  0
    6.9370    0.0160   18.7940 C   0  0  0  0  0  0  0  0  0  0  0  0
   11.6900   -1.6500   24.3130 C   0  0  0  0  0  0  0  0  0  0  0  0
   11.9960   -0.4410   24.8500 C   0  0  0  0  0  0  0  0  0  0  0  0
  1  2  1  0
  2  3  1  0
  3  4  2  0
  3  5  1  0
  5  6  1  0
  6  7  1  0
  7  8  1  0
  8  9  1  0
  9 10  1  6
  9 11  1  0
 11 12  1  0
 12 13  2  0
 12 14  1  0
 14 15  1  0
 15 16  2  0
 16 17  1  0
 17 18  2  0
 18 19  1  0
 15 20  1  0
 19 20  2  0
  8 21  1  0
  5 22  1  0
 21 22  1  0
M  END
