pyridine_urea_11010
     RDKit          3D

 19 20  0  0  0  0  0  0  0  0999 V2000
    9.3940   -5.6260   24.9410 C   0  0  0  0  0  0  0  0  0  0  0  0
    9.1640   -5.8910   26.7160 S   0  0  0  0  0  0  0  0  0  0  0  0
    7.9770   -4.6120   27.0220 C   0  0  0  0  0  0  0  0  0  0  0  0
    8.0300   -3.4660   26.2210 C   0  0  0  0  0  0  0  0  0  0  0  0
    8.0000   -3.6850   24.7920 N   0  0  0  0  0  0  0  0  0  0  0  0
    8.0700   -2.4510   24.3180 C   0  0  0  0  0  0  0  0  0  0  0  0
    8.0740   -2.0900   22.9620 C   0  0  0  0  0  0  0  0  0  0  0  0
    8.9450   -1.1490   22.5380 N   0  0  0  0  0  0  0  0  0  0  0  0
    8.4120   -0.2760   21.6390 C   0  0  0  0  0  0  0  0  0  0  0  0
    8.9770    0.7860   21.4140 O   0  0  0  0  0  0  0  0  0  0  0  0
    7.2560   -0.6550   21.0570 N   0  0  0  0  0  0  0  0  0  0  0  0
    6.5500    0.0260   19.9980 C   0  0  0  0  0  0  0  0  0  0  0  0
    5.3080    0.8600   20.3310 C   0  0  0  0  0  0  0  0  0  0  0  0
    4.6560    1.5160   19.2830 C   0  0  0  0  0  0  0  0  0  0  0  0
    5.1520    1.3910   17.9850 C   0  0  0  0  0  0  0  0  0  0  0  0
    6.2580    0.6460   17.6590 N   0  0  0  0  0  0  0  0  0  0  0  0
    6.9610   -0.0480   18.7000 C   0  0  0  0  0  0  0  0  0  0  0  0
    8.1390   -1.4670   25.3190 N   0  0  0  0  0  0  0  0  0  0  0  0
    8.1110   -2.1210   26.5350 N   0  0  0  0  0  0  0  0  0  0  0  0
  1  2  1  0
  2  3  1  0
  3  4  1  0
  4  5  2  0
  5  6  1  0
  6  7  1  0
  7  8  1  0
  8  9  1  0
  9 10  2  0
  9 11  1  0
 11 12  1  0
 12 13  2  0
 13 14  1  0
 14 15  2  0
 15 16  1  0
 12 17  1  0
 16 17  2  0
  6 18  2  0
  4 19  1  0
 18 19  1  0
M  END
