pyridine_urea_2896
     RDKit          3D

 22 24  0  0  0  0  0  0  0  0999 V2000
   12.7460    3.3480   22.6090 C   0  0  0  0  0  0  0  0  0  0  0  0
   12.4250    1.8570   22.7890 C   0  0  0  0  0  0  0  0  0  0  0  0
   13.5670    0.8060   22.7120 C   0  0  0  0  0  0  0  0  0  0  0  0
   13.3510   -0.5470   22.8610 C   0  0  0  0  0  0  0  0  0  0  0  0
   11.9760   -0.9970   23.1160 C   0  0  0  0  0  0  0  0  0  0  0  0
   11.0210   -0.0220   23.1740 C   0  0  0  0  0  0  0  0  0  0  0  0
    9.9060   -0.3020   23.3820 O   0  0  0  0  0  0  0  0  0  0  0  0
    9.2670    0.8620   23.3660 C   0  0  0  0  0  0  0  0  0  0  0  0
    7.8490    0.5280   23.6200 C   0  0  0  0  0  0  0  0  0  0  0  0
    8.0910   -0.9890   23.5590 C   0  0  0  0  0  0  0  0  0  0  0  0
    8.7110   -1.1580   22.2700 N   0  0  0  0  0  0  0  0  0  0  0  0
    8.3050   -0.2310   21.3560 C   0  0  0  0  0  0  0  0  0  0  0  0
    8.9030    0.9950   21.1040 O   0  0  0  0  0  0  0  0  0  0  0  0
    7.1270   -0.7060   20.7700 N   0  0  0  0  0  0  0  0  0  0  0  0
    6.4330    0.0160   19.8350 C   0  0  0  0  0  0  0  0  0  0  0  0
    5.1200    0.7000   20.1770 C   0  0  0  0  0  0  0  0  0  0  0  0
    4.5010    1.4210   19.1680 C   0  0  0  0  0  0  0  0  0  0  0  0
    5.1260    1.4660   17.9210 C   0  0  0  0  0  0  0  0  0  0  0  0
    6.2820    0.8610   17.6000 N   0  0  0  0  0  0  0  0  0  0  0  0
    6.8800    0.1650   18.5660 C   0  0  0  0  0  0  0  0  0  0  0  0
    9.8870    2.0390   23.1470 N   0  0  0  0  0  0  0  0  0  0  0  0
   11.1800    1.3730   23.0160 C   0  0  0  0  0  0  0  0  0  0  0  0
  1  2  1  0
  2  3  2  0
  3  4  1  0
  4  5  2  0
  5  6  1  0
  6  7  1  0
  7  8  1  0
  8  9  1  0
  9 10  1  0
 10 11  1  0
 11 12  1  0
 12 13  2  0
 12 14  1  0
 14 15  1  0
 15 16  2  0
 16 17  1  0
 17 18  2  0
 18 19  1  0
 15 20  1  0
 19 20  2  0
  8 21  2  0
  2 22  1  0
  6 22  2  0
 21 22  1  0
M  END
