pyridine_urea_10873
     RDKit          3D

 20 21  0  0  0  0  0  0  0  0999 V2000
   13.3330   -1.1230   21.7240 C   0  0  0  0  0  0  0  0  0  0  0  0
   13.0110   -2.5550   21.8140 C   0  0  0  0  0  0  0  0  0  0  0  0
   13.4870   -3.0040   22.8530 O   0  0  0  0  0  0  0  0  0  0  0  0
   13.1610   -2.3100   23.9650 C   0  0  0  0  0  0  0  0  0  0  0  0
   12.3770   -1.2360   23.5670 C   0  0  0  0  0  0  0  0  0  0  0  0
   12.8990    0.0450   23.4340 C   0  0  0  0  0  0  0  0  0  0  0  0
   12.1420    1.2510   23.0240 C   0  0  0  0  0  0  0  0  0  0  0  0
   10.6780    1.0030   22.7420 C   0  0  0  0  0  0  0  0  0  0  0  0
   10.1900   -0.4280   22.8990 C   0  0  0  0  0  0  0  0  0  0  0  0
    8.7960   -0.5910   22.5980 N   0  0  0  0  0  0  0  0  0  0  0  0
    8.3230    0.1520   21.5530 C   0  0  0  0  0  0  0  0  0  0  0  0
    8.8290    1.2120   21.1580 O   0  0  0  0  0  0  0  0  0  0  0  0
    7.2010   -0.4280   21.0250 N   0  0  0  0  0  0  0  0  0  0  0  0
    6.5010    0.1570   19.9800 C   0  0  0  0  0  0  0  0  0  0  0  0
    5.3400    0.8780   20.2590 C   0  0  0  0  0  0  0  0  0  0  0  0
    4.6540    1.4800   19.2170 C   0  0  0  0  0  0  0  0  0  0  0  0
    5.1520    1.3390   17.9420 C   0  0  0  0  0  0  0  0  0  0  0  0
    6.2580    0.6420   17.6550 N   0  0  0  0  0  0  0  0  0  0  0  0
    6.9070    0.0680   18.6780 C   0  0  0  0  0  0  0  0  0  0  0  0
   11.0330   -1.4530   23.2910 C   0  0  0  0  0  0  0  0  0  0  0  0
  1  2  1  0
  2  3  1  0
  3  4  1  0
  4  5  1  0
  5  6  2  0
  6  7  1  0
  7  8  2  0
  8  9  1  0
  9 10  1  0
 10 11  1  0
 11 12  2  0
 11 13  1  0
 13 14  1  0
 14 15  2  0
 15 16  1  0
 16 17  2  0
 17 18  1  0
 14 19  1  0
 18 19  2  0
  5 20  1  0
  9 20  2  0
M  END
