pyridine_urea_7651
     RDKit          3D

 17 18  0  0  0  0  0  0  0  0999 V2000
    8.6020    1.0010   21.4230 O   0  0  0  0  0  0  0  0  0  0  0  0
    8.1920   -0.1290   21.6500 C   0  0  0  0  0  0  0  0  0  0  0  0
    7.0480   -0.6620   21.1230 N   0  0  0  0  0  0  0  0  0  0  0  0
    6.4120   -0.0200   20.0500 C   0  0  0  0  0  0  0  0  0  0  0  0
    5.2240    0.6790   20.2750 C   0  0  0  0  0  0  0  0  0  0  0  0
    4.5980    1.3360   19.2160 C   0  0  0  0  0  0  0  0  0  0  0  0
    5.1850    1.2710   17.9700 C   0  0  0  0  0  0  0  0  0  0  0  0
    6.3210    0.6020   17.7350 N   0  0  0  0  0  0  0  0  0  0  0  0
    6.9050   -0.0270   18.7680 C   0  0  0  0  0  0  0  0  0  0  0  0
    8.9090   -0.9790   22.4520 N   0  0  0  0  0  0  0  0  0  0  0  0
   10.3220   -0.7650   22.1730 C   0  0  1  0  0  0  0  0  0  0  0  0
   10.7700    0.4820   22.7890 C   0  0  0  0  0  0  0  0  0  0  0  0
   12.0570   -0.0160   22.7960 C   0  0  1  0  0  0  0  0  0  0  0  0
   12.7260   -0.0160   23.9650 C   0  0  0  0  0  0  0  0  0  0  0  0
   12.1940   -0.7500   24.9910 C   0  0  0  0  0  0  0  0  0  0  0  0
   10.8350   -0.4060   25.1990 O   0  0  0  0  0  0  0  0  0  0  0  0
   11.4880   -1.4950   22.4500 C   0  0  0  0  0  0  0  0  0  0  0  0
  1  2  2  0
  2  3  1  0
  3  4  1  0
  4  5  2  0
  5  6  1  0
  6  7  2  0
  7  8  1  0
  4  9  1  0
  8  9  2  0
  2 10  1  0
 11 10  1  1
 11 12  1  0
 12 13  1  0
 13 14  1  1
 14 15  1  0
 15 16  1  0
 11 17  1  0
 13 17  1  0
M  END
