pyridine_urea_7229
     RDKit          3D

 18 19  0  0  0  0  0  0  0  0999 V2000
    9.0070    1.2990   21.2050 O   0  0  0  0  0  0  0  0  0  0  0  0
    8.5270    0.2280   21.5930 C   0  0  0  0  0  0  0  0  0  0  0  0
    7.4440   -0.4180   21.0070 N   0  0  0  0  0  0  0  0  0  0  0  0
    6.5910    0.1730   20.0610 C   0  0  0  0  0  0  0  0  0  0  0  0
    5.4240    0.8830   20.3450 C   0  0  0  0  0  0  0  0  0  0  0  0
    4.6830    1.4370   19.3000 C   0  0  0  0  0  0  0  0  0  0  0  0
    5.1380    1.2610   18.0140 C   0  0  0  0  0  0  0  0  0  0  0  0
    6.2490    0.5760   17.7090 N   0  0  0  0  0  0  0  0  0  0  0  0
    6.9390    0.0530   18.7340 C   0  0  0  0  0  0  0  0  0  0  0  0
    8.9870   -0.4900   22.6910 N   0  0  0  0  0  0  0  0  0  0  0  0
   10.2680   -1.0530   22.9010 C   0  0  1  0  0  0  0  0  0  0  0  0
   10.6590   -1.9530   21.9360 C   0  0  0  0  0  0  0  0  0  0  0  0
   11.1980   -2.8800   22.5190 O   0  0  0  0  0  0  0  0  0  0  0  0
   11.3490   -0.0620   23.2700 C   0  0  1  0  0  0  0  0  0  0  0  0
   12.2740   -0.6780   24.1190 C   0  0  0  0  0  0  0  0  0  0  0  0
   13.0590   -1.4030   23.3380 C   0  0  0  0  0  0  0  0  0  0  0  0
   13.1210   -0.5380   22.2070 C   0  0  0  0  0  0  0  0  0  0  0  0
   12.1390    0.1960   22.1710 O   0  0  0  0  0  0  0  0  0  0  0  0
  1  2  2  0
  2  3  1  0
  3  4  1  0
  4  5  2  0
  5  6  1  0
  6  7  2  0
  7  8  1  0
  4  9  1  0
  8  9  2  0
  2 10  1  0
 10 11  1  0
 11 12  1  6
 12 13  1  0
 11 14  1  0
 14 15  1  1
 15 16  1  0
 16 17  1  0
 14 18  1  0
 17 18  1  0
M  END
