pyridine_urea_1112
     RDKit          3D

 21 22  0  0  0  0  0  0  0  0999 V2000
    8.9800    3.0330   22.1540 C   0  0  0  0  0  0  0  0  0  0  0  0
   10.0140    2.8990   23.1200 O   0  0  0  0  0  0  0  0  0  0  0  0
   10.7620    1.7710   22.9850 C   0  0  0  0  0  0  0  0  0  0  0  0
   10.1890    0.5610   22.9120 C   0  0  0  0  0  0  0  0  0  0  0  0
   10.9710   -0.5580   22.7740 C   0  0  0  0  0  0  0  0  0  0  0  0
   10.2840   -1.7530   22.6830 C   0  0  0  0  0  0  0  0  0  0  0  0
    8.8780   -1.6240   22.3780 N   0  0  0  0  0  0  0  0  0  0  0  0
    8.3830   -0.6150   21.5420 C   0  0  0  0  0  0  0  0  0  0  0  0
    8.9330    0.4320   21.2550 O   0  0  0  0  0  0  0  0  0  0  0  0
    7.1310   -0.9040   21.0360 N   0  0  0  0  0  0  0  0  0  0  0  0
    6.4370   -0.1410   20.0750 C   0  0  0  0  0  0  0  0  0  0  0  0
    5.1610    0.6630   20.3040 C   0  0  0  0  0  0  0  0  0  0  0  0
    4.6170    1.3600   19.2470 C   0  0  0  0  0  0  0  0  0  0  0  0
    5.2380    1.3170   18.0030 C   0  0  0  0  0  0  0  0  0  0  0  0
    6.3680    0.6110   17.7700 N   0  0  0  0  0  0  0  0  0  0  0  0
    6.9320   -0.0910   18.7840 C   0  0  0  0  0  0  0  0  0  0  0  0
   12.5560   -0.5710   22.7120 C   0  0  0  0  0  0  0  0  0  0  0  0
   12.9540    0.7650   22.8060 C   0  0  0  0  0  0  0  0  0  0  0  0
   12.1230    1.8830   22.9270 C   0  0  0  0  0  0  0  0  0  0  0  0
   12.7020    3.1500   22.9780 C   0  0  0  0  0  0  0  0  0  0  0  0
   12.3760    4.1800   22.1310 N   0  0  0  0  0  0  0  0  0  0  0  0
  1  2  1  0
  2  3  1  0
  3  4  2  0
  4  5  1  0
  5  6  1  0
  6  7  1  0
  7  8  1  0
  8  9  2  0
  8 10  1  0
 10 11  1  0
 11 12  2  0
 12 13  1  0
 13 14  2  0
 14 15  1  0
 11 16  1  0
 15 16  2  0
  5 17  2  0
 17 18  1  0
  3 19  1  0
 18 19  2  0
 19 20  1  0
 20 21  3  0
M  END
