pyridine_urea_12599
     RDKit          3D

 21 22  0  0  0  0  0  0  0  0999 V2000
    8.8070    0.5660   21.3710 O   0  0  0  0  0  0  0  0  0  0  0  0
    8.1360   -0.4480   21.5160 C   0  0  0  0  0  0  0  0  0  0  0  0
    8.5330   -1.5340   22.2410 N   0  0  0  0  0  0  0  0  0  0  0  0
    9.6980   -1.4040   23.0620 C   0  0  0  0  0  0  0  0  0  0  0  0
    9.4480   -0.6250   24.3970 C   0  0  0  0  0  0  0  0  0  0  0  0
   10.5760   -0.1090   24.9500 C   0  0  0  0  0  0  0  0  0  0  0  0
   11.6180   -0.1440   23.8840 C   0  0  0  0  0  0  0  0  0  0  0  0
   12.4020    0.4990   23.0710 C   0  0  0  0  0  0  0  0  0  0  0  0
   12.4880    2.2170   22.9960 Cl  0  0  0  0  0  0  0  0  0  0  0  0
   13.1860   -0.6820   22.1730 C   0  0  0  0  0  0  0  0  0  0  0  0
   13.2080   -2.3820   22.0620 C   0  0  0  0  0  0  0  0  0  0  0  0
   12.2130   -2.3190   23.1450 C   0  0  0  0  0  0  0  0  0  0  0  0
   12.1780   -1.0110   23.2620 C   0  0  0  0  0  0  0  0  0  0  0  0
   13.3020   -0.3830   22.1780 Cl  0  0  0  0  0  0  0  0  0  0  0  0
    6.8930   -0.6920   21.0120 N   0  0  0  0  0  0  0  0  0  0  0  0
    6.3290    0.0010   19.9520 C   0  0  0  0  0  0  0  0  0  0  0  0
    5.0430    0.7770   20.1640 C   0  0  0  0  0  0  0  0  0  0  0  0
    4.5130    1.4640   19.0860 C   0  0  0  0  0  0  0  0  0  0  0  0
    5.1840    1.4050   17.8670 C   0  0  0  0  0  0  0  0  0  0  0  0
    6.3250    0.7130   17.6710 N   0  0  0  0  0  0  0  0  0  0  0  0
    6.8670    0.0350   18.6960 C   0  0  0  0  0  0  0  0  0  0  0  0
  1  2  2  0
  2  3  1  0
  3  4  1  0
  4  5  1  0
  5  6  1  0
  6  7  1  0
  7  8  2  0
  8  9  1  0
  8 10  1  0
 10 11  2  0
 11 12  1  0
  7 13  1  0
 12 13  2  0
 13 14  1  0
  2 15  1  0
 15 16  1  0
 16 17  2  0
 17 18  1  0
 18 19  2  0
 19 20  1  0
 16 21  1  0
 20 21  2  0
M  END
