pyridine_urea_2882
     RDKit          3D

 22 23  0  0  0  0  0  0  0  0999 V2000
    9.1140    0.0730   25.6280 C   0  0  0  0  0  0  0  0  0  0  0  0
    8.9800    1.2450   24.8240 O   0  0  0  0  0  0  0  0  0  0  0  0
    9.8680    1.2350   23.6960 C   0  0  0  0  0  0  0  0  0  0  0  0
   10.0180   -0.2720   23.3050 C   0  0  1  0  0  0  0  0  0  0  0  0
    9.4910   -0.6210   22.0000 N   0  0  0  0  0  0  0  0  0  0  0  0
    8.5540    0.1420   21.3710 C   0  0  0  0  0  0  0  0  0  0  0  0
    8.7380    1.4720   21.0600 O   0  0  0  0  0  0  0  0  0  0  0  0
    7.3340   -0.5640   21.0350 N   0  0  0  0  0  0  0  0  0  0  0  0
    6.5570    0.0560   20.0920 C   0  0  0  0  0  0  0  0  0  0  0  0
    5.3860    0.7300   20.4490 C   0  0  0  0  0  0  0  0  0  0  0  0
    4.6100    1.4040   19.3380 C   0  0  0  0  0  0  0  0  0  0  0  0
    5.1620    1.2960   17.9480 C   0  0  0  0  0  0  0  0  0  0  0  0
    6.2920    0.6160   17.7040 N   0  0  0  0  0  0  0  0  0  0  0  0
    6.9380    0.0320   18.7510 C   0  0  0  0  0  0  0  0  0  0  0  0
   11.4010   -0.7670   23.6110 C   0  0  0  0  0  0  0  0  0  0  0  0
   11.8170    0.4080   22.8210 C   0  0  0  0  0  0  0  0  0  0  0  0
   12.7770   -0.4980   23.4180 C   0  0  0  0  0  0  0  0  0  0  0  0
   12.4360   -1.6700   24.2050 C   0  0  0  0  0  0  0  0  0  0  0  0
   11.2170   -2.1650   24.5550 F   0  0  0  0  0  0  0  0  0  0  0  0
   13.6660   -2.0010   24.4050 C   0  0  0  0  0  0  0  0  0  0  0  0
   13.4180   -3.1040   25.1560 F   0  0  0  0  0  0  0  0  0  0  0  0
   12.8570   -1.0390   23.7690 C   0  0  0  0  0  0  0  0  0  0  0  0
  1  2  1  0
  2  3  1  0
  4  3  1  6
  4  5  1  0
  5  6  1  0
  6  7  2  0
  6  8  1  0
  8  9  1  0
  9 10  2  0
 10 11  1  0
 11 12  2  0
 12 13  1  0
  9 14  1  0
 13 14  2  0
  4 15  1  0
 15 16  2  0
 16 17  1  0
 17 18  2  0
 18 19  1  0
 18 20  1  0
 20 21  1  0
 15 22  1  0
 20 22  2  0
M  END
