pyridine_urea_9052
     RDKit          3D

 19 20  0  0  0  0  0  0  0  0999 V2000
   12.6380   -0.8270   25.2800 C   0  0  0  0  0  0  0  0  0  0  0  0
   11.8620   -0.9630   24.0530 C   0  0  0  0  0  0  0  0  0  0  0  0
   10.4730   -0.3900   24.0790 C   0  0  0  0  0  0  0  0  0  0  0  0
    9.7180   -0.5040   22.9560 C   0  0  0  0  0  0  0  0  0  0  0  0
    8.4030   -0.0400   22.7890 N   0  0  0  0  0  0  0  0  0  0  0  0
    8.1300    0.4240   21.5540 C   0  0  0  0  0  0  0  0  0  0  0  0
    8.7540    1.3680   21.0630 O   0  0  0  0  0  0  0  0  0  0  0  0
    7.1160   -0.2940   20.9980 N   0  0  0  0  0  0  0  0  0  0  0  0
    6.3780    0.2820   19.9950 C   0  0  0  0  0  0  0  0  0  0  0  0
    5.2070    0.9980   20.1570 C   0  0  0  0  0  0  0  0  0  0  0  0
    4.5980    1.5460   19.0620 C   0  0  0  0  0  0  0  0  0  0  0  0
    5.1480    1.3800   17.8310 C   0  0  0  0  0  0  0  0  0  0  0  0
    6.2690    0.6870   17.6050 N   0  0  0  0  0  0  0  0  0  0  0  0
    6.8590    0.1510   18.6970 C   0  0  0  0  0  0  0  0  0  0  0  0
   10.2210   -1.1270   21.8180 C   0  0  0  0  0  0  0  0  0  0  0  0
   11.5950   -1.6570   21.8870 C   0  0  0  0  0  0  0  0  0  0  0  0
   12.0910   -2.2200   20.9170 O   0  0  0  0  0  0  0  0  0  0  0  0
   12.3480   -1.5660   22.9680 C   0  0  0  0  0  0  0  0  0  0  0  0
   13.5710   -2.1220   22.8470 C   0  0  0  0  0  0  0  0  0  0  0  0
  1  2  1  0
  2  3  2  0
  3  4  1  0
  4  5  1  0
  5  6  1  0
  6  7  2  0
  6  8  1  0
  8  9  1  0
  9 10  2  0
 10 11  1  0
 11 12  2  0
 12 13  1  0
  9 14  1  0
 13 14  2  0
  4 15  2  0
 15 16  1  0
 16 17  1  0
  2 18  1  0
 16 18  2  0
 18 19  1  0
M  END
