pyridine_urea_6641
     RDKit          3D

 22 23  0  0  0  0  0  0  0  0999 V2000
    8.6930    1.3060   21.0720 O   0  0  0  0  0  0  0  0  0  0  0  0
    8.3490    0.1260   21.2070 C   0  0  0  0  0  0  0  0  0  0  0  0
    9.1880   -0.8610   21.5580 N   0  0  0  0  0  0  0  0  0  0  0  0
    9.9780   -0.6120   22.6440 C   0  0  0  0  0  0  0  0  0  0  0  0
    9.2670    0.1770   23.7600 C   0  0  0  0  0  0  0  0  0  0  0  0
   10.2480    0.8060   24.6920 C   0  0  0  0  0  0  0  0  0  0  0  0
   11.6380    0.4780   24.3260 C   0  0  0  0  0  0  0  0  0  0  0  0
   12.2590    1.5900   23.7860 O   0  0  0  0  0  0  0  0  0  0  0  0
   12.9650    1.0330   22.7600 C   0  0  0  0  0  0  0  0  0  0  0  0
   13.1360   -0.2990   23.0660 C   0  0  0  0  0  0  0  0  0  0  0  0
   13.2520   -1.2920   22.1010 C   0  0  0  0  0  0  0  0  0  0  0  0
   13.4430   -2.5760   22.5370 C   0  0  0  0  0  0  0  0  0  0  0  0
   13.5350   -2.8450   23.8830 C   0  0  0  0  0  0  0  0  0  0  0  0
   13.4140   -1.8930   24.8320 C   0  0  0  0  0  0  0  0  0  0  0  0
   13.1920   -0.5960   24.4130 C   0  0  0  0  0  0  0  0  0  0  0  0
    7.0890   -0.3290   21.0060 N   0  0  0  0  0  0  0  0  0  0  0  0
    6.4170    0.2120   19.9760 C   0  0  0  0  0  0  0  0  0  0  0  0
    5.2740    0.9400   20.1900 C   0  0  0  0  0  0  0  0  0  0  0  0
    4.6110    1.5260   19.1450 C   0  0  0  0  0  0  0  0  0  0  0  0
    5.1090    1.3730   17.8740 C   0  0  0  0  0  0  0  0  0  0  0  0
    6.2100    0.6590   17.6080 N   0  0  0  0  0  0  0  0  0  0  0  0
    6.8410    0.0940   18.6660 C   0  0  0  0  0  0  0  0  0  0  0  0
  1  2  2  0
  2  3  1  0
  3  4  1  0
  4  5  1  0
  5  6  1  0
  6  7  1  0
  7  8  1  0
  8  9  1  0
  9 10  1  0
 10 11  2  0
 11 12  1  0
 12 13  2  0
 13 14  1  0
 10 15  1  0
 14 15  2  0
  2 16  1  0
 16 17  1  0
 17 18  2  0
 18 19  1  0
 19 20  2  0
 20 21  1  0
 17 22  1  0
 21 22  2  0
M  END
