pyridine_urea_1724
     RDKit          3D

 18 19  0  0  0  0  0  0  0  0999 V2000
   13.3380   -1.6640   21.0150 C   0  0  0  0  0  0  0  0  0  0  0  0
   12.5010   -1.5480   22.1980 C   0  0  0  0  0  0  0  0  0  0  0  0
   12.8400   -1.5410   23.5230 C   0  0  0  0  0  0  0  0  0  0  0  0
   11.8840   -1.4870   24.5030 C   0  0  0  0  0  0  0  0  0  0  0  0
   10.5590   -1.4250   24.0880 C   0  0  0  0  0  0  0  0  0  0  0  0
    9.5460   -1.4150   24.8940 F   0  0  0  0  0  0  0  0  0  0  0  0
   10.2030   -1.3890   22.7970 C   0  0  0  0  0  0  0  0  0  0  0  0
    8.8740   -1.2980   22.3720 N   0  0  0  0  0  0  0  0  0  0  0  0
    8.3360   -0.3180   21.5610 C   0  0  0  0  0  0  0  0  0  0  0  0
    8.8490    0.7730   21.3400 O   0  0  0  0  0  0  0  0  0  0  0  0
    7.1260   -0.7320   21.0380 N   0  0  0  0  0  0  0  0  0  0  0  0
    6.3730    0.0100   20.0260 C   0  0  0  0  0  0  0  0  0  0  0  0
    5.1950    0.7060   20.2470 C   0  0  0  0  0  0  0  0  0  0  0  0
    4.6040    1.3740   19.1780 C   0  0  0  0  0  0  0  0  0  0  0  0
    5.2020    1.3260   17.9350 C   0  0  0  0  0  0  0  0  0  0  0  0
    6.3370    0.6550   17.7010 N   0  0  0  0  0  0  0  0  0  0  0  0
    6.8930    0.0150   18.7430 C   0  0  0  0  0  0  0  0  0  0  0  0
   11.1870   -1.4580   21.8750 C   0  0  0  0  0  0  0  0  0  0  0  0
  1  2  1  0
  2  3  2  0
  3  4  1  0
  4  5  2  0
  5  6  1  0
  5  7  1  0
  7  8  1  0
  8  9  1  0
  9 10  2  0
  9 11  1  0
 11 12  1  0
 12 13  2  0
 13 14  1  0
 14 15  2  0
 15 16  1  0
 12 17  1  0
 16 17  2  0
  2 18  1  0
  7 18  2  0
M  END
