pyridine_urea_730
     RDKit          3D

 23 25  0  0  0  0  0  0  0  0999 V2000
   10.4230    5.3220   23.0030 N   0  0  0  0  0  0  0  0  0  0  0  0
   10.4250    4.1420   23.7340 C   0  0  0  0  0  0  0  0  0  0  0  0
   11.0120    2.9010   23.0090 C   0  0  0  0  0  0  0  0  0  0  0  0
   11.1040    2.6730   24.4970 C   0  0  0  0  0  0  0  0  0  0  0  0
   11.3870    2.0920   23.5790 N   0  0  0  0  0  0  0  0  0  0  0  0
   11.8690    1.0940   23.4900 N   0  0  0  0  0  0  0  0  0  0  0  0
   12.4130    0.0190   24.2590 C   0  0  0  0  0  0  0  0  0  0  0  0
   12.5960    1.2850   24.3080 C   0  0  0  0  0  0  0  0  0  0  0  0
   11.7810    0.3240   23.5440 C   0  0  0  0  0  0  0  0  0  0  0  0
   10.7050   -0.2860   22.4750 C   0  0  0  0  0  0  0  0  0  0  0  0
    9.8400    0.2390   21.5580 N   0  0  0  0  0  0  0  0  0  0  0  0
    9.0590   -0.6970   20.9560 C   0  0  0  0  0  0  0  0  0  0  0  0
    8.3350   -1.2860   20.1790 O   0  0  0  0  0  0  0  0  0  0  0  0
    8.9660    0.3540   20.0650 N   0  0  0  0  0  0  0  0  0  0  0  0
    7.5390    0.4330   19.8010 C   0  0  0  0  0  0  0  0  0  0  0  0
    6.7630    1.1310   19.0090 C   0  0  0  0  0  0  0  0  0  0  0  0
    6.0250    1.8230   18.2280 C   0  0  0  0  0  0  0  0  0  0  0  0
    4.9250    1.1480   18.7720 C   0  0  0  0  0  0  0  0  0  0  0  0
    5.3400    0.1890   19.8060 N   0  0  0  0  0  0  0  0  0  0  0  0
    6.7060   -0.2510   20.4340 C   0  0  0  0  0  0  0  0  0  0  0  0
   10.9670   -1.6160   22.8450 C   0  0  0  0  0  0  0  0  0  0  0  0
   11.5460   -0.5040   23.3630 C   0  0  0  0  0  0  0  0  0  0  0  0
   11.6330    1.5890   22.2460 C   0  0  0  0  0  0  0  0  0  0  0  0
  1  2  3  0
  2  3  1  0
  3  4  1  0
  4  5  2  0
  5  6  1  0
  6  7  1  0
  7  8  2  0
  8  9  1  0
  9 10  2  0
 10 11  1  0
 11 12  1  0
 12 13  2  0
 12 14  1  0
 14 15  1  0
 15 16  2  0
 16 17  1  0
 17 18  2  0
 18 19  1  0
 15 20  1  0
 19 20  2  0
 10 21  1  0
  7 22  1  0
 21 22  2  0
  3 23  2  0
  6 23  1  0
M  END
