pyridine_urea_3416
     RDKit          3D

 19 20  0  0  0  0  0  0  0  0999 V2000
    9.2940    0.3700   25.2370 C   0  0  0  0  0  0  0  0  0  0  0  0
   10.2480   -0.4130   24.3910 C   0  0  1  0  0  0  0  0  0  0  0  0
   10.8370   -1.2950   25.3370 O   0  0  0  0  0  0  0  0  0  0  0  0
    9.7480   -0.9160   23.1820 C   0  0  0  0  0  0  0  0  0  0  0  0
    8.4670   -0.3460   22.8500 N   0  0  0  0  0  0  0  0  0  0  0  0
    8.2620    0.1930   21.6060 C   0  0  0  0  0  0  0  0  0  0  0  0
    8.8890    1.1770   21.1780 O   0  0  0  0  0  0  0  0  0  0  0  0
    7.2030   -0.5650   20.9450 N   0  0  0  0  0  0  0  0  0  0  0  0
    6.4990    0.0750   19.9770 C   0  0  0  0  0  0  0  0  0  0  0  0
    5.2210    0.8170   20.3480 C   0  0  0  0  0  0  0  0  0  0  0  0
    4.5620    1.4620   19.3080 C   0  0  0  0  0  0  0  0  0  0  0  0
    5.1790    1.3620   17.9110 C   0  0  0  0  0  0  0  0  0  0  0  0
    6.3090    0.6780   17.6570 N   0  0  0  0  0  0  0  0  0  0  0  0
    6.9270    0.0630   18.6750 C   0  0  0  0  0  0  0  0  0  0  0  0
   11.3780    0.4550   23.9660 C   0  0  0  0  0  0  0  0  0  0  0  0
   12.5820    0.9110   23.3640 C   0  0  0  0  0  0  0  0  0  0  0  0
   13.4110    0.1470   22.6100 C   0  0  0  0  0  0  0  0  0  0  0  0
   12.9870   -1.0760   22.4820 C   0  0  0  0  0  0  0  0  0  0  0  0
   11.5650   -1.2020   23.3370 S   0  0  0  0  0  0  0  0  0  0  0  0
  2  1  1  1
  2  3  1  0
  2  4  1  0
  4  5  1  0
  5  6  1  0
  6  7  2  0
  6  8  1  0
  8  9  1  0
  9 10  2  0
 10 11  1  0
 11 12  2  0
 12 13  1  0
  9 14  1  0
 13 14  2  0
  2 15  1  0
 15 16  2  0
 16 17  1  0
 17 18  2  0
 15 19  1  0
 18 19  1  0
M  END
