pyridine_urea_1834
     RDKit          3D

 16 16  0  0  0  0  0  0  0  0999 V2000
   13.0010    0.3880   23.1570 C   0  0  0  0  0  0  0  0  0  0  0  0
   12.7020   -0.9810   22.6390 C   0  0  1  0  0  0  0  0  0  0  0  0
   13.4810   -1.8850   23.4430 O   0  0  0  0  0  0  0  0  0  0  0  0
   11.3880   -1.4040   22.5190 C   0  0  2  0  0  0  0  0  0  0  0  0
   11.1650   -1.6560   21.1400 O   0  0  0  0  0  0  0  0  0  0  0  0
   10.3730   -0.5630   22.9720 C   0  0  0  0  0  0  0  0  0  0  0  0
    9.0460   -0.6790   22.5060 N   0  0  0  0  0  0  0  0  0  0  0  0
    8.4220    0.0920   21.5310 C   0  0  0  0  0  0  0  0  0  0  0  0
    8.8540    1.1970   21.1800 O   0  0  0  0  0  0  0  0  0  0  0  0
    7.3130   -0.5470   21.0820 N   0  0  0  0  0  0  0  0  0  0  0  0
    6.6180    0.0570   20.0910 C   0  0  0  0  0  0  0  0  0  0  0  0
    5.4780    0.7870   20.3900 C   0  0  0  0  0  0  0  0  0  0  0  0
    4.7150    1.4680   19.2640 C   0  0  0  0  0  0  0  0  0  0  0  0
    5.1700    1.3440   17.9840 C   0  0  0  0  0  0  0  0  0  0  0  0
    6.2770    0.6200   17.7210 N   0  0  0  0  0  0  0  0  0  0  0  0
    6.9570    0.0090   18.7410 C   0  0  0  0  0  0  0  0  0  0  0  0
  2  1  1  1
  2  3  1  0
  2  4  1  0
  4  5  1  6
  4  6  1  0
  6  7  1  0
  7  8  1  0
  8  9  2  0
  8 10  1  0
 10 11  1  0
 11 12  2  0
 12 13  1  0
 13 14  2  0
 14 15  1  0
 11 16  1  0
 15 16  2  0
M  END
