pyridine_urea_14634
     RDKit          3D

 20 21  0  0  0  0  0  0  0  0999 V2000
    7.4100    0.8950   24.0640 C   0  0  0  0  0  0  0  0  0  0  0  0
    8.4480    0.6950   23.4340 O   0  0  0  0  0  0  0  0  0  0  0  0
    8.9120   -0.5920   23.3300 C   0  0  0  0  0  0  0  0  0  0  0  0
    9.8690   -0.7770   22.3060 C   0  0  1  0  0  0  0  0  0  0  0  0
   10.8980   -1.7240   22.3800 C   0  0  0  0  0  0  0  0  0  0  0  0
    9.0510   -1.1000   21.2100 N   0  0  0  0  0  0  0  0  0  0  0  0
    8.1430   -0.0930   21.0170 C   0  0  0  0  0  0  0  0  0  0  0  0
    8.5620    1.2870   20.9260 O   0  0  0  0  0  0  0  0  0  0  0  0
    6.8900   -0.5290   20.9100 N   0  0  0  0  0  0  0  0  0  0  0  0
    6.3260    0.1000   19.9110 C   0  0  0  0  0  0  0  0  0  0  0  0
    5.0360    0.9120   20.0550 C   0  0  0  0  0  0  0  0  0  0  0  0
    4.4550    1.5960   19.0050 C   0  0  0  0  0  0  0  0  0  0  0  0
    5.1140    1.5150   17.7750 C   0  0  0  0  0  0  0  0  0  0  0  0
    6.2700    0.7790   17.6320 N   0  0  0  0  0  0  0  0  0  0  0  0
    6.8760    0.0800   18.6620 C   0  0  0  0  0  0  0  0  0  0  0  0
    7.6900   -1.4490   23.0220 C   0  0  0  0  0  0  0  0  0  0  0  0
    7.0810   -2.3650   24.0150 C   0  0  0  0  0  0  0  0  0  0  0  0
    7.7910   -2.8040   24.8890 O   0  0  0  0  0  0  0  0  0  0  0  0
    9.1770   -2.5370   24.6670 C   0  0  0  0  0  0  0  0  0  0  0  0
    9.3490   -1.1730   24.6590 C   0  0  0  0  0  0  0  0  0  0  0  0
  1  2  1  0
  3  2  1  0
  3  4  1  0
  4  5  1  1
  4  6  1  0
  6  7  1  0
  7  8  2  0
  7  9  1  0
  9 10  1  0
 10 11  2  0
 11 12  1  0
 12 13  2  0
 13 14  1  0
 10 15  1  0
 14 15  2  0
  3 16  1  0
 16 17  1  0
 17 18  1  0
 18 19  1  0
  3 20  1  0
 19 20  1  0
M  END
