pyridine_urea_2256
     RDKit          3D

 26 29  0  0  0  0  0  0  0  0999 V2000
    8.9680    0.7540   21.4310 O   0  0  0  0  0  0  0  0  0  0  0  0
    8.5270   -0.3870   21.4300 C   0  0  0  0  0  0  0  0  0  0  0  0
    9.2470   -1.5270   21.7130 N   0  0  0  0  0  0  0  0  0  0  0  0
   10.1860   -1.7430   22.7530 C   0  0  0  0  0  0  0  0  0  0  0  0
   11.6200   -1.1930   22.7110 C   0  0  0  0  0  0  0  0  0  0  0  0
   10.4930   -0.1580   22.8880 C   0  0  0  0  0  0  0  0  0  0  0  0
   10.5640    1.3030   23.0270 C   0  0  0  0  0  0  0  0  0  0  0  0
   11.7470    1.9210   23.0180 C   0  0  0  0  0  0  0  0  0  0  0  0
   11.8220    3.3170   23.1700 C   0  0  0  0  0  0  0  0  0  0  0  0
   12.8900    4.0550   22.5970 C   0  0  0  0  0  0  0  0  0  0  0  0
   13.0310    5.4380   22.7230 C   0  0  0  0  0  0  0  0  0  0  0  0
   12.0820    6.1140   23.4510 C   0  0  0  0  0  0  0  0  0  0  0  0
   11.0470    5.3820   24.0030 C   0  0  0  0  0  0  0  0  0  0  0  0
   10.8260    3.9890   23.9170 C   0  0  0  0  0  0  0  0  0  0  0  0
   10.2850    6.5180   24.7000 C   0  0  0  0  0  0  0  0  0  0  0  0
   11.1120    7.6180   24.8180 C   0  0  0  0  0  0  0  0  0  0  0  0
   12.0370    7.5060   23.7130 O   0  0  0  0  0  0  0  0  0  0  0  0
   12.8410    1.1010   22.8670 C   0  0  0  0  0  0  0  0  0  0  0  0
   12.7500   -0.2970   22.7280 C   0  0  0  0  0  0  0  0  0  0  0  0
    7.2280   -0.6950   21.1110 N   0  0  0  0  0  0  0  0  0  0  0  0
    6.4950   -0.0100   20.0490 C   0  0  0  0  0  0  0  0  0  0  0  0
    5.2100    0.7280   20.3990 C   0  0  0  0  0  0  0  0  0  0  0  0
    4.5620    1.4160   19.2030 C   0  0  0  0  0  0  0  0  0  0  0  0
    5.1770    1.3110   17.9610 C   0  0  0  0  0  0  0  0  0  0  0  0
    6.3210    0.6270   17.7290 N   0  0  0  0  0  0  0  0  0  0  0  0
    6.9370   -0.0020   18.7500 C   0  0  0  0  0  0  0  0  0  0  0  0
  1  2  2  0
  2  3  1  0
  3  4  1  0
  4  5  1  0
  5  6  2  0
  6  7  1  0
  7  8  2  0
  8  9  1  0
  9 10  2  0
 10 11  1  0
 11 12  2  0
 12 13  1  0
  9 14  1  0
 13 14  2  0
 13 15  1  0
 15 16  1  0
 12 17  1  0
 16 17  1  0
  8 18  1  0
  5 19  1  0
 18 19  2  0
  2 20  1  0
 20 21  1  0
 21 22  2  0
 22 23  1  0
 23 24  2  0
 24 25  1  0
 21 26  1  0
 25 26  2  0
M  END
