pyridine_urea_6552
     RDKit          3D

 22 24  0  0  0  0  0  0  0  0999 V2000
    8.7190    1.2350   21.1410 O   0  0  0  0  0  0  0  0  0  0  0  0
    8.0800    0.2740   21.6180 C   0  0  0  0  0  0  0  0  0  0  0  0
    8.2310   -0.2510   22.8610 N   0  0  0  0  0  0  0  0  0  0  0  0
    9.4430   -0.6550   23.3780 C   0  0  0  0  0  0  0  0  0  0  0  0
   10.5480    0.3520   23.4010 C   0  0  0  0  0  0  0  0  0  0  0  0
   12.0390    0.8650   23.1830 C   0  0  0  0  0  0  0  0  0  0  0  0
   13.2990    0.2090   22.6790 C   0  0  0  0  0  0  0  0  0  0  0  0
   13.2400   -1.0670   22.3140 C   0  0  0  0  0  0  0  0  0  0  0  0
   12.0100   -1.4430   22.5160 C   0  0  0  0  0  0  0  0  0  0  0  0
   10.7750   -1.1420   22.9170 C   0  0  0  0  0  0  0  0  0  0  0  0
    9.7270   -2.0860   22.9250 C   0  0  0  0  0  0  0  0  0  0  0  0
    8.6750   -1.9760   22.0230 N   0  0  0  0  0  0  0  0  0  0  0  0
    7.7870   -2.9990   22.2710 C   0  0  0  0  0  0  0  0  0  0  0  0
    8.3150   -3.7160   23.3060 C   0  0  0  0  0  0  0  0  0  0  0  0
    9.4930   -3.1870   23.7240 N   0  0  0  0  0  0  0  0  0  0  0  0
    7.1250   -0.3460   20.8990 N   0  0  0  0  0  0  0  0  0  0  0  0
    6.4320    0.2360   19.9370 C   0  0  0  0  0  0  0  0  0  0  0  0
    5.1540    1.0050   20.2250 C   0  0  0  0  0  0  0  0  0  0  0  0
    4.5780    1.5620   19.1120 C   0  0  0  0  0  0  0  0  0  0  0  0
    5.1530    1.4030   17.8610 C   0  0  0  0  0  0  0  0  0  0  0  0
    6.2710    0.7170   17.5860 N   0  0  0  0  0  0  0  0  0  0  0  0
    6.8700    0.1580   18.6430 C   0  0  0  0  0  0  0  0  0  0  0  0
  1  2  2  0
  2  3  1  0
  3  4  1  0
  4  5  1  0
  5  6  2  0
  6  7  1  0
  7  8  2  0
  8  9  1  0
  5 10  1  0
  9 10  2  0
 10 11  1  0
 11 12  2  0
 12 13  1  0
 13 14  2  0
 11 15  1  0
 14 15  1  0
  2 16  1  0
 16 17  1  0
 17 18  2  0
 18 19  1  0
 19 20  2  0
 20 21  1  0
 17 22  1  0
 21 22  2  0
M  END
