pyridine_urea_8590
     RDKit          3D

 22 24  0  0  0  0  0  0  0  0999 V2000
    8.3560    0.6780   21.4050 O   0  0  0  0  0  0  0  0  0  0  0  0
    7.8710   -0.4230   21.6490 C   0  0  0  0  0  0  0  0  0  0  0  0
    8.4530   -1.3430   22.4830 N   0  0  0  0  0  0  0  0  0  0  0  0
    9.7740   -1.0230   22.5980 C   0  0  0  0  0  0  0  0  0  0  0  0
   10.7760   -1.6480   21.8970 C   0  0  0  0  0  0  0  0  0  0  0  0
   12.0400   -1.1850   22.0240 C   0  0  0  0  0  0  0  0  0  0  0  0
   12.2410   -0.1260   22.8430 C   0  0  0  0  0  0  0  0  0  0  0  0
   13.5510    0.3980   22.8980 C   0  0  0  0  0  0  0  0  0  0  0  0
   13.2400    1.7310   22.6280 N   0  0  0  0  0  0  0  0  0  0  0  0
   12.1140    2.4730   22.8550 C   0  0  0  0  0  0  0  0  0  0  0  0
   12.2860    3.8700   22.3540 C   0  0  0  0  0  0  0  0  0  0  0  0
   13.5250    3.9410   21.8240 N   0  0  0  0  0  0  0  0  0  0  0  0
   14.0930    2.6580   21.9920 C   0  0  0  0  0  0  0  0  0  0  0  0
   11.3430    0.5590   23.6350 C   0  0  0  0  0  0  0  0  0  0  0  0
   10.0600    0.1340   23.5430 C   0  0  0  0  0  0  0  0  0  0  0  0
    6.7140   -0.7990   21.0560 N   0  0  0  0  0  0  0  0  0  0  0  0
    6.3310   -0.1450   19.9410 C   0  0  0  0  0  0  0  0  0  0  0  0
    5.1340    0.4570   20.2660 C   0  0  0  0  0  0  0  0  0  0  0  0
    4.5780    1.1980   19.2450 C   0  0  0  0  0  0  0  0  0  0  0  0
    5.2050    1.3080   18.0030 C   0  0  0  0  0  0  0  0  0  0  0  0
    6.3910    0.7000   17.7060 N   0  0  0  0  0  0  0  0  0  0  0  0
    6.9180   -0.0220   18.7160 C   0  0  0  0  0  0  0  0  0  0  0  0
  1  2  2  0
  2  3  1  0
  3  4  1  0
  4  5  2  0
  5  6  1  0
  6  7  2  0
  7  8  1  0
  8  9  1  0
  9 10  1  0
 10 11  2  0
 11 12  1  0
  9 13  1  0
 12 13  2  0
  7 14  1  0
  4 15  1  0
 14 15  2  0
  2 16  1  0
 16 17  1  0
 17 18  2  0
 18 19  1  0
 19 20  2  0
 20 21  1  0
 17 22  1  0
 21 22  2  0
M  END
