pyridine_urea_12131
     RDKit          3D

 23 24  0  0  0  0  0  0  0  0999 V2000
   14.0880   -2.6910   25.5970 C   0  0  0  0  0  0  0  0  0  0  0  0
   13.4800   -1.6870   25.9090 O   0  0  0  0  0  0  0  0  0  0  0  0
   12.7300   -1.1940   24.9300 C   0  0  0  0  0  0  0  0  0  0  0  0
   13.1400   -1.2620   23.6700 C   0  0  0  0  0  0  0  0  0  0  0  0
   12.4780   -0.8140   22.5780 C   0  0  0  0  0  0  0  0  0  0  0  0
   13.1830   -1.0930   21.6330 O   0  0  0  0  0  0  0  0  0  0  0  0
   13.0120   -2.3770   21.2080 C   0  0  0  0  0  0  0  0  0  0  0  0
   11.1060   -0.1060   22.4550 C   0  0  0  0  0  0  0  0  0  0  0  0
    9.9130    0.4770   22.6920 C   0  0  0  0  0  0  0  0  0  0  0  0
    8.9090   -0.4920   22.3080 N   0  0  0  0  0  0  0  0  0  0  0  0
    8.1290    0.0940   21.3970 C   0  0  0  0  0  0  0  0  0  0  0  0
    8.5070    1.3050   20.8610 O   0  0  0  0  0  0  0  0  0  0  0  0
    6.9980   -0.5680   21.0770 N   0  0  0  0  0  0  0  0  0  0  0  0
    6.3330    0.0440   20.0440 C   0  0  0  0  0  0  0  0  0  0  0  0
    5.1340    0.7340   20.2160 C   0  0  0  0  0  0  0  0  0  0  0  0
    4.5080    1.3730   19.1560 C   0  0  0  0  0  0  0  0  0  0  0  0
    5.1050    1.3090   17.9150 C   0  0  0  0  0  0  0  0  0  0  0  0
    6.2340    0.6770   17.6080 N   0  0  0  0  0  0  0  0  0  0  0  0
    6.8460    0.0600   18.6210 C   0  0  0  0  0  0  0  0  0  0  0  0
   10.7170   -0.0720   23.8240 C   0  0  0  0  0  0  0  0  0  0  0  0
    9.4950    0.4920   24.0820 O   0  0  0  0  0  0  0  0  0  0  0  0
    8.8570    0.1500   25.3110 C   0  0  0  0  0  0  0  0  0  0  0  0
   11.4110   -0.5550   25.0430 C   0  0  0  0  0  0  0  0  0  0  0  0
  1  2  1  0
  2  3  1  0
  3  4  2  0
  4  5  1  0
  5  6  1  0
  6  7  1  0
  5  8  2  0
  8  9  1  0
  9 10  1  0
 10 11  1  0
 11 12  2  0
 11 13  1  0
 13 14  1  0
 14 15  2  0
 15 16  1  0
 16 17  2  0
 17 18  1  0
 14 19  1  0
 18 19  2  0
  8 20  1  0
 20 21  1  0
 21 22  1  0
  3 23  1  0
 20 23  2  0
M  END
