pyridine_urea_8184
     RDKit          3D

 23 25  0  0  0  0  0  0  0  0999 V2000
    9.0250    1.1550   21.1500 O   0  0  0  0  0  0  0  0  0  0  0  0
    8.3210    0.2410   21.5790 C   0  0  0  0  0  0  0  0  0  0  0  0
    8.3690   -0.1890   22.8700 N   0  0  0  0  0  0  0  0  0  0  0  0
    7.3730    0.4550   23.7210 C   0  0  0  0  0  0  0  0  0  0  0  0
    7.7400    1.9410   24.1170 C   0  0  0  0  0  0  0  0  0  0  0  0
    6.8300    2.7050   24.8110 C   0  0  0  0  0  0  0  0  0  0  0  0
    7.4880    4.0190   25.0350 C   0  0  0  0  0  0  0  0  0  0  0  0
    8.6990    3.9440   24.4750 N   0  0  0  0  0  0  0  0  0  0  0  0
    9.6870    4.8740   24.4060 C   0  0  0  0  0  0  0  0  0  0  0  0
    9.8450    6.1080   25.2600 C   0  0  0  0  0  0  0  0  0  0  0  0
   10.9790    7.0980   25.1110 C   0  0  0  0  0  0  0  0  0  0  0  0
   12.0010    6.7790   24.0060 C   0  0  0  0  0  0  0  0  0  0  0  0
   11.8460    5.5080   23.1250 C   0  0  0  0  0  0  0  0  0  0  0  0
   13.0090    5.1860   21.9090 Cl  0  0  0  0  0  0  0  0  0  0  0  0
   10.6730    4.5350   23.3230 C   0  0  0  0  0  0  0  0  0  0  0  0
    8.9410    2.6850   23.8780 N   0  0  0  0  0  0  0  0  0  0  0  0
    7.3640   -0.4590   20.8960 N   0  0  0  0  0  0  0  0  0  0  0  0
    6.5650    0.1380   19.9990 C   0  0  0  0  0  0  0  0  0  0  0  0
    5.3970    0.8310   20.2640 C   0  0  0  0  0  0  0  0  0  0  0  0
    4.6480    1.4370   19.2650 C   0  0  0  0  0  0  0  0  0  0  0  0
    5.1280    1.3140   17.9730 C   0  0  0  0  0  0  0  0  0  0  0  0
    6.2500    0.6400   17.6680 N   0  0  0  0  0  0  0  0  0  0  0  0
    6.9320    0.0740   18.6800 C   0  0  0  0  0  0  0  0  0  0  0  0
  1  2  2  0
  2  3  1  0
  3  4  1  0
  4  5  1  0
  5  6  1  0
  6  7  2  0
  7  8  1  0
  8  9  1  0
  9 10  2  0
 10 11  1  0
 11 12  2  0
 12 13  1  0
 13 14  1  0
  9 15  1  0
 13 15  2  0
  5 16  2  0
  8 16  1  0
  2 17  1  0
 17 18  1  0
 18 19  2  0
 19 20  1  0
 20 21  2  0
 21 22  1  0
 18 23  1  0
 22 23  2  0
M  END
