pyridine_urea_11699
     RDKit          3D

 26 28  0  0  0  0  0  0  0  0999 V2000
   13.1550   -1.7120   25.4370 C   0  0  0  0  0  0  0  0  0  0  0  0
   13.5760   -3.0290   25.4300 O   0  0  0  0  0  0  0  0  0  0  0  0
   13.9430   -3.0880   24.1620 C   0  0  0  0  0  0  0  0  0  0  0  0
   14.7950   -3.5980   23.6220 O   0  0  0  0  0  0  0  0  0  0  0  0
   13.3210   -2.4670   23.3410 C   0  0  0  0  0  0  0  0  0  0  0  0
   13.2630   -2.8270   22.0870 C   0  0  0  0  0  0  0  0  0  0  0  0
   12.3510   -1.8330   21.2120 S   0  0  0  0  0  0  0  0  0  0  0  0
   12.2030   -0.9770   22.6630 C   0  0  0  0  0  0  0  0  0  0  0  0
   11.6020    0.1200   22.8180 C   0  0  0  0  0  0  0  0  0  0  0  0
   12.3530    1.2000   22.6950 C   0  0  0  0  0  0  0  0  0  0  0  0
   11.5720    2.4260   22.9120 C   0  0  0  0  0  0  0  0  0  0  0  0
   10.2190    2.2850   23.2110 C   0  0  0  0  0  0  0  0  0  0  0  0
    9.3610    1.1360   23.3790 C   0  0  0  0  0  0  0  0  0  0  0  0
    9.0610   -0.2420   23.4230 C   0  0  0  0  0  0  0  0  0  0  0  0
    8.8330   -0.7360   22.1420 N   0  0  0  0  0  0  0  0  0  0  0  0
    8.1450   -0.0140   21.1740 C   0  0  0  0  0  0  0  0  0  0  0  0
    8.5310    1.2550   20.8290 O   0  0  0  0  0  0  0  0  0  0  0  0
    7.0700   -0.6300   20.6860 N   0  0  0  0  0  0  0  0  0  0  0  0
    6.2950    0.0830   19.8280 C   0  0  0  0  0  0  0  0  0  0  0  0
    4.9770    0.7070   20.0880 C   0  0  0  0  0  0  0  0  0  0  0  0
    4.3640    1.4710   18.9520 C   0  0  0  0  0  0  0  0  0  0  0  0
    5.0760    1.5300   17.7620 C   0  0  0  0  0  0  0  0  0  0  0  0
    6.2700    0.9360   17.5660 N   0  0  0  0  0  0  0  0  0  0  0  0
    6.8230    0.2510   18.5780 C   0  0  0  0  0  0  0  0  0  0  0  0
   10.3190    0.0460   23.1160 C   0  0  0  0  0  0  0  0  0  0  0  0
   12.7030   -1.3520   23.7670 N   0  0  0  0  0  0  0  0  0  0  0  0
  1  2  1  0
  2  3  1  0
  3  4  2  0
  3  5  1  0
  5  6  2  0
  6  7  1  0
  7  8  1  0
  8  9  1  0
  9 10  2  0
 10 11  1  0
 11 12  2  0
 12 13  1  0
 13 14  1  0
 14 15  1  0
 15 16  1  0
 16 17  2  0
 16 18  1  0
 18 19  1  0
 19 20  2  0
 20 21  1  0
 21 22  2  0
 22 23  1  0
 19 24  1  0
 23 24  2  0
  9 25  1  0
 13 25  2  0
  5 26  1  0
  8 26  2  0
M  END
