pyridine_urea_13590
     RDKit          3D

 27 29  0  0  0  0  0  0  0  0999 V2000
    9.0430    1.2340   21.2180 O   0  0  0  0  0  0  0  0  0  0  0  0
    8.5220    0.2640   21.7870 C   0  0  0  0  0  0  0  0  0  0  0  0
    9.2110   -0.6590   22.5210 N   0  0  0  0  0  0  0  0  0  0  0  0
   10.5850   -0.4880   22.6210 C   0  0  0  0  0  0  0  0  0  0  0  0
   11.6510   -1.5750   22.4710 C   0  0  0  0  0  0  0  0  0  0  0  0
   13.0740   -1.0490   22.6170 C   0  0  0  0  0  0  0  0  0  0  0  0
   13.2540    0.4110   22.8750 C   0  0  0  0  0  0  0  0  0  0  0  0
   12.2540    1.2840   22.9880 N   0  0  0  0  0  0  0  0  0  0  0  0
   10.9870    0.8200   22.8650 C   0  0  0  0  0  0  0  0  0  0  0  0
    7.1750    0.0490   21.7340 N   0  0  0  0  0  0  0  0  0  0  0  0
    6.5560    0.8500   20.7370 C   0  0  2  0  0  0  0  0  0  0  0  0
    5.1780    0.9100   20.8400 C   0  0  0  0  0  0  0  0  0  0  0  0
    4.5870    1.5950   19.7680 C   0  0  0  0  0  0  0  0  0  0  0  0
    5.4430    2.0320   18.7360 C   0  0  0  0  0  0  0  0  0  0  0  0
    6.6080    1.2320   18.4930 N   0  0  0  0  0  0  0  0  0  0  0  0
    7.2530    0.8040   17.2460 C   0  0  0  0  0  0  0  0  0  0  0  0
    6.8420    1.5470   16.1890 C   0  0  0  0  0  0  0  0  0  0  0  0
    7.4770    1.1510   14.8650 C   0  0  0  0  0  0  0  0  0  0  0  0
    8.3460    0.2200   14.6610 C   0  0  0  0  0  0  0  0  0  0  0  0
    8.7140    0.1900   13.2450 O   0  0  0  0  0  0  0  0  0  0  0  0
    7.4740    0.2290   12.4790 C   0  0  0  0  0  0  0  0  0  0  0  0
    6.7860    1.3520   12.5560 F   0  0  0  0  0  0  0  0  0  0  0  0
    7.7150    0.0760   11.1630 F   0  0  0  0  0  0  0  0  0  0  0  0
    8.7440   -0.5810   15.8670 C   0  0  0  0  0  0  0  0  0  0  0  0
    8.1620   -0.2310   17.0800 C   0  0  0  0  0  0  0  0  0  0  0  0
    6.9640    0.4790   19.5170 C   0  0  0  0  0  0  0  0  0  0  0  0
    7.7090   -0.6490   19.3950 O   0  0  0  0  0  0  0  0  0  0  0  0
  1  2  2  0
  2  3  1  0
  3  4  1  0
  4  5  2  0
  5  6  1  0
  6  7  2  0
  7  8  1  0
  4  9  1  0
  8  9  2  0
  2 10  1  0
 11 10  1  1
 11 12  1  0
 12 13  1  0
 13 14  1  0
 14 15  1  0
 15 16  1  0
 16 17  2  0
 17 18  1  0
 18 19  2  0
 19 20  1  0
 20 21  1  0
 21 22  1  0
 21 23  1  0
 19 24  1  0
 16 25  1  0
 24 25  2  0
 11 26  1  0
 15 26  1  0
 26 27  2  0
M  END
