pyridine_urea_9041
     RDKit          3D

 19 19  0  0  0  0  0  0  0  0999 V2000
    6.0930   -2.7290   27.1230 C   0  0  0  0  0  0  0  0  0  0  0  0
    7.3680   -2.8220   27.6140 N   0  0  0  0  0  0  0  0  0  0  0  0
    7.8790   -4.0910   28.1200 C   0  0  0  0  0  0  0  0  0  0  0  0
    8.1930   -1.8380   27.1020 C   0  0  0  0  0  0  0  0  0  0  0  0
    8.5400   -0.6750   27.8460 O   0  0  0  0  0  0  0  0  0  0  0  0
    8.5990   -2.1630   25.8380 N   0  0  0  0  0  0  0  0  0  0  0  0
    8.9880   -0.9780   25.2370 C   0  0  0  0  0  0  0  0  0  0  0  0
    8.7890   -0.6960   23.8960 C   0  0  0  0  0  0  0  0  0  0  0  0
    9.5560   -1.3030   22.8920 C   0  0  0  0  0  0  0  0  0  0  0  0
    9.3400   -0.9260   21.6500 N   0  0  0  0  0  0  0  0  0  0  0  0
    8.5270    0.0830   21.2710 C   0  0  0  0  0  0  0  0  0  0  0  0
    8.9080    1.2540   21.1990 O   0  0  0  0  0  0  0  0  0  0  0  0
    7.3280   -0.3550   20.9850 N   0  0  0  0  0  0  0  0  0  0  0  0
    6.4960    0.2240   20.0360 C   0  0  0  0  0  0  0  0  0  0  0  0
    5.3280    0.9130   20.3070 C   0  0  0  0  0  0  0  0  0  0  0  0
    4.6150    1.4680   19.2470 C   0  0  0  0  0  0  0  0  0  0  0  0
    5.1270    1.2910   17.9630 C   0  0  0  0  0  0  0  0  0  0  0  0
    6.2390    0.6220   17.6700 N   0  0  0  0  0  0  0  0  0  0  0  0
    6.8940    0.1050   18.7170 C   0  0  0  0  0  0  0  0  0  0  0  0
  1  2  1  0
  2  3  1  0
  2  4  1  0
  4  5  2  0
  4  6  1  0
  6  7  1  0
  7  8  1  0
  8  9  1  0
  9 10  1  0
 10 11  1  0
 11 12  2  0
 11 13  1  0
 13 14  1  0
 14 15  2  0
 15 16  1  0
 16 17  2  0
 17 18  1  0
 14 19  1  0
 18 19  2  0
M  END
