pyridine_urea_10711
     RDKit          3D

 20 21  0  0  0  0  0  0  0  0999 V2000
   13.3980   -2.4620   24.2210 C   0  0  0  0  0  0  0  0  0  0  0  0
   12.6190   -1.2620   23.9640 N   0  0  0  0  0  0  0  0  0  0  0  0
   12.9220   -0.4110   22.9120 C   0  0  0  0  0  0  0  0  0  0  0  0
   12.4510    0.8840   23.1030 C   0  0  0  0  0  0  0  0  0  0  0  0
   11.1210    1.0060   23.4690 C   0  0  0  0  0  0  0  0  0  0  0  0
   10.3720    1.4150   22.4220 F   0  0  0  0  0  0  0  0  0  0  0  0
   10.9270    1.9880   24.3620 F   0  0  0  0  0  0  0  0  0  0  0  0
   10.5020   -0.1540   23.9270 C   0  0  1  0  0  0  0  0  0  0  0  0
    9.9830   -1.0740   22.8610 C   0  0  0  0  0  0  0  0  0  0  0  0
    8.7020   -0.6630   22.6110 N   0  0  0  0  0  0  0  0  0  0  0  0
    8.2350    0.0480   21.4910 C   0  0  0  0  0  0  0  0  0  0  0  0
    8.7140    1.1220   21.0950 O   0  0  0  0  0  0  0  0  0  0  0  0
    7.1890   -0.6210   20.9540 N   0  0  0  0  0  0  0  0  0  0  0  0
    6.4970    0.0470   20.0200 C   0  0  0  0  0  0  0  0  0  0  0  0
    5.3300    0.7910   20.2100 C   0  0  0  0  0  0  0  0  0  0  0  0
    4.6580    1.4780   19.1940 C   0  0  0  0  0  0  0  0  0  0  0  0
    5.1650    1.4310   17.9080 C   0  0  0  0  0  0  0  0  0  0  0  0
    6.3310    0.6820   17.7030 N   0  0  0  0  0  0  0  0  0  0  0  0
    6.9740    0.0070   18.7300 C   0  0  0  0  0  0  0  0  0  0  0  0
   11.5240   -1.0190   24.7110 C   0  0  0  0  0  0  0  0  0  0  0  0
  1  2  1  0
  2  3  1  0
  3  4  1  0
  4  5  1  0
  5  6  1  0
  5  7  1  0
  5  8  1  0
  8  9  1  6
  9 10  1  0
 10 11  1  0
 11 12  2  0
 11 13  1  0
 13 14  1  0
 14 15  2  0
 15 16  1  0
 16 17  2  0
 17 18  1  0
 14 19  1  0
 18 19  2  0
  2 20  1  0
  8 20  1  0
M  END
