pyridine_urea_6527
     RDKit          3D

 22 24  0  0  0  0  0  0  0  0999 V2000
    8.9660    0.8040   21.3350 O   0  0  0  0  0  0  0  0  0  0  0  0
    8.3280   -0.1520   21.7320 C   0  0  0  0  0  0  0  0  0  0  0  0
    7.2690   -0.7230   21.0550 N   0  0  0  0  0  0  0  0  0  0  0  0
    6.4870   -0.0320   20.1120 C   0  0  0  0  0  0  0  0  0  0  0  0
    5.1840    0.7100   20.4500 C   0  0  0  0  0  0  0  0  0  0  0  0
    4.5260    1.4020   19.2580 C   0  0  0  0  0  0  0  0  0  0  0  0
    5.2030    1.2840   17.9320 C   0  0  0  0  0  0  0  0  0  0  0  0
    6.3430    0.6020   17.7470 N   0  0  0  0  0  0  0  0  0  0  0  0
    6.9290   -0.0150   18.7950 C   0  0  0  0  0  0  0  0  0  0  0  0
    8.5660   -0.7810   22.9480 N   0  0  0  0  0  0  0  0  0  0  0  0
    9.8010   -0.6760   23.7100 C   0  0  2  0  0  0  0  0  0  0  0  0
   10.2260    0.6310   24.0280 C   0  0  0  0  0  0  0  0  0  0  0  0
   10.4540    1.3660   22.8740 C   0  0  0  0  0  0  0  0  0  0  0  0
   10.1760    2.7190   22.7060 C   0  0  0  0  0  0  0  0  0  0  0  0
   11.4740    3.1270   23.0030 C   0  0  0  0  0  0  0  0  0  0  0  0
   11.8690    1.8050   23.3360 C   0  0  0  0  0  0  0  0  0  0  0  0
   10.9070   -1.1220   22.8180 C   0  0  0  0  0  0  0  0  0  0  0  0
   10.9360   -2.0450   21.8940 C   0  0  0  0  0  0  0  0  0  0  0  0
   12.1050   -2.2260   21.2250 C   0  0  0  0  0  0  0  0  0  0  0  0
   13.2780   -1.4590   21.4810 C   0  0  0  0  0  0  0  0  0  0  0  0
   13.5520   -0.3890   22.4340 C   0  0  0  0  0  0  0  0  0  0  0  0
   12.1410   -0.5710   22.8480 C   0  0  0  0  0  0  0  0  0  0  0  0
  1  2  2  0
  2  3  1  0
  3  4  1  0
  4  5  2  0
  5  6  1  0
  6  7  2  0
  7  8  1  0
  4  9  1  0
  8  9  2  0
  2 10  1  0
 10 11  1  0
 11 12  1  6
 12 13  1  0
 13 14  1  0
 14 15  1  0
 13 16  1  0
 15 16  1  0
 11 17  1  0
 17 18  2  0
 18 19  1  0
 19 20  2  0
 20 21  1  0
 17 22  1  0
 21 22  2  0
M  END
