pyridine_urea_8349
     RDKit          3D

 22 23  0  0  0  0  0  0  0  0999 V2000
    8.9410   -2.9290   23.1840 C   0  0  0  0  0  0  0  0  0  0  0  0
    9.7340   -2.8270   22.0070 O   0  0  0  0  0  0  0  0  0  0  0  0
   10.7730   -1.8410   22.1210 C   0  0  0  0  0  0  0  0  0  0  0  0
   11.8310   -1.8130   21.5020 O   0  0  0  0  0  0  0  0  0  0  0  0
   10.3600   -0.7630   23.1960 C   0  0  2  0  0  0  0  0  0  0  0  0
    8.9950   -0.2910   22.8720 N   0  0  0  0  0  0  0  0  0  0  0  0
    8.5470    0.2670   21.6760 C   0  0  0  0  0  0  0  0  0  0  0  0
    9.0470    1.2940   21.2100 O   0  0  0  0  0  0  0  0  0  0  0  0
    7.4320   -0.4840   21.1030 N   0  0  0  0  0  0  0  0  0  0  0  0
    6.6490    0.1090   20.1370 C   0  0  0  0  0  0  0  0  0  0  0  0
    5.5190    0.8480   20.5150 C   0  0  0  0  0  0  0  0  0  0  0  0
    4.6960    1.5010   19.4100 C   0  0  0  0  0  0  0  0  0  0  0  0
    5.2120    1.2640   18.0210 C   0  0  0  0  0  0  0  0  0  0  0  0
    6.2970    0.5360   17.7410 N   0  0  0  0  0  0  0  0  0  0  0  0
    6.9750   -0.0150   18.7840 C   0  0  0  0  0  0  0  0  0  0  0  0
   11.3830    0.3850   23.2280 C   0  0  0  0  0  0  0  0  0  0  0  0
   10.9450    1.8150   23.0140 C   0  0  0  0  0  0  0  0  0  0  0  0
   12.2170    1.1720   23.2570 C   0  0  0  0  0  0  0  0  0  0  0  0
   11.9330   -0.2370   23.4210 C   0  0  0  0  0  0  0  0  0  0  0  0
   13.0140   -0.9050   23.6620 C   0  0  0  0  0  0  0  0  0  0  0  0
   12.1710   -2.5820   23.8520 Br  0  0  0  0  0  0  0  0  0  0  0  0
   12.9120    0.4340   23.4300 C   0  0  0  0  0  0  0  0  0  0  0  0
  1  2  1  0
  2  3  1  0
  3  4  2  0
  3  5  1  0
  5  6  1  6
  6  7  1  0
  7  8  2  0
  7  9  1  0
  9 10  1  0
 10 11  2  0
 11 12  1  0
 12 13  2  0
 13 14  1  0
 10 15  1  0
 14 15  2  0
  5 16  1  0
 16 17  2  0
 17 18  1  0
 18 19  2  0
 19 20  1  0
 20 21  1  0
 16 22  1  0
 20 22  2  0
M  END
