pyridine_urea_79
     RDKit          3D

 20 21  0  0  0  0  0  0  0  0999 V2000
   13.4360   -2.9440   24.8520 C   0  0  0  0  0  0  0  0  0  0  0  0
   13.1730   -1.1970   24.5850 S   0  0  0  0  0  0  0  0  0  0  0  0
   13.2000   -0.5060   25.8340 O   0  0  0  0  0  0  0  0  0  0  0  0
   13.8120   -0.7250   23.3890 O   0  0  0  0  0  0  0  0  0  0  0  0
   11.5070   -1.2070   24.1590 C   0  0  1  0  0  0  0  0  0  0  0  0
   10.9870    0.1680   24.5260 C   0  0  0  0  0  0  0  0  0  0  0  0
    9.8170    0.3710   23.7160 C   0  0  0  0  0  0  0  0  0  0  0  0
    9.5490   -0.8050   23.0780 C   0  0  1  0  0  0  0  0  0  0  0  0
    8.2510   -0.7450   22.5440 N   0  0  0  0  0  0  0  0  0  0  0  0
    8.0450    0.0070   21.4320 C   0  0  0  0  0  0  0  0  0  0  0  0
    8.7200    1.0130   21.1320 O   0  0  0  0  0  0  0  0  0  0  0  0
    6.9990   -0.5400   20.7610 N   0  0  0  0  0  0  0  0  0  0  0  0
    6.2260    0.1710   19.8720 C   0  0  0  0  0  0  0  0  0  0  0  0
    5.0380    0.7280   20.2250 C   0  0  0  0  0  0  0  0  0  0  0  0
    4.5110    1.4360   18.9920 C   0  0  0  0  0  0  0  0  0  0  0  0
    5.1690    1.4620   17.7820 C   0  0  0  0  0  0  0  0  0  0  0  0
    6.3230    0.8640   17.5770 N   0  0  0  0  0  0  0  0  0  0  0  0
    6.8020    0.2440   18.6300 C   0  0  0  0  0  0  0  0  0  0  0  0
   10.6750   -0.5050   22.0690 C   0  0  0  0  0  0  0  0  0  0  0  0
   11.5220   -1.5410   22.7040 C   0  0  0  0  0  0  0  0  0  0  0  0
  2  1  1  0
  2  3  2  0
  2  4  2  0
  5  2  1  6
  5  6  1  0
  6  7  1  0
  7  8  1  0
  8  9  1  6
  9 10  1  0
 10 11  2  0
 10 12  1  0
 12 13  1  0
 13 14  2  0
 14 15  1  0
 15 16  2  0
 16 17  1  0
 13 18  1  0
 17 18  2  0
  8 19  1  0
  5 20  1  0
 19 20  1  0
M  END
