pyridine_urea_11498
     RDKit          3D

 21 23  0  0  0  0  0  0  0  0999 V2000
    7.9750   -1.4980   22.3970 O   0  0  0  0  0  0  0  0  0  0  0  0
    8.4640   -0.5770   21.8200 C   0  0  0  0  0  0  0  0  0  0  0  0
    7.7320    0.4720   21.2980 N   0  0  0  0  0  0  0  0  0  0  0  0
    6.8860    0.5590   20.1610 C   0  0  0  0  0  0  0  0  0  0  0  0
    5.7350    1.3410   20.3160 C   0  0  0  0  0  0  0  0  0  0  0  0
    4.8470    1.5130   19.2590 C   0  0  0  0  0  0  0  0  0  0  0  0
    5.1420    0.8960   18.0730 C   0  0  0  0  0  0  0  0  0  0  0  0
    6.2230    0.1350   17.8790 N   0  0  0  0  0  0  0  0  0  0  0  0
    7.0720   -0.0280   18.9180 C   0  0  0  0  0  0  0  0  0  0  0  0
    9.8540   -0.5250   21.6290 N   0  0  0  0  0  0  0  0  0  0  0  0
   10.9700   -0.2090   22.6700 C   0  0  0  0  0  0  0  0  0  0  0  0
   11.4830    0.8970   23.6920 C   0  0  0  0  0  0  0  0  0  0  0  0
   12.3280   -0.1560   23.7500 C   0  0  0  0  0  0  0  0  0  0  0  0
   11.2970    0.0140   23.0310 C   0  0  0  0  0  0  0  0  0  0  0  0
   10.5340    1.1280   23.0330 C   0  0  0  0  0  0  0  0  0  0  0  0
    9.6870    0.7000   22.1410 C   0  0  0  0  0  0  0  0  0  0  0  0
   10.1910   -0.5830   21.8430 C   0  0  0  0  0  0  0  0  0  0  0  0
   11.4960   -0.9640   22.6470 C   0  0  0  0  0  0  0  0  0  0  0  0
   11.5070    0.2000   23.3130 N   0  0  0  0  0  0  0  0  0  0  0  0
   12.2970   -0.8410   23.3130 C   0  0  0  0  0  0  0  0  0  0  0  0
   12.3720   -2.3510   22.4870 Cl  0  0  0  0  0  0  0  0  0  0  0  0
  1  2  2  0
  2  3  1  0
  3  4  1  0
  4  5  2  0
  5  6  1  0
  6  7  2  0
  7  8  1  0
  4  9  1  0
  8  9  2  0
  2 10  1  0
 10 11  1  0
 11 12  2  0
 12 13  1  0
 13 14  2  0
 14 15  1  0
 15 16  2  0
 16 17  1  0
 13 18  1  0
 17 18  2  0
 18 19  1  0
 11 20  1  0
 19 20  2  0
 20 21  1  0
M  END
