pyridine_urea_14659
     RDKit          3D

 20 21  0  0  0  0  0  0  0  0999 V2000
   13.6690   -2.4200   24.4360 C   0  0  0  0  0  0  0  0  0  0  0  0
   12.9530   -1.1850   23.9090 C   0  0  0  0  0  0  0  0  0  0  0  0
   13.2490   -0.6670   22.6590 C   0  0  0  0  0  0  0  0  0  0  0  0
   11.5130   -1.6130   23.8230 C   0  0  0  0  0  0  0  0  0  0  0  0
   10.3860   -0.7920   23.5310 N   0  0  0  0  0  0  0  0  0  0  0  0
    9.2820   -1.6250   23.5460 C   0  0  0  0  0  0  0  0  0  0  0  0
    8.0210   -1.1910   23.3130 C   0  0  1  0  0  0  0  0  0  0  0  0
    6.9320   -1.4080   24.3910 C   0  0  0  0  0  0  0  0  0  0  0  0
    8.1940    0.1010   23.0130 N   0  0  0  0  0  0  0  0  0  0  0  0
    8.2160    0.4840   21.6340 C   0  0  0  0  0  0  0  0  0  0  0  0
    8.9330    1.3840   21.1750 O   0  0  0  0  0  0  0  0  0  0  0  0
    7.3390   -0.2360   20.8970 N   0  0  0  0  0  0  0  0  0  0  0  0
    6.5190    0.3350   19.9620 C   0  0  0  0  0  0  0  0  0  0  0  0
    5.3400    1.0530   20.2300 C   0  0  0  0  0  0  0  0  0  0  0  0
    4.6250    1.6140   19.1840 C   0  0  0  0  0  0  0  0  0  0  0  0
    5.1130    1.4490   17.8160 C   0  0  0  0  0  0  0  0  0  0  0  0
    6.2660    0.7200   17.5820 N   0  0  0  0  0  0  0  0  0  0  0  0
    6.9140    0.1970   18.6480 C   0  0  0  0  0  0  0  0  0  0  0  0
    9.4640   -3.0760   23.8320 C   0  0  0  0  0  0  0  0  0  0  0  0
   11.1500   -3.3410   24.1020 S   0  0  0  0  0  0  0  0  0  0  0  0
  1  2  1  0
  2  3  1  0
  2  4  1  0
  4  5  2  0
  5  6  1  0
  6  7  1  0
  7  8  1  1
  7  9  1  0
  9 10  1  0
 10 11  2  0
 10 12  1  0
 12 13  1  0
 13 14  2  0
 14 15  1  0
 15 16  2  0
 16 17  1  0
 13 18  1  0
 17 18  2  0
  6 19  2  0
  4 20  1  0
 19 20  1  0
M  END
