pyridine_urea_12415
     RDKit          3D

 22 23  0  0  0  0  0  0  0  0999 V2000
   13.0680   -2.8540   24.4460 C   0  0  0  0  0  0  0  0  0  0  0  0
   12.5030   -1.4550   24.5110 C   0  0  0  0  0  0  0  0  0  0  0  0
   12.0420   -0.9880   23.0570 C   0  0  2  0  0  0  0  0  0  0  0  0
   12.9840   -0.1420   22.4560 C   0  0  0  0  0  0  0  0  0  0  0  0
   10.6230   -0.2570   23.1630 C   0  0  2  0  0  0  0  0  0  0  0  0
    9.6720   -0.7040   22.2000 N   0  0  0  0  0  0  0  0  0  0  0  0
    8.7430    0.0940   21.4640 C   0  0  0  0  0  0  0  0  0  0  0  0
    9.0650    1.2490   21.1510 O   0  0  0  0  0  0  0  0  0  0  0  0
    7.5060   -0.5110   21.1390 N   0  0  0  0  0  0  0  0  0  0  0  0
    6.6950    0.0630   20.0530 C   0  0  0  0  0  0  0  0  0  0  0  0
    5.4420    0.8210   20.5390 C   0  0  0  0  0  0  0  0  0  0  0  0
    4.6190    1.4460   19.4150 C   0  0  0  0  0  0  0  0  0  0  0  0
    5.1210    1.2500   18.0100 C   0  0  0  0  0  0  0  0  0  0  0  0
    6.2400    0.5480   17.7030 N   0  0  0  0  0  0  0  0  0  0  0  0
    7.0060   -0.0320   18.7070 C   0  0  0  0  0  0  0  0  0  0  0  0
   10.6300    1.1270   22.9630 C   0  0  0  0  0  0  0  0  0  0  0  0
   11.8510    0.6350   22.9770 C   0  0  0  0  0  0  0  0  0  0  0  0
   12.0350   -0.7630   23.2210 C   0  0  0  0  0  0  0  0  0  0  0  0
   10.6030   -1.2110   23.3950 C   0  0  0  0  0  0  0  0  0  0  0  0
   10.4150   -2.8830   23.7220 Cl  0  0  0  0  0  0  0  0  0  0  0  0
    9.3170   -0.5780   23.3600 C   0  0  0  0  0  0  0  0  0  0  0  0
    9.2450    0.7600   23.1170 C   0  0  0  0  0  0  0  0  0  0  0  0
  1  2  1  0
  2  3  1  0
  3  4  1  1
  3  5  1  0
  5  6  1  6
  6  7  1  0
  7  8  2  0
  7  9  1  0
  9 10  1  0
 10 11  2  0
 11 12  1  0
 12 13  2  0
 13 14  1  0
 10 15  1  0
 14 15  2  0
  5 16  1  0
 16 17  2  0
 17 18  1  0
 18 19  2  0
 19 20  1  0
 19 21  1  0
 16 22  1  0
 21 22  2  0
M  END
