pyridine_urea_5262
     RDKit          3D

 19 20  0  0  0  0  0  0  0  0999 V2000
    9.0310    0.7190   24.9650 C   0  0  0  0  0  0  0  0  0  0  0  0
   10.2200    0.0240   24.3750 C   0  0  1  0  0  0  0  0  0  0  0  0
   10.7650   -0.6670   25.5040 O   0  0  0  0  0  0  0  0  0  0  0  0
   10.0140   -0.6920   23.1830 C   0  0  0  0  0  0  0  0  0  0  0  0
    8.6430   -0.6500   22.7190 N   0  0  0  0  0  0  0  0  0  0  0  0
    8.3030    0.0610   21.5850 C   0  0  0  0  0  0  0  0  0  0  0  0
    8.8860    1.0920   21.2090 O   0  0  0  0  0  0  0  0  0  0  0  0
    7.1560   -0.5990   20.9650 N   0  0  0  0  0  0  0  0  0  0  0  0
    6.4790    0.0570   19.9870 C   0  0  0  0  0  0  0  0  0  0  0  0
    5.2020    0.8080   20.3330 C   0  0  0  0  0  0  0  0  0  0  0  0
    4.5650    1.4680   19.2890 C   0  0  0  0  0  0  0  0  0  0  0  0
    5.2080    1.3780   17.9000 C   0  0  0  0  0  0  0  0  0  0  0  0
    6.3390    0.6880   17.6640 N   0  0  0  0  0  0  0  0  0  0  0  0
    6.9340    0.0560   18.6920 C   0  0  0  0  0  0  0  0  0  0  0  0
   11.2370    1.0390   23.9300 C   0  0  0  0  0  0  0  0  0  0  0  0
   11.7080   -0.1720   23.5570 C   0  0  0  0  0  0  0  0  0  0  0  0
   12.5650   -1.0090   23.0080 C   0  0  0  0  0  0  0  0  0  0  0  0
   13.5590    0.1770   22.5700 S   0  0  0  0  0  0  0  0  0  0  0  0
   12.4830    1.3770   23.2820 C   0  0  0  0  0  0  0  0  0  0  0  0
  2  1  1  1
  2  3  1  0
  2  4  1  0
  4  5  1  0
  5  6  1  0
  6  7  2  0
  6  8  1  0
  8  9  1  0
  9 10  2  0
 10 11  1  0
 11 12  2  0
 12 13  1  0
  9 14  1  0
 13 14  2  0
  2 15  1  0
 15 16  1  0
 16 17  2  0
 17 18  1  0
 15 19  2  0
 18 19  1  0
M  END
