pyridine_urea_1988
     RDKit          3D

 19 21  0  0  0  0  0  0  0  0999 V2000
    8.8370    1.0760   21.2620 O   0  0  0  0  0  0  0  0  0  0  0  0
    8.1380    0.1370   21.6840 C   0  0  0  0  0  0  0  0  0  0  0  0
    8.1360   -0.3940   22.9590 N   0  0  0  0  0  0  0  0  0  0  0  0
    9.1000   -1.1760   23.6050 C   0  0  0  0  0  0  0  0  0  0  0  0
   10.5530   -0.8220   23.4730 C   0  0  1  0  0  0  0  0  0  0  0  0
   11.2290   -0.1930   24.6370 C   0  0  0  0  0  0  0  0  0  0  0  0
   12.6180    0.0300   24.1930 C   0  0  0  0  0  0  0  0  0  0  0  0
   12.8490   -0.2090   22.8550 C   0  0  1  0  0  0  0  0  0  0  0  0
   12.5150   -1.4960   22.3900 C   0  0  0  0  0  0  0  0  0  0  0  0
   11.4060   -2.0320   23.0620 C   0  0  0  0  0  0  0  0  0  0  0  0
   12.1000    0.5500   22.2650 O   0  0  0  0  0  0  0  0  0  0  0  0
   10.7160    0.2120   22.3960 C   0  0  0  0  0  0  0  0  0  0  0  0
    7.1980   -0.5360   20.9520 N   0  0  0  0  0  0  0  0  0  0  0  0
    6.4480    0.1080   19.9790 C   0  0  0  0  0  0  0  0  0  0  0  0
    5.2390    0.8080   20.2250 C   0  0  0  0  0  0  0  0  0  0  0  0
    4.4750    1.4970   19.2170 C   0  0  0  0  0  0  0  0  0  0  0  0
    5.1520    1.3690   17.8560 C   0  0  0  0  0  0  0  0  0  0  0  0
    6.3010    0.6800   17.6760 N   0  0  0  0  0  0  0  0  0  0  0  0
    6.9410    0.0560   18.7110 C   0  0  0  0  0  0  0  0  0  0  0  0
  1  2  2  0
  2  3  1  0
  3  4  1  0
  5  4  1  1
  5  6  1  0
  6  7  1  0
  8  7  1  1
  8  9  1  0
  5 10  1  0
  9 10  1  0
  8 11  1  0
  5 12  1  0
 11 12  1  0
  2 13  1  0
 13 14  1  0
 14 15  2  0
 15 16  1  0
 16 17  2  0
 17 18  1  0
 14 19  1  0
 18 19  2  0
M  END
