pyridine_urea_15088
     RDKit          3D

 19 21  0  0  0  0  0  0  0  0999 V2000
    8.7760    1.5770   20.8760 O   0  0  0  0  0  0  0  0  0  0  0  0
    8.3400    0.6510   21.5340 C   0  0  0  0  0  0  0  0  0  0  0  0
    7.4070   -0.2670   21.1080 N   0  0  0  0  0  0  0  0  0  0  0  0
    6.6260    0.2420   20.0330 C   0  0  0  0  0  0  0  0  0  0  0  0
    5.3760    1.0300   20.4020 C   0  0  0  0  0  0  0  0  0  0  0  0
    4.5610    1.6100   19.2570 C   0  0  0  0  0  0  0  0  0  0  0  0
    5.1130    1.3230   17.8660 C   0  0  0  0  0  0  0  0  0  0  0  0
    6.2710    0.5690   17.6980 N   0  0  0  0  0  0  0  0  0  0  0  0
    6.9870    0.0510   18.7270 C   0  0  0  0  0  0  0  0  0  0  0  0
    8.7450    0.4670   22.8060 N   0  0  0  0  0  0  0  0  0  0  0  0
    9.9450   -0.1690   23.0310 C   0  0  0  0  0  0  0  0  0  0  0  0
   10.4310   -1.0060   22.0280 C   0  0  0  0  0  0  0  0  0  0  0  0
   11.5360   -1.7530   22.0320 C   0  0  0  0  0  0  0  0  0  0  0  0
   12.2040   -1.6720   23.1490 C   0  0  0  0  0  0  0  0  0  0  0  0
   13.5700   -2.6430   23.2730 S   0  0  0  0  0  0  0  0  0  0  0  0
   13.7020   -1.9470   24.8540 C   0  0  0  0  0  0  0  0  0  0  0  0
   12.7530   -1.0170   25.2000 C   0  0  0  0  0  0  0  0  0  0  0  0
   11.6710   -0.7190   24.2470 C   0  0  0  0  0  0  0  0  0  0  0  0
   10.5830    0.1490   24.4240 C   0  0  0  0  0  0  0  0  0  0  0  0
  1  2  2  0
  2  3  1  0
  3  4  1  0
  4  5  2  0
  5  6  1  0
  6  7  2  0
  7  8  1  0
  4  9  1  0
  8  9  2  0
  2 10  1  0
 10 11  1  0
 11 12  2  0
 12 13  1  0
 13 14  2  0
 14 15  1  0
 15 16  1  0
 16 17  2  0
 14 18  1  0
 17 18  1  0
 11 19  1  0
 18 19  2  0
M  END
