pyridine_urea_2513
     RDKit          3D

 24 26  0  0  0  0  0  0  0  0999 V2000
   12.1060   -0.4330   25.0630 C   0  0  0  0  0  0  0  0  0  0  0  0
   10.5590   -0.4850   25.1860 C   0  0  0  0  0  0  0  0  0  0  0  0
    9.8160   -0.9520   24.1460 C   0  0  0  0  0  0  0  0  0  0  0  0
   10.2990   -1.4390   22.9760 C   0  0  1  0  0  0  0  0  0  0  0  0
    9.1580   -1.4870   22.0270 N   0  0  0  0  0  0  0  0  0  0  0  0
    8.4520   -0.4320   21.5060 C   0  0  0  0  0  0  0  0  0  0  0  0
    8.9470    0.6800   21.3740 O   0  0  0  0  0  0  0  0  0  0  0  0
    7.1810   -0.7650   21.1550 N   0  0  0  0  0  0  0  0  0  0  0  0
    6.5120   -0.0620   20.1910 C   0  0  0  0  0  0  0  0  0  0  0  0
    5.3600    0.6940   20.3920 C   0  0  0  0  0  0  0  0  0  0  0  0
    4.7140    1.4280   19.2470 C   0  0  0  0  0  0  0  0  0  0  0  0
    5.2970    1.3280   18.0020 C   0  0  0  0  0  0  0  0  0  0  0  0
    6.4130    0.5960   17.7960 N   0  0  0  0  0  0  0  0  0  0  0  0
    6.9770   -0.0690   18.8640 C   0  0  0  0  0  0  0  0  0  0  0  0
   11.4200   -0.7260   22.3360 C   0  0  0  0  0  0  0  0  0  0  0  0
   12.2730    0.1180   23.0460 C   0  0  0  0  0  0  0  0  0  0  0  0
   12.1390   -1.7690   21.7260 C   0  0  0  0  0  0  0  0  0  0  0  0
    8.3930   -0.8950   24.4690 O   0  0  0  0  0  0  0  0  0  0  0  0
    8.2980   -0.3860   25.8160 C   0  0  0  0  0  0  0  0  0  0  0  0
    7.1140   -0.1930   26.5070 C   0  0  0  0  0  0  0  0  0  0  0  0
    7.1990    0.2850   27.8110 C   0  0  0  0  0  0  0  0  0  0  0  0
    8.4520    0.5470   28.3740 C   0  0  0  0  0  0  0  0  0  0  0  0
    9.6280    0.3400   27.6370 C   0  0  0  0  0  0  0  0  0  0  0  0
    9.5520   -0.1350   26.3110 C   0  0  0  0  0  0  0  0  0  0  0  0
  1  2  1  0
  2  3  2  0
  3  4  1  0
  4  5  1  6
  5  6  1  0
  6  7  2  0
  6  8  1  0
  8  9  1  0
  9 10  2  0
 10 11  1  0
 11 12  2  0
 12 13  1  0
  9 14  1  0
 13 14  2  0
  4 15  1  0
 15 16  1  0
 15 17  1  0
  3 18  1  0
 18 19  1  0
 19 20  1  0
 20 21  2  0
 21 22  1  0
 22 23  2  0
  2 24  1  0
 19 24  2  0
 23 24  1  0
M  END
