pyridine_urea_3784
     RDKit          3D

 20 22  0  0  0  0  0  0  0  0999 V2000
    8.5990    0.9550   21.1380 O   0  0  0  0  0  0  0  0  0  0  0  0
    8.3440   -0.2000   21.4600 C   0  0  0  0  0  0  0  0  0  0  0  0
    7.1820   -0.8230   21.0700 N   0  0  0  0  0  0  0  0  0  0  0  0
    6.4900   -0.1070   20.0360 C   0  0  0  0  0  0  0  0  0  0  0  0
    5.2100    0.6360   20.4080 C   0  0  0  0  0  0  0  0  0  0  0  0
    4.4990    1.4100   19.2970 C   0  0  0  0  0  0  0  0  0  0  0  0
    5.1660    1.3490   17.9230 C   0  0  0  0  0  0  0  0  0  0  0  0
    6.3410    0.6150   17.7470 N   0  0  0  0  0  0  0  0  0  0  0  0
    6.9620   -0.0760   18.7470 C   0  0  0  0  0  0  0  0  0  0  0  0
    9.1830   -0.9610   22.2430 N   0  0  0  0  0  0  0  0  0  0  0  0
   10.4240   -0.3620   22.5270 C   0  0  2  0  0  0  0  0  0  0  0  0
   11.5620   -1.1380   22.4590 C   0  0  0  0  0  0  0  0  0  0  0  0
   12.5350   -0.3700   23.0240 C   0  0  0  0  0  0  0  0  0  0  0  0
   11.8080    0.3980   23.9250 C   0  0  0  0  0  0  0  0  0  0  0  0
   10.3900    0.4050   23.7110 C   0  0  2  0  0  0  0  0  0  0  0  0
    9.5240    0.0060   24.6810 N   0  0  0  0  0  0  0  0  0  0  0  0
    8.1780   -0.1150   24.4580 C   0  0  0  0  0  0  0  0  0  0  0  0
    7.6510   -0.5580   25.7460 C   0  0  0  0  0  0  0  0  0  0  0  0
    8.5730   -0.6960   26.6760 N   0  0  0  0  0  0  0  0  0  0  0  0
    9.7280   -0.3440   26.0050 C   0  0  0  0  0  0  0  0  0  0  0  0
  1  2  2  0
  2  3  1  0
  3  4  1  0
  4  5  2  0
  5  6  1  0
  6  7  2  0
  7  8  1  0
  4  9  1  0
  8  9  2  0
  2 10  1  0
 11 10  1  1
 11 12  1  0
 12 13  1  0
 13 14  1  0
 11 15  1  0
 14 15  1  0
 15 16  1  1
 16 17  1  0
 17 18  2  0
 18 19  1  0
 16 20  1  0
 19 20  2  0
M  END
