pyridine_urea_1297
     RDKit          3D

 20 21  0  0  0  0  0  0  0  0999 V2000
   14.2750   -3.1390   23.7190 N   0  0  0  0  0  0  0  0  0  0  0  0
   13.5840   -2.2610   23.5860 C   0  0  0  0  0  0  0  0  0  0  0  0
   12.6210   -1.1070   23.5340 C   0  0  0  0  0  0  0  0  0  0  0  0
   12.9430    0.2920   23.3270 C   0  0  0  0  0  0  0  0  0  0  0  0
   11.8190    1.1520   23.3640 C   0  0  0  0  0  0  0  0  0  0  0  0
   10.3510    0.9880   23.5530 C   0  0  0  0  0  0  0  0  0  0  0  0
    9.0280    0.6880   23.7390 C   0  0  0  0  0  0  0  0  0  0  0  0
    8.4630   -0.1630   22.8260 N   0  0  0  0  0  0  0  0  0  0  0  0
    8.1360    0.2170   21.5280 C   0  0  0  0  0  0  0  0  0  0  0  0
    8.7030    1.1910   21.0150 O   0  0  0  0  0  0  0  0  0  0  0  0
    7.1770   -0.5430   20.9660 N   0  0  0  0  0  0  0  0  0  0  0  0
    6.5150    0.0650   19.9770 C   0  0  0  0  0  0  0  0  0  0  0  0
    5.3660    0.7800   20.2570 C   0  0  0  0  0  0  0  0  0  0  0  0
    4.6590    1.4390   19.2610 C   0  0  0  0  0  0  0  0  0  0  0  0
    5.1610    1.3470   17.9620 C   0  0  0  0  0  0  0  0  0  0  0  0
    6.2690    0.6530   17.6630 N   0  0  0  0  0  0  0  0  0  0  0  0
    6.9200    0.0300   18.6640 C   0  0  0  0  0  0  0  0  0  0  0  0
   10.2060   -0.4440   23.7260 C   0  0  0  0  0  0  0  0  0  0  0  0
   11.3680   -1.0870   23.6700 C   0  0  0  0  0  0  0  0  0  0  0  0
   11.7300    0.5710   23.4380 Cl  0  0  0  0  0  0  0  0  0  0  0  0
  1  2  3  0
  2  3  1  0
  3  4  2  0
  4  5  1  0
  5  6  2  0
  6  7  1  0
  7  8  1  0
  8  9  1  0
  9 10  2  0
  9 11  1  0
 11 12  1  0
 12 13  2  0
 13 14  1  0
 14 15  2  0
 15 16  1  0
 12 17  1  0
 16 17  2  0
  6 18  1  0
  3 19  1  0
 18 19  2  0
 19 20  1  0
M  END
