pyridine_urea_5113
     RDKit          3D

 20 22  0  0  0  0  0  0  0  0999 V2000
    8.4730    0.8390   21.1440 O   0  0  0  0  0  0  0  0  0  0  0  0
    7.9420   -0.1920   21.5450 C   0  0  0  0  0  0  0  0  0  0  0  0
    8.3430   -0.9650   22.5720 N   0  0  0  0  0  0  0  0  0  0  0  0
    9.5710   -0.8560   23.1720 C   0  0  0  0  0  0  0  0  0  0  0  0
   10.2240    0.3610   23.0400 C   0  0  0  0  0  0  0  0  0  0  0  0
   11.5280    0.0520   23.1240 C   0  0  0  0  0  0  0  0  0  0  0  0
   11.8220   -1.1670   23.7640 N   0  0  0  0  0  0  0  0  0  0  0  0
   13.1210   -1.2390   23.6830 C   0  0  0  0  0  0  0  0  0  0  0  0
   13.7690   -2.4510   24.2970 C   0  0  0  0  0  0  0  0  0  0  0  0
   13.8840   -2.3780   25.5910 C   0  0  0  0  0  0  0  0  0  0  0  0
   12.7570   -3.1770   25.4090 C   0  0  0  0  0  0  0  0  0  0  0  0
   13.6020   -0.1070   23.0190 N   0  0  0  0  0  0  0  0  0  0  0  0
   12.4650    0.6910   22.6960 O   0  0  0  0  0  0  0  0  0  0  0  0
    6.8160   -0.7150   20.9940 N   0  0  0  0  0  0  0  0  0  0  0  0
    6.2890   -0.0050   19.8920 C   0  0  0  0  0  0  0  0  0  0  0  0
    5.1070    0.6600   20.1250 C   0  0  0  0  0  0  0  0  0  0  0  0
    4.5240    1.3950   19.1010 C   0  0  0  0  0  0  0  0  0  0  0  0
    5.1740    1.4270   17.8630 C   0  0  0  0  0  0  0  0  0  0  0  0
    6.3260    0.7730   17.6340 N   0  0  0  0  0  0  0  0  0  0  0  0
    6.8560    0.0710   18.6500 C   0  0  0  0  0  0  0  0  0  0  0  0
  1  2  2  0
  2  3  1  0
  3  4  1  0
  4  5  1  0
  5  6  1  0
  6  7  2  0
  7  8  1  0
  8  9  1  0
  9 10  1  0
  9 11  1  0
 10 11  1  0
  8 12  2  0
  6 13  1  0
 12 13  1  0
  2 14  1  0
 14 15  1  0
 15 16  2  0
 16 17  1  0
 17 18  2  0
 18 19  1  0
 15 20  1  0
 19 20  2  0
M  END
