pyridine_urea_11089
     RDKit          3D

 18 19  0  0  0  0  0  0  0  0999 V2000
    8.3450   -2.2880   25.7060 C   0  0  0  0  0  0  0  0  0  0  0  0
    9.3850   -2.1480   24.8140 N   0  0  0  0  0  0  0  0  0  0  0  0
    9.4410   -2.9580   23.5990 C   0  0  0  0  0  0  0  0  0  0  0  0
    9.8410   -0.7570   24.7730 C   0  0  0  0  0  0  0  0  0  0  0  0
    9.8510   -0.2430   23.3820 C   0  0  0  0  0  0  0  0  0  0  0  0
    8.5710   -0.3000   22.8440 N   0  0  0  0  0  0  0  0  0  0  0  0
    8.3780    0.1110   21.6130 C   0  0  0  0  0  0  0  0  0  0  0  0
    9.0200    1.3450   21.1590 O   0  0  0  0  0  0  0  0  0  0  0  0
    7.5200   -0.6170   20.8160 N   0  0  0  0  0  0  0  0  0  0  0  0
    6.7510    0.0150   19.9760 C   0  0  0  0  0  0  0  0  0  0  0  0
    5.5440    0.7950   20.3420 C   0  0  0  0  0  0  0  0  0  0  0  0
    4.6990    1.4790   19.5160 C   0  0  0  0  0  0  0  0  0  0  0  0
    5.2100    1.3120   18.0920 C   0  0  0  0  0  0  0  0  0  0  0  0
    6.2980    0.6030   17.7370 N   0  0  0  0  0  0  0  0  0  0  0  0
    7.0270   -0.0150   18.6600 C   0  0  0  0  0  0  0  0  0  0  0  0
   10.9940   -0.9400   22.5910 C   0  0  0  0  0  0  0  0  0  0  0  0
   11.8080    0.0930   22.8900 C   0  0  0  0  0  0  0  0  0  0  0  0
   10.7160    1.0880   23.2120 C   0  0  0  0  0  0  0  0  0  0  0  0
  1  2  1  0
  2  3  1  0
  2  4  1  0
  4  5  1  0
  5  6  1  0
  6  7  1  0
  7  8  2  0
  7  9  1  0
  9 10  1  0
 10 11  2  0
 11 12  1  0
 12 13  2  0
 13 14  1  0
 10 15  1  0
 14 15  2  0
  5 16  1  0
 16 17  1  0
  5 18  1  0
 17 18  1  0
M  END
