pyridine_urea_13209
     RDKit          3D

 17 17  0  0  0  0  0  0  0  0999 V2000
   12.9950   -0.9610   22.2640 C   0  0  0  0  0  0  0  0  0  0  0  0
   13.0640    0.1090   23.2980 C   0  0  0  0  0  0  0  0  0  0  0  0
   11.9950    0.9300   23.6360 C   0  0  1  0  0  0  0  0  0  0  0  0
   11.8380    2.1110   22.9260 C   0  0  0  0  0  0  0  0  0  0  0  0
   10.6470    0.1740   23.7110 C   0  0  0  0  0  0  0  0  0  0  0  0
   10.1650   -1.1190   23.0700 C   0  0  2  0  0  0  0  0  0  0  0  0
   10.8380   -1.6210   21.9680 C   0  0  0  0  0  0  0  0  0  0  0  0
    8.7690   -1.0020   22.7170 N   0  0  0  0  0  0  0  0  0  0  0  0
    8.3670   -0.2080   21.6640 C   0  0  0  0  0  0  0  0  0  0  0  0
    9.0140    0.7910   21.3680 O   0  0  0  0  0  0  0  0  0  0  0  0
    7.2180   -0.6630   21.0550 N   0  0  0  0  0  0  0  0  0  0  0  0
    6.4710    0.0200   20.0800 C   0  0  0  0  0  0  0  0  0  0  0  0
    5.3010    0.7330   20.2960 C   0  0  0  0  0  0  0  0  0  0  0  0
    4.6420    1.3820   19.2520 C   0  0  0  0  0  0  0  0  0  0  0  0
    5.2000    1.2930   17.9770 C   0  0  0  0  0  0  0  0  0  0  0  0
    6.3310    0.6060   17.7320 N   0  0  0  0  0  0  0  0  0  0  0  0
    6.9320   -0.0100   18.7730 C   0  0  0  0  0  0  0  0  0  0  0  0
  1  2  1  0
  2  3  1  0
  3  4  1  6
  3  5  1  0
  5  6  1  0
  6  7  1  6
  6  8  1  0
  8  9  1  0
  9 10  2  0
  9 11  1  0
 11 12  1  0
 12 13  2  0
 13 14  1  0
 14 15  2  0
 15 16  1  0
 12 17  1  0
 16 17  2  0
M  END
