pyridine_urea_1457
     RDKit          3D

 20 21  0  0  0  0  0  0  0  0999 V2000
    9.1190   -5.7660   27.2080 C   0  0  0  0  0  0  0  0  0  0  0  0
    8.2270   -4.5050   27.0480 C   0  0  0  0  0  0  0  0  0  0  0  0
    7.4210   -4.2240   28.1880 O   0  0  0  0  0  0  0  0  0  0  0  0
    8.3450   -3.7830   25.7810 N   0  0  0  0  0  0  0  0  0  0  0  0
    8.5570   -4.4930   24.6630 C   0  0  0  0  0  0  0  0  0  0  0  0
    7.6560   -4.0440   23.7220 C   0  0  0  0  0  0  0  0  0  0  0  0
    7.5420   -2.6640   23.5480 C   0  0  0  0  0  0  0  0  0  0  0  0
    8.7450   -2.1830   23.0040 C   0  0  0  0  0  0  0  0  0  0  0  0
    8.8230   -0.8380   22.7030 N   0  0  0  0  0  0  0  0  0  0  0  0
    8.2670   -0.1530   21.5950 C   0  0  0  0  0  0  0  0  0  0  0  0
    8.7370    0.9030   21.1900 O   0  0  0  0  0  0  0  0  0  0  0  0
    7.1780   -0.7320   21.0410 N   0  0  0  0  0  0  0  0  0  0  0  0
    6.5480   -0.0660   20.0340 C   0  0  0  0  0  0  0  0  0  0  0  0
    5.3780    0.6370   20.3070 C   0  0  0  0  0  0  0  0  0  0  0  0
    4.7230    1.3350   19.2840 C   0  0  0  0  0  0  0  0  0  0  0  0
    5.2720    1.3090   17.9980 C   0  0  0  0  0  0  0  0  0  0  0  0
    6.3960    0.6330   17.7240 N   0  0  0  0  0  0  0  0  0  0  0  0
    7.0010   -0.0280   18.7310 C   0  0  0  0  0  0  0  0  0  0  0  0
    6.9200   -2.2320   24.7360 C   0  0  0  0  0  0  0  0  0  0  0  0
    8.0510   -2.4370   25.6020 C   0  0  0  0  0  0  0  0  0  0  0  0
  1  2  1  0
  2  3  2  0
  2  4  1  0
  4  5  1  0
  5  6  1  0
  6  7  1  0
  7  8  1  0
  8  9  1  0
  9 10  1  0
 10 11  2  0
 10 12  1  0
 12 13  1  0
 13 14  2  0
 14 15  1  0
 15 16  2  0
 16 17  1  0
 13 18  1  0
 17 18  2  0
  7 19  1  0
  4 20  1  0
 19 20  1  0
M  END
