pyridine_urea_14890
     RDKit          3D

 20 22  0  0  0  0  0  0  0  0999 V2000
    8.8370    1.1990   21.1690 O   0  0  0  0  0  0  0  0  0  0  0  0
    8.3510    0.1160   21.5240 C   0  0  0  0  0  0  0  0  0  0  0  0
    8.8220   -0.6470   22.5650 N   0  0  0  0  0  0  0  0  0  0  0  0
   10.1600   -0.7560   22.9630 C   0  0  0  0  0  0  0  0  0  0  0  0
   10.9780    0.3540   23.1350 C   0  0  1  0  0  0  0  0  0  0  0  0
   11.6810    0.3320   24.3200 C   0  0  0  0  0  0  0  0  0  0  0  0
   12.6450   -0.5910   24.0940 N   0  0  0  0  0  0  0  0  0  0  0  0
   12.3220   -1.8820   24.6500 C   0  0  0  0  0  0  0  0  0  0  0  0
   13.2340   -2.7290   24.6580 C   0  0  0  0  0  0  0  0  0  0  0  0
   11.8960   -3.0270   23.8340 C   0  0  0  0  0  0  0  0  0  0  0  0
   12.8040   -0.4660   22.6920 C   0  0  0  0  0  0  0  0  0  0  0  0
   13.6090   -1.0730   22.0010 O   0  0  0  0  0  0  0  0  0  0  0  0
   12.0110    0.3230   22.2240 O   0  0  0  0  0  0  0  0  0  0  0  0
    7.2460   -0.4890   20.9490 N   0  0  0  0  0  0  0  0  0  0  0  0
    6.4700    0.1640   20.0050 C   0  0  0  0  0  0  0  0  0  0  0  0
    5.2900    0.8870   20.2750 C   0  0  0  0  0  0  0  0  0  0  0  0
    4.6120    1.5270   19.2290 C   0  0  0  0  0  0  0  0  0  0  0  0
    5.1570    1.4240   17.8680 C   0  0  0  0  0  0  0  0  0  0  0  0
    6.3120    0.6930   17.6430 N   0  0  0  0  0  0  0  0  0  0  0  0
    6.9170    0.0980   18.6960 C   0  0  0  0  0  0  0  0  0  0  0  0
  1  2  2  0
  2  3  1  0
  3  4  1  0
  5  4  1  6
  5  6  1  0
  6  7  1  0
  7  8  1  0
  8  9  1  0
  8 10  1  0
  9 10  1  0
  7 11  1  0
 11 12  2  0
  5 13  1  0
 11 13  1  0
  2 14  1  0
 14 15  1  0
 15 16  2  0
 16 17  1  0
 17 18  2  0
 18 19  1  0
 15 20  1  0
 19 20  2  0
M  END
