pyridine_urea_4510
     RDKit          3D

 23 25  0  0  0  0  0  0  0  0999 V2000
    9.0070    1.0890   21.2640 O   0  0  0  0  0  0  0  0  0  0  0  0
    8.3640    0.0890   21.6280 C   0  0  0  0  0  0  0  0  0  0  0  0
    8.6450   -0.6300   22.7720 N   0  0  0  0  0  0  0  0  0  0  0  0
    9.0170   -2.0210   22.6460 C   0  0  0  0  0  0  0  0  0  0  0  0
    7.9650   -3.0300   23.1290 C   0  0  0  0  0  0  0  0  0  0  0  0
    8.3950   -4.2780   23.4020 N   0  0  0  0  0  0  0  0  0  0  0  0
    7.4520   -5.1320   23.8080 N   0  0  0  0  0  0  0  0  0  0  0  0
    6.3350   -4.3070   23.7870 C   0  0  0  0  0  0  0  0  0  0  0  0
    4.9910   -4.9100   24.2020 C   0  0  0  0  0  0  0  0  0  0  0  0
    4.9060   -5.6900   25.5130 C   0  0  0  0  0  0  0  0  0  0  0  0
    3.5320   -6.2690   25.8410 C   0  0  0  0  0  0  0  0  0  0  0  0
    2.5070   -6.0340   24.9250 C   0  0  0  0  0  0  0  0  0  0  0  0
    1.3340   -6.5990   25.3220 F   0  0  0  0  0  0  0  0  0  0  0  0
    2.6380   -5.3130   23.7390 C   0  0  0  0  0  0  0  0  0  0  0  0
    3.8600   -4.7580   23.3860 C   0  0  0  0  0  0  0  0  0  0  0  0
    6.6070   -2.9900   23.3700 N   0  0  0  0  0  0  0  0  0  0  0  0
    7.2760   -0.4600   20.9960 N   0  0  0  0  0  0  0  0  0  0  0  0
    6.5230    0.1550   20.0600 C   0  0  0  0  0  0  0  0  0  0  0  0
    5.3580    0.8890   20.3300 C   0  0  0  0  0  0  0  0  0  0  0  0
    4.6380    1.5320   19.2000 C   0  0  0  0  0  0  0  0  0  0  0  0
    5.1760    1.3530   17.9440 C   0  0  0  0  0  0  0  0  0  0  0  0
    6.2770    0.6460   17.6850 N   0  0  0  0  0  0  0  0  0  0  0  0
    6.9090    0.0780   18.7300 C   0  0  0  0  0  0  0  0  0  0  0  0
  1  2  2  0
  2  3  1  0
  3  4  1  0
  4  5  1  0
  5  6  2  0
  6  7  1  0
  7  8  2  0
  8  9  1  0
  9 10  2  0
 10 11  1  0
 11 12  2  0
 12 13  1  0
 12 14  1  0
  9 15  1  0
 14 15  2  0
  5 16  1  0
  8 16  1  0
  2 17  1  0
 17 18  1  0
 18 19  2  0
 19 20  1  0
 20 21  2  0
 21 22  1  0
 18 23  1  0
 22 23  2  0
M  END
