pyridine_urea_8511
     RDKit          3D

 22 24  0  0  0  0  0  0  0  0999 V2000
    6.5900   -2.4260   23.1110 C   0  0  0  0  0  0  0  0  0  0  0  0
    7.0360   -1.0530   23.5310 C   0  0  2  0  0  0  0  0  0  0  0  0
    8.3800   -0.8370   23.0070 N   0  0  0  0  0  0  0  0  0  0  0  0
    8.2990   -0.2270   21.6720 C   0  0  0  0  0  0  0  0  0  0  0  0
    9.1490    0.5970   21.3050 O   0  0  0  0  0  0  0  0  0  0  0  0
    7.2040   -0.6880   20.9910 N   0  0  0  0  0  0  0  0  0  0  0  0
    6.5210   -0.0120   19.9790 C   0  0  0  0  0  0  0  0  0  0  0  0
    5.3460    0.6510   20.2710 C   0  0  0  0  0  0  0  0  0  0  0  0
    4.6170    1.3910   19.1690 C   0  0  0  0  0  0  0  0  0  0  0  0
    5.1750    1.3630   17.9050 C   0  0  0  0  0  0  0  0  0  0  0  0
    6.3210    0.6980   17.6640 N   0  0  0  0  0  0  0  0  0  0  0  0
    6.9540    0.0400   18.6700 C   0  0  0  0  0  0  0  0  0  0  0  0
    7.0100   -0.8580   25.0860 C   0  0  0  0  0  0  0  0  0  0  0  0
    7.3430    0.3670   25.5730 N   0  0  0  0  0  0  0  0  0  0  0  0
    7.2850    0.3150   26.9140 C   0  0  0  0  0  0  0  0  0  0  0  0
    6.9180   -0.8970   27.4330 C   0  0  0  0  0  0  0  0  0  0  0  0
    6.6020   -2.0790   26.2330 S   0  0  0  0  0  0  0  0  0  0  0  0
    6.8200   -1.1260   28.8100 C   0  0  0  0  0  0  0  0  0  0  0  0
    7.9420   -0.6020   29.4580 C   0  0  0  0  0  0  0  0  0  0  0  0
    7.6700    0.6820   29.9100 C   0  0  0  0  0  0  0  0  0  0  0  0
    6.9260    1.4010   28.9750 C   0  0  0  0  0  0  0  0  0  0  0  0
    7.5770    1.4130   27.7380 C   0  0  0  0  0  0  0  0  0  0  0  0
  2  1  1  1
  2  3  1  0
  3  4  1  0
  4  5  2  0
  4  6  1  0
  6  7  1  0
  7  8  2  0
  8  9  1  0
  9 10  2  0
 10 11  1  0
  7 12  1  0
 11 12  2  0
  2 13  1  0
 13 14  2  0
 14 15  1  0
 15 16  2  0
 13 17  1  0
 16 17  1  0
 16 18  1  0
 18 19  1  0
 19 20  1  0
 20 21  1  0
 15 22  1  0
 21 22  1  0
M  END
