pyridine_urea_8393
     RDKit          3D

 22 23  0  0  0  0  0  0  0  0999 V2000
   12.6440   -2.8090   21.0370 C   0  0  0  0  0  0  0  0  0  0  0  0
   11.5400   -2.4200   21.8490 O   0  0  0  0  0  0  0  0  0  0  0  0
   11.7770   -1.0600   22.0930 C   0  0  0  0  0  0  0  0  0  0  0  0
   12.8610   -1.2740   21.5580 O   0  0  0  0  0  0  0  0  0  0  0  0
   10.3370   -1.2290   22.6910 C   0  0  1  0  0  0  0  0  0  0  0  0
   10.0630   -0.1730   23.5280 C   0  0  0  0  0  0  0  0  0  0  0  0
   11.3260    0.3580   24.1770 C   0  0  2  0  0  0  0  0  0  0  0  0
   12.3570    0.7120   23.3090 C   0  0  0  0  0  0  0  0  0  0  0  0
   13.1670   -0.5350   23.1620 C   0  0  0  0  0  0  0  0  0  0  0  0
   13.3500   -1.9310   23.6690 C   0  0  0  0  0  0  0  0  0  0  0  0
   12.2670   -2.0410   24.7340 C   0  0  0  0  0  0  0  0  0  0  0  0
   11.7850   -0.6010   25.1290 C   0  0  0  0  0  0  0  0  0  0  0  0
    9.2880   -1.3380   21.6870 N   0  0  0  0  0  0  0  0  0  0  0  0
    8.5010   -0.2550   21.3580 C   0  0  0  0  0  0  0  0  0  0  0  0
    8.9580    1.0370   21.3380 O   0  0  0  0  0  0  0  0  0  0  0  0
    7.1850   -0.6330   21.0180 N   0  0  0  0  0  0  0  0  0  0  0  0
    6.4220    0.0220   20.0690 C   0  0  0  0  0  0  0  0  0  0  0  0
    5.2400    0.7160   20.3090 C   0  0  0  0  0  0  0  0  0  0  0  0
    4.5940    1.3460   19.2430 C   0  0  0  0  0  0  0  0  0  0  0  0
    5.1530    1.2610   17.9770 C   0  0  0  0  0  0  0  0  0  0  0  0
    6.2850    0.5900   17.7250 N   0  0  0  0  0  0  0  0  0  0  0  0
    6.8840   -0.0080   18.7680 C   0  0  0  0  0  0  0  0  0  0  0  0
  1  2  1  0
  2  3  1  0
  3  4  2  0
  3  5  1  0
  5  6  1  1
  7  6  1  6
  7  8  1  0
  8  9  1  0
  9 10  2  0
 10 11  1  0
  7 12  1  0
 11 12  1  0
  5 13  1  0
 13 14  1  0
 14 15  2  0
 14 16  1  0
 16 17  1  0
 17 18  2  0
 18 19  1  0
 19 20  2  0
 20 21  1  0
 17 22  1  0
 21 22  2  0
M  END
