pyridine_urea_13221
     RDKit          3D

 17 17  0  0  0  0  0  0  0  0999 V2000
   12.9780   -0.9390   22.2410 C   0  0  0  0  0  0  0  0  0  0  0  0
   11.5640   -1.4690   22.1520 C   0  0  0  0  0  0  0  0  0  0  0  0
   10.5690   -1.0030   23.0160 C   0  0  0  0  0  0  0  0  0  0  0  0
   10.6490    0.2880   23.5550 C   0  0  0  0  0  0  0  0  0  0  0  0
   11.9410    0.7690   23.7130 C   0  0  0  0  0  0  0  0  0  0  0  0
   10.6770   -1.9200   24.2820 C   0  0  0  0  0  0  0  0  0  0  0  0
   11.7660   -2.7530   24.5870 C   0  0  0  0  0  0  0  0  0  0  0  0
    9.2150   -1.2630   22.4620 N   0  0  0  0  0  0  0  0  0  0  0  0
    8.6200   -0.3070   21.6310 C   0  0  0  0  0  0  0  0  0  0  0  0
    9.1620    0.7740   21.4490 O   0  0  0  0  0  0  0  0  0  0  0  0
    7.4030   -0.7190   21.0960 N   0  0  0  0  0  0  0  0  0  0  0  0
    6.6050   -0.0300   20.1420 C   0  0  0  0  0  0  0  0  0  0  0  0
    5.4610    0.7090   20.4180 C   0  0  0  0  0  0  0  0  0  0  0  0
    4.7470    1.3580   19.4090 C   0  0  0  0  0  0  0  0  0  0  0  0
    5.2150    1.2460   18.1020 C   0  0  0  0  0  0  0  0  0  0  0  0
    6.3100    0.5370   17.7900 N   0  0  0  0  0  0  0  0  0  0  0  0
    6.9730   -0.0790   18.8040 C   0  0  0  0  0  0  0  0  0  0  0  0
  1  2  1  0
  2  3  1  0
  3  4  1  0
  4  5  1  0
  3  6  1  0
  6  7  1  0
  3  8  1  0
  8  9  1  0
  9 10  2  0
  9 11  1  0
 11 12  1  0
 12 13  2  0
 13 14  1  0
 14 15  2  0
 15 16  1  0
 12 17  1  0
 16 17  2  0
M  END
