pyridine_urea_11575
     RDKit          3D

 19 20  0  0  0  0  0  0  0  0999 V2000
    4.6560    2.3040   18.5770 C   0  0  0  0  0  0  0  0  0  0  0  0
    5.3260    1.3580   17.6270 C   0  0  0  0  0  0  0  0  0  0  0  0
    5.8560    0.2520   18.3150 N   0  0  0  0  0  0  0  0  0  0  0  0
    6.8850    0.4210   19.1810 C   0  0  0  0  0  0  0  0  0  0  0  0
    6.4140    0.2780   20.4460 C   0  0  2  0  0  0  0  0  0  0  0  0
    7.2770   -0.4200   21.2400 N   0  0  0  0  0  0  0  0  0  0  0  0
    8.5240    0.0800   21.5660 C   0  0  0  0  0  0  0  0  0  0  0  0
    8.9170    1.1870   21.1680 O   0  0  0  0  0  0  0  0  0  0  0  0
    9.2380   -0.7840   22.3400 N   0  0  0  0  0  0  0  0  0  0  0  0
   10.5620   -0.4650   22.5280 C   0  0  0  0  0  0  0  0  0  0  0  0
   11.5480   -1.4100   22.3310 C   0  0  0  0  0  0  0  0  0  0  0  0
   12.9850   -0.9410   22.5390 C   0  0  0  0  0  0  0  0  0  0  0  0
   13.1620    0.3700   22.9000 C   0  0  0  0  0  0  0  0  0  0  0  0
   12.1670    1.2590   23.0870 N   0  0  0  0  0  0  0  0  0  0  0  0
   10.9230    0.8120   22.8980 C   0  0  0  0  0  0  0  0  0  0  0  0
    5.2230   -0.3530   20.3450 C   0  0  0  0  0  0  0  0  0  0  0  0
    5.3260   -1.7410   20.3670 C   0  0  0  0  0  0  0  0  0  0  0  0
    4.1970    0.4550   21.0400 C   0  0  0  0  0  0  0  0  0  0  0  0
    4.8630   -0.4640   19.0350 C   0  0  0  0  0  0  0  0  0  0  0  0
  1  2  1  0
  2  3  1  0
  3  4  1  0
  4  5  1  0
  5  6  1  1
  6  7  1  0
  7  8  2  0
  7  9  1  0
  9 10  1  0
 10 11  2  0
 11 12  1  0
 12 13  2  0
 13 14  1  0
 10 15  1  0
 14 15  2  0
  5 16  1  0
 16 17  1  0
 16 18  1  0
  3 19  1  0
 16 19  1  0
M  END
