pyridine_urea_4045
     RDKit          3D

 26 28  0  0  0  0  0  0  0  0999 V2000
   13.3440   -3.2680   25.2940 C   0  0  0  0  0  0  0  0  0  0  0  0
   11.9430   -3.5400   25.0220 O   0  0  0  0  0  0  0  0  0  0  0  0
   11.5260   -3.0170   23.8330 C   0  0  0  0  0  0  0  0  0  0  0  0
   10.3850   -2.9830   23.4020 O   0  0  0  0  0  0  0  0  0  0  0  0
   12.7340   -2.5400   23.2520 N   0  0  0  0  0  0  0  0  0  0  0  0
   13.5040   -2.0530   24.2120 C   0  0  0  0  0  0  0  0  0  0  0  0
   12.9080   -1.0110   24.8530 C   0  0  0  0  0  0  0  0  0  0  0  0
   12.7500    0.0030   23.9390 N   0  0  0  0  0  0  0  0  0  0  0  0
   11.5100    0.1960   23.6120 C   0  0  0  0  0  0  0  0  0  0  0  0
   10.7880    1.2080   24.0540 C   0  0  0  0  0  0  0  0  0  0  0  0
    9.5410    1.1970   23.6070 C   0  0  0  0  0  0  0  0  0  0  0  0
    9.0840    0.0670   22.6540 C   0  0  0  0  0  0  0  0  0  0  0  0
    7.8690    0.0520   22.1970 N   0  0  0  0  0  0  0  0  0  0  0  0
    7.9130    0.4470   20.9190 C   0  0  0  0  0  0  0  0  0  0  0  0
    8.8330    1.2050   21.1850 O   0  0  0  0  0  0  0  0  0  0  0  0
    6.9110   -0.4560   20.9360 N   0  0  0  0  0  0  0  0  0  0  0  0
    6.2100    0.1290   19.9980 C   0  0  0  0  0  0  0  0  0  0  0  0
    4.9940    0.7540   20.1180 C   0  0  0  0  0  0  0  0  0  0  0  0
    4.4420    1.3600   18.9990 C   0  0  0  0  0  0  0  0  0  0  0  0
    5.1000    1.3400   17.7700 C   0  0  0  0  0  0  0  0  0  0  0  0
    6.2700    0.7090   17.6800 N   0  0  0  0  0  0  0  0  0  0  0  0
    6.7870    0.1330   18.7630 C   0  0  0  0  0  0  0  0  0  0  0  0
    9.9930   -1.0770   22.1730 C   0  0  0  0  0  0  0  0  0  0  0  0
   11.1150   -0.7630   22.8010 N   0  0  0  0  0  0  0  0  0  0  0  0
   13.1790   -0.3580   22.6780 C   0  0  0  0  0  0  0  0  0  0  0  0
   12.8480   -1.6210   22.1280 C   0  0  0  0  0  0  0  0  0  0  0  0
  1  2  1  0
  2  3  1  0
  3  4  2  0
  3  5  1  0
  5  6  1  0
  6  7  1  0
  7  8  1  0
  8  9  1  0
  9 10  2  0
 10 11  1  0
 11 12  2  0
 12 13  1  0
 13 14  1  0
 14 15  2  0
 14 16  1  0
 16 17  1  0
 17 18  2  0
 18 19  1  0
 19 20  2  0
 20 21  1  0
 17 22  1  0
 21 22  2  0
 12 23  1  0
  9 24  1  0
 23 24  2  0
  8 25  1  0
  5 26  1  0
 25 26  1  0
M  END
