pyridine_urea_10487
     RDKit          3D

 22 23  0  0  0  0  0  0  0  0999 V2000
    8.5900    0.8800   21.1520 O   0  0  0  0  0  0  0  0  0  0  0  0
    8.3660   -0.2840   21.4260 C   0  0  0  0  0  0  0  0  0  0  0  0
    7.2400   -0.9150   20.9650 N   0  0  0  0  0  0  0  0  0  0  0  0
    6.4340   -0.1900   20.0680 C   0  0  0  0  0  0  0  0  0  0  0  0
    5.0950    0.4890   20.4130 C   0  0  0  0  0  0  0  0  0  0  0  0
    4.4530    1.2380   19.2430 C   0  0  0  0  0  0  0  0  0  0  0  0
    5.1730    1.2280   17.9330 C   0  0  0  0  0  0  0  0  0  0  0  0
    6.3390    0.5900   17.7450 N   0  0  0  0  0  0  0  0  0  0  0  0
    6.9110   -0.0740   18.7710 C   0  0  0  0  0  0  0  0  0  0  0  0
    9.2350   -1.0150   22.2230 N   0  0  0  0  0  0  0  0  0  0  0  0
   10.2190   -0.2340   22.9680 C   0  0  1  0  0  0  0  0  0  0  0  0
   11.5540   -0.7310   22.6500 C   0  0  0  0  0  0  0  0  0  0  0  0
   12.9230   -1.0300   22.3770 C   0  0  0  0  0  0  0  0  0  0  0  0
   13.0820    0.0350   22.6160 C   0  0  0  0  0  0  0  0  0  0  0  0
   11.6550   -0.0440   22.8220 C   0  0  0  0  0  0  0  0  0  0  0  0
   12.4590    1.6550   23.0500 Br  0  0  0  0  0  0  0  0  0  0  0  0
   10.5900    0.6490   23.1490 C   0  0  0  0  0  0  0  0  0  0  0  0
   11.9770    0.8700   22.9840 C   0  0  0  0  0  0  0  0  0  0  0  0
   10.0140    1.1770   22.8380 C   0  0  0  0  0  0  0  0  0  0  0  0
    9.0380    1.6590   23.6800 F   0  0  0  0  0  0  0  0  0  0  0  0
   11.0820    1.9720   22.9830 F   0  0  0  0  0  0  0  0  0  0  0  0
    9.4990    1.4890   21.6300 F   0  0  0  0  0  0  0  0  0  0  0  0
  1  2  2  0
  2  3  1  0
  3  4  1  0
  4  5  2  0
  5  6  1  0
  6  7  2  0
  7  8  1  0
  4  9  1  0
  8  9  2  0
  2 10  1  0
 11 10  1  6
 11 12  1  0
 12 13  2  0
 13 14  1  0
 14 15  2  0
 15 16  1  0
 15 17  1  0
 12 18  1  0
 17 18  2  0
 11 19  1  0
 19 20  1  0
 19 21  1  0
 19 22  1  0
M  END
