pyridine_urea_11641
     RDKit          3D

 28 31  0  0  0  0  0  0  0  0999 V2000
    4.0270   -0.9730   28.6510 O   0  0  0  0  0  0  0  0  0  0  0  0
    4.9200   -0.7800   27.8350 C   0  0  0  0  0  0  0  0  0  0  0  0
    5.0950    0.5290   27.1350 C   0  0  0  0  0  0  0  0  0  0  0  0
    6.0940    0.6330   26.1660 C   0  0  0  0  0  0  0  0  0  0  0  0
    7.3210    0.0020   26.3870 C   0  0  2  0  0  0  0  0  0  0  0  0
    8.2960   -0.0050   25.3580 N   0  0  0  0  0  0  0  0  0  0  0  0
    8.3070   -0.7830   24.2140 C   0  0  0  0  0  0  0  0  0  0  0  0
    9.6500   -0.6420   23.8240 C   0  0  0  0  0  0  0  0  0  0  0  0
   10.0370   -1.0250   22.5780 C   0  0  0  0  0  0  0  0  0  0  0  0
    9.0860   -1.5110   21.7450 N   0  0  0  0  0  0  0  0  0  0  0  0
    8.1700   -0.5080   21.1850 C   0  0  0  0  0  0  0  0  0  0  0  0
    8.5660    0.8660   21.0530 O   0  0  0  0  0  0  0  0  0  0  0  0
    6.9750   -1.0070   20.8440 N   0  0  0  0  0  0  0  0  0  0  0  0
    6.3100   -0.2150   19.9670 C   0  0  0  0  0  0  0  0  0  0  0  0
    5.1110    0.4560   20.2120 C   0  0  0  0  0  0  0  0  0  0  0  0
    4.5520    1.2420   19.2080 C   0  0  0  0  0  0  0  0  0  0  0  0
    5.2080    1.3340   17.9940 C   0  0  0  0  0  0  0  0  0  0  0  0
    6.3610    0.6950   17.7350 N   0  0  0  0  0  0  0  0  0  0  0  0
    6.8820   -0.0610   18.7200 C   0  0  0  0  0  0  0  0  0  0  0  0
   11.3560   -0.9280   22.1270 C   0  0  0  0  0  0  0  0  0  0  0  0
   12.3460   -0.2920   23.0980 C   0  0  0  0  0  0  0  0  0  0  0  0
   11.8920    0.0920   24.3480 C   0  0  0  0  0  0  0  0  0  0  0  0
   10.5400   -0.1200   24.7150 C   0  0  0  0  0  0  0  0  0  0  0  0
    9.6790    0.0340   25.8430 C   0  0  0  0  0  0  0  0  0  0  0  0
   10.1350    0.0730   27.1100 O   0  0  0  0  0  0  0  0  0  0  0  0
    6.9890   -1.4690   26.7570 C   0  0  0  0  0  0  0  0  0  0  0  0
    7.7930   -2.5250   26.4110 O   0  0  0  0  0  0  0  0  0  0  0  0
    5.8580   -1.7060   27.4560 N   0  0  0  0  0  0  0  0  0  0  0  0
  1  2  2  0
  2  3  1  0
  3  4  1  0
  4  5  1  0
  5  6  1  6
  6  7  1  0
  7  8  1  0
  8  9  1  0
  9 10  1  0
 10 11  1  0
 11 12  2  0
 11 13  1  0
 13 14  1  0
 14 15  2  0
 15 16  1  0
 16 17  2  0
 17 18  1  0
 14 19  1  0
 18 19  2  0
  9 20  2  0
 20 21  1  0
 21 22  2  0
  8 23  2  0
 22 23  1  0
  6 24  1  0
 23 24  1  0
 24 25  2  0
  5 26  1  0
 26 27  2  0
  2 28  1  0
 26 28  1  0
M  END
