pyridine_urea_2725
     RDKit          3D

 23 25  0  0  0  0  0  0  0  0999 V2000
   11.9690    3.0180   22.8690 C   0  0  0  0  0  0  0  0  0  0  0  0
   11.3690    1.8020   23.1390 N   0  0  0  0  0  0  0  0  0  0  0  0
    9.9760    1.6520   23.4790 C   0  0  0  0  0  0  0  0  0  0  0  0
    8.9060    2.7880   23.6030 C   0  0  0  0  0  0  0  0  0  0  0  0
    7.5950    2.3730   23.8950 C   0  0  0  0  0  0  0  0  0  0  0  0
    7.0670    1.1510   23.1070 C   0  0  0  0  0  0  0  0  0  0  0  0
    7.8530    0.0420   23.0020 N   0  0  0  0  0  0  0  0  0  0  0  0
    8.2220   -0.3060   21.7470 C   0  0  0  0  0  0  0  0  0  0  0  0
    9.3540   -0.1550   21.3330 O   0  0  0  0  0  0  0  0  0  0  0  0
    7.1430   -0.8070   21.0570 N   0  0  0  0  0  0  0  0  0  0  0  0
    6.4740   -0.0790   19.9900 C   0  0  0  0  0  0  0  0  0  0  0  0
    5.1840    0.6730   20.3680 C   0  0  0  0  0  0  0  0  0  0  0  0
    4.4970    1.4540   19.2310 C   0  0  0  0  0  0  0  0  0  0  0  0
    5.2080    1.3670   17.8920 C   0  0  0  0  0  0  0  0  0  0  0  0
    6.3570    0.6460   17.7140 N   0  0  0  0  0  0  0  0  0  0  0  0
    6.9820   -0.0630   18.7130 C   0  0  0  0  0  0  0  0  0  0  0  0
    9.6000    0.4020   23.6990 N   0  0  0  0  0  0  0  0  0  0  0  0
   10.6790   -0.3310   23.5220 C   0  0  0  0  0  0  0  0  0  0  0  0
   10.9050   -1.6990   23.6090 C   0  0  0  0  0  0  0  0  0  0  0  0
   12.1560   -2.2400   23.3720 C   0  0  0  0  0  0  0  0  0  0  0  0
   13.2330   -1.4470   23.0340 C   0  0  0  0  0  0  0  0  0  0  0  0
   13.1240   -0.0770   22.9190 C   0  0  0  0  0  0  0  0  0  0  0  0
   11.8950    0.5400   23.1460 C   0  0  0  0  0  0  0  0  0  0  0  0
  1  2  1  0
  2  3  1  0
  3  4  1  0
  4  5  1  0
  5  6  1  0
  6  7  1  0
  7  8  1  0
  8  9  2  0
  8 10  1  0
 10 11  1  0
 11 12  2  0
 12 13  1  0
 13 14  2  0
 14 15  1  0
 11 16  1  0
 15 16  2  0
  3 17  2  0
 17 18  1  0
 18 19  1  0
 19 20  2  0
 20 21  1  0
 21 22  2  0
  2 23  1  0
 18 23  2  0
 22 23  1  0
M  END
