pyridine_urea_14098
     RDKit          3D

 23 25  0  0  0  0  0  0  0  0999 V2000
    8.7820    1.4360   21.3140 O   0  0  0  0  0  0  0  0  0  0  0  0
    8.6800    0.2070   21.3320 C   0  0  0  0  0  0  0  0  0  0  0  0
    7.4610   -0.4360   21.1910 N   0  0  0  0  0  0  0  0  0  0  0  0
    6.6700    0.0980   20.0970 C   0  0  0  0  0  0  0  0  0  0  0  0
    5.4070    0.8630   20.4780 C   0  0  0  0  0  0  0  0  0  0  0  0
    4.6470    1.4160   19.3170 C   0  0  0  0  0  0  0  0  0  0  0  0
    5.1320    1.1950   18.0480 C   0  0  0  0  0  0  0  0  0  0  0  0
    6.2440    0.5040   17.7580 N   0  0  0  0  0  0  0  0  0  0  0  0
    6.9770   -0.0240   18.7650 C   0  0  0  0  0  0  0  0  0  0  0  0
    9.7870   -0.6220   21.3940 N   0  0  0  0  0  0  0  0  0  0  0  0
   10.1800   -1.4480   22.5340 C   0  0  2  0  0  0  0  0  0  0  0  0
    9.4160   -1.1860   23.5910 C   0  0  0  0  0  0  0  0  0  0  0  0
   10.0980   -0.2190   24.5250 C   0  0  0  0  0  0  0  0  0  0  0  0
    9.4010    0.1510   25.7020 C   0  0  0  0  0  0  0  0  0  0  0  0
    8.1060   -0.3570   26.0040 C   0  0  0  0  0  0  0  0  0  0  0  0
    7.2040    0.0500   27.4250 Cl  0  0  0  0  0  0  0  0  0  0  0  0
    7.5020   -1.2380   25.1330 C   0  0  0  0  0  0  0  0  0  0  0  0
    8.1520   -1.6840   23.8820 C   0  0  0  0  0  0  0  0  0  0  0  0
   11.7310   -1.6720   22.6220 C   0  0  0  0  0  0  0  0  0  0  0  0
   12.0900   -0.2310   22.6820 C   0  0  0  0  0  0  0  0  0  0  0  0
   12.7310   -0.0180   23.8710 C   0  0  0  0  0  0  0  0  0  0  0  0
   12.7740   -1.2580   24.5440 C   0  0  0  0  0  0  0  0  0  0  0  0
   12.2400   -2.2800   23.7580 C   0  0  0  0  0  0  0  0  0  0  0  0
  1  2  2  0
  2  3  1  0
  3  4  1  0
  4  5  2  0
  5  6  1  0
  6  7  2  0
  7  8  1  0
  4  9  1  0
  8  9  2  0
  2 10  1  0
 11 10  1  6
 11 12  1  0
 12 13  2  0
 13 14  1  0
 14 15  2  0
 15 16  1  0
 15 17  1  0
 12 18  1  0
 17 18  2  0
 11 19  1  0
 19 20  1  0
 20 21  1  0
 21 22  1  0
 19 23  1  0
 22 23  1  0
M  END
