pyridine_urea_1215
     RDKit          3D

 21 22  0  0  0  0  0  0  0  0999 V2000
    7.1200    1.7650   26.9930 C   0  0  0  0  0  0  0  0  0  0  0  0
    7.2550    0.3400   26.3940 C   0  0  0  0  0  0  0  0  0  0  0  0
    8.6680    0.1960   25.7990 C   0  0  0  0  0  0  0  0  0  0  0  0
    8.6380   -0.2560   24.4450 O   0  0  0  0  0  0  0  0  0  0  0  0
    9.9650   -0.5460   23.9340 C   0  0  0  0  0  0  0  0  0  0  0  0
   11.0090   -0.4050   24.7750 C   0  0  0  0  0  0  0  0  0  0  0  0
   12.2820   -0.6820   24.3250 C   0  0  0  0  0  0  0  0  0  0  0  0
   13.2350   -0.5560   25.1830 F   0  0  0  0  0  0  0  0  0  0  0  0
   12.5360   -1.0960   23.0170 C   0  0  0  0  0  0  0  0  0  0  0  0
   11.4600   -1.2510   22.1470 C   0  0  0  0  0  0  0  0  0  0  0  0
   10.2090   -0.9650   22.6610 C   0  0  0  0  0  0  0  0  0  0  0  0
    9.0900   -1.1350   21.7840 N   0  0  0  0  0  0  0  0  0  0  0  0
    8.4040   -0.0410   21.3420 C   0  0  0  0  0  0  0  0  0  0  0  0
    8.9430    1.2260   21.1980 O   0  0  0  0  0  0  0  0  0  0  0  0
    7.1200   -0.4060   21.0530 N   0  0  0  0  0  0  0  0  0  0  0  0
    6.4560    0.1690   19.9880 C   0  0  0  0  0  0  0  0  0  0  0  0
    5.1990    0.9440   20.2060 C   0  0  0  0  0  0  0  0  0  0  0  0
    4.5220    1.5490   19.1770 C   0  0  0  0  0  0  0  0  0  0  0  0
    5.1240    1.3720   17.9000 C   0  0  0  0  0  0  0  0  0  0  0  0
    6.2510    0.6710   17.6670 N   0  0  0  0  0  0  0  0  0  0  0  0
    6.8860    0.0900   18.6940 C   0  0  0  0  0  0  0  0  0  0  0  0
  1  2  3  0
  2  3  1  0
  3  4  1  0
  4  5  1  0
  5  6  2  0
  6  7  1  0
  7  8  1  0
  7  9  2  0
  9 10  1  0
  5 11  1  0
 10 11  2  0
 11 12  1  0
 12 13  1  0
 13 14  2  0
 13 15  1  0
 15 16  1  0
 16 17  2  0
 17 18  1  0
 18 19  2  0
 19 20  1  0
 16 21  1  0
 20 21  2  0
M  END
