pyridine_urea_15043
     RDKit          3D

 18 19  0  0  0  0  0  0  0  0999 V2000
   11.5350   -2.6060   22.5710 C   0  0  0  0  0  0  0  0  0  0  0  0
   11.5880   -1.1170   22.6910 C   0  0  0  0  0  0  0  0  0  0  0  0
   12.9050   -0.4260   22.8460 C   0  0  0  0  0  0  0  0  0  0  0  0
   12.9400    1.0640   22.9480 C   0  0  0  0  0  0  0  0  0  0  0  0
   11.6800    1.9090   22.9160 C   0  0  0  0  0  0  0  0  0  0  0  0
   11.7660    3.8010   23.0280 Br  0  0  0  0  0  0  0  0  0  0  0  0
   10.3190    1.2520   22.7730 C   0  0  0  0  0  0  0  0  0  0  0  0
   10.3150   -0.2620   22.6480 C   0  0  0  0  0  0  0  0  0  0  0  0
    8.9950   -0.8710   22.4540 N   0  0  0  0  0  0  0  0  0  0  0  0
    8.2410   -0.1440   21.5590 C   0  0  0  0  0  0  0  0  0  0  0  0
    8.5800    0.9870   21.2470 O   0  0  0  0  0  0  0  0  0  0  0  0
    7.1230   -0.7510   21.0570 N   0  0  0  0  0  0  0  0  0  0  0  0
    6.3850   -0.0690   20.0800 C   0  0  0  0  0  0  0  0  0  0  0  0
    5.1840    0.5950   20.2790 C   0  0  0  0  0  0  0  0  0  0  0  0
    4.5670    1.2590   19.2190 C   0  0  0  0  0  0  0  0  0  0  0  0
    5.1820    1.2340   17.9710 C   0  0  0  0  0  0  0  0  0  0  0  0
    6.3400    0.5890   17.7550 N   0  0  0  0  0  0  0  0  0  0  0  0
    6.9050   -0.0390   18.8000 C   0  0  0  0  0  0  0  0  0  0  0  0
  1  2  1  0
  2  3  2  0
  3  4  1  0
  4  5  2  0
  5  6  1  0
  5  7  1  0
  2  8  1  0
  7  8  2  0
  8  9  1  0
  9 10  1  0
 10 11  2  0
 10 12  1  0
 12 13  1  0
 13 14  2  0
 14 15  1  0
 15 16  2  0
 16 17  1  0
 13 18  1  0
 17 18  2  0
M  END
