pyridine_urea_13637
     RDKit          3D

 27 29  0  0  0  0  0  0  0  0999 V2000
   11.7900    7.2720   24.1450 C   0  0  0  0  0  0  0  0  0  0  0  0
   10.7290    6.5080   23.3130 C   0  0  0  0  0  0  0  0  0  0  0  0
   11.2660    5.0800   23.1590 C   0  0  0  0  0  0  0  0  0  0  0  0
   10.2840    3.9260   23.2110 N   0  0  0  0  0  0  0  0  0  0  0  0
   11.0920    2.7860   23.0590 N   0  0  0  0  0  0  0  0  0  0  0  0
   12.4550    3.0940   22.9240 C   0  0  0  0  0  0  0  0  0  0  0  0
   13.3810    2.0800   22.7850 N   0  0  0  0  0  0  0  0  0  0  0  0
   13.2950    0.3990   23.0750 S   0  0  0  0  0  0  0  0  0  0  0  0
   13.3760   -0.0820   24.4100 O   0  0  0  0  0  0  0  0  0  0  0  0
   13.8500   -0.3020   21.9730 O   0  0  0  0  0  0  0  0  0  0  0  0
   11.7490   -0.1090   22.8600 C   0  0  0  0  0  0  0  0  0  0  0  0
   10.7840    0.7260   23.0840 C   0  0  0  0  0  0  0  0  0  0  0  0
    9.5730    0.2160   22.8870 C   0  0  0  0  0  0  0  0  0  0  0  0
    9.3070   -1.1000   22.4640 C   0  0  0  0  0  0  0  0  0  0  0  0
    8.0620   -1.4140   22.2860 N   0  0  0  0  0  0  0  0  0  0  0  0
    7.5430   -0.5160   21.3910 C   0  0  0  0  0  0  0  0  0  0  0  0
    8.1760    0.7300   21.0810 O   0  0  0  0  0  0  0  0  0  0  0  0
    6.4050   -0.9170   20.8270 N   0  0  0  0  0  0  0  0  0  0  0  0
    5.9040   -0.0880   19.8550 C   0  0  0  0  0  0  0  0  0  0  0  0
    4.7430    0.6750   19.9930 C   0  0  0  0  0  0  0  0  0  0  0  0
    4.2550    1.5410   18.9760 C   0  0  0  0  0  0  0  0  0  0  0  0
    5.1620    1.5150   17.7420 C   0  0  0  0  0  0  0  0  0  0  0  0
    6.2730    0.7820   17.6030 N   0  0  0  0  0  0  0  0  0  0  0  0
    6.6310   -0.0260   18.6980 C   0  0  0  0  0  0  0  0  0  0  0  0
   10.4910   -2.0400   22.2150 C   0  0  0  0  0  0  0  0  0  0  0  0
   11.6670   -1.4750   22.4340 C   0  0  0  0  0  0  0  0  0  0  0  0
   12.9050    4.7330   22.9440 S   0  0  0  0  0  0  0  0  0  0  0  0
  1  2  1  0
  2  3  1  0
  3  4  2  0
  4  5  1  0
  5  6  2  0
  6  7  1  0
  8  7  1  0
  8  9  2  0
  8 10  2  0
  8 11  1  0
 11 12  2  0
 12 13  1  0
 13 14  2  0
 14 15  1  0
 15 16  1  0
 16 17  2  0
 16 18  1  0
 18 19  1  0
 19 20  2  0
 20 21  1  0
 21 22  2  0
 22 23  1  0
 19 24  1  0
 23 24  2  0
 14 25  1  0
 11 26  1  0
 25 26  2  0
  3 27  1  0
  6 27  1  0
M  END
