pyridine_urea_3768
     RDKit          3D

 19 21  0  0  0  0  0  0  0  0999 V2000
    8.7460    1.0590   21.7420 O   0  0  0  0  0  0  0  0  0  0  0  0
    8.5400   -0.1050   21.4400 C   0  0  0  0  0  0  0  0  0  0  0  0
    9.5530   -1.0350   21.4400 N   0  0  0  0  0  0  0  0  0  0  0  0
    9.9730   -1.8130   22.5730 C   0  0  0  0  0  0  0  0  0  0  0  0
   11.1590   -1.2150   23.2950 C   0  0  2  0  0  0  0  0  0  0  0  0
   10.7270   -0.0710   24.1550 C   0  0  0  0  0  0  0  0  0  0  0  0
   11.9660    0.7850   24.0990 C   0  0  0  0  0  0  0  0  0  0  0  0
   12.7820    0.4970   22.8550 C   0  0  0  0  0  0  0  0  0  0  0  0
   12.4210   -0.9590   22.5230 C   0  0  1  0  0  0  0  0  0  0  0  0
   13.3550   -1.6450   22.8850 O   0  0  0  0  0  0  0  0  0  0  0  0
   13.1120   -2.2680   24.1350 C   0  0  0  0  0  0  0  0  0  0  0  0
   11.7300   -2.1720   24.3270 C   0  0  0  0  0  0  0  0  0  0  0  0
    7.3310   -0.6240   21.0270 N   0  0  0  0  0  0  0  0  0  0  0  0
    6.5120    0.0450   20.0930 C   0  0  0  0  0  0  0  0  0  0  0  0
    5.3310    0.7360   20.3660 C   0  0  0  0  0  0  0  0  0  0  0  0
    4.6330    1.3680   19.3430 C   0  0  0  0  0  0  0  0  0  0  0  0
    5.1800    1.2810   17.9730 C   0  0  0  0  0  0  0  0  0  0  0  0
    6.3060    0.6100   17.7090 N   0  0  0  0  0  0  0  0  0  0  0  0
    6.9180    0.0250   18.7640 C   0  0  0  0  0  0  0  0  0  0  0  0
  1  2  2  0
  2  3  1  0
  3  4  1  0
  5  4  1  6
  5  6  1  0
  6  7  1  0
  7  8  1  0
  5  9  1  0
  9  8  1  1
  9 10  1  0
 10 11  1  0
  5 12  1  0
 11 12  1  0
  2 13  1  0
 13 14  1  0
 14 15  2  0
 15 16  1  0
 16 17  2  0
 17 18  1  0
 14 19  1  0
 18 19  2  0
M  END
