pyridine_urea_7829
     RDKit          3D

 26 28  0  0  0  0  0  0  0  0999 V2000
   11.0240   -3.8630   25.5440 C   0  0  0  0  0  0  0  0  0  0  0  0
   12.0500   -2.9570   25.4560 N   0  0  0  0  0  0  0  0  0  0  0  0
   13.3990   -3.1740   25.2210 C   0  0  0  0  0  0  0  0  0  0  0  0
   13.6360   -2.9760   23.8690 C   0  0  0  0  0  0  0  0  0  0  0  0
   13.6760   -1.7040   23.5450 N   0  0  0  0  0  0  0  0  0  0  0  0
   13.3910   -1.1870   22.2420 C   0  0  0  0  0  0  0  0  0  0  0  0
   13.7660   -1.3990   21.0960 O   0  0  0  0  0  0  0  0  0  0  0  0
   12.4910   -0.3450   22.5790 C   0  0  0  0  0  0  0  0  0  0  0  0
   11.3290   -0.7460   22.7460 C   0  0  0  0  0  0  0  0  0  0  0  0
   10.1490   -0.4560   23.0700 C   0  0  0  0  0  0  0  0  0  0  0  0
    9.9260    1.0010   23.4450 C   0  0  0  0  0  0  0  0  0  0  0  0
    8.7940    0.2130   23.5400 C   0  0  0  0  0  0  0  0  0  0  0  0
    8.6150   -0.5980   22.4980 N   0  0  0  0  0  0  0  0  0  0  0  0
    8.2160    0.0740   21.4230 C   0  0  0  0  0  0  0  0  0  0  0  0
    8.7150    1.1400   21.0300 O   0  0  0  0  0  0  0  0  0  0  0  0
    7.0990   -0.6210   20.8380 N   0  0  0  0  0  0  0  0  0  0  0  0
    6.3790    0.0690   19.9270 C   0  0  0  0  0  0  0  0  0  0  0  0
    5.1900    0.7430   20.1330 C   0  0  0  0  0  0  0  0  0  0  0  0
    4.5460    1.4360   19.1170 C   0  0  0  0  0  0  0  0  0  0  0  0
    5.1540    1.4250   17.8700 C   0  0  0  0  0  0  0  0  0  0  0  0
    6.3080    0.7700   17.6340 N   0  0  0  0  0  0  0  0  0  0  0  0
    6.8810    0.1170   18.6540 C   0  0  0  0  0  0  0  0  0  0  0  0
   11.3000    1.5980   23.2560 C   0  0  0  0  0  0  0  0  0  0  0  0
   12.5030    0.9490   22.8510 C   0  0  0  0  0  0  0  0  0  0  0  0
   12.7900   -0.9910   24.5260 C   0  0  0  0  0  0  0  0  0  0  0  0
   11.6110   -1.7320   24.8110 C   0  0  0  0  0  0  0  0  0  0  0  0
  1  2  1  0
  2  3  1  0
  3  4  1  0
  4  5  1  0
  5  6  1  0
  6  7  2  0
  6  8  1  0
  8  9  2  0
  9 10  1  0
 10 11  2  0
 11 12  1  0
 12 13  1  0
 13 14  1  0
 14 15  2  0
 14 16  1  0
 16 17  1  0
 17 18  2  0
 18 19  1  0
 19 20  2  0
 20 21  1  0
 17 22  1  0
 21 22  2  0
 11 23  1  0
  8 24  1  0
 23 24  2  0
  5 25  1  0
  2 26  1  0
 25 26  1  0
M  END
