pyridine_urea_7012
     RDKit          3D

 20 21  0  0  0  0  0  0  0  0999 V2000
    7.1440   -6.3020   22.9790 C   0  0  0  0  0  0  0  0  0  0  0  0
    7.6620   -5.0100   23.5940 C   0  0  0  0  0  0  0  0  0  0  0  0
    8.0040   -4.0540   22.5980 N   0  0  0  0  0  0  0  0  0  0  0  0
    8.4880   -2.8560   23.2530 C   0  0  0  0  0  0  0  0  0  0  0  0
    8.8630   -1.8790   22.3430 C   0  0  0  0  0  0  0  0  0  0  0  0
    7.9010   -1.8640   21.3680 C   0  0  0  0  0  0  0  0  0  0  0  0
   10.1710   -2.0640   21.8950 C   0  0  0  0  0  0  0  0  0  0  0  0
    8.8090   -0.5510   22.6980 N   0  0  0  0  0  0  0  0  0  0  0  0
    8.4160    0.3620   21.7300 C   0  0  0  0  0  0  0  0  0  0  0  0
    9.0640    1.3380   21.3390 O   0  0  0  0  0  0  0  0  0  0  0  0
    7.1600   -0.0130   21.2710 N   0  0  0  0  0  0  0  0  0  0  0  0
    6.5160    0.4170   20.1100 C   0  0  0  0  0  0  0  0  0  0  0  0
    5.3780    1.2050   20.2850 C   0  0  0  0  0  0  0  0  0  0  0  0
    4.7020    1.6700   19.1700 C   0  0  0  0  0  0  0  0  0  0  0  0
    5.1850    1.3350   17.9220 C   0  0  0  0  0  0  0  0  0  0  0  0
    6.2650    0.5760   17.7130 N   0  0  0  0  0  0  0  0  0  0  0  0
    6.9080    0.1300   18.8150 C   0  0  0  0  0  0  0  0  0  0  0  0
    8.5070   -2.8820   24.9840 S   0  0  0  0  0  0  0  0  0  0  0  0
    7.8560   -4.6150   24.9290 C   0  0  0  0  0  0  0  0  0  0  0  0
    7.6260   -5.3320   26.1060 C   0  0  0  0  0  0  0  0  0  0  0  0
  1  2  1  0
  2  3  1  0
  3  4  2  0
  4  5  1  0
  5  6  1  0
  5  7  1  0
  5  8  1  0
  8  9  1  0
  9 10  2  0
  9 11  1  0
 11 12  1  0
 12 13  2  0
 13 14  1  0
 14 15  2  0
 15 16  1  0
 12 17  1  0
 16 17  2  0
  4 18  1  0
  2 19  2  0
 18 19  1  0
 19 20  1  0
M  END
