pyridine_urea_11503
     RDKit          3D

 21 23  0  0  0  0  0  0  0  0999 V2000
    8.7850    0.9420   21.2660 O   0  0  0  0  0  0  0  0  0  0  0  0
    8.4520   -0.2170   21.4790 C   0  0  0  0  0  0  0  0  0  0  0  0
    9.2090   -1.1630   22.1200 N   0  0  0  0  0  0  0  0  0  0  0  0
   10.2700   -0.8630   23.0250 C   0  0  0  0  0  0  0  0  0  0  0  0
   11.5980   -1.0890   22.5780 C   0  0  0  0  0  0  0  0  0  0  0  0
   12.0110   -2.0090   21.9260 C   0  0  0  0  0  0  0  0  0  0  0  0
   12.7990   -0.8770   22.4290 C   0  0  0  0  0  0  0  0  0  0  0  0
   11.6140   -0.1090   23.1960 C   0  0  0  0  0  0  0  0  0  0  0  0
   10.9810    1.1310   24.1050 C   0  0  0  0  0  0  0  0  0  0  0  0
    9.7090    0.3400   23.9720 C   0  0  0  0  0  0  0  0  0  0  0  0
   10.6340   -0.1490   23.4420 C   0  0  0  0  0  0  0  0  0  0  0  0
   11.5420    0.9370   23.8440 N   0  0  0  0  0  0  0  0  0  0  0  0
   12.6560    0.6710   23.3970 C   0  0  0  0  0  0  0  0  0  0  0  0
   12.9840   -0.3060   22.7190 C   0  0  0  0  0  0  0  0  0  0  0  0
    7.2230   -0.6680   21.0520 N   0  0  0  0  0  0  0  0  0  0  0  0
    6.5190   -0.0280   20.0950 C   0  0  0  0  0  0  0  0  0  0  0  0
    5.3560    0.6480   20.4630 C   0  0  0  0  0  0  0  0  0  0  0  0
    4.6220    1.3540   19.3720 C   0  0  0  0  0  0  0  0  0  0  0  0
    5.1900    1.2780   17.9850 C   0  0  0  0  0  0  0  0  0  0  0  0
    6.3050    0.6030   17.7180 N   0  0  0  0  0  0  0  0  0  0  0  0
    6.9280   -0.0210   18.7530 C   0  0  0  0  0  0  0  0  0  0  0  0
  1  2  2  0
  2  3  1  0
  3  4  1  0
  4  5  1  0
  5  6  2  0
  6  7  1  0
  7  8  2  0
  8  9  1  0
  9 10  2  0
 10 11  1  0
 11 12  2  0
  8 13  1  0
 12 13  1  0
  5 14  1  0
 13 14  2  0
  2 15  1  0
 15 16  1  0
 16 17  2  0
 17 18  1  0
 18 19  2  0
 19 20  1  0
 16 21  1  0
 20 21  2  0
M  END
