pyridine_urea_12090
     RDKit          3D

 23 25  0  0  0  0  0  0  0  0999 V2000
    6.0620   -6.1080   29.1440 C   0  0  0  0  0  0  0  0  0  0  0  0
    6.8890   -5.3190   28.1400 C   0  0  0  0  0  0  0  0  0  0  0  0
    8.1320   -5.8780   27.9270 C   0  0  0  0  0  0  0  0  0  0  0  0
    9.1130   -5.4120   27.0730 C   0  0  0  0  0  0  0  0  0  0  0  0
    8.7740   -4.2680   26.3840 C   0  0  0  0  0  0  0  0  0  0  0  0
    9.6540   -3.6880   25.4850 C   0  0  0  0  0  0  0  0  0  0  0  0
    8.9870   -3.0210   24.4170 N   0  0  0  0  0  0  0  0  0  0  0  0
    9.9490   -2.5340   23.6610 C   0  0  0  0  0  0  0  0  0  0  0  0
    9.9240   -1.7200   22.3730 C   0  0  0  0  0  0  0  0  0  0  0  0
    9.0780   -0.6420   22.4860 N   0  0  0  0  0  0  0  0  0  0  0  0
    8.3910    0.0330   21.4610 C   0  0  0  0  0  0  0  0  0  0  0  0
    8.7890    1.1560   21.1070 O   0  0  0  0  0  0  0  0  0  0  0  0
    7.3120   -0.6140   20.9590 N   0  0  0  0  0  0  0  0  0  0  0  0
    6.5750    0.0470   20.0460 C   0  0  0  0  0  0  0  0  0  0  0  0
    5.4060    0.7960   20.2990 C   0  0  0  0  0  0  0  0  0  0  0  0
    4.7230    1.4550   19.2550 C   0  0  0  0  0  0  0  0  0  0  0  0
    5.2220    1.3580   17.9610 C   0  0  0  0  0  0  0  0  0  0  0  0
    6.3360    0.6320   17.7460 N   0  0  0  0  0  0  0  0  0  0  0  0
    6.9900   -0.0030   18.7360 C   0  0  0  0  0  0  0  0  0  0  0  0
   11.2480   -2.9860   24.4010 C   0  0  0  0  0  0  0  0  0  0  0  0
   10.8960   -3.7110   25.5440 O   0  0  0  0  0  0  0  0  0  0  0  0
    7.5260   -3.6590   26.5670 C   0  0  0  0  0  0  0  0  0  0  0  0
    6.5850   -4.1830   27.4440 C   0  0  0  0  0  0  0  0  0  0  0  0
  1  2  1  0
  2  3  2  0
  3  4  1  0
  4  5  2  0
  5  6  1  0
  6  7  2  0
  7  8  1  0
  8  9  1  0
  9 10  1  0
 10 11  1  0
 11 12  2  0
 11 13  1  0
 13 14  1  0
 14 15  2  0
 15 16  1  0
 16 17  2  0
 17 18  1  0
 14 19  1  0
 18 19  2  0
  8 20  2  0
  6 21  1  0
 20 21  1  0
  5 22  1  0
  2 23  1  0
 22 23  2  0
M  END
