pyridine_urea_13099
     RDKit          3D

 18 19  0  0  0  0  0  0  0  0999 V2000
    8.6090   -2.8420   22.8930 C   0  0  0  0  0  0  0  0  0  0  0  0
    9.4840   -1.7000   22.4580 C   0  0  1  0  0  0  0  0  0  0  0  0
    8.8300   -0.4690   22.7980 N   0  0  0  0  0  0  0  0  0  0  0  0
    8.3640    0.2260   21.5930 C   0  0  0  0  0  0  0  0  0  0  0  0
    8.9450    1.2720   21.2020 O   0  0  0  0  0  0  0  0  0  0  0  0
    7.2820   -0.4040   21.0370 N   0  0  0  0  0  0  0  0  0  0  0  0
    6.5520    0.1710   20.0110 C   0  0  0  0  0  0  0  0  0  0  0  0
    5.4100    0.8750   20.3060 C   0  0  0  0  0  0  0  0  0  0  0  0
    4.6400    1.5210   19.1850 C   0  0  0  0  0  0  0  0  0  0  0  0
    5.1350    1.3650   17.9070 C   0  0  0  0  0  0  0  0  0  0  0  0
    6.2490    0.6590   17.6560 N   0  0  0  0  0  0  0  0  0  0  0  0
    6.9210    0.0870   18.6840 C   0  0  0  0  0  0  0  0  0  0  0  0
   10.8620   -1.7210   23.1580 C   0  0  0  0  0  0  0  0  0  0  0  0
   11.8720   -2.3810   22.5170 C   0  0  0  0  0  0  0  0  0  0  0  0
   13.1280   -2.5320   22.9640 N   0  0  0  0  0  0  0  0  0  0  0  0
   13.3670   -1.9510   24.1730 C   0  0  0  0  0  0  0  0  0  0  0  0
   12.3610   -1.2540   24.8410 C   0  0  0  0  0  0  0  0  0  0  0  0
   11.1350   -1.1530   24.3300 N   0  0  0  0  0  0  0  0  0  0  0  0
  2  1  1  1
  2  3  1  0
  3  4  1  0
  4  5  2  0
  4  6  1  0
  6  7  1  0
  7  8  2  0
  8  9  1  0
  9 10  2  0
 10 11  1  0
  7 12  1  0
 11 12  2  0
  2 13  1  0
 13 14  2  0
 14 15  1  0
 15 16  2  0
 16 17  1  0
 13 18  1  0
 17 18  2  0
M  END
