pyridine_urea_14658
     RDKit          3D

 21 22  0  0  0  0  0  0  0  0999 V2000
   13.9440   -2.8600   23.2000 C   0  0  0  0  0  0  0  0  0  0  0  0
   13.7880   -2.0960   21.8970 C   0  0  0  0  0  0  0  0  0  0  0  0
   13.5040   -2.8170   20.6780 O   0  0  0  0  0  0  0  0  0  0  0  0
   13.9140   -0.6660   22.0810 N   0  0  0  0  0  0  0  0  0  0  0  0
   12.6560   -0.3770   22.6860 C   0  0  0  0  0  0  0  0  0  0  0  0
   12.6150    0.6600   23.5360 C   0  0  0  0  0  0  0  0  0  0  0  0
   11.4740    0.9590   24.1350 C   0  0  0  0  0  0  0  0  0  0  0  0
   10.2090    0.4060   24.1110 C   0  0  0  0  0  0  0  0  0  0  0  0
    9.0960   -0.5830   23.7150 C   0  0  0  0  0  0  0  0  0  0  0  0
    7.9970    0.0600   23.0030 N   0  0  0  0  0  0  0  0  0  0  0  0
    8.2780    0.3110   21.5990 C   0  0  0  0  0  0  0  0  0  0  0  0
    9.1190    1.0770   21.1290 O   0  0  0  0  0  0  0  0  0  0  0  0
    7.4820   -0.3760   20.7400 N   0  0  0  0  0  0  0  0  0  0  0  0
    6.6260    0.1800   19.8000 C   0  0  0  0  0  0  0  0  0  0  0  0
    5.3540    0.7020   20.0480 C   0  0  0  0  0  0  0  0  0  0  0  0
    4.5240    1.2630   19.0830 C   0  0  0  0  0  0  0  0  0  0  0  0
    5.0660    1.2990   17.7070 C   0  0  0  0  0  0  0  0  0  0  0  0
    6.3390    0.7660   17.4770 N   0  0  0  0  0  0  0  0  0  0  0  0
    7.0720    0.2340   18.4800 C   0  0  0  0  0  0  0  0  0  0  0  0
   10.5580   -0.7280   23.0770 C   0  0  0  0  0  0  0  0  0  0  0  0
   11.5630   -1.3100   22.2750 C   0  0  0  0  0  0  0  0  0  0  0  0
  1  2  1  0
  2  3  2  0
  2  4  1  0
  4  5  1  0
  5  6  2  0
  6  7  1  0
  7  8  2  0
  8  9  1  0
  9 10  1  0
 10 11  1  0
 11 12  2  0
 11 13  1  0
 13 14  1  0
 14 15  2  0
 15 16  1  0
 16 17  2  0
 17 18  1  0
 14 19  1  0
 18 19  2  0
  8 20  1  0
  5 21  1  0
 20 21  2  0
M  END
