pyridine_urea_3342
     RDKit          3D

 19 20  0  0  0  0  0  0  0  0999 V2000
    8.8530    1.2360   21.1690 O   0  0  0  0  0  0  0  0  0  0  0  0
    8.5580    0.0510   21.3750 C   0  0  0  0  0  0  0  0  0  0  0  0
    9.3720   -0.8950   21.9230 N   0  0  0  0  0  0  0  0  0  0  0  0
   10.3430   -0.6140   22.8900 C   0  0  0  0  0  0  0  0  0  0  0  0
    9.8400   -0.4950   24.1740 C   0  0  0  0  0  0  0  0  0  0  0  0
    9.9850    0.4540   25.1460 N   0  0  0  0  0  0  0  0  0  0  0  0
    9.2720    0.1300   26.3170 N   0  0  0  0  0  0  0  0  0  0  0  0
    8.5940   -1.0130   26.2690 C   0  0  0  0  0  0  0  0  0  0  0  0
    7.8180   -1.5510   27.2820 C   0  0  0  0  0  0  0  0  0  0  0  0
    7.2630   -2.7440   27.0310 F   0  0  0  0  0  0  0  0  0  0  0  0
    6.7610   -0.7230   27.4990 F   0  0  0  0  0  0  0  0  0  0  0  0
    8.7720   -1.8580   24.6880 S   0  0  0  0  0  0  0  0  0  0  0  0
    7.3330   -0.4560   21.0450 N   0  0  0  0  0  0  0  0  0  0  0  0
    6.5200    0.1410   20.0860 C   0  0  0  0  0  0  0  0  0  0  0  0
    5.3490    0.8380   20.3300 C   0  0  0  0  0  0  0  0  0  0  0  0
    4.5550    1.4750   19.2050 C   0  0  0  0  0  0  0  0  0  0  0  0
    5.0930    1.3020   17.9460 C   0  0  0  0  0  0  0  0  0  0  0  0
    6.2200    0.6200   17.6810 N   0  0  0  0  0  0  0  0  0  0  0  0
    6.9140    0.0480   18.7610 C   0  0  0  0  0  0  0  0  0  0  0  0
  1  2  2  0
  2  3  1  0
  3  4  1  0
  4  5  1  0
  5  6  2  0
  6  7  1  0
  7  8  2  0
  8  9  1  0
  9 10  1  0
  9 11  1  0
  5 12  1  0
  8 12  1  0
  2 13  1  0
 13 14  1  0
 14 15  2  0
 15 16  1  0
 16 17  2  0
 17 18  1  0
 14 19  1  0
 18 19  2  0
M  END
