pyridine_urea_2321
     RDKit          3D

 25 27  0  0  0  0  0  0  0  0999 V2000
    8.6060    1.0280   21.0050 O   0  0  0  0  0  0  0  0  0  0  0  0
    7.8310    0.1320   21.3640 C   0  0  0  0  0  0  0  0  0  0  0  0
    7.6210   -0.3140   22.5940 N   0  0  0  0  0  0  0  0  0  0  0  0
    8.4880   -0.0330   23.5740 C   0  0  0  0  0  0  0  0  0  0  0  0
    9.7350   -0.2350   23.1510 C   0  0  0  0  0  0  0  0  0  0  0  0
   10.6570    0.8080   22.9750 C   0  0  0  0  0  0  0  0  0  0  0  0
   11.8630    0.4260   22.5120 C   0  0  0  0  0  0  0  0  0  0  0  0
   12.8760    0.9140   22.2380 O   0  0  0  0  0  0  0  0  0  0  0  0
   13.1600   -0.2330   22.7670 C   0  0  0  0  0  0  0  0  0  0  0  0
   13.0680   -0.1080   24.0470 C   0  0  0  0  0  0  0  0  0  0  0  0
   13.2700   -1.2580   24.9100 C   0  0  0  0  0  0  0  0  0  0  0  0
   13.5410   -2.4060   24.3620 C   0  0  0  0  0  0  0  0  0  0  0  0
   13.7250   -3.5130   25.5710 Cl  0  0  0  0  0  0  0  0  0  0  0  0
   13.6420   -2.5670   22.9850 C   0  0  0  0  0  0  0  0  0  0  0  0
   13.4530   -1.4530   22.1490 C   0  0  0  0  0  0  0  0  0  0  0  0
   12.1030   -1.0460   22.2380 C   0  0  0  0  0  0  0  0  0  0  0  0
   11.1210   -1.9490   22.4560 C   0  0  0  0  0  0  0  0  0  0  0  0
    9.9150   -1.5710   22.9170 N   0  0  0  0  0  0  0  0  0  0  0  0
    7.0010   -0.5590   20.5690 N   0  0  0  0  0  0  0  0  0  0  0  0
    6.2490    0.1520   19.6990 C   0  0  0  0  0  0  0  0  0  0  0  0
    5.0050    0.7050   19.9450 C   0  0  0  0  0  0  0  0  0  0  0  0
    4.4050    1.4310   18.9340 C   0  0  0  0  0  0  0  0  0  0  0  0
    5.0860    1.5610   17.7320 C   0  0  0  0  0  0  0  0  0  0  0  0
    6.2860    1.0140   17.4960 N   0  0  0  0  0  0  0  0  0  0  0  0
    6.8220    0.3280   18.4910 C   0  0  0  0  0  0  0  0  0  0  0  0
  1  2  2  0
  2  3  1  0
  3  4  1  0
  4  5  1  0
  5  6  2  0
  6  7  1  0
  7  8  1  0
  8  9  1  0
  9 10  2  0
 10 11  1  0
 11 12  2  0
 12 13  1  0
 12 14  1  0
  9 15  1  0
 14 15  2  0
  7 16  2  0
 16 17  1  0
  5 18  1  0
 17 18  2  0
  2 19  1  0
 19 20  1  0
 20 21  2  0
 21 22  1  0
 22 23  2  0
 23 24  1  0
 20 25  1  0
 24 25  2  0
M  END
