pyridine_urea_1787
     RDKit          3D

 17 17  0  0  0  0  0  0  0  0999 V2000
   10.3440   -2.6770   23.7000 C   0  0  0  0  0  0  0  0  0  0  0  0
   10.1240   -1.7590   22.5400 C   0  0  1  0  0  0  0  0  0  0  0  0
    8.7700   -1.2340   22.5470 N   0  0  0  0  0  0  0  0  0  0  0  0
    8.3440   -0.2930   21.6370 C   0  0  0  0  0  0  0  0  0  0  0  0
    8.9660    0.7310   21.3920 O   0  0  0  0  0  0  0  0  0  0  0  0
    7.1390   -0.6610   21.0840 N   0  0  0  0  0  0  0  0  0  0  0  0
    6.4830    0.0030   20.0380 C   0  0  0  0  0  0  0  0  0  0  0  0
    5.3150    0.7050   20.3020 C   0  0  0  0  0  0  0  0  0  0  0  0
    4.6610    1.3790   19.2660 C   0  0  0  0  0  0  0  0  0  0  0  0
    5.2020    1.3270   17.9920 C   0  0  0  0  0  0  0  0  0  0  0  0
    6.3250    0.6470   17.7200 N   0  0  0  0  0  0  0  0  0  0  0  0
    6.9370    0.0050   18.7370 C   0  0  0  0  0  0  0  0  0  0  0  0
   11.0780   -0.5890   22.5860 C   0  0  0  0  0  0  0  0  0  0  0  0
   10.6770    0.5700   22.6220 O   0  0  0  0  0  0  0  0  0  0  0  0
   12.3890   -0.9370   22.6050 N   0  0  0  0  0  0  0  0  0  0  0  0
   13.1840    0.0210   23.0750 C   0  0  0  0  0  0  0  0  0  0  0  0
   12.8740   -1.7950   21.6620 C   0  0  0  0  0  0  0  0  0  0  0  0
  2  1  1  1
  2  3  1  0
  3  4  1  0
  4  5  2  0
  4  6  1  0
  6  7  1  0
  7  8  2  0
  8  9  1  0
  9 10  2  0
 10 11  1  0
  7 12  1  0
 11 12  2  0
  2 13  1  0
 13 14  2  0
 13 15  1  0
 15 16  1  0
 15 17  1  0
M  END
