pyridine_urea_1665
     RDKit          3D

 18 19  0  0  0  0  0  0  0  0999 V2000
   13.1430   -1.8940   21.3210 C   0  0  0  0  0  0  0  0  0  0  0  0
   12.9550   -2.6670   22.5880 C   0  0  0  0  0  0  0  0  0  0  0  0
   12.5160   -1.6610   24.0070 S   0  0  0  0  0  0  0  0  0  0  0  0
   11.6170   -0.5090   23.0150 C   0  0  2  0  0  0  0  0  0  0  0  0
   12.1720    0.7510   23.0780 C   0  0  0  0  0  0  0  0  0  0  0  0
   11.1920    1.5950   23.5270 C   0  0  0  0  0  0  0  0  0  0  0  0
   10.0430    0.8720   23.8280 C   0  0  0  0  0  0  0  0  0  0  0  0
   10.2590   -0.4370   23.4210 C   0  0  1  0  0  0  0  0  0  0  0  0
    9.3140   -0.8510   22.3860 N   0  0  0  0  0  0  0  0  0  0  0  0
    8.6680    0.0640   21.5670 C   0  0  0  0  0  0  0  0  0  0  0  0
    9.1260    1.1850   21.3120 O   0  0  0  0  0  0  0  0  0  0  0  0
    7.4020   -0.4530   21.0690 N   0  0  0  0  0  0  0  0  0  0  0  0
    6.6510    0.0940   20.0730 C   0  0  0  0  0  0  0  0  0  0  0  0
    5.4990    0.8160   20.3990 C   0  0  0  0  0  0  0  0  0  0  0  0
    4.7420    1.3910   19.3830 C   0  0  0  0  0  0  0  0  0  0  0  0
    5.1530    1.2280   18.0750 C   0  0  0  0  0  0  0  0  0  0  0  0
    6.2440    0.5350   17.7350 N   0  0  0  0  0  0  0  0  0  0  0  0
    6.9630   -0.0150   18.7340 C   0  0  0  0  0  0  0  0  0  0  0  0
  1  2  1  0
  2  3  1  0
  4  3  1  1
  4  5  1  0
  5  6  1  0
  6  7  1  0
  4  8  1  0
  7  8  1  0
  8  9  1  6
  9 10  1  0
 10 11  2  0
 10 12  1  0
 12 13  1  0
 13 14  2  0
 14 15  1  0
 15 16  2  0
 16 17  1  0
 13 18  1  0
 17 18  2  0
M  END
