pyridine_urea_14397
     RDKit          3D

 22 24  0  0  0  0  0  0  0  0999 V2000
    8.5730    1.0180   21.1220 O   0  0  0  0  0  0  0  0  0  0  0  0
    8.3180   -0.1350   21.4480 C   0  0  0  0  0  0  0  0  0  0  0  0
    7.0620   -0.7480   21.0480 N   0  0  0  0  0  0  0  0  0  0  0  0
    6.4020   -0.0560   20.0430 C   0  0  0  0  0  0  0  0  0  0  0  0
    5.2200    0.6380   20.3010 C   0  0  0  0  0  0  0  0  0  0  0  0
    4.6110    1.3290   19.2480 C   0  0  0  0  0  0  0  0  0  0  0  0
    5.2040    1.3020   17.9820 C   0  0  0  0  0  0  0  0  0  0  0  0
    6.3390    0.6310   17.7310 N   0  0  0  0  0  0  0  0  0  0  0  0
    6.9110   -0.0330   18.7610 C   0  0  0  0  0  0  0  0  0  0  0  0
    9.1250   -0.9550   22.1920 N   0  0  0  0  0  0  0  0  0  0  0  0
   10.4240   -0.4120   22.5350 C   0  0  2  0  0  0  0  0  0  0  0  0
   11.5430   -1.4090   22.2740 C   0  0  0  0  0  0  0  0  0  0  0  0
   12.7880   -0.8480   22.4740 C   0  0  0  0  0  0  0  0  0  0  0  0
   12.6530    0.4410   22.9810 C   0  0  0  0  0  0  0  0  0  0  0  0
   11.7870    0.5500   24.0720 C   0  0  0  0  0  0  0  0  0  0  0  0
   10.4650    0.2600   23.7480 C   0  0  2  0  0  0  0  0  0  0  0  0
    9.7660   -0.4540   24.6680 N   0  0  0  0  0  0  0  0  0  0  0  0
    9.3880   -0.0250   25.8990 C   0  0  0  0  0  0  0  0  0  0  0  0
    8.7010   -0.9380   26.6010 C   0  0  0  0  0  0  0  0  0  0  0  0
    7.9570   -0.8440   28.3480 Br  0  0  0  0  0  0  0  0  0  0  0  0
    8.6530   -1.9910   25.7390 C   0  0  0  0  0  0  0  0  0  0  0  0
    9.2800   -1.7760   24.5370 N   0  0  0  0  0  0  0  0  0  0  0  0
  1  2  2  0
  2  3  1  0
  3  4  1  0
  4  5  2  0
  5  6  1  0
  6  7  2  0
  7  8  1  0
  4  9  1  0
  8  9  2  0
  2 10  1  0
 11 10  1  1
 11 12  1  0
 12 13  1  0
 13 14  1  0
 14 15  1  0
 11 16  1  0
 15 16  1  0
 16 17  1  1
 17 18  1  0
 18 19  2  0
 19 20  1  0
 19 21  1  0
 17 22  1  0
 21 22  2  0
M  END
