pyridine_urea_7048
     RDKit          3D

 20 21  0  0  0  0  0  0  0  0999 V2000
   10.7540   -1.5150   21.9400 C   0  0  0  0  0  0  0  0  0  0  0  0
   10.6280   -0.1140   22.5340 C   0  0  1  0  0  0  0  0  0  0  0  0
    9.6670   -0.0160   23.5000 C   0  0  0  0  0  0  0  0  0  0  0  0
    8.4700   -0.7170   23.0660 N   0  0  0  0  0  0  0  0  0  0  0  0
    8.0520   -0.2750   21.7310 C   0  0  0  0  0  0  0  0  0  0  0  0
    8.7260    0.6760   21.2920 O   0  0  0  0  0  0  0  0  0  0  0  0
    6.9940   -0.8830   21.0960 N   0  0  0  0  0  0  0  0  0  0  0  0
    6.3850   -0.1200   20.0230 C   0  0  0  0  0  0  0  0  0  0  0  0
    5.2160    0.6120   20.2400 C   0  0  0  0  0  0  0  0  0  0  0  0
    4.6140    1.4160   19.0810 C   0  0  0  0  0  0  0  0  0  0  0  0
    5.1880    1.4420   17.8270 C   0  0  0  0  0  0  0  0  0  0  0  0
    6.3190    0.6890   17.7250 N   0  0  0  0  0  0  0  0  0  0  0  0
    6.9340   -0.0740   18.7290 C   0  0  0  0  0  0  0  0  0  0  0  0
   11.9000    0.4640   23.1900 C   0  0  0  0  0  0  0  0  0  0  0  0
   12.7070   -0.5550   23.5750 N   0  0  0  0  0  0  0  0  0  0  0  0
   13.1680   -1.3230   22.5670 C   0  0  0  0  0  0  0  0  0  0  0  0
   12.9020   -2.7290   22.8010 C   0  0  0  0  0  0  0  0  0  0  0  0
   12.8080   -3.1470   23.9350 O   0  0  0  0  0  0  0  0  0  0  0  0
   13.2080   -2.2970   24.9070 C   0  0  0  0  0  0  0  0  0  0  0  0
   12.5820   -1.0620   24.8870 C   0  0  0  0  0  0  0  0  0  0  0  0
  2  1  1  1
  2  3  1  0
  3  4  1  0
  4  5  1  0
  5  6  2  0
  5  7  1  0
  7  8  1  0
  8  9  2  0
  9 10  1  0
 10 11  2  0
 11 12  1  0
  8 13  1  0
 12 13  2  0
  2 14  1  0
 14 15  1  0
 15 16  1  0
 16 17  1  0
 17 18  1  0
 18 19  1  0
 15 20  1  0
 19 20  1  0
M  END
