pyridine_urea_3352
     RDKit          3D

 19 21  0  0  0  0  0  0  0  0999 V2000
    8.6630    0.9680   21.2810 O   0  0  0  0  0  0  0  0  0  0  0  0
    8.5050   -0.2190   21.5370 C   0  0  0  0  0  0  0  0  0  0  0  0
    9.3190   -0.9830   22.3250 N   0  0  0  0  0  0  0  0  0  0  0  0
   10.6750   -0.7010   22.5410 C   0  0  0  0  0  0  0  0  0  0  0  0
   10.9760    0.6470   22.9140 C   0  0  0  0  0  0  0  0  0  0  0  0
   12.3090    0.9830   23.1300 C   0  0  0  0  0  0  0  0  0  0  0  0
   13.0300   -0.1100   22.9270 C   0  0  0  0  0  0  0  0  0  0  0  0
   13.0470   -1.3750   22.6080 N   0  0  0  0  0  0  0  0  0  0  0  0
   11.7290   -1.6580   22.4000 C   0  0  0  0  0  0  0  0  0  0  0  0
    7.4340   -0.9080   21.0170 N   0  0  0  0  0  0  0  0  0  0  0  0
    6.5900   -0.1140   20.1640 C   0  0  0  0  0  0  0  0  0  0  0  0
    7.0070   -0.0790   18.6620 C   0  0  0  0  0  0  0  0  0  0  0  0
    6.1860    0.7110   17.9030 N   0  0  0  0  0  0  0  0  0  0  0  0
    5.0740    1.4080   18.4720 C   0  0  0  0  0  0  0  0  0  0  0  0
    4.1510    2.2340   17.9360 N   0  0  0  0  0  0  0  0  0  0  0  0
    3.2570    2.6710   18.8790 N   0  0  0  0  0  0  0  0  0  0  0  0
    3.6000    2.1230   20.0570 C   0  0  0  0  0  0  0  0  0  0  0  0
    4.7020    1.3380   19.9130 C   0  0  0  0  0  0  0  0  0  0  0  0
    5.4810    0.5660   20.7330 C   0  0  0  0  0  0  0  0  0  0  0  0
  1  2  2  0
  2  3  1  0
  3  4  1  0
  4  5  2  0
  5  6  1  0
  6  7  2  0
  7  8  1  0
  4  9  1  0
  8  9  2  0
  2 10  1  0
 10 11  1  0
 11 12  2  0
 12 13  1  0
 13 14  2  0
 14 15  1  0
 15 16  1  0
 16 17  2  0
 14 18  1  0
 17 18  1  0
 11 19  1  0
 18 19  2  0
M  END
