pyridine_urea_2754
     RDKit          3D

 22 24  0  0  0  0  0  0  0  0999 V2000
   13.3890   -2.4940   25.2720 C   0  0  0  0  0  0  0  0  0  0  0  0
   12.8390   -1.3800   24.6860 N   0  0  0  0  0  0  0  0  0  0  0  0
   12.3850   -0.2920   25.2980 C   0  0  0  0  0  0  0  0  0  0  0  0
   10.8140   -0.2320   24.9160 C   0  0  0  0  0  0  0  0  0  0  0  0
   10.3310    0.2390   23.6520 C   0  0  0  0  0  0  0  0  0  0  0  0
   10.0680   -0.9360   22.6560 C   0  0  1  0  0  0  0  0  0  0  0  0
    9.3730   -0.8640   21.5250 N   0  0  0  0  0  0  0  0  0  0  0  0
    8.5500    0.1660   21.3400 C   0  0  0  0  0  0  0  0  0  0  0  0
    8.9310    1.3400   21.3020 O   0  0  0  0  0  0  0  0  0  0  0  0
    7.2660   -0.2690   21.1500 N   0  0  0  0  0  0  0  0  0  0  0  0
    6.5120    0.2690   20.0530 C   0  0  0  0  0  0  0  0  0  0  0  0
    5.2460    1.0600   20.4020 C   0  0  0  0  0  0  0  0  0  0  0  0
    4.5280    1.6370   19.1870 C   0  0  0  0  0  0  0  0  0  0  0  0
    5.1340    1.3680   17.8270 C   0  0  0  0  0  0  0  0  0  0  0  0
    6.2660    0.6260   17.6880 N   0  0  0  0  0  0  0  0  0  0  0  0
    6.9450    0.0830   18.7510 C   0  0  0  0  0  0  0  0  0  0  0  0
   11.2650   -1.5490   22.5360 C   0  0  0  0  0  0  0  0  0  0  0  0
   11.8260   -2.2630   21.4690 C   0  0  0  0  0  0  0  0  0  0  0  0
   13.0540   -2.8360   21.5040 C   0  0  0  0  0  0  0  0  0  0  0  0
   13.6070   -2.6660   22.6650 C   0  0  0  0  0  0  0  0  0  0  0  0
   12.8690   -1.9810   23.3920 C   0  0  0  0  0  0  0  0  0  0  0  0
   11.9010   -1.2940   23.8470 C   0  0  0  0  0  0  0  0  0  0  0  0
  1  2  1  0
  2  3  1  0
  3  4  1  0
  4  5  1  0
  5  6  1  0
  6  7  1  6
  7  8  1  0
  8  9  2  0
  8 10  1  0
 10 11  1  0
 11 12  2  0
 12 13  1  0
 13 14  2  0
 14 15  1  0
 11 16  1  0
 15 16  2  0
  6 17  1  0
 17 18  2  0
 18 19  1  0
 19 20  2  0
 20 21  1  0
  2 22  1  0
 17 22  1  0
 21 22  2  0
M  END
