pyridine_urea_821
     RDKit          3D

 23 25  0  0  0  0  0  0  0  0999 V2000
    8.4760    0.9110   21.1550 O   0  0  0  0  0  0  0  0  0  0  0  0
    7.8280   -0.0210   21.6220 C   0  0  0  0  0  0  0  0  0  0  0  0
    8.1690   -0.5730   22.8990 N   0  0  0  0  0  0  0  0  0  0  0  0
    9.5000   -0.4020   22.9640 C   0  0  0  0  0  0  0  0  0  0  0  0
   10.0310    0.5820   23.8130 C   0  0  0  0  0  0  0  0  0  0  0  0
   11.3960    0.7570   23.8260 C   0  0  0  0  0  0  0  0  0  0  0  0
   12.1210   -0.0680   22.9910 C   0  0  0  0  0  0  0  0  0  0  0  0
   13.5110   -0.0700   22.8390 C   0  0  0  0  0  0  0  0  0  0  0  0
   13.6280   -1.3390   23.3490 N   0  0  0  0  0  0  0  0  0  0  0  0
   13.2420   -1.7120   24.6230 C   0  0  0  0  0  0  0  0  0  0  0  0
   12.1160   -2.6780   24.5490 C   0  0  0  0  0  0  0  0  0  0  0  0
   12.0340   -2.9900   23.3730 O   0  0  0  0  0  0  0  0  0  0  0  0
   13.0430   -2.3620   22.6330 C   0  0  0  0  0  0  0  0  0  0  0  0
   13.3260   -2.6880   21.4880 O   0  0  0  0  0  0  0  0  0  0  0  0
   11.5930   -1.0150   22.1860 C   0  0  0  0  0  0  0  0  0  0  0  0
   10.2780   -1.1940   22.1610 C   0  0  0  0  0  0  0  0  0  0  0  0
    6.7710   -0.6190   21.0240 N   0  0  0  0  0  0  0  0  0  0  0  0
    6.1980    0.0380   20.0180 C   0  0  0  0  0  0  0  0  0  0  0  0
    5.0170    0.7610   20.1160 C   0  0  0  0  0  0  0  0  0  0  0  0
    4.4930    1.4470   19.0150 C   0  0  0  0  0  0  0  0  0  0  0  0
    5.1770    1.3970   17.8070 C   0  0  0  0  0  0  0  0  0  0  0  0
    6.3220    0.6960   17.6780 N   0  0  0  0  0  0  0  0  0  0  0  0
    6.8400    0.0050   18.7990 C   0  0  0  0  0  0  0  0  0  0  0  0
  1  2  2  0
  2  3  1  0
  3  4  1  0
  4  5  2  0
  5  6  1  0
  6  7  2  0
  7  8  1  0
  8  9  1  0
  9 10  1  0
 10 11  1  0
 11 12  1  0
  9 13  1  0
 12 13  1  0
 13 14  2  0
  7 15  1  0
  4 16  1  0
 15 16  2  0
  2 17  1  0
 17 18  1  0
 18 19  2  0
 19 20  1  0
 20 21  2  0
 21 22  1  0
 18 23  1  0
 22 23  2  0
M  END
