pyridine_urea_1981
     RDKit          3D

 20 20  0  0  0  0  0  0  0  0999 V2000
   12.4420    2.9500   22.8170 C   0  0  0  0  0  0  0  0  0  0  0  0
   12.0300    1.5950   23.4530 C   0  0  0  0  0  0  0  0  0  0  0  0
   13.0320    0.5120   23.0240 C   0  0  0  0  0  0  0  0  0  0  0  0
   10.5630    1.2640   23.1630 C   0  0  0  0  0  0  0  0  0  0  0  0
   10.3220   -0.1580   22.8780 C   0  0  1  0  0  0  0  0  0  0  0  0
   10.7980   -0.9720   23.8640 C   0  0  0  0  0  0  0  0  0  0  0  0
   10.8840   -2.6490   23.3840 S   0  0  0  0  0  0  0  0  0  0  0  0
    9.1650   -3.1130   23.3140 C   0  0  0  0  0  0  0  0  0  0  0  0
   11.5290   -3.3550   24.4590 O   0  0  0  0  0  0  0  0  0  0  0  0
   11.4210   -2.6260   22.0420 O   0  0  0  0  0  0  0  0  0  0  0  0
    9.0910   -0.7540   22.4110 N   0  0  0  0  0  0  0  0  0  0  0  0
    8.3850    0.0250   21.5320 C   0  0  0  0  0  0  0  0  0  0  0  0
    8.8700    1.1070   21.1650 O   0  0  0  0  0  0  0  0  0  0  0  0
    7.1840   -0.4990   21.1560 N   0  0  0  0  0  0  0  0  0  0  0  0
    6.4850    0.0900   20.1160 C   0  0  0  0  0  0  0  0  0  0  0  0
    5.3010    0.8070   20.3020 C   0  0  0  0  0  0  0  0  0  0  0  0
    4.6160    1.4230   19.2410 C   0  0  0  0  0  0  0  0  0  0  0  0
    5.1290    1.3200   17.9370 C   0  0  0  0  0  0  0  0  0  0  0  0
    6.2400    0.6510   17.6480 N   0  0  0  0  0  0  0  0  0  0  0  0
    6.8930    0.0640   18.6600 C   0  0  0  0  0  0  0  0  0  0  0  0
  1  2  1  0
  2  3  1  0
  2  4  1  0
  5  4  1  1
  5  6  1  0
  7  6  1  0
  7  8  1  0
  7  9  2  0
  7 10  2  0
  5 11  1  0
 11 12  1  0
 12 13  2  0
 12 14  1  0
 14 15  1  0
 15 16  2  0
 16 17  1  0
 17 18  2  0
 18 19  1  0
 15 20  1  0
 19 20  2  0
M  END
