pyridine_urea_386
     RDKit          3D

 26 29  0  0  0  0  0  0  0  0999 V2000
   11.8040    2.4190   23.2190 C   0  0  0  0  0  0  0  0  0  0  0  0
   11.3200    1.1720   23.5770 N   0  0  0  0  0  0  0  0  0  0  0  0
    9.9890    0.7580   23.4050 C   0  0  0  0  0  0  0  0  0  0  0  0
    8.7990    1.2860   23.8890 C   0  0  0  0  0  0  0  0  0  0  0  0
    8.7210    1.7180   25.1060 C   0  0  0  0  0  0  0  0  0  0  0  0
    8.7370    2.8300   24.4280 C   0  0  0  0  0  0  0  0  0  0  0  0
    9.8400   -0.3120   22.6030 C   0  0  0  0  0  0  0  0  0  0  0  0
    8.7180   -0.9150   22.2180 N   0  0  0  0  0  0  0  0  0  0  0  0
    7.9780   -0.1990   21.3590 C   0  0  0  0  0  0  0  0  0  0  0  0
    8.3250    0.9130   20.9810 O   0  0  0  0  0  0  0  0  0  0  0  0
    6.8260   -0.7800   20.9310 N   0  0  0  0  0  0  0  0  0  0  0  0
    6.2240   -0.0750   19.9090 C   0  0  0  0  0  0  0  0  0  0  0  0
    5.0010    0.5560   20.1230 C   0  0  0  0  0  0  0  0  0  0  0  0
    4.4390    1.2850   19.0820 C   0  0  0  0  0  0  0  0  0  0  0  0
    5.1210    1.3520   17.8720 C   0  0  0  0  0  0  0  0  0  0  0  0
    6.2920    0.7390   17.6610 N   0  0  0  0  0  0  0  0  0  0  0  0
    6.8110    0.0430   18.6800 C   0  0  0  0  0  0  0  0  0  0  0  0
   11.1640   -0.6780   22.1740 C   0  0  0  0  0  0  0  0  0  0  0  0
   11.3330   -1.5700   21.3610 O   0  0  0  0  0  0  0  0  0  0  0  0
   12.0480    0.1230   22.8930 N   0  0  0  0  0  0  0  0  0  0  0  0
   12.6440   -0.8360   23.5840 C   0  0  0  0  0  0  0  0  0  0  0  0
   13.0840   -1.8340   22.7830 C   0  0  0  0  0  0  0  0  0  0  0  0
   13.6380   -2.8940   23.3420 C   0  0  0  0  0  0  0  0  0  0  0  0
   13.7600   -2.9770   24.7060 C   0  0  0  0  0  0  0  0  0  0  0  0
   13.3640   -1.9810   25.4740 C   0  0  0  0  0  0  0  0  0  0  0  0
   12.7810   -0.8700   24.9410 C   0  0  0  0  0  0  0  0  0  0  0  0
  1  2  1  0
  2  3  1  0
  3  4  1  0
  4  5  1  0
  4  6  1  0
  5  6  1  0
  3  7  2  0
  7  8  1  0
  8  9  1  0
  9 10  2  0
  9 11  1  0
 11 12  1  0
 12 13  2  0
 13 14  1  0
 14 15  2  0
 15 16  1  0
 12 17  1  0
 16 17  2  0
  7 18  1  0
 18 19  2  0
  2 20  1  0
 18 20  1  0
 20 21  1  0
 21 22  2  0
 22 23  1  0
 23 24  2  0
 24 25  1  0
 21 26  1  0
 25 26  2  0
M  END
