pyridine_urea_2119
     RDKit          3D

 30 32  0  0  0  0  0  0  0  0999 V2000
    2.8650    1.4550   25.2590 C   0  0  0  0  0  0  0  0  0  0  0  0
    4.2800    0.9170   25.5590 C   0  0  0  0  0  0  0  0  0  0  0  0
    4.4480   -0.5530   25.1790 C   0  0  0  0  0  0  0  0  0  0  0  0
    5.8190   -1.1380   25.4530 C   0  0  0  0  0  0  0  0  0  0  0  0
    6.8860   -0.2720   26.0590 C   0  0  0  0  0  0  0  0  0  0  0  0
    8.4850   -1.1390   26.3310 S   0  0  0  0  0  0  0  0  0  0  0  0
    9.3120   -0.3180   27.1810 O   0  0  0  0  0  0  0  0  0  0  0  0
    8.1760   -2.5140   26.6630 O   0  0  0  0  0  0  0  0  0  0  0  0
    9.2100   -1.1730   24.8170 N   0  0  0  0  0  0  0  0  0  0  0  0
   10.1330   -0.1930   24.4660 C   0  0  0  0  0  0  0  0  0  0  0  0
   10.4080   -0.1260   23.0930 C   0  0  2  0  0  0  0  0  0  0  0  0
    9.3190   -0.6260   22.3850 N   0  0  0  0  0  0  0  0  0  0  0  0
    8.5220    0.1230   21.4870 C   0  0  0  0  0  0  0  0  0  0  0  0
    8.8570    1.2560   21.1180 O   0  0  0  0  0  0  0  0  0  0  0  0
    7.4020   -0.5510   21.1260 N   0  0  0  0  0  0  0  0  0  0  0  0
    6.6150    0.0690   20.2110 C   0  0  0  0  0  0  0  0  0  0  0  0
    5.4480    0.8170   20.4010 C   0  0  0  0  0  0  0  0  0  0  0  0
    4.7460    1.4100   19.3510 C   0  0  0  0  0  0  0  0  0  0  0  0
    5.1820    1.2830   18.0380 C   0  0  0  0  0  0  0  0  0  0  0  0
    6.2690    0.5960   17.6990 N   0  0  0  0  0  0  0  0  0  0  0  0
    6.9530    0.0160   18.7190 C   0  0  0  0  0  0  0  0  0  0  0  0
   11.5680   -0.8160   22.6650 C   0  0  0  0  0  0  0  0  0  0  0  0
   11.5600   -1.9390   22.1680 C   0  0  0  0  0  0  0  0  0  0  0  0
   12.5780   -1.0000   22.4770 C   0  0  0  0  0  0  0  0  0  0  0  0
   11.4570   -0.0020   23.0560 C   0  0  0  0  0  0  0  0  0  0  0  0
   12.7030    0.7810   23.2530 C   0  0  0  0  0  0  0  0  0  0  0  0
   13.0240   -0.3890   22.6970 C   0  0  0  0  0  0  0  0  0  0  0  0
    6.6270    1.0890   26.3770 C   0  0  0  0  0  0  0  0  0  0  0  0
    7.5840    1.9240   26.9390 C   0  0  0  0  0  0  0  0  0  0  0  0
    5.3410    1.6520   26.1240 C   0  0  0  0  0  0  0  0  0  0  0  0
  1  2  1  0
  2  3  2  0
  3  4  1  0
  4  5  2  0
  5  6  1  0
  6  7  2  0
  6  8  2  0
  6  9  1  0
  9 10  1  0
 11 10  1  1
 11 12  1  0
 12 13  1  0
 13 14  2  0
 13 15  1  0
 15 16  1  0
 16 17  2  0
 17 18  1  0
 18 19  2  0
 19 20  1  0
 16 21  1  0
 20 21  2  0
 11 22  1  0
 22 23  2  0
 23 24  1  0
 24 25  2  0
 25 26  1  0
 22 27  1  0
 26 27  2  0
  5 28  1  0
 28 29  1  0
  2 30  1  0
 28 30  2  0
M  END
