pyridine_urea_150
     RDKit          3D

 21 22  0  0  0  0  0  0  0  0999 V2000
    8.3430    1.8800   23.4660 C   0  0  0  0  0  0  0  0  0  0  0  0
    9.3910    0.9320   23.2620 O   0  0  0  0  0  0  0  0  0  0  0  0
    8.9580   -0.4180   23.5010 C   0  0  0  0  0  0  0  0  0  0  0  0
    7.9680   -0.7540   24.1570 O   0  0  0  0  0  0  0  0  0  0  0  0
    9.8750   -1.3930   22.7900 C   0  0  1  0  0  0  0  0  0  0  0  0
    9.0600   -1.7260   21.6190 N   0  0  0  0  0  0  0  0  0  0  0  0
    8.2150   -0.5370   21.3190 C   0  0  0  0  0  0  0  0  0  0  0  0
    8.8320    0.6950   21.2620 O   0  0  0  0  0  0  0  0  0  0  0  0
    6.8870   -0.8570   21.1470 N   0  0  0  0  0  0  0  0  0  0  0  0
    6.4820   -0.2180   20.0730 C   0  0  0  0  0  0  0  0  0  0  0  0
    5.2100    0.5920   20.3260 C   0  0  0  0  0  0  0  0  0  0  0  0
    4.6300    1.3600   19.2160 C   0  0  0  0  0  0  0  0  0  0  0  0
    5.2620    1.3030   18.0380 C   0  0  0  0  0  0  0  0  0  0  0  0
    6.3960    0.5860   17.8000 N   0  0  0  0  0  0  0  0  0  0  0  0
    6.9850   -0.1540   18.7910 C   0  0  0  0  0  0  0  0  0  0  0  0
   11.0980   -0.6500   22.2960 C   0  0  0  0  0  0  0  0  0  0  0  0
   11.6560    0.0270   23.3430 C   0  0  0  0  0  0  0  0  0  0  0  0
   12.8570   -0.5400   23.2020 C   0  0  0  0  0  0  0  0  0  0  0  0
   13.7340    0.4060   22.8180 F   0  0  0  0  0  0  0  0  0  0  0  0
   13.2310   -1.0520   24.3890 F   0  0  0  0  0  0  0  0  0  0  0  0
   12.4010   -1.5100   22.1650 C   0  0  0  0  0  0  0  0  0  0  0  0
  1  2  1  0
  2  3  1  0
  3  4  2  0
  3  5  1  0
  5  6  1  6
  6  7  1  0
  7  8  2  0
  7  9  1  0
  9 10  1  0
 10 11  2  0
 11 12  1  0
 12 13  2  0
 13 14  1  0
 10 15  1  0
 14 15  2  0
  5 16  1  0
 16 17  1  0
 17 18  1  0
 18 19  1  0
 18 20  1  0
 16 21  1  0
 18 21  1  0
M  END
