pyridine_urea_1322
     RDKit          3D

 20 21  0  0  0  0  0  0  0  0999 V2000
    8.1890   -1.4290   20.1510 O   0  0  0  0  0  0  0  0  0  0  0  0
    8.2480   -0.7850   21.1270 C   0  0  0  0  0  0  0  0  0  0  0  0
    7.1640   -0.0340   21.4070 N   0  0  0  0  0  0  0  0  0  0  0  0
    6.5340    0.3990   20.1760 C   0  0  0  0  0  0  0  0  0  0  0  0
    5.2830    1.2750   20.3250 C   0  0  0  0  0  0  0  0  0  0  0  0
    4.6230    1.7490   19.1950 C   0  0  0  0  0  0  0  0  0  0  0  0
    5.1340    1.4050   17.9450 C   0  0  0  0  0  0  0  0  0  0  0  0
    6.2460    0.6170   17.8390 N   0  0  0  0  0  0  0  0  0  0  0  0
    6.9580    0.1010   18.9230 C   0  0  0  0  0  0  0  0  0  0  0  0
    9.3490   -0.7170   21.9220 N   0  0  0  0  0  0  0  0  0  0  0  0
   10.5270   -0.5690   22.5630 C   0  0  2  0  0  0  0  0  0  0  0  0
   10.7470   -1.4850   23.5810 C   0  0  0  0  0  0  0  0  0  0  0  0
    9.5800   -2.0630   23.9900 F   0  0  0  0  0  0  0  0  0  0  0  0
   11.0070    0.7100   22.8040 C   0  0  0  0  0  0  0  0  0  0  0  0
   10.3310    1.7690   22.8900 C   0  0  0  0  0  0  0  0  0  0  0  0
   11.7700    1.7940   23.0180 C   0  0  0  0  0  0  0  0  0  0  0  0
   11.7770    0.1640   22.7990 C   0  0  0  0  0  0  0  0  0  0  0  0
   13.1590    0.1700   22.9190 C   0  0  0  0  0  0  0  0  0  0  0  0
   12.3330    1.1640   22.9870 C   0  0  0  0  0  0  0  0  0  0  0  0
   12.6980    2.4430   23.1930 F   0  0  0  0  0  0  0  0  0  0  0  0
  1  2  2  0
  2  3  1  0
  3  4  1  0
  4  5  2  0
  5  6  1  0
  6  7  2  0
  7  8  1  0
  4  9  1  0
  8  9  2  0
  2 10  1  0
 10 11  1  0
 11 12  1  1
 12 13  1  0
 11 14  1  0
 14 15  2  0
 15 16  1  0
 16 17  2  0
 17 18  1  0
 14 19  1  0
 18 19  2  0
 19 20  1  0
M  END
