pyridine_urea_13581
     RDKit          3D

 29 31  0  0  0  0  0  0  0  0999 V2000
   22.5770    1.6810   24.8660 C   0  0  0  0  0  0  0  0  0  0  0  0
   22.3680    0.4070   24.2620 O   0  0  0  0  0  0  0  0  0  0  0  0
   21.2270   -0.1960   24.7000 C   0  0  0  0  0  0  0  0  0  0  0  0
   20.9400   -0.3250   26.1640 C   0  0  0  0  0  0  0  0  0  0  0  0
   19.6470   -0.9940   26.5790 C   0  0  0  0  0  0  0  0  0  0  0  0
   18.5520   -1.5760   25.6390 C   0  0  0  0  0  0  0  0  0  0  0  0
   17.1100   -2.3310   25.8510 N   0  0  0  0  0  0  0  0  0  0  0  0
   15.2130   -2.2580   26.1610 S   0  0  0  0  0  0  0  0  0  0  0  0
   14.5840   -3.5030   26.5590 O   0  0  0  0  0  0  0  0  0  0  0  0
   15.5880   -1.2570   26.9060 O   0  0  0  0  0  0  0  0  0  0  0  0
   13.8720   -2.3400   24.8560 C   0  0  0  0  0  0  0  0  0  0  0  0
   12.7650   -1.5060   24.4500 C   0  0  0  0  0  0  0  0  0  0  0  0
   12.1830   -0.3180   24.9110 C   0  0  0  0  0  0  0  0  0  0  0  0
   11.0250    0.2600   24.2890 C   0  0  0  0  0  0  0  0  0  0  0  0
   10.3060   -0.2250   23.1790 C   0  0  0  0  0  0  0  0  0  0  0  0
    9.1840    0.4410   22.7130 N   0  0  0  0  0  0  0  0  0  0  0  0
    8.3530   -0.1010   21.7080 C   0  0  0  0  0  0  0  0  0  0  0  0
    8.8860   -1.0080   20.7760 O   0  0  0  0  0  0  0  0  0  0  0  0
    7.0520    0.2490   21.6990 N   0  0  0  0  0  0  0  0  0  0  0  0
    6.4400    0.5090   20.4930 C   0  0  0  0  0  0  0  0  0  0  0  0
    5.2620    1.4740   20.3590 C   0  0  0  0  0  0  0  0  0  0  0  0
    4.7200    1.6810   19.1040 C   0  0  0  0  0  0  0  0  0  0  0  0
    5.2270    1.0360   17.9930 C   0  0  0  0  0  0  0  0  0  0  0  0
    6.2450    0.1680   17.9800 N   0  0  0  0  0  0  0  0  0  0  0  0
    6.8620   -0.0970   19.3080 C   0  0  0  0  0  0  0  0  0  0  0  0
   10.9150   -1.4890   22.6500 C   0  0  0  0  0  0  0  0  0  0  0  0
   12.1180   -2.0350   23.3560 C   0  0  0  0  0  0  0  0  0  0  0  0
   18.9750   -1.4000   24.2650 C   0  0  0  0  0  0  0  0  0  0  0  0
   20.1430   -0.7950   23.8040 C   0  0  0  0  0  0  0  0  0  0  0  0
  1  2  1  0
  2  3  1  0
  3  4  2  0
  4  5  1  0
  5  6  2  0
  6  7  1  0
  8  7  1  0
  8  9  2  0
  8 10  2  0
  8 11  1  0
 11 12  1  0
 12 13  2  0
 13 14  1  0
 14 15  2  0
 15 16  1  0
 16 17  1  0
 17 18  2  0
 17 19  1  0
 19 20  1  0
 20 21  2  0
 21 22  1  0
 22 23  2  0
 23 24  1  0
 20 25  1  0
 24 25  2  0
 15 26  1  0
 12 27  1  0
 26 27  2  0
  6 28  1  0
  3 29  1  0
 28 29  2  0
M  END
