pyridine_urea_1130
     RDKit          3D

 21 22  0  0  0  0  0  0  0  0999 V2000
    1.8130    1.6500   20.7960 C   0  0  0  0  0  0  0  0  0  0  0  0
    2.6340    1.3350   22.0130 C   0  0  0  0  0  0  0  0  0  0  0  0
    3.3380    0.3440   21.8070 O   0  0  0  0  0  0  0  0  0  0  0  0
    4.6840    0.5070   21.9920 C   0  0  0  0  0  0  0  0  0  0  0  0
    5.2230    0.6140   23.0810 O   0  0  0  0  0  0  0  0  0  0  0  0
    5.3050    0.5280   20.7380 C   0  0  0  0  0  0  0  0  0  0  0  0
    4.8290    1.1170   19.6160 C   0  0  0  0  0  0  0  0  0  0  0  0
    5.7450    0.9140   18.5670 N   0  0  0  0  0  0  0  0  0  0  0  0
    5.3700    1.4550   17.4040 C   0  0  0  0  0  0  0  0  0  0  0  0
    6.8780    0.1920   18.8770 C   0  0  0  0  0  0  0  0  0  0  0  0
    6.5210   -0.0350   20.3650 C   0  0  0  0  0  0  0  0  0  0  0  0
    7.4850   -0.7790   21.1360 N   0  0  0  0  0  0  0  0  0  0  0  0
    8.6150   -0.2330   21.6720 C   0  0  0  0  0  0  0  0  0  0  0  0
    9.0470    0.8780   21.3810 O   0  0  0  0  0  0  0  0  0  0  0  0
    9.1530   -1.0630   22.5350 N   0  0  0  0  0  0  0  0  0  0  0  0
   10.4890   -0.6290   22.6090 C   0  0  0  0  0  0  0  0  0  0  0  0
   10.7040    0.7010   22.9430 C   0  0  0  0  0  0  0  0  0  0  0  0
   12.0020    1.1820   23.0240 C   0  0  0  0  0  0  0  0  0  0  0  0
   13.0390    0.3290   22.7800 C   0  0  0  0  0  0  0  0  0  0  0  0
   12.8840   -0.9630   22.4560 N   0  0  0  0  0  0  0  0  0  0  0  0
   11.6090   -1.4190   22.3750 C   0  0  0  0  0  0  0  0  0  0  0  0
  1  2  1  0
  2  3  1  0
  3  4  1  0
  4  5  2  0
  4  6  1  0
  6  7  2  0
  7  8  1  0
  8  9  1  0
  8 10  1  0
  6 11  1  0
 10 11  2  0
 11 12  1  0
 12 13  1  0
 13 14  2  0
 13 15  1  0
 15 16  1  0
 16 17  2  0
 17 18  1  0
 18 19  2  0
 19 20  1  0
 16 21  1  0
 20 21  2  0
M  END
