pyridine_urea_8798
     RDKit          3D

 20 21  0  0  0  0  0  0  0  0999 V2000
    8.8860    1.0910   21.2460 O   0  0  0  0  0  0  0  0  0  0  0  0
    8.2400    0.0900   21.6110 C   0  0  0  0  0  0  0  0  0  0  0  0
    8.5470   -0.6440   22.7220 N   0  0  0  0  0  0  0  0  0  0  0  0
    9.8730   -1.1520   22.8890 C   0  0  0  0  0  0  0  0  0  0  0  0
   10.7590   -0.0670   23.5350 C   0  0  1  0  0  0  0  0  0  0  0  0
   10.7740   -0.3490   24.9780 O   0  0  0  0  0  0  0  0  0  0  0  0
   12.0670    0.0970   23.0620 C   0  0  0  0  0  0  0  0  0  0  0  0
   12.6220    1.3490   23.2600 C   0  0  0  0  0  0  0  0  0  0  0  0
   13.0540    0.2580   22.7110 C   0  0  0  0  0  0  0  0  0  0  0  0
   11.9820   -0.6820   22.8110 C   0  0  0  0  0  0  0  0  0  0  0  0
   10.8410   -0.2700   23.4090 F   0  0  0  0  0  0  0  0  0  0  0  0
   12.2190   -1.8500   22.3090 C   0  0  0  0  0  0  0  0  0  0  0  0
   13.0860   -0.8060   22.3330 C   0  0  0  0  0  0  0  0  0  0  0  0
    7.1360   -0.4430   21.0220 N   0  0  0  0  0  0  0  0  0  0  0  0
    6.5040    0.1370   19.9660 C   0  0  0  0  0  0  0  0  0  0  0  0
    5.3640    0.8550   20.3270 C   0  0  0  0  0  0  0  0  0  0  0  0
    4.6680    1.5210   19.1850 C   0  0  0  0  0  0  0  0  0  0  0  0
    5.1480    1.4050   17.9010 C   0  0  0  0  0  0  0  0  0  0  0  0
    6.2530    0.6860   17.6070 N   0  0  0  0  0  0  0  0  0  0  0  0
    6.9170    0.0560   18.6660 C   0  0  0  0  0  0  0  0  0  0  0  0
  1  2  2  0
  2  3  1  0
  3  4  1  0
  4  5  1  0
  5  6  1  1
  5  7  1  0
  7  8  2  0
  8  9  1  0
  9 10  2  0
 10 11  1  0
 10 12  1  0
  7 13  1  0
 12 13  2  0
  2 14  1  0
 14 15  1  0
 15 16  2  0
 16 17  1  0
 17 18  2  0
 18 19  1  0
 15 20  1  0
 19 20  2  0
M  END
