pyridine_urea_4186
     RDKit          3D

 24 26  0  0  0  0  0  0  0  0999 V2000
   13.4250    4.7570   21.6070 C   0  0  0  0  0  0  0  0  0  0  0  0
   12.8730    5.8320   22.4700 C   0  0  0  0  0  0  0  0  0  0  0  0
   11.4550    5.6900   22.4130 O   0  0  0  0  0  0  0  0  0  0  0  0
   10.9890    4.7950   23.3170 C   0  0  0  0  0  0  0  0  0  0  0  0
   10.3280    5.1370   24.5530 O   0  0  0  0  0  0  0  0  0  0  0  0
   11.0780    3.3940   23.1980 C   0  0  0  0  0  0  0  0  0  0  0  0
   10.0090    2.5770   23.3360 C   0  0  0  0  0  0  0  0  0  0  0  0
   10.4840    1.2340   23.2020 N   0  0  0  0  0  0  0  0  0  0  0  0
   11.8290    1.2450   22.9600 C   0  0  0  0  0  0  0  0  0  0  0  0
   12.2800    2.6840   22.9490 N   0  0  0  0  0  0  0  0  0  0  0  0
   12.5560    0.0460   22.7760 C   0  0  0  0  0  0  0  0  0  0  0  0
   11.5720   -1.1400   22.4200 C   0  0  0  0  0  0  0  0  0  0  0  0
   10.2810   -0.6290   22.1940 C   0  0  1  0  0  0  0  0  0  0  0  0
    9.2460   -1.3340   21.7290 N   0  0  0  0  0  0  0  0  0  0  0  0
    8.3100   -0.4370   21.2810 C   0  0  0  0  0  0  0  0  0  0  0  0
    8.5650    0.8470   21.1620 O   0  0  0  0  0  0  0  0  0  0  0  0
    7.1100   -0.9600   20.9640 N   0  0  0  0  0  0  0  0  0  0  0  0
    6.4910   -0.2430   19.9860 C   0  0  0  0  0  0  0  0  0  0  0  0
    5.3170    0.4260   20.3700 C   0  0  0  0  0  0  0  0  0  0  0  0
    4.5840    1.2150   19.4540 C   0  0  0  0  0  0  0  0  0  0  0  0
    5.1840    1.2600   18.0670 C   0  0  0  0  0  0  0  0  0  0  0  0
    6.3290    0.5830   17.7540 N   0  0  0  0  0  0  0  0  0  0  0  0
    6.9760   -0.1670   18.7130 C   0  0  0  0  0  0  0  0  0  0  0  0
    9.8120    0.0130   23.2930 C   0  0  0  0  0  0  0  0  0  0  0  0
  1  2  1  0
  2  3  1  0
  3  4  1  0
  4  5  2  0
  4  6  1  0
  6  7  2  0
  7  8  1  0
  8  9  1  0
  6 10  1  0
  9 10  2  0
  9 11  1  0
 11 12  1  0
 12 13  1  0
 13 14  1  1
 14 15  1  0
 15 16  2  0
 15 17  1  0
 17 18  1  0
 18 19  2  0
 19 20  1  0
 20 21  2  0
 21 22  1  0
 18 23  1  0
 22 23  2  0
  8 24  1  0
 13 24  1  0
M  END
