pyridine_urea_9029
     RDKit          3D

 19 20  0  0  0  0  0  0  0  0999 V2000
   13.1080   -1.2250   25.2130 C   0  0  0  0  0  0  0  0  0  0  0  0
   11.9570   -1.8610   24.9890 N   0  0  0  0  0  0  0  0  0  0  0  0
   12.0310   -2.8790   24.0150 C   0  0  0  0  0  0  0  0  0  0  0  0
   11.5150   -2.2650   22.7200 C   0  0  0  0  0  0  0  0  0  0  0  0
   10.2390   -1.7520   22.7680 C   0  0  0  0  0  0  0  0  0  0  0  0
    9.2690   -2.5940   22.2760 C   0  0  0  0  0  0  0  0  0  0  0  0
   10.1760   -0.4850   22.2780 C   0  0  0  0  0  0  0  0  0  0  0  0
    8.9350   -0.0060   22.4680 N   0  0  0  0  0  0  0  0  0  0  0  0
    8.1830    0.4720   21.4220 C   0  0  0  0  0  0  0  0  0  0  0  0
    8.4950    1.5400   20.9090 O   0  0  0  0  0  0  0  0  0  0  0  0
    7.1510   -0.3090   21.0550 N   0  0  0  0  0  0  0  0  0  0  0  0
    6.4880    0.2110   20.0200 C   0  0  0  0  0  0  0  0  0  0  0  0
    5.3180    0.9110   20.2690 C   0  0  0  0  0  0  0  0  0  0  0  0
    4.6300    1.4800   19.2030 C   0  0  0  0  0  0  0  0  0  0  0  0
    5.1470    1.3210   17.9160 C   0  0  0  0  0  0  0  0  0  0  0  0
    6.2690    0.6360   17.6620 N   0  0  0  0  0  0  0  0  0  0  0  0
    6.9060    0.1010   18.7130 C   0  0  0  0  0  0  0  0  0  0  0  0
    9.8580   -1.5660   24.2320 C   0  0  0  0  0  0  0  0  0  0  0  0
   10.9090   -0.9650   24.9680 C   0  0  0  0  0  0  0  0  0  0  0  0
  1  2  1  0
  2  3  1  0
  3  4  1  0
  4  5  1  0
  5  6  1  0
  5  7  1  0
  7  8  1  0
  8  9  1  0
  9 10  2  0
  9 11  1  0
 11 12  1  0
 12 13  2  0
 13 14  1  0
 14 15  2  0
 15 16  1  0
 12 17  1  0
 16 17  2  0
  5 18  1  0
  2 19  1  0
 18 19  1  0
M  END
