pyridine_urea_8490
     RDKit          3D

 22 24  0  0  0  0  0  0  0  0999 V2000
    9.1060   -2.1230   21.3690 C   0  0  0  0  0  0  0  0  0  0  0  0
   10.2120   -1.2630   21.5740 O   0  0  0  0  0  0  0  0  0  0  0  0
   10.7430   -1.3380   22.8180 C   0  0  0  0  0  0  0  0  0  0  0  0
   10.2250   -1.5110   24.0330 C   0  0  0  0  0  0  0  0  0  0  0  0
   11.2540   -1.5060   24.9750 C   0  0  0  0  0  0  0  0  0  0  0  0
   12.6710   -1.3480   24.7120 C   0  0  0  0  0  0  0  0  0  0  0  0
   13.2410   -1.1690   23.3280 C   0  0  0  0  0  0  0  0  0  0  0  0
   12.6990   -1.1100   22.1870 C   0  0  0  0  0  0  0  0  0  0  0  0
   11.1220   -1.1620   21.7820 C   0  0  0  0  0  0  0  0  0  0  0  0
   10.3020   -1.2440   22.9340 C   0  0  0  0  0  0  0  0  0  0  0  0
    9.0180   -0.4700   22.7680 N   0  0  0  0  0  0  0  0  0  0  0  0
    8.5190    0.2580   21.6830 C   0  0  0  0  0  0  0  0  0  0  0  0
    9.0680    1.4360   21.2120 O   0  0  0  0  0  0  0  0  0  0  0  0
    7.3710   -0.3350   21.1540 N   0  0  0  0  0  0  0  0  0  0  0  0
    6.6170    0.1860   20.0930 C   0  0  0  0  0  0  0  0  0  0  0  0
    5.4690    0.9380   20.3800 C   0  0  0  0  0  0  0  0  0  0  0  0
    4.7160    1.4800   19.3310 C   0  0  0  0  0  0  0  0  0  0  0  0
    5.1450    1.2480   18.0360 C   0  0  0  0  0  0  0  0  0  0  0  0
    6.2310    0.5290   17.7210 N   0  0  0  0  0  0  0  0  0  0  0  0
    6.9280    0.0200   18.7540 C   0  0  0  0  0  0  0  0  0  0  0  0
   12.4200   -1.0950   21.6830 O   0  0  0  0  0  0  0  0  0  0  0  0
   12.0360   -1.2560   23.1450 C   0  0  0  0  0  0  0  0  0  0  0  0
  1  2  1  0
  2  3  1  0
  3  4  2  0
  4  5  1  0
  5  6  2  0
  6  7  1  0
  7  8  1  0
  8  9  2  0
  9 10  1  0
 10 11  1  0
 11 12  1  0
 12 13  2  0
 12 14  1  0
 14 15  1  0
 15 16  2  0
 16 17  1  0
 17 18  2  0
 18 19  1  0
 15 20  1  0
 19 20  2  0
  9 21  1  0
  3 22  1  0
  7 22  2  0
 21 22  1  0
M  END
