pyridine_urea_12459
     RDKit          3D

 22 23  0  0  0  0  0  0  0  0999 V2000
   10.1070   -1.8340   23.9210 C   0  0  0  0  0  0  0  0  0  0  0  0
   10.2860   -1.1270   22.5790 C   0  0  2  0  0  0  0  0  0  0  0  0
    9.2490   -1.5150   21.6450 N   0  0  0  0  0  0  0  0  0  0  0  0
    8.3820   -0.3560   21.4190 C   0  0  0  0  0  0  0  0  0  0  0  0
    8.7900    0.7970   21.4260 O   0  0  0  0  0  0  0  0  0  0  0  0
    6.9690   -0.7960   21.1570 N   0  0  0  0  0  0  0  0  0  0  0  0
    6.3530   -0.0610   20.0530 C   0  0  0  0  0  0  0  0  0  0  0  0
    5.0780    0.7640   20.2930 C   0  0  0  0  0  0  0  0  0  0  0  0
    4.5280    1.4580   19.2260 C   0  0  0  0  0  0  0  0  0  0  0  0
    5.1800    1.3990   17.8620 C   0  0  0  0  0  0  0  0  0  0  0  0
    6.3160    0.6430   17.6980 N   0  0  0  0  0  0  0  0  0  0  0  0
    6.8870   -0.0730   18.7660 C   0  0  0  0  0  0  0  0  0  0  0  0
   11.6110   -1.4890   21.9000 C   0  0  0  0  0  0  0  0  0  0  0  0
   11.9540   -2.4250   21.0040 C   0  0  0  0  0  0  0  0  0  0  0  0
   13.2350   -1.7630   21.1710 C   0  0  0  0  0  0  0  0  0  0  0  0
   12.0970   -0.9960   22.2040 C   0  0  0  0  0  0  0  0  0  0  0  0
   11.7200    0.1810   23.3750 S   0  0  0  0  0  0  0  0  0  0  0  0
   12.4190   -1.0920   24.4840 C   0  0  0  0  0  0  0  0  0  0  0  0
   10.2870    0.3150   23.5000 O   0  0  0  0  0  0  0  0  0  0  0  0
   12.6360    1.2840   23.2160 O   0  0  0  0  0  0  0  0  0  0  0  0
   13.1540   -0.0140   22.6980 C   0  0  0  0  0  0  0  0  0  0  0  0
   13.0210   -0.9740   21.9200 C   0  0  0  0  0  0  0  0  0  0  0  0
  2  1  1  1
  2  3  1  0
  3  4  1  0
  4  5  2  0
  4  6  1  0
  6  7  1  0
  7  8  2  0
  8  9  1  0
  9 10  2  0
 10 11  1  0
  7 12  1  0
 11 12  2  0
  2 13  1  0
 13 14  2  0
 14 15  1  0
 15 16  2  0
 16 17  1  0
 17 18  1  0
 17 19  2  0
 17 20  2  0
 16 21  1  0
 13 22  1  0
 21 22  2  0
M  END
