pyridine_urea_8507
     RDKit          3D

 22 23  0  0  0  0  0  0  0  0999 V2000
    8.9100    0.2800   21.2230 O   0  0  0  0  0  0  0  0  0  0  0  0
    8.2480   -0.6990   21.5270 C   0  0  0  0  0  0  0  0  0  0  0  0
    8.6720   -1.6930   22.3850 N   0  0  0  0  0  0  0  0  0  0  0  0
    9.6010   -1.4320   23.4030 C   0  0  0  0  0  0  0  0  0  0  0  0
   10.0680   -0.1500   23.2810 C   0  0  0  0  0  0  0  0  0  0  0  0
   11.1820   -1.0380   23.1470 C   0  0  0  0  0  0  0  0  0  0  0  0
   12.3830   -0.5390   22.9430 C   0  0  0  0  0  0  0  0  0  0  0  0
   13.1820    0.6470   22.7730 C   0  0  0  0  0  0  0  0  0  0  0  0
   12.2340    1.6110   22.8750 C   0  0  0  0  0  0  0  0  0  0  0  0
   12.5310    3.4820   22.7180 Br  0  0  0  0  0  0  0  0  0  0  0  0
   10.7720    1.1210   23.1220 C   0  0  0  0  0  0  0  0  0  0  0  0
    9.9860    2.3440   23.1720 O   0  0  0  0  0  0  0  0  0  0  0  0
    8.6400    2.0050   23.2130 C   0  0  0  0  0  0  0  0  0  0  0  0
    8.3470    1.3580   24.3620 F   0  0  0  0  0  0  0  0  0  0  0  0
    7.9230    3.1720   23.2790 F   0  0  0  0  0  0  0  0  0  0  0  0
    6.9750   -0.9220   21.0520 N   0  0  0  0  0  0  0  0  0  0  0  0
    6.3810   -0.1730   20.0190 C   0  0  0  0  0  0  0  0  0  0  0  0
    5.1880    0.5150   20.2660 C   0  0  0  0  0  0  0  0  0  0  0  0
    4.6100    1.2690   19.2290 C   0  0  0  0  0  0  0  0  0  0  0  0
    5.2290    1.3180   17.9870 C   0  0  0  0  0  0  0  0  0  0  0  0
    6.3700    0.6570   17.7420 N   0  0  0  0  0  0  0  0  0  0  0  0
    6.9120   -0.0650   18.7460 C   0  0  0  0  0  0  0  0  0  0  0  0
  1  2  2  0
  2  3  1  0
  3  4  1  0
  4  5  1  0
  5  6  2  0
  6  7  1  0
  7  8  2  0
  8  9  1  0
  9 10  1  0
  5 11  1  0
  9 11  2  0
 11 12  1  0
 12 13  1  0
 13 14  1  0
 13 15  1  0
  2 16  1  0
 16 17  1  0
 17 18  2  0
 18 19  1  0
 19 20  2  0
 20 21  1  0
 17 22  1  0
 21 22  2  0
M  END
