pyridine_urea_12502
     RDKit          3D

 21 22  0  0  0  0  0  0  0  0999 V2000
   13.2510   -2.3000   22.6560 C   0  0  0  0  0  0  0  0  0  0  0  0
   13.7180   -1.1590   21.9270 O   0  0  0  0  0  0  0  0  0  0  0  0
   13.4850    0.0670   22.6270 C   0  0  0  0  0  0  0  0  0  0  0  0
   12.1900   -0.4620   22.6150 C   0  0  0  0  0  0  0  0  0  0  0  0
   12.2480    0.8190   23.2940 C   0  0  0  0  0  0  0  0  0  0  0  0
   10.9390    1.1710   23.7610 C   0  0  0  0  0  0  0  0  0  0  0  0
   11.4160    0.0690   23.0520 C   0  0  0  0  0  0  0  0  0  0  0  0
   10.0110   -0.4960   23.0370 C   0  0  2  0  0  0  0  0  0  0  0  0
   10.3280   -1.8480   22.4120 C   0  0  0  0  0  0  0  0  0  0  0  0
    9.2090   -2.3250   21.6650 O   0  0  0  0  0  0  0  0  0  0  0  0
    8.8870   -0.5610   22.7520 N   0  0  0  0  0  0  0  0  0  0  0  0
    8.4300    0.1640   21.6590 C   0  0  0  0  0  0  0  0  0  0  0  0
    8.9660    1.2160   21.2720 O   0  0  0  0  0  0  0  0  0  0  0  0
    7.2910   -0.4440   21.0820 N   0  0  0  0  0  0  0  0  0  0  0  0
    6.5860    0.1200   20.0510 C   0  0  0  0  0  0  0  0  0  0  0  0
    5.3150    0.9190   20.3760 C   0  0  0  0  0  0  0  0  0  0  0  0
    4.6050    1.5390   19.1700 C   0  0  0  0  0  0  0  0  0  0  0  0
    5.1340    1.3480   17.9110 C   0  0  0  0  0  0  0  0  0  0  0  0
    6.2590    0.6180   17.7080 N   0  0  0  0  0  0  0  0  0  0  0  0
    6.9670    0.0170   18.7320 C   0  0  0  0  0  0  0  0  0  0  0  0
   12.6100    0.9830   23.2950 C   0  0  0  0  0  0  0  0  0  0  0  0
  1  2  1  0
  2  3  1  0
  3  4  2  0
  4  5  1  0
  5  6  2  0
  6  7  1  0
  7  8  1  0
  8  9  1  6
  9 10  1  0
  8 11  1  0
 11 12  1  0
 12 13  2  0
 12 14  1  0
 14 15  1  0
 15 16  2  0
 16 17  1  0
 17 18  2  0
 18 19  1  0
 15 20  1  0
 19 20  2  0
  3 21  1  0
  7 21  2  0
M  END
