pyridine_urea_1738
     RDKit          3D

 18 18  0  0  0  0  0  0  0  0999 V2000
   12.8950   -1.8240   24.7790 C   0  0  0  0  0  0  0  0  0  0  0  0
   11.4330   -1.8320   24.4600 C   0  0  0  0  0  0  0  0  0  0  0  0
   10.6850   -0.7600   24.0380 C   0  0  0  0  0  0  0  0  0  0  0  0
   10.4000   -0.6700   22.7380 C   0  0  0  0  0  0  0  0  0  0  0  0
   10.4020    0.6750   22.4500 C   0  0  0  0  0  0  0  0  0  0  0  0
   11.3550   -1.4650   22.0940 C   0  0  0  0  0  0  0  0  0  0  0  0
   12.6800   -1.0210   22.2210 C   0  0  0  0  0  0  0  0  0  0  0  0
   12.9750    0.3750   22.8080 C   0  0  0  0  0  0  0  0  0  0  0  0
    9.1360   -1.0880   22.2490 N   0  0  0  0  0  0  0  0  0  0  0  0
    8.3110   -0.2790   21.5250 C   0  0  0  0  0  0  0  0  0  0  0  0
    8.6500    0.8890   21.3780 O   0  0  0  0  0  0  0  0  0  0  0  0
    7.1690   -0.7830   21.0000 N   0  0  0  0  0  0  0  0  0  0  0  0
    6.4150   -0.0730   20.0560 C   0  0  0  0  0  0  0  0  0  0  0  0
    5.2240    0.6170   20.2790 C   0  0  0  0  0  0  0  0  0  0  0  0
    4.6180    1.2840   19.2340 C   0  0  0  0  0  0  0  0  0  0  0  0
    5.1880    1.2650   17.9920 C   0  0  0  0  0  0  0  0  0  0  0  0
    6.3270    0.6160   17.7180 N   0  0  0  0  0  0  0  0  0  0  0  0
    6.9000   -0.0310   18.7540 C   0  0  0  0  0  0  0  0  0  0  0  0
  1  2  2  3
  2  3  1  0
  3  4  1  0
  4  5  1  0
  4  6  1  0
  6  7  1  0
  7  8  2  3
  4  9  1  0
  9 10  1  0
 10 11  2  0
 10 12  1  0
 12 13  1  0
 13 14  2  0
 14 15  1  0
 15 16  2  0
 16 17  1  0
 13 18  1  0
 17 18  2  0
M  END
