pyridine_urea_1559
     RDKit          3D

 19 20  0  0  0  0  0  0  0  0999 V2000
   13.0040   -1.6660   24.9700 C   0  0  0  0  0  0  0  0  0  0  0  0
   13.5860   -2.8140   23.7370 S   0  0  0  0  0  0  0  0  0  0  0  0
   13.0000   -1.9910   22.2290 C   0  0  0  0  0  0  0  0  0  0  0  0
   12.2990   -0.8600   22.5500 C   0  0  0  0  0  0  0  0  0  0  0  0
   12.9400    0.3580   22.8310 N   0  0  0  0  0  0  0  0  0  0  0  0
   11.8540    1.1920   23.0820 O   0  0  0  0  0  0  0  0  0  0  0  0
   10.7400    0.4110   22.9320 C   0  0  0  0  0  0  0  0  0  0  0  0
    9.5160    0.9790   23.1100 C   0  0  0  0  0  0  0  0  0  0  0  0
    8.5070    0.1650   22.7990 N   0  0  0  0  0  0  0  0  0  0  0  0
    8.1790    0.4130   21.5410 C   0  0  0  0  0  0  0  0  0  0  0  0
    8.7120    1.3340   20.9210 O   0  0  0  0  0  0  0  0  0  0  0  0
    7.1980   -0.4000   21.0400 N   0  0  0  0  0  0  0  0  0  0  0  0
    6.4560    0.1580   19.9560 C   0  0  0  0  0  0  0  0  0  0  0  0
    5.1550    0.8950   20.2610 C   0  0  0  0  0  0  0  0  0  0  0  0
    4.5200    1.4420   19.1680 C   0  0  0  0  0  0  0  0  0  0  0  0
    5.0920    1.2870   17.9030 C   0  0  0  0  0  0  0  0  0  0  0  0
    6.2340    0.6200   17.6470 N   0  0  0  0  0  0  0  0  0  0  0  0
    6.8990    0.0660   18.6700 C   0  0  0  0  0  0  0  0  0  0  0  0
   10.9550   -0.8360   22.6160 N   0  0  0  0  0  0  0  0  0  0  0  0
  1  2  1  0
  2  3  1  0
  3  4  1  0
  4  5  2  0
  5  6  1  0
  6  7  1  0
  7  8  1  0
  8  9  1  0
  9 10  1  0
 10 11  2  0
 10 12  1  0
 12 13  1  0
 13 14  2  0
 14 15  1  0
 15 16  2  0
 16 17  1  0
 13 18  1  0
 17 18  2  0
  4 19  1  0
  7 19  2  0
M  END
