pyridine_urea_13625
     RDKit          3D

 26 28  0  0  0  0  0  0  0  0999 V2000
    8.1820    0.8650   20.9670 O   0  0  0  0  0  0  0  0  0  0  0  0
    7.5580    0.0060   21.5850 C   0  0  0  0  0  0  0  0  0  0  0  0
    7.8450   -0.3610   22.8370 N   0  0  0  0  0  0  0  0  0  0  0  0
    9.1570   -0.1810   22.9900 C   0  0  0  0  0  0  0  0  0  0  0  0
    9.8650    0.8680   23.8590 C   0  0  0  0  0  0  0  0  0  0  0  0
   11.3700    0.7880   23.7290 C   0  0  0  0  0  0  0  0  0  0  0  0
   11.9080   -0.2760   22.8090 C   0  0  0  0  0  0  0  0  0  0  0  0
   13.5710   -0.4610   22.6210 S   0  0  0  0  0  0  0  0  0  0  0  0
   13.7250   -1.3850   21.5230 O   0  0  0  0  0  0  0  0  0  0  0  0
   14.0900    0.8660   22.7120 O   0  0  0  0  0  0  0  0  0  0  0  0
   13.5970   -1.1960   24.1130 N   0  0  0  0  0  0  0  0  0  0  0  0
   12.6200   -0.6810   24.8390 C   0  0  0  0  0  0  0  0  0  0  0  0
   11.4840   -1.4230   24.6680 C   0  0  0  0  0  0  0  0  0  0  0  0
   11.9750   -2.6510   24.2010 C   0  0  0  0  0  0  0  0  0  0  0  0
   13.3670   -2.5680   24.2730 C   0  0  2  0  0  0  0  0  0  0  0  0
   13.8150   -2.9880   25.5090 C   0  0  0  0  0  0  0  0  0  0  0  0
   14.9670   -2.7430   25.7550 O   0  0  0  0  0  0  0  0  0  0  0  0
   11.2370   -1.1740   22.0760 C   0  0  0  0  0  0  0  0  0  0  0  0
    9.9150   -1.1780   22.1170 C   0  0  0  0  0  0  0  0  0  0  0  0
    6.5220   -0.6280   21.0170 N   0  0  0  0  0  0  0  0  0  0  0  0
    6.0250    0.0330   19.9870 C   0  0  0  0  0  0  0  0  0  0  0  0
    4.8710    0.7600   19.9800 C   0  0  0  0  0  0  0  0  0  0  0  0
    4.4000    1.4670   18.8960 C   0  0  0  0  0  0  0  0  0  0  0  0
    5.1400    1.4470   17.7250 C   0  0  0  0  0  0  0  0  0  0  0  0
    6.2910    0.7530   17.6080 N   0  0  0  0  0  0  0  0  0  0  0  0
    6.7360    0.0190   18.8050 C   0  0  0  0  0  0  0  0  0  0  0  0
  1  2  2  0
  2  3  1  0
  3  4  1  0
  4  5  2  0
  5  6  1  0
  6  7  2  0
  8  7  1  0
  8  9  2  0
  8 10  2  0
  8 11  1  0
 11 12  1  0
 12 13  1  0
 13 14  1  0
 11 15  1  0
 14 15  1  0
 15 16  1  1
 16 17  1  0
  7 18  1  0
  4 19  1  0
 18 19  2  0
  2 20  1  0
 20 21  1  0
 21 22  2  0
 22 23  1  0
 23 24  2  0
 24 25  1  0
 21 26  1  0
 25 26  2  0
M  END
