pyridine_urea_14191
     RDKit          3D

 22 22  0  0  0  0  0  0  0  0999 V2000
    8.9090    1.0510   21.2420 O   0  0  0  0  0  0  0  0  0  0  0  0
    8.3270   -0.0030   21.5570 C   0  0  0  0  0  0  0  0  0  0  0  0
    8.7060   -0.8600   22.6640 N   0  0  0  0  0  0  0  0  0  0  0  0
   10.0080   -1.3120   22.7590 C   0  0  0  0  0  0  0  0  0  0  0  0
   10.7120   -0.8290   23.8540 C   0  0  0  0  0  0  0  0  0  0  0  0
   12.0740   -0.8400   23.5840 C   0  0  0  0  0  0  0  0  0  0  0  0
   12.7800   -0.9910   24.8180 O   0  0  0  0  0  0  0  0  0  0  0  0
   12.4860   -2.0060   23.0030 C   0  0  0  0  0  0  0  0  0  0  0  0
   11.6460   -2.9870   23.3890 F   0  0  0  0  0  0  0  0  0  0  0  0
   12.4820   -1.9450   21.6460 F   0  0  0  0  0  0  0  0  0  0  0  0
   13.7110   -2.3740   23.4070 F   0  0  0  0  0  0  0  0  0  0  0  0
   12.4250    0.2900   22.8850 C   0  0  0  0  0  0  0  0  0  0  0  0
   13.3170   -0.0290   21.9390 F   0  0  0  0  0  0  0  0  0  0  0  0
   12.9630    1.2560   23.6000 F   0  0  0  0  0  0  0  0  0  0  0  0
   11.3160    0.8350   22.3790 F   0  0  0  0  0  0  0  0  0  0  0  0
    7.2190   -0.5450   20.9450 N   0  0  0  0  0  0  0  0  0  0  0  0
    6.4700    0.1120   19.9840 C   0  0  0  0  0  0  0  0  0  0  0  0
    5.2010    0.9010   20.2030 C   0  0  0  0  0  0  0  0  0  0  0  0
    4.5690    1.5210   19.1560 C   0  0  0  0  0  0  0  0  0  0  0  0
    5.1510    1.3860   17.8970 C   0  0  0  0  0  0  0  0  0  0  0  0
    6.2820    0.6810   17.6610 N   0  0  0  0  0  0  0  0  0  0  0  0
    6.9050    0.0690   18.6860 C   0  0  0  0  0  0  0  0  0  0  0  0
  1  2  2  0
  2  3  1  0
  3  4  1  0
  4  5  1  0
  5  6  1  0
  6  7  1  0
  6  8  1  0
  8  9  1  0
  8 10  1  0
  8 11  1  0
  6 12  1  0
 12 13  1  0
 12 14  1  0
 12 15  1  0
  2 16  1  0
 16 17  1  0
 17 18  2  0
 18 19  1  0
 19 20  2  0
 20 21  1  0
 17 22  1  0
 21 22  2  0
M  END
