pyridine_urea_608
     RDKit          3D

 24 26  0  0  0  0  0  0  0  0999 V2000
    8.4810    1.2460   20.9300 O   0  0  0  0  0  0  0  0  0  0  0  0
    8.2960    0.0310   21.0560 C   0  0  0  0  0  0  0  0  0  0  0  0
    7.0820   -0.5680   20.8450 N   0  0  0  0  0  0  0  0  0  0  0  0
    6.2940    0.0950   19.9290 C   0  0  0  0  0  0  0  0  0  0  0  0
    5.0720    0.7090   20.1440 C   0  0  0  0  0  0  0  0  0  0  0  0
    4.4560    1.3630   19.0800 C   0  0  0  0  0  0  0  0  0  0  0  0
    5.0980    1.3630   17.8550 C   0  0  0  0  0  0  0  0  0  0  0  0
    6.2710    0.7590   17.6370 N   0  0  0  0  0  0  0  0  0  0  0  0
    6.8280    0.1470   18.6720 C   0  0  0  0  0  0  0  0  0  0  0  0
    9.2900   -0.8320   21.3930 N   0  0  0  0  0  0  0  0  0  0  0  0
   10.0170   -0.4810   22.5010 C   0  0  2  0  0  0  0  0  0  0  0  0
   10.2990    0.8830   22.7130 C   0  0  0  0  0  0  0  0  0  0  0  0
   11.6220    1.0440   23.1680 C   0  0  0  0  0  0  0  0  0  0  0  0
   11.5130   -0.2220   23.7630 N   0  0  0  0  0  0  0  0  0  0  0  0
   10.2540   -0.2820   24.5130 C   0  0  0  0  0  0  0  0  0  0  0  0
   10.2190   -0.3250   25.8860 C   0  0  0  0  0  0  0  0  0  0  0  0
    8.9910   -0.3920   26.7100 C   0  0  0  0  0  0  0  0  0  0  0  0
    7.7780   -0.4170   26.0540 C   0  0  0  0  0  0  0  0  0  0  0  0
    6.6240   -0.4830   26.7400 F   0  0  0  0  0  0  0  0  0  0  0  0
    7.7550   -0.3770   24.6680 C   0  0  0  0  0  0  0  0  0  0  0  0
    6.2260   -0.4130   23.8780 Cl  0  0  0  0  0  0  0  0  0  0  0  0
    8.9440   -0.3120   23.9090 C   0  0  0  0  0  0  0  0  0  0  0  0
   11.4020   -0.9970   22.6200 C   0  0  0  0  0  0  0  0  0  0  0  0
   12.0730   -1.7780   21.9450 O   0  0  0  0  0  0  0  0  0  0  0  0
  1  2  2  0
  2  3  1  0
  3  4  1  0
  4  5  2  0
  5  6  1  0
  6  7  2  0
  7  8  1  0
  4  9  1  0
  8  9  2  0
  2 10  1  0
 11 10  1  6
 11 12  1  0
 12 13  1  0
 13 14  1  0
 14 15  1  0
 15 16  2  0
 16 17  1  0
 17 18  2  0
 18 19  1  0
 18 20  1  0
 20 21  1  0
 15 22  1  0
 20 22  2  0
 11 23  1  0
 14 23  1  0
 23 24  2  0
M  END
