pyridine_urea_8911
     RDKit          3D

 20 21  0  0  0  0  0  0  0  0999 V2000
   12.0870   -2.8690   24.2940 C   0  0  0  0  0  0  0  0  0  0  0  0
   11.1440   -2.2950   23.3980 O   0  0  0  0  0  0  0  0  0  0  0  0
   11.3130   -0.9570   23.2540 C   0  0  0  0  0  0  0  0  0  0  0  0
   12.6780   -0.5210   22.9700 C   0  0  0  0  0  0  0  0  0  0  0  0
   13.2710    0.5970   22.7820 C   0  0  0  0  0  0  0  0  0  0  0  0
   12.3660    1.5780   22.8850 C   0  0  0  0  0  0  0  0  0  0  0  0
   12.6830    2.9340   22.7280 C   0  0  0  0  0  0  0  0  0  0  0  0
   11.0110    1.2030   23.1560 C   0  0  0  0  0  0  0  0  0  0  0  0
   10.2240   -0.0100   23.3790 C   0  0  0  0  0  0  0  0  0  0  0  0
    9.6930   -1.2450   23.5570 C   0  0  0  0  0  0  0  0  0  0  0  0
    8.7850   -1.5320   22.4580 N   0  0  0  0  0  0  0  0  0  0  0  0
    8.3290   -0.5020   21.6440 C   0  0  0  0  0  0  0  0  0  0  0  0
    9.0220    0.6650   21.4360 O   0  0  0  0  0  0  0  0  0  0  0  0
    7.0990   -0.8040   21.1030 N   0  0  0  0  0  0  0  0  0  0  0  0
    6.4900   -0.1120   20.0430 C   0  0  0  0  0  0  0  0  0  0  0  0
    5.2360    0.6750   20.2610 C   0  0  0  0  0  0  0  0  0  0  0  0
    4.5770    1.3860   19.2810 C   0  0  0  0  0  0  0  0  0  0  0  0
    5.2130    1.3060   18.0080 C   0  0  0  0  0  0  0  0  0  0  0  0
    6.3450    0.6080   17.7550 N   0  0  0  0  0  0  0  0  0  0  0  0
    6.9530   -0.0810   18.7550 C   0  0  0  0  0  0  0  0  0  0  0  0
  1  2  1  0
  2  3  1  0
  3  4  2  0
  4  5  1  0
  5  6  2  0
  6  7  1  0
  6  8  1  0
  3  9  1  0
  8  9  2  0
  9 10  1  0
 10 11  1  0
 11 12  1  0
 12 13  2  0
 12 14  1  0
 14 15  1  0
 15 16  2  0
 16 17  1  0
 17 18  2  0
 18 19  1  0
 15 20  1  0
 19 20  2  0
M  END
