pyridine_urea_6690
     RDKit          3D

 21 23  0  0  0  0  0  0  0  0999 V2000
    9.1560   -2.5410   22.7560 C   0  0  0  0  0  0  0  0  0  0  0  0
   10.0480   -1.3080   23.0090 C   0  0  0  0  0  0  0  0  0  0  0  0
    9.4150   -0.0470   22.9580 C   0  0  0  0  0  0  0  0  0  0  0  0
    8.0170    0.1570   22.6960 N   0  0  0  0  0  0  0  0  0  0  0  0
    7.8720    0.4670   21.4270 C   0  0  0  0  0  0  0  0  0  0  0  0
    8.5610    1.3570   20.9180 O   0  0  0  0  0  0  0  0  0  0  0  0
    6.9250   -0.3060   20.8680 N   0  0  0  0  0  0  0  0  0  0  0  0
    6.2980    0.2670   19.8200 C   0  0  0  0  0  0  0  0  0  0  0  0
    5.1110    0.9230   20.0420 C   0  0  0  0  0  0  0  0  0  0  0  0
    4.4890    1.5460   18.9760 C   0  0  0  0  0  0  0  0  0  0  0  0
    5.1140    1.4650   17.7350 C   0  0  0  0  0  0  0  0  0  0  0  0
    6.2610    0.8120   17.5250 N   0  0  0  0  0  0  0  0  0  0  0  0
    6.8250    0.2280   18.5750 C   0  0  0  0  0  0  0  0  0  0  0  0
   10.4240    0.9400   23.1960 C   0  0  0  0  0  0  0  0  0  0  0  0
   11.5660    0.2390   23.3970 N   0  0  0  0  0  0  0  0  0  0  0  0
   11.3800   -1.1890   23.2960 N   0  0  0  0  0  0  0  0  0  0  0  0
   12.5900   -0.9760   23.5620 C   0  0  2  0  0  0  0  0  0  0  0  0
   13.4330   -1.7640   22.7830 C   0  0  0  0  0  0  0  0  0  0  0  0
   13.8530   -2.7460   23.8410 C   0  0  0  0  0  0  0  0  0  0  0  0
   12.9520   -3.0780   24.4660 O   0  0  0  0  0  0  0  0  0  0  0  0
   12.6830   -1.7780   24.9060 C   0  0  0  0  0  0  0  0  0  0  0  0
  1  2  1  0
  2  3  2  0
  3  4  1  0
  4  5  1  0
  5  6  2  0
  5  7  1  0
  7  8  1  0
  8  9  2  0
  9 10  1  0
 10 11  2  0
 11 12  1  0
  8 13  1  0
 12 13  2  0
  3 14  1  0
 14 15  2  0
  2 16  1  0
 15 16  1  0
 17 16  1  6
 17 18  1  0
 18 19  1  0
 19 20  1  0
 17 21  1  0
 20 21  1  0
M  END
