pyridine_urea_10251
     RDKit          3D

 23 25  0  0  0  0  0  0  0  0999 V2000
    8.8600    0.8260   21.2990 O   0  0  0  0  0  0  0  0  0  0  0  0
    8.3390   -0.2690   21.4730 C   0  0  0  0  0  0  0  0  0  0  0  0
    8.9520   -1.3210   22.1090 N   0  0  0  0  0  0  0  0  0  0  0  0
   10.0650   -1.1750   22.9470 C   0  0  0  0  0  0  0  0  0  0  0  0
   10.2010   -0.0350   23.7230 C   0  0  0  0  0  0  0  0  0  0  0  0
   11.0040    0.9770   23.1970 C   0  0  0  0  0  0  0  0  0  0  0  0
   10.8800    2.0410   22.8330 C   0  0  0  0  0  0  0  0  0  0  0  0
   12.2050    1.9890   22.6090 C   0  0  0  0  0  0  0  0  0  0  0  0
   12.0320    0.2950   23.2030 C   0  0  0  0  0  0  0  0  0  0  0  0
   12.6630   -0.9670   23.5040 N   0  0  0  0  0  0  0  0  0  0  0  0
   12.6230   -1.4440   24.8430 C   0  0  0  0  0  0  0  0  0  0  0  0
   13.2970   -2.6070   24.8570 C   0  0  0  0  0  0  0  0  0  0  0  0
   13.6910   -2.7470   23.5370 C   0  0  0  0  0  0  0  0  0  0  0  0
   13.3270   -1.7760   22.6490 N   0  0  0  0  0  0  0  0  0  0  0  0
   13.2640    0.4770   22.8860 C   0  0  0  0  0  0  0  0  0  0  0  0
   12.4060    1.4240   22.7540 C   0  0  0  0  0  0  0  0  0  0  0  0
    7.0760   -0.6030   21.0640 N   0  0  0  0  0  0  0  0  0  0  0  0
    6.4200    0.0380   20.0490 C   0  0  0  0  0  0  0  0  0  0  0  0
    5.2690    0.7690   20.3190 C   0  0  0  0  0  0  0  0  0  0  0  0
    4.6350    1.4240   19.2650 C   0  0  0  0  0  0  0  0  0  0  0  0
    5.1560    1.3380   17.9780 C   0  0  0  0  0  0  0  0  0  0  0  0
    6.2620    0.6430   17.6330 N   0  0  0  0  0  0  0  0  0  0  0  0
    6.8900   -0.0230   18.7610 C   0  0  0  0  0  0  0  0  0  0  0  0
  1  2  2  0
  2  3  1  0
  3  4  1  0
  4  5  1  0
  5  6  1  0
  6  7  2  0
  7  8  1  0
  8  9  2  0
  9 10  1  0
 10 11  1  0
 11 12  2  0
 12 13  1  0
 10 14  1  0
 13 14  2  0
  9 15  1  0
  6 16  1  0
 15 16  2  0
  2 17  1  0
 17 18  1  0
 18 19  2  0
 19 20  1  0
 20 21  2  0
 21 22  1  0
 18 23  1  0
 22 23  2  0
M  END
