pyridine_urea_2111
     RDKit          3D

 22 24  0  0  0  0  0  0  0  0999 V2000
    8.8360    1.3060   21.1300 O   0  0  0  0  0  0  0  0  0  0  0  0
    8.4070    0.1970   21.4700 C   0  0  0  0  0  0  0  0  0  0  0  0
    9.0190   -0.6830   22.3190 N   0  0  0  0  0  0  0  0  0  0  0  0
   10.4110   -0.7330   22.5900 C   0  0  0  0  0  0  0  0  0  0  0  0
   11.0140    0.2220   23.6430 C   0  0  0  0  0  0  0  0  0  0  0  0
   12.3230   -0.5120   23.9450 N   0  0  0  0  0  0  0  0  0  0  0  0
   12.2630   -1.4830   23.1600 O   0  0  0  0  0  0  0  0  0  0  0  0
   11.4370   -0.5380   23.3300 C   0  0  0  0  0  0  0  0  0  0  0  0
   12.0930    0.3320   24.4240 C   0  0  0  0  0  0  0  0  0  0  0  0
   13.0100   -0.7280   24.2720 C   0  0  0  0  0  0  0  0  0  0  0  0
   12.4600   -1.9420   23.5320 C   0  0  0  0  0  0  0  0  0  0  0  0
   11.9610   -2.8030   24.4730 F   0  0  0  0  0  0  0  0  0  0  0  0
   13.5190   -2.6290   23.0230 F   0  0  0  0  0  0  0  0  0  0  0  0
   11.4290   -1.9410   22.4100 C   0  0  0  0  0  0  0  0  0  0  0  0
   10.5550   -0.8530   22.5020 C   0  0  0  0  0  0  0  0  0  0  0  0
    7.2070   -0.3100   21.0320 N   0  0  0  0  0  0  0  0  0  0  0  0
    6.5190    0.2150   20.0120 C   0  0  0  0  0  0  0  0  0  0  0  0
    5.3460    0.9320   20.3100 C   0  0  0  0  0  0  0  0  0  0  0  0
    4.5460    1.5520   19.3060 C   0  0  0  0  0  0  0  0  0  0  0  0
    5.1550    1.3140   17.9280 C   0  0  0  0  0  0  0  0  0  0  0  0
    6.2650    0.6190   17.6790 N   0  0  0  0  0  0  0  0  0  0  0  0
    6.9150    0.0890   18.7090 C   0  0  0  0  0  0  0  0  0  0  0  0
  1  2  2  0
  2  3  1  0
  3  4  1  0
  4  5  1  0
  5  6  2  0
  6  7  1  0
  7  8  1  0
  5  9  1  0
  8  9  2  0
  9 10  1  0
 10 11  1  0
 11 12  1  0
 11 13  1  0
 11 14  1  0
  8 15  1  0
 14 15  1  0
  2 16  1  0
 16 17  1  0
 17 18  2  0
 18 19  1  0
 19 20  2  0
 20 21  1  0
 17 22  1  0
 21 22  2  0
M  END
