pyridine_urea_13203
     RDKit          3D

 17 17  0  0  0  0  0  0  0  0999 V2000
   13.3780   -2.6670   24.6490 C   0  0  0  0  0  0  0  0  0  0  0  0
   12.1090   -2.0300   24.1650 C   0  0  0  0  0  0  0  0  0  0  0  0
   11.0190   -2.8150   23.8160 C   0  0  0  0  0  0  0  0  0  0  0  0
   12.4290   -1.2730   22.9970 O   0  0  0  0  0  0  0  0  0  0  0  0
   11.8360   -0.0430   23.0020 C   0  0  0  0  0  0  0  0  0  0  0  0
   10.4690    0.1390   23.1870 C   0  0  2  0  0  0  0  0  0  0  0  0
   10.0480    0.0320   24.6490 C   0  0  0  0  0  0  0  0  0  0  0  0
    9.4810   -0.5050   22.3860 N   0  0  0  0  0  0  0  0  0  0  0  0
    8.6750    0.2350   21.5290 C   0  0  0  0  0  0  0  0  0  0  0  0
    9.0110    1.3620   21.1730 O   0  0  0  0  0  0  0  0  0  0  0  0
    7.4400   -0.4280   21.1380 N   0  0  0  0  0  0  0  0  0  0  0  0
    6.6890    0.0820   20.0970 C   0  0  0  0  0  0  0  0  0  0  0  0
    5.5370    0.8200   20.3670 C   0  0  0  0  0  0  0  0  0  0  0  0
    4.7450    1.3800   19.3840 C   0  0  0  0  0  0  0  0  0  0  0  0
    5.1490    1.1780   18.0740 C   0  0  0  0  0  0  0  0  0  0  0  0
    6.2450    0.4700   17.7530 N   0  0  0  0  0  0  0  0  0  0  0  0
    6.9860   -0.0620   18.7560 C   0  0  0  0  0  0  0  0  0  0  0  0
  1  2  1  0
  2  3  1  0
  2  4  1  0
  4  5  1  0
  5  6  1  0
  6  7  1  1
  6  8  1  0
  8  9  1  0
  9 10  2  0
  9 11  1  0
 11 12  1  0
 12 13  2  0
 13 14  1  0
 14 15  2  0
 15 16  1  0
 12 17  1  0
 16 17  2  0
M  END
