pyridine_urea_5744
     RDKit          3D

 18 20  0  0  0  0  0  0  0  0999 V2000
    8.6650    1.2120   21.0800 O   0  0  0  0  0  0  0  0  0  0  0  0
    8.3580    0.0880   21.5140 C   0  0  0  0  0  0  0  0  0  0  0  0
    7.1610   -0.6070   21.0690 N   0  0  0  0  0  0  0  0  0  0  0  0
    6.4650    0.0320   20.0550 C   0  0  0  0  0  0  0  0  0  0  0  0
    5.2880    0.7380   20.3260 C   0  0  0  0  0  0  0  0  0  0  0  0
    4.6400    1.3770   19.2660 C   0  0  0  0  0  0  0  0  0  0  0  0
    5.1840    1.2900   17.9850 C   0  0  0  0  0  0  0  0  0  0  0  0
    6.3090    0.6090   17.7180 N   0  0  0  0  0  0  0  0  0  0  0  0
    6.9220   -0.0050   18.7560 C   0  0  0  0  0  0  0  0  0  0  0  0
    9.0900   -0.6290   22.4290 N   0  0  0  0  0  0  0  0  0  0  0  0
   10.4470   -0.1490   22.5570 C   0  0  2  0  0  0  0  0  0  0  0  0
   11.5360   -1.1880   22.3620 C   0  0  0  0  0  0  0  0  0  0  0  0
   12.5080   -0.6210   23.1450 C   0  0  1  0  0  0  0  0  0  0  0  0
   12.1530    0.7070   23.2860 C   0  0  0  0  0  0  0  0  0  0  0  0
   10.8570    0.5010   23.7130 C   0  0  2  0  0  0  0  0  0  0  0  0
   10.9760   -0.4970   24.6470 C   0  0  0  0  0  0  0  0  0  0  0  0
   12.1780   -1.1980   24.3680 C   0  0  2  0  0  0  0  0  0  0  0  0
   13.1760   -0.9450   25.1980 F   0  0  0  0  0  0  0  0  0  0  0  0
  1  2  2  0
  2  3  1  0
  3  4  1  0
  4  5  2  0
  5  6  1  0
  6  7  2  0
  7  8  1  0
  4  9  1  0
  8  9  2  0
  2 10  1  0
 11 10  1  1
 11 12  1  0
 13 12  1  6
 13 14  1  0
 11 15  1  0
 14 15  1  0
 15 16  1  1
 13 17  1  0
 16 17  1  0
 17 18  1  1
M  END
