pyridine_urea_10713
     RDKit          3D

 20 22  0  0  0  0  0  0  0  0999 V2000
    8.9250    1.1310   21.1330 O   0  0  0  0  0  0  0  0  0  0  0  0
    8.3810    0.1180   21.5700 C   0  0  0  0  0  0  0  0  0  0  0  0
    8.8300   -0.5460   22.7820 N   0  0  0  0  0  0  0  0  0  0  0  0
   10.1760   -0.8470   22.9730 C   0  0  0  0  0  0  0  0  0  0  0  0
   11.1530    0.1510   22.8680 C   0  0  0  0  0  0  0  0  0  0  0  0
   10.9750    1.5400   22.9300 N   0  0  0  0  0  0  0  0  0  0  0  0
    9.7820    2.4500   22.7550 C   0  0  0  0  0  0  0  0  0  0  0  0
    9.9180    3.5200   23.6630 C   0  0  0  0  0  0  0  0  0  0  0  0
   10.9780    4.1110   23.6730 O   0  0  0  0  0  0  0  0  0  0  0  0
   11.8330    3.7690   22.6410 C   0  0  0  0  0  0  0  0  0  0  0  0
   12.1610    2.2910   22.8530 C   0  0  0  0  0  0  0  0  0  0  0  0
   12.5070   -0.3850   22.5530 C   0  0  0  0  0  0  0  0  0  0  0  0
   12.4370   -0.2320   23.7520 C   0  0  0  0  0  0  0  0  0  0  0  0
    7.2840   -0.5000   21.0260 N   0  0  0  0  0  0  0  0  0  0  0  0
    6.5480    0.0880   19.9970 C   0  0  0  0  0  0  0  0  0  0  0  0
    5.3820    0.7990   20.3180 C   0  0  0  0  0  0  0  0  0  0  0  0
    4.6630    1.4020   19.2970 C   0  0  0  0  0  0  0  0  0  0  0  0
    5.1500    1.2600   18.0220 C   0  0  0  0  0  0  0  0  0  0  0  0
    6.2460    0.5840   17.6780 N   0  0  0  0  0  0  0  0  0  0  0  0
    6.9210    0.0100   18.6850 C   0  0  0  0  0  0  0  0  0  0  0  0
  1  2  2  0
  2  3  1  0
  3  4  1  0
  5  4  1  0
  5  6  1  0
  6  7  1  0
  7  8  1  0
  8  9  1  0
  9 10  1  0
  6 11  1  0
 10 11  1  0
  5 12  1  0
  5 13  1  0
 12 13  1  0
  2 14  1  0
 14 15  1  0
 15 16  2  0
 16 17  1  0
 17 18  2  0
 18 19  1  0
 15 20  1  0
 19 20  2  0
M  END
