pyridine_urea_7425
     RDKit          3D

 18 19  0  0  0  0  0  0  0  0999 V2000
    8.3000    0.4300   21.1190 O   0  0  0  0  0  0  0  0  0  0  0  0
    7.6580   -0.5310   21.5320 C   0  0  0  0  0  0  0  0  0  0  0  0
    6.5060   -0.9330   20.9790 N   0  0  0  0  0  0  0  0  0  0  0  0
    6.0560   -0.1610   19.9190 C   0  0  0  0  0  0  0  0  0  0  0  0
    4.8860    0.5740   20.0720 C   0  0  0  0  0  0  0  0  0  0  0  0
    4.4340    1.3700   19.0230 C   0  0  0  0  0  0  0  0  0  0  0  0
    5.1750    1.3950   17.8620 C   0  0  0  0  0  0  0  0  0  0  0  0
    6.3040    0.6920   17.6900 N   0  0  0  0  0  0  0  0  0  0  0  0
    6.7220   -0.0700   18.7180 C   0  0  0  0  0  0  0  0  0  0  0  0
    8.1020   -1.2540   22.5950 N   0  0  0  0  0  0  0  0  0  0  0  0
    9.4090   -0.7140   22.7190 C   0  0  0  0  0  0  0  0  0  0  0  0
   10.4960   -1.7490   22.7010 C   0  0  0  0  0  0  0  0  0  0  0  0
   11.7490   -1.2450   22.7650 C   0  0  0  0  0  0  0  0  0  0  0  0
   11.8630    0.1220   22.8280 C   0  0  0  0  0  0  0  0  0  0  0  0
   13.5240    0.6190   22.8550 Br  0  0  0  0  0  0  0  0  0  0  0  0
   10.8840    1.0730   22.8510 C   0  0  0  0  0  0  0  0  0  0  0  0
   11.1760    2.9690   22.9060 Br  0  0  0  0  0  0  0  0  0  0  0  0
    9.6210    0.6400   22.8060 C   0  0  0  0  0  0  0  0  0  0  0  0
  1  2  2  0
  2  3  1  0
  3  4  1  0
  4  5  2  0
  5  6  1  0
  6  7  2  0
  7  8  1  0
  4  9  1  0
  8  9  2  0
  2 10  1  0
 10 11  1  0
 11 12  2  0
 12 13  1  0
 13 14  2  0
 14 15  1  0
 14 16  1  0
 16 17  1  0
 11 18  1  0
 16 18  2  0
M  END
