pyridine_urea_14951
     RDKit          3D

 19 20  0  0  0  0  0  0  0  0999 V2000
   12.8900   -2.6660   21.1240 C   0  0  0  0  0  0  0  0  0  0  0  0
   12.8840   -1.2860   21.3400 O   0  0  0  0  0  0  0  0  0  0  0  0
   12.0520   -0.9600   22.4420 C   0  0  0  0  0  0  0  0  0  0  0  0
   12.7730   -0.7220   23.7290 C   0  0  0  0  0  0  0  0  0  0  0  0
   12.0280   -0.3870   24.9850 C   0  0  0  0  0  0  0  0  0  0  0  0
   10.4890   -0.2640   25.0180 C   0  0  0  0  0  0  0  0  0  0  0  0
    9.3670    0.1240   26.5140 Br  0  0  0  0  0  0  0  0  0  0  0  0
    9.7130   -0.4740   23.7690 C   0  0  0  0  0  0  0  0  0  0  0  0
   10.4870   -0.8150   22.5280 C   0  0  0  0  0  0  0  0  0  0  0  0
    9.5790   -0.9970   21.4100 N   0  0  0  0  0  0  0  0  0  0  0  0
    8.5980   -0.0400   21.2160 C   0  0  0  0  0  0  0  0  0  0  0  0
    8.8920    1.3120   21.2080 O   0  0  0  0  0  0  0  0  0  0  0  0
    7.3470   -0.5580   20.9900 N   0  0  0  0  0  0  0  0  0  0  0  0
    6.5170    0.0700   20.0580 C   0  0  0  0  0  0  0  0  0  0  0  0
    5.3380    0.7430   20.3330 C   0  0  0  0  0  0  0  0  0  0  0  0
    4.6260    1.3450   19.2990 C   0  0  0  0  0  0  0  0  0  0  0  0
    5.1290    1.2470   18.0090 C   0  0  0  0  0  0  0  0  0  0  0  0
    6.2590    0.5930   17.7160 N   0  0  0  0  0  0  0  0  0  0  0  0
    6.9160    0.0270   18.7390 C   0  0  0  0  0  0  0  0  0  0  0  0
  1  2  1  0
  2  3  1  0
  3  4  2  0
  4  5  1  0
  5  6  2  0
  6  7  1  0
  6  8  1  0
  3  9  1  0
  8  9  2  0
  9 10  1  0
 10 11  1  0
 11 12  2  0
 11 13  1  0
 13 14  1  0
 14 15  2  0
 15 16  1  0
 16 17  2  0
 17 18  1  0
 14 19  1  0
 18 19  2  0
M  END
