pyridine_urea_13861
     RDKit          3D

 24 26  0  0  0  0  0  0  0  0999 V2000
   11.0380   -1.9840   22.3720 C   0  0  0  0  0  0  0  0  0  0  0  0
   10.1000   -1.2470   22.4230 C   0  0  1  0  0  0  0  0  0  0  0  0
    9.1730   -1.4770   21.3780 N   0  0  0  0  0  0  0  0  0  0  0  0
    8.3370   -0.3230   21.2310 C   0  0  0  0  0  0  0  0  0  0  0  0
    8.8590    0.9990   21.3530 O   0  0  0  0  0  0  0  0  0  0  0  0
    6.9910   -0.6640   20.9290 N   0  0  0  0  0  0  0  0  0  0  0  0
    6.4110   -0.0140   19.9270 C   0  0  0  0  0  0  0  0  0  0  0  0
    5.2670    0.6660   20.2240 C   0  0  0  0  0  0  0  0  0  0  0  0
    4.5120    1.4830   19.1740 C   0  0  0  0  0  0  0  0  0  0  0  0
    5.0950    1.4940   17.8190 C   0  0  0  0  0  0  0  0  0  0  0  0
    6.2510    0.7530   17.6500 N   0  0  0  0  0  0  0  0  0  0  0  0
    6.9020    0.0180   18.6460 C   0  0  0  0  0  0  0  0  0  0  0  0
    9.0550   -1.3800   23.5730 C   0  0  0  0  0  0  0  0  0  0  0  0
    8.6500   -0.3180   24.2880 N   0  0  0  0  0  0  0  0  0  0  0  0
    7.7190   -0.5800   25.2370 N   0  0  0  0  0  0  0  0  0  0  0  0
    7.4520   -1.9690   25.1650 C   0  0  0  0  0  0  0  0  0  0  0  0
    6.5290   -2.5290   26.0480 C   0  0  0  0  0  0  0  0  0  0  0  0
    6.4810   -1.9980   27.3540 C   0  0  0  0  0  0  0  0  0  0  0  0
    5.6110   -2.3620   28.5860 C   0  0  0  0  0  0  0  0  0  0  0  0
    4.7900   -3.4910   27.9880 C   0  0  0  0  0  0  0  0  0  0  0  0
    4.8210   -4.0650   26.6150 C   0  0  0  0  0  0  0  0  0  0  0  0
    3.9900   -5.0810   26.2880 F   0  0  0  0  0  0  0  0  0  0  0  0
    5.6850   -3.5680   25.6970 C   0  0  0  0  0  0  0  0  0  0  0  0
    8.3260   -2.8670   23.9730 S   0  0  0  0  0  0  0  0  0  0  0  0
  2  1  1  1
  2  3  1  0
  3  4  1  0
  4  5  2  0
  4  6  1  0
  6  7  1  0
  7  8  2  0
  8  9  1  0
  9 10  2  0
 10 11  1  0
  7 12  1  0
 11 12  2  0
  2 13  1  0
 13 14  2  0
 14 15  1  0
 15 16  2  0
 16 17  1  0
 17 18  2  0
 18 19  1  0
 19 20  2  0
 20 21  1  0
 21 22  1  0
 17 23  1  0
 21 23  2  0
 13 24  1  0
 16 24  1  0
M  END
