pyridine_urea_2043
     RDKit          3D

 23 25  0  0  0  0  0  0  0  0999 V2000
    8.7590    1.0770   21.1820 O   0  0  0  0  0  0  0  0  0  0  0  0
    8.1940    0.0350   21.5640 C   0  0  0  0  0  0  0  0  0  0  0  0
    7.1350   -0.5780   20.9630 N   0  0  0  0  0  0  0  0  0  0  0  0
    6.3690    0.0890   20.0260 C   0  0  0  0  0  0  0  0  0  0  0  0
    5.0440    0.7990   20.3330 C   0  0  0  0  0  0  0  0  0  0  0  0
    4.4220    1.4790   19.1220 C   0  0  0  0  0  0  0  0  0  0  0  0
    5.1530    1.3760   17.8220 C   0  0  0  0  0  0  0  0  0  0  0  0
    6.3110    0.7120   17.6750 N   0  0  0  0  0  0  0  0  0  0  0  0
    6.8630    0.1090   18.7390 C   0  0  0  0  0  0  0  0  0  0  0  0
    8.5810   -0.6470   22.6890 N   0  0  0  0  0  0  0  0  0  0  0  0
    9.9560   -0.5430   23.0260 C   0  0  2  0  0  0  0  0  0  0  0  0
   10.5920   -1.7550   22.7410 C   0  0  0  0  0  0  0  0  0  0  0  0
   11.8100   -1.3730   22.3430 C   0  0  0  0  0  0  0  0  0  0  0  0
   12.5910   -1.9950   21.4250 N   0  0  0  0  0  0  0  0  0  0  0  0
   13.6400   -1.2730   21.3510 N   0  0  0  0  0  0  0  0  0  0  0  0
   13.4810   -0.2200   22.2370 C   0  0  0  0  0  0  0  0  0  0  0  0
   12.3460   -0.0860   22.9990 C   0  0  0  0  0  0  0  0  0  0  0  0
   11.7470    0.7110   23.9540 C   0  0  1  0  0  0  0  0  0  0  0  0
   11.3820    2.0280   23.2360 C   0  0  0  0  0  0  0  0  0  0  0  0
   10.3920    2.0370   22.3450 F   0  0  0  0  0  0  0  0  0  0  0  0
   12.4670    2.5590   22.6270 F   0  0  0  0  0  0  0  0  0  0  0  0
   10.9700    2.9360   24.1340 F   0  0  0  0  0  0  0  0  0  0  0  0
   10.4110    0.0070   24.2480 C   0  0  0  0  0  0  0  0  0  0  0  0
  1  2  2  0
  2  3  1  0
  3  4  1  0
  4  5  2  0
  5  6  1  0
  6  7  2  0
  7  8  1  0
  4  9  1  0
  8  9  2  0
  2 10  1  0
 11 10  1  1
 11 12  1  0
 12 13  1  0
 13 14  2  0
 14 15  1  0
 15 16  1  0
 13 17  1  0
 16 17  2  0
 17 18  1  0
 18 19  1  6
 19 20  1  0
 19 21  1  0
 19 22  1  0
 11 23  1  0
 18 23  1  0
M  END
