pyridine_urea_3332
     RDKit          3D

 20 21  0  0  0  0  0  0  0  0999 V2000
   10.3300   -2.4050   21.7180 C   0  0  0  0  0  0  0  0  0  0  0  0
   11.2390   -2.3700   22.8020 O   0  0  0  0  0  0  0  0  0  0  0  0
   12.0190   -1.2700   22.7980 C   0  0  0  0  0  0  0  0  0  0  0  0
   12.1860   -0.0260   22.9570 C   0  0  0  0  0  0  0  0  0  0  0  0
   13.2030    0.9360   22.8650 C   0  0  0  0  0  0  0  0  0  0  0  0
   12.5680    1.8920   23.1690 C   0  0  0  0  0  0  0  0  0  0  0  0
   12.1290    0.3900   23.0460 C   0  0  0  0  0  0  0  0  0  0  0  0
   10.7910    0.1660   23.3350 C   0  0  0  0  0  0  0  0  0  0  0  0
   10.0640   -0.9400   22.5920 C   0  0  0  0  0  0  0  0  0  0  0  0
    8.6280   -0.5590   22.5460 N   0  0  0  0  0  0  0  0  0  0  0  0
    8.1760    0.2010   21.5230 C   0  0  0  0  0  0  0  0  0  0  0  0
    8.7470    1.2410   21.1640 O   0  0  0  0  0  0  0  0  0  0  0  0
    7.0470   -0.3640   21.0150 N   0  0  0  0  0  0  0  0  0  0  0  0
    6.4010    0.2110   19.9470 C   0  0  0  0  0  0  0  0  0  0  0  0
    5.2320    0.9310   20.1870 C   0  0  0  0  0  0  0  0  0  0  0  0
    4.5910    1.5350   19.1100 C   0  0  0  0  0  0  0  0  0  0  0  0
    5.1400    1.3960   17.8490 C   0  0  0  0  0  0  0  0  0  0  0  0
    6.2540    0.6970   17.6080 N   0  0  0  0  0  0  0  0  0  0  0  0
    6.8630    0.1210   18.6590 C   0  0  0  0  0  0  0  0  0  0  0  0
   13.2030   -0.9410   22.5710 C   0  0  0  0  0  0  0  0  0  0  0  0
  1  2  1  0
  2  3  1  0
  3  4  2  0
  4  5  1  0
  5  6  2  0
  6  7  1  0
  7  8  1  0
  8  9  1  0
  9 10  1  0
 10 11  1  0
 11 12  2  0
 11 13  1  0
 13 14  1  0
 14 15  2  0
 15 16  1  0
 16 17  2  0
 17 18  1  0
 14 19  1  0
 18 19  2  0
  3 20  1  0
  7 20  2  0
M  END
