pyridine_urea_10728
     RDKit          3D

 20 21  0  0  0  0  0  0  0  0999 V2000
   12.9390   -1.3330   25.1510 N   0  0  0  0  0  0  0  0  0  0  0  0
   11.8680   -2.0200   24.6940 C   0  0  0  0  0  0  0  0  0  0  0  0
   11.9460   -3.4210   24.5320 O   0  0  0  0  0  0  0  0  0  0  0  0
   10.6250   -1.2340   24.4110 C   0  0  0  0  0  0  0  0  0  0  0  0
   10.4130   -0.7750   23.1100 C   0  0  0  0  0  0  0  0  0  0  0  0
    9.1450   -0.9470   22.5670 N   0  0  0  0  0  0  0  0  0  0  0  0
    8.4300   -0.0920   21.5530 C   0  0  0  0  0  0  0  0  0  0  0  0
    8.7980    1.2490   21.1150 O   0  0  0  0  0  0  0  0  0  0  0  0
    7.3340   -0.6390   21.0420 N   0  0  0  0  0  0  0  0  0  0  0  0
    6.6670   -0.0320   20.0980 C   0  0  0  0  0  0  0  0  0  0  0  0
    5.4140    0.7780   20.4180 C   0  0  0  0  0  0  0  0  0  0  0  0
    4.6210    1.5070   19.3230 C   0  0  0  0  0  0  0  0  0  0  0  0
    5.2250    1.3260   17.9500 C   0  0  0  0  0  0  0  0  0  0  0  0
    6.3350    0.5860   17.7740 N   0  0  0  0  0  0  0  0  0  0  0  0
    7.0430   -0.0790   18.7670 C   0  0  0  0  0  0  0  0  0  0  0  0
   11.5240   -1.3490   22.4160 C   0  0  0  0  0  0  0  0  0  0  0  0
   12.8410   -0.8350   22.4810 C   0  0  0  0  0  0  0  0  0  0  0  0
   12.8170    0.3380   22.7680 O   0  0  0  0  0  0  0  0  0  0  0  0
   11.7810    0.8450   23.6110 C   0  0  0  0  0  0  0  0  0  0  0  0
   10.5900    0.6010   22.9600 C   0  0  0  0  0  0  0  0  0  0  0  0
  1  2  1  0
  2  3  2  0
  2  4  1  0
  4  5  1  0
  5  6  1  0
  6  7  1  0
  7  8  2  0
  7  9  1  0
  9 10  1  0
 10 11  2  0
 11 12  1  0
 12 13  2  0
 13 14  1  0
 10 15  1  0
 14 15  2  0
  5 16  1  0
 16 17  1  0
 17 18  1  0
 18 19  1  0
  5 20  1  0
 19 20  1  0
M  END
