pyridine_urea_1579
     RDKit          3D

 19 20  0  0  0  0  0  0  0  0999 V2000
    9.0200    0.7310   21.4070 O   0  0  0  0  0  0  0  0  0  0  0  0
    8.5500   -0.4000   21.3010 C   0  0  0  0  0  0  0  0  0  0  0  0
    7.2360   -0.6780   21.0160 N   0  0  0  0  0  0  0  0  0  0  0  0
    6.5230   -0.0160   20.0120 C   0  0  0  0  0  0  0  0  0  0  0  0
    5.3560    0.6950   20.3240 C   0  0  0  0  0  0  0  0  0  0  0  0
    4.6620    1.3670   19.3150 C   0  0  0  0  0  0  0  0  0  0  0  0
    5.1620    1.3010   18.0290 C   0  0  0  0  0  0  0  0  0  0  0  0
    6.2700    0.6190   17.7080 N   0  0  0  0  0  0  0  0  0  0  0  0
    6.9200   -0.0180   18.6980 C   0  0  0  0  0  0  0  0  0  0  0  0
    9.3390   -1.5210   21.4380 N   0  0  0  0  0  0  0  0  0  0  0  0
   10.4520   -1.4510   22.3620 C   0  0  0  0  0  0  0  0  0  0  0  0
   11.8930   -1.4440   21.8540 C   0  0  0  0  0  0  0  0  0  0  0  0
   12.9040   -1.3270   22.7680 C   0  0  0  0  0  0  0  0  0  0  0  0
   12.5750   -1.2480   24.1080 C   0  0  0  0  0  0  0  0  0  0  0  0
   11.2420   -1.2960   24.5430 C   0  0  0  0  0  0  0  0  0  0  0  0
   10.1820   -1.3940   23.6780 C   0  0  0  0  0  0  0  0  0  0  0  0
    8.8700   -1.4500   24.1260 C   0  0  0  0  0  0  0  0  0  0  0  0
    8.2990   -2.7560   23.6250 C   0  0  0  0  0  0  0  0  0  0  0  0
    7.0960   -3.0700   24.3230 O   0  0  0  0  0  0  0  0  0  0  0  0
  1  2  2  0
  2  3  1  0
  3  4  1  0
  4  5  2  0
  5  6  1  0
  6  7  2  0
  7  8  1  0
  4  9  1  0
  8  9  2  0
  2 10  1  0
 10 11  1  0
 11 12  2  0
 12 13  1  0
 13 14  2  0
 14 15  1  0
 11 16  1  0
 15 16  2  0
 16 17  1  0
 17 18  1  0
 18 19  1  0
M  END
