pyridine_urea_11418
     RDKit          3D

 36 39  0  0  0  0  0  0  0  0999 V2000
    8.7140    0.9010   21.2950 O   0  0  0  0  0  0  0  0  0  0  0  0
    8.2790   -0.1530   21.7450 C   0  0  0  0  0  0  0  0  0  0  0  0
    7.1820   -0.7820   21.1830 N   0  0  0  0  0  0  0  0  0  0  0  0
    6.5290   -0.0980   20.0730 C   0  0  0  0  0  0  0  0  0  0  0  0
    5.2400    0.6550   20.3980 C   0  0  0  0  0  0  0  0  0  0  0  0
    4.6090    1.3550   19.2380 C   0  0  0  0  0  0  0  0  0  0  0  0
    5.2240    1.2710   18.0010 C   0  0  0  0  0  0  0  0  0  0  0  0
    6.3590    0.5890   17.7640 N   0  0  0  0  0  0  0  0  0  0  0  0
    6.9770   -0.0690   18.7720 C   0  0  0  0  0  0  0  0  0  0  0  0
    8.8270   -0.8010   22.8530 N   0  0  0  0  0  0  0  0  0  0  0  0
   10.0990   -0.2510   23.4100 C   0  0  2  0  0  0  0  0  0  0  0  0
    9.8450    0.8310   24.1750 C   0  0  0  0  0  0  0  0  0  0  0  0
    9.8110    0.0740   25.4780 C   0  0  0  0  0  0  0  0  0  0  0  0
   10.7020   -0.7390   25.6120 O   0  0  0  0  0  0  0  0  0  0  0  0
    8.8060    0.3870   26.3520 N   0  0  0  0  0  0  0  0  0  0  0  0
    7.9600    1.3800   25.9800 C   0  0  0  0  0  0  0  0  0  0  0  0
    6.8880    1.6540   26.8400 C   0  0  0  0  0  0  0  0  0  0  0  0
    7.3700    1.8790   28.0730 N   0  0  0  0  0  0  0  0  0  0  0  0
    8.4020    1.1310   28.4990 C   0  0  0  0  0  0  0  0  0  0  0  0
    8.6870    1.5450   29.7520 N   0  0  0  0  0  0  0  0  0  0  0  0
    7.8070    2.5680   30.0800 N   0  0  0  0  0  0  0  0  0  0  0  0
    6.9850    2.7670   29.0150 C   0  0  0  0  0  0  0  0  0  0  0  0
    5.8530    3.7310   28.8000 C   0  0  0  0  0  0  0  0  0  0  0  0
    5.5600    4.5940   29.7820 F   0  0  0  0  0  0  0  0  0  0  0  0
    6.0810    4.5070   27.7120 F   0  0  0  0  0  0  0  0  0  0  0  0
    4.7170    3.0450   28.5490 F   0  0  0  0  0  0  0  0  0  0  0  0
    9.0130    0.1460   27.7590 C   0  0  0  0  0  0  0  0  0  0  0  0
   10.8020    0.2900   22.1680 C   0  0  0  0  0  0  0  0  0  0  0  0
   11.6430   -0.5380   22.8340 C   0  0  0  0  0  0  0  0  0  0  0  0
   12.0900   -1.7230   22.2960 C   0  0  0  0  0  0  0  0  0  0  0  0
   12.9200   -2.5550   22.9940 C   0  0  0  0  0  0  0  0  0  0  0  0
   13.2720   -2.1610   24.2630 C   0  0  0  0  0  0  0  0  0  0  0  0
   14.0500   -2.9720   24.9820 F   0  0  0  0  0  0  0  0  0  0  0  0
   12.8440   -0.9880   24.7790 C   0  0  0  0  0  0  0  0  0  0  0  0
   13.2150   -0.6680   25.9660 F   0  0  0  0  0  0  0  0  0  0  0  0
   12.0250   -0.1300   24.0820 C   0  0  0  0  0  0  0  0  0  0  0  0
  1  2  2  0
  2  3  1  0
  3  4  1  0
  4  5  2  0
  5  6  1  0
  6  7  2  0
  7  8  1  0
  4  9  1  0
  8  9  2  0
  2 10  1  0
 10 11  1  0
 11 12  1  1
 12 13  1  0
 13 14  2  0
 13 15  1  0
 15 16  1  0
 16 17  1  0
 17 18  1  0
 18 19  1  0
 19 20  2  0
 20 21  1  0
 18 22  1  0
 21 22  2  0
 22 23  1  0
 23 24  1  0
 23 25  1  0
 23 26  1  0
 15 27  1  0
 19 27  1  0
 11 28  1  0
 28 29  1  0
 29 30  2  0
 30 31  1  0
 31 32  2  0
 32 33  1  0
 32 34  1  0
 34 35  1  0
 29 36  1  0
 34 36  2  0
M  END
