pyridine_urea_7733
     RDKit          3D

 20 22  0  0  0  0  0  0  0  0999 V2000
    8.4660    0.8140   21.1000 O   0  0  0  0  0  0  0  0  0  0  0  0
    7.8610   -0.1660   21.5090 C   0  0  0  0  0  0  0  0  0  0  0  0
    6.7800   -0.7080   20.9200 N   0  0  0  0  0  0  0  0  0  0  0  0
    6.2180   -0.0090   19.8770 C   0  0  0  0  0  0  0  0  0  0  0  0
    5.0070    0.6470   20.0710 C   0  0  0  0  0  0  0  0  0  0  0  0
    4.4560    1.3730   19.0210 C   0  0  0  0  0  0  0  0  0  0  0  0
    5.1440    1.4090   17.8250 C   0  0  0  0  0  0  0  0  0  0  0  0
    6.3100    0.7750   17.6280 N   0  0  0  0  0  0  0  0  0  0  0  0
    6.8180    0.0820   18.6520 C   0  0  0  0  0  0  0  0  0  0  0  0
    8.2130   -0.8130   22.6350 N   0  0  0  0  0  0  0  0  0  0  0  0
    9.4980   -0.4120   23.1450 C   0  0  2  0  0  0  0  0  0  0  0  0
   10.1200    0.5910   22.5440 C   0  0  0  0  0  0  0  0  0  0  0  0
   10.5100   -0.8280   22.2220 C   0  0  1  0  0  0  0  0  0  0  0  0
   11.3330   -1.4020   23.0670 C   0  0  0  0  0  0  0  0  0  0  0  0
   11.2840   -2.6110   23.6190 C   0  0  0  0  0  0  0  0  0  0  0  0
   12.3280   -2.7990   24.4980 C   0  0  0  0  0  0  0  0  0  0  0  0
   13.3010   -1.7850   24.7310 C   0  0  0  0  0  0  0  0  0  0  0  0
   13.3880   -0.4600   24.1450 C   0  0  0  0  0  0  0  0  0  0  0  0
   13.1040    0.6340   23.3930 F   0  0  0  0  0  0  0  0  0  0  0  0
   12.3360   -0.7240   23.4870 C   0  0  0  0  0  0  0  0  0  0  0  0
  1  2  2  0
  2  3  1  0
  3  4  1  0
  4  5  2  0
  5  6  1  0
  6  7  2  0
  7  8  1  0
  4  9  1  0
  8  9  2  0
  2 10  1  0
 11 10  1  6
 11 12  1  0
 11 13  1  0
 12 13  1  0
 13 14  1  1
 14 15  2  0
 15 16  1  0
 16 17  2  0
 17 18  1  0
 18 19  1  0
 14 20  1  0
 18 20  2  0
M  END
