pyridine_urea_7211
     RDKit          3D

 19 21  0  0  0  0  0  0  0  0999 V2000
    8.8240    0.7550   21.3440 O   0  0  0  0  0  0  0  0  0  0  0  0
    8.3950   -0.3950   21.3500 C   0  0  0  0  0  0  0  0  0  0  0  0
    7.1060   -0.7370   20.9880 N   0  0  0  0  0  0  0  0  0  0  0  0
    6.3710   -0.0170   20.0380 C   0  0  0  0  0  0  0  0  0  0  0  0
    5.1790    0.6740   20.2490 C   0  0  0  0  0  0  0  0  0  0  0  0
    4.5770    1.3580   19.1900 C   0  0  0  0  0  0  0  0  0  0  0  0
    5.1920    1.3270   17.9530 C   0  0  0  0  0  0  0  0  0  0  0  0
    6.3350    0.6640   17.7260 N   0  0  0  0  0  0  0  0  0  0  0  0
    6.8880    0.0160   18.7600 C   0  0  0  0  0  0  0  0  0  0  0  0
    9.1450   -1.4940   21.7140 N   0  0  0  0  0  0  0  0  0  0  0  0
   10.4040   -1.3460   22.2930 C   0  0  0  0  0  0  0  0  0  0  0  0
   11.6270   -1.5790   21.6190 C   0  0  0  0  0  0  0  0  0  0  0  0
   12.9100   -1.4170   22.1480 C   0  0  0  0  0  0  0  0  0  0  0  0
   13.0510   -1.0210   23.4300 C   0  0  0  0  0  0  0  0  0  0  0  0
   11.9080   -0.8230   24.0900 C   0  0  0  0  0  0  0  0  0  0  0  0
   11.7250   -0.4490   25.4090 C   0  0  0  0  0  0  0  0  0  0  0  0
   10.3690   -0.3690   25.6270 C   0  0  0  0  0  0  0  0  0  0  0  0
    9.6850   -0.6680   24.5500 N   0  0  0  0  0  0  0  0  0  0  0  0
   10.6560   -0.9700   23.5560 C   0  0  0  0  0  0  0  0  0  0  0  0
  1  2  2  0
  2  3  1  0
  3  4  1  0
  4  5  2  0
  5  6  1  0
  6  7  2  0
  7  8  1  0
  4  9  1  0
  8  9  2  0
  2 10  1  0
 10 11  1  0
 11 12  2  0
 12 13  1  0
 13 14  2  0
 14 15  1  0
 15 16  1  0
 16 17  2  0
 17 18  1  0
 11 19  1  0
 15 19  2  0
 18 19  1  0
M  END
