pyridine_urea_6610
     RDKit          3D

 22 24  0  0  0  0  0  0  0  0999 V2000
    8.8960    1.1180   21.1790 O   0  0  0  0  0  0  0  0  0  0  0  0
    8.3790    0.0260   21.4650 C   0  0  0  0  0  0  0  0  0  0  0  0
    8.9220   -0.9420   22.2590 N   0  0  0  0  0  0  0  0  0  0  0  0
    9.8430   -0.7440   23.2840 C   0  0  0  0  0  0  0  0  0  0  0  0
   11.3080   -1.1140   23.0860 C   0  0  0  0  0  0  0  0  0  0  0  0
   12.3430   -0.0150   22.9440 C   0  0  0  0  0  0  0  0  0  0  0  0
   13.6140   -0.2250   22.8000 C   0  0  0  0  0  0  0  0  0  0  0  0
   12.9960    1.0840   22.8490 C   0  0  0  0  0  0  0  0  0  0  0  0
   11.6110    0.4370   23.0200 C   0  0  0  0  0  0  0  0  0  0  0  0
   11.1980    1.8150   23.0190 C   0  0  0  0  0  0  0  0  0  0  0  0
   11.6950    3.6360   22.8990 Br  0  0  0  0  0  0  0  0  0  0  0  0
   12.3500    1.3920   22.9110 C   0  0  0  0  0  0  0  0  0  0  0  0
   11.7190   -2.4680   22.4270 C   0  0  0  0  0  0  0  0  0  0  0  0
   12.2100   -2.7700   23.7010 C   0  0  0  0  0  0  0  0  0  0  0  0
   12.0780   -1.5950   24.4230 C   0  0  0  0  0  0  0  0  0  0  0  0
    7.1530   -0.4140   21.0380 N   0  0  0  0  0  0  0  0  0  0  0  0
    6.4830    0.1600   20.0030 C   0  0  0  0  0  0  0  0  0  0  0  0
    5.3270    0.8780   20.2570 C   0  0  0  0  0  0  0  0  0  0  0  0
    4.6370    1.4880   19.2150 C   0  0  0  0  0  0  0  0  0  0  0  0
    5.1460    1.3500   17.9390 C   0  0  0  0  0  0  0  0  0  0  0  0
    6.2560    0.6520   17.6650 N   0  0  0  0  0  0  0  0  0  0  0  0
    6.8990    0.0730   18.6980 C   0  0  0  0  0  0  0  0  0  0  0  0
  1  2  2  0
  2  3  1  0
  3  4  1  0
  5  4  1  0
  5  6  1  0
  6  7  2  0
  7  8  1  0
  8  9  2  0
  9 10  1  0
 10 11  1  0
  6 12  1  0
 10 12  2  0
  5 13  1  0
 13 14  1  0
  5 15  1  0
 14 15  1  0
  2 16  1  0
 16 17  1  0
 17 18  2  0
 18 19  1  0
 19 20  2  0
 20 21  1  0
 17 22  1  0
 21 22  2  0
M  END
