pyridine_urea_6980
     RDKit          3D

 20 21  0  0  0  0  0  0  0  0999 V2000
   11.8910    2.9840   22.7970 C   0  0  0  0  0  0  0  0  0  0  0  0
   12.7480    1.7300   22.7280 C   0  0  0  0  0  0  0  0  0  0  0  0
   12.1940    0.4870   22.9700 C   0  0  0  0  0  0  0  0  0  0  0  0
   10.8810    0.2640   23.3750 C   0  0  0  0  0  0  0  0  0  0  0  0
   10.4220   -1.0710   23.6330 C   0  0  0  0  0  0  0  0  0  0  0  0
   11.2480   -2.2550   23.4760 C   0  0  0  0  0  0  0  0  0  0  0  0
   12.6930   -2.0280   23.0030 C   0  0  0  0  0  0  0  0  0  0  0  0
   12.8170   -0.7020   22.8660 C   0  0  0  0  0  0  0  0  0  0  0  0
   11.4970   -0.9860   23.2770 C   0  0  0  0  0  0  0  0  0  0  0  0
   10.6500   -1.3920   22.2130 C   0  0  0  0  0  0  0  0  0  0  0  0
    9.2440   -0.9910   22.4340 N   0  0  0  0  0  0  0  0  0  0  0  0
    8.5870    0.0070   21.5740 C   0  0  0  0  0  0  0  0  0  0  0  0
    9.0940    1.0950   21.2630 O   0  0  0  0  0  0  0  0  0  0  0  0
    7.3110   -0.4430   21.1690 N   0  0  0  0  0  0  0  0  0  0  0  0
    6.6420    0.0930   19.9920 C   0  0  0  0  0  0  0  0  0  0  0  0
    5.5020    0.8420   20.3580 C   0  0  0  0  0  0  0  0  0  0  0  0
    4.7320    1.4590   19.3540 C   0  0  0  0  0  0  0  0  0  0  0  0
    5.1240    1.3080   18.0280 C   0  0  0  0  0  0  0  0  0  0  0  0
    6.2230    0.5730   17.7030 N   0  0  0  0  0  0  0  0  0  0  0  0
    6.9860   -0.0400   18.6810 C   0  0  0  0  0  0  0  0  0  0  0  0
  1  2  3  0
  2  3  1  0
  3  4  2  0
  4  5  1  0
  5  6  2  0
  6  7  1  0
  3  8  1  0
  7  8  2  0
  8  9  1  0
  9 10  1  0
 10 11  1  0
 11 12  1  0
 12 13  2  0
 12 14  1  0
 14 15  1  0
 15 16  2  0
 16 17  1  0
 17 18  2  0
 18 19  1  0
 15 20  1  0
 19 20  2  0
M  END
