pyridine_urea_5327
     RDKit          3D

 19 20  0  0  0  0  0  0  0  0999 V2000
   13.6290   -2.6290   25.1490 C   0  0  0  0  0  0  0  0  0  0  0  0
   12.7080   -1.5740   24.6430 C   0  0  0  0  0  0  0  0  0  0  0  0
   12.4050   -0.4780   25.3590 C   0  0  0  0  0  0  0  0  0  0  0  0
   13.2560   -0.9760   23.3530 C   0  0  0  0  0  0  0  0  0  0  0  0
   12.4280   -1.3470   22.4880 N   0  0  0  0  0  0  0  0  0  0  0  0
   11.3070   -1.4840   21.8030 C   0  0  0  0  0  0  0  0  0  0  0  0
   10.1300   -0.7840   22.1700 C   0  0  0  0  0  0  0  0  0  0  0  0
    8.9550   -0.8780   21.5240 N   0  0  0  0  0  0  0  0  0  0  0  0
    8.1500    0.1990   21.2420 C   0  0  0  0  0  0  0  0  0  0  0  0
    8.5930    1.3440   21.1020 O   0  0  0  0  0  0  0  0  0  0  0  0
    6.8850   -0.2170   21.1360 N   0  0  0  0  0  0  0  0  0  0  0  0
    6.2530    0.3160   20.0900 C   0  0  0  0  0  0  0  0  0  0  0  0
    5.0620    1.0240   20.1850 C   0  0  0  0  0  0  0  0  0  0  0  0
    4.5100    1.5540   19.0410 C   0  0  0  0  0  0  0  0  0  0  0  0
    5.1690    1.3590   17.8370 C   0  0  0  0  0  0  0  0  0  0  0  0
    6.3140    0.6720   17.7180 N   0  0  0  0  0  0  0  0  0  0  0  0
    6.8310    0.1620   18.8430 C   0  0  0  0  0  0  0  0  0  0  0  0
   10.5370   -0.0390   23.2920 C   0  0  0  0  0  0  0  0  0  0  0  0
   11.8510   -0.3820   23.4460 N   0  0  0  0  0  0  0  0  0  0  0  0
  1  2  1  0
  2  3  1  0
  2  4  1  0
  4  5  1  0
  5  6  1  0
  6  7  2  0
  7  8  1  0
  8  9  1  0
  9 10  2  0
  9 11  1  0
 11 12  1  0
 12 13  2  0
 13 14  1  0
 14 15  2  0
 15 16  1  0
 12 17  1  0
 16 17  2  0
  7 18  1  0
  5 19  1  0
 18 19  2  0
M  END
