pyridine_urea_12207
     RDKit          3D

 22 23  0  0  0  0  0  0  0  0999 V2000
   12.9750   -0.9250   22.4250 C   0  0  0  0  0  0  0  0  0  0  0  0
   11.5790   -1.2030   23.0310 C   0  0  0  0  0  0  0  0  0  0  0  0
   11.4050   -2.5890   22.9890 C   0  0  0  0  0  0  0  0  0  0  0  0
   10.5690   -0.4660   22.1150 C   0  0  0  0  0  0  0  0  0  0  0  0
    9.1510   -0.3370   22.4850 N   0  0  0  0  0  0  0  0  0  0  0  0
    8.3680    0.2240   21.5170 C   0  0  0  0  0  0  0  0  0  0  0  0
    8.6740    1.3480   21.0900 O   0  0  0  0  0  0  0  0  0  0  0  0
    7.3070   -0.5030   21.0860 N   0  0  0  0  0  0  0  0  0  0  0  0
    6.5330    0.1100   20.1500 C   0  0  0  0  0  0  0  0  0  0  0  0
    5.3580    0.8190   20.4030 C   0  0  0  0  0  0  0  0  0  0  0  0
    4.6390    1.4530   19.2150 C   0  0  0  0  0  0  0  0  0  0  0  0
    5.1970    1.2860   17.9460 C   0  0  0  0  0  0  0  0  0  0  0  0
    6.3240    0.5910   17.7370 N   0  0  0  0  0  0  0  0  0  0  0  0
    6.9250    0.0450   18.8180 C   0  0  0  0  0  0  0  0  0  0  0  0
   11.3900   -0.7410   24.2560 C   0  0  0  0  0  0  0  0  0  0  0  0
   12.5160   -0.4350   23.6950 C   0  0  0  0  0  0  0  0  0  0  0  0
   12.5200   -1.0070   22.4190 C   0  0  0  0  0  0  0  0  0  0  0  0
   11.5250   -1.8330   21.6780 C   0  0  0  0  0  0  0  0  0  0  0  0
   10.4090   -1.9390   22.6660 C   0  0  0  0  0  0  0  0  0  0  0  0
    8.9750   -2.8100   22.2670 Cl  0  0  0  0  0  0  0  0  0  0  0  0
   10.3220   -1.4140   23.9340 C   0  0  0  0  0  0  0  0  0  0  0  0
    9.1910   -1.6490   24.6420 F   0  0  0  0  0  0  0  0  0  0  0  0
  2  1  1  0
  2  3  1  0
  2  4  1  0
  4  5  1  0
  5  6  1  0
  6  7  2  0
  6  8  1  0
  8  9  1  0
  9 10  2  0
 10 11  1  0
 11 12  2  0
 12 13  1  0
  9 14  1  0
 13 14  2  0
  2 15  1  0
 15 16  2  0
 16 17  1  0
 17 18  2  0
 18 19  1  0
 19 20  1  0
 15 21  1  0
 19 21  2  0
 21 22  1  0
M  END
