pyridine_urea_6803
     RDKit          3D

 21 22  0  0  0  0  0  0  0  0999 V2000
   10.1360   -2.4020   21.7980 C   0  0  0  0  0  0  0  0  0  0  0  0
   10.5300   -1.1770   22.5940 C   0  0  0  0  0  0  0  0  0  0  0  0
    9.4490   -0.3580   23.1480 C   0  0  0  0  0  0  0  0  0  0  0  0
    8.1160   -0.8530   22.7990 N   0  0  0  0  0  0  0  0  0  0  0  0
    7.8100   -0.2680   21.6100 C   0  0  0  0  0  0  0  0  0  0  0  0
    8.5090    0.6400   21.1760 O   0  0  0  0  0  0  0  0  0  0  0  0
    6.7070   -0.7640   21.0100 N   0  0  0  0  0  0  0  0  0  0  0  0
    6.1930   -0.0530   19.9380 C   0  0  0  0  0  0  0  0  0  0  0  0
    5.0150    0.6470   20.1110 C   0  0  0  0  0  0  0  0  0  0  0  0
    4.4920    1.3830   19.0550 C   0  0  0  0  0  0  0  0  0  0  0  0
    5.1920    1.3830   17.8490 C   0  0  0  0  0  0  0  0  0  0  0  0
    6.3340    0.7010   17.6710 N   0  0  0  0  0  0  0  0  0  0  0  0
    6.8090   -0.0000   18.7120 C   0  0  0  0  0  0  0  0  0  0  0  0
    9.5200    0.9290   23.9900 C   0  0  0  0  0  0  0  0  0  0  0  0
   10.8600    1.2610   24.1700 C   0  0  0  0  0  0  0  0  0  0  0  0
   12.0230    0.6050   23.7160 C   0  0  0  0  0  0  0  0  0  0  0  0
   11.8500   -0.6740   22.8870 C   0  0  0  0  0  0  0  0  0  0  0  0
   13.3220   -1.3290   22.3850 S   0  0  0  0  0  0  0  0  0  0  0  0
   13.6090    0.3810   22.6810 C   0  0  0  0  0  0  0  0  0  0  0  0
   13.3250   -1.6510   20.9740 O   0  0  0  0  0  0  0  0  0  0  0  0
   13.7370   -2.1880   23.4680 O   0  0  0  0  0  0  0  0  0  0  0  0
  1  2  1  0
  2  3  2  0
  3  4  1  0
  4  5  1  0
  5  6  2  0
  5  7  1  0
  7  8  1  0
  8  9  2  0
  9 10  1  0
 10 11  2  0
 11 12  1  0
  8 13  1  0
 12 13  2  0
  3 14  1  0
 14 15  2  0
 15 16  1  0
  2 17  1  0
 16 17  2  0
 17 18  1  0
 18 19  1  0
 18 20  2  0
 18 21  2  0
M  END
