pyridine_urea_565
     RDKit          3D

 24 25  0  0  0  0  0  0  0  0999 V2000
   13.5220    4.9880   22.1890 C   0  0  0  0  0  0  0  0  0  0  0  0
   12.5490    3.8950   22.5770 C   0  0  0  0  0  0  0  0  0  0  0  0
   13.1000    2.6020   22.8800 O   0  0  0  0  0  0  0  0  0  0  0  0
   12.1980    1.5830   22.8690 C   0  0  0  0  0  0  0  0  0  0  0  0
   12.4090    0.2190   22.5920 C   0  0  0  0  0  0  0  0  0  0  0  0
   11.4930   -0.8800   22.5590 C   0  0  0  0  0  0  0  0  0  0  0  0
   10.3110   -1.6430   22.6350 C   0  0  0  0  0  0  0  0  0  0  0  0
    9.4440   -1.4030   21.4560 N   0  0  0  0  0  0  0  0  0  0  0  0
    8.5120   -0.3790   21.3110 C   0  0  0  0  0  0  0  0  0  0  0  0
    8.8700    0.9450   21.2750 O   0  0  0  0  0  0  0  0  0  0  0  0
    7.1240   -0.8770   21.1590 N   0  0  0  0  0  0  0  0  0  0  0  0
    6.4790   -0.1530   20.0710 C   0  0  0  0  0  0  0  0  0  0  0  0
    5.3260    0.5940   20.3690 C   0  0  0  0  0  0  0  0  0  0  0  0
    4.6720    1.3180   19.3660 C   0  0  0  0  0  0  0  0  0  0  0  0
    5.1710    1.2900   18.0660 C   0  0  0  0  0  0  0  0  0  0  0  0
    6.2570    0.5960   17.7050 N   0  0  0  0  0  0  0  0  0  0  0  0
    6.9250   -0.1500   18.7690 C   0  0  0  0  0  0  0  0  0  0  0  0
   10.2570   -0.2640   22.8810 C   0  0  0  0  0  0  0  0  0  0  0  0
    9.9170    1.0360   23.1690 C   0  0  0  0  0  0  0  0  0  0  0  0
    8.2760    1.4500   23.5180 Cl  0  0  0  0  0  0  0  0  0  0  0  0
   10.8110    2.0260   23.1980 C   0  0  0  0  0  0  0  0  0  0  0  0
   10.4300    3.3100   23.5470 O   0  0  0  0  0  0  0  0  0  0  0  0
   10.1940    4.1940   22.4820 C   0  0  0  0  0  0  0  0  0  0  0  0
   10.4430    5.5370   22.7870 C   0  0  0  0  0  0  0  0  0  0  0  0
  1  2  1  0
  2  3  1  0
  3  4  1  0
  4  5  2  0
  5  6  1  0
  6  7  1  0
  7  8  1  0
  8  9  1  0
  9 10  2  0
  9 11  1  0
 11 12  1  0
 12 13  2  0
 13 14  1  0
 14 15  2  0
 15 16  1  0
 12 17  1  0
 16 17  2  0
  6 18  2  0
 18 19  1  0
 19 20  1  0
  4 21  1  0
 19 21  2  0
 21 22  1  0
 22 23  1  0
 23 24  1  0
M  END
