pyridine_urea_11362
     RDKit          3D

 17 18  0  0  0  0  0  0  0  0999 V2000
   10.0560   -0.2300   25.9670 N   0  0  0  0  0  0  0  0  0  0  0  0
   10.9320   -0.2980   25.2030 C   0  0  0  0  0  0  0  0  0  0  0  0
   11.7690   -0.3710   24.3750 C   0  0  0  0  0  0  0  0  0  0  0  0
   12.2420   -0.5900   22.9870 C   0  0  1  0  0  0  0  0  0  0  0  0
   11.5760   -1.6140   22.2630 C   0  0  0  0  0  0  0  0  0  0  0  0
   10.4120   -0.8930   21.9900 C   0  0  1  0  0  0  0  0  0  0  0  0
    9.1380   -1.0860   22.3470 N   0  0  0  0  0  0  0  0  0  0  0  0
    8.3650   -0.1840   21.6780 C   0  0  0  0  0  0  0  0  0  0  0  0
    8.7300    0.9770   21.5480 O   0  0  0  0  0  0  0  0  0  0  0  0
    7.1940   -0.6850   21.1560 N   0  0  0  0  0  0  0  0  0  0  0  0
    6.4590   -0.0050   20.0630 C   0  0  0  0  0  0  0  0  0  0  0  0
    5.3230    0.6320   20.4720 C   0  0  0  0  0  0  0  0  0  0  0  0
    4.6810    1.3040   19.2670 C   0  0  0  0  0  0  0  0  0  0  0  0
    5.2080    1.2440   17.9950 C   0  0  0  0  0  0  0  0  0  0  0  0
    6.3180    0.5820   17.7230 N   0  0  0  0  0  0  0  0  0  0  0  0
    6.9070   -0.0200   18.7550 C   0  0  0  0  0  0  0  0  0  0  0  0
   11.0560    0.3610   22.8030 C   0  0  0  0  0  0  0  0  0  0  0  0
  1  2  3  0
  2  3  1  0
  4  3  1  1
  4  5  1  0
  5  6  1  0
  6  7  1  1
  7  8  1  0
  8  9  2  0
  8 10  1  0
 10 11  1  0
 11 12  2  0
 12 13  1  0
 13 14  2  0
 14 15  1  0
 11 16  1  0
 15 16  2  0
  4 17  1  0
  6 17  1  0
M  END
