pyridine_urea_12471
     RDKit          3D

 21 23  0  0  0  0  0  0  0  0999 V2000
    8.5960    1.2820   21.0120 O   0  0  0  0  0  0  0  0  0  0  0  0
    8.1820    0.2640   21.5810 C   0  0  0  0  0  0  0  0  0  0  0  0
    7.1720   -0.5270   21.0830 N   0  0  0  0  0  0  0  0  0  0  0  0
    6.4500    0.1070   20.0190 C   0  0  0  0  0  0  0  0  0  0  0  0
    5.1250    0.8730   20.3260 C   0  0  0  0  0  0  0  0  0  0  0  0
    4.4940    1.4830   19.2520 C   0  0  0  0  0  0  0  0  0  0  0  0
    5.1680    1.3380   17.8850 C   0  0  0  0  0  0  0  0  0  0  0  0
    6.3100    0.6550   17.6800 N   0  0  0  0  0  0  0  0  0  0  0  0
    6.9130    0.0640   18.7280 C   0  0  0  0  0  0  0  0  0  0  0  0
    8.6590   -0.1980   22.7670 N   0  0  0  0  0  0  0  0  0  0  0  0
   10.0060    0.2600   23.0010 C   0  0  1  0  0  0  0  0  0  0  0  0
   10.5330    0.0690   24.3780 C   0  0  0  0  0  0  0  0  0  0  0  0
   11.8640    0.8190   24.3500 C   0  0  0  0  0  0  0  0  0  0  0  0
   12.8000    0.6400   23.2020 C   0  0  0  0  0  0  0  0  0  0  0  0
   12.2730   -0.4960   22.4870 C   0  0  0  0  0  0  0  0  0  0  0  0
   13.2490   -1.4280   21.8890 C   0  0  0  0  0  0  0  0  0  0  0  0
   12.7430   -2.4690   21.2080 C   0  0  0  0  0  0  0  0  0  0  0  0
   13.5960   -3.3430   20.6260 F   0  0  0  0  0  0  0  0  0  0  0  0
   11.3890   -2.5520   21.1550 C   0  0  0  0  0  0  0  0  0  0  0  0
   10.5020   -1.7190   21.7100 C   0  0  0  0  0  0  0  0  0  0  0  0
   10.9450   -0.6870   22.3760 C   0  0  0  0  0  0  0  0  0  0  0  0
  1  2  2  0
  2  3  1  0
  3  4  1  0
  4  5  2  0
  5  6  1  0
  6  7  2  0
  7  8  1  0
  4  9  1  0
  8  9  2  0
  2 10  1  0
 11 10  1  1
 11 12  1  0
 12 13  1  0
 13 14  1  0
 14 15  1  0
 15 16  2  0
 16 17  1  0
 17 18  1  0
 17 19  2  0
 19 20  1  0
 11 21  1  0
 15 21  1  0
 20 21  2  0
M  END
