pyridine_urea_4614
     RDKit          3D

 22 23  0  0  0  0  0  0  0  0999 V2000
   13.7930    0.9560   22.8360 N   0  0  0  0  0  0  0  0  0  0  0  0
   12.7820    0.5520   23.1140 C   0  0  0  0  0  0  0  0  0  0  0  0
   11.3530    0.5110   23.8540 C   0  0  0  0  0  0  0  0  0  0  0  0
   10.0460   -0.4600   23.8990 C   0  0  0  0  0  0  0  0  0  0  0  0
    9.1080   -1.4480   23.7330 C   0  0  0  0  0  0  0  0  0  0  0  0
    8.0940   -0.7760   23.0970 N   0  0  0  0  0  0  0  0  0  0  0  0
    8.0610   -0.2680   21.7840 C   0  0  0  0  0  0  0  0  0  0  0  0
    8.8440    0.5360   21.3070 O   0  0  0  0  0  0  0  0  0  0  0  0
    6.9880   -0.7960   21.1110 N   0  0  0  0  0  0  0  0  0  0  0  0
    6.4420   -0.0800   19.9870 C   0  0  0  0  0  0  0  0  0  0  0  0
    5.2720    0.6400   20.2530 C   0  0  0  0  0  0  0  0  0  0  0  0
    4.6420    1.3960   19.2330 C   0  0  0  0  0  0  0  0  0  0  0  0
    5.1880    1.4260   17.9580 C   0  0  0  0  0  0  0  0  0  0  0  0
    6.3780    0.6850   17.6880 N   0  0  0  0  0  0  0  0  0  0  0  0
    6.9430   -0.0340   18.7200 C   0  0  0  0  0  0  0  0  0  0  0  0
   10.5270   -1.5400   22.9230 C   0  0  0  0  0  0  0  0  0  0  0  0
   11.8050   -1.3990   22.3370 C   0  0  0  0  0  0  0  0  0  0  0  0
   11.7030   -0.3070   23.1670 C   0  0  0  0  0  0  0  0  0  0  0  0
   11.7510    0.9270   22.6360 F   0  0  0  0  0  0  0  0  0  0  0  0
   10.6050   -0.2650   23.9310 F   0  0  0  0  0  0  0  0  0  0  0  0
   12.7020   -0.3610   24.1030 F   0  0  0  0  0  0  0  0  0  0  0  0
   12.9160   -0.5480   22.3190 C   0  0  0  0  0  0  0  0  0  0  0  0
  1  2  1  0
  2  3  2  0
  3  4  1  0
  4  5  1  0
  5  6  1  0
  6  7  1  0
  7  8  2  0
  7  9  1  0
  9 10  1  0
 10 11  2  0
 11 12  1  0
 12 13  2  0
 13 14  1  0
 10 15  1  0
 14 15  2  0
  4 16  2  0
 16 17  1  0
 17 18  1  0
 18 19  1  0
 18 20  1  0
 18 21  1  0
  2 22  1  0
 17 22  2  0
M  END
