pyridine_urea_13721
     RDKit          3D

 25 28  0  0  0  0  0  0  0  0999 V2000
    8.4190    0.5560   21.1280 O   0  0  0  0  0  0  0  0  0  0  0  0
    7.4650   -0.2090   21.2580 C   0  0  0  0  0  0  0  0  0  0  0  0
    6.1850    0.0150   21.1110 N   0  0  0  0  0  0  0  0  0  0  0  0
    5.7450    0.6090   19.9970 C   0  0  0  0  0  0  0  0  0  0  0  0
    4.5100    1.4700   20.0200 C   0  0  0  0  0  0  0  0  0  0  0  0
    4.2080    2.0610   18.6810 C   0  0  0  0  0  0  0  0  0  0  0  0
    5.1300    1.7240   17.5610 C   0  0  0  0  0  0  0  0  0  0  0  0
    6.2090    0.9240   17.6390 N   0  0  0  0  0  0  0  0  0  0  0  0
    6.4840    0.3990   18.8360 C   0  0  0  0  0  0  0  0  0  0  0  0
    7.5320   -1.4820   21.5890 N   0  0  0  0  0  0  0  0  0  0  0  0
    8.6090   -1.6870   22.3460 C   0  0  1  0  0  0  0  0  0  0  0  0
    9.5920   -1.7110   21.4340 C   0  0  0  0  0  0  0  0  0  0  0  0
   10.7240   -1.1770   21.8510 C   0  0  0  0  0  0  0  0  0  0  0  0
   10.8450   -1.5530   23.0900 C   0  0  0  0  0  0  0  0  0  0  0  0
    9.7210   -1.3060   24.0440 C   0  0  2  0  0  0  0  0  0  0  0  0
    9.1400   -2.3260   24.8710 C   0  0  0  0  0  0  0  0  0  0  0  0
    9.2020   -3.6640   24.7430 N   0  0  0  0  0  0  0  0  0  0  0  0
    8.5230   -4.1460   25.7980 C   0  0  0  0  0  0  0  0  0  0  0  0
    8.2610   -5.4240   26.2200 C   0  0  0  0  0  0  0  0  0  0  0  0
    7.5130   -5.6830   27.3900 C   0  0  0  0  0  0  0  0  0  0  0  0
    6.9880   -4.6590   28.1990 C   0  0  0  0  0  0  0  0  0  0  0  0
    7.2090   -3.3460   27.8390 C   0  0  0  0  0  0  0  0  0  0  0  0
    8.0220   -3.1130   26.5750 C   0  0  0  0  0  0  0  0  0  0  0  0
    8.4170   -1.9720   25.9740 N   0  0  0  0  0  0  0  0  0  0  0  0
    8.8000   -0.7690   23.3040 C   0  0  0  0  0  0  0  0  0  0  0  0
  1  2  2  0
  2  3  1  0
  3  4  1  0
  4  5  2  0
  5  6  1  0
  6  7  2  0
  7  8  1  0
  4  9  1  0
  8  9  2  0
  2 10  1  0
 11 10  1  6
 11 12  1  0
 12 13  1  0
 13 14  1  0
 14 15  1  0
 15 16  1  6
 16 17  2  0
 17 18  1  0
 18 19  2  0
 19 20  1  0
 20 21  2  0
 21 22  1  0
 18 23  1  0
 22 23  2  0
 16 24  1  0
 23 24  1  0
 11 25  1  0
 15 25  1  0
M  END
