pyridine_urea_2330
     RDKit          3D

 25 27  0  0  0  0  0  0  0  0999 V2000
    8.5170    0.7050   21.3680 O   0  0  0  0  0  0  0  0  0  0  0  0
    8.1700   -0.4150   21.7100 C   0  0  0  0  0  0  0  0  0  0  0  0
    8.8710   -1.1710   22.6420 N   0  0  0  0  0  0  0  0  0  0  0  0
   10.1500   -0.6570   22.7000 C   0  0  0  0  0  0  0  0  0  0  0  0
   10.1900    0.6550   23.1440 C   0  0  0  0  0  0  0  0  0  0  0  0
   11.3570    1.3570   23.1600 C   0  0  0  0  0  0  0  0  0  0  0  0
   12.4970    0.7540   22.7270 C   0  0  0  0  0  0  0  0  0  0  0  0
   13.6120    1.4860   22.6410 C   0  0  0  0  0  0  0  0  0  0  0  0
   14.6210    1.0160   22.2030 O   0  0  0  0  0  0  0  0  0  0  0  0
   13.4240    2.8580   23.0750 N   0  0  0  0  0  0  0  0  0  0  0  0
   12.6990    3.8490   22.4770 C   0  0  0  0  0  0  0  0  0  0  0  0
   11.4280    4.3380   23.1940 C   0  0  0  0  0  0  0  0  0  0  0  0
   11.6830    5.3790   24.1120 C   0  0  0  0  0  0  0  0  0  0  0  0
   12.3010    6.4700   23.4200 O   0  0  0  0  0  0  0  0  0  0  0  0
   12.8680    6.0760   22.1830 C   0  0  0  0  0  0  0  0  0  0  0  0
   13.5620    4.8990   22.2470 C   0  0  0  0  0  0  0  0  0  0  0  0
   12.4940   -0.7050   22.3030 C   0  0  0  0  0  0  0  0  0  0  0  0
   11.2820   -1.3740   22.3010 C   0  0  0  0  0  0  0  0  0  0  0  0
    7.0530   -0.9480   21.1300 N   0  0  0  0  0  0  0  0  0  0  0  0
    6.3660   -0.2100   20.1320 C   0  0  0  0  0  0  0  0  0  0  0  0
    5.1500    0.4580   20.3090 C   0  0  0  0  0  0  0  0  0  0  0  0
    4.5880    1.1640   19.2430 C   0  0  0  0  0  0  0  0  0  0  0  0
    5.2530    1.1870   18.0270 C   0  0  0  0  0  0  0  0  0  0  0  0
    6.4170    0.5530   17.8250 N   0  0  0  0  0  0  0  0  0  0  0  0
    6.9440   -0.1260   18.8730 C   0  0  0  0  0  0  0  0  0  0  0  0
  1  2  2  0
  2  3  1  0
  3  4  1  0
  4  5  2  0
  5  6  1  0
  6  7  2  0
  7  8  1  0
  8  9  2  0
  8 10  1  0
 10 11  1  0
 11 12  1  0
 12 13  1  0
 13 14  1  0
 14 15  1  0
 11 16  1  0
 15 16  1  0
  7 17  1  0
  4 18  1  0
 17 18  2  0
  2 19  1  0
 19 20  1  0
 20 21  2  0
 21 22  1  0
 22 23  2  0
 23 24  1  0
 20 25  1  0
 24 25  2  0
M  END
