pyridine_urea_894
     RDKit          3D

 22 23  0  0  0  0  0  0  0  0999 V2000
    8.6710    0.7350   21.2740 O   0  0  0  0  0  0  0  0  0  0  0  0
    7.9400   -0.1460   21.7160 C   0  0  0  0  0  0  0  0  0  0  0  0
    8.0520   -0.7290   23.0460 N   0  0  0  0  0  0  0  0  0  0  0  0
    8.5870   -2.0020   23.2250 C   0  0  0  0  0  0  0  0  0  0  0  0
    9.7750   -2.0350   23.9070 C   0  0  0  0  0  0  0  0  0  0  0  0
    9.5830   -1.0950   22.8640 C   0  0  0  0  0  0  0  0  0  0  0  0
   10.3740   -0.1220   22.3420 C   0  0  0  0  0  0  0  0  0  0  0  0
   11.6500    0.0950   22.8430 C   0  0  0  0  0  0  0  0  0  0  0  0
   12.3100    0.8990   22.4230 O   0  0  0  0  0  0  0  0  0  0  0  0
   13.4670    0.2770   22.7080 C   0  0  0  0  0  0  0  0  0  0  0  0
   13.6360   -0.7080   21.7890 F   0  0  0  0  0  0  0  0  0  0  0  0
   14.3280    1.2220   22.5960 F   0  0  0  0  0  0  0  0  0  0  0  0
   12.0920   -0.7450   23.8990 C   0  0  0  0  0  0  0  0  0  0  0  0
   13.3080   -0.6520   24.4570 F   0  0  0  0  0  0  0  0  0  0  0  0
   11.2620   -1.6790   24.3670 C   0  0  0  0  0  0  0  0  0  0  0  0
    6.8870   -0.6930   21.0230 N   0  0  0  0  0  0  0  0  0  0  0  0
    6.3100   -0.0140   19.9610 C   0  0  0  0  0  0  0  0  0  0  0  0
    5.1160    0.6720   20.1580 C   0  0  0  0  0  0  0  0  0  0  0  0
    4.5640    1.3570   19.1020 C   0  0  0  0  0  0  0  0  0  0  0  0
    5.1800    1.3650   17.8750 C   0  0  0  0  0  0  0  0  0  0  0  0
    6.3320    0.7020   17.6690 N   0  0  0  0  0  0  0  0  0  0  0  0
    6.8650    0.0310   18.7060 C   0  0  0  0  0  0  0  0  0  0  0  0
  1  2  2  0
  2  3  1  0
  3  4  1  0
  4  5  1  0
  5  6  2  0
  6  7  1  0
  7  8  2  0
  8  9  1  0
  9 10  1  0
 10 11  1  0
 10 12  1  0
  8 13  1  0
 13 14  1  0
  5 15  1  0
 13 15  2  0
  2 16  1  0
 16 17  1  0
 17 18  2  0
 18 19  1  0
 19 20  2  0
 20 21  1  0
 17 22  1  0
 21 22  2  0
M  END
