pyridine_urea_2461
     RDKit          3D

 24 25  0  0  0  0  0  0  0  0999 V2000
    8.8810    0.8000   21.2620 O   0  0  0  0  0  0  0  0  0  0  0  0
    8.4000   -0.3190   21.3190 C   0  0  0  0  0  0  0  0  0  0  0  0
    7.1000   -0.6210   21.0320 N   0  0  0  0  0  0  0  0  0  0  0  0
    6.4240    0.0250   19.9980 C   0  0  0  0  0  0  0  0  0  0  0  0
    5.2510    0.7360   20.2700 C   0  0  0  0  0  0  0  0  0  0  0  0
    4.5930    1.3950   19.2320 C   0  0  0  0  0  0  0  0  0  0  0  0
    5.1380    1.3140   17.9670 C   0  0  0  0  0  0  0  0  0  0  0  0
    6.2550    0.6300   17.6880 N   0  0  0  0  0  0  0  0  0  0  0  0
    6.8720    0.0030   18.7010 C   0  0  0  0  0  0  0  0  0  0  0  0
    9.1230   -1.4200   21.6840 N   0  0  0  0  0  0  0  0  0  0  0  0
   10.1110   -1.2810   22.7590 C   0  0  1  0  0  0  0  0  0  0  0  0
   11.5440   -1.6270   22.1940 C   0  0  0  0  0  0  0  0  0  0  0  0
   11.8460   -2.2450   21.1370 C   0  0  0  0  0  0  0  0  0  0  0  0
   12.6150   -1.6860   22.1310 C   0  0  0  0  0  0  0  0  0  0  0  0
   11.2110   -1.2850   22.7820 C   0  0  0  0  0  0  0  0  0  0  0  0
   12.0910   -0.8310   23.6350 C   0  0  0  0  0  0  0  0  0  0  0  0
   12.2000   -0.2090   24.7700 C   0  0  0  0  0  0  0  0  0  0  0  0
   13.1710   -0.7110   25.5300 F   0  0  0  0  0  0  0  0  0  0  0  0
   11.0690   -0.3420   25.4920 F   0  0  0  0  0  0  0  0  0  0  0  0
   12.3850    1.0670   24.4030 F   0  0  0  0  0  0  0  0  0  0  0  0
   12.8130   -1.2620   22.8720 C   0  0  0  0  0  0  0  0  0  0  0  0
    9.9330    0.0650   23.5860 C   0  0  0  0  0  0  0  0  0  0  0  0
    9.7310   -0.2390   24.8950 F   0  0  0  0  0  0  0  0  0  0  0  0
    8.7960    0.7230   23.2720 F   0  0  0  0  0  0  0  0  0  0  0  0
  1  2  2  0
  2  3  1  0
  3  4  1  0
  4  5  2  0
  5  6  1  0
  6  7  2  0
  7  8  1  0
  4  9  1  0
  8  9  2  0
  2 10  1  0
 11 10  1  6
 11 12  1  0
 12 13  2  0
 13 14  1  0
 14 15  2  0
 15 16  1  0
 16 17  1  0
 17 18  1  0
 17 19  1  0
 17 20  1  0
 12 21  1  0
 16 21  2  0
 11 22  1  0
 22 23  1  0
 22 24  1  0
M  END
