pyridine_urea_7832
     RDKit          3D

 26 28  0  0  0  0  0  0  0  0999 V2000
   12.6240    4.3560   21.8800 O   0  0  0  0  0  0  0  0  0  0  0  0
   12.1470    3.4580   22.5550 C   0  0  0  0  0  0  0  0  0  0  0  0
   11.0020    3.5800   23.3050 N   0  0  0  0  0  0  0  0  0  0  0  0
   10.8010    4.4630   24.3830 C   0  0  0  0  0  0  0  0  0  0  0  0
    9.7050    4.2910   25.2240 C   0  0  0  0  0  0  0  0  0  0  0  0
    9.5070    5.1610   26.3000 C   0  0  0  0  0  0  0  0  0  0  0  0
   10.4120    6.1980   26.5200 C   0  0  0  0  0  0  0  0  0  0  0  0
   11.5150    6.3840   25.6810 C   0  0  0  0  0  0  0  0  0  0  0  0
   11.7050    5.5140   24.6140 C   0  0  0  0  0  0  0  0  0  0  0  0
   12.6990    2.1880   22.6740 N   0  0  0  0  0  0  0  0  0  0  0  0
   12.1000    0.9800   22.9580 C   0  0  0  0  0  0  0  0  0  0  0  0
   12.8290   -0.0030   23.5820 C   0  0  0  0  0  0  0  0  0  0  0  0
   12.2500   -1.2010   23.9070 C   0  0  0  0  0  0  0  0  0  0  0  0
   10.9250   -1.4450   23.5970 C   0  0  0  0  0  0  0  0  0  0  0  0
   10.1710   -0.4890   22.9550 C   0  0  0  0  0  0  0  0  0  0  0  0
    8.8840   -0.6920   22.6290 N   0  0  0  0  0  0  0  0  0  0  0  0
    8.3600    0.0200   21.6000 C   0  0  0  0  0  0  0  0  0  0  0  0
    8.9250    1.2150   21.2000 O   0  0  0  0  0  0  0  0  0  0  0  0
    7.2420   -0.4700   21.0000 N   0  0  0  0  0  0  0  0  0  0  0  0
    6.5410    0.1100   19.9960 C   0  0  0  0  0  0  0  0  0  0  0  0
    5.3820    0.8250   20.2930 C   0  0  0  0  0  0  0  0  0  0  0  0
    4.6710    1.4410   19.2700 C   0  0  0  0  0  0  0  0  0  0  0  0
    5.1450    1.3200   17.9770 C   0  0  0  0  0  0  0  0  0  0  0  0
    6.2510    0.6280   17.6710 N   0  0  0  0  0  0  0  0  0  0  0  0
    6.9210    0.0410   18.6810 C   0  0  0  0  0  0  0  0  0  0  0  0
   10.7670    0.7290   22.6400 C   0  0  0  0  0  0  0  0  0  0  0  0
  1  2  2  0
  2  3  1  0
  3  4  1  0
  4  5  2  0
  5  6  1  0
  6  7  2  0
  7  8  1  0
  4  9  1  0
  8  9  2  0
  2 10  1  0
 10 11  1  0
 11 12  2  0
 12 13  1  0
 13 14  2  0
 14 15  1  0
 15 16  1  0
 16 17  1  0
 17 18  2  0
 17 19  1  0
 19 20  1  0
 20 21  2  0
 21 22  1  0
 22 23  2  0
 23 24  1  0
 20 25  1  0
 24 25  2  0
 11 26  1  0
 15 26  2  0
M  END
