pyridine_urea_5270
     RDKit          3D

 19 20  0  0  0  0  0  0  0  0999 V2000
   11.0990    3.9450   23.4460 N   0  0  0  0  0  0  0  0  0  0  0  0
   12.1370    3.1810   23.0320 C   0  0  0  0  0  0  0  0  0  0  0  0
   11.9210    1.6970   22.9600 C   0  0  0  0  0  0  0  0  0  0  0  0
   12.9140    0.7930   22.8910 C   0  0  0  0  0  0  0  0  0  0  0  0
   12.6370   -0.5710   22.8070 C   0  0  0  0  0  0  0  0  0  0  0  0
   11.3990   -1.2990   22.7770 C   0  0  0  0  0  0  0  0  0  0  0  0
    9.9290   -1.7190   22.7710 C   0  0  0  0  0  0  0  0  0  0  0  0
    9.3240   -1.2990   21.5820 N   0  0  0  0  0  0  0  0  0  0  0  0
    8.4070   -0.2510   21.3430 C   0  0  0  0  0  0  0  0  0  0  0  0
    8.7480    0.9240   21.3630 O   0  0  0  0  0  0  0  0  0  0  0  0
    7.1630   -0.7150   21.0690 N   0  0  0  0  0  0  0  0  0  0  0  0
    6.4620   -0.0360   20.1190 C   0  0  0  0  0  0  0  0  0  0  0  0
    5.2840    0.6860   20.3440 C   0  0  0  0  0  0  0  0  0  0  0  0
    4.6590    1.3460   19.2940 C   0  0  0  0  0  0  0  0  0  0  0  0
    5.2330    1.2690   18.0280 C   0  0  0  0  0  0  0  0  0  0  0  0
    6.3590    0.5820   17.7780 N   0  0  0  0  0  0  0  0  0  0  0  0
    6.9370   -0.0500   18.8180 C   0  0  0  0  0  0  0  0  0  0  0  0
   10.5440   -0.2060   22.8650 N   0  0  0  0  0  0  0  0  0  0  0  0
   10.7150    1.1150   22.9470 C   0  0  0  0  0  0  0  0  0  0  0  0
  1  2  3  0
  2  3  1  0
  3  4  2  0
  4  5  1  0
  5  6  2  0
  6  7  1  0
  7  8  1  0
  8  9  1  0
  9 10  2  0
  9 11  1  0
 11 12  1  0
 12 13  2  0
 13 14  1  0
 14 15  2  0
 15 16  1  0
 12 17  1  0
 16 17  2  0
  6 18  1  0
  3 19  1  0
 18 19  2  0
M  END
