pyridine_urea_4996
     RDKit          3D

 21 22  0  0  0  0  0  0  0  0999 V2000
    8.9180    1.1910   21.2180 O   0  0  0  0  0  0  0  0  0  0  0  0
    8.3490    0.1660   21.6240 C   0  0  0  0  0  0  0  0  0  0  0  0
    8.6930   -0.5490   22.7440 N   0  0  0  0  0  0  0  0  0  0  0  0
    9.1550   -0.0060   23.9630 C   0  0  0  0  0  0  0  0  0  0  0  0
   10.3200    0.7320   23.8830 C   0  0  0  0  0  0  0  0  0  0  0  0
   11.6680    1.2770   23.6660 C   0  0  0  0  0  0  0  0  0  0  0  0
   12.8540    0.7670   23.0810 C   0  0  0  0  0  0  0  0  0  0  0  0
   12.8420   -0.5980   22.5430 C   0  0  0  0  0  0  0  0  0  0  0  0
   13.6720   -1.2580   22.0160 O   0  0  0  0  0  0  0  0  0  0  0  0
   13.2030   -2.6020   21.9620 C   0  0  0  0  0  0  0  0  0  0  0  0
   13.2790   -3.0590   20.6950 F   0  0  0  0  0  0  0  0  0  0  0  0
   11.9020   -2.6130   22.3430 F   0  0  0  0  0  0  0  0  0  0  0  0
   11.5500   -1.0650   22.7740 C   0  0  0  0  0  0  0  0  0  0  0  0
   10.4440   -0.5780   23.3240 C   0  0  0  0  0  0  0  0  0  0  0  0
    7.2590   -0.4270   21.0410 N   0  0  0  0  0  0  0  0  0  0  0  0
    6.5390    0.1550   20.0040 C   0  0  0  0  0  0  0  0  0  0  0  0
    5.3790    0.8800   20.2970 C   0  0  0  0  0  0  0  0  0  0  0  0
    4.6730    1.4780   19.2520 C   0  0  0  0  0  0  0  0  0  0  0  0
    5.1450    1.3350   17.9590 C   0  0  0  0  0  0  0  0  0  0  0  0
    6.2480    0.6350   17.6650 N   0  0  0  0  0  0  0  0  0  0  0  0
    6.9140    0.0640   18.6840 C   0  0  0  0  0  0  0  0  0  0  0  0
  1  2  2  0
  2  3  1  0
  3  4  1  0
  4  5  1  0
  5  6  2  0
  6  7  1  0
  7  8  2  0
  8  9  1  0
  9 10  1  0
 10 11  1  0
 10 12  1  0
  8 13  1  0
  5 14  1  0
 13 14  2  0
  2 15  1  0
 15 16  1  0
 16 17  2  0
 17 18  1  0
 18 19  2  0
 19 20  1  0
 16 21  1  0
 20 21  2  0
M  END
