pyridine_urea_5020
     RDKit          3D

 20 21  0  0  0  0  0  0  0  0999 V2000
    9.9500    1.7440   23.7990 C   0  0  0  0  0  0  0  0  0  0  0  0
   10.4490    0.3320   23.9210 C   0  0  1  0  0  0  0  0  0  0  0  0
    9.9420   -0.0690   25.2090 O   0  0  0  0  0  0  0  0  0  0  0  0
   10.2130   -0.5030   22.8350 C   0  0  0  0  0  0  0  0  0  0  0  0
    8.8050   -0.6420   22.5440 N   0  0  0  0  0  0  0  0  0  0  0  0
    8.2990    0.0920   21.5070 C   0  0  0  0  0  0  0  0  0  0  0  0
    8.7910    1.1720   21.1450 O   0  0  0  0  0  0  0  0  0  0  0  0
    7.1300   -0.5960   20.9690 N   0  0  0  0  0  0  0  0  0  0  0  0
    6.4510    0.0490   19.9840 C   0  0  0  0  0  0  0  0  0  0  0  0
    5.1670    0.7890   20.3280 C   0  0  0  0  0  0  0  0  0  0  0  0
    4.5310    1.4390   19.2760 C   0  0  0  0  0  0  0  0  0  0  0  0
    5.1810    1.3470   17.8930 C   0  0  0  0  0  0  0  0  0  0  0  0
    6.3170    0.6670   17.6630 N   0  0  0  0  0  0  0  0  0  0  0  0
    6.9110    0.0440   18.6920 C   0  0  0  0  0  0  0  0  0  0  0  0
   11.9580    0.3970   24.0210 C   0  0  1  0  0  0  0  0  0  0  0  0
   12.5420   -0.7980   24.4300 C   0  0  0  0  0  0  0  0  0  0  0  0
   12.7360   -1.7600   23.4270 C   0  0  0  0  0  0  0  0  0  0  0  0
   12.7220   -1.2890   22.1430 C   0  0  0  0  0  0  0  0  0  0  0  0
   13.1230   -0.0120   22.0420 O   0  0  0  0  0  0  0  0  0  0  0  0
   12.4940    0.9500   22.8700 C   0  0  0  0  0  0  0  0  0  0  0  0
  2  1  1  6
  2  3  1  0
  2  4  1  0
  4  5  1  0
  5  6  1  0
  6  7  2  0
  6  8  1  0
  8  9  1  0
  9 10  2  0
 10 11  1  0
 11 12  2  0
 12 13  1  0
  9 14  1  0
 13 14  2  0
  2 15  1  0
 15 16  1  6
 16 17  1  0
 17 18  1  0
 18 19  1  0
 15 20  1  0
 19 20  1  0
M  END
