pyridine_urea_5778
     RDKit          3D

 21 22  0  0  0  0  0  0  0  0999 V2000
    8.9270    0.1170   25.6650 C   0  0  0  0  0  0  0  0  0  0  0  0
    9.0530    1.0580   24.4980 C   0  0  0  0  0  0  0  0  0  0  0  0
    8.0150    1.0440   23.5640 C   0  0  0  0  0  0  0  0  0  0  0  0
    9.2250    2.2110   24.8780 O   0  0  0  0  0  0  0  0  0  0  0  0
   10.3420    0.6070   23.8000 C   0  0  0  0  0  0  0  0  0  0  0  0
   11.4220    1.4140   23.8290 C   0  0  0  0  0  0  0  0  0  0  0  0
   12.6470    0.9940   23.1810 C   0  0  0  0  0  0  0  0  0  0  0  0
   12.6140   -0.3530   22.5050 C   0  0  0  0  0  0  0  0  0  0  0  0
   11.4020   -1.3390   22.4160 C   0  0  0  0  0  0  0  0  0  0  0  0
   10.1750   -1.9600   22.5180 C   0  0  0  0  0  0  0  0  0  0  0  0
    9.3180   -1.5790   21.4540 N   0  0  0  0  0  0  0  0  0  0  0  0
    8.5680   -0.4210   21.3300 C   0  0  0  0  0  0  0  0  0  0  0  0
    9.1360    0.8790   21.4430 O   0  0  0  0  0  0  0  0  0  0  0  0
    7.2350   -0.6930   21.0450 N   0  0  0  0  0  0  0  0  0  0  0  0
    6.4790   -0.0140   20.1100 C   0  0  0  0  0  0  0  0  0  0  0  0
    5.3070    0.6920   20.3660 C   0  0  0  0  0  0  0  0  0  0  0  0
    4.6870    1.3260   19.3060 C   0  0  0  0  0  0  0  0  0  0  0  0
    5.2050    1.2680   18.0260 C   0  0  0  0  0  0  0  0  0  0  0  0
    6.3280    0.5890   17.7600 N   0  0  0  0  0  0  0  0  0  0  0  0
    6.9260   -0.0300   18.8020 C   0  0  0  0  0  0  0  0  0  0  0  0
   10.4040   -0.6070   23.1490 C   0  0  0  0  0  0  0  0  0  0  0  0
  1  2  1  0
  2  3  1  0
  2  4  1  0
  2  5  1  0
  5  6  2  0
  6  7  1  0
  7  8  2  0
  8  9  1  0
  9 10  1  0
 10 11  1  0
 11 12  1  0
 12 13  2  0
 12 14  1  0
 14 15  1  0
 15 16  2  0
 16 17  1  0
 17 18  2  0
 18 19  1  0
 15 20  1  0
 19 20  2  0
  5 21  1  0
  9 21  2  0
M  END
