pyridine_urea_5595
     RDKit          3D

 17 18  0  0  0  0  0  0  0  0999 V2000
    8.8950    0.6380   21.4070 O   0  0  0  0  0  0  0  0  0  0  0  0
    8.2740   -0.4010   21.5740 C   0  0  0  0  0  0  0  0  0  0  0  0
    8.7290   -1.4390   22.3490 N   0  0  0  0  0  0  0  0  0  0  0  0
   10.1030   -1.4120   22.7880 C   0  0  0  0  0  0  0  0  0  0  0  0
   10.4510   -0.1800   23.6710 C   0  0  1  0  0  0  0  0  0  0  0  0
   11.5430   -0.3190   24.5060 C   0  0  0  0  0  0  0  0  0  0  0  0
   12.7760   -0.9020   23.8340 C   0  0  0  0  0  0  0  0  0  0  0  0
   13.0610   -0.1150   22.7460 C   0  0  0  0  0  0  0  0  0  0  0  0
   12.1330    1.0860   22.8370 C   0  0  0  0  0  0  0  0  0  0  0  0
   10.7880    0.8830   22.7920 O   0  0  0  0  0  0  0  0  0  0  0  0
    7.0470   -0.7080   21.0510 N   0  0  0  0  0  0  0  0  0  0  0  0
    6.4230   -0.0250   20.0320 C   0  0  0  0  0  0  0  0  0  0  0  0
    5.1370    0.7300   20.3390 C   0  0  0  0  0  0  0  0  0  0  0  0
    4.5040    1.4730   19.1870 C   0  0  0  0  0  0  0  0  0  0  0  0
    5.2280    1.3760   17.8720 C   0  0  0  0  0  0  0  0  0  0  0  0
    6.3600    0.6820   17.6810 N   0  0  0  0  0  0  0  0  0  0  0  0
    6.9110    0.0170   18.7330 C   0  0  0  0  0  0  0  0  0  0  0  0
  1  2  2  0
  2  3  1  0
  3  4  1  0
  5  4  1  6
  5  6  1  0
  6  7  1  0
  7  8  1  0
  8  9  1  0
  5 10  1  0
  9 10  1  0
  2 11  1  0
 11 12  1  0
 12 13  2  0
 13 14  1  0
 14 15  2  0
 15 16  1  0
 12 17  1  0
 16 17  2  0
M  END
