pyridine_urea_4522
     RDKit          3D

 23 25  0  0  0  0  0  0  0  0999 V2000
    8.4380    0.8950   21.0290 O   0  0  0  0  0  0  0  0  0  0  0  0
    8.0410   -0.1590   21.5100 C   0  0  0  0  0  0  0  0  0  0  0  0
    6.9850   -0.8520   21.0060 N   0  0  0  0  0  0  0  0  0  0  0  0
    6.3530   -0.1070   19.9630 C   0  0  0  0  0  0  0  0  0  0  0  0
    5.0660    0.6330   20.2990 C   0  0  0  0  0  0  0  0  0  0  0  0
    4.4180    1.4440   19.1820 C   0  0  0  0  0  0  0  0  0  0  0  0
    5.1510    1.4150   17.8410 C   0  0  0  0  0  0  0  0  0  0  0  0
    6.3270    0.6740   17.7030 N   0  0  0  0  0  0  0  0  0  0  0  0
    6.8940   -0.0480   18.7080 C   0  0  0  0  0  0  0  0  0  0  0  0
    8.6220   -0.7150   22.6020 N   0  0  0  0  0  0  0  0  0  0  0  0
    9.7780   -0.0230   22.9270 C   0  0  0  0  0  0  0  0  0  0  0  0
    9.9470    1.2720   23.3670 C   0  0  0  0  0  0  0  0  0  0  0  0
   11.1450    1.8850   23.6480 C   0  0  0  0  0  0  0  0  0  0  0  0
   12.2950    1.1750   23.4940 C   0  0  0  0  0  0  0  0  0  0  0  0
   12.2910   -0.1310   23.0800 C   0  0  0  0  0  0  0  0  0  0  0  0
   13.3390   -0.8240   22.9710 N   0  0  0  0  0  0  0  0  0  0  0  0
   13.2880   -1.5460   24.1210 C   0  0  0  0  0  0  0  0  0  0  0  0
   13.3080   -1.2300   25.3010 O   0  0  0  0  0  0  0  0  0  0  0  0
   13.1250   -2.9110   23.7600 C   0  0  0  0  0  0  0  0  0  0  0  0
   13.1760   -2.9730   22.4400 N   0  0  0  0  0  0  0  0  0  0  0  0
   13.3890   -1.7340   21.9430 C   0  0  0  0  0  0  0  0  0  0  0  0
   13.5940   -1.5670   20.7530 O   0  0  0  0  0  0  0  0  0  0  0  0
   11.0970   -0.7390   22.7900 C   0  0  0  0  0  0  0  0  0  0  0  0
  1  2  2  0
  2  3  1  0
  3  4  1  0
  4  5  2  0
  5  6  1  0
  6  7  2  0
  7  8  1  0
  4  9  1  0
  8  9  2  0
  2 10  1  0
 10 11  1  0
 11 12  2  0
 12 13  1  0
 13 14  2  0
 14 15  1  0
 15 16  1  0
 16 17  1  0
 17 18  2  0
 17 19  1  0
 19 20  1  0
 16 21  1  0
 20 21  1  0
 21 22  2  0
 11 23  1  0
 15 23  2  0
M  END
