pyridine_urea_12905
     RDKit          3D

 19 20  0  0  0  0  0  0  0  0999 V2000
   13.3100   -1.6230   25.2650 C   0  0  0  0  0  0  0  0  0  0  0  0
   12.1580   -1.2880   24.3590 C   0  0  0  0  0  0  0  0  0  0  0  0
   12.4400   -1.6810   22.9290 C   0  0  0  0  0  0  0  0  0  0  0  0
   11.4620   -1.4950   22.0210 C   0  0  0  0  0  0  0  0  0  0  0  0
   10.2400   -0.9500   22.3930 C   0  0  0  0  0  0  0  0  0  0  0  0
    9.2810   -0.8480   21.3520 N   0  0  0  0  0  0  0  0  0  0  0  0
    8.4540    0.2240   21.2750 C   0  0  0  0  0  0  0  0  0  0  0  0
    8.9180    1.5170   21.2860 O   0  0  0  0  0  0  0  0  0  0  0  0
    7.1570   -0.1800   21.1360 N   0  0  0  0  0  0  0  0  0  0  0  0
    6.4250    0.3360   20.0890 C   0  0  0  0  0  0  0  0  0  0  0  0
    5.2460    1.0700   20.1750 C   0  0  0  0  0  0  0  0  0  0  0  0
    4.6010    1.5820   19.0810 C   0  0  0  0  0  0  0  0  0  0  0  0
    5.1130    1.3830   17.8160 C   0  0  0  0  0  0  0  0  0  0  0  0
    6.2620    0.6510   17.6850 N   0  0  0  0  0  0  0  0  0  0  0  0
    6.9110    0.1290   18.8020 C   0  0  0  0  0  0  0  0  0  0  0  0
   10.0120   -0.5620   23.7150 C   0  0  0  0  0  0  0  0  0  0  0  0
    8.8060   -0.0370   23.9670 F   0  0  0  0  0  0  0  0  0  0  0  0
   10.9380   -0.7210   24.6970 C   0  0  0  0  0  0  0  0  0  0  0  0
   10.6010   -0.3480   25.9230 F   0  0  0  0  0  0  0  0  0  0  0  0
  1  2  1  0
  2  3  2  0
  3  4  1  0
  4  5  2  0
  5  6  1  0
  6  7  1  0
  7  8  2  0
  7  9  1  0
  9 10  1  0
 10 11  2  0
 11 12  1  0
 12 13  2  0
 13 14  1  0
 10 15  1  0
 14 15  2  0
  5 16  1  0
 16 17  1  0
  2 18  1  0
 16 18  2  0
 18 19  1  0
M  END
