pyridine_urea_7257
     RDKit          3D

 18 18  0  0  0  0  0  0  0  0999 V2000
   11.6600    5.9230   25.1480 C   0  0  0  0  0  0  0  0  0  0  0  0
   10.8710    5.4460   23.9410 C   0  0  0  0  0  0  0  0  0  0  0  0
   11.7730    4.9360   22.9030 N   0  0  0  0  0  0  0  0  0  0  0  0
   11.3540    3.7420   22.1660 C   0  0  0  0  0  0  0  0  0  0  0  0
   11.3340    2.6100   22.9630 C   0  0  0  0  0  0  0  0  0  0  0  0
   10.9290    1.5520   22.4040 O   0  0  0  0  0  0  0  0  0  0  0  0
   10.6330    0.4570   23.1920 C   0  0  0  0  0  0  0  0  0  0  0  0
   10.1200   -0.6530   22.5590 C   0  0  0  0  0  0  0  0  0  0  0  0
    8.7560   -0.6420   22.5930 N   0  0  0  0  0  0  0  0  0  0  0  0
    8.0330   -0.6500   21.4470 C   0  0  0  0  0  0  0  0  0  0  0  0
    8.5400   -1.1120   20.3260 O   0  0  0  0  0  0  0  0  0  0  0  0
    6.7710   -0.1560   21.4770 N   0  0  0  0  0  0  0  0  0  0  0  0
    6.2340    0.3400   20.2730 C   0  0  0  0  0  0  0  0  0  0  0  0
    5.0670    1.0780   20.2880 C   0  0  0  0  0  0  0  0  0  0  0  0
    4.5530    1.5710   19.1180 C   0  0  0  0  0  0  0  0  0  0  0  0
    5.1660    1.3580   17.9020 C   0  0  0  0  0  0  0  0  0  0  0  0
    6.3010    0.6410   17.8300 N   0  0  0  0  0  0  0  0  0  0  0  0
    6.8070    0.1480   19.0000 C   0  0  0  0  0  0  0  0  0  0  0  0
  1  2  1  0
  2  3  1  0
  3  4  1  0
  4  5  1  0
  5  6  1  0
  6  7  1  0
  7  8  1  0
  8  9  1  0
  9 10  1  0
 10 11  2  0
 10 12  1  0
 12 13  1  0
 13 14  2  0
 14 15  1  0
 15 16  2  0
 16 17  1  0
 13 18  1  0
 17 18  2  0
M  END
