pyridine_urea_409
     RDKit          3D

 25 27  0  0  0  0  0  0  0  0999 V2000
   12.4830   -2.5110   21.0930 C   0  0  0  0  0  0  0  0  0  0  0  0
   11.9430   -1.4670   21.4350 O   0  0  0  0  0  0  0  0  0  0  0  0
   10.6920   -1.5090   21.9930 C   0  0  0  0  0  0  0  0  0  0  0  0
    9.9020   -2.4300   21.8030 O   0  0  0  0  0  0  0  0  0  0  0  0
   10.3560   -0.4420   22.8300 C   0  0  1  0  0  0  0  0  0  0  0  0
   11.0380    0.8100   22.7130 C   0  0  0  0  0  0  0  0  0  0  0  0
   11.3290    1.1130   23.9860 C   0  0  0  0  0  0  0  0  0  0  0  0
   11.9330    0.1310   24.0010 C   0  0  0  0  0  0  0  0  0  0  0  0
   12.4070   -0.9460   23.3580 C   0  0  0  0  0  0  0  0  0  0  0  0
   12.6690   -1.7950   22.3890 C   0  0  0  0  0  0  0  0  0  0  0  0
   13.3520   -2.8900   22.8190 C   0  0  0  0  0  0  0  0  0  0  0  0
   13.6760   -2.9740   24.2020 C   0  0  0  0  0  0  0  0  0  0  0  0
   13.3840   -2.0140   25.1470 C   0  0  0  0  0  0  0  0  0  0  0  0
   12.6710   -0.8910   24.6340 C   0  0  0  0  0  0  0  0  0  0  0  0
   12.1440    0.2840   25.0550 O   0  0  0  0  0  0  0  0  0  0  0  0
    8.9160   -0.2700   22.6830 N   0  0  0  0  0  0  0  0  0  0  0  0
    8.4030    0.3470   21.5910 C   0  0  0  0  0  0  0  0  0  0  0  0
    8.8880    1.3960   21.1530 O   0  0  0  0  0  0  0  0  0  0  0  0
    7.3100   -0.3180   21.1020 N   0  0  0  0  0  0  0  0  0  0  0  0
    6.5690    0.2140   19.9920 C   0  0  0  0  0  0  0  0  0  0  0  0
    5.4210    0.9420   20.3020 C   0  0  0  0  0  0  0  0  0  0  0  0
    4.6850    1.5030   19.2650 C   0  0  0  0  0  0  0  0  0  0  0  0
    5.1090    1.3250   17.9620 C   0  0  0  0  0  0  0  0  0  0  0  0
    6.1960    0.6230   17.6310 N   0  0  0  0  0  0  0  0  0  0  0  0
    6.9190    0.0670   18.6780 C   0  0  0  0  0  0  0  0  0  0  0  0
  1  2  1  0
  2  3  1  0
  3  4  2  0
  3  5  1  0
  5  6  1  6
  6  7  1  0
  7  8  2  0
  8  9  1  0
  9 10  2  0
 10 11  1  0
 11 12  2  0
 12 13  1  0
  9 14  1  0
 13 14  2  0
  7 15  1  0
 14 15  1  0
  5 16  1  0
 16 17  1  0
 17 18  2  0
 17 19  1  0
 19 20  1  0
 20 21  2  0
 21 22  1  0
 22 23  2  0
 23 24  1  0
 20 25  1  0
 24 25  2  0
M  END
