pyridine_urea_3338
     RDKit          3D

 19 20  0  0  0  0  0  0  0  0999 V2000
   13.8620   -2.8470   25.1590 C   0  0  0  0  0  0  0  0  0  0  0  0
   12.8640   -1.7740   25.2010 C   0  0  0  0  0  0  0  0  0  0  0  0
   12.1320   -1.5150   24.1190 C   0  0  0  0  0  0  0  0  0  0  0  0
   12.9820   -1.4420   23.0360 C   0  0  0  0  0  0  0  0  0  0  0  0
   12.5450   -1.2620   21.8420 C   0  0  0  0  0  0  0  0  0  0  0  0
   11.0960   -1.1380   21.7380 C   0  0  0  0  0  0  0  0  0  0  0  0
   10.3410   -1.2000   22.8580 N   0  0  0  0  0  0  0  0  0  0  0  0
   10.6820   -1.3830   24.1390 C   0  0  0  0  0  0  0  0  0  0  0  0
    9.1950   -1.1920   23.7540 C   0  0  0  0  0  0  0  0  0  0  0  0
    9.0030    0.0130   23.0990 N   0  0  0  0  0  0  0  0  0  0  0  0
    8.5510    0.3510   21.7820 C   0  0  0  0  0  0  0  0  0  0  0  0
    9.0450    1.3110   21.1770 O   0  0  0  0  0  0  0  0  0  0  0  0
    7.5170   -0.3400   21.1810 N   0  0  0  0  0  0  0  0  0  0  0  0
    6.6550    0.1770   20.1860 C   0  0  0  0  0  0  0  0  0  0  0  0
    5.4800    0.9020   20.4190 C   0  0  0  0  0  0  0  0  0  0  0  0
    4.7250    1.3820   19.3410 C   0  0  0  0  0  0  0  0  0  0  0  0
    5.1550    1.1320   18.0490 C   0  0  0  0  0  0  0  0  0  0  0  0
    6.2620    0.4370   17.7770 N   0  0  0  0  0  0  0  0  0  0  0  0
    6.9910   -0.0300   18.8510 C   0  0  0  0  0  0  0  0  0  0  0  0
  1  2  1  0
  2  3  1  0
  3  4  2  0
  4  5  1  0
  5  6  2  0
  6  7  1  0
  3  8  1  0
  7  8  2  0
  8  9  1  0
  9 10  1  0
 10 11  1  0
 11 12  2  0
 11 13  1  0
 13 14  1  0
 14 15  2  0
 15 16  1  0
 16 17  2  0
 17 18  1  0
 14 19  1  0
 18 19  2  0
M  END
