pyridine_urea_8892
     RDKit          3D

 20 21  0  0  0  0  0  0  0  0999 V2000
    8.9680    1.1290   21.2520 O   0  0  0  0  0  0  0  0  0  0  0  0
    8.4310    0.0570   21.5650 C   0  0  0  0  0  0  0  0  0  0  0  0
    8.9430   -0.7710   22.5240 N   0  0  0  0  0  0  0  0  0  0  0  0
   10.3610   -0.7680   22.7540 C   0  0  0  0  0  0  0  0  0  0  0  0
   10.7590    0.3110   23.7730 C   0  0  0  0  0  0  0  0  0  0  0  0
   12.0660    0.7580   23.6950 C   0  0  0  0  0  0  0  0  0  0  0  0
   12.1390    1.7440   22.7360 N   0  0  0  0  0  0  0  0  0  0  0  0
   11.9970    3.1460   22.8720 C   0  0  0  0  0  0  0  0  0  0  0  0
   10.7650    3.6800   23.2370 C   0  0  0  0  0  0  0  0  0  0  0  0
   10.6100    5.0600   23.3720 C   0  0  0  0  0  0  0  0  0  0  0  0
   11.6870    5.9250   23.1430 C   0  0  0  0  0  0  0  0  0  0  0  0
   12.9110    5.4000   22.7800 C   0  0  0  0  0  0  0  0  0  0  0  0
   13.0690    4.0210   22.6470 C   0  0  0  0  0  0  0  0  0  0  0  0
    7.2760   -0.4640   21.0510 N   0  0  0  0  0  0  0  0  0  0  0  0
    6.5840    0.1090   19.9920 C   0  0  0  0  0  0  0  0  0  0  0  0
    5.3350    0.8860   20.2190 C   0  0  0  0  0  0  0  0  0  0  0  0
    4.5800    1.5070   19.2660 C   0  0  0  0  0  0  0  0  0  0  0  0
    5.1280    1.3350   17.9650 C   0  0  0  0  0  0  0  0  0  0  0  0
    6.2530    0.6350   17.6820 N   0  0  0  0  0  0  0  0  0  0  0  0
    6.9540    0.0390   18.6770 C   0  0  0  0  0  0  0  0  0  0  0  0
  1  2  2  0
  2  3  1  0
  3  4  1  0
  4  5  1  0
  5  6  1  0
  6  7  1  0
  7  8  1  0
  8  9  2  0
  9 10  1  0
 10 11  2  0
 11 12  1  0
  8 13  1  0
 12 13  2  0
  2 14  1  0
 14 15  1  0
 15 16  2  0
 16 17  1  0
 17 18  2  0
 18 19  1  0
 15 20  1  0
 19 20  2  0
M  END
