pyridine_urea_14246
     RDKit          3D

 22 24  0  0  0  0  0  0  0  0999 V2000
   10.2910    4.3360   24.5330 C   0  0  0  0  0  0  0  0  0  0  0  0
   11.4330    4.1970   23.6430 N   0  0  0  0  0  0  0  0  0  0  0  0
   12.1940    5.3330   23.4030 C   0  0  0  0  0  0  0  0  0  0  0  0
   13.2070    4.9770   22.5430 C   0  0  0  0  0  0  0  0  0  0  0  0
   13.1150    3.6440   22.2280 N   0  0  0  0  0  0  0  0  0  0  0  0
   11.9280    3.1110   22.9620 C   0  0  0  0  0  0  0  0  0  0  0  0
   11.5190    1.8380   22.8890 N   0  0  0  0  0  0  0  0  0  0  0  0
   12.2460    0.6910   22.9460 C   0  0  0  0  0  0  0  0  0  0  0  0
   11.5630   -0.6590   22.6220 C   0  0  0  0  0  0  0  0  0  0  0  0
   10.0910   -0.4050   22.3050 C   0  0  0  0  0  0  0  0  0  0  0  0
    9.0310   -1.1820   22.2400 N   0  0  0  0  0  0  0  0  0  0  0  0
    8.0540   -0.9360   21.2460 C   0  0  0  0  0  0  0  0  0  0  0  0
    8.3590   -0.9940   20.1190 O   0  0  0  0  0  0  0  0  0  0  0  0
    6.7680   -0.6010   21.5860 N   0  0  0  0  0  0  0  0  0  0  0  0
    6.3170   -0.0000   20.3090 C   0  0  0  0  0  0  0  0  0  0  0  0
    5.1600    0.7800   20.4250 C   0  0  0  0  0  0  0  0  0  0  0  0
    4.6040    1.4280   19.3050 C   0  0  0  0  0  0  0  0  0  0  0  0
    5.2040    1.2990   18.0620 C   0  0  0  0  0  0  0  0  0  0  0  0
    6.3190    0.5670   17.8460 N   0  0  0  0  0  0  0  0  0  0  0  0
    6.8820   -0.1070   19.0390 C   0  0  0  0  0  0  0  0  0  0  0  0
    9.8480    0.4660   23.2700 C   0  0  0  0  0  0  0  0  0  0  0  0
   10.1820    1.7620   23.0240 C   0  0  0  0  0  0  0  0  0  0  0  0
  1  2  1  0
  2  3  1  0
  3  4  2  0
  4  5  1  0
  2  6  1  0
  5  6  2  0
  6  7  1  0
  7  8  1  0
  8  9  1  0
  9 10  1  0
 10 11  1  0
 11 12  1  0
 12 13  2  0
 12 14  1  0
 14 15  1  0
 15 16  2  0
 16 17  1  0
 17 18  2  0
 18 19  1  0
 15 20  1  0
 19 20  2  0
 10 21  1  0
  7 22  1  0
 21 22  1  0
M  END
