pyridine_urea_1406
     RDKit          3D

 20 21  0  0  0  0  0  0  0  0999 V2000
    8.9190   -2.1140   24.4050 C   0  0  0  0  0  0  0  0  0  0  0  0
   10.4970   -1.2940   24.2990 S   0  0  0  0  0  0  0  0  0  0  0  0
   10.4160    0.0520   23.0320 C   0  0  0  0  0  0  0  0  0  0  0  0
   11.8180    0.6730   22.9040 C   0  0  0  0  0  0  0  0  0  0  0  0
   12.2420    1.8320   23.0290 C   0  0  0  0  0  0  0  0  0  0  0  0
   12.9900    0.6420   22.7410 C   0  0  0  0  0  0  0  0  0  0  0  0
   11.6430   -0.1050   22.6910 C   0  0  0  0  0  0  0  0  0  0  0  0
   10.7120   -1.1780   22.5380 C   0  0  0  0  0  0  0  0  0  0  0  0
    9.2860   -0.9310   22.3350 N   0  0  0  0  0  0  0  0  0  0  0  0
    8.6190   -0.0150   21.4990 C   0  0  0  0  0  0  0  0  0  0  0  0
    9.0120    1.1360   21.2180 O   0  0  0  0  0  0  0  0  0  0  0  0
    7.4190   -0.5530   21.0300 N   0  0  0  0  0  0  0  0  0  0  0  0
    6.6470    0.0510   20.0500 C   0  0  0  0  0  0  0  0  0  0  0  0
    5.5110    0.7840   20.4370 C   0  0  0  0  0  0  0  0  0  0  0  0
    4.7320    1.4160   19.4530 C   0  0  0  0  0  0  0  0  0  0  0  0
    5.1610    1.2700   18.0370 C   0  0  0  0  0  0  0  0  0  0  0  0
    6.2410    0.5590   17.7010 N   0  0  0  0  0  0  0  0  0  0  0  0
    6.9410   -0.0230   18.7000 C   0  0  0  0  0  0  0  0  0  0  0  0
   12.6520   -1.2710   22.4140 C   0  0  0  0  0  0  0  0  0  0  0  0
   12.9710   -0.0790   22.6110 C   0  0  0  0  0  0  0  0  0  0  0  0
  1  2  1  0
  2  3  1  0
  3  4  1  0
  4  5  2  0
  5  6  1  0
  6  7  2  0
  7  8  1  0
  8  9  1  0
  9 10  1  0
 10 11  2  0
 10 12  1  0
 12 13  1  0
 13 14  2  0
 14 15  1  0
 15 16  2  0
 16 17  1  0
 13 18  1  0
 17 18  2  0
  7 19  1  0
  4 20  1  0
 19 20  2  0
M  END
