pyridine_urea_300
     RDKit          3D

 27 29  0  0  0  0  0  0  0  0999 V2000
    8.7410    1.4630   21.2110 O   0  0  0  0  0  0  0  0  0  0  0  0
    8.3900    0.2790   21.2540 C   0  0  0  0  0  0  0  0  0  0  0  0
    7.0870   -0.1360   21.2060 N   0  0  0  0  0  0  0  0  0  0  0  0
    6.4240    0.3370   20.0430 C   0  0  0  0  0  0  0  0  0  0  0  0
    5.1520    1.1220   20.2970 C   0  0  0  0  0  0  0  0  0  0  0  0
    4.5120    1.6320   19.0680 C   0  0  0  0  0  0  0  0  0  0  0  0
    5.1040    1.3540   17.8530 C   0  0  0  0  0  0  0  0  0  0  0  0
    6.2270    0.6380   17.6770 N   0  0  0  0  0  0  0  0  0  0  0  0
    6.8560    0.1500   18.7520 C   0  0  0  0  0  0  0  0  0  0  0  0
    9.2410   -0.7650   21.2890 N   0  0  0  0  0  0  0  0  0  0  0  0
   10.4490   -0.6870   22.0860 C   0  0  2  0  0  0  0  0  0  0  0  0
   11.1010   -1.7670   21.6660 C   0  0  0  0  0  0  0  0  0  0  0  0
   11.8240   -2.0830   22.8870 C   0  0  0  0  0  0  0  0  0  0  0  0
   13.0390   -1.8050   23.2720 C   0  0  0  0  0  0  0  0  0  0  0  0
   13.7280   -1.0470   22.3910 F   0  0  0  0  0  0  0  0  0  0  0  0
   13.4390   -2.3020   24.4610 C   0  0  0  0  0  0  0  0  0  0  0  0
   12.5700   -3.0690   25.2180 C   0  0  0  0  0  0  0  0  0  0  0  0
   11.0900   -3.5150   24.9810 C   0  0  0  0  0  0  0  0  0  0  0  0
   10.8280   -2.8790   23.6480 C   0  0  0  0  0  0  0  0  0  0  0  0
    9.2290   -3.1610   23.0440 Cl  0  0  0  0  0  0  0  0  0  0  0  0
    9.9190   -0.5300   23.5040 C   0  0  0  0  0  0  0  0  0  0  0  0
    8.7160   -0.4210   24.0520 C   0  0  0  0  0  0  0  0  0  0  0  0
    8.9870   -0.3250   25.4550 C   0  0  0  0  0  0  0  0  0  0  0  0
   10.3750   -0.3520   26.0080 C   0  0  0  0  0  0  0  0  0  0  0  0
   11.5840   -0.4720   25.1690 C   0  0  0  0  0  0  0  0  0  0  0  0
   10.4360   -0.4510   24.6730 C   0  0  0  0  0  0  0  0  0  0  0  0
    9.1680   -0.2390   26.0730 Br  0  0  0  0  0  0  0  0  0  0  0  0
  1  2  2  0
  2  3  1  0
  3  4  1  0
  4  5  2  0
  5  6  1  0
  6  7  2  0
  7  8  1  0
  4  9  1  0
  8  9  2  0
  2 10  1  0
 10 11  1  0
 11 12  1  1
 12 13  1  0
 13 14  2  0
 14 15  1  0
 14 16  1  0
 16 17  2  0
 17 18  1  0
 13 19  1  0
 18 19  2  0
 19 20  1  0
 11 21  1  0
 21 22  2  0
 22 23  1  0
 23 24  2  0
 24 25  1  0
 21 26  1  0
 25 26  2  0
 26 27  1  0
M  END
