pyridine_urea_2227
     RDKit          3D

 27 29  0  0  0  0  0  0  0  0999 V2000
    9.0980    0.6000   21.3870 O   0  0  0  0  0  0  0  0  0  0  0  0
    8.5010   -0.4230   21.6790 C   0  0  0  0  0  0  0  0  0  0  0  0
    7.3350   -0.8570   21.0650 N   0  0  0  0  0  0  0  0  0  0  0  0
    6.5420   -0.1250   20.1440 C   0  0  0  0  0  0  0  0  0  0  0  0
    5.2380    0.6160   20.5030 C   0  0  0  0  0  0  0  0  0  0  0  0
    4.5740    1.3410   19.3270 C   0  0  0  0  0  0  0  0  0  0  0  0
    5.2420    1.2570   17.9940 C   0  0  0  0  0  0  0  0  0  0  0  0
    6.3820    0.5770   17.7910 N   0  0  0  0  0  0  0  0  0  0  0  0
    6.9740   -0.0720   18.8240 C   0  0  0  0  0  0  0  0  0  0  0  0
    8.9130   -1.2840   22.7080 N   0  0  0  0  0  0  0  0  0  0  0  0
   10.3010   -1.6810   23.0010 C   0  0  0  0  0  0  0  0  0  0  0  0
   11.0400   -1.6370   21.8110 C   0  0  0  0  0  0  0  0  0  0  0  0
   12.3730   -1.2890   21.9910 C   0  0  0  0  0  0  0  0  0  0  0  0
   12.6930   -0.3070   22.8190 N   0  0  0  0  0  0  0  0  0  0  0  0
   12.1170    1.0050   22.8200 C   0  0  0  0  0  0  0  0  0  0  0  0
   10.7220    1.1500   22.8530 C   0  0  0  0  0  0  0  0  0  0  0  0
   10.0160    2.4180   22.8710 C   0  0  0  0  0  0  0  0  0  0  0  0
   10.9050    3.6930   22.8530 C   0  0  0  0  0  0  0  0  0  0  0  0
   10.3280    4.7620   22.8730 O   0  0  0  0  0  0  0  0  0  0  0  0
   10.0750    5.3090   24.1900 C   0  0  0  0  0  0  0  0  0  0  0  0
    9.6880    4.3470   25.0940 F   0  0  0  0  0  0  0  0  0  0  0  0
   11.1880    5.8880   24.6620 F   0  0  0  0  0  0  0  0  0  0  0  0
    9.1010    6.2560   24.1650 F   0  0  0  0  0  0  0  0  0  0  0  0
   12.3920    3.3980   22.8100 C   0  0  0  0  0  0  0  0  0  0  0  0
   12.8960    2.1230   22.7960 C   0  0  0  0  0  0  0  0  0  0  0  0
   12.5060   -1.0160   24.0440 C   0  0  0  0  0  0  0  0  0  0  0  0
   10.9600   -1.0710   24.0920 C   0  0  0  0  0  0  0  0  0  0  0  0
  1  2  2  0
  2  3  1  0
  3  4  1  0
  4  5  2  0
  5  6  1  0
  6  7  2  0
  7  8  1  0
  4  9  1  0
  8  9  2  0
  2 10  1  0
 10 11  1  0
 11 12  1  0
 12 13  1  0
 13 14  1  0
 14 15  1  0
 15 16  2  0
 16 17  1  0
 17 18  2  0
 18 19  1  0
 19 20  1  0
 20 21  1  0
 20 22  1  0
 20 23  1  0
 18 24  1  0
 15 25  1  0
 24 25  2  0
 14 26  1  0
 11 27  1  0
 26 27  1  0
M  END
