pyridine_urea_11665
     RDKit          3D

 28 30  0  0  0  0  0  0  0  0999 V2000
    7.7010   -2.0670   21.8200 O   0  0  0  0  0  0  0  0  0  0  0  0
    7.2250   -1.0820   21.3630 C   0  0  0  0  0  0  0  0  0  0  0  0
    7.8810    0.0310   21.2210 N   0  0  0  0  0  0  0  0  0  0  0  0
    9.1810   -0.1220   21.4310 C   0  0  0  0  0  0  0  0  0  0  0  0
    9.4640   -0.6530   22.5890 C   0  0  0  0  0  0  0  0  0  0  0  0
   10.5220   -0.8510   21.7110 C   0  0  0  0  0  0  0  0  0  0  0  0
   11.7460   -1.4240   21.9030 C   0  0  0  0  0  0  0  0  0  0  0  0
   12.4650   -1.9950   22.8230 C   0  0  0  0  0  0  0  0  0  0  0  0
   11.5180   -1.9010   23.7470 C   0  0  0  0  0  0  0  0  0  0  0  0
   11.1820   -2.1370   24.9310 N   0  0  0  0  0  0  0  0  0  0  0  0
    9.5570   -1.3600   24.7480 S   0  0  0  0  0  0  0  0  0  0  0  0
    9.1360   -0.6870   25.9640 O   0  0  0  0  0  0  0  0  0  0  0  0
    9.6310   -0.6110   23.5320 O   0  0  0  0  0  0  0  0  0  0  0  0
    8.2960   -2.5830   24.3930 C   0  0  0  0  0  0  0  0  0  0  0  0
    7.1020   -2.7180   25.0970 C   0  0  0  0  0  0  0  0  0  0  0  0
    6.1540   -3.6910   24.7780 C   0  0  0  0  0  0  0  0  0  0  0  0
    6.3200   -4.5970   23.7420 C   0  0  0  0  0  0  0  0  0  0  0  0
    5.2420   -5.8190   23.2630 Cl  0  0  0  0  0  0  0  0  0  0  0  0
    7.4820   -4.5110   23.0050 C   0  0  0  0  0  0  0  0  0  0  0  0
    8.4780   -3.5820   23.2430 C   0  0  0  0  0  0  0  0  0  0  0  0
   10.2980   -1.3580   23.6120 C   0  0  0  0  0  0  0  0  0  0  0  0
    5.9810   -0.9690   20.9050 N   0  0  0  0  0  0  0  0  0  0  0  0
    5.6860   -0.1400   19.9140 C   0  0  0  0  0  0  0  0  0  0  0  0
    4.6210    0.7460   19.9370 C   0  0  0  0  0  0  0  0  0  0  0  0
    4.3710    1.5880   18.8650 C   0  0  0  0  0  0  0  0  0  0  0  0
    5.1910    1.5530   17.7450 C   0  0  0  0  0  0  0  0  0  0  0  0
    6.2480    0.7290   17.6260 N   0  0  0  0  0  0  0  0  0  0  0  0
    6.4880   -0.1520   18.7850 C   0  0  0  0  0  0  0  0  0  0  0  0
  1  2  2  0
  2  3  1  0
  3  4  1  0
  4  5  1  0
  5  6  2  0
  6  7  1  0
  7  8  2  0
  8  9  1  0
  9 10  1  0
 11 10  1  0
 11 12  2  0
 11 13  2  0
 11 14  1  0
 14 15  2  0
 15 16  1  0
 16 17  2  0
 17 18  1  0
 17 19  1  0
 14 20  1  0
 19 20  2  0
  5 21  1  0
  9 21  2  0
  2 22  1  0
 22 23  1  0
 23 24  2  0
 24 25  1  0
 25 26  2  0
 26 27  1  0
 23 28  1  0
 27 28  2  0
M  END
