pyridine_urea_8281
     RDKit          3D

 23 24  0  0  0  0  0  0  0  0999 V2000
    9.4080   -0.4250   26.4580 N   0  0  0  0  0  0  0  0  0  0  0  0
    9.6350    0.1300   25.4620 C   0  0  0  0  0  0  0  0  0  0  0  0
    8.5190    1.0080   25.4080 O   0  0  0  0  0  0  0  0  0  0  0  0
   10.3820    0.5020   24.1790 C   0  0  2  0  0  0  0  0  0  0  0  0
    9.9350   -0.5000   23.0760 C   0  0  0  0  0  0  0  0  0  0  0  0
    8.4810   -0.5400   22.8370 N   0  0  0  0  0  0  0  0  0  0  0  0
    8.1120    0.0390   21.5570 C   0  0  0  0  0  0  0  0  0  0  0  0
    8.8520    1.1500   21.1660 O   0  0  0  0  0  0  0  0  0  0  0  0
    7.1010   -0.5610   20.9390 N   0  0  0  0  0  0  0  0  0  0  0  0
    6.3720    0.1140   19.9730 C   0  0  0  0  0  0  0  0  0  0  0  0
    5.1830    0.7890   20.2070 C   0  0  0  0  0  0  0  0  0  0  0  0
    4.4690    1.5240   19.1080 C   0  0  0  0  0  0  0  0  0  0  0  0
    5.1340    1.4720   17.7610 C   0  0  0  0  0  0  0  0  0  0  0  0
    6.2950    0.7820   17.5900 N   0  0  0  0  0  0  0  0  0  0  0  0
    6.8720    0.1310   18.6870 C   0  0  0  0  0  0  0  0  0  0  0  0
   11.7710    0.6120   24.1910 C   0  0  0  0  0  0  0  0  0  0  0  0
   12.3560   -0.1840   23.0820 C   0  0  0  0  0  0  0  0  0  0  0  0
   13.5370   -0.0470   22.3490 C   0  0  0  0  0  0  0  0  0  0  0  0
   13.4880   -1.1760   21.4180 C   0  0  0  0  0  0  0  0  0  0  0  0
   12.3820   -2.1560   21.3780 C   0  0  0  0  0  0  0  0  0  0  0  0
   12.5650   -3.1030   20.4520 F   0  0  0  0  0  0  0  0  0  0  0  0
   11.2310   -2.1260   22.2160 C   0  0  0  0  0  0  0  0  0  0  0  0
   12.1210   -1.2360   22.3450 C   0  0  0  0  0  0  0  0  0  0  0  0
  1  2  1  0
  2  3  2  0
  2  4  1  0
  4  5  1  6
  5  6  1  0
  6  7  1  0
  7  8  2  0
  7  9  1  0
  9 10  1  0
 10 11  2  0
 11 12  1  0
 12 13  2  0
 13 14  1  0
 10 15  1  0
 14 15  2  0
  4 16  1  0
 16 17  1  0
 17 18  2  0
 18 19  1  0
 19 20  2  0
 20 21  1  0
 20 22  1  0
 17 23  1  0
 22 23  2  0
M  END
