pyridine_urea_203
     RDKit          3D

 18 19  0  0  0  0  0  0  0  0999 V2000
   12.8850   -2.5900   21.0450 C   0  0  0  0  0  0  0  0  0  0  0  0
   11.5450   -2.1820   21.2600 O   0  0  0  0  0  0  0  0  0  0  0  0
   11.4320   -1.4630   22.4740 C   0  0  1  0  0  0  0  0  0  0  0  0
   12.8090   -0.8340   22.6890 C   0  0  0  0  0  0  0  0  0  0  0  0
   12.7690    0.1850   23.7570 C   0  0  0  0  0  0  0  0  0  0  0  0
   11.5540    0.5060   24.3120 C   0  0  0  0  0  0  0  0  0  0  0  0
   10.1890    0.1390   23.7730 C   0  0  0  0  0  0  0  0  0  0  0  0
   10.3600   -0.5440   22.5040 C   0  0  2  0  0  0  0  0  0  0  0  0
    9.1170   -1.1230   22.0810 N   0  0  0  0  0  0  0  0  0  0  0  0
    8.3060   -0.2230   21.4380 C   0  0  0  0  0  0  0  0  0  0  0  0
    8.6450    0.9410   21.2680 O   0  0  0  0  0  0  0  0  0  0  0  0
    7.1150   -0.7380   21.0100 N   0  0  0  0  0  0  0  0  0  0  0  0
    6.3830   -0.0400   20.0440 C   0  0  0  0  0  0  0  0  0  0  0  0
    5.1940    0.6490   20.2200 C   0  0  0  0  0  0  0  0  0  0  0  0
    4.5690    1.3240   19.1850 C   0  0  0  0  0  0  0  0  0  0  0  0
    5.1590    1.3030   17.9450 C   0  0  0  0  0  0  0  0  0  0  0  0
    6.3120    0.6420   17.7180 N   0  0  0  0  0  0  0  0  0  0  0  0
    6.8860   -0.0050   18.7560 C   0  0  0  0  0  0  0  0  0  0  0  0
  1  2  1  0
  3  2  1  6
  3  4  1  0
  4  5  1  0
  5  6  1  0
  6  7  1  0
  3  8  1  0
  7  8  1  0
  8  9  1  1
  9 10  1  0
 10 11  2  0
 10 12  1  0
 12 13  1  0
 13 14  2  0
 14 15  1  0
 15 16  2  0
 16 17  1  0
 13 18  1  0
 17 18  2  0
M  END
