pyridine_urea_4087
     RDKit          3D

 25 26  0  0  0  0  0  0  0  0999 V2000
    2.9900    3.3040   26.4240 C   0  0  0  0  0  0  0  0  0  0  0  0
    4.1490    2.4770   26.4000 O   0  0  0  0  0  0  0  0  0  0  0  0
    4.9490    2.6780   25.2900 C   0  0  0  0  0  0  0  0  0  0  0  0
    4.6540    3.4550   24.3900 O   0  0  0  0  0  0  0  0  0  0  0  0
    6.1300    1.9300   25.2680 C   0  0  0  0  0  0  0  0  0  0  0  0
    7.1220    2.1660   24.3190 C   0  0  0  0  0  0  0  0  0  0  0  0
    8.2620    1.3990   24.3530 C   0  0  0  0  0  0  0  0  0  0  0  0
    8.4930    0.3950   25.2870 C   0  0  0  0  0  0  0  0  0  0  0  0
    9.5310   -0.2620   25.2770 O   0  0  0  0  0  0  0  0  0  0  0  0
   10.5470    0.1030   24.3400 C   0  0  0  0  0  0  0  0  0  0  0  0
   10.5020   -0.6140   22.9690 C   0  0  0  0  0  0  0  0  0  0  0  0
    9.1580   -0.6980   22.4200 N   0  0  0  0  0  0  0  0  0  0  0  0
    8.5450    0.0650   21.4710 C   0  0  0  0  0  0  0  0  0  0  0  0
    9.0070    1.1760   21.1720 O   0  0  0  0  0  0  0  0  0  0  0  0
    7.4190   -0.4850   20.9320 N   0  0  0  0  0  0  0  0  0  0  0  0
    6.5760    0.1350   19.9990 C   0  0  0  0  0  0  0  0  0  0  0  0
    5.3950    0.8180   20.2910 C   0  0  0  0  0  0  0  0  0  0  0  0
    4.6630    1.4020   19.2620 C   0  0  0  0  0  0  0  0  0  0  0  0
    5.1430    1.2760   17.9790 C   0  0  0  0  0  0  0  0  0  0  0  0
    6.2650    0.6200   17.6660 N   0  0  0  0  0  0  0  0  0  0  0  0
    6.9520    0.0660   18.6760 C   0  0  0  0  0  0  0  0  0  0  0  0
    7.5030    0.1450   26.2480 C   0  0  0  0  0  0  0  0  0  0  0  0
    7.7500   -0.8500   27.1580 O   0  0  0  0  0  0  0  0  0  0  0  0
    8.2590   -0.4960   28.4400 C   0  0  0  0  0  0  0  0  0  0  0  0
    6.3240    0.9160   26.2360 C   0  0  0  0  0  0  0  0  0  0  0  0
  1  2  1  0
  2  3  1  0
  3  4  2  0
  3  5  1  0
  5  6  2  0
  6  7  1  0
  7  8  2  0
  8  9  1  0
  9 10  1  0
 10 11  1  0
 11 12  1  0
 12 13  1  0
 13 14  2  0
 13 15  1  0
 15 16  1  0
 16 17  2  0
 17 18  1  0
 18 19  2  0
 19 20  1  0
 16 21  1  0
 20 21  2  0
  8 22  1  0
 22 23  1  0
 23 24  1  0
  5 25  1  0
 22 25  2  0
M  END
