pyridine_urea_12628
     RDKit          3D

 21 22  0  0  0  0  0  0  0  0999 V2000
   11.5200   -1.9420   24.3500 C   0  0  0  0  0  0  0  0  0  0  0  0
   11.6490   -1.2000   22.9910 C   0  0  0  0  0  0  0  0  0  0  0  0
   11.6270   -2.2300   21.8960 C   0  0  0  0  0  0  0  0  0  0  0  0
   13.0580   -0.5520   22.9050 C   0  0  0  0  0  0  0  0  0  0  0  0
   10.4320   -0.2810   22.7560 C   0  0  1  0  0  0  0  0  0  0  0  0
    9.1590   -0.8540   22.3430 N   0  0  0  0  0  0  0  0  0  0  0  0
    8.4450   -0.0550   21.4670 C   0  0  0  0  0  0  0  0  0  0  0  0
    8.8870    1.2090   21.1300 O   0  0  0  0  0  0  0  0  0  0  0  0
    7.2850   -0.6360   21.0060 N   0  0  0  0  0  0  0  0  0  0  0  0
    6.5100    0.0220   20.0460 C   0  0  0  0  0  0  0  0  0  0  0  0
    5.3240    0.7440   20.2790 C   0  0  0  0  0  0  0  0  0  0  0  0
    4.6470    1.3830   19.2500 C   0  0  0  0  0  0  0  0  0  0  0  0
    5.1300    1.3250   17.9520 C   0  0  0  0  0  0  0  0  0  0  0  0
    6.2740    0.6180   17.7080 N   0  0  0  0  0  0  0  0  0  0  0  0
    6.9520   -0.0240   18.7360 C   0  0  0  0  0  0  0  0  0  0  0  0
   10.3850    0.6830   23.7380 C   0  0  0  0  0  0  0  0  0  0  0  0
   11.6050    1.1430   24.0760 C   0  0  0  0  0  0  0  0  0  0  0  0
   12.2730    1.7310   22.9990 C   0  0  0  0  0  0  0  0  0  0  0  0
   11.6410    2.9270   22.7440 C   0  0  0  0  0  0  0  0  0  0  0  0
   10.1260    2.9110   22.8770 C   0  0  0  0  0  0  0  0  0  0  0  0
    9.5620    1.8050   23.5180 C   0  0  0  0  0  0  0  0  0  0  0  0
  2  1  1  0
  2  3  1  0
  2  4  1  0
  2  5  1  0
  5  6  1  1
  6  7  1  0
  7  8  2  0
  7  9  1  0
  9 10  1  0
 10 11  2  0
 11 12  1  0
 12 13  2  0
 13 14  1  0
 10 15  1  0
 14 15  2  0
  5 16  1  0
 16 17  1  0
 17 18  1  0
 18 19  1  0
 19 20  1  0
 16 21  1  0
 20 21  1  0
M  END
