pyridine_urea_12282
     RDKit          3D

 22 23  0  0  0  0  0  0  0  0999 V2000
   11.7080    1.2300   23.8240 C   0  0  0  0  0  0  0  0  0  0  0  0
   10.3450    0.5480   23.8980 C   0  0  0  0  0  0  0  0  0  0  0  0
   10.4380   -0.5430   25.0230 C   0  0  0  0  0  0  0  0  0  0  0  0
   10.0680   -0.1160   22.5380 C   0  0  2  0  0  0  0  0  0  0  0  0
    8.7510   -0.4910   22.4040 N   0  0  0  0  0  0  0  0  0  0  0  0
    7.9750   -0.0290   21.4150 C   0  0  0  0  0  0  0  0  0  0  0  0
    8.2530    1.0840   20.9910 O   0  0  0  0  0  0  0  0  0  0  0  0
    6.9710   -0.7830   20.9640 N   0  0  0  0  0  0  0  0  0  0  0  0
    6.3300   -0.0840   20.0270 C   0  0  0  0  0  0  0  0  0  0  0  0
    5.0290    0.6950   20.2370 C   0  0  0  0  0  0  0  0  0  0  0  0
    4.3590    1.4960   19.1320 C   0  0  0  0  0  0  0  0  0  0  0  0
    5.1400    1.4180   17.8320 C   0  0  0  0  0  0  0  0  0  0  0  0
    6.2970    0.6900   17.7240 N   0  0  0  0  0  0  0  0  0  0  0  0
    6.8750   -0.0330   18.7630 C   0  0  0  0  0  0  0  0  0  0  0  0
   10.9740   -1.2640   22.2580 C   0  0  1  0  0  0  0  0  0  0  0  0
   11.2460   -1.6230   21.1280 O   0  0  0  0  0  0  0  0  0  0  0  0
   12.2520   -0.9710   22.9220 C   0  0  0  0  0  0  0  0  0  0  0  0
   13.3320   -1.1100   23.7680 C   0  0  0  0  0  0  0  0  0  0  0  0
   13.6450   -2.0990   24.7020 C   0  0  0  0  0  0  0  0  0  0  0  0
   12.8930   -3.1260   24.9500 C   0  0  0  0  0  0  0  0  0  0  0  0
   11.7730   -3.2160   24.2740 C   0  0  0  0  0  0  0  0  0  0  0  0
   11.4670   -2.2530   23.3460 C   0  0  0  0  0  0  0  0  0  0  0  0
  1  2  1  0
  2  3  1  0
  2  4  1  0
  4  5  1  1
  5  6  1  0
  6  7  2  0
  6  8  1  0
  8  9  1  0
  9 10  2  0
 10 11  1  0
 11 12  2  0
 12 13  1  0
  9 14  1  0
 13 14  2  0
  4 15  1  0
 15 16  1  6
 15 17  1  0
 17 18  2  0
 18 19  1  0
 19 20  2  0
 20 21  1  0
 17 22  1  0
 21 22  2  0
M  END
