pyridine_urea_8128
     RDKit          3D

 23 23  0  0  0  0  0  0  0  0999 V2000
   13.4780   -2.9270   25.6620 C   0  0  0  0  0  0  0  0  0  0  0  0
   12.2800   -2.1510   25.1340 C   0  0  0  0  0  0  0  0  0  0  0  0
   12.1800   -2.5930   23.6790 C   0  0  2  0  0  0  0  0  0  0  0  0
   13.3230   -2.3690   22.9440 C   0  0  0  0  0  0  0  0  0  0  0  0
   11.0960   -1.7810   22.9970 C   0  0  2  0  0  0  0  0  0  0  0  0
   10.1840   -2.5860   22.3370 N   0  0  0  0  0  0  0  0  0  0  0  0
    8.8760   -2.8760   22.7620 C   0  0  0  0  0  0  0  0  0  0  0  0
    8.4600   -4.0120   22.9700 O   0  0  0  0  0  0  0  0  0  0  0  0
    7.8510   -1.7680   23.0130 C   0  0  0  0  0  0  0  0  0  0  0  0
    8.6360   -0.6160   22.6860 N   0  0  0  0  0  0  0  0  0  0  0  0
    8.1880    0.0090   21.5220 C   0  0  0  0  0  0  0  0  0  0  0  0
    8.6670    1.2900   21.0340 O   0  0  0  0  0  0  0  0  0  0  0  0
    7.2340   -0.6850   20.8590 N   0  0  0  0  0  0  0  0  0  0  0  0
    6.4870    0.0090   19.9900 C   0  0  0  0  0  0  0  0  0  0  0  0
    5.2550    0.8210   20.3340 C   0  0  0  0  0  0  0  0  0  0  0  0
    4.5160    1.5640   19.2420 C   0  0  0  0  0  0  0  0  0  0  0  0
    5.1510    1.3810   17.8710 C   0  0  0  0  0  0  0  0  0  0  0  0
    6.2460    0.6310   17.6510 N   0  0  0  0  0  0  0  0  0  0  0  0
    6.8530   -0.0050   18.6600 C   0  0  0  0  0  0  0  0  0  0  0  0
   11.7240   -0.9630   22.0790 C   0  0  0  0  0  0  0  0  0  0  0  0
   12.4900   -1.5740   21.0350 O   0  0  0  0  0  0  0  0  0  0  0  0
   11.5480    0.2290   22.2930 O   0  0  0  0  0  0  0  0  0  0  0  0
   12.6520    0.8050   22.9870 C   0  0  0  0  0  0  0  0  0  0  0  0
  1  2  1  0
  2  3  1  0
  3  4  1  6
  3  5  1  0
  5  6  1  6
  6  7  1  0
  7  8  2  0
  7  9  1  0
  9 10  1  0
 10 11  1  0
 11 12  2  0
 11 13  1  0
 13 14  1  0
 14 15  2  0
 15 16  1  0
 16 17  2  0
 17 18  1  0
 14 19  1  0
 18 19  2  0
  5 20  1  0
 20 21  2  0
 20 22  1  0
 22 23  1  0
M  END
