pyridine_urea_6487
     RDKit          3D

 22 24  0  0  0  0  0  0  0  0999 V2000
   13.8230   -2.6110   24.0940 C   0  0  0  0  0  0  0  0  0  0  0  0
   12.9840   -1.8460   24.2500 C   0  0  0  0  0  0  0  0  0  0  0  0
   12.0230   -0.8750   24.9220 C   0  0  0  0  0  0  0  0  0  0  0  0
   12.1420   -2.7590   23.3950 C   0  0  0  0  0  0  0  0  0  0  0  0
   11.5050   -1.9090   22.6160 C   0  0  0  0  0  0  0  0  0  0  0  0
   11.3640   -0.5050   23.0560 C   0  0  0  0  0  0  0  0  0  0  0  0
    9.7990    0.0470   23.2500 S   0  0  0  0  0  0  0  0  0  0  0  0
   10.0440    1.6550   23.7120 C   0  0  0  0  0  0  0  0  0  0  0  0
    8.7560    1.3100   23.6390 C   0  0  0  0  0  0  0  0  0  0  0  0
    8.3720    1.1280   22.2330 N   0  0  0  0  0  0  0  0  0  0  0  0
    8.3580   -0.0850   21.5560 C   0  0  0  0  0  0  0  0  0  0  0  0
    9.3560   -0.6920   21.2500 O   0  0  0  0  0  0  0  0  0  0  0  0
    7.0760   -0.4510   21.2470 N   0  0  0  0  0  0  0  0  0  0  0  0
    6.4110    0.1470   20.0910 C   0  0  0  0  0  0  0  0  0  0  0  0
    5.2600    0.8770   20.3530 C   0  0  0  0  0  0  0  0  0  0  0  0
    4.5850    1.4900   19.3270 C   0  0  0  0  0  0  0  0  0  0  0  0
    5.1530    1.3280   17.9490 C   0  0  0  0  0  0  0  0  0  0  0  0
    6.2560    0.6240   17.6450 N   0  0  0  0  0  0  0  0  0  0  0  0
    6.8690    0.0470   18.7030 C   0  0  0  0  0  0  0  0  0  0  0  0
   11.6500    1.4240   23.6220 C   0  0  0  0  0  0  0  0  0  0  0  0
   12.5730    0.3500   23.3180 C   0  0  0  0  0  0  0  0  0  0  0  0
   13.0350   -0.9200   22.9740 C   0  0  0  0  0  0  0  0  0  0  0  0
  2  1  1  0
  2  3  1  0
  2  4  1  0
  4  5  1  0
  5  6  1  0
  6  7  1  0
  7  8  1  0
  8  9  1  0
  9 10  1  0
 10 11  1  0
 11 12  2  0
 11 13  1  0
 13 14  1  0
 14 15  2  0
 15 16  1  0
 16 17  2  0
 17 18  1  0
 14 19  1  0
 18 19  2  0
  8 20  2  0
  6 21  2  0
 20 21  1  0
  2 22  1  0
 21 22  1  0
M  END
