pyridine_urea_6566
     RDKit          3D

 22 23  0  0  0  0  0  0  0  0999 V2000
    9.1080   -0.1390   26.1440 C   0  0  0  0  0  0  0  0  0  0  0  0
    8.6960   -0.2270   24.7750 O   0  0  0  0  0  0  0  0  0  0  0  0
    9.1220    0.7940   23.9560 C   0  0  0  0  0  0  0  0  0  0  0  0
    8.9520    1.9880   24.2320 O   0  0  0  0  0  0  0  0  0  0  0  0
    9.8100    0.2580   22.6840 C   0  0  2  0  0  0  0  0  0  0  0  0
    8.9160   -0.7400   22.0540 N   0  0  0  0  0  0  0  0  0  0  0  0
    8.0650   -0.0830   21.2560 C   0  0  0  0  0  0  0  0  0  0  0  0
    8.3410    1.0530   20.8930 O   0  0  0  0  0  0  0  0  0  0  0  0
    6.9330   -0.7280   20.9000 N   0  0  0  0  0  0  0  0  0  0  0  0
    6.2690   -0.0430   19.9040 C   0  0  0  0  0  0  0  0  0  0  0  0
    5.0470    0.5590   20.1480 C   0  0  0  0  0  0  0  0  0  0  0  0
    4.4620    1.2620   19.1100 C   0  0  0  0  0  0  0  0  0  0  0  0
    5.1020    1.3420   17.8830 C   0  0  0  0  0  0  0  0  0  0  0  0
    6.2750    0.7560   17.6340 N   0  0  0  0  0  0  0  0  0  0  0  0
    6.8290    0.0760   18.6510 C   0  0  0  0  0  0  0  0  0  0  0  0
   11.1200   -0.3810   23.0310 C   0  0  0  0  0  0  0  0  0  0  0  0
   10.9410   -1.5500   23.1040 O   0  0  0  0  0  0  0  0  0  0  0  0
   11.1730   -2.2380   21.8830 C   0  0  0  0  0  0  0  0  0  0  0  0
   12.4780   -0.1190   22.2400 C   0  0  0  0  0  0  0  0  0  0  0  0
   13.1410    0.0140   23.5210 C   0  0  0  0  0  0  0  0  0  0  0  0
   12.3780    0.5700   24.4090 C   0  0  0  0  0  0  0  0  0  0  0  0
   11.1790    0.1920   24.2520 C   0  0  0  0  0  0  0  0  0  0  0  0
  1  2  1  0
  2  3  1  0
  3  4  2  0
  3  5  1  0
  5  6  1  1
  6  7  1  0
  7  8  2  0
  7  9  1  0
  9 10  1  0
 10 11  2  0
 11 12  1  0
 12 13  2  0
 13 14  1  0
 10 15  1  0
 14 15  2  0
  5 16  1  0
 16 17  1  0
 17 18  1  0
 16 19  1  0
 19 20  1  0
 20 21  1  0
 16 22  1  0
 21 22  1  0
M  END
