pyridine_urea_7798
     RDKit          3D

 27 29  0  0  0  0  0  0  0  0999 V2000
    9.2400   -0.7960   21.4650 C   0  0  0  0  0  0  0  0  0  0  0  0
    8.5690   -1.8980   22.2510 C   0  0  0  0  0  0  0  0  0  0  0  0
    9.4950   -2.8360   22.6060 C   0  0  0  0  0  0  0  0  0  0  0  0
    7.9220   -1.4360   23.5750 C   0  0  0  0  0  0  0  0  0  0  0  0
    7.5090   -2.5770   21.3810 C   0  0  0  0  0  0  0  0  0  0  0  0
    6.9190   -3.6690   22.0090 C   0  0  0  0  0  0  0  0  0  0  0  0
    5.9410   -4.4340   21.4300 C   0  0  0  0  0  0  0  0  0  0  0  0
    5.5370   -4.0060   20.0400 C   0  0  0  0  0  0  0  0  0  0  0  0
    6.1200   -2.9130   19.4150 C   0  0  0  0  0  0  0  0  0  0  0  0
    7.1060   -2.1910   20.0620 C   0  0  0  0  0  0  0  0  0  0  0  0
    7.6030   -1.2300   19.4770 O   0  0  0  0  0  0  0  0  0  0  0  0
    6.7350   -0.1850   19.3130 C   0  0  0  0  0  0  0  0  0  0  0  0
    6.1530    0.0640   18.0150 N   0  0  0  0  0  0  0  0  0  0  0  0
    5.2530    1.1040   17.9090 C   0  0  0  0  0  0  0  0  0  0  0  0
    4.9540    1.8540   19.0510 C   0  0  0  0  0  0  0  0  0  0  0  0
    5.5500    1.5910   20.2830 C   0  0  0  0  0  0  0  0  0  0  0  0
    6.4600    0.5590   20.4100 C   0  0  0  0  0  0  0  0  0  0  0  0
    7.1130    0.2400   21.5780 N   0  0  0  0  0  0  0  0  0  0  0  0
    8.4510    0.6690   21.8040 C   0  0  0  0  0  0  0  0  0  0  0  0
    8.9730    1.6000   21.1880 O   0  0  0  0  0  0  0  0  0  0  0  0
    9.0830   -0.0720   22.7670 N   0  0  0  0  0  0  0  0  0  0  0  0
   10.4440    0.0330   22.8400 C   0  0  0  0  0  0  0  0  0  0  0  0
   11.4000   -0.9890   22.4660 C   0  0  0  0  0  0  0  0  0  0  0  0
   12.7470   -0.6820   22.6100 C   0  0  0  0  0  0  0  0  0  0  0  0
   12.8510    0.5510   23.0830 C   0  0  0  0  0  0  0  0  0  0  0  0
   12.2250    1.6210   23.4800 N   0  0  0  0  0  0  0  0  0  0  0  0
   10.9150    1.2860   23.3350 C   0  0  0  0  0  0  0  0  0  0  0  0
  2  1  1  0
  2  3  1  0
  2  4  1  0
  2  5  1  0
  5  6  2  0
  6  7  1  0
  7  8  2  0
  8  9  1  0
  5 10  1  0
  9 10  2  0
 10 11  1  0
 11 12  1  0
 12 13  2  0
 13 14  1  0
 14 15  2  0
 15 16  1  0
 12 17  1  0
 16 17  2  0
 17 18  1  0
 18 19  1  0
 19 20  2  0
 19 21  1  0
 21 22  1  0
 22 23  2  0
 23 24  1  0
 24 25  2  0
 25 26  1  0
 22 27  1  0
 26 27  2  0
M  END
