pyridine_urea_13032
     RDKit          3D

 18 19  0  0  0  0  0  0  0  0999 V2000
   12.7970   -1.4150   21.9530 C   0  0  0  0  0  0  0  0  0  0  0  0
   11.4620   -1.6610   22.6140 C   0  0  1  0  0  0  0  0  0  0  0  0
   11.8850   -1.8970   23.9630 N   0  0  0  0  0  0  0  0  0  0  0  0
   12.3290   -0.5890   24.4890 C   0  0  0  0  0  0  0  0  0  0  0  0
   13.0600   -0.5200   25.4730 O   0  0  0  0  0  0  0  0  0  0  0  0
   11.8800    0.5520   23.8340 C   0  0  0  0  0  0  0  0  0  0  0  0
   10.5680    0.4170   23.4360 C   0  0  0  0  0  0  0  0  0  0  0  0
   10.4640   -0.7100   22.4270 C   0  0  2  0  0  0  0  0  0  0  0  0
    9.1230   -1.0020   22.2680 N   0  0  0  0  0  0  0  0  0  0  0  0
    8.2960   -0.1810   21.4590 C   0  0  0  0  0  0  0  0  0  0  0  0
    8.6290    0.9670   21.1870 O   0  0  0  0  0  0  0  0  0  0  0  0
    7.1570   -0.7780   21.0470 N   0  0  0  0  0  0  0  0  0  0  0  0
    6.4550   -0.0840   20.1010 C   0  0  0  0  0  0  0  0  0  0  0  0
    5.2710    0.6240   20.3400 C   0  0  0  0  0  0  0  0  0  0  0  0
    4.6530    1.3000   19.2940 C   0  0  0  0  0  0  0  0  0  0  0  0
    5.2390    1.2510   18.0320 C   0  0  0  0  0  0  0  0  0  0  0  0
    6.3710    0.5780   17.7830 N   0  0  0  0  0  0  0  0  0  0  0  0
    6.9480   -0.0710   18.8110 C   0  0  0  0  0  0  0  0  0  0  0  0
  2  1  1  6
  2  3  1  0
  3  4  1  0
  4  5  2  0
  4  6  1  0
  6  7  1  0
  2  8  1  0
  7  8  1  0
  8  9  1  1
  9 10  1  0
 10 11  2  0
 10 12  1  0
 12 13  1  0
 13 14  2  0
 14 15  1  0
 15 16  2  0
 16 17  1  0
 13 18  1  0
 17 18  2  0
M  END
