pyridine_urea_6940
     RDKit          3D

 20 20  0  0  0  0  0  0  0  0999 V2000
   12.6400    1.4240   22.9670 C   0  0  0  0  0  0  0  0  0  0  0  0
   11.9750    0.5040   23.4230 O   0  0  0  0  0  0  0  0  0  0  0  0
   10.6730    0.3450   23.0050 C   0  0  0  0  0  0  0  0  0  0  0  0
   10.3290   -0.9700   22.7780 C   0  0  2  0  0  0  0  0  0  0  0  0
   10.4860   -1.9880   23.7310 C   0  0  0  0  0  0  0  0  0  0  0  0
   11.4470   -1.9380   22.4970 C   0  0  0  0  0  0  0  0  0  0  0  0
   12.6850   -1.2860   22.3660 C   0  0  0  0  0  0  0  0  0  0  0  0
   13.7250   -0.7440   22.6840 O   0  0  0  0  0  0  0  0  0  0  0  0
   12.5130   -1.4000   23.5790 O   0  0  0  0  0  0  0  0  0  0  0  0
   13.2930   -2.4210   24.2280 C   0  0  0  0  0  0  0  0  0  0  0  0
    9.2250   -1.1920   21.8500 N   0  0  0  0  0  0  0  0  0  0  0  0
    8.3670   -0.1970   21.4130 C   0  0  0  0  0  0  0  0  0  0  0  0
    8.7210    0.9590   21.2350 O   0  0  0  0  0  0  0  0  0  0  0  0
    7.0310   -0.7400   21.1960 N   0  0  0  0  0  0  0  0  0  0  0  0
    6.3980   -0.0240   20.0700 C   0  0  0  0  0  0  0  0  0  0  0  0
    5.2340    0.6900   20.2840 C   0  0  0  0  0  0  0  0  0  0  0  0
    4.5890    1.3920   19.2820 C   0  0  0  0  0  0  0  0  0  0  0  0
    5.2300    1.3310   17.9480 C   0  0  0  0  0  0  0  0  0  0  0  0
    6.3660    0.6280   17.7410 N   0  0  0  0  0  0  0  0  0  0  0  0
    6.9240   -0.0320   18.7900 C   0  0  0  0  0  0  0  0  0  0  0  0
  1  2  1  0
  2  3  1  0
  3  4  1  0
  4  5  1  1
  4  6  1  0
  6  7  1  0
  7  8  2  0
  7  9  1  0
  9 10  1  0
  4 11  1  0
 11 12  1  0
 12 13  2  0
 12 14  1  0
 14 15  1  0
 15 16  2  0
 16 17  1  0
 17 18  2  0
 18 19  1  0
 15 20  1  0
 19 20  2  0
M  END
