pyridine_urea_11815
     RDKit          3D

 25 27  0  0  0  0  0  0  0  0999 V2000
    8.0860    2.1940   24.7200 C   0  0  0  0  0  0  0  0  0  0  0  0
    6.8840    1.6740   25.4650 C   0  0  0  0  0  0  0  0  0  0  0  0
    7.3280    0.7130   26.4430 O   0  0  0  0  0  0  0  0  0  0  0  0
    7.8640   -0.4210   25.9060 C   0  0  0  0  0  0  0  0  0  0  0  0
    7.2090   -1.7040   25.8130 O   0  0  0  0  0  0  0  0  0  0  0  0
    9.1580   -0.4450   25.3600 C   0  0  0  0  0  0  0  0  0  0  0  0
   10.3160   -0.4190   25.9770 C   0  0  0  0  0  0  0  0  0  0  0  0
   11.5860   -0.4450   25.3360 C   0  0  0  0  0  0  0  0  0  0  0  0
   12.0630   -0.4950   24.0570 C   0  0  0  0  0  0  0  0  0  0  0  0
   12.0260   -0.5470   22.6880 N   0  0  0  0  0  0  0  0  0  0  0  0
   11.3760   -1.6400   22.1170 C   0  0  0  0  0  0  0  0  0  0  0  0
   10.2860   -0.9450   21.7770 C   0  0  0  0  0  0  0  0  0  0  0  0
    8.9890   -1.1740   22.0250 N   0  0  0  0  0  0  0  0  0  0  0  0
    8.0820   -0.3090   21.3820 C   0  0  0  0  0  0  0  0  0  0  0  0
    8.4540    0.9390   21.1970 O   0  0  0  0  0  0  0  0  0  0  0  0
    6.9250   -0.8590   20.9880 N   0  0  0  0  0  0  0  0  0  0  0  0
    6.2850   -0.1190   20.0490 C   0  0  0  0  0  0  0  0  0  0  0  0
    5.0980    0.5820   20.2620 C   0  0  0  0  0  0  0  0  0  0  0  0
    4.4970    1.3340   19.2520 C   0  0  0  0  0  0  0  0  0  0  0  0
    5.2510    1.3050   17.9500 C   0  0  0  0  0  0  0  0  0  0  0  0
    6.3870    0.6270   17.7570 N   0  0  0  0  0  0  0  0  0  0  0  0
    6.8650   -0.0590   18.8000 C   0  0  0  0  0  0  0  0  0  0  0  0
   10.7360    0.1240   22.5100 C   0  0  0  0  0  0  0  0  0  0  0  0
   10.7740   -0.5260   23.4550 N   0  0  0  0  0  0  0  0  0  0  0  0
    9.4210   -0.5090   23.9340 C   0  0  0  0  0  0  0  0  0  0  0  0
  1  2  1  0
  2  3  1  0
  3  4  1  0
  4  5  2  0
  4  6  1  0
  6  7  2  0
  7  8  1  0
  8  9  2  0
  9 10  1  0
 10 11  1  0
 11 12  1  0
 12 13  1  0
 13 14  1  0
 14 15  2  0
 14 16  1  0
 16 17  1  0
 17 18  2  0
 18 19  1  0
 19 20  2  0
 20 21  1  0
 17 22  1  0
 21 22  2  0
 10 23  1  0
 12 23  1  0
  9 24  1  0
  6 25  1  0
 24 25  2  0
M  END
