pyridine_urea_6183
     RDKit          3D

 24 25  0  0  0  0  0  0  0  0999 V2000
   11.2950    5.0560   22.7150 C   0  0  0  0  0  0  0  0  0  0  0  0
   10.8950    4.8620   23.8330 C   0  0  0  0  0  0  0  0  0  0  0  0
   10.0270    4.8270   25.0940 C   0  0  0  0  0  0  0  0  0  0  0  0
   12.1140    5.5650   24.4510 C   0  0  0  0  0  0  0  0  0  0  0  0
   11.0970    3.4060   23.7800 O   0  0  0  0  0  0  0  0  0  0  0  0
   11.8440    2.7340   22.8500 C   0  0  0  0  0  0  0  0  0  0  0  0
   12.5390    3.3160   22.0370 O   0  0  0  0  0  0  0  0  0  0  0  0
   11.7200    1.1610   22.9330 C   0  0  0  0  0  0  0  0  0  0  0  0
   13.0230    0.4830   22.7400 C   0  0  0  0  0  0  0  0  0  0  0  0
   13.2530   -0.8260   22.7290 C   0  0  0  0  0  0  0  0  0  0  0  0
   11.9460   -1.4200   22.9620 C   0  0  0  0  0  0  0  0  0  0  0  0
   10.8000   -0.7300   23.1430 C   0  0  0  0  0  0  0  0  0  0  0  0
   10.4240    0.6090   23.1710 C   0  0  0  0  0  0  0  0  0  0  0  0
    9.3500   -0.2250   23.3840 C   0  0  0  0  0  0  0  0  0  0  0  0
    8.9600   -0.8660   22.1800 N   0  0  0  0  0  0  0  0  0  0  0  0
    8.2760   -0.0540   21.3390 C   0  0  0  0  0  0  0  0  0  0  0  0
    8.7400    1.2550   20.9990 O   0  0  0  0  0  0  0  0  0  0  0  0
    7.0630   -0.6970   20.9060 N   0  0  0  0  0  0  0  0  0  0  0  0
    6.3510    0.0200   19.9560 C   0  0  0  0  0  0  0  0  0  0  0  0
    5.0660    0.7580   20.1680 C   0  0  0  0  0  0  0  0  0  0  0  0
    4.5160    1.4360   19.0820 C   0  0  0  0  0  0  0  0  0  0  0  0
    5.1810    1.3970   17.8610 C   0  0  0  0  0  0  0  0  0  0  0  0
    6.3340    0.7310   17.6600 N   0  0  0  0  0  0  0  0  0  0  0  0
    6.8790    0.0690   18.6920 C   0  0  0  0  0  0  0  0  0  0  0  0
  1  2  1  0
  2  3  1  0
  2  4  1  0
  2  5  1  0
  5  6  1  0
  6  7  2  0
  6  8  1  0
  8  9  2  0
  9 10  1  0
 10 11  2  0
 11 12  1  0
  8 13  1  0
 12 13  2  0
 13 14  1  0
 14 15  1  0
 15 16  1  0
 16 17  2  0
 16 18  1  0
 18 19  1  0
 19 20  2  0
 20 21  1  0
 21 22  2  0
 22 23  1  0
 19 24  1  0
 23 24  2  0
M  END
