pyridine_urea_3704
     RDKit          3D

 20 21  0  0  0  0  0  0  0  0999 V2000
   12.8860    1.2460   23.1210 C   0  0  0  0  0  0  0  0  0  0  0  0
   12.4840   -0.1910   23.3550 C   0  0  0  0  0  0  0  0  0  0  0  0
   12.7350   -0.7970   24.7300 C   0  0  0  0  0  0  0  0  0  0  0  0
   13.1490   -1.0430   22.3100 C   0  0  0  0  0  0  0  0  0  0  0  0
   12.2130   -2.0440   21.6760 C   0  0  0  0  0  0  0  0  0  0  0  0
   10.7210   -1.9350   21.9370 C   0  0  0  0  0  0  0  0  0  0  0  0
   10.5550   -1.5580   23.0740 O   0  0  0  0  0  0  0  0  0  0  0  0
   10.9790   -0.2180   23.2080 C   0  0  1  0  0  0  0  0  0  0  0  0
   10.2330    0.3110   24.2210 C   0  0  0  0  0  0  0  0  0  0  0  0
    8.9100    0.0240   23.9840 C   0  0  0  0  0  0  0  0  0  0  0  0
    8.7490   -0.6290   22.6950 N   0  0  0  0  0  0  0  0  0  0  0  0
    8.3350    0.1050   21.5980 C   0  0  0  0  0  0  0  0  0  0  0  0
    8.9360    1.2780   21.1960 O   0  0  0  0  0  0  0  0  0  0  0  0
    7.2490   -0.4980   21.0070 N   0  0  0  0  0  0  0  0  0  0  0  0
    6.4610    0.1370   20.0500 C   0  0  0  0  0  0  0  0  0  0  0  0
    5.2750    0.8160   20.3080 C   0  0  0  0  0  0  0  0  0  0  0  0
    4.5800    1.4560   19.1590 C   0  0  0  0  0  0  0  0  0  0  0  0
    5.1600    1.3350   17.9030 C   0  0  0  0  0  0  0  0  0  0  0  0
    6.3010    0.6650   17.6890 N   0  0  0  0  0  0  0  0  0  0  0  0
    6.9070    0.0930   18.7440 C   0  0  0  0  0  0  0  0  0  0  0  0
  2  1  1  0
  2  3  1  0
  2  4  1  0
  4  5  1  0
  5  6  1  0
  6  7  1  0
  2  8  1  0
  7  8  1  0
  8  9  1  1
  9 10  1  0
 10 11  1  0
 11 12  1  0
 12 13  2  0
 12 14  1  0
 14 15  1  0
 15 16  2  0
 16 17  1  0
 17 18  2  0
 18 19  1  0
 15 20  1  0
 19 20  2  0
M  END
