pyridine_urea_8787
     RDKit          3D

 21 23  0  0  0  0  0  0  0  0999 V2000
    8.6900    0.6030   21.1150 O   0  0  0  0  0  0  0  0  0  0  0  0
    8.4290   -0.5270   21.4980 C   0  0  0  0  0  0  0  0  0  0  0  0
    9.3180   -1.2370   22.3230 N   0  0  0  0  0  0  0  0  0  0  0  0
   10.4000   -0.3770   22.5600 C   0  0  0  0  0  0  0  0  0  0  0  0
   11.7980   -0.5240   22.5880 C   0  0  0  0  0  0  0  0  0  0  0  0
   12.5930    0.6600   22.7930 C   0  0  0  0  0  0  0  0  0  0  0  0
   11.9380    1.9240   22.9570 C   0  0  0  0  0  0  0  0  0  0  0  0
   12.3590    3.2010   23.1050 N   0  0  0  0  0  0  0  0  0  0  0  0
   13.5190    3.7620   22.7350 C   0  0  0  0  0  0  0  0  0  0  0  0
   13.5400    5.0910   23.0170 C   0  0  0  0  0  0  0  0  0  0  0  0
   12.3780    5.3700   23.5840 N   0  0  0  0  0  0  0  0  0  0  0  0
   11.5900    4.2240   23.6680 N   0  0  0  0  0  0  0  0  0  0  0  0
   10.5780    2.0200   22.9650 C   0  0  0  0  0  0  0  0  0  0  0  0
    9.7760    0.9770   22.7890 C   0  0  0  0  0  0  0  0  0  0  0  0
    7.2390   -1.0750   21.0990 N   0  0  0  0  0  0  0  0  0  0  0  0
    6.5250   -0.3470   20.1050 C   0  0  0  0  0  0  0  0  0  0  0  0
    5.3090    0.2880   20.4110 C   0  0  0  0  0  0  0  0  0  0  0  0
    4.6420    1.0190   19.4060 C   0  0  0  0  0  0  0  0  0  0  0  0
    5.1900    1.1040   18.1320 C   0  0  0  0  0  0  0  0  0  0  0  0
    6.3460    0.5010   17.8240 N   0  0  0  0  0  0  0  0  0  0  0  0
    6.9790   -0.2020   18.7980 C   0  0  0  0  0  0  0  0  0  0  0  0
  1  2  2  0
  2  3  1  0
  3  4  1  0
  4  5  2  0
  5  6  1  0
  6  7  2  0
  7  8  1  0
  8  9  1  0
  9 10  2  0
 10 11  1  0
  8 12  1  0
 11 12  2  0
  7 13  1  0
  4 14  1  0
 13 14  2  0
  2 15  1  0
 15 16  1  0
 16 17  2  0
 17 18  1  0
 18 19  2  0
 19 20  1  0
 16 21  1  0
 20 21  2  0
M  END
