pyridine_urea_6473
     RDKit          3D

 23 24  0  0  0  0  0  0  0  0999 V2000
    8.8290    0.6030   21.3670 O   0  0  0  0  0  0  0  0  0  0  0  0
    8.3290   -0.4780   21.6550 C   0  0  0  0  0  0  0  0  0  0  0  0
    7.1050   -0.8880   21.1580 N   0  0  0  0  0  0  0  0  0  0  0  0
    6.4930   -0.1530   20.0570 C   0  0  0  0  0  0  0  0  0  0  0  0
    5.2140    0.6170   20.3830 C   0  0  0  0  0  0  0  0  0  0  0  0
    4.6170    1.3630   19.2350 C   0  0  0  0  0  0  0  0  0  0  0  0
    5.2480    1.3030   18.0060 C   0  0  0  0  0  0  0  0  0  0  0  0
    6.3760    0.6060   17.7700 N   0  0  0  0  0  0  0  0  0  0  0  0
    6.9630   -0.0930   18.7660 C   0  0  0  0  0  0  0  0  0  0  0  0
    8.9300   -1.4060   22.5080 N   0  0  0  0  0  0  0  0  0  0  0  0
   10.3770   -1.2500   22.8240 C   0  0  0  0  0  0  0  0  0  0  0  0
   11.0130   -1.6140   21.7080 C   0  0  0  0  0  0  0  0  0  0  0  0
   12.4890   -1.3240   22.0480 C   0  0  0  0  0  0  0  0  0  0  0  0
   12.7440   -0.3800   22.9420 N   0  0  0  0  0  0  0  0  0  0  0  0
   13.1030    0.9180   22.7220 C   0  0  0  0  0  0  0  0  0  0  0  0
   14.4440    1.1800   22.5790 O   0  0  0  0  0  0  0  0  0  0  0  0
   12.2030    2.0570   22.7590 C   0  0  0  0  0  0  0  0  0  0  0  0
   12.5430    3.3950   22.4610 C   0  0  0  0  0  0  0  0  0  0  0  0
   12.0460    3.8430   21.2830 F   0  0  0  0  0  0  0  0  0  0  0  0
   11.8850    4.1510   23.3740 F   0  0  0  0  0  0  0  0  0  0  0  0
   13.8270    3.7720   22.5660 F   0  0  0  0  0  0  0  0  0  0  0  0
   11.8000   -0.1780   23.7980 C   0  0  0  0  0  0  0  0  0  0  0  0
   10.4940    0.2240   23.2350 C   0  0  0  0  0  0  0  0  0  0  0  0
  1  2  2  0
  2  3  1  0
  3  4  1  0
  4  5  2  0
  5  6  1  0
  6  7  2  0
  7  8  1  0
  4  9  1  0
  8  9  2  0
  2 10  1  0
 10 11  1  0
 11 12  1  0
 12 13  1  0
 13 14  1  0
 14 15  1  0
 15 16  2  0
 15 17  1  0
 17 18  1  0
 18 19  1  0
 18 20  1  0
 18 21  1  0
 14 22  1  0
 11 23  1  0
 22 23  1  0
M  END
