pyridine_urea_213
     RDKit          3D

 19 20  0  0  0  0  0  0  0  0999 V2000
    8.4680    1.9750   24.4040 C   0  0  0  0  0  0  0  0  0  0  0  0
    9.5170    1.4330   24.2070 C   0  0  0  0  0  0  0  0  0  0  0  0
   10.5810    0.5690   23.5370 C   0  0  0  0  0  0  0  0  0  0  0  0
   11.9250    1.0930   23.8650 N   0  0  0  0  0  0  0  0  0  0  0  0
   12.9630    0.2740   23.2110 C   0  0  0  0  0  0  0  0  0  0  0  0
   12.6220   -0.7900   22.4530 C   0  0  0  0  0  0  0  0  0  0  0  0
   13.6730   -1.4180   21.9390 F   0  0  0  0  0  0  0  0  0  0  0  0
   11.2540   -1.3000   22.1410 C   0  0  0  0  0  0  0  0  0  0  0  0
   10.0630   -0.6500   22.6590 C   0  0  0  0  0  0  0  0  0  0  0  0
    8.7390   -1.0720   22.3690 N   0  0  0  0  0  0  0  0  0  0  0  0
    8.0730   -0.1370   21.4650 C   0  0  0  0  0  0  0  0  0  0  0  0
    8.6940    1.0970   21.0580 O   0  0  0  0  0  0  0  0  0  0  0  0
    6.8640   -0.5780   21.1050 N   0  0  0  0  0  0  0  0  0  0  0  0
    6.3510    0.0310   20.0250 C   0  0  0  0  0  0  0  0  0  0  0  0
    5.1720    0.7730   20.1710 C   0  0  0  0  0  0  0  0  0  0  0  0
    4.5710    1.4610   19.1030 C   0  0  0  0  0  0  0  0  0  0  0  0
    5.1850    1.3900   17.8720 C   0  0  0  0  0  0  0  0  0  0  0  0
    6.3270    0.6690   17.7140 N   0  0  0  0  0  0  0  0  0  0  0  0
    6.9120   -0.0120   18.7690 C   0  0  0  0  0  0  0  0  0  0  0  0
  1  2  1  0
  2  3  1  0
  3  4  2  0
  4  5  1  0
  5  6  2  0
  6  7  1  0
  6  8  1  0
  3  9  1  0
  8  9  2  0
  9 10  1  0
 10 11  1  0
 11 12  2  0
 11 13  1  0
 13 14  1  0
 14 15  2  0
 15 16  1  0
 16 17  2  0
 17 18  1  0
 14 19  1  0
 18 19  2  0
M  END
