pyridine_urea_7364
     RDKit          3D

 18 19  0  0  0  0  0  0  0  0999 V2000
    8.8450    0.8350   21.5280 O   0  0  0  0  0  0  0  0  0  0  0  0
    8.4330   -0.3100   21.4430 C   0  0  0  0  0  0  0  0  0  0  0  0
    9.1680   -1.4500   21.6090 N   0  0  0  0  0  0  0  0  0  0  0  0
    9.9770   -1.7570   22.7190 C   0  0  0  0  0  0  0  0  0  0  0  0
   11.2780   -1.3260   22.6060 C   0  0  0  0  0  0  0  0  0  0  0  0
   10.4420   -0.3460   23.1350 N   0  0  0  0  0  0  0  0  0  0  0  0
   10.8280    0.9360   23.5130 C   0  0  0  0  0  0  0  0  0  0  0  0
   11.9230    1.6110   23.5210 C   0  0  0  0  0  0  0  0  0  0  0  0
   12.8740    0.7680   23.0240 C   0  0  0  0  0  0  0  0  0  0  0  0
   12.5330   -0.5660   22.6200 C   0  0  0  0  0  0  0  0  0  0  0  0
   13.6770   -1.2530   22.1350 O   0  0  0  0  0  0  0  0  0  0  0  0
    7.1250   -0.5980   21.1280 N   0  0  0  0  0  0  0  0  0  0  0  0
    6.4670    0.0400   20.0710 C   0  0  0  0  0  0  0  0  0  0  0  0
    5.2970    0.7800   20.2840 C   0  0  0  0  0  0  0  0  0  0  0  0
    4.6530    1.4220   19.2430 C   0  0  0  0  0  0  0  0  0  0  0  0
    5.1530    1.3460   17.9630 C   0  0  0  0  0  0  0  0  0  0  0  0
    6.2690    0.6430   17.6900 N   0  0  0  0  0  0  0  0  0  0  0  0
    6.8730    0.0260   18.7430 C   0  0  0  0  0  0  0  0  0  0  0  0
  1  2  2  0
  2  3  1  0
  3  4  1  0
  4  5  1  0
  5  6  2  0
  6  7  1  0
  7  8  2  0
  8  9  1  0
  5 10  1  0
  9 10  2  0
 10 11  1  0
  2 12  1  0
 12 13  1  0
 13 14  2  0
 14 15  1  0
 15 16  2  0
 16 17  1  0
 13 18  1  0
 17 18  2  0
M  END
