pyridine_urea_6066
     RDKit          3D

 25 28  0  0  0  0  0  0  0  0999 V2000
    8.4880    0.7580   20.9930 O   0  0  0  0  0  0  0  0  0  0  0  0
    8.2650   -0.2940   21.5630 C   0  0  0  0  0  0  0  0  0  0  0  0
    7.0630   -0.9940   21.1580 N   0  0  0  0  0  0  0  0  0  0  0  0
    6.4110   -0.2690   20.1420 C   0  0  0  0  0  0  0  0  0  0  0  0
    5.2120    0.4200   20.3870 C   0  0  0  0  0  0  0  0  0  0  0  0
    4.6160    1.1390   19.3410 C   0  0  0  0  0  0  0  0  0  0  0  0
    5.2290    1.1540   18.0820 C   0  0  0  0  0  0  0  0  0  0  0  0
    6.3740    0.4980   17.8290 N   0  0  0  0  0  0  0  0  0  0  0  0
    6.9380   -0.1990   18.8570 C   0  0  0  0  0  0  0  0  0  0  0  0
    9.0820   -0.8290   22.5580 N   0  0  0  0  0  0  0  0  0  0  0  0
   10.1990    0.0930   22.6470 C   0  0  0  0  0  0  0  0  0  0  0  0
   11.6660   -0.2990   22.8660 C   0  0  0  0  0  0  0  0  0  0  0  0
   12.5860    0.7630   22.8640 C   0  0  0  0  0  0  0  0  0  0  0  0
   12.0950    2.0880   22.6460 C   0  0  0  0  0  0  0  0  0  0  0  0
   10.7880    2.3760   22.4740 C   0  0  0  0  0  0  0  0  0  0  0  0
    9.8350    1.4150   22.4830 C   0  0  0  0  0  0  0  0  0  0  0  0
   10.6000    3.7380   22.2780 N   0  0  0  0  0  0  0  0  0  0  0  0
   11.8080    4.3330   22.3160 C   0  0  0  0  0  0  0  0  0  0  0  0
   12.7090    3.3490   22.5530 N   0  0  0  0  0  0  0  0  0  0  0  0
   13.9840    3.4570   22.7790 C   0  0  0  0  0  0  0  0  0  0  0  0
   14.4010    4.6720   23.6770 C   0  0  0  0  0  0  0  0  0  0  0  0
   16.1530    4.7860   24.3880 C   0  0  0  0  0  0  0  0  0  0  0  0
   17.3480    3.9550   24.3150 C   0  0  0  0  0  0  0  0  0  0  0  0
   16.9930    2.7460   23.4640 C   0  0  0  0  0  0  0  0  0  0  0  0
   15.1910    2.3510   22.4880 C   0  0  0  0  0  0  0  0  0  0  0  0
  1  2  2  0
  2  3  1  0
  3  4  1  0
  4  5  2  0
  5  6  1  0
  6  7  2  0
  7  8  1  0
  4  9  1  0
  8  9  2  0
  2 10  1  0
 10 11  1  0
 11 12  2  0
 12 13  1  0
 13 14  2  0
 14 15  1  0
 11 16  1  0
 15 16  2  0
 15 17  1  0
 17 18  2  0
 14 19  1  0
 18 19  1  0
 19 20  1  0
 20 21  2  0
 21 22  1  0
 22 23  2  0
 23 24  1  0
 20 25  1  0
 24 25  2  0
M  END
