pyridine_urea_8236
     RDKit          3D

 23 25  0  0  0  0  0  0  0  0999 V2000
    8.6800    0.6590   21.2440 O   0  0  0  0  0  0  0  0  0  0  0  0
    8.1430   -0.4200   21.4670 C   0  0  0  0  0  0  0  0  0  0  0  0
    6.8530   -0.7080   21.1080 N   0  0  0  0  0  0  0  0  0  0  0  0
    6.2840    0.0200   20.0080 C   0  0  0  0  0  0  0  0  0  0  0  0
    4.9790    0.8350   20.2490 C   0  0  0  0  0  0  0  0  0  0  0  0
    4.4630    1.5300   19.1670 C   0  0  0  0  0  0  0  0  0  0  0  0
    5.2320    1.4230   17.8470 C   0  0  0  0  0  0  0  0  0  0  0  0
    6.3620    0.6960   17.6950 N   0  0  0  0  0  0  0  0  0  0  0  0
    6.8540    0.0220   18.7540 C   0  0  0  0  0  0  0  0  0  0  0  0
    8.6710   -1.5100   22.0880 N   0  0  0  0  0  0  0  0  0  0  0  0
    9.9970   -1.4200   22.6340 C   0  0  2  0  0  0  0  0  0  0  0  0
    9.9030   -0.7720   23.9180 C   0  0  0  0  0  0  0  0  0  0  0  0
   10.9940   -1.6290   24.4010 C   0  0  0  0  0  0  0  0  0  0  0  0
   12.4230   -1.1540   24.4740 C   0  0  0  0  0  0  0  0  0  0  0  0
   13.4600   -2.1090   24.9820 C   0  0  0  0  0  0  0  0  0  0  0  0
   12.9270   -3.4230   25.3540 C   0  0  0  0  0  0  0  0  0  0  0  0
   11.5820   -3.7560   25.2200 C   0  0  0  0  0  0  0  0  0  0  0  0
   10.6490   -2.8900   24.7590 C   0  0  0  0  0  0  0  0  0  0  0  0
   10.9750   -0.8310   21.9780 C   0  0  0  0  0  0  0  0  0  0  0  0
   12.2340   -1.4370   22.0300 C   0  0  0  0  0  0  0  0  0  0  0  0
   13.1080   -0.4530   22.4480 C   0  0  0  0  0  0  0  0  0  0  0  0
   12.4080    0.6660   22.8100 C   0  0  0  0  0  0  0  0  0  0  0  0
   11.0310    0.4570   22.5980 C   0  0  0  0  0  0  0  0  0  0  0  0
  1  2  2  0
  2  3  1  0
  3  4  1  0
  4  5  2  0
  5  6  1  0
  6  7  2  0
  7  8  1  0
  4  9  1  0
  8  9  2  0
  2 10  1  0
 10 11  1  0
 11 12  1  1
 12 13  1  0
 13 14  2  0
 14 15  1  0
 15 16  2  0
 16 17  1  0
 13 18  1  0
 17 18  2  0
 11 19  1  0
 19 20  1  0
 20 21  1  0
 21 22  1  0
 19 23  1  0
 22 23  1  0
M  END
