pyridine_urea_5576
     RDKit          3D

 17 18  0  0  0  0  0  0  0  0999 V2000
    9.0180    0.8580   21.4100 O   0  0  0  0  0  0  0  0  0  0  0  0
    8.4510   -0.2010   21.6370 C   0  0  0  0  0  0  0  0  0  0  0  0
    8.9270   -1.1210   22.5510 N   0  0  0  0  0  0  0  0  0  0  0  0
    8.5940   -2.5240   22.3630 C   0  0  0  0  0  0  0  0  0  0  0  0
    8.3600   -3.3500   23.6780 C   0  0  0  0  0  0  0  0  0  0  0  0
    7.2880   -4.4140   23.5720 N   0  0  0  0  0  0  0  0  0  0  0  0
    7.0410   -5.4230   22.5060 C   0  0  0  0  0  0  0  0  0  0  0  0
    5.8330   -6.2760   22.8620 C   0  0  0  0  0  0  0  0  0  0  0  0
    5.3620   -5.8240   24.0740 C   0  0  0  0  0  0  0  0  0  0  0  0
    6.2110   -4.6660   24.5850 C   0  0  0  0  0  0  0  0  0  0  0  0
    7.2780   -0.6410   21.0580 N   0  0  0  0  0  0  0  0  0  0  0  0
    6.5790    0.0120   20.0290 C   0  0  0  0  0  0  0  0  0  0  0  0
    5.2880    0.7430   20.3780 C   0  0  0  0  0  0  0  0  0  0  0  0
    4.5580    1.4520   19.2410 C   0  0  0  0  0  0  0  0  0  0  0  0
    5.2380    1.3320   17.8950 C   0  0  0  0  0  0  0  0  0  0  0  0
    6.3750    0.6550   17.6970 N   0  0  0  0  0  0  0  0  0  0  0  0
    6.9940    0.0320   18.7210 C   0  0  0  0  0  0  0  0  0  0  0  0
  1  2  2  0
  2  3  1  0
  3  4  1  0
  4  5  1  0
  5  6  1  0
  6  7  1  0
  7  8  2  0
  8  9  1  0
  6 10  1  0
  9 10  2  0
  2 11  1  0
 11 12  1  0
 12 13  2  0
 13 14  1  0
 14 15  2  0
 15 16  1  0
 12 17  1  0
 16 17  2  0
M  END
