pyridine_urea_13074
     RDKit          3D

 18 19  0  0  0  0  0  0  0  0999 V2000
    8.8290    1.2160   21.1800 O   0  0  0  0  0  0  0  0  0  0  0  0
    8.5320    0.0290   21.3610 C   0  0  0  0  0  0  0  0  0  0  0  0
    9.3840   -0.9220   21.8620 N   0  0  0  0  0  0  0  0  0  0  0  0
   10.5250   -0.5740   22.6000 C   0  0  0  0  0  0  0  0  0  0  0  0
   11.7620   -1.1820   22.3200 C   0  0  2  0  0  0  0  0  0  0  0  0
   11.9630   -2.2140   23.1690 C   0  0  0  0  0  0  0  0  0  0  0  0
   11.9160   -1.9100   24.4940 C   0  0  0  0  0  0  0  0  0  0  0  0
   11.6620   -0.4920   25.0150 C   0  0  0  0  0  0  0  0  0  0  0  0
   11.3300    0.5400   24.1180 C   0  0  0  0  0  0  0  0  0  0  0  0
   12.4680    0.8240   23.1220 C   0  0  0  0  0  0  0  0  0  0  0  0
   12.8620   -0.3550   22.5210 C   0  0  0  0  0  0  0  0  0  0  0  0
    7.3000   -0.4930   21.0520 N   0  0  0  0  0  0  0  0  0  0  0  0
    6.5450    0.0980   20.0420 C   0  0  0  0  0  0  0  0  0  0  0  0
    5.3770    0.8060   20.3650 C   0  0  0  0  0  0  0  0  0  0  0  0
    4.6950    1.3890   19.3050 C   0  0  0  0  0  0  0  0  0  0  0  0
    5.1360    1.2790   18.0100 C   0  0  0  0  0  0  0  0  0  0  0  0
    6.2330    0.6010   17.6740 N   0  0  0  0  0  0  0  0  0  0  0  0
    6.9080    0.0310   18.7010 C   0  0  0  0  0  0  0  0  0  0  0  0
  1  2  2  0
  2  3  1  0
  3  4  1  0
  5  4  1  1
  5  6  1  0
  6  7  2  0
  7  8  1  0
  8  9  1  0
  9 10  1  0
  5 11  1  0
 10 11  1  0
  2 12  1  0
 12 13  1  0
 13 14  2  0
 14 15  1  0
 15 16  2  0
 16 17  1  0
 13 18  1  0
 17 18  2  0
M  END
