pyridine_urea_2782
     RDKit          3D

 22 24  0  0  0  0  0  0  0  0999 V2000
    8.6780    0.9850   21.4220 O   0  0  0  0  0  0  0  0  0  0  0  0
    8.3440   -0.1730   21.2840 C   0  0  0  0  0  0  0  0  0  0  0  0
    9.2220   -1.2110   21.3170 N   0  0  0  0  0  0  0  0  0  0  0  0
    9.9340   -1.5740   22.4990 C   0  0  0  0  0  0  0  0  0  0  0  0
   11.1740   -0.7260   22.8990 C   0  0  1  0  0  0  0  0  0  0  0  0
   12.4510   -0.8770   22.3970 C   0  0  0  0  0  0  0  0  0  0  0  0
   13.1320   -0.7190   23.5950 N   0  0  0  0  0  0  0  0  0  0  0  0
   13.2800   -1.8340   24.2860 C   0  0  0  0  0  0  0  0  0  0  0  0
   12.3610   -2.6690   24.2500 C   0  0  0  0  0  0  0  0  0  0  0  0
   13.7610   -2.9880   23.6370 C   0  0  0  0  0  0  0  0  0  0  0  0
   12.5480    0.1360   24.4250 C   0  0  0  0  0  0  0  0  0  0  0  0
   12.7070   -0.2150   25.7770 O   0  0  0  0  0  0  0  0  0  0  0  0
   11.8440    1.1880   23.9220 N   0  0  0  0  0  0  0  0  0  0  0  0
   11.0030    0.7510   22.9910 C   0  0  0  0  0  0  0  0  0  0  0  0
   10.2520    1.4460   22.3390 O   0  0  0  0  0  0  0  0  0  0  0  0
    7.0790   -0.5930   21.0230 N   0  0  0  0  0  0  0  0  0  0  0  0
    6.3960    0.0480   20.0100 C   0  0  0  0  0  0  0  0  0  0  0  0
    5.0900    0.7700   20.2800 C   0  0  0  0  0  0  0  0  0  0  0  0
    4.4740    1.4560   19.0780 C   0  0  0  0  0  0  0  0  0  0  0  0
    5.1320    1.3710   17.8620 C   0  0  0  0  0  0  0  0  0  0  0  0
    6.2860    0.7050   17.6810 N   0  0  0  0  0  0  0  0  0  0  0  0
    6.8730    0.0780   18.7180 C   0  0  0  0  0  0  0  0  0  0  0  0
  1  2  2  0
  2  3  1  0
  3  4  1  0
  5  4  1  6
  5  6  1  0
  6  7  1  0
  7  8  1  0
  8  9  1  0
  8 10  1  0
  9 10  1  0
  7 11  1  0
 11 12  2  0
 11 13  1  0
  5 14  1  0
 13 14  1  0
 14 15  2  0
  2 16  1  0
 16 17  1  0
 17 18  2  0
 18 19  1  0
 19 20  2  0
 20 21  1  0
 17 22  1  0
 21 22  2  0
M  END
