pyridine_urea_2100
     RDKit          3D

 19 20  0  0  0  0  0  0  0  0999 V2000
   12.8630   -2.9160   21.1060 C   0  0  0  0  0  0  0  0  0  0  0  0
   11.9420   -2.6580   22.1620 O   0  0  0  0  0  0  0  0  0  0  0  0
   11.4300   -1.4150   22.0450 C   0  0  2  0  0  0  0  0  0  0  0  0
   12.5360   -0.4060   22.3350 C   0  0  0  0  0  0  0  0  0  0  0  0
   13.0790   -0.6830   23.6940 C   0  0  0  0  0  0  0  0  0  0  0  0
   12.0770   -0.7190   24.7700 C   0  0  0  0  0  0  0  0  0  0  0  0
   11.0330    0.1560   24.6360 C   0  0  0  0  0  0  0  0  0  0  0  0
   10.1670   -0.0250   23.5930 C   0  0  0  0  0  0  0  0  0  0  0  0
   10.1970   -1.2580   22.9630 C   0  0  1  0  0  0  0  0  0  0  0  0
    9.0070   -1.4410   22.1580 N   0  0  0  0  0  0  0  0  0  0  0  0
    8.4050   -0.3850   21.5050 C   0  0  0  0  0  0  0  0  0  0  0  0
    8.9220    0.7230   21.3970 O   0  0  0  0  0  0  0  0  0  0  0  0
    7.1690   -0.7410   21.0130 N   0  0  0  0  0  0  0  0  0  0  0  0
    6.4460   -0.0300   20.0430 C   0  0  0  0  0  0  0  0  0  0  0  0
    5.2500    0.6970   20.2900 C   0  0  0  0  0  0  0  0  0  0  0  0
    4.5140    1.4390   19.2930 C   0  0  0  0  0  0  0  0  0  0  0  0
    5.2000    1.3400   17.9310 C   0  0  0  0  0  0  0  0  0  0  0  0
    6.3380    0.6300   17.7430 N   0  0  0  0  0  0  0  0  0  0  0  0
    6.9500   -0.0460   18.7720 C   0  0  0  0  0  0  0  0  0  0  0  0
  1  2  1  0
  3  2  1  1
  3  4  1  0
  4  5  1  0
  5  6  1  0
  6  7  1  0
  7  8  1  0
  3  9  1  0
  8  9  1  0
  9 10  1  6
 10 11  1  0
 11 12  2  0
 11 13  1  0
 13 14  1  0
 14 15  2  0
 15 16  1  0
 16 17  2  0
 17 18  1  0
 14 19  1  0
 18 19  2  0
M  END
