pyridine_urea_11208
     RDKit          3D

 17 18  0  0  0  0  0  0  0  0999 V2000
    8.8610    0.8400   21.4310 O   0  0  0  0  0  0  0  0  0  0  0  0
    8.3780   -0.2840   21.4750 C   0  0  0  0  0  0  0  0  0  0  0  0
    9.0470   -1.3620   22.0170 N   0  0  0  0  0  0  0  0  0  0  0  0
    9.9570   -1.1730   23.1270 C   0  0  0  0  0  0  0  0  0  0  0  0
   11.4140   -1.4260   22.7530 C   0  0  0  0  0  0  0  0  0  0  0  0
   11.9570   -2.2760   23.6670 F   0  0  0  0  0  0  0  0  0  0  0  0
   11.5320   -2.0150   21.5470 F   0  0  0  0  0  0  0  0  0  0  0  0
   12.1860   -0.1730   22.7710 C   0  0  0  0  0  0  0  0  0  0  0  0
   12.7880    0.0740   23.7940 C   0  0  0  0  0  0  0  0  0  0  0  0
   11.9440    1.2460   23.4100 C   0  0  0  0  0  0  0  0  0  0  0  0
    7.1380   -0.6600   21.0080 N   0  0  0  0  0  0  0  0  0  0  0  0
    6.3580    0.0550   20.0830 C   0  0  0  0  0  0  0  0  0  0  0  0
    5.2060    0.7020   20.4310 C   0  0  0  0  0  0  0  0  0  0  0  0
    4.6670    1.3600   19.1800 C   0  0  0  0  0  0  0  0  0  0  0  0
    5.2410    1.3030   17.9440 C   0  0  0  0  0  0  0  0  0  0  0  0
    6.3540    0.6500   17.6930 N   0  0  0  0  0  0  0  0  0  0  0  0
    6.8560    0.0560   18.7830 C   0  0  0  0  0  0  0  0  0  0  0  0
  1  2  2  0
  2  3  1  0
  3  4  1  0
  4  5  1  0
  5  6  1  0
  5  7  1  0
  5  8  1  0
  8  9  1  0
  8 10  1  0
  9 10  1  0
  2 11  1  0
 11 12  1  0
 12 13  2  0
 13 14  1  0
 14 15  2  0
 15 16  1  0
 12 17  1  0
 16 17  2  0
M  END
