pyridine_urea_5054
     RDKit          3D

 20 22  0  0  0  0  0  0  0  0999 V2000
    8.9730    1.0940   21.2500 O   0  0  0  0  0  0  0  0  0  0  0  0
    8.4420    0.0190   21.5740 C   0  0  0  0  0  0  0  0  0  0  0  0
    8.8490   -0.8370   22.5800 N   0  0  0  0  0  0  0  0  0  0  0  0
    8.2990   -2.1140   22.8590 C   0  0  0  0  0  0  0  0  0  0  0  0
    8.2850   -2.5370   24.2020 C   0  0  2  0  0  0  0  0  0  0  0  0
    8.5040   -3.9290   24.2940 C   0  0  0  0  0  0  0  0  0  0  0  0
    7.4690   -4.5690   25.1280 N   0  0  0  0  0  0  0  0  0  0  0  0
    6.2580   -4.9390   24.5860 C   0  0  0  0  0  0  0  0  0  0  0  0
    5.3100   -3.7420   24.5350 C   0  0  0  0  0  0  0  0  0  0  0  0
    6.0020   -2.5540   24.2700 C   0  0  0  0  0  0  0  0  0  0  0  0
    7.1430   -2.2830   24.9440 N   0  0  0  0  0  0  0  0  0  0  0  0
    7.1630   -2.6910   26.2350 C   0  0  0  0  0  0  0  0  0  0  0  0
    7.3640   -4.0420   26.4270 C   0  0  0  0  0  0  0  0  0  0  0  0
    7.3170   -0.4880   20.9600 N   0  0  0  0  0  0  0  0  0  0  0  0
    6.5400    0.1410   20.0500 C   0  0  0  0  0  0  0  0  0  0  0  0
    5.3820    0.8640   20.3390 C   0  0  0  0  0  0  0  0  0  0  0  0
    4.6870    1.4750   19.2870 C   0  0  0  0  0  0  0  0  0  0  0  0
    5.1650    1.3450   17.9920 C   0  0  0  0  0  0  0  0  0  0  0  0
    6.2690    0.6470   17.6930 N   0  0  0  0  0  0  0  0  0  0  0  0
    6.9220    0.0660   18.7270 C   0  0  0  0  0  0  0  0  0  0  0  0
  1  2  2  0
  2  3  1  0
  3  4  1  0
  5  4  1  6
  5  6  1  0
  6  7  1  0
  7  8  1  0
  8  9  1  0
  9 10  1  0
  5 11  1  0
 10 11  1  0
 11 12  1  0
  7 13  1  0
 12 13  1  0
  2 14  1  0
 14 15  1  0
 15 16  2  0
 16 17  1  0
 17 18  2  0
 18 19  1  0
 15 20  1  0
 19 20  2  0
M  END
