pyridine_urea_9743
     RDKit          3D

 27 29  0  0  0  0  0  0  0  0999 V2000
   11.2050    5.6180   25.4690 C   0  0  0  0  0  0  0  0  0  0  0  0
   11.6770    6.9410   24.8610 C   0  0  0  0  0  0  0  0  0  0  0  0
   11.9860    7.0230   23.1780 S   0  0  0  0  0  0  0  0  0  0  0  0
   10.6700    7.2340   22.5880 O   0  0  0  0  0  0  0  0  0  0  0  0
   13.1300    7.8970   22.9860 O   0  0  0  0  0  0  0  0  0  0  0  0
   12.4420    5.3310   22.7960 C   0  0  0  0  0  0  0  0  0  0  0  0
   11.3080    4.4910   22.4670 C   0  0  0  0  0  0  0  0  0  0  0  0
   11.2260    2.9990   22.1930 C   0  0  0  0  0  0  0  0  0  0  0  0
   12.7910    2.4690   22.4270 C   0  0  0  0  0  0  0  0  0  0  0  0
   13.2810    0.6960   22.4780 N   0  0  0  0  0  0  0  0  0  0  0  0
   13.3110   -0.6060   23.2720 C   0  0  0  0  0  0  0  0  0  0  0  0
   12.2540   -1.7400   23.0510 C   0  0  0  0  0  0  0  0  0  0  0  0
   10.8090   -1.4630   23.0360 C   0  0  0  0  0  0  0  0  0  0  0  0
    9.6210   -1.8560   22.3480 N   0  0  0  0  0  0  0  0  0  0  0  0
    8.7290   -0.8500   21.6740 C   0  0  0  0  0  0  0  0  0  0  0  0
    9.1210    0.2850   21.4320 O   0  0  0  0  0  0  0  0  0  0  0  0
    7.4410   -1.2330   21.3340 N   0  0  0  0  0  0  0  0  0  0  0  0
    6.7300   -0.4810   20.3680 C   0  0  0  0  0  0  0  0  0  0  0  0
    5.5510    0.2340   20.6700 C   0  0  0  0  0  0  0  0  0  0  0  0
    4.8550    0.9910   19.6380 C   0  0  0  0  0  0  0  0  0  0  0  0
    5.4040    0.9610   18.4080 C   0  0  0  0  0  0  0  0  0  0  0  0
    6.5320    0.2540   18.1970 N   0  0  0  0  0  0  0  0  0  0  0  0
    7.3380   -0.5360   19.0690 C   0  0  0  0  0  0  0  0  0  0  0  0
   11.1290   -0.5440   22.0200 C   0  0  0  0  0  0  0  0  0  0  0  0
   12.4640   -0.0850   22.0150 C   0  0  0  0  0  0  0  0  0  0  0  0
   13.7770    3.5210   22.6240 C   0  0  0  0  0  0  0  0  0  0  0  0
   13.6460    4.8590   22.8100 C   0  0  0  0  0  0  0  0  0  0  0  0
  1  2  1  0
  3  2  1  0
  3  4  2  0
  3  5  2  0
  3  6  1  0
  6  7  2  0
  7  8  1  0
  8  9  2  0
  9 10  1  0
 10 11  1  0
 11 12  1  0
 12 13  1  0
 13 14  1  0
 14 15  1  0
 15 16  2  0
 15 17  1  0
 17 18  1  0
 18 19  2  0
 19 20  1  0
 20 21  2  0
 21 22  1  0
 18 23  1  0
 22 23  2  0
 13 24  1  0
 10 25  1  0
 24 25  1  0
  9 26  1  0
  6 27  1  0
 26 27  2  0
M  END
