pyridine_urea_3730
     RDKit          3D

 24 25  0  0  0  0  0  0  0  0999 V2000
   13.0960   -2.7680   21.1120 C   0  0  0  0  0  0  0  0  0  0  0  0
   13.1070   -2.6470   22.6410 C   0  0  0  0  0  0  0  0  0  0  0  0
   11.7320   -2.5020   22.9640 O   0  0  0  0  0  0  0  0  0  0  0  0
   11.5010   -1.1980   22.5580 C   0  0  0  0  0  0  0  0  0  0  0  0
   12.5590   -0.5370   22.0150 O   0  0  0  0  0  0  0  0  0  0  0  0
   10.2000   -0.4920   22.7970 C   0  0  2  0  0  0  0  0  0  0  0  0
   10.3970    0.0530   24.1890 C   0  0  0  0  0  0  0  0  0  0  0  0
   11.6150    0.7860   23.7560 C   0  0  0  0  0  0  0  0  0  0  0  0
   12.5940    1.8620   23.2440 C   0  0  0  0  0  0  0  0  0  0  0  0
   12.1430    3.0990   22.9280 C   0  0  0  0  0  0  0  0  0  0  0  0
   13.1860    4.5380   22.2970 Br  0  0  0  0  0  0  0  0  0  0  0  0
   10.5280    3.3440   23.1450 S   0  0  0  0  0  0  0  0  0  0  0  0
   10.4990    1.7240   23.6670 C   0  0  0  0  0  0  0  0  0  0  0  0
    8.7190    1.1850   24.1800 Br  0  0  0  0  0  0  0  0  0  0  0  0
    8.9540   -1.1940   22.4620 N   0  0  0  0  0  0  0  0  0  0  0  0
    8.2630   -0.3880   21.5560 C   0  0  0  0  0  0  0  0  0  0  0  0
    8.6740    0.7330   21.2910 O   0  0  0  0  0  0  0  0  0  0  0  0
    7.1210   -0.9210   21.0070 N   0  0  0  0  0  0  0  0  0  0  0  0
    6.3850   -0.1720   20.0670 C   0  0  0  0  0  0  0  0  0  0  0  0
    5.1860    0.5000   20.3160 C   0  0  0  0  0  0  0  0  0  0  0  0
    4.5570    1.2620   19.1970 C   0  0  0  0  0  0  0  0  0  0  0  0
    5.2060    1.2560   17.9710 C   0  0  0  0  0  0  0  0  0  0  0  0
    6.3550    0.5960   17.7580 N   0  0  0  0  0  0  0  0  0  0  0  0
    6.9060   -0.0890   18.7840 C   0  0  0  0  0  0  0  0  0  0  0  0
  1  2  1  0
  2  3  1  0
  3  4  1  0
  4  5  2  0
  4  6  1  0
  6  7  1  1
  7  8  1  0
  8  9  1  0
  9 10  2  0
 10 11  1  0
 10 12  1  0
  8 13  2  0
 12 13  1  0
 13 14  1  0
  6 15  1  0
 15 16  1  0
 16 17  2  0
 16 18  1  0
 18 19  1  0
 19 20  2  0
 20 21  1  0
 21 22  2  0
 22 23  1  0
 19 24  1  0
 23 24  2  0
M  END
