pyridine_urea_12006
     RDKit          3D

 24 25  0  0  0  0  0  0  0  0999 V2000
   13.5450    5.5770   21.5610 C   0  0  0  0  0  0  0  0  0  0  0  0
   12.4630    4.5210   21.5540 C   0  0  0  0  0  0  0  0  0  0  0  0
   12.8540    3.8130   22.7020 N   0  0  0  0  0  0  0  0  0  0  0  0
   13.4200    4.8390   23.4210 C   0  0  0  0  0  0  0  0  0  0  0  0
   12.4680    5.6660   24.0310 C   0  0  0  0  0  0  0  0  0  0  0  0
   11.8660    3.2120   23.3830 C   0  0  0  0  0  0  0  0  0  0  0  0
   11.2190    3.7210   24.2870 O   0  0  0  0  0  0  0  0  0  0  0  0
   11.3950    1.9290   23.0680 C   0  0  0  0  0  0  0  0  0  0  0  0
   10.0510    2.0400   23.0730 C   0  0  0  0  0  0  0  0  0  0  0  0
    9.2190    0.8680   22.7670 C   0  0  0  0  0  0  0  0  0  0  0  0
    9.8220   -0.3150   22.4780 C   0  0  0  0  0  0  0  0  0  0  0  0
    8.9180   -1.2500   22.1570 N   0  0  0  0  0  0  0  0  0  0  0  0
    8.0340   -0.6050   21.2720 C   0  0  0  0  0  0  0  0  0  0  0  0
    8.2840    0.5120   20.8400 O   0  0  0  0  0  0  0  0  0  0  0  0
    6.8890   -1.1770   20.9140 N   0  0  0  0  0  0  0  0  0  0  0  0
    6.2720   -0.3570   20.0200 C   0  0  0  0  0  0  0  0  0  0  0  0
    5.0830    0.3450   20.2210 C   0  0  0  0  0  0  0  0  0  0  0  0
    4.5850    1.1580   19.2090 C   0  0  0  0  0  0  0  0  0  0  0  0
    5.2400    1.2910   18.0070 C   0  0  0  0  0  0  0  0  0  0  0  0
    6.3900    0.6460   17.7400 N   0  0  0  0  0  0  0  0  0  0  0  0
    6.8850   -0.1810   18.7780 C   0  0  0  0  0  0  0  0  0  0  0  0
   11.1850   -0.4890   22.4860 C   0  0  0  0  0  0  0  0  0  0  0  0
   11.9670    0.6360   22.7860 C   0  0  0  0  0  0  0  0  0  0  0  0
   13.5860    0.2660   22.7620 Cl  0  0  0  0  0  0  0  0  0  0  0  0
  1  2  1  0
  2  3  1  0
  3  4  1  0
  4  5  1  0
  3  6  1  0
  6  7  2  0
  6  8  1  0
  8  9  2  0
  9 10  1  0
 10 11  2  0
 11 12  1  0
 12 13  1  0
 13 14  2  0
 13 15  1  0
 15 16  1  0
 16 17  2  0
 17 18  1  0
 18 19  2  0
 19 20  1  0
 16 21  1  0
 20 21  2  0
 11 22  1  0
  8 23  1  0
 22 23  2  0
 23 24  1  0
M  END
