pyridine_urea_11890
     RDKit          3D

 24 25  0  0  0  0  0  0  0  0999 V2000
   10.8050   -0.4510   25.1330 C   0  0  0  0  0  0  0  0  0  0  0  0
    9.4680    0.0200   24.6070 C   0  0  2  0  0  0  0  0  0  0  0  0
    8.4910   -0.9830   24.9220 O   0  0  0  0  0  0  0  0  0  0  0  0
    9.5070    0.2370   23.2470 C   0  0  2  0  0  0  0  0  0  0  0  0
    8.7670   -0.4920   22.4450 N   0  0  0  0  0  0  0  0  0  0  0  0
    8.1420    0.0770   21.3960 C   0  0  0  0  0  0  0  0  0  0  0  0
    8.5120    1.1670   20.9370 O   0  0  0  0  0  0  0  0  0  0  0  0
    7.0130   -0.7410   20.9630 N   0  0  0  0  0  0  0  0  0  0  0  0
    6.3660   -0.0200   19.9530 C   0  0  0  0  0  0  0  0  0  0  0  0
    5.1770    0.6420   20.2510 C   0  0  0  0  0  0  0  0  0  0  0  0
    4.5380    1.3700   19.2540 C   0  0  0  0  0  0  0  0  0  0  0  0
    5.1970    1.3920   17.8850 C   0  0  0  0  0  0  0  0  0  0  0  0
    6.3440    0.7280   17.6520 N   0  0  0  0  0  0  0  0  0  0  0  0
    6.8910    0.0460   18.6780 C   0  0  0  0  0  0  0  0  0  0  0  0
   10.8700    0.0520   22.7210 C   0  0  0  0  0  0  0  0  0  0  0  0
   11.0820   -1.0410   22.2130 O   0  0  0  0  0  0  0  0  0  0  0  0
   11.5700    1.0350   22.8780 O   0  0  0  0  0  0  0  0  0  0  0  0
   12.5690    0.8760   23.7620 C   0  0  0  0  0  0  0  0  0  0  0  0
   12.8780   -0.3950   23.5180 C   0  0  0  0  0  0  0  0  0  0  0  0
   13.0790   -0.6140   22.2100 C   0  0  0  0  0  0  0  0  0  0  0  0
   13.3530   -1.8350   21.7380 C   0  0  0  0  0  0  0  0  0  0  0  0
   13.4450   -2.8540   22.6390 C   0  0  0  0  0  0  0  0  0  0  0  0
   13.2660   -2.6630   24.0150 C   0  0  0  0  0  0  0  0  0  0  0  0
   12.9730   -1.4030   24.4660 C   0  0  0  0  0  0  0  0  0  0  0  0
  2  1  1  6
  2  3  1  0
  2  4  1  0
  4  5  1  6
  5  6  1  0
  6  7  2  0
  6  8  1  0
  8  9  1  0
  9 10  2  0
 10 11  1  0
 11 12  2  0
 12 13  1  0
  9 14  1  0
 13 14  2  0
  4 15  1  0
 15 16  2  0
 15 17  1  0
 17 18  1  0
 18 19  1  0
 19 20  2  0
 20 21  1  0
 21 22  2  0
 22 23  1  0
 19 24  1  0
 23 24  2  0
M  END
