pyridine_urea_4911
     RDKit          3D

 18 18  0  0  0  0  0  0  0  0999 V2000
   12.9110    0.5570   23.1030 C   0  0  0  0  0  0  0  0  0  0  0  0
   11.7300    0.7870   24.0670 C   0  0  0  0  0  0  0  0  0  0  0  0
   10.4140    0.4300   23.3840 C   0  0  0  0  0  0  0  0  0  0  0  0
   10.2190   -0.9010   23.0690 C   0  0  1  0  0  0  0  0  0  0  0  0
    9.1920   -1.2150   22.0850 N   0  0  0  0  0  0  0  0  0  0  0  0
    8.4630   -0.2070   21.4820 C   0  0  0  0  0  0  0  0  0  0  0  0
    8.8830    0.9340   21.3470 O   0  0  0  0  0  0  0  0  0  0  0  0
    7.2270   -0.6410   21.0490 N   0  0  0  0  0  0  0  0  0  0  0  0
    6.4580    0.0200   20.0780 C   0  0  0  0  0  0  0  0  0  0  0  0
    5.2710    0.7120   20.3130 C   0  0  0  0  0  0  0  0  0  0  0  0
    4.6140    1.3420   19.2490 C   0  0  0  0  0  0  0  0  0  0  0  0
    5.1710    1.2550   17.9890 C   0  0  0  0  0  0  0  0  0  0  0  0
    6.3070    0.5890   17.7370 N   0  0  0  0  0  0  0  0  0  0  0  0
    6.9140   -0.0070   18.7760 C   0  0  0  0  0  0  0  0  0  0  0  0
   11.3630   -1.6610   22.7720 C   0  0  0  0  0  0  0  0  0  0  0  0
   11.7300   -1.8010   21.6140 O   0  0  0  0  0  0  0  0  0  0  0  0
   11.9550   -2.1620   23.7270 O   0  0  0  0  0  0  0  0  0  0  0  0
   13.3280   -2.4520   23.4380 C   0  0  0  0  0  0  0  0  0  0  0  0
  1  2  1  0
  2  3  1  0
  4  3  1  6
  4  5  1  0
  5  6  1  0
  6  7  2  0
  6  8  1  0
  8  9  1  0
  9 10  2  0
 10 11  1  0
 11 12  2  0
 12 13  1  0
  9 14  1  0
 13 14  2  0
  4 15  1  0
 15 16  2  0
 15 17  1  0
 17 18  1  0
M  END
