pyridine_urea_10408
     RDKit          3D

 22 24  0  0  0  0  0  0  0  0999 V2000
    8.8260    1.1670   21.1610 O   0  0  0  0  0  0  0  0  0  0  0  0
    8.2030    0.1950   21.6190 C   0  0  0  0  0  0  0  0  0  0  0  0
    8.3540   -0.3630   22.8510 N   0  0  0  0  0  0  0  0  0  0  0  0
    9.4800   -0.2100   23.6340 C   0  0  0  0  0  0  0  0  0  0  0  0
   10.7490   -0.7490   23.0820 C   0  0  0  0  0  0  0  0  0  0  0  0
   12.1320   -0.1170   23.1950 C   0  0  0  0  0  0  0  0  0  0  0  0
   12.9230   -0.9270   22.5600 N   0  0  0  0  0  0  0  0  0  0  0  0
   12.0280   -1.9120   22.1380 C   0  0  0  0  0  0  0  0  0  0  0  0
   12.4790   -2.9080   21.4210 C   0  0  0  0  0  0  0  0  0  0  0  0
   13.6040   -3.3790   21.6700 C   0  0  0  0  0  0  0  0  0  0  0  0
   14.2630   -4.3680   20.9840 C   0  0  0  0  0  0  0  0  0  0  0  0
   13.7760   -4.9130   20.0070 C   0  0  0  0  0  0  0  0  0  0  0  0
   12.5300   -4.5530   19.6290 C   0  0  0  0  0  0  0  0  0  0  0  0
   11.7910   -3.6030   20.2780 C   0  0  0  0  0  0  0  0  0  0  0  0
   10.6710   -1.8180   22.4620 O   0  0  0  0  0  0  0  0  0  0  0  0
    7.2240   -0.4730   20.9440 N   0  0  0  0  0  0  0  0  0  0  0  0
    6.4860    0.1380   20.0220 C   0  0  0  0  0  0  0  0  0  0  0  0
    5.2230    0.9520   20.2720 C   0  0  0  0  0  0  0  0  0  0  0  0
    4.6420    1.5170   19.1680 C   0  0  0  0  0  0  0  0  0  0  0  0
    5.1160    1.3950   17.8770 C   0  0  0  0  0  0  0  0  0  0  0  0
    6.2140    0.6810   17.5770 N   0  0  0  0  0  0  0  0  0  0  0  0
    6.8920    0.0470   18.7180 C   0  0  0  0  0  0  0  0  0  0  0  0
  1  2  2  0
  2  3  1  0
  3  4  1  0
  4  5  1  0
  5  6  2  0
  6  7  1  0
  7  8  2  0
  8  9  1  0
  9 10  2  0
 10 11  1  0
 11 12  2  0
 12 13  1  0
  9 14  1  0
 13 14  2  0
  5 15  1  0
  8 15  1  0
  2 16  1  0
 16 17  1  0
 17 18  2  0
 18 19  1  0
 19 20  2  0
 20 21  1  0
 17 22  1  0
 21 22  2  0
M  END
