pyridine_urea_2728
     RDKit          3D

 23 25  0  0  0  0  0  0  0  0999 V2000
    9.2850    0.7460   21.6160 O   0  0  0  0  0  0  0  0  0  0  0  0
    8.8010   -0.3800   21.5570 C   0  0  0  0  0  0  0  0  0  0  0  0
    9.4760   -1.5490   21.9960 N   0  0  0  0  0  0  0  0  0  0  0  0
   10.7350   -1.6520   22.8490 C   0  0  0  0  0  0  0  0  0  0  0  0
   10.4520   -1.7240   24.4210 C   0  0  0  0  0  0  0  0  0  0  0  0
   11.8370   -1.4870   24.3550 C   0  0  0  0  0  0  0  0  0  0  0  0
   12.5150   -1.3890   22.9140 C   0  0  0  0  0  0  0  0  0  0  0  0
   11.6960   -1.5620   21.7130 C   0  0  0  0  0  0  0  0  0  0  0  0
   10.7720   -1.7040   22.7230 N   0  0  0  0  0  0  0  0  0  0  0  0
    9.5390   -1.9050   23.5220 C   0  0  0  0  0  0  0  0  0  0  0  0
    8.1750   -2.1730   23.3500 N   0  0  0  0  0  0  0  0  0  0  0  0
    7.0890   -1.3680   23.7810 C   0  0  0  0  0  0  0  0  0  0  0  0
    5.7300   -1.7420   23.1840 C   0  0  0  0  0  0  0  0  0  0  0  0
    5.4920   -3.2430   23.3480 C   0  0  0  0  0  0  0  0  0  0  0  0
    6.6380   -3.8080   24.1870 C   0  0  0  0  0  0  0  0  0  0  0  0
    7.9160   -3.5140   23.4000 C   0  0  0  0  0  0  0  0  0  0  0  0
    7.5250   -0.6910   21.0610 N   0  0  0  0  0  0  0  0  0  0  0  0
    6.7390   -0.0280   20.1540 C   0  0  0  0  0  0  0  0  0  0  0  0
    5.6160    0.7520   20.4780 C   0  0  0  0  0  0  0  0  0  0  0  0
    4.8830    1.3880   19.4680 C   0  0  0  0  0  0  0  0  0  0  0  0
    5.2800    1.2390   18.1590 C   0  0  0  0  0  0  0  0  0  0  0  0
    6.3440    0.5010   17.8080 N   0  0  0  0  0  0  0  0  0  0  0  0
    7.0390   -0.1110   18.8040 C   0  0  0  0  0  0  0  0  0  0  0  0
  1  2  2  0
  2  3  1  0
  3  4  1  0
  4  5  1  0
  5  6  2  0
  6  7  1  0
  7  8  2  0
  8  9  1  0
  5 10  1  0
  9 10  2  0
 10 11  1  0
 11 12  1  0
 12 13  1  0
 13 14  1  0
 14 15  1  0
 11 16  1  0
 15 16  1  0
  2 17  1  0
 17 18  1  0
 18 19  2  0
 19 20  1  0
 20 21  2  0
 21 22  1  0
 18 23  1  0
 22 23  2  0
M  END
