pyridine_urea_12407
     RDKit          3D

 22 24  0  0  0  0  0  0  0  0999 V2000
   13.1410   -2.4430   21.5970 C   0  0  0  0  0  0  0  0  0  0  0  0
   13.4660   -2.4330   23.1000 C   0  0  0  0  0  0  0  0  0  0  0  0
   14.3190   -3.2600   23.8710 N   0  0  0  0  0  0  0  0  0  0  0  0
   14.1990   -2.8000   25.1780 N   0  0  0  0  0  0  0  0  0  0  0  0
   13.3230   -1.7400   25.1640 N   0  0  0  0  0  0  0  0  0  0  0  0
   12.8840   -1.5060   23.9420 N   0  0  0  0  0  0  0  0  0  0  0  0
   12.0070   -0.5340   23.6530 C   0  0  0  0  0  0  0  0  0  0  0  0
   12.2560    0.8010   23.7500 C   0  0  0  0  0  0  0  0  0  0  0  0
   11.1990    1.8090   23.4370 C   0  0  0  0  0  0  0  0  0  0  0  0
    9.9850    1.2990   23.0380 C   0  0  0  0  0  0  0  0  0  0  0  0
    9.7950   -0.2170   22.9350 C   0  0  0  0  0  0  0  0  0  0  0  0
    8.6420   -0.7040   22.5350 N   0  0  0  0  0  0  0  0  0  0  0  0
    8.0540   -0.1120   21.5020 C   0  0  0  0  0  0  0  0  0  0  0  0
    8.4430    0.9320   21.0090 O   0  0  0  0  0  0  0  0  0  0  0  0
    6.9630   -0.6620   20.9610 N   0  0  0  0  0  0  0  0  0  0  0  0
    6.3200    0.0100   19.9500 C   0  0  0  0  0  0  0  0  0  0  0  0
    5.0040    0.7030   20.2720 C   0  0  0  0  0  0  0  0  0  0  0  0
    4.3770    1.4520   19.1120 C   0  0  0  0  0  0  0  0  0  0  0  0
    5.1450    1.4030   17.8070 C   0  0  0  0  0  0  0  0  0  0  0  0
    6.3000    0.7430   17.6470 N   0  0  0  0  0  0  0  0  0  0  0  0
    6.8420    0.0860   18.6790 C   0  0  0  0  0  0  0  0  0  0  0  0
   10.8130   -1.0580   23.2480 C   0  0  0  0  0  0  0  0  0  0  0  0
  1  2  1  0
  2  3  2  0
  3  4  1  0
  4  5  2  0
  2  6  1  0
  5  6  1  0
  6  7  1  0
  7  8  2  0
  8  9  1  0
  9 10  2  0
 10 11  1  0
 11 12  1  0
 12 13  1  0
 13 14  2  0
 13 15  1  0
 15 16  1  0
 16 17  2  0
 17 18  1  0
 18 19  2  0
 19 20  1  0
 16 21  1  0
 20 21  2  0
  7 22  1  0
 11 22  2  0
M  END
