pyridine_urea_1517
     RDKit          3D

 19 20  0  0  0  0  0  0  0  0999 V2000
    7.0760   -5.8350   22.6840 C   0  0  0  0  0  0  0  0  0  0  0  0
    6.5350   -4.8440   23.7510 C   0  0  0  0  0  0  0  0  0  0  0  0
    5.2570   -5.0790   24.4290 N   0  0  0  0  0  0  0  0  0  0  0  0
    5.2150   -4.0000   25.2310 N   0  0  0  0  0  0  0  0  0  0  0  0
    6.3740   -3.1410   25.0830 C   0  0  0  0  0  0  0  0  0  0  0  0
    6.5330   -1.6540   26.0560 S   0  0  0  0  0  0  0  0  0  0  0  0
    7.2040   -3.6950   24.1330 N   0  0  0  0  0  0  0  0  0  0  0  0
    8.3820   -3.1400   23.7590 C   0  0  0  0  0  0  0  0  0  0  0  0
    8.3690   -2.5420   22.5070 C   0  0  0  0  0  0  0  0  0  0  0  0
    8.8620   -1.2330   22.5610 N   0  0  0  0  0  0  0  0  0  0  0  0
    8.3920   -0.2720   21.6400 C   0  0  0  0  0  0  0  0  0  0  0  0
    9.0570    0.8990   21.4070 O   0  0  0  0  0  0  0  0  0  0  0  0
    7.2050   -0.6790   21.0550 N   0  0  0  0  0  0  0  0  0  0  0  0
    6.4690    0.0240   20.0910 C   0  0  0  0  0  0  0  0  0  0  0  0
    5.3250    0.7820   20.3410 C   0  0  0  0  0  0  0  0  0  0  0  0
    4.6980    1.4340   19.2920 C   0  0  0  0  0  0  0  0  0  0  0  0
    5.1980    1.3390   17.9930 C   0  0  0  0  0  0  0  0  0  0  0  0
    6.2660    0.6430   17.6560 N   0  0  0  0  0  0  0  0  0  0  0  0
    6.9020   -0.0300   18.7870 C   0  0  0  0  0  0  0  0  0  0  0  0
  1  2  1  0
  2  3  2  0
  3  4  1  0
  4  5  2  0
  5  6  1  0
  2  7  1  0
  5  7  1  0
  7  8  1  0
  8  9  1  0
  9 10  1  0
 10 11  1  0
 11 12  2  0
 11 13  1  0
 13 14  1  0
 14 15  2  0
 15 16  1  0
 16 17  2  0
 17 18  1  0
 14 19  1  0
 18 19  2  0
M  END
