pyridine_urea_14949
     RDKit          3D

 19 20  0  0  0  0  0  0  0  0999 V2000
   13.2770   -2.7570   25.2420 C   0  0  0  0  0  0  0  0  0  0  0  0
   13.5760   -2.4360   23.7930 C   0  0  0  0  0  0  0  0  0  0  0  0
   12.4130   -2.1390   23.0130 N   0  0  0  0  0  0  0  0  0  0  0  0
   11.1960   -2.6440   23.4520 C   0  0  0  0  0  0  0  0  0  0  0  0
   10.2770   -1.5030   23.7360 C   0  0  2  0  0  0  0  0  0  0  0  0
    8.8650   -1.8330   23.3100 C   0  0  0  0  0  0  0  0  0  0  0  0
    8.1000   -0.7370   22.9260 N   0  0  0  0  0  0  0  0  0  0  0  0
    8.0660   -0.1590   21.6770 C   0  0  0  0  0  0  0  0  0  0  0  0
    8.8400    0.7080   21.2990 O   0  0  0  0  0  0  0  0  0  0  0  0
    7.0330   -0.6950   20.9470 N   0  0  0  0  0  0  0  0  0  0  0  0
    6.3310    0.0230   19.9760 C   0  0  0  0  0  0  0  0  0  0  0  0
    5.1300    0.7090   20.1690 C   0  0  0  0  0  0  0  0  0  0  0  0
    4.5540    1.3990   19.1050 C   0  0  0  0  0  0  0  0  0  0  0  0
    5.2020    1.3740   17.8890 C   0  0  0  0  0  0  0  0  0  0  0  0
    6.3540    0.7160   17.6810 N   0  0  0  0  0  0  0  0  0  0  0  0
    6.8820    0.0600   18.7220 C   0  0  0  0  0  0  0  0  0  0  0  0
   10.8590   -0.3580   22.9690 C   0  0  0  0  0  0  0  0  0  0  0  0
   12.2570   -0.7880   22.7650 C   0  0  0  0  0  0  0  0  0  0  0  0
   13.2260    0.1090   22.4180 O   0  0  0  0  0  0  0  0  0  0  0  0
  1  2  1  0
  2  3  1  0
  3  4  1  0
  4  5  1  0
  5  6  1  6
  6  7  1  0
  7  8  1  0
  8  9  2  0
  8 10  1  0
 10 11  1  0
 11 12  2  0
 12 13  1  0
 13 14  2  0
 14 15  1  0
 11 16  1  0
 15 16  2  0
  5 17  1  0
  3 18  1  0
 17 18  1  0
 18 19  2  0
M  END
