pyridine_urea_10663
     RDKit          3D

 21 23  0  0  0  0  0  0  0  0999 V2000
    9.0040    1.2160   21.1430 O   0  0  0  0  0  0  0  0  0  0  0  0
    8.4570    0.2220   21.6270 C   0  0  0  0  0  0  0  0  0  0  0  0
    8.7510   -0.3310   22.8460 N   0  0  0  0  0  0  0  0  0  0  0  0
    8.7410    0.3730   24.0720 C   0  0  0  0  0  0  0  0  0  0  0  0
    8.7180   -0.3520   25.4270 C   0  0  0  0  0  0  0  0  0  0  0  0
    8.2440    0.4060   26.4810 N   0  0  0  0  0  0  0  0  0  0  0  0
    6.9950    1.1080   26.5270 C   0  0  0  0  0  0  0  0  0  0  0  0
    6.9350    2.3020   27.4560 C   0  0  0  0  0  0  0  0  0  0  0  0
    7.6650    2.1870   28.6040 C   0  0  0  0  0  0  0  0  0  0  0  0
    7.6470    3.3320   29.9380 S   0  0  0  0  0  0  0  0  0  0  0  0
    8.8140    2.3300   30.7910 C   0  0  0  0  0  0  0  0  0  0  0  0
    9.1520    1.1880   30.0210 C   0  0  0  0  0  0  0  0  0  0  0  0
    8.5540    0.9930   28.7400 C   0  0  0  0  0  0  0  0  0  0  0  0
    8.6840    0.0120   27.7880 C   0  0  0  0  0  0  0  0  0  0  0  0
    7.4310   -0.4530   20.9930 N   0  0  0  0  0  0  0  0  0  0  0  0
    6.6030    0.1460   20.1150 C   0  0  0  0  0  0  0  0  0  0  0  0
    5.4160    0.8670   20.4740 C   0  0  0  0  0  0  0  0  0  0  0  0
    4.7090    1.4570   19.2520 C   0  0  0  0  0  0  0  0  0  0  0  0
    5.1760    1.2980   17.9760 C   0  0  0  0  0  0  0  0  0  0  0  0
    6.2660    0.6180   17.6450 N   0  0  0  0  0  0  0  0  0  0  0  0
    6.9410    0.0600   18.7760 C   0  0  0  0  0  0  0  0  0  0  0  0
  1  2  2  0
  2  3  1  0
  3  4  1  0
  4  5  1  0
  5  6  1  0
  6  7  1  0
  7  8  1  0
  8  9  1  0
  9 10  1  0
 10 11  1  0
 11 12  2  0
  9 13  2  0
 12 13  1  0
  6 14  1  0
 13 14  1  0
  2 15  1  0
 15 16  1  0
 16 17  2  0
 17 18  1  0
 18 19  2  0
 19 20  1  0
 16 21  1  0
 20 21  2  0
M  END
