pyridine_urea_9262
     RDKit          3D

 18 19  0  0  0  0  0  0  0  0999 V2000
   10.9710   -2.0320   21.8950 C   0  0  0  0  0  0  0  0  0  0  0  0
   10.4050   -0.7670   22.4700 C   0  0  1  0  0  0  0  0  0  0  0  0
    8.9650   -0.7460   22.4710 N   0  0  0  0  0  0  0  0  0  0  0  0
    8.3740    0.0880   21.5530 C   0  0  0  0  0  0  0  0  0  0  0  0
    8.8740    1.1760   21.2330 O   0  0  0  0  0  0  0  0  0  0  0  0
    7.2000   -0.4330   21.0790 N   0  0  0  0  0  0  0  0  0  0  0  0
    6.4990    0.1380   20.0230 C   0  0  0  0  0  0  0  0  0  0  0  0
    5.3390    0.8470   20.2900 C   0  0  0  0  0  0  0  0  0  0  0  0
    4.6450    1.4430   19.2450 C   0  0  0  0  0  0  0  0  0  0  0  0
    5.1400    1.3080   17.9620 C   0  0  0  0  0  0  0  0  0  0  0  0
    6.2510    0.6160   17.6830 N   0  0  0  0  0  0  0  0  0  0  0  0
    6.9020    0.0480   18.7130 C   0  0  0  0  0  0  0  0  0  0  0  0
   10.9490   -0.4900   23.8380 C   0  0  0  0  0  0  0  0  0  0  0  0
   10.5400   -0.5420   25.0590 C   0  0  0  0  0  0  0  0  0  0  0  0
   11.8010   -0.1690   24.5100 C   0  0  0  0  0  0  0  0  0  0  0  0
   11.7920   -0.2680   23.0230 C   0  0  0  0  0  0  0  0  0  0  0  0
   13.0690    0.1570   23.0310 C   0  0  0  0  0  0  0  0  0  0  0  0
   12.3400   -0.0060   24.2400 C   0  0  0  0  0  0  0  0  0  0  0  0
  2  1  1  1
  2  3  1  0
  3  4  1  0
  4  5  2  0
  4  6  1  0
  6  7  1  0
  7  8  2  0
  8  9  1  0
  9 10  2  0
 10 11  1  0
  7 12  1  0
 11 12  2  0
  2 13  1  0
 13 14  2  0
 14 15  1  0
 15 16  2  0
 16 17  1  0
 13 18  1  0
 17 18  2  0
M  END
