pyridine_urea_10308
     RDKit          3D

 22 24  0  0  0  0  0  0  0  0999 V2000
    8.8980    1.2410   21.2160 O   0  0  0  0  0  0  0  0  0  0  0  0
    8.3420    0.2040   21.6040 C   0  0  0  0  0  0  0  0  0  0  0  0
    8.7570   -0.5590   22.6650 N   0  0  0  0  0  0  0  0  0  0  0  0
   10.0820   -0.9230   22.9260 C   0  0  0  0  0  0  0  0  0  0  0  0
   10.8970   -0.2050   23.8290 C   0  0  0  0  0  0  0  0  0  0  0  0
   12.1310    0.1550   23.2920 C   0  0  0  0  0  0  0  0  0  0  0  0
   12.4920    1.5140   23.1510 C   0  0  0  0  0  0  0  0  0  0  0  0
   13.1060    0.4370   22.8420 C   0  0  0  0  0  0  0  0  0  0  0  0
   12.1340   -0.6770   23.3260 C   0  0  0  0  0  0  0  0  0  0  0  0
   12.5160   -1.9280   23.1270 C   0  0  0  0  0  0  0  0  0  0  0  0
   13.2390   -0.7850   22.7670 C   0  0  0  0  0  0  0  0  0  0  0  0
   11.2160   -2.4870   23.7800 C   0  0  0  0  0  0  0  0  0  0  0  0
   11.0220   -2.1280   24.9280 O   0  0  0  0  0  0  0  0  0  0  0  0
   10.4530   -0.9110   25.0460 C   0  0  0  0  0  0  0  0  0  0  0  0
   10.9730   -0.0820   23.9370 C   0  0  0  0  0  0  0  0  0  0  0  0
    7.2130   -0.3580   21.0770 N   0  0  0  0  0  0  0  0  0  0  0  0
    6.4970    0.2100   19.9730 C   0  0  0  0  0  0  0  0  0  0  0  0
    5.3380    0.9350   20.2080 C   0  0  0  0  0  0  0  0  0  0  0  0
    4.6140    1.5280   19.1950 C   0  0  0  0  0  0  0  0  0  0  0  0
    5.1080    1.3610   17.9160 C   0  0  0  0  0  0  0  0  0  0  0  0
    6.2190    0.6570   17.6370 N   0  0  0  0  0  0  0  0  0  0  0  0
    6.8850    0.1000   18.6660 C   0  0  0  0  0  0  0  0  0  0  0  0
  1  2  2  0
  2  3  1  0
  3  4  1  0
  4  5  1  0
  5  6  1  0
  6  7  2  0
  7  8  1  0
  8  9  2  0
  9 10  1  0
  6 11  1  0
 10 11  2  0
 10 12  1  0
 12 13  1  0
 13 14  1  0
  9 15  1  0
 14 15  1  0
  2 16  1  0
 16 17  1  0
 17 18  2  0
 18 19  1  0
 19 20  2  0
 20 21  1  0
 17 22  1  0
 21 22  2  0
M  END
