pyridine_urea_10184
     RDKit          3D

 23 24  0  0  0  0  0  0  0  0999 V2000
   11.6250   -2.1630   21.5710 C   0  0  0  0  0  0  0  0  0  0  0  0
   13.1000   -2.0800   21.8050 C   0  0  0  0  0  0  0  0  0  0  0  0
   13.4620   -3.0520   22.8300 N   0  0  0  0  0  0  0  0  0  0  0  0
   13.5160   -2.5720   24.1850 C   0  0  0  0  0  0  0  0  0  0  0  0
   13.6220   -3.4860   25.2820 O   0  0  0  0  0  0  0  0  0  0  0  0
   13.4600   -1.2400   24.2570 N   0  0  0  0  0  0  0  0  0  0  0  0
   12.3960   -0.4570   23.7050 C   0  0  0  0  0  0  0  0  0  0  0  0
   12.7350    0.7990   23.2780 C   0  0  0  0  0  0  0  0  0  0  0  0
   11.7960    1.6440   22.7840 C   0  0  0  0  0  0  0  0  0  0  0  0
   10.3650    1.1400   22.7020 C   0  0  0  0  0  0  0  0  0  0  0  0
    9.9510   -0.1110   23.0880 C   0  0  0  0  0  0  0  0  0  0  0  0
    8.6550   -0.5090   22.9670 N   0  0  0  0  0  0  0  0  0  0  0  0
    8.0830   -0.6320   21.7110 C   0  0  0  0  0  0  0  0  0  0  0  0
    8.8870   -0.9010   20.6300 O   0  0  0  0  0  0  0  0  0  0  0  0
    6.6730   -0.4480   21.5480 N   0  0  0  0  0  0  0  0  0  0  0  0
    6.1970    0.1310   20.3320 C   0  0  0  0  0  0  0  0  0  0  0  0
    5.0540    0.9230   20.3230 C   0  0  0  0  0  0  0  0  0  0  0  0
    4.5280    1.5590   19.0800 C   0  0  0  0  0  0  0  0  0  0  0  0
    5.2310    1.3320   17.8960 C   0  0  0  0  0  0  0  0  0  0  0  0
    6.3650    0.5370   17.9120 N   0  0  0  0  0  0  0  0  0  0  0  0
    6.8420   -0.0550   19.1040 C   0  0  0  0  0  0  0  0  0  0  0  0
   11.0770   -0.9540   23.6290 C   0  0  0  0  0  0  0  0  0  0  0  0
   10.7960   -2.2410   24.0660 C   0  0  0  0  0  0  0  0  0  0  0  0
  1  2  1  0
  2  3  1  0
  3  4  1  0
  4  5  2  0
  4  6  1  0
  6  7  1  0
  7  8  2  0
  8  9  1  0
  9 10  2  0
 10 11  1  0
 11 12  1  0
 12 13  1  0
 13 14  2  0
 13 15  1  0
 15 16  1  0
 16 17  2  0
 17 18  1  0
 18 19  2  0
 19 20  1  0
 16 21  1  0
 20 21  2  0
  7 22  1  0
 11 22  2  0
 22 23  1  0
M  END
