pyridine_urea_2919
     RDKit          3D

 22 23  0  0  0  0  0  0  0  0999 V2000
   12.8020    3.8210   22.4540 C   0  0  0  0  0  0  0  0  0  0  0  0
   13.4270    2.5910   22.8210 O   0  0  0  0  0  0  0  0  0  0  0  0
   12.4970    1.5440   22.9550 C   0  0  0  0  0  0  0  0  0  0  0  0
   11.1690    1.9590   23.5860 C   0  0  0  0  0  0  0  0  0  0  0  0
   10.0140    1.2400   23.8560 C   0  0  0  0  0  0  0  0  0  0  0  0
    9.0190    0.1160   23.9580 C   0  0  0  0  0  0  0  0  0  0  0  0
    8.0240    0.2550   23.0530 N   0  0  0  0  0  0  0  0  0  0  0  0
    8.1640    0.4480   21.6900 C   0  0  0  0  0  0  0  0  0  0  0  0
    8.9320    1.2610   21.1640 O   0  0  0  0  0  0  0  0  0  0  0  0
    7.2750   -0.3880   21.0230 N   0  0  0  0  0  0  0  0  0  0  0  0
    6.5550    0.1830   19.9140 C   0  0  0  0  0  0  0  0  0  0  0  0
    5.3020    0.9550   20.3400 C   0  0  0  0  0  0  0  0  0  0  0  0
    4.5410    1.6110   19.2070 C   0  0  0  0  0  0  0  0  0  0  0  0
    5.1080    1.4180   17.8230 C   0  0  0  0  0  0  0  0  0  0  0  0
    6.2310    0.6860   17.5860 N   0  0  0  0  0  0  0  0  0  0  0  0
    6.9390    0.0800   18.6070 C   0  0  0  0  0  0  0  0  0  0  0  0
   10.4290   -0.0310   23.3630 C   0  0  0  0  0  0  0  0  0  0  0  0
   11.5870   -0.5080   22.7920 C   0  0  0  0  0  0  0  0  0  0  0  0
   11.6200   -2.2990   22.3030 Br  0  0  0  0  0  0  0  0  0  0  0  0
   12.6470    0.2590   22.5810 C   0  0  0  0  0  0  0  0  0  0  0  0
   13.7390   -0.4060   21.9850 O   0  0  0  0  0  0  0  0  0  0  0  0
   13.3470   -1.6370   21.3620 C   0  0  0  0  0  0  0  0  0  0  0  0
  1  2  1  0
  2  3  1  0
  3  4  2  0
  4  5  1  0
  5  6  1  0
  6  7  1  0
  7  8  1  0
  8  9  2  0
  8 10  1  0
 10 11  1  0
 11 12  2  0
 12 13  1  0
 13 14  2  0
 14 15  1  0
 11 16  1  0
 15 16  2  0
  5 17  2  0
 17 18  1  0
 18 19  1  0
  3 20  1  0
 18 20  2  0
 20 21  1  0
 21 22  1  0
M  END
