pyridine_urea_1843
     RDKit          3D

 17 17  0  0  0  0  0  0  0  0999 V2000
   13.1530   -2.0310   21.1100 C   0  0  0  0  0  0  0  0  0  0  0  0
   12.6930   -1.1430   22.0960 O   0  0  0  0  0  0  0  0  0  0  0  0
   11.4680   -1.5660   22.5350 C   0  0  0  0  0  0  0  0  0  0  0  0
   11.2790   -2.6850   22.9900 O   0  0  0  0  0  0  0  0  0  0  0  0
   10.4510   -0.6400   22.4510 C   0  0  2  0  0  0  0  0  0  0  0  0
    9.8180   -0.4230   23.6270 C   0  0  0  0  0  0  0  0  0  0  0  0
   10.3920   -1.2700   24.5290 O   0  0  0  0  0  0  0  0  0  0  0  0
    9.3820   -0.9100   21.5750 N   0  0  0  0  0  0  0  0  0  0  0  0
    8.4280    0.0310   21.2330 C   0  0  0  0  0  0  0  0  0  0  0  0
    8.7220    1.2280   21.1050 O   0  0  0  0  0  0  0  0  0  0  0  0
    7.2130   -0.5280   21.0520 N   0  0  0  0  0  0  0  0  0  0  0  0
    6.5230    0.0670   20.0560 C   0  0  0  0  0  0  0  0  0  0  0  0
    5.3520    0.7570   20.3640 C   0  0  0  0  0  0  0  0  0  0  0  0
    4.6010    1.4420   19.2060 C   0  0  0  0  0  0  0  0  0  0  0  0
    5.1490    1.3180   17.9550 C   0  0  0  0  0  0  0  0  0  0  0  0
    6.2760    0.6320   17.7130 N   0  0  0  0  0  0  0  0  0  0  0  0
    6.9200    0.0370   18.7380 C   0  0  0  0  0  0  0  0  0  0  0  0
  1  2  1  0
  2  3  1  0
  3  4  2  0
  3  5  1  0
  5  6  1  1
  6  7  1  0
  5  8  1  0
  8  9  1  0
  9 10  2  0
  9 11  1  0
 11 12  1  0
 12 13  2  0
 13 14  1  0
 14 15  2  0
 15 16  1  0
 12 17  1  0
 16 17  2  0
M  END
