pyridine_urea_11148
     RDKit          3D

 18 19  0  0  0  0  0  0  0  0999 V2000
   12.2930    1.9760   22.7190 C   0  0  0  0  0  0  0  0  0  0  0  0
   12.6570    0.8740   23.0170 C   0  0  0  0  0  0  0  0  0  0  0  0
   12.9540   -0.3770   23.3680 C   0  0  0  0  0  0  0  0  0  0  0  0
   11.4800   -0.7580   23.6620 C   0  0  0  0  0  0  0  0  0  0  0  0
   11.5610   -1.9990   24.0330 N   0  0  0  0  0  0  0  0  0  0  0  0
   12.7220   -1.4170   23.7190 C   0  0  0  0  0  0  0  0  0  0  0  0
   11.6520   -0.0710   23.3880 C   0  0  0  0  0  0  0  0  0  0  0  0
   10.1490    0.0270   23.4880 C   0  0  0  0  0  0  0  0  0  0  0  0
    9.4200   -0.6520   22.4030 N   0  0  0  0  0  0  0  0  0  0  0  0
    8.5770    0.1480   21.4840 C   0  0  0  0  0  0  0  0  0  0  0  0
    8.9910    1.4420   21.0510 O   0  0  0  0  0  0  0  0  0  0  0  0
    7.4140   -0.4630   21.1360 N   0  0  0  0  0  0  0  0  0  0  0  0
    6.7060    0.0560   20.0920 C   0  0  0  0  0  0  0  0  0  0  0  0
    5.5420    0.8020   20.3520 C   0  0  0  0  0  0  0  0  0  0  0  0
    4.7630    1.3840   19.3410 C   0  0  0  0  0  0  0  0  0  0  0  0
    5.1510    1.2220   18.0340 C   0  0  0  0  0  0  0  0  0  0  0  0
    6.2650    0.5020   17.7430 N   0  0  0  0  0  0  0  0  0  0  0  0
    7.0410   -0.0810   18.7500 C   0  0  0  0  0  0  0  0  0  0  0  0
  1  2  1  0
  2  3  2  0
  3  4  1  0
  4  5  2  0
  5  6  1  0
  2  7  1  0
  6  7  2  0
  7  8  1  0
  8  9  1  0
  9 10  1  0
 10 11  2  0
 10 12  1  0
 12 13  1  0
 13 14  2  0
 14 15  1  0
 15 16  2  0
 16 17  1  0
 13 18  1  0
 17 18  2  0
M  END
