pyridine_urea_8813
     RDKit          3D

 20 21  0  0  0  0  0  0  0  0999 V2000
    8.8820    1.1330   21.1910 O   0  0  0  0  0  0  0  0  0  0  0  0
    8.3060    0.0930   21.5530 C   0  0  0  0  0  0  0  0  0  0  0  0
    8.7080   -0.6290   22.6350 N   0  0  0  0  0  0  0  0  0  0  0  0
    9.2140    0.0940   23.7770 C   0  0  0  0  0  0  0  0  0  0  0  0
   10.5340    0.7580   23.4130 C   0  0  0  0  0  0  0  0  0  0  0  0
   10.6470   -0.6560   23.5130 C   0  0  0  0  0  0  0  0  0  0  0  0
   11.7110   -1.4790   23.3360 C   0  0  0  0  0  0  0  0  0  0  0  0
   11.5800   -2.8040   23.4810 F   0  0  0  0  0  0  0  0  0  0  0  0
   12.8930   -0.9820   23.0210 C   0  0  0  0  0  0  0  0  0  0  0  0
   13.8450   -1.9030   22.8760 F   0  0  0  0  0  0  0  0  0  0  0  0
   13.0080    0.3470   22.8840 C   0  0  0  0  0  0  0  0  0  0  0  0
   11.8860    1.1430   23.0670 C   0  0  0  0  0  0  0  0  0  0  0  0
   12.2380    3.0000   22.7920 Br  0  0  0  0  0  0  0  0  0  0  0  0
    7.2020   -0.4790   20.9870 N   0  0  0  0  0  0  0  0  0  0  0  0
    6.4950    0.1280   19.9820 C   0  0  0  0  0  0  0  0  0  0  0  0
    5.3250    0.8210   20.3080 C   0  0  0  0  0  0  0  0  0  0  0  0
    4.6130    1.4590   19.2840 C   0  0  0  0  0  0  0  0  0  0  0  0
    5.1550    1.3560   17.9020 C   0  0  0  0  0  0  0  0  0  0  0  0
    6.2700    0.6730   17.6390 N   0  0  0  0  0  0  0  0  0  0  0  0
    6.9020    0.0850   18.6710 C   0  0  0  0  0  0  0  0  0  0  0  0
  1  2  2  0
  2  3  1  0
  3  4  1  0
  4  5  1  0
  5  6  2  0
  6  7  1  0
  7  8  1  0
  7  9  2  0
  9 10  1  0
  9 11  1  0
  5 12  1  0
 11 12  2  0
 12 13  1  0
  2 14  1  0
 14 15  1  0
 15 16  2  0
 16 17  1  0
 17 18  2  0
 18 19  1  0
 15 20  1  0
 19 20  2  0
M  END
