pyridine_urea_5872
     RDKit          3D

 23 24  0  0  0  0  0  0  0  0999 V2000
    8.9450    0.8720   21.4160 O   0  0  0  0  0  0  0  0  0  0  0  0
    8.4800   -0.2490   21.5650 C   0  0  0  0  0  0  0  0  0  0  0  0
    9.1570   -1.2640   22.3690 N   0  0  0  0  0  0  0  0  0  0  0  0
   10.3170   -0.9170   23.0750 C   0  0  0  0  0  0  0  0  0  0  0  0
   11.5530   -1.2330   22.4940 C   0  0  0  0  0  0  0  0  0  0  0  0
   12.5990   -0.4750   23.0560 C   0  0  0  0  0  0  0  0  0  0  0  0
   12.6660    0.8920   22.5560 N   0  0  0  0  0  0  0  0  0  0  0  0
   11.6970    1.8410   22.8340 C   0  0  0  0  0  0  0  0  0  0  0  0
   10.5150    1.6360   23.0500 O   0  0  0  0  0  0  0  0  0  0  0  0
   12.0420    3.3040   22.8760 C   0  0  0  0  0  0  0  0  0  0  0  0
   11.1580    4.1790   23.7540 C   0  0  0  0  0  0  0  0  0  0  0  0
   11.5120    5.6650   23.8140 C   0  0  0  0  0  0  0  0  0  0  0  0
   12.5970    6.1150   23.0780 C   0  0  0  0  0  0  0  0  0  0  0  0
   12.9470    7.2840   23.0940 O   0  0  0  0  0  0  0  0  0  0  0  0
   13.3480    5.2360   22.2870 C   0  0  0  0  0  0  0  0  0  0  0  0
   13.1010    3.8700   22.1720 C   0  0  0  0  0  0  0  0  0  0  0  0
    7.2900   -0.7070   21.0360 N   0  0  0  0  0  0  0  0  0  0  0  0
    6.5470   -0.0430   20.1090 C   0  0  0  0  0  0  0  0  0  0  0  0
    5.3760    0.6820   20.3520 C   0  0  0  0  0  0  0  0  0  0  0  0
    4.6890    1.3520   19.3160 C   0  0  0  0  0  0  0  0  0  0  0  0
    5.1840    1.2940   18.0150 C   0  0  0  0  0  0  0  0  0  0  0  0
    6.3060    0.5960   17.7420 N   0  0  0  0  0  0  0  0  0  0  0  0
    6.9770   -0.0710   18.8000 C   0  0  0  0  0  0  0  0  0  0  0  0
  1  2  2  0
  2  3  1  0
  3  4  1  0
  4  5  1  0
  5  6  1  0
  6  7  1  0
  7  8  1  0
  8  9  2  0
  8 10  1  0
 10 11  2  0
 11 12  1  0
 12 13  2  0
 13 14  1  0
 13 15  1  0
 10 16  1  0
 15 16  2  0
  2 17  1  0
 17 18  1  0
 18 19  2  0
 19 20  1  0
 20 21  2  0
 21 22  1  0
 18 23  1  0
 22 23  2  0
M  END
