pyridine_urea_10980
     RDKit          3D

 19 20  0  0  0  0  0  0  0  0999 V2000
   13.1990   -1.8030   21.5940 C   0  0  0  0  0  0  0  0  0  0  0  0
   12.2030   -0.9590   22.2980 C   0  0  0  0  0  0  0  0  0  0  0  0
   10.8840   -1.4200   22.1960 C   0  0  0  0  0  0  0  0  0  0  0  0
    9.8440   -0.7300   22.8000 C   0  0  0  0  0  0  0  0  0  0  0  0
    8.5580   -0.9420   22.8370 N   0  0  0  0  0  0  0  0  0  0  0  0
    8.1460   -0.2130   21.7430 C   0  0  0  0  0  0  0  0  0  0  0  0
    8.7800    0.7350   21.3050 O   0  0  0  0  0  0  0  0  0  0  0  0
    6.9730   -0.6680   21.2610 N   0  0  0  0  0  0  0  0  0  0  0  0
    6.4450   -0.0530   20.1610 C   0  0  0  0  0  0  0  0  0  0  0  0
    5.1800    0.7270   20.3830 C   0  0  0  0  0  0  0  0  0  0  0  0
    4.6200    1.4050   19.1720 C   0  0  0  0  0  0  0  0  0  0  0  0
    5.2520    1.2960   17.9590 C   0  0  0  0  0  0  0  0  0  0  0  0
    6.3710    0.6100   17.7200 N   0  0  0  0  0  0  0  0  0  0  0  0
    6.9300   -0.0520   18.8570 C   0  0  0  0  0  0  0  0  0  0  0  0
   10.2560    0.3690   23.4650 C   0  0  0  0  0  0  0  0  0  0  0  0
    9.8170    1.4320   24.2320 C   0  0  0  0  0  0  0  0  0  0  0  0
   11.5890    0.9610   23.6520 C   0  0  0  0  0  0  0  0  0  0  0  0
   12.5470    0.2110   23.0030 C   0  0  0  0  0  0  0  0  0  0  0  0
   13.8010    0.5740   23.0210 F   0  0  0  0  0  0  0  0  0  0  0  0
  1  2  1  0
  2  3  2  0
  3  4  1  0
  4  5  1  0
  5  6  1  0
  6  7  2  0
  6  8  1  0
  8  9  1  0
  9 10  2  0
 10 11  1  0
 11 12  2  0
 12 13  1  0
  9 14  1  0
 13 14  2  0
  4 15  2  0
 15 16  1  0
 15 17  1  0
  2 18  1  0
 17 18  2  0
 18 19  1  0
M  END
