pyridine_urea_4968
     RDKit          3D

 21 22  0  0  0  0  0  0  0  0999 V2000
   13.0490   -2.4680   24.7490 C   0  0  0  0  0  0  0  0  0  0  0  0
   13.7360   -2.6490   23.5190 O   0  0  0  0  0  0  0  0  0  0  0  0
   13.1780   -2.1220   22.3910 C   0  0  0  0  0  0  0  0  0  0  0  0
   13.3350   -2.5620   21.2640 O   0  0  0  0  0  0  0  0  0  0  0  0
   12.3080   -0.8990   22.6420 C   0  0  0  0  0  0  0  0  0  0  0  0
   12.8950    0.3320   22.8890 C   0  0  0  0  0  0  0  0  0  0  0  0
   12.0930    1.4310   23.0990 C   0  0  0  0  0  0  0  0  0  0  0  0
   10.7060    1.2890   23.0640 C   0  0  0  0  0  0  0  0  0  0  0  0
    9.9260    2.3620   23.2650 F   0  0  0  0  0  0  0  0  0  0  0  0
   10.1210    0.0650   22.8290 C   0  0  0  0  0  0  0  0  0  0  0  0
    8.7270   -0.1320   22.7860 N   0  0  0  0  0  0  0  0  0  0  0  0
    8.1230   -0.5180   21.6220 C   0  0  0  0  0  0  0  0  0  0  0  0
    8.8740   -1.1690   20.6850 O   0  0  0  0  0  0  0  0  0  0  0  0
    6.7940   -0.2120   21.4720 N   0  0  0  0  0  0  0  0  0  0  0  0
    6.2710    0.2760   20.2770 C   0  0  0  0  0  0  0  0  0  0  0  0
    5.0850    1.0100   20.3580 C   0  0  0  0  0  0  0  0  0  0  0  0
    4.5270    1.5360   19.1900 C   0  0  0  0  0  0  0  0  0  0  0  0
    5.2340    1.2860   17.9000 C   0  0  0  0  0  0  0  0  0  0  0  0
    6.3650    0.5760   17.8440 N   0  0  0  0  0  0  0  0  0  0  0  0
    6.8510    0.0890   19.0180 C   0  0  0  0  0  0  0  0  0  0  0  0
   10.9300   -1.0450   22.6100 C   0  0  0  0  0  0  0  0  0  0  0  0
  1  2  1  0
  2  3  1  0
  3  4  2  0
  3  5  1  0
  5  6  2  0
  6  7  1  0
  7  8  2  0
  8  9  1  0
  8 10  1  0
 10 11  1  0
 11 12  1  0
 12 13  2  0
 12 14  1  0
 14 15  1  0
 15 16  2  0
 16 17  1  0
 17 18  2  0
 18 19  1  0
 15 20  1  0
 19 20  2  0
  5 21  1  0
 10 21  2  0
M  END
