pyridine_urea_10976
     RDKit          3D

 19 20  0  0  0  0  0  0  0  0999 V2000
   11.4170    5.1500   24.1550 C   0  0  0  0  0  0  0  0  0  0  0  0
   11.9110    4.6130   22.8390 C   0  0  0  0  0  0  0  0  0  0  0  0
   13.2440    4.8490   22.4930 C   0  0  0  0  0  0  0  0  0  0  0  0
   11.6790    3.0870   22.8640 C   0  0  0  0  0  0  0  0  0  0  0  0
   12.6800    2.2330   22.9340 N   0  0  0  0  0  0  0  0  0  0  0  0
   12.4010    0.8720   22.9580 N   0  0  0  0  0  0  0  0  0  0  0  0
   11.0050    0.7210   22.8970 C   0  0  0  0  0  0  0  0  0  0  0  0
   10.3770   -0.6510   22.9080 C   0  0  0  0  0  0  0  0  0  0  0  0
    9.1110   -0.7930   22.4680 N   0  0  0  0  0  0  0  0  0  0  0  0
    8.4470    0.0720   21.5080 C   0  0  0  0  0  0  0  0  0  0  0  0
    8.8750    1.1720   21.1290 O   0  0  0  0  0  0  0  0  0  0  0  0
    7.3150   -0.4520   21.0900 N   0  0  0  0  0  0  0  0  0  0  0  0
    6.5700    0.1200   20.0540 C   0  0  0  0  0  0  0  0  0  0  0  0
    5.4240    0.8180   20.3600 C   0  0  0  0  0  0  0  0  0  0  0  0
    4.6980    1.4030   19.3310 C   0  0  0  0  0  0  0  0  0  0  0  0
    5.1320    1.2750   18.0200 C   0  0  0  0  0  0  0  0  0  0  0  0
    6.2280    0.6020   17.6570 N   0  0  0  0  0  0  0  0  0  0  0  0
    6.9240    0.0330   18.7310 C   0  0  0  0  0  0  0  0  0  0  0  0
   10.1220    2.1850   22.8120 S   0  0  0  0  0  0  0  0  0  0  0  0
  1  2  1  0
  2  3  1  0
  2  4  1  0
  4  5  2  0
  5  6  1  0
  6  7  2  0
  7  8  1  0
  8  9  1  0
  9 10  1  0
 10 11  2  0
 10 12  1  0
 12 13  1  0
 13 14  2  0
 14 15  1  0
 15 16  2  0
 16 17  1  0
 13 18  1  0
 17 18  2  0
  4 19  1  0
  7 19  1  0
M  END
