pyridine_urea_3104
     RDKit          3D

 21 22  0  0  0  0  0  0  0  0999 V2000
    8.6770    1.3290   21.0510 O   0  0  0  0  0  0  0  0  0  0  0  0
    8.3150    0.2350   21.4930 C   0  0  0  0  0  0  0  0  0  0  0  0
    8.9580   -0.4210   22.4900 N   0  0  0  0  0  0  0  0  0  0  0  0
   10.2110    0.0270   22.9220 C   0  0  0  0  0  0  0  0  0  0  0  0
   10.4290    1.4090   22.8770 C   0  0  0  0  0  0  0  0  0  0  0  0
   11.7430    1.7960   23.1680 C   0  0  0  0  0  0  0  0  0  0  0  0
   12.2600    0.8990   23.8080 O   0  0  0  0  0  0  0  0  0  0  0  0
   12.3690   -0.1130   23.0040 C   0  0  0  0  0  0  0  0  0  0  0  0
   13.5080   -0.2210   22.1100 C   0  0  0  0  0  0  0  0  0  0  0  0
   13.5800   -1.2410   21.2230 C   0  0  0  0  0  0  0  0  0  0  0  0
   12.4910   -2.2190   21.2200 C   0  0  0  0  0  0  0  0  0  0  0  0
   12.6410   -3.1250   20.3440 F   0  0  0  0  0  0  0  0  0  0  0  0
   11.4370   -2.1090   22.0930 C   0  0  0  0  0  0  0  0  0  0  0  0
   11.3650   -1.0730   22.9770 C   0  0  0  0  0  0  0  0  0  0  0  0
    7.2140   -0.4390   21.0500 N   0  0  0  0  0  0  0  0  0  0  0  0
    6.4920    0.1230   20.0040 C   0  0  0  0  0  0  0  0  0  0  0  0
    5.3180    0.8170   20.2920 C   0  0  0  0  0  0  0  0  0  0  0  0
    4.6090    1.4100   19.2500 C   0  0  0  0  0  0  0  0  0  0  0  0
    5.1150    1.2710   17.9720 C   0  0  0  0  0  0  0  0  0  0  0  0
    6.2330    0.5980   17.6740 N   0  0  0  0  0  0  0  0  0  0  0  0
    6.9020    0.0350   18.6940 C   0  0  0  0  0  0  0  0  0  0  0  0
  1  2  2  0
  2  3  1  0
  3  4  1  0
  4  5  1  0
  5  6  1  0
  6  7  1  0
  7  8  1  0
  8  9  2  0
  9 10  1  0
 10 11  2  0
 11 12  1  0
 11 13  1  0
  8 14  1  0
 13 14  2  0
  2 15  1  0
 15 16  1  0
 16 17  2  0
 17 18  1  0
 18 19  2  0
 19 20  1  0
 16 21  1  0
 20 21  2  0
M  END
