pyridine_urea_8164
     RDKit          3D

 23 24  0  0  0  0  0  0  0  0999 V2000
   12.4660    3.4150   22.7140 C   0  0  0  0  0  0  0  0  0  0  0  0
   11.4520    2.9780   23.6180 O   0  0  0  0  0  0  0  0  0  0  0  0
   11.5290    1.5640   23.8340 C   0  0  0  0  0  0  0  0  0  0  0  0
   12.4170    0.9470   24.3690 O   0  0  0  0  0  0  0  0  0  0  0  0
   10.2710    0.8670   23.2670 C   0  0  0  0  0  0  0  0  0  0  0  0
   10.2090   -0.5150   23.2610 C   0  0  1  0  0  0  0  0  0  0  0  0
   10.3280   -0.9560   24.7220 C   0  0  0  0  0  0  0  0  0  0  0  0
    9.0930   -0.9480   22.5310 N   0  0  0  0  0  0  0  0  0  0  0  0
    8.3820   -0.1770   21.5950 C   0  0  0  0  0  0  0  0  0  0  0  0
    8.7780    0.9230   21.2350 O   0  0  0  0  0  0  0  0  0  0  0  0
    7.1950   -0.7540   21.1310 N   0  0  0  0  0  0  0  0  0  0  0  0
    6.5040   -0.0740   20.0250 C   0  0  0  0  0  0  0  0  0  0  0  0
    5.2190    0.6590   20.4630 C   0  0  0  0  0  0  0  0  0  0  0  0
    4.5500    1.3780   19.2900 C   0  0  0  0  0  0  0  0  0  0  0  0
    5.1630    1.3100   17.9110 C   0  0  0  0  0  0  0  0  0  0  0  0
    6.3080    0.6050   17.6990 N   0  0  0  0  0  0  0  0  0  0  0  0
    6.9570   -0.0660   18.7220 C   0  0  0  0  0  0  0  0  0  0  0  0
   11.2210   -1.1540   22.5380 C   0  0  0  0  0  0  0  0  0  0  0  0
   11.2980   -2.1500   21.7110 C   0  0  0  0  0  0  0  0  0  0  0  0
   12.7310   -2.0950   21.4710 C   0  0  0  0  0  0  0  0  0  0  0  0
   13.5890   -1.0950   22.1120 N   0  0  0  0  0  0  0  0  0  0  0  0
   12.9410   -0.1910   22.9840 C   0  0  0  0  0  0  0  0  0  0  0  0
   12.5320   -1.1470   22.2840 C   0  0  0  0  0  0  0  0  0  0  0  0
  1  2  1  0
  2  3  1  0
  3  4  2  0
  3  5  1  0
  5  6  1  0
  6  7  1  1
  6  8  1  0
  8  9  1  0
  9 10  2  0
  9 11  1  0
 11 12  1  0
 12 13  2  0
 13 14  1  0
 14 15  2  0
 15 16  1  0
 12 17  1  0
 16 17  2  0
  6 18  1  0
 18 19  2  0
 19 20  1  0
 20 21  2  0
 21 22  1  0
 18 23  1  0
 22 23  2  0
M  END
