pyridine_urea_8479
     RDKit          3D

 22 23  0  0  0  0  0  0  0  0999 V2000
    9.3860    0.1100   26.4690 C   0  0  0  0  0  0  0  0  0  0  0  0
   10.2510   -0.2820   25.3000 C   0  0  0  0  0  0  0  0  0  0  0  0
    9.6330   -1.0620   24.3520 C   0  0  0  0  0  0  0  0  0  0  0  0
    9.7270   -0.7400   23.0160 C   0  0  2  0  0  0  0  0  0  0  0  0
    8.7690   -1.1470   22.1930 N   0  0  0  0  0  0  0  0  0  0  0  0
    8.1800   -0.2360   21.4210 C   0  0  0  0  0  0  0  0  0  0  0  0
    8.6440    0.8720   21.1910 O   0  0  0  0  0  0  0  0  0  0  0  0
    7.0200   -0.7510   20.9750 N   0  0  0  0  0  0  0  0  0  0  0  0
    6.3820   -0.0380   20.0330 C   0  0  0  0  0  0  0  0  0  0  0  0
    5.2100    0.7110   20.2330 C   0  0  0  0  0  0  0  0  0  0  0  0
    4.5580    1.5030   19.0830 C   0  0  0  0  0  0  0  0  0  0  0  0
    5.1860    1.4400   17.8520 C   0  0  0  0  0  0  0  0  0  0  0  0
    6.3110    0.6930   17.7280 N   0  0  0  0  0  0  0  0  0  0  0  0
    6.9050   -0.0270   18.7570 C   0  0  0  0  0  0  0  0  0  0  0  0
   10.9280   -1.3500   22.3630 C   0  0  0  0  0  0  0  0  0  0  0  0
   11.4330   -0.1500   22.8540 C   0  0  0  0  0  0  0  0  0  0  0  0
   12.4250    0.7450   23.0530 C   0  0  0  0  0  0  0  0  0  0  0  0
   12.3410    1.8990   23.6590 F   0  0  0  0  0  0  0  0  0  0  0  0
   13.5160    0.3070   22.5340 C   0  0  0  0  0  0  0  0  0  0  0  0
   13.3940   -0.9030   21.9280 C   0  0  0  0  0  0  0  0  0  0  0  0
   12.2250   -1.6140   21.8670 C   0  0  0  0  0  0  0  0  0  0  0  0
   12.4090   -2.7170   21.2110 F   0  0  0  0  0  0  0  0  0  0  0  0
  1  2  1  0
  2  3  1  0
  4  3  1  1
  4  5  1  0
  5  6  1  0
  6  7  2  0
  6  8  1  0
  8  9  1  0
  9 10  2  0
 10 11  1  0
 11 12  2  0
 12 13  1  0
  9 14  1  0
 13 14  2  0
  4 15  1  0
 15 16  2  0
 16 17  1  0
 17 18  1  0
 17 19  2  0
 19 20  1  0
 15 21  1  0
 20 21  2  0
 21 22  1  0
M  END
