pyridine_urea_8247
     RDKit          3D

 23 24  0  0  0  0  0  0  0  0999 V2000
   10.1780   -2.8450   23.6580 C   0  0  0  0  0  0  0  0  0  0  0  0
   11.3940   -3.3860   24.1590 O   0  0  0  0  0  0  0  0  0  0  0  0
   12.4220   -2.4030   24.2420 C   0  0  0  0  0  0  0  0  0  0  0  0
   12.5920   -1.6170   25.1570 O   0  0  0  0  0  0  0  0  0  0  0  0
   13.3690   -2.4320   22.9850 C   0  0  0  0  0  0  0  0  0  0  0  0
   12.8930   -2.2540   21.6780 C   0  0  0  0  0  0  0  0  0  0  0  0
   11.7220   -1.9890   21.7210 O   0  0  0  0  0  0  0  0  0  0  0  0
   11.5690   -0.8170   22.3330 C   0  0  0  0  0  0  0  0  0  0  0  0
   12.6190   -0.0230   22.6820 C   0  0  0  0  0  0  0  0  0  0  0  0
   12.4870    1.2960   23.3540 C   0  0  0  0  0  0  0  0  0  0  0  0
   11.1620    1.8850   23.7390 C   0  0  0  0  0  0  0  0  0  0  0  0
   10.0140    0.9740   23.3370 C   0  0  0  0  0  0  0  0  0  0  0  0
   10.2900   -0.3530   22.6290 C   0  0  0  0  0  0  0  0  0  0  0  0
    9.0840   -1.0650   22.2740 N   0  0  0  0  0  0  0  0  0  0  0  0
    8.3080   -0.2400   21.4930 C   0  0  0  0  0  0  0  0  0  0  0  0
    8.6250    0.9150   21.2420 O   0  0  0  0  0  0  0  0  0  0  0  0
    7.1110   -0.8000   21.0010 N   0  0  0  0  0  0  0  0  0  0  0  0
    6.3770   -0.0940   20.0660 C   0  0  0  0  0  0  0  0  0  0  0  0
    5.1690    0.5740   20.2950 C   0  0  0  0  0  0  0  0  0  0  0  0
    4.5980    1.2480   19.2200 C   0  0  0  0  0  0  0  0  0  0  0  0
    5.2010    1.2560   17.9790 C   0  0  0  0  0  0  0  0  0  0  0  0
    6.3490    0.6200   17.7340 N   0  0  0  0  0  0  0  0  0  0  0  0
    6.9020   -0.0350   18.7780 C   0  0  0  0  0  0  0  0  0  0  0  0
  1  2  1  0
  2  3  1  0
  3  4  2  0
  3  5  1  0
  5  6  1  0
  6  7  1  0
  7  8  1  0
  8  9  2  0
  9 10  1  0
 10 11  2  0
 11 12  1  0
  8 13  1  0
 12 13  2  0
 13 14  1  0
 14 15  1  0
 15 16  2  0
 15 17  1  0
 17 18  1  0
 18 19  2  0
 19 20  1  0
 20 21  2  0
 21 22  1  0
 18 23  1  0
 22 23  2  0
M  END
