pyridine_urea_8183
     RDKit          3D

 23 25  0  0  0  0  0  0  0  0999 V2000
    8.9920    0.6780   21.4760 O   0  0  0  0  0  0  0  0  0  0  0  0
    7.8930    0.3270   21.8720 C   0  0  0  0  0  0  0  0  0  0  0  0
    7.3830    0.7500   23.1000 N   0  0  0  0  0  0  0  0  0  0  0  0
    7.9140    0.1950   24.3230 C   0  0  0  0  0  0  0  0  0  0  0  0
    8.9080   -0.7960   23.8320 C   0  0  0  0  0  0  0  0  0  0  0  0
    9.9350   -0.1550   23.2410 C   0  0  0  0  0  0  0  0  0  0  0  0
   10.3100   -1.4780   23.0310 N   0  0  0  0  0  0  0  0  0  0  0  0
   11.3650   -1.5180   22.3940 C   0  0  0  0  0  0  0  0  0  0  0  0
   11.4940   -2.4860   21.5550 C   0  0  0  0  0  0  0  0  0  0  0  0
   12.6830   -2.5450   20.7450 C   0  0  0  0  0  0  0  0  0  0  0  0
   13.7330   -1.5230   20.8440 C   0  0  0  0  0  0  0  0  0  0  0  0
   13.5020   -0.4420   21.8880 C   0  0  0  0  0  0  0  0  0  0  0  0
   12.2510   -0.5240   22.6210 C   0  0  0  0  0  0  0  0  0  0  0  0
   12.0070    0.8830   23.8430 Br  0  0  0  0  0  0  0  0  0  0  0  0
    9.6420   -2.5980   23.4300 N   0  0  0  0  0  0  0  0  0  0  0  0
    8.6370   -2.1010   24.0140 N   0  0  0  0  0  0  0  0  0  0  0  0
    7.0430   -0.4500   21.1500 N   0  0  0  0  0  0  0  0  0  0  0  0
    6.4500    0.1280   20.0190 C   0  0  0  0  0  0  0  0  0  0  0  0
    5.1740    0.9190   20.1760 C   0  0  0  0  0  0  0  0  0  0  0  0
    4.5850    1.5220   19.0960 C   0  0  0  0  0  0  0  0  0  0  0  0
    5.1190    1.4450   17.8180 C   0  0  0  0  0  0  0  0  0  0  0  0
    6.3540    0.6620   17.6710 N   0  0  0  0  0  0  0  0  0  0  0  0
    6.9320    0.0640   18.7350 C   0  0  0  0  0  0  0  0  0  0  0  0
  1  2  2  0
  2  3  1  0
  3  4  1  0
  4  5  1  0
  5  6  2  0
  6  7  1  0
  7  8  1  0
  8  9  2  0
  9 10  1  0
 10 11  2  0
 11 12  1  0
  8 13  1  0
 12 13  2  0
 13 14  1  0
  7 15  1  0
  5 16  1  0
 15 16  2  0
  2 17  1  0
 17 18  1  0
 18 19  2  0
 19 20  1  0
 20 21  2  0
 21 22  1  0
 18 23  1  0
 22 23  2  0
M  END
