pyridine_urea_10909
     RDKit          3D

 19 20  0  0  0  0  0  0  0  0999 V2000
   13.5240   -1.9800   25.4570 C   0  0  0  0  0  0  0  0  0  0  0  0
   13.0080   -0.6290   25.4140 O   0  0  0  0  0  0  0  0  0  0  0  0
   12.1160   -0.6580   24.4270 C   0  0  0  0  0  0  0  0  0  0  0  0
   10.7770   -0.3110   24.3600 C   0  0  0  0  0  0  0  0  0  0  0  0
   10.0320   -0.5140   23.1040 C   0  0  0  0  0  0  0  0  0  0  0  0
    8.7230   -0.2330   22.9500 N   0  0  0  0  0  0  0  0  0  0  0  0
    8.4490    0.2260   21.6740 C   0  0  0  0  0  0  0  0  0  0  0  0
    8.9960    1.2120   21.1660 O   0  0  0  0  0  0  0  0  0  0  0  0
    7.4820   -0.5260   21.0820 N   0  0  0  0  0  0  0  0  0  0  0  0
    6.7470    0.0500   20.0930 C   0  0  0  0  0  0  0  0  0  0  0  0
    5.5320    0.8400   20.5000 C   0  0  0  0  0  0  0  0  0  0  0  0
    4.7670    1.4610   19.3730 C   0  0  0  0  0  0  0  0  0  0  0  0
    5.1820    1.2950   18.0750 C   0  0  0  0  0  0  0  0  0  0  0  0
    6.2440    0.5980   17.6750 N   0  0  0  0  0  0  0  0  0  0  0  0
    6.9910   -0.0050   18.7310 C   0  0  0  0  0  0  0  0  0  0  0  0
   10.5020   -1.0500   21.8170 C   0  0  0  0  0  0  0  0  0  0  0  0
   11.8860   -1.3300   22.0640 N   0  0  0  0  0  0  0  0  0  0  0  0
   12.4080   -1.0950   23.2570 C   0  0  0  0  0  0  0  0  0  0  0  0
   10.6150   -0.6220   23.2340 Br  0  0  0  0  0  0  0  0  0  0  0  0
  1  2  1  0
  2  3  1  0
  3  4  2  0
  4  5  1  0
  5  6  1  0
  6  7  1  0
  7  8  2  0
  7  9  1  0
  9 10  1  0
 10 11  2  0
 11 12  1  0
 12 13  2  0
 13 14  1  0
 10 15  1  0
 14 15  2  0
  5 16  2  0
 16 17  1  0
  3 18  1  0
 17 18  2  0
 18 19  1  0
M  END
