pyridine_urea_11417
     RDKit          3D

 19 20  0  0  0  0  0  0  0  0999 V2000
   13.1460   -1.7900   24.5450 C   0  0  0  0  0  0  0  0  0  0  0  0
   13.2710   -0.3640   24.5250 O   0  0  0  0  0  0  0  0  0  0  0  0
   13.0140    0.2550   23.2690 C   0  0  0  0  0  0  0  0  0  0  0  0
   12.5140   -0.8280   22.3770 C   0  0  0  0  0  0  0  0  0  0  0  0
   13.5110   -1.4270   21.5140 N   0  0  0  0  0  0  0  0  0  0  0  0
   12.7240   -2.3430   20.8890 O   0  0  0  0  0  0  0  0  0  0  0  0
   11.4920   -2.1540   21.4270 C   0  0  0  0  0  0  0  0  0  0  0  0
   11.0520   -1.2750   22.3770 C   0  0  0  0  0  0  0  0  0  0  0  0
   10.1020   -0.5510   23.3270 C   0  0  0  0  0  0  0  0  0  0  0  0
    8.8990   -0.7360   22.6930 N   0  0  0  0  0  0  0  0  0  0  0  0
    8.4040    0.0370   21.6300 C   0  0  0  0  0  0  0  0  0  0  0  0
    9.0030    1.2860   21.2240 O   0  0  0  0  0  0  0  0  0  0  0  0
    7.2930   -0.5380   21.0690 N   0  0  0  0  0  0  0  0  0  0  0  0
    6.5970    0.0790   20.0380 C   0  0  0  0  0  0  0  0  0  0  0  0
    5.3750    0.8900   20.3070 C   0  0  0  0  0  0  0  0  0  0  0  0
    4.6970    1.5230   19.2900 C   0  0  0  0  0  0  0  0  0  0  0  0
    5.0990    1.4510   17.9610 C   0  0  0  0  0  0  0  0  0  0  0  0
    6.2950    0.6460   17.6490 N   0  0  0  0  0  0  0  0  0  0  0  0
    6.9370    0.0330   18.7110 C   0  0  0  0  0  0  0  0  0  0  0  0
  1  2  1  0
  2  3  1  0
  3  4  1  0
  4  5  2  0
  5  6  1  0
  6  7  1  0
  4  8  1  0
  7  8  2  0
  8  9  1  0
  9 10  1  0
 10 11  1  0
 11 12  2  0
 11 13  1  0
 13 14  1  0
 14 15  2  0
 15 16  1  0
 16 17  2  0
 17 18  1  0
 14 19  1  0
 18 19  2  0
M  END
