pyridine_urea_15269
     RDKit          3D

 17 18  0  0  0  0  0  0  0  0999 V2000
    8.8810    1.1550   21.2160 O   0  0  0  0  0  0  0  0  0  0  0  0
    8.3050    0.1160   21.5830 C   0  0  0  0  0  0  0  0  0  0  0  0
    8.6670   -0.6560   22.6500 N   0  0  0  0  0  0  0  0  0  0  0  0
    9.7130   -0.2070   23.5150 C   0  0  0  0  0  0  0  0  0  0  0  0
   11.0170   -0.5490   22.9350 C   0  0  0  0  0  0  0  0  0  0  0  0
   12.3090    0.1900   23.0680 C   0  0  0  0  0  0  0  0  0  0  0  0
   13.2390   -0.5470   22.3330 N   0  0  0  0  0  0  0  0  0  0  0  0
   12.5760   -1.6360   21.7870 C   0  0  0  0  0  0  0  0  0  0  0  0
   13.3760   -2.6470   20.8530 Cl  0  0  0  0  0  0  0  0  0  0  0  0
   10.9280   -1.9500   22.0470 S   0  0  0  0  0  0  0  0  0  0  0  0
    7.1900   -0.4300   20.9940 N   0  0  0  0  0  0  0  0  0  0  0  0
    6.4970    0.1730   19.9620 C   0  0  0  0  0  0  0  0  0  0  0  0
    5.2300    0.9660   20.2930 C   0  0  0  0  0  0  0  0  0  0  0  0
    4.6570    1.5290   19.1670 C   0  0  0  0  0  0  0  0  0  0  0  0
    5.1710    1.3860   17.8970 C   0  0  0  0  0  0  0  0  0  0  0  0
    6.2700    0.6810   17.6230 N   0  0  0  0  0  0  0  0  0  0  0  0
    6.9090    0.0920   18.6510 C   0  0  0  0  0  0  0  0  0  0  0  0
  1  2  2  0
  2  3  1  0
  3  4  1  0
  4  5  1  0
  5  6  2  0
  6  7  1  0
  7  8  2  0
  8  9  1  0
  5 10  1  0
  8 10  1  0
  2 11  1  0
 11 12  1  0
 12 13  2  0
 13 14  1  0
 14 15  2  0
 15 16  1  0
 12 17  1  0
 16 17  2  0
M  END
