pyridine_urea_8290
     RDKit          3D

 23 25  0  0  0  0  0  0  0  0999 V2000
   12.1830    6.7030   23.4940 C   0  0  0  0  0  0  0  0  0  0  0  0
   11.7250    5.6700   22.4700 C   0  0  2  0  0  0  0  0  0  0  0  0
   10.6440    4.8180   23.2310 C   0  0  0  0  0  0  0  0  0  0  0  0
   10.5180    3.4550   22.9030 C   0  0  0  0  0  0  0  0  0  0  0  0
   11.8960    2.7590   22.7750 C   0  0  2  0  0  0  0  0  0  0  0  0
   11.8860    1.6850   23.6860 N   0  0  0  0  0  0  0  0  0  0  0  0
   10.7430    1.2010   24.2630 C   0  0  0  0  0  0  0  0  0  0  0  0
    9.8660    0.5530   23.2540 C   0  0  0  0  0  0  0  0  0  0  0  0
   10.3770   -0.7880   22.9590 C   0  0  0  0  0  0  0  0  0  0  0  0
    9.4790   -1.2060   21.8890 N   0  0  0  0  0  0  0  0  0  0  0  0
    8.5600   -0.2970   21.3650 C   0  0  0  0  0  0  0  0  0  0  0  0
    8.8130    0.8900   21.2470 O   0  0  0  0  0  0  0  0  0  0  0  0
    7.3530   -0.8320   20.9700 N   0  0  0  0  0  0  0  0  0  0  0  0
    6.5210   -0.1250   20.0770 C   0  0  0  0  0  0  0  0  0  0  0  0
    5.2110    0.5850   20.4320 C   0  0  0  0  0  0  0  0  0  0  0  0
    4.5530    1.2850   19.2470 C   0  0  0  0  0  0  0  0  0  0  0  0
    5.1650    1.2240   18.0100 C   0  0  0  0  0  0  0  0  0  0  0  0
    6.3130    0.5810   17.7520 N   0  0  0  0  0  0  0  0  0  0  0  0
    6.9390   -0.0590   18.7600 C   0  0  0  0  0  0  0  0  0  0  0  0
   11.7750   -0.7120   22.8300 C   0  0  0  0  0  0  0  0  0  0  0  0
   12.4980    0.4690   23.1940 C   0  0  0  0  0  0  0  0  0  0  0  0
   12.9480    3.6890   22.7440 C   0  0  0  0  0  0  0  0  0  0  0  0
   12.7300    4.8160   21.9750 C   0  0  0  0  0  0  0  0  0  0  0  0
  2  1  1  1
  2  3  1  0
  3  4  1  0
  4  5  1  0
  5  6  1  1
  6  7  1  0
  7  8  1  0
  8  9  1  0
  9 10  1  0
 10 11  1  0
 11 12  2  0
 11 13  1  0
 13 14  1  0
 14 15  2  0
 15 16  1  0
 16 17  2  0
 17 18  1  0
 14 19  1  0
 18 19  2  0
  9 20  1  0
  6 21  1  0
 20 21  1  0
  5 22  1  0
  2 23  1  0
 22 23  1  0
M  END
