pyridine_urea_14931
     RDKit          3D

 19 21  0  0  0  0  0  0  0  0999 V2000
    8.8360    1.1500   21.2080 O   0  0  0  0  0  0  0  0  0  0  0  0
    8.2950    0.0700   21.5040 C   0  0  0  0  0  0  0  0  0  0  0  0
    8.7640   -0.7450   22.4930 N   0  0  0  0  0  0  0  0  0  0  0  0
   10.1780   -0.9310   22.5220 C   0  0  0  0  0  0  0  0  0  0  0  0
   10.7900    0.0060   23.5280 C   0  0  0  0  0  0  0  0  0  0  0  0
   12.2770   -0.2060   23.7790 C   0  0  2  0  0  0  0  0  0  0  0  0
   13.0150    0.1860   22.5800 C   0  0  0  0  0  0  0  0  0  0  0  0
   13.3380   -1.0480   21.7950 C   0  0  0  0  0  0  0  0  0  0  0  0
   12.2300   -2.0420   22.0090 C   0  0  0  0  0  0  0  0  0  0  0  0
   12.6270   -2.5980   23.2320 C   0  0  2  0  0  0  0  0  0  0  0  0
   11.8090   -2.6660   24.1640 C   0  0  0  0  0  0  0  0  0  0  0  0
   12.6770   -1.4660   24.2340 C   0  0  2  0  0  0  0  0  0  0  0  0
    7.1770   -0.4840   20.9530 N   0  0  0  0  0  0  0  0  0  0  0  0
    6.4090    0.1720   20.0070 C   0  0  0  0  0  0  0  0  0  0  0  0
    5.2270    0.8680   20.2470 C   0  0  0  0  0  0  0  0  0  0  0  0
    4.5800    1.5230   19.0800 C   0  0  0  0  0  0  0  0  0  0  0  0
    5.1860    1.4010   17.8360 C   0  0  0  0  0  0  0  0  0  0  0  0
    6.3150    0.7150   17.6310 N   0  0  0  0  0  0  0  0  0  0  0  0
    6.8620    0.1420   18.7080 C   0  0  0  0  0  0  0  0  0  0  0  0
  1  2  2  0
  2  3  1  0
  3  4  1  0
  4  5  1  0
  6  5  1  6
  6  7  1  0
  7  8  1  0
  8  9  1  0
 10  9  1  6
 10 11  1  0
  6 12  1  0
 10 12  1  0
 12 11  1  1
  2 13  1  0
 13 14  1  0
 14 15  2  0
 15 16  1  0
 16 17  2  0
 17 18  1  0
 14 19  1  0
 18 19  2  0
M  END
