pyridine_urea_1836
     RDKit          3D

 17 17  0  0  0  0  0  0  0  0999 V2000
   10.8690    0.8840   22.6350 C   0  0  0  0  0  0  0  0  0  0  0  0
   10.4210   -0.5370   22.7970 C   0  0  0  0  0  0  0  0  0  0  0  0
   11.0130   -1.6110   22.1150 C   0  0  0  0  0  0  0  0  0  0  0  0
   10.7800   -0.7200   24.2580 C   0  0  0  0  0  0  0  0  0  0  0  0
   11.9910   -0.0910   24.4800 C   0  0  0  0  0  0  0  0  0  0  0  0
   13.0580   -0.3080   23.6110 C   0  0  0  0  0  0  0  0  0  0  0  0
   12.7320   -0.8940   22.5920 O   0  0  0  0  0  0  0  0  0  0  0  0
    8.9860   -0.6100   22.6100 N   0  0  0  0  0  0  0  0  0  0  0  0
    8.3790    0.0810   21.5770 C   0  0  0  0  0  0  0  0  0  0  0  0
    8.9040    1.3460   21.1600 O   0  0  0  0  0  0  0  0  0  0  0  0
    7.2690   -0.5510   21.0520 N   0  0  0  0  0  0  0  0  0  0  0  0
    6.4530    0.1020   20.0380 C   0  0  0  0  0  0  0  0  0  0  0  0
    5.2720    0.7790   20.2500 C   0  0  0  0  0  0  0  0  0  0  0  0
    4.5950    1.3850   19.1970 C   0  0  0  0  0  0  0  0  0  0  0  0
    5.1530    1.2830   17.9320 C   0  0  0  0  0  0  0  0  0  0  0  0
    6.2950    0.6240   17.6910 N   0  0  0  0  0  0  0  0  0  0  0  0
    6.9080    0.0550   18.7380 C   0  0  0  0  0  0  0  0  0  0  0  0
  1  2  1  0
  2  3  1  0
  2  4  1  0
  4  5  1  0
  5  6  1  0
  6  7  1  0
  2  8  1  0
  8  9  1  0
  9 10  2  0
  9 11  1  0
 11 12  1  0
 12 13  2  0
 13 14  1  0
 14 15  2  0
 15 16  1  0
 12 17  1  0
 16 17  2  0
M  END
