pyridine_urea_11369
     RDKit          3D

 20 21  0  0  0  0  0  0  0  0999 V2000
   13.0250   -1.5860   21.5250 C   0  0  0  0  0  0  0  0  0  0  0  0
   12.1010   -0.7280   22.0940 N   0  0  0  0  0  0  0  0  0  0  0  0
   11.1290   -1.2570   22.9490 C   0  0  2  0  0  0  0  0  0  0  0  0
   10.4450   -2.4840   22.3570 C   0  0  0  0  0  0  0  0  0  0  0  0
   10.1010   -0.1050   23.0420 C   0  0  0  0  0  0  0  0  0  0  0  0
    8.8380   -0.5980   22.7610 N   0  0  0  0  0  0  0  0  0  0  0  0
    8.3370   -0.0430   21.6500 C   0  0  0  0  0  0  0  0  0  0  0  0
    8.8850    1.2450   21.1930 O   0  0  0  0  0  0  0  0  0  0  0  0
    7.3070   -0.6720   20.9710 N   0  0  0  0  0  0  0  0  0  0  0  0
    6.6300   -0.0290   20.0500 C   0  0  0  0  0  0  0  0  0  0  0  0
    5.4110    0.7750   20.3290 C   0  0  0  0  0  0  0  0  0  0  0  0
    4.6410    1.4750   19.4460 C   0  0  0  0  0  0  0  0  0  0  0  0
    5.2480    1.3030   18.0630 C   0  0  0  0  0  0  0  0  0  0  0  0
    6.3490    0.5770   17.7820 N   0  0  0  0  0  0  0  0  0  0  0  0
    7.0050   -0.0640   18.7490 C   0  0  0  0  0  0  0  0  0  0  0  0
   12.0320   -1.4930   24.1950 C   0  0  0  0  0  0  0  0  0  0  0  0
   11.9610   -0.0890   24.2410 C   0  0  0  0  0  0  0  0  0  0  0  0
   12.6730    0.6380   22.8200 S   0  0  0  0  0  0  0  0  0  0  0  0
   14.0810    0.5250   22.7750 O   0  0  0  0  0  0  0  0  0  0  0  0
   11.9280    1.8440   22.5210 O   0  0  0  0  0  0  0  0  0  0  0  0
  1  2  1  0
  2  3  1  0
  3  4  1  6
  3  5  1  0
  5  6  1  0
  6  7  1  0
  7  8  2  0
  7  9  1  0
  9 10  1  0
 10 11  2  0
 11 12  1  0
 12 13  2  0
 13 14  1  0
 10 15  1  0
 14 15  2  0
  3 16  1  0
 16 17  1  0
 18  2  1  0
 17 18  1  0
 18 19  2  0
 18 20  2  0
M  END
