pyridine_urea_14578
     RDKit          3D

 21 23  0  0  0  0  0  0  0  0999 V2000
    8.6270    1.3760   21.0370 O   0  0  0  0  0  0  0  0  0  0  0  0
    8.4400    0.1740   21.2380 C   0  0  0  0  0  0  0  0  0  0  0  0
    7.2530   -0.4690   20.9630 N   0  0  0  0  0  0  0  0  0  0  0  0
    6.4370    0.1340   20.0160 C   0  0  0  0  0  0  0  0  0  0  0  0
    5.2370    0.7890   20.2610 C   0  0  0  0  0  0  0  0  0  0  0  0
    4.5550    1.3740   19.1970 C   0  0  0  0  0  0  0  0  0  0  0  0
    5.1040    1.2730   17.9380 C   0  0  0  0  0  0  0  0  0  0  0  0
    6.2520    0.6330   17.6790 N   0  0  0  0  0  0  0  0  0  0  0  0
    6.8800    0.0860   18.7160 C   0  0  0  0  0  0  0  0  0  0  0  0
    9.4160   -0.6350   21.7350 N   0  0  0  0  0  0  0  0  0  0  0  0
   10.3340   -0.1060   22.6240 C   0  0  1  0  0  0  0  0  0  0  0  0
    9.8130   -0.0810   23.8910 C   0  0  0  0  0  0  0  0  0  0  0  0
   10.6450    0.2720   24.9140 C   0  0  0  0  0  0  0  0  0  0  0  0
   11.9940   -0.0060   24.7770 C   0  0  0  0  0  0  0  0  0  0  0  0
   12.2840   -0.9150   23.8590 C   0  0  0  0  0  0  0  0  0  0  0  0
   13.4100   -1.7980   24.0680 C   0  0  0  0  0  0  0  0  0  0  0  0
   13.6560   -2.6560   23.0580 C   0  0  0  0  0  0  0  0  0  0  0  0
   12.8910   -2.6800   21.9180 C   0  0  0  0  0  0  0  0  0  0  0  0
   13.3470   -3.8400   20.5650 Br  0  0  0  0  0  0  0  0  0  0  0  0
   11.8050   -1.8660   21.7560 C   0  0  0  0  0  0  0  0  0  0  0  0
   11.5250   -0.9980   22.7490 C   0  0  0  0  0  0  0  0  0  0  0  0
  1  2  2  0
  2  3  1  0
  3  4  1  0
  4  5  2  0
  5  6  1  0
  6  7  2  0
  7  8  1  0
  4  9  1  0
  8  9  2  0
  2 10  1  0
 11 10  1  6
 11 12  1  0
 12 13  1  0
 13 14  1  0
 14 15  1  0
 15 16  2  0
 16 17  1  0
 17 18  2  0
 18 19  1  0
 18 20  1  0
 11 21  1  0
 15 21  1  0
 20 21  2  0
M  END
