pyridine_urea_12932
     RDKit          3D

 19 20  0  0  0  0  0  0  0  0999 V2000
    9.4240   -3.0020   23.4640 C   0  0  0  0  0  0  0  0  0  0  0  0
   10.7260   -2.6920   22.6710 C   0  0  0  0  0  0  0  0  0  0  0  0
   11.0030   -1.2400   22.8000 C   0  0  0  0  0  0  0  0  0  0  0  0
   12.2170   -0.7220   22.9590 C   0  0  0  0  0  0  0  0  0  0  0  0
   12.3820    0.6760   23.0820 N   0  0  0  0  0  0  0  0  0  0  0  0
   11.4390    1.7120   23.0770 C   0  0  0  0  0  0  0  0  0  0  0  0
   12.7500    1.8790   23.2150 C   0  0  0  0  0  0  0  0  0  0  0  0
   10.2250    1.0210   22.9030 C   0  0  0  0  0  0  0  0  0  0  0  0
   10.0080   -0.3260   22.7660 C   0  0  0  0  0  0  0  0  0  0  0  0
    8.7030   -0.6630   22.5770 N   0  0  0  0  0  0  0  0  0  0  0  0
    8.0450   -0.0680   21.5240 C   0  0  0  0  0  0  0  0  0  0  0  0
    8.4460    0.9960   21.0680 O   0  0  0  0  0  0  0  0  0  0  0  0
    6.9730   -0.7440   21.0820 N   0  0  0  0  0  0  0  0  0  0  0  0
    6.3810   -0.0800   20.0750 C   0  0  0  0  0  0  0  0  0  0  0  0
    5.1780    0.6080   20.3190 C   0  0  0  0  0  0  0  0  0  0  0  0
    4.5980    1.3340   19.1510 C   0  0  0  0  0  0  0  0  0  0  0  0
    5.1930    1.3330   17.9250 C   0  0  0  0  0  0  0  0  0  0  0  0
    6.3520    0.6500   17.7270 N   0  0  0  0  0  0  0  0  0  0  0  0
    6.8940   -0.0180   18.7840 C   0  0  0  0  0  0  0  0  0  0  0  0
  1  2  1  0
  2  3  1  0
  3  4  2  0
  4  5  1  0
  5  6  2  0
  6  7  1  0
  6  8  1  0
  3  9  1  0
  8  9  2  0
  9 10  1  0
 10 11  1  0
 11 12  2  0
 11 13  1  0
 13 14  1  0
 14 15  2  0
 15 16  1  0
 16 17  2  0
 17 18  1  0
 14 19  1  0
 18 19  2  0
M  END
