pyridine_urea_12910
     RDKit          3D

 19 20  0  0  0  0  0  0  0  0999 V2000
   12.4970    3.5310   22.5960 C   0  0  0  0  0  0  0  0  0  0  0  0
   11.8430    2.5830   23.4340 O   0  0  0  0  0  0  0  0  0  0  0  0
   11.7410    1.2680   23.0460 C   0  0  0  0  0  0  0  0  0  0  0  0
   10.3670    0.6570   22.9140 C   0  0  0  0  0  0  0  0  0  0  0  0
   10.1910   -0.6420   22.5200 C   0  0  0  0  0  0  0  0  0  0  0  0
    8.8790   -1.1930   22.3500 N   0  0  0  0  0  0  0  0  0  0  0  0
    8.1530   -0.3470   21.5420 C   0  0  0  0  0  0  0  0  0  0  0  0
    8.5590    0.7870   21.3190 O   0  0  0  0  0  0  0  0  0  0  0  0
    6.9980   -0.8540   21.0270 N   0  0  0  0  0  0  0  0  0  0  0  0
    6.3130   -0.1200   20.0530 C   0  0  0  0  0  0  0  0  0  0  0  0
    5.1180    0.5720   20.2170 C   0  0  0  0  0  0  0  0  0  0  0  0
    4.5730    1.2690   19.1580 C   0  0  0  0  0  0  0  0  0  0  0  0
    5.2000    1.2850   17.9500 C   0  0  0  0  0  0  0  0  0  0  0  0
    6.3550    0.6340   17.7230 N   0  0  0  0  0  0  0  0  0  0  0  0
    6.8780   -0.0510   18.7760 C   0  0  0  0  0  0  0  0  0  0  0  0
   11.2940   -1.4570   22.2450 C   0  0  0  0  0  0  0  0  0  0  0  0
   12.6530   -0.8430   22.3850 C   0  0  0  0  0  0  0  0  0  0  0  0
   12.8290    0.4700   22.7620 C   0  0  0  0  0  0  0  0  0  0  0  0
   14.0060    0.9620   22.8370 F   0  0  0  0  0  0  0  0  0  0  0  0
  1  2  1  0
  2  3  1  0
  3  4  2  0
  4  5  1  0
  5  6  1  0
  6  7  1  0
  7  8  2  0
  7  9  1  0
  9 10  1  0
 10 11  2  0
 11 12  1  0
 12 13  2  0
 13 14  1  0
 10 15  1  0
 14 15  2  0
  5 16  2  0
 16 17  1  0
  3 18  1  0
 17 18  2  0
 18 19  1  0
M  END
