pyridine_urea_439
     RDKit          3D

 25 27  0  0  0  0  0  0  0  0999 V2000
   13.1720   -0.2830   22.8370 C   0  0  0  0  0  0  0  0  0  0  0  0
   12.5310    0.1180   24.1550 C   0  0  0  0  0  0  0  0  0  0  0  0
   11.2240   -0.2770   24.3880 C   0  0  0  0  0  0  0  0  0  0  0  0
   10.5030   -0.5190   23.2370 C   0  0  0  0  0  0  0  0  0  0  0  0
    9.7900   -1.0470   22.2000 C   0  0  0  0  0  0  0  0  0  0  0  0
    9.4000   -0.3070   21.2030 N   0  0  0  0  0  0  0  0  0  0  0  0
    8.3400    0.6480   21.3300 C   0  0  0  0  0  0  0  0  0  0  0  0
    8.5880    1.8400   21.3830 O   0  0  0  0  0  0  0  0  0  0  0  0
    7.1250    0.0490   21.2520 N   0  0  0  0  0  0  0  0  0  0  0  0
    6.3720    0.4210   20.1960 C   0  0  0  0  0  0  0  0  0  0  0  0
    5.1510    1.0700   20.2860 C   0  0  0  0  0  0  0  0  0  0  0  0
    4.4920    1.4400   19.1180 C   0  0  0  0  0  0  0  0  0  0  0  0
    5.0650    1.1520   17.8930 C   0  0  0  0  0  0  0  0  0  0  0  0
    6.2220    0.5190   17.7240 N   0  0  0  0  0  0  0  0  0  0  0  0
    6.8780    0.1480   18.9390 C   0  0  0  0  0  0  0  0  0  0  0  0
    9.2860   -2.2390   21.7570 C   0  0  0  0  0  0  0  0  0  0  0  0
    9.8020   -2.8080   22.8230 N   0  0  0  0  0  0  0  0  0  0  0  0
   10.4290   -1.9210   23.5630 N   0  0  0  0  0  0  0  0  0  0  0  0
   10.8750   -2.6650   24.4820 C   0  0  0  0  0  0  0  0  0  0  0  0
   12.1920   -2.4050   24.6710 C   0  0  0  0  0  0  0  0  0  0  0  0
   12.8600   -3.0950   25.5700 C   0  0  0  0  0  0  0  0  0  0  0  0
   14.1370   -2.8890   25.8540 C   0  0  0  0  0  0  0  0  0  0  0  0
   12.1070   -4.1460   26.3130 C   0  0  0  0  0  0  0  0  0  0  0  0
   10.7840   -4.3300   26.0450 C   0  0  0  0  0  0  0  0  0  0  0  0
   10.1230   -3.6100   25.1430 N   0  0  0  0  0  0  0  0  0  0  0  0
  1  2  1  0
  2  3  1  0
  3  4  1  0
  4  5  2  0
  5  6  1  0
  6  7  1  0
  7  8  2  0
  7  9  1  0
  9 10  1  0
 10 11  2  0
 11 12  1  0
 12 13  2  0
 13 14  1  0
 10 15  1  0
 14 15  2  0
  5 16  1  0
 16 17  2  0
  4 18  1  0
 17 18  1  0
 18 19  1  0
 19 20  2  0
 20 21  1  0
 21 22  1  0
 21 23  2  0
 23 24  1  0
 19 25  1  0
 24 25  2  0
M  END
