pyridine_urea_6075
     RDKit          3D

 25 27  0  0  0  0  0  0  0  0999 V2000
   12.0560    2.8570   22.5210 C   0  0  0  0  0  0  0  0  0  0  0  0
   12.3930    1.4850   23.0590 C   0  0  2  0  0  0  0  0  0  0  0  0
   13.6940    0.4720   22.5280 S   0  0  0  0  0  0  0  0  0  0  0  0
   13.2540   -0.9400   23.4720 C   0  0  0  0  0  0  0  0  0  0  0  0
   13.3480   -1.1610   24.9320 N   0  0  0  0  0  0  0  0  0  0  0  0
   12.9170   -2.3710   25.2940 N   0  0  0  0  0  0  0  0  0  0  0  0
   12.5380   -2.8700   23.9610 C   0  0  0  0  0  0  0  0  0  0  0  0
   12.7490   -2.0700   22.9540 N   0  0  0  0  0  0  0  0  0  0  0  0
   12.5540   -2.1840   21.6710 C   0  0  0  0  0  0  0  0  0  0  0  0
   11.5850    0.4540   23.1530 C   0  0  0  0  0  0  0  0  0  0  0  0
   12.0560   -0.5260   24.1140 C   0  0  0  0  0  0  0  0  0  0  0  0
   11.2320   -1.7260   24.3600 C   0  0  0  0  0  0  0  0  0  0  0  0
   10.0830   -1.9160   23.6810 C   0  0  0  0  0  0  0  0  0  0  0  0
    9.5900   -1.0520   22.7380 C   0  0  0  0  0  0  0  0  0  0  0  0
    8.4530   -1.2870   22.0760 N   0  0  0  0  0  0  0  0  0  0  0  0
    7.7880   -0.2440   21.3690 C   0  0  0  0  0  0  0  0  0  0  0  0
    8.2820    0.8230   21.0290 O   0  0  0  0  0  0  0  0  0  0  0  0
    6.5390   -0.6130   21.1490 N   0  0  0  0  0  0  0  0  0  0  0  0
    6.1300    0.0510   20.0150 C   0  0  0  0  0  0  0  0  0  0  0  0
    4.9780    0.8030   20.0990 C   0  0  0  0  0  0  0  0  0  0  0  0
    4.5340    1.4900   18.9870 C   0  0  0  0  0  0  0  0  0  0  0  0
    5.2250    1.4370   17.7910 C   0  0  0  0  0  0  0  0  0  0  0  0
    6.3490    0.7180   17.6480 N   0  0  0  0  0  0  0  0  0  0  0  0
    6.7930    0.0150   18.8040 C   0  0  0  0  0  0  0  0  0  0  0  0
   10.4180    0.1980   22.4940 C   0  0  0  0  0  0  0  0  0  0  0  0
  2  1  1  6
  2  3  1  0
  3  4  1  0
  4  5  2  0
  5  6  1  0
  6  7  2  0
  4  8  1  0
  7  8  1  0
  8  9  1  0
  2 10  1  0
 10 11  2  0
 11 12  1  0
 12 13  2  0
 13 14  1  0
 14 15  1  0
 15 16  1  0
 16 17  2  0
 16 18  1  0
 18 19  1  0
 19 20  2  0
 20 21  1  0
 21 22  2  0
 22 23  1  0
 19 24  1  0
 23 24  2  0
 10 25  1  0
 14 25  2  0
M  END
