pyridine_urea_11036
     RDKit          3D

 19 20  0  0  0  0  0  0  0  0999 V2000
   13.0160   -1.0910   25.2940 C   0  0  0  0  0  0  0  0  0  0  0  0
   13.5490   -0.4110   24.1740 O   0  0  0  0  0  0  0  0  0  0  0  0
   13.0410   -0.9790   23.1260 C   0  0  0  0  0  0  0  0  0  0  0  0
   12.0310   -0.2780   23.9620 N   0  0  0  0  0  0  0  0  0  0  0  0
   10.6830   -0.1050   23.8790 C   0  0  0  0  0  0  0  0  0  0  0  0
   10.0860   -0.6750   22.8290 C   0  0  0  0  0  0  0  0  0  0  0  0
    8.6730   -0.5550   22.6560 N   0  0  0  0  0  0  0  0  0  0  0  0
    8.2830    0.1400   21.5510 C   0  0  0  0  0  0  0  0  0  0  0  0
    8.8400    1.1840   21.1760 O   0  0  0  0  0  0  0  0  0  0  0  0
    7.2180   -0.4880   20.9670 N   0  0  0  0  0  0  0  0  0  0  0  0
    6.4450    0.1500   20.0160 C   0  0  0  0  0  0  0  0  0  0  0  0
    5.1480    0.8840   20.2620 C   0  0  0  0  0  0  0  0  0  0  0  0
    4.5110    1.5220   19.0630 C   0  0  0  0  0  0  0  0  0  0  0  0
    5.1240    1.4020   17.8480 C   0  0  0  0  0  0  0  0  0  0  0  0
    6.2790    0.7260   17.6600 N   0  0  0  0  0  0  0  0  0  0  0  0
    6.8960    0.1320   18.7070 C   0  0  0  0  0  0  0  0  0  0  0  0
   10.8520   -1.3450   21.9730 C   0  0  0  0  0  0  0  0  0  0  0  0
   12.1980   -1.4610   22.1350 C   0  0  0  0  0  0  0  0  0  0  0  0
   12.8840   -2.1820   21.1820 C   0  0  0  0  0  0  0  0  0  0  0  0
  1  2  1  0
  2  3  1  0
  3  4  2  0
  4  5  1  0
  5  6  2  0
  6  7  1  0
  7  8  1  0
  8  9  2  0
  8 10  1  0
 10 11  1  0
 11 12  2  0
 12 13  1  0
 13 14  2  0
 14 15  1  0
 11 16  1  0
 15 16  2  0
  6 17  1  0
  3 18  1  0
 17 18  2  0
 18 19  1  0
M  END
