pyridine_urea_1188
     RDKit          3D

 21 23  0  0  0  0  0  0  0  0999 V2000
    8.0340    1.7530   20.8360 O   0  0  0  0  0  0  0  0  0  0  0  0
    8.1340    0.6190   21.2560 C   0  0  0  0  0  0  0  0  0  0  0  0
    7.1640   -0.3130   21.0700 N   0  0  0  0  0  0  0  0  0  0  0  0
    6.5160    0.1580   19.9160 C   0  0  0  0  0  0  0  0  0  0  0  0
    5.2640    0.9930   20.1770 C   0  0  0  0  0  0  0  0  0  0  0  0
    4.5800    1.5460   19.1120 C   0  0  0  0  0  0  0  0  0  0  0  0
    5.0850    1.3040   17.8470 C   0  0  0  0  0  0  0  0  0  0  0  0
    6.1990    0.5360   17.6630 N   0  0  0  0  0  0  0  0  0  0  0  0
    6.9370   -0.0530   18.6800 C   0  0  0  0  0  0  0  0  0  0  0  0
    9.2060    0.2170   21.8760 N   0  0  0  0  0  0  0  0  0  0  0  0
   10.3140   -0.0200   22.4810 C   0  0  0  0  0  0  0  0  0  0  0  0
   10.6990   -1.2380   22.6660 C   0  0  0  0  0  0  0  0  0  0  0  0
   11.7870   -1.1860   23.2800 N   0  0  0  0  0  0  0  0  0  0  0  0
   12.3120    0.0620   23.6030 N   0  0  0  0  0  0  0  0  0  0  0  0
   12.9680   -1.0480   23.9730 C   0  0  0  0  0  0  0  0  0  0  0  0
   13.1790   -1.8370   22.9000 C   0  0  0  0  0  0  0  0  0  0  0  0
   13.7820   -3.0030   23.1230 C   0  0  0  0  0  0  0  0  0  0  0  0
   14.1820   -3.4220   24.3220 N   0  0  0  0  0  0  0  0  0  0  0  0
   13.9760   -2.6550   25.3500 C   0  0  0  0  0  0  0  0  0  0  0  0
   13.3880   -1.4810   25.2260 C   0  0  0  0  0  0  0  0  0  0  0  0
   11.2830    0.7690   23.0230 C   0  0  0  0  0  0  0  0  0  0  0  0
  1  2  2  0
  2  3  1  0
  3  4  1  0
  4  5  2  0
  5  6  1  0
  6  7  2  0
  7  8  1  0
  4  9  1  0
  8  9  2  0
  2 10  1  0
 10 11  1  0
 11 12  1  0
 12 13  2  0
 13 14  1  0
 14 15  1  0
 15 16  2  0
 16 17  1  0
 17 18  2  0
 18 19  1  0
 15 20  1  0
 19 20  2  0
 11 21  2  0
 14 21  1  0
M  END
