pyridine_urea_2269
     RDKit          3D

 26 28  0  0  0  0  0  0  0  0999 V2000
    8.7420    0.0480   21.1880 O   0  0  0  0  0  0  0  0  0  0  0  0
    7.9760   -0.8160   21.5850 C   0  0  0  0  0  0  0  0  0  0  0  0
    8.0900   -1.5940   22.6980 N   0  0  0  0  0  0  0  0  0  0  0  0
    6.9810   -1.9730   23.4940 C   0  0  0  0  0  0  0  0  0  0  0  0
    6.1790   -0.9230   24.2960 C   0  0  0  0  0  0  0  0  0  0  0  0
    5.7940    0.2940   23.4220 C   0  0  0  0  0  0  0  0  0  0  0  0
    6.2870    1.6690   23.8320 C   0  0  0  0  0  0  0  0  0  0  0  0
    7.5950    1.9150   24.0470 N   0  0  0  0  0  0  0  0  0  0  0  0
    8.3530    2.4060   23.0050 C   0  0  0  0  0  0  0  0  0  0  0  0
    9.6480    1.9920   22.5970 C   0  0  0  0  0  0  0  0  0  0  0  0
   10.3070    1.1760   23.5980 N   0  0  0  0  0  0  0  0  0  0  0  0
   11.1030    0.0920   23.2410 C   0  0  0  0  0  0  0  0  0  0  0  0
   12.2520   -0.1370   23.9590 C   0  0  0  0  0  0  0  0  0  0  0  0
   13.0710   -1.1930   23.6690 C   0  0  0  0  0  0  0  0  0  0  0  0
   12.8420   -2.1100   22.6490 C   0  0  0  0  0  0  0  0  0  0  0  0
   11.6950   -2.0100   21.8100 C   0  0  0  0  0  0  0  0  0  0  0  0
   10.8010   -0.8020   22.1870 C   0  0  0  0  0  0  0  0  0  0  0  0
    9.6210    1.1680   24.8080 C   0  0  0  0  0  0  0  0  0  0  0  0
    8.3120    0.8030   24.6570 C   0  0  0  0  0  0  0  0  0  0  0  0
    6.8440   -1.0570   20.8930 N   0  0  0  0  0  0  0  0  0  0  0  0
    6.2390   -0.1750   19.9030 C   0  0  0  0  0  0  0  0  0  0  0  0
    5.0350    0.4100   20.2470 C   0  0  0  0  0  0  0  0  0  0  0  0
    4.4000    1.3410   19.2040 C   0  0  0  0  0  0  0  0  0  0  0  0
    5.1860    1.5020   17.9120 C   0  0  0  0  0  0  0  0  0  0  0  0
    6.3510    0.9130   17.6170 N   0  0  0  0  0  0  0  0  0  0  0  0
    6.8720    0.1090   18.5520 C   0  0  0  0  0  0  0  0  0  0  0  0
  1  2  2  0
  2  3  1  0
  3  4  1  0
  4  5  1  0
  5  6  1  0
  6  7  1  0
  7  8  1  0
  8  9  1  0
  9 10  1  0
 10 11  1  0
 11 12  1  0
 12 13  2  0
 13 14  1  0
 14 15  2  0
 15 16  1  0
 12 17  1  0
 16 17  2  0
 11 18  1  0
  8 19  1  0
 18 19  1  0
  2 20  1  0
 20 21  1  0
 21 22  2  0
 22 23  1  0
 23 24  2  0
 24 25  1  0
 21 26  1  0
 25 26  2  0
M  END
