pyridine_urea_7180
     RDKit          3D

 19 20  0  0  0  0  0  0  0  0999 V2000
    9.1070   -0.0070   26.1620 C   0  0  0  0  0  0  0  0  0  0  0  0
   10.3220   -0.1180   26.0540 O   0  0  0  0  0  0  0  0  0  0  0  0
   10.8380   -0.4240   24.8250 C   0  0  0  0  0  0  0  0  0  0  0  0
    9.9270   -0.5790   23.8210 C   0  0  0  0  0  0  0  0  0  0  0  0
   10.3100   -0.9200   22.5480 C   0  0  0  0  0  0  0  0  0  0  0  0
    9.3170   -1.0880   21.5160 N   0  0  0  0  0  0  0  0  0  0  0  0
    8.4020   -0.0790   21.2500 C   0  0  0  0  0  0  0  0  0  0  0  0
    8.8050    1.2980   21.1360 O   0  0  0  0  0  0  0  0  0  0  0  0
    7.1420   -0.5300   21.0970 N   0  0  0  0  0  0  0  0  0  0  0  0
    6.5070    0.0590   20.0740 C   0  0  0  0  0  0  0  0  0  0  0  0
    5.2170    0.8780   20.2760 C   0  0  0  0  0  0  0  0  0  0  0  0
    4.5960    1.4880   19.2030 C   0  0  0  0  0  0  0  0  0  0  0  0
    5.1440    1.3600   17.9350 C   0  0  0  0  0  0  0  0  0  0  0  0
    6.2830    0.6310   17.7250 N   0  0  0  0  0  0  0  0  0  0  0  0
    6.9680   -0.0200   18.7660 C   0  0  0  0  0  0  0  0  0  0  0  0
   11.7840   -1.1210   22.2510 C   0  0  0  0  0  0  0  0  0  0  0  0
   12.7190   -0.9210   23.3720 C   0  0  0  0  0  0  0  0  0  0  0  0
   12.2220   -0.5800   24.6370 C   0  0  0  0  0  0  0  0  0  0  0  0
   13.1570   -0.4210   25.6820 O   0  0  0  0  0  0  0  0  0  0  0  0
  1  2  1  0
  2  3  1  0
  3  4  2  0
  4  5  1  0
  5  6  1  0
  6  7  1  0
  7  8  2  0
  7  9  1  0
  9 10  1  0
 10 11  2  0
 11 12  1  0
 12 13  2  0
 13 14  1  0
 10 15  1  0
 14 15  2  0
  5 16  2  0
 16 17  1  0
  3 18  1  0
 17 18  2  0
 18 19  1  0
M  END
