pyridine_urea_2628
     RDKit          3D

 23 25  0  0  0  0  0  0  0  0999 V2000
    8.6190    0.8470   21.1210 O   0  0  0  0  0  0  0  0  0  0  0  0
    8.1030   -0.1760   21.5330 C   0  0  0  0  0  0  0  0  0  0  0  0
    6.9670   -0.7170   21.0260 N   0  0  0  0  0  0  0  0  0  0  0  0
    6.3440   -0.0430   19.9790 C   0  0  0  0  0  0  0  0  0  0  0  0
    5.1450    0.6310   20.2070 C   0  0  0  0  0  0  0  0  0  0  0  0
    4.5350    1.3230   19.1580 C   0  0  0  0  0  0  0  0  0  0  0  0
    5.1580    1.3100   17.9280 C   0  0  0  0  0  0  0  0  0  0  0  0
    6.3060    0.6620   17.6940 N   0  0  0  0  0  0  0  0  0  0  0  0
    6.8710    0.0000   18.7150 C   0  0  0  0  0  0  0  0  0  0  0  0
    8.6360   -0.8770   22.5710 N   0  0  0  0  0  0  0  0  0  0  0  0
    9.9030   -0.3240   23.0390 C   0  0  0  0  0  0  0  0  0  0  0  0
   10.1610    1.1210   22.7140 C   0  0  0  0  0  0  0  0  0  0  0  0
   11.3510    1.6980   23.1110 C   0  0  0  0  0  0  0  0  0  0  0  0
   12.2970    0.9780   23.8020 C   0  0  0  0  0  0  0  0  0  0  0  0
   12.1440   -0.3480   24.1710 C   0  0  0  0  0  0  0  0  0  0  0  0
   13.0340   -1.0650   24.8650 N   0  0  0  0  0  0  0  0  0  0  0  0
   12.9870   -2.5150   24.0310 S   0  0  0  0  0  0  0  0  0  0  0  0
   11.7760   -3.2200   24.3850 O   0  0  0  0  0  0  0  0  0  0  0  0
   14.2600   -3.1450   24.0480 O   0  0  0  0  0  0  0  0  0  0  0  0
   12.7160   -1.8390   22.4110 C   0  0  0  0  0  0  0  0  0  0  0  0
   11.8130   -2.2590   21.6790 C   0  0  0  0  0  0  0  0  0  0  0  0
   13.1060   -2.5720   21.2170 C   0  0  0  0  0  0  0  0  0  0  0  0
   10.9960   -1.0400   23.8170 C   0  0  0  0  0  0  0  0  0  0  0  0
  1  2  2  0
  2  3  1  0
  3  4  1  0
  4  5  2  0
  5  6  1  0
  6  7  2  0
  7  8  1  0
  4  9  1  0
  8  9  2  0
  2 10  1  0
 10 11  1  0
 11 12  2  0
 12 13  1  0
 13 14  2  0
 14 15  1  0
 15 16  1  0
 17 16  1  0
 17 18  2  0
 17 19  2  0
 17 20  1  0
 20 21  1  0
 20 22  1  0
 21 22  1  0
 11 23  1  0
 15 23  2  0
M  END
