pyridine_urea_9651
     RDKit          3D

 24 27  0  0  0  0  0  0  0  0999 V2000
    8.7280    0.8510   21.2110 O   0  0  0  0  0  0  0  0  0  0  0  0
    8.3930   -0.2810   21.5340 C   0  0  0  0  0  0  0  0  0  0  0  0
    7.1880   -0.8230   21.1460 N   0  0  0  0  0  0  0  0  0  0  0  0
    6.5200   -0.1050   20.0850 C   0  0  0  0  0  0  0  0  0  0  0  0
    5.2060    0.6050   20.4160 C   0  0  0  0  0  0  0  0  0  0  0  0
    4.5160    1.3730   19.2910 C   0  0  0  0  0  0  0  0  0  0  0  0
    5.2250    1.3460   17.9360 C   0  0  0  0  0  0  0  0  0  0  0  0
    6.4270    0.6380   17.7940 N   0  0  0  0  0  0  0  0  0  0  0  0
    7.0370   -0.0460   18.8100 C   0  0  0  0  0  0  0  0  0  0  0  0
    9.1840   -1.1110   22.3130 N   0  0  0  0  0  0  0  0  0  0  0  0
   10.5310   -0.7110   22.4190 C   0  0  2  0  0  0  0  0  0  0  0  0
   11.5190   -1.2610   22.9650 C   0  0  0  0  0  0  0  0  0  0  0  0
   10.9000   -0.3670   23.9380 C   0  0  1  0  0  0  0  0  0  0  0  0
   11.0680    0.9860   23.8580 C   0  0  0  0  0  0  0  0  0  0  0  0
   10.0640    1.8040   24.2400 C   0  0  0  0  0  0  0  0  0  0  0  0
   10.3780    3.0200   24.0710 N   0  0  0  0  0  0  0  0  0  0  0  0
   11.6410    2.7950   23.5680 N   0  0  0  0  0  0  0  0  0  0  0  0
   12.2820    3.9460   23.2600 C   0  0  0  0  0  0  0  0  0  0  0  0
   11.8860    5.1700   24.0380 C   0  0  0  0  0  0  0  0  0  0  0  0
   12.5400    6.3510   23.7310 C   0  0  0  0  0  0  0  0  0  0  0  0
   13.5740    6.3730   22.6800 C   0  0  0  0  0  0  0  0  0  0  0  0
   13.8910    5.2140   21.9980 C   0  0  0  0  0  0  0  0  0  0  0  0
   13.2720    4.0160   22.2640 C   0  0  0  0  0  0  0  0  0  0  0  0
   12.2900    1.5350   23.3530 C   0  0  0  0  0  0  0  0  0  0  0  0
  1  2  2  0
  2  3  1  0
  3  4  1  0
  4  5  2  0
  5  6  1  0
  6  7  2  0
  7  8  1  0
  4  9  1  0
  8  9  2  0
  2 10  1  0
 11 10  1  1
 11 12  1  0
 11 13  1  0
 12 13  1  0
 13 14  1  6
 14 15  1  0
 15 16  2  0
 16 17  1  0
 17 18  1  0
 18 19  2  0
 19 20  1  0
 20 21  2  0
 21 22  1  0
 18 23  1  0
 22 23  2  0
 14 24  2  0
 17 24  1  0
M  END
