pyridine_urea_15219
     RDKit          3D

 17 18  0  0  0  0  0  0  0  0999 V2000
   13.4800   -1.9850   25.2820 C   0  0  0  0  0  0  0  0  0  0  0  0
   12.3880   -1.6780   24.2980 C   0  0  0  0  0  0  0  0  0  0  0  0
   12.7810   -1.8320   22.8600 C   0  0  0  0  0  0  0  0  0  0  0  0
   11.7310   -1.6040   21.8330 C   0  0  0  0  0  0  0  0  0  0  0  0
   10.3270   -1.2100   22.2700 C   0  0  0  0  0  0  0  0  0  0  0  0
    9.2900   -1.0150   21.3160 N   0  0  0  0  0  0  0  0  0  0  0  0
    8.4680    0.0590   21.3840 C   0  0  0  0  0  0  0  0  0  0  0  0
    8.8860    1.1860   21.5900 O   0  0  0  0  0  0  0  0  0  0  0  0
    7.1750   -0.3160   21.1460 N   0  0  0  0  0  0  0  0  0  0  0  0
    6.4880    0.2130   20.0640 C   0  0  0  0  0  0  0  0  0  0  0  0
    5.3290    0.9420   20.2730 C   0  0  0  0  0  0  0  0  0  0  0  0
    4.6520    1.4940   19.2120 C   0  0  0  0  0  0  0  0  0  0  0  0
    5.1230    1.3230   17.9400 C   0  0  0  0  0  0  0  0  0  0  0  0
    6.2350    0.6140   17.6910 N   0  0  0  0  0  0  0  0  0  0  0  0
    6.8940    0.0730   18.7470 C   0  0  0  0  0  0  0  0  0  0  0  0
    9.9690   -1.0410   23.5690 C   0  0  0  0  0  0  0  0  0  0  0  0
   10.9600   -1.2690   24.6240 C   0  0  0  0  0  0  0  0  0  0  0  0
  1  2  1  0
  2  3  2  0
  3  4  1  0
  4  5  2  0
  5  6  1  0
  6  7  1  0
  7  8  2  0
  7  9  1  0
  9 10  1  0
 10 11  2  0
 11 12  1  0
 12 13  2  0
 13 14  1  0
 10 15  1  0
 14 15  2  0
  5 16  1  0
  2 17  1  0
 16 17  2  0
M  END
