pyridine_urea_335
     RDKit          3D

 26 28  0  0  0  0  0  0  0  0999 V2000
   13.2890   -0.9900   22.4470 C   0  0  0  0  0  0  0  0  0  0  0  0
   13.2220   -2.1070   22.0320 C   0  0  0  0  0  0  0  0  0  0  0  0
   13.3200   -3.2070   20.9940 C   0  0  0  0  0  0  0  0  0  0  0  0
   13.7840   -2.7350   23.3030 C   0  0  0  0  0  0  0  0  0  0  0  0
   11.8660   -2.5680   22.3810 C   0  0  0  0  0  0  0  0  0  0  0  0
   11.0290   -2.9090   21.2560 O   0  0  0  0  0  0  0  0  0  0  0  0
   11.5800   -2.5240   23.8010 N   0  0  0  0  0  0  0  0  0  0  0  0
   12.3460   -2.6950   24.9160 C   0  0  0  0  0  0  0  0  0  0  0  0
   13.4480   -1.7450   25.1850 C   0  0  0  0  0  0  0  0  0  0  0  0
   12.9470   -0.3800   25.3230 O   0  0  0  0  0  0  0  0  0  0  0  0
   11.9960   -0.1290   24.3900 C   0  0  0  0  0  0  0  0  0  0  0  0
   11.4190    1.1360   23.8760 C   0  0  0  0  0  0  0  0  0  0  0  0
   10.4240    1.1560   22.8830 C   0  0  0  0  0  0  0  0  0  0  0  0
    9.8660    0.0040   22.2570 C   0  0  0  0  0  0  0  0  0  0  0  0
    8.9670   -0.1680   21.3320 N   0  0  0  0  0  0  0  0  0  0  0  0
    7.9230    0.6130   21.1560 C   0  0  0  0  0  0  0  0  0  0  0  0
    8.0580    2.0200   21.0080 O   0  0  0  0  0  0  0  0  0  0  0  0
    6.8180   -0.1270   21.1020 N   0  0  0  0  0  0  0  0  0  0  0  0
    6.1870    0.3810   20.0830 C   0  0  0  0  0  0  0  0  0  0  0  0
    4.9170    1.1250   20.1410 C   0  0  0  0  0  0  0  0  0  0  0  0
    4.3800    1.6760   18.8810 C   0  0  0  0  0  0  0  0  0  0  0  0
    5.0840    1.4760   17.7010 C   0  0  0  0  0  0  0  0  0  0  0  0
    6.2370    0.7850   17.6130 N   0  0  0  0  0  0  0  0  0  0  0  0
    6.7770    0.2350   18.8410 C   0  0  0  0  0  0  0  0  0  0  0  0
   10.4640   -1.1640   22.7940 C   0  0  0  0  0  0  0  0  0  0  0  0
   11.3570   -1.2130   23.6880 C   0  0  0  0  0  0  0  0  0  0  0  0
  1  2  1  0
  2  3  1  0
  2  4  1  0
  2  5  1  0
  5  6  2  0
  5  7  1  0
  7  8  1  0
  8  9  1  0
  9 10  1  0
 10 11  1  0
 11 12  1  0
 12 13  2  0
 13 14  1  0
 14 15  1  0
 15 16  1  0
 16 17  2  0
 16 18  1  0
 18 19  1  0
 19 20  2  0
 20 21  1  0
 21 22  2  0
 22 23  1  0
 19 24  1  0
 23 24  2  0
 14 25  2  0
  7 26  1  0
 11 26  2  0
 25 26  1  0
M  END
