pyridine_urea_14278
     RDKit          3D

 22 23  0  0  0  0  0  0  0  0999 V2000
   13.6570   -2.8980   23.2930 C   0  0  0  0  0  0  0  0  0  0  0  0
   13.0880   -3.0250   24.6480 C   0  0  0  0  0  0  0  0  0  0  0  0
   13.8140   -3.4050   25.7410 C   0  0  0  0  0  0  0  0  0  0  0  0
   12.9110   -1.6050   24.8730 C   0  0  0  0  0  0  0  0  0  0  0  0
   11.6850   -1.2050   24.4650 C   0  0  0  0  0  0  0  0  0  0  0  0
   10.7200   -1.8920   24.7190 O   0  0  0  0  0  0  0  0  0  0  0  0
   11.7040   -0.0310   23.7640 N   0  0  0  0  0  0  0  0  0  0  0  0
   12.9230    0.1260   23.2160 C   0  0  0  0  0  0  0  0  0  0  0  0
   12.9440   -0.7820   22.0340 C   0  0  0  0  0  0  0  0  0  0  0  0
   11.6090   -1.5020   21.7930 C   0  0  0  0  0  0  0  0  0  0  0  0
   10.3900   -0.9970   22.2630 C   0  0  2  0  0  0  0  0  0  0  0  0
    9.3700   -1.0410   21.3630 N   0  0  0  0  0  0  0  0  0  0  0  0
    8.3870   -0.0580   21.1960 C   0  0  0  0  0  0  0  0  0  0  0  0
    8.6220    1.3580   21.0860 O   0  0  0  0  0  0  0  0  0  0  0  0
    7.1170   -0.4930   21.0840 N   0  0  0  0  0  0  0  0  0  0  0  0
    6.4590    0.0920   20.0660 C   0  0  0  0  0  0  0  0  0  0  0  0
    5.3280    0.8490   20.3420 C   0  0  0  0  0  0  0  0  0  0  0  0
    4.6690    1.4600   19.2840 C   0  0  0  0  0  0  0  0  0  0  0  0
    5.1630    1.2930   18.0010 C   0  0  0  0  0  0  0  0  0  0  0  0
    6.2360    0.5720   17.6870 N   0  0  0  0  0  0  0  0  0  0  0  0
    6.8410   -0.0030   18.7410 C   0  0  0  0  0  0  0  0  0  0  0  0
   10.4990    0.1570   22.9970 C   0  0  0  0  0  0  0  0  0  0  0  0
  1  2  1  0
  2  3  1  0
  2  4  1  0
  4  5  1  0
  5  6  2  0
  5  7  1  0
  7  8  1  0
  8  9  1  0
  9 10  1  0
 10 11  1  0
 11 12  1  6
 12 13  1  0
 13 14  2  0
 13 15  1  0
 15 16  1  0
 16 17  2  0
 17 18  1  0
 18 19  2  0
 19 20  1  0
 16 21  1  0
 20 21  2  0
  7 22  1  0
 11 22  1  0
M  END
