pyridine_urea_13212
     RDKit          3D

 17 18  0  0  0  0  0  0  0  0999 V2000
    8.7400    0.9430   21.2520 O   0  0  0  0  0  0  0  0  0  0  0  0
    8.4660   -0.2280   21.4810 C   0  0  0  0  0  0  0  0  0  0  0  0
    9.2940   -1.1570   22.0560 N   0  0  0  0  0  0  0  0  0  0  0  0
   10.3770   -0.8200   22.8860 C   0  0  0  0  0  0  0  0  0  0  0  0
   11.6000   -1.4960   22.7040 C   0  0  0  0  0  0  0  0  0  0  0  0
   12.6720   -0.6870   22.3180 C   0  0  0  0  0  0  0  0  0  0  0  0
   12.5030    0.1690   23.2370 C   0  0  0  0  0  0  0  0  0  0  0  0
   11.6470    0.3800   24.3160 C   0  0  0  0  0  0  0  0  0  0  0  0
   12.5960    1.1290   23.9640 O   0  0  0  0  0  0  0  0  0  0  0  0
   13.3220    0.5940   22.7510 N   0  0  0  0  0  0  0  0  0  0  0  0
    7.2310   -0.7390   21.1470 N   0  0  0  0  0  0  0  0  0  0  0  0
    6.5520   -0.0670   20.0600 C   0  0  0  0  0  0  0  0  0  0  0  0
    5.2890    0.7440   20.3580 C   0  0  0  0  0  0  0  0  0  0  0  0
    4.6500    1.3960   19.3180 C   0  0  0  0  0  0  0  0  0  0  0  0
    5.1690    1.2930   18.0490 C   0  0  0  0  0  0  0  0  0  0  0  0
    6.2700    0.5930   17.7070 N   0  0  0  0  0  0  0  0  0  0  0  0
    6.9110   -0.0550   18.7200 C   0  0  0  0  0  0  0  0  0  0  0  0
  1  2  2  0
  2  3  1  0
  3  4  1  0
  4  5  1  0
  5  6  1  0
  6  7  1  0
  7  8  2  0
  8  9  1  0
  6 10  2  0
  9 10  1  0
  2 11  1  0
 11 12  1  0
 12 13  2  0
 13 14  1  0
 14 15  2  0
 15 16  1  0
 12 17  1  0
 16 17  2  0
M  END
