pyridine_urea_6427
     RDKit          3D

 23 25  0  0  0  0  0  0  0  0999 V2000
    8.9720    0.4400   21.3230 O   0  0  0  0  0  0  0  0  0  0  0  0
    8.3390   -0.5960   21.4360 C   0  0  0  0  0  0  0  0  0  0  0  0
    8.8460   -1.7370   22.0240 N   0  0  0  0  0  0  0  0  0  0  0  0
   10.1870   -1.7300   22.5750 C   0  0  0  0  0  0  0  0  0  0  0  0
   10.4050   -0.5960   23.5470 C   0  0  0  0  0  0  0  0  0  0  0  0
   10.8860    0.7450   23.1950 C   0  0  0  0  0  0  0  0  0  0  0  0
   10.3190    1.8020   22.9120 C   0  0  0  0  0  0  0  0  0  0  0  0
    8.6950    2.3890   22.7370 Cl  0  0  0  0  0  0  0  0  0  0  0  0
   11.6020    2.4910   22.7550 C   0  0  0  0  0  0  0  0  0  0  0  0
   11.9150    0.9160   23.1200 C   0  0  0  0  0  0  0  0  0  0  0  0
   13.2190    0.4380   23.2190 C   0  0  0  0  0  0  0  0  0  0  0  0
   12.3070    1.4600   23.0060 C   0  0  0  0  0  0  0  0  0  0  0  0
   12.6510    3.1330   22.6330 Cl  0  0  0  0  0  0  0  0  0  0  0  0
   10.9980   -0.7420   24.9090 C   0  0  0  0  0  0  0  0  0  0  0  0
    9.8120   -0.3040   25.3210 C   0  0  0  0  0  0  0  0  0  0  0  0
    8.9570   -0.7330   24.2660 C   0  0  0  0  0  0  0  0  0  0  0  0
    7.0520   -0.8150   21.0170 N   0  0  0  0  0  0  0  0  0  0  0  0
    6.3720   -0.0660   20.0520 C   0  0  0  0  0  0  0  0  0  0  0  0
    5.1200    0.7070   20.2670 C   0  0  0  0  0  0  0  0  0  0  0  0
    4.5290    1.4630   19.1250 C   0  0  0  0  0  0  0  0  0  0  0  0
    5.2120    1.3820   17.9130 C   0  0  0  0  0  0  0  0  0  0  0  0
    6.3500    0.6700   17.7250 N   0  0  0  0  0  0  0  0  0  0  0  0
    6.8860   -0.0170   18.7660 C   0  0  0  0  0  0  0  0  0  0  0  0
  1  2  2  0
  2  3  1  0
  3  4  1  0
  5  4  1  0
  5  6  1  0
  6  7  2  0
  7  8  1  0
  7  9  1  0
  9 10  2  0
 10 11  1  0
  6 12  1  0
 11 12  2  0
 12 13  1  0
  5 14  1  0
 14 15  1  0
  5 16  1  0
 15 16  1  0
  2 17  1  0
 17 18  1  0
 18 19  2  0
 19 20  1  0
 20 21  2  0
 21 22  1  0
 18 23  1  0
 22 23  2  0
M  END
