pyridine_urea_2773
     RDKit          3D

 22 23  0  0  0  0  0  0  0  0999 V2000
   12.4590    1.7030   22.7880 C   0  0  0  0  0  0  0  0  0  0  0  0
   12.8200    1.4520   24.1170 O   0  0  0  0  0  0  0  0  0  0  0  0
   12.7470    0.0950   24.4710 C   0  0  0  0  0  0  0  0  0  0  0  0
   13.2820   -0.6100   25.2890 O   0  0  0  0  0  0  0  0  0  0  0  0
   11.7440   -0.3700   23.6070 C   0  0  0  0  0  0  0  0  0  0  0  0
   10.5850    0.2230   23.9130 C   0  0  0  0  0  0  0  0  0  0  0  0
    9.4110   -0.1600   23.1520 C   0  0  0  0  0  0  0  0  0  0  0  0
    8.1640    0.4110   23.4400 C   0  0  0  0  0  0  0  0  0  0  0  0
    9.6380   -1.1150   22.1630 C   0  0  0  0  0  0  0  0  0  0  0  0
    8.8120   -1.4880   21.5230 N   0  0  0  0  0  0  0  0  0  0  0  0
    8.0940   -0.3030   21.1930 C   0  0  0  0  0  0  0  0  0  0  0  0
    8.6000    0.8180   21.1350 O   0  0  0  0  0  0  0  0  0  0  0  0
    6.7420   -0.6600   20.9610 N   0  0  0  0  0  0  0  0  0  0  0  0
    6.2210    0.0180   19.9280 C   0  0  0  0  0  0  0  0  0  0  0  0
    4.9400    0.7930   20.1910 C   0  0  0  0  0  0  0  0  0  0  0  0
    4.3140    1.6020   19.0630 C   0  0  0  0  0  0  0  0  0  0  0  0
    5.1180    1.5080   17.7690 C   0  0  0  0  0  0  0  0  0  0  0  0
    6.2740    0.7610   17.6550 N   0  0  0  0  0  0  0  0  0  0  0  0
    6.8140    0.0340   18.6940 C   0  0  0  0  0  0  0  0  0  0  0  0
   10.8840   -1.6970   21.8640 C   0  0  0  0  0  0  0  0  0  0  0  0
   11.9470   -1.2920   22.6250 C   0  0  0  0  0  0  0  0  0  0  0  0
   13.1290   -1.8660   22.3310 F   0  0  0  0  0  0  0  0  0  0  0  0
  1  2  1  0
  2  3  1  0
  3  4  2  0
  3  5  1  0
  5  6  2  0
  6  7  1  0
  7  8  1  0
  7  9  2  0
  9 10  1  0
 10 11  1  0
 11 12  2  0
 11 13  1  0
 13 14  1  0
 14 15  2  0
 15 16  1  0
 16 17  2  0
 17 18  1  0
 14 19  1  0
 18 19  2  0
  9 20  1  0
  5 21  1  0
 20 21  2  0
 21 22  1  0
M  END
