pyridine_urea_3624
     RDKit          3D

 17 18  0  0  0  0  0  0  0  0999 V2000
   13.0110    0.5900   23.1760 C   0  0  0  0  0  0  0  0  0  0  0  0
   12.6260   -0.6450   22.3880 C   0  0  0  0  0  0  0  0  0  0  0  0
   13.4700   -1.4300   21.5500 N   0  0  0  0  0  0  0  0  0  0  0  0
   12.5460   -2.4140   21.1060 O   0  0  0  0  0  0  0  0  0  0  0  0
   11.2290   -2.2450   21.6260 N   0  0  0  0  0  0  0  0  0  0  0  0
   11.2530   -1.1890   22.4000 C   0  0  0  0  0  0  0  0  0  0  0  0
   10.2010   -0.5000   23.2210 C   0  0  0  0  0  0  0  0  0  0  0  0
    8.9160   -0.7480   22.5720 N   0  0  0  0  0  0  0  0  0  0  0  0
    8.4330    0.0710   21.5750 C   0  0  0  0  0  0  0  0  0  0  0  0
    8.9640    1.1550   21.2610 O   0  0  0  0  0  0  0  0  0  0  0  0
    7.3050   -0.4760   21.0270 N   0  0  0  0  0  0  0  0  0  0  0  0
    6.5730    0.1140   20.0020 C   0  0  0  0  0  0  0  0  0  0  0  0
    5.3060    0.8960   20.3640 C   0  0  0  0  0  0  0  0  0  0  0  0
    4.6410    1.4730   19.2810 C   0  0  0  0  0  0  0  0  0  0  0  0
    5.1320    1.3170   17.9970 C   0  0  0  0  0  0  0  0  0  0  0  0
    6.2480    0.6160   17.6820 N   0  0  0  0  0  0  0  0  0  0  0  0
    6.9310    0.0370   18.6820 C   0  0  0  0  0  0  0  0  0  0  0  0
  1  2  1  0
  2  3  2  0
  3  4  1  0
  4  5  1  0
  2  6  1  0
  5  6  2  0
  6  7  1  0
  7  8  1  0
  8  9  1  0
  9 10  2  0
  9 11  1  0
 11 12  1  0
 12 13  2  0
 13 14  1  0
 14 15  2  0
 15 16  1  0
 12 17  1  0
 16 17  2  0
M  END
