pyridine_urea_13914
     RDKit          3D

 24 25  0  0  0  0  0  0  0  0999 V2000
    8.8420    0.9330   21.2740 O   0  0  0  0  0  0  0  0  0  0  0  0
    8.4490   -0.1760   21.5800 C   0  0  0  0  0  0  0  0  0  0  0  0
    9.1070   -0.9760   22.5080 N   0  0  0  0  0  0  0  0  0  0  0  0
   10.1210   -0.3640   23.3760 C   0  0  0  0  0  0  0  0  0  0  0  0
   11.2190    0.3060   22.5780 C   0  0  0  0  0  0  0  0  0  0  0  0
   11.8580    1.5280   23.1140 N   0  0  0  0  0  0  0  0  0  0  0  0
   11.0460    2.9910   22.5950 S   0  0  0  0  0  0  0  0  0  0  0  0
    9.6910    2.6580   22.2160 O   0  0  0  0  0  0  0  0  0  0  0  0
   11.9120    3.6490   21.6370 O   0  0  0  0  0  0  0  0  0  0  0  0
   10.9160    4.1330   23.8790 C   0  0  0  0  0  0  0  0  0  0  0  0
   11.7660    5.1180   24.2460 C   0  0  0  0  0  0  0  0  0  0  0  0
   11.5490    6.0670   25.3890 C   0  0  0  0  0  0  0  0  0  0  0  0
   10.3220    5.9290   26.1800 C   0  0  0  0  0  0  0  0  0  0  0  0
   10.2280    6.8350   27.1860 F   0  0  0  0  0  0  0  0  0  0  0  0
    9.3390    5.0050   25.9730 C   0  0  0  0  0  0  0  0  0  0  0  0
    9.6280    4.0600   24.7750 C   0  0  0  0  0  0  0  0  0  0  0  0
    8.6530    3.1410   24.5610 F   0  0  0  0  0  0  0  0  0  0  0  0
    7.2930   -0.7190   21.0370 N   0  0  0  0  0  0  0  0  0  0  0  0
    6.5010   -0.0530   20.1440 C   0  0  0  0  0  0  0  0  0  0  0  0
    5.3200    0.6230   20.4750 C   0  0  0  0  0  0  0  0  0  0  0  0
    4.6420    1.2640   19.4430 C   0  0  0  0  0  0  0  0  0  0  0  0
    5.1870    1.2100   18.0440 C   0  0  0  0  0  0  0  0  0  0  0  0
    6.3140    0.5560   17.7260 N   0  0  0  0  0  0  0  0  0  0  0  0
    6.9450   -0.0540   18.7460 C   0  0  0  0  0  0  0  0  0  0  0  0
  1  2  2  0
  2  3  1  0
  3  4  1  0
  4  5  1  0
  5  6  1  0
  7  6  1  0
  7  8  2  0
  7  9  2  0
  7 10  1  0
 10 11  2  0
 11 12  1  0
 12 13  2  0
 13 14  1  0
 13 15  1  0
 10 16  1  0
 15 16  2  0
 16 17  1  0
  2 18  1  0
 18 19  1  0
 19 20  2  0
 20 21  1  0
 21 22  2  0
 22 23  1  0
 19 24  1  0
 23 24  2  0
M  END
