pyridine_urea_4428
     RDKit          3D

 23 25  0  0  0  0  0  0  0  0999 V2000
    8.9660    0.6940   21.3540 O   0  0  0  0  0  0  0  0  0  0  0  0
    8.6030   -0.4720   21.3130 C   0  0  0  0  0  0  0  0  0  0  0  0
    9.4590   -1.5630   21.4440 N   0  0  0  0  0  0  0  0  0  0  0  0
   10.5290   -1.6300   22.4340 C   0  0  0  0  0  0  0  0  0  0  0  0
   11.9760   -1.6440   21.8690 C   0  0  0  0  0  0  0  0  0  0  0  0
   12.3000   -0.6810   22.5820 C   0  0  0  0  0  0  0  0  0  0  0  0
   11.7340    0.0630   23.4510 C   0  0  0  0  0  0  0  0  0  0  0  0
   10.4130    0.2650   24.1440 C   0  0  0  0  0  0  0  0  0  0  0  0
   10.3230   -0.2420   25.5570 C   0  0  0  0  0  0  0  0  0  0  0  0
    9.1060   -0.0780   26.2200 C   0  0  0  0  0  0  0  0  0  0  0  0
    8.0320    0.5180   25.5720 C   0  0  0  0  0  0  0  0  0  0  0  0
    6.5270    0.7160   26.3970 Cl  0  0  0  0  0  0  0  0  0  0  0  0
    8.1200    0.9720   24.2650 C   0  0  0  0  0  0  0  0  0  0  0  0
    9.3080    0.8560   23.5370 C   0  0  0  0  0  0  0  0  0  0  0  0
   13.0180    0.4110   23.2470 N   0  0  0  0  0  0  0  0  0  0  0  0
   13.2120   -0.7810   22.1440 O   0  0  0  0  0  0  0  0  0  0  0  0
    7.2800   -0.8320   21.0820 N   0  0  0  0  0  0  0  0  0  0  0  0
    6.5570   -0.1220   20.1790 C   0  0  0  0  0  0  0  0  0  0  0  0
    5.3240    0.6700   20.4680 C   0  0  0  0  0  0  0  0  0  0  0  0
    4.6800    1.3640   19.4580 C   0  0  0  0  0  0  0  0  0  0  0  0
    5.1620    1.3640   18.0660 C   0  0  0  0  0  0  0  0  0  0  0  0
    6.3630    0.6030   17.7110 N   0  0  0  0  0  0  0  0  0  0  0  0
    6.9830   -0.1080   18.8550 C   0  0  0  0  0  0  0  0  0  0  0  0
  1  2  2  0
  2  3  1  0
  3  4  1  0
  4  5  1  0
  5  6  2  0
  6  7  1  0
  7  8  1  0
  8  9  2  0
  9 10  1  0
 10 11  2  0
 11 12  1  0
 11 13  1  0
  8 14  1  0
 13 14  2  0
  7 15  2  0
  5 16  1  0
 15 16  1  0
  2 17  1  0
 17 18  1  0
 18 19  2  0
 19 20  1  0
 20 21  2  0
 21 22  1  0
 18 23  1  0
 22 23  2  0
M  END
