pyridine_urea_8767
     RDKit          3D

 20 21  0  0  0  0  0  0  0  0999 V2000
   11.7820    2.2240   23.0430 C   0  0  0  0  0  0  0  0  0  0  0  0
   11.8320    0.7500   22.8900 C   0  0  0  0  0  0  0  0  0  0  0  0
   13.1320    0.2870   22.8350 C   0  0  0  0  0  0  0  0  0  0  0  0
   13.7180   -0.9730   22.6820 C   0  0  0  0  0  0  0  0  0  0  0  0
   12.5750   -1.6220   22.5970 C   0  0  0  0  0  0  0  0  0  0  0  0
   11.2060   -1.1470   22.6550 C   0  0  0  0  0  0  0  0  0  0  0  0
   10.6090    0.0570   22.8070 C   0  0  0  0  0  0  0  0  0  0  0  0
    9.6360   -1.0630   22.6730 C   0  0  1  0  0  0  0  0  0  0  0  0
    9.7670   -2.0380   23.6430 C   0  0  0  0  0  0  0  0  0  0  0  0
   10.7530   -1.8550   24.5390 F   0  0  0  0  0  0  0  0  0  0  0  0
    8.3180   -0.4250   22.7570 N   0  0  0  0  0  0  0  0  0  0  0  0
    8.0380    0.2510   21.6090 C   0  0  0  0  0  0  0  0  0  0  0  0
    8.6780    1.2270   21.1830 O   0  0  0  0  0  0  0  0  0  0  0  0
    6.9540   -0.3380   21.0180 N   0  0  0  0  0  0  0  0  0  0  0  0
    6.3400    0.2380   19.9350 C   0  0  0  0  0  0  0  0  0  0  0  0
    5.1630    0.9510   20.1390 C   0  0  0  0  0  0  0  0  0  0  0  0
    4.5470    1.5600   19.0550 C   0  0  0  0  0  0  0  0  0  0  0  0
    5.1490    1.4200   17.8170 C   0  0  0  0  0  0  0  0  0  0  0  0
    6.2770    0.7260   17.6070 N   0  0  0  0  0  0  0  0  0  0  0  0
    6.8540    0.1450   18.6620 C   0  0  0  0  0  0  0  0  0  0  0  0
  1  2  1  0
  2  3  2  0
  3  4  1  0
  4  5  2  0
  5  6  1  0
  2  7  1  0
  6  7  2  0
  7  8  1  0
  8  9  1  1
  9 10  1  0
  8 11  1  0
 11 12  1  0
 12 13  2  0
 12 14  1  0
 14 15  1  0
 15 16  2  0
 16 17  1  0
 17 18  2  0
 18 19  1  0
 15 20  1  0
 19 20  2  0
M  END
