pyridine_urea_6767
     RDKit          3D

 21 22  0  0  0  0  0  0  0  0999 V2000
   10.9020    0.2940   23.2140 C   0  0  0  0  0  0  0  0  0  0  0  0
   10.2030   -0.6240   22.2300 C   0  0  1  0  0  0  0  0  0  0  0  0
   10.9580   -1.9360   22.1010 C   0  0  0  0  0  0  0  0  0  0  0  0
   11.7460   -1.7880   21.1840 O   0  0  0  0  0  0  0  0  0  0  0  0
   13.0410   -1.6440   21.5030 C   0  0  0  0  0  0  0  0  0  0  0  0
   13.1790   -1.5170   22.9680 C   0  0  0  0  0  0  0  0  0  0  0  0
   13.1020   -0.6580   23.9920 C   0  0  0  0  0  0  0  0  0  0  0  0
   13.3920   -1.2500   25.2310 C   0  0  0  0  0  0  0  0  0  0  0  0
   13.6900   -2.4780   25.4780 C   0  0  0  0  0  0  0  0  0  0  0  0
   13.7510   -3.2590   24.5080 C   0  0  0  0  0  0  0  0  0  0  0  0
   13.5290   -2.9100   23.2220 C   0  0  0  0  0  0  0  0  0  0  0  0
    8.8320   -0.8740   22.6100 N   0  0  0  0  0  0  0  0  0  0  0  0
    8.2330   -0.0030   21.5930 C   0  0  0  0  0  0  0  0  0  0  0  0
    8.8280    1.2590   21.2370 O   0  0  0  0  0  0  0  0  0  0  0  0
    7.0930   -0.5380   21.0740 N   0  0  0  0  0  0  0  0  0  0  0  0
    6.4520    0.0780   20.0140 C   0  0  0  0  0  0  0  0  0  0  0  0
    5.1770    0.8670   20.2400 C   0  0  0  0  0  0  0  0  0  0  0  0
    4.6100    1.4670   19.1590 C   0  0  0  0  0  0  0  0  0  0  0  0
    5.1680    1.3630   17.9050 C   0  0  0  0  0  0  0  0  0  0  0  0
    6.2910    0.6640   17.6630 N   0  0  0  0  0  0  0  0  0  0  0  0
    6.9010    0.0430   18.7070 C   0  0  0  0  0  0  0  0  0  0  0  0
  2  1  1  1
  2  3  1  0
  3  4  1  0
  4  5  1  0
  5  6  1  0
  6  7  2  0
  7  8  1  0
  8  9  2  0
  9 10  1  0
  6 11  1  0
 10 11  2  0
  2 12  1  0
 12 13  1  0
 13 14  2  0
 13 15  1  0
 15 16  1  0
 16 17  2  0
 17 18  1  0
 18 19  2  0
 19 20  1  0
 16 21  1  0
 20 21  2  0
M  END
