pyridine_urea_13345
     RDKit          3D

 18 20  0  0  0  0  0  0  0  0999 V2000
    8.9460    1.0480   21.2370 O   0  0  0  0  0  0  0  0  0  0  0  0
    8.2670    0.0710   21.5940 C   0  0  0  0  0  0  0  0  0  0  0  0
    7.1860   -0.4750   20.9700 N   0  0  0  0  0  0  0  0  0  0  0  0
    6.4900    0.1410   19.9460 C   0  0  0  0  0  0  0  0  0  0  0  0
    5.3270    0.8570   20.2390 C   0  0  0  0  0  0  0  0  0  0  0  0
    4.6380    1.4920   19.2090 C   0  0  0  0  0  0  0  0  0  0  0  0
    5.1450    1.3810   17.9330 C   0  0  0  0  0  0  0  0  0  0  0  0
    6.2540    0.6900   17.6380 N   0  0  0  0  0  0  0  0  0  0  0  0
    6.8980    0.0880   18.6470 C   0  0  0  0  0  0  0  0  0  0  0  0
    8.4950   -0.6430   22.7400 N   0  0  0  0  0  0  0  0  0  0  0  0
    9.8240   -1.0360   23.1020 C   0  0  1  0  0  0  0  0  0  0  0  0
   10.7330   -1.4350   21.9560 C   0  0  0  0  0  0  0  0  0  0  0  0
   11.9720   -1.2160   22.4360 C   0  0  0  0  0  0  0  0  0  0  0  0
   11.8160   -0.5810   23.6250 C   0  0  0  0  0  0  0  0  0  0  0  0
   12.8830    0.0650   24.0590 C   0  0  0  0  0  0  0  0  0  0  0  0
   12.9880   -0.8990   24.9930 C   0  0  0  0  0  0  0  0  0  0  0  0
   11.8080   -1.5470   24.6790 C   0  0  0  0  0  0  0  0  0  0  0  0
   10.6190    0.1490   23.5240 C   0  0  0  0  0  0  0  0  0  0  0  0
  1  2  2  0
  2  3  1  0
  3  4  1  0
  4  5  2  0
  5  6  1  0
  6  7  2  0
  7  8  1  0
  4  9  1  0
  8  9  2  0
  2 10  1  0
 11 10  1  6
 11 12  1  0
 12 13  1  0
 14 13  1  0
 14 15  1  0
 15 16  1  0
 14 17  1  0
 16 17  1  0
 11 18  1  0
 14 18  1  0
M  END
