pyridine_urea_8176
     RDKit          3D

 23 25  0  0  0  0  0  0  0  0999 V2000
   11.8050    3.3460   22.4920 C   0  0  0  0  0  0  0  0  0  0  0  0
   11.2540    1.9550   22.8610 C   0  0  0  0  0  0  0  0  0  0  0  0
   12.4810    0.9980   23.1210 C   0  0  0  0  0  0  0  0  0  0  0  0
   12.2310   -0.2550   23.4590 C   0  0  0  0  0  0  0  0  0  0  0  0
   12.9110   -1.2980   23.7370 N   0  0  0  0  0  0  0  0  0  0  0  0
   13.5240   -2.0670   22.9170 C   0  0  0  0  0  0  0  0  0  0  0  0
   14.0790   -3.0160   23.5930 C   0  0  0  0  0  0  0  0  0  0  0  0
   13.7730   -2.8550   25.0700 C   0  0  0  0  0  0  0  0  0  0  0  0
   12.9860   -1.6720   25.0760 N   0  0  0  0  0  0  0  0  0  0  0  0
   10.9940   -0.3820   23.4920 C   0  0  0  0  0  0  0  0  0  0  0  0
    9.7530    0.2230   23.3320 C   0  0  0  0  0  0  0  0  0  0  0  0
    9.7780    1.6880   22.9350 C   0  0  0  0  0  0  0  0  0  0  0  0
    8.5090    0.8970   23.1640 C   0  0  0  0  0  0  0  0  0  0  0  0
    8.4740   -0.2260   22.4510 N   0  0  0  0  0  0  0  0  0  0  0  0
    8.0530    0.1440   21.2650 C   0  0  0  0  0  0  0  0  0  0  0  0
    8.4990    1.1770   20.7620 O   0  0  0  0  0  0  0  0  0  0  0  0
    7.1090   -0.6670   20.7910 N   0  0  0  0  0  0  0  0  0  0  0  0
    6.3830    0.0110   19.9190 C   0  0  0  0  0  0  0  0  0  0  0  0
    5.1800    0.6580   20.1900 C   0  0  0  0  0  0  0  0  0  0  0  0
    4.5440    1.3540   19.1670 C   0  0  0  0  0  0  0  0  0  0  0  0
    5.1420    1.3690   17.9240 C   0  0  0  0  0  0  0  0  0  0  0  0
    6.2950    0.7420   17.6510 N   0  0  0  0  0  0  0  0  0  0  0  0
    6.8870    0.0790   18.6490 C   0  0  0  0  0  0  0  0  0  0  0  0
  1  2  1  0
  2  3  2  0
  3  4  1  0
  4  5  1  0
  5  6  1  0
  6  7  2  0
  7  8  1  0
  5  9  1  0
  8  9  2  0
  4 10  2  0
 10 11  1  0
  2 12  1  0
 11 12  2  0
 12 13  1  0
 13 14  1  0
 14 15  1  0
 15 16  2  0
 15 17  1  0
 17 18  1  0
 18 19  2  0
 19 20  1  0
 20 21  2  0
 21 22  1  0
 18 23  1  0
 22 23  2  0
M  END
