pyridine_urea_5348
     RDKit          3D

 19 20  0  0  0  0  0  0  0  0999 V2000
    8.8880    1.2630   21.0950 O   0  0  0  0  0  0  0  0  0  0  0  0
    8.2280    0.2820   21.4540 C   0  0  0  0  0  0  0  0  0  0  0  0
    8.3010   -0.3580   22.6190 N   0  0  0  0  0  0  0  0  0  0  0  0
    9.3550   -0.4370   23.4910 C   0  0  0  0  0  0  0  0  0  0  0  0
   10.2750    0.5520   23.6080 C   0  0  0  0  0  0  0  0  0  0  0  0
   11.3560    1.4710   23.6480 C   0  0  0  0  0  0  0  0  0  0  0  0
   12.6490    1.3880   23.2270 C   0  0  0  0  0  0  0  0  0  0  0  0
   13.2030    0.2000   22.5950 C   0  0  0  0  0  0  0  0  0  0  0  0
   12.3350   -0.7760   22.4540 C   0  0  0  0  0  0  0  0  0  0  0  0
   12.8310   -2.2250   21.7150 Cl  0  0  0  0  0  0  0  0  0  0  0  0
   10.9200   -0.5860   22.9470 C   0  0  0  0  0  0  0  0  0  0  0  0
    9.9810   -2.0190   22.6140 Cl  0  0  0  0  0  0  0  0  0  0  0  0
    7.2530   -0.3690   20.7710 N   0  0  0  0  0  0  0  0  0  0  0  0
    6.4390    0.2660   19.8760 C   0  0  0  0  0  0  0  0  0  0  0  0
    5.2710    0.9420   20.1710 C   0  0  0  0  0  0  0  0  0  0  0  0
    4.5880    1.5530   19.1250 C   0  0  0  0  0  0  0  0  0  0  0  0
    5.1190    1.4430   17.8450 C   0  0  0  0  0  0  0  0  0  0  0  0
    6.2360    0.7750   17.5620 N   0  0  0  0  0  0  0  0  0  0  0  0
    6.8630    0.2090   18.5860 C   0  0  0  0  0  0  0  0  0  0  0  0
  1  2  2  0
  2  3  1  0
  3  4  1  0
  4  5  1  0
  5  6  2  0
  6  7  1  0
  7  8  2  0
  8  9  1  0
  9 10  1  0
  5 11  1  0
  9 11  2  0
 11 12  1  0
  2 13  1  0
 13 14  1  0
 14 15  2  0
 15 16  1  0
 16 17  2  0
 17 18  1  0
 14 19  1  0
 18 19  2  0
M  END
