pyridine_urea_673
     RDKit          3D

 24 26  0  0  0  0  0  0  0  0999 V2000
    9.5740    3.5560   23.8720 C   0  0  0  0  0  0  0  0  0  0  0  0
   10.9170    3.6370   23.1740 C   0  0  0  0  0  0  0  0  0  0  0  0
   11.2280    4.8210   22.4870 C   0  0  0  0  0  0  0  0  0  0  0  0
   12.4170    5.0290   21.7840 C   0  0  0  0  0  0  0  0  0  0  0  0
   13.3400    4.0210   21.7510 C   0  0  0  0  0  0  0  0  0  0  0  0
   13.1520    2.8160   22.3970 C   0  0  0  0  0  0  0  0  0  0  0  0
   11.8510    2.5890   23.1820 C   0  0  0  0  0  0  0  0  0  0  0  0
   11.5990    1.5610   23.8050 O   0  0  0  0  0  0  0  0  0  0  0  0
   10.7080    0.6810   23.2700 C   0  0  0  0  0  0  0  0  0  0  0  0
   11.8850   -0.0650   22.9740 N   0  0  0  0  0  0  0  0  0  0  0  0
   13.2740    0.1730   23.2150 C   0  0  0  0  0  0  0  0  0  0  0  0
   12.9650   -1.0120   22.5590 C   0  0  0  0  0  0  0  0  0  0  0  0
   11.5850   -1.3500   22.2680 C   0  0  0  0  0  0  0  0  0  0  0  0
   10.3680   -0.4780   22.6310 C   0  0  0  0  0  0  0  0  0  0  0  0
    9.0770   -0.8060   22.3340 N   0  0  0  0  0  0  0  0  0  0  0  0
    8.3350    0.0690   21.4470 C   0  0  0  0  0  0  0  0  0  0  0  0
    8.7830    1.1650   21.0790 O   0  0  0  0  0  0  0  0  0  0  0  0
    7.0900   -0.4470   21.0610 N   0  0  0  0  0  0  0  0  0  0  0  0
    6.4160    0.1210   20.0380 C   0  0  0  0  0  0  0  0  0  0  0  0
    5.2380    0.7970   20.3110 C   0  0  0  0  0  0  0  0  0  0  0  0
    4.5940    1.3880   19.2380 C   0  0  0  0  0  0  0  0  0  0  0  0
    5.1370    1.2820   17.9690 C   0  0  0  0  0  0  0  0  0  0  0  0
    6.2880    0.6160   17.6600 N   0  0  0  0  0  0  0  0  0  0  0  0
    6.8880    0.0510   18.7470 C   0  0  0  0  0  0  0  0  0  0  0  0
  1  2  1  0
  2  3  2  0
  3  4  1  0
  4  5  2  0
  5  6  1  0
  2  7  1  0
  6  7  2  0
  7  8  1  0
  8  9  1  0
  9 10  2  0
 10 11  1  0
 11 12  2  0
 12 13  1  0
  9 14  1  0
 13 14  2  0
 14 15  1  0
 15 16  1  0
 16 17  2  0
 16 18  1  0
 18 19  1  0
 19 20  2  0
 20 21  1  0
 21 22  2  0
 22 23  1  0
 19 24  1  0
 23 24  2  0
M  END
