pyridine_urea_2548
     RDKit          3D

 24 26  0  0  0  0  0  0  0  0999 V2000
    9.1760    0.5770   21.4130 O   0  0  0  0  0  0  0  0  0  0  0  0
    8.6790   -0.5370   21.3580 C   0  0  0  0  0  0  0  0  0  0  0  0
    9.3020   -1.7630   21.5460 N   0  0  0  0  0  0  0  0  0  0  0  0
   10.6850   -2.1010   21.7540 C   0  0  0  0  0  0  0  0  0  0  0  0
   11.5670   -1.1400   22.1480 C   0  0  0  0  0  0  0  0  0  0  0  0
   10.3480   -1.3850   22.8050 C   0  0  0  0  0  0  0  0  0  0  0  0
    9.6970   -0.8940   23.8610 C   0  0  0  0  0  0  0  0  0  0  0  0
   10.1410    0.0530   24.6060 C   0  0  0  0  0  0  0  0  0  0  0  0
    9.2220    0.4070   25.7340 N   0  0  0  0  0  0  0  0  0  0  0  0
    7.8500    0.5260   25.5540 C   0  0  0  0  0  0  0  0  0  0  0  0
    6.8850   -0.6150   25.9110 C   0  0  0  0  0  0  0  0  0  0  0  0
    7.3900   -1.8080   26.4650 C   0  0  0  0  0  0  0  0  0  0  0  0
    7.7820   -1.6500   27.7940 C   0  0  0  0  0  0  0  0  0  0  0  0
    8.5570   -0.5060   27.9670 C   0  0  0  0  0  0  0  0  0  0  0  0
    9.4380   -0.3380   26.9010 C   0  0  0  0  0  0  0  0  0  0  0  0
   11.5050    0.6030   24.1570 C   0  0  0  0  0  0  0  0  0  0  0  0
   12.1150    0.0390   23.0470 C   0  0  0  0  0  0  0  0  0  0  0  0
    7.3360   -0.7210   21.0700 N   0  0  0  0  0  0  0  0  0  0  0  0
    6.5770   -0.0270   20.1130 C   0  0  0  0  0  0  0  0  0  0  0  0
    5.4410    0.7450   20.3700 C   0  0  0  0  0  0  0  0  0  0  0  0
    4.7390    1.4150   19.3720 C   0  0  0  0  0  0  0  0  0  0  0  0
    5.2090    1.2920   18.0740 C   0  0  0  0  0  0  0  0  0  0  0  0
    6.2800    0.5770   17.7080 N   0  0  0  0  0  0  0  0  0  0  0  0
    6.9700   -0.0960   18.7860 C   0  0  0  0  0  0  0  0  0  0  0  0
  1  2  2  0
  2  3  1  0
  3  4  1  0
  4  5  1  0
  5  6  2  0
  6  7  1  0
  7  8  2  0
  8  9  1  0
  9 10  1  0
 10 11  1  0
 11 12  1  0
 12 13  1  0
 13 14  1  0
  9 15  1  0
 14 15  1  0
  8 16  1  0
  5 17  1  0
 16 17  2  0
  2 18  1  0
 18 19  1  0
 19 20  2  0
 20 21  1  0
 21 22  2  0
 22 23  1  0
 19 24  1  0
 23 24  2  0
M  END
