pyridine_urea_6944
     RDKit          3D

 20 22  0  0  0  0  0  0  0  0999 V2000
    8.7550   -0.8280   20.5010 O   0  0  0  0  0  0  0  0  0  0  0  0
    8.1230   -0.9420   21.4500 C   0  0  0  0  0  0  0  0  0  0  0  0
    6.7780   -0.6700   21.3850 N   0  0  0  0  0  0  0  0  0  0  0  0
    6.3410   -0.0740   20.1650 C   0  0  0  0  0  0  0  0  0  0  0  0
    5.3780    0.7190   19.7190 C   0  0  0  0  0  0  0  0  0  0  0  0
    4.3720    1.5180   19.3820 C   0  0  0  0  0  0  0  0  0  0  0  0
    5.1100    1.2940   18.1570 C   0  0  0  0  0  0  0  0  0  0  0  0
    6.2780    0.5140   17.9330 N   0  0  0  0  0  0  0  0  0  0  0  0
    6.9100   -0.1910   18.9460 C   0  0  0  0  0  0  0  0  0  0  0  0
    8.7480   -1.3040   22.6110 N   0  0  0  0  0  0  0  0  0  0  0  0
   10.0720   -0.8350   22.7700 C   0  0  1  0  0  0  0  0  0  0  0  0
   10.6600   -0.8160   23.9860 C   0  0  0  0  0  0  0  0  0  0  0  0
   12.0730   -1.1720   24.1280 C   0  0  0  0  0  0  0  0  0  0  0  0
   12.8320   -1.5610   22.9630 C   0  0  0  0  0  0  0  0  0  0  0  0
   12.2140   -0.8790   21.9870 N   0  0  0  0  0  0  0  0  0  0  0  0
   12.1850    0.3550   22.4840 C   0  0  0  0  0  0  0  0  0  0  0  0
   12.9950    0.0300   23.6080 C   0  0  0  0  0  0  0  0  0  0  0  0
   12.8500   -1.3670   23.9730 C   0  0  0  0  0  0  0  0  0  0  0  0
   12.0280   -2.2590   23.1340 C   0  0  0  0  0  0  0  0  0  0  0  0
   11.1840   -1.6420   22.2150 C   0  0  1  0  0  0  0  0  0  0  0  0
  1  2  2  0
  2  3  1  0
  3  4  1  0
  4  5  2  0
  5  6  1  0
  6  7  2  0
  7  8  1  0
  4  9  1  0
  8  9  2  0
  2 10  1  0
 11 10  1  1
 11 12  1  0
 12 13  1  0
 13 14  1  0
 14 15  1  0
 15 16  1  0
 16 17  1  0
 17 18  1  0
 18 19  1  0
 11 20  1  0
 15 20  1  0
 20 19  1  1
M  END
