pyridine_urea_8842
     RDKit          3D

 20 21  0  0  0  0  0  0  0  0999 V2000
    9.4300   -6.0150   26.7410 C   0  0  0  0  0  0  0  0  0  0  0  0
    8.2700   -5.1090   26.3050 C   0  0  0  0  0  0  0  0  0  0  0  0
    8.5040   -4.2160   25.1580 C   0  0  0  0  0  0  0  0  0  0  0  0
    7.3450   -3.5710   25.0230 C   0  0  0  0  0  0  0  0  0  0  0  0
    7.0270   -2.5590   24.0390 N   0  0  0  0  0  0  0  0  0  0  0  0
    7.7660   -1.4010   24.0230 C   0  0  0  0  0  0  0  0  0  0  0  0
    8.6950   -1.7610   23.0510 C   0  0  0  0  0  0  0  0  0  0  0  0
    9.1880   -0.7190   22.3040 N   0  0  0  0  0  0  0  0  0  0  0  0
    8.4230    0.0960   21.4520 C   0  0  0  0  0  0  0  0  0  0  0  0
    8.8320    1.2100   21.1050 O   0  0  0  0  0  0  0  0  0  0  0  0
    7.2440   -0.4630   21.0910 N   0  0  0  0  0  0  0  0  0  0  0  0
    6.5550    0.1160   20.0810 C   0  0  0  0  0  0  0  0  0  0  0  0
    5.4080    0.8470   20.3740 C   0  0  0  0  0  0  0  0  0  0  0  0
    4.6960    1.4560   19.3370 C   0  0  0  0  0  0  0  0  0  0  0  0
    5.1740    1.3000   18.0350 C   0  0  0  0  0  0  0  0  0  0  0  0
    6.2660    0.6010   17.7170 N   0  0  0  0  0  0  0  0  0  0  0  0
    6.9220    0.0290   18.7450 C   0  0  0  0  0  0  0  0  0  0  0  0
    6.4600   -3.9750   25.9470 N   0  0  0  0  0  0  0  0  0  0  0  0
    5.1690   -3.4870   26.0630 C   0  0  0  0  0  0  0  0  0  0  0  0
    7.0680   -5.0170   26.8230 N   0  0  0  0  0  0  0  0  0  0  0  0
  1  2  1  0
  2  3  1  0
  3  4  2  0
  4  5  1  0
  5  6  1  0
  6  7  1  0
  7  8  1  0
  8  9  1  0
  9 10  2  0
  9 11  1  0
 11 12  1  0
 12 13  2  0
 13 14  1  0
 14 15  2  0
 15 16  1  0
 12 17  1  0
 16 17  2  0
  4 18  1  0
 18 19  1  0
  2 20  2  0
 18 20  1  0
M  END
