pyridine_urea_2722
     RDKit          3D

 23 24  0  0  0  0  0  0  0  0999 V2000
    6.7620   -4.4930   28.5120 C   0  0  0  0  0  0  0  0  0  0  0  0
    7.4970   -5.0530   27.2960 C   0  0  0  0  0  0  0  0  0  0  0  0
    8.6470   -5.9230   27.8760 C   0  0  0  0  0  0  0  0  0  0  0  0
    8.2430   -3.9780   26.6950 N   0  0  0  0  0  0  0  0  0  0  0  0
    9.3160   -4.4530   25.9630 C   0  0  0  0  0  0  0  0  0  0  0  0
    9.9350   -3.2000   25.3140 C   0  0  0  0  0  0  0  0  0  0  0  0
    9.2390   -2.3540   24.5420 N   0  0  0  0  0  0  0  0  0  0  0  0
    9.0110   -2.8220   23.3190 C   0  0  0  0  0  0  0  0  0  0  0  0
    8.3630   -4.1960   23.0930 C   0  0  0  0  0  0  0  0  0  0  0  0
   10.2920   -2.6610   22.4660 C   0  0  0  0  0  0  0  0  0  0  0  0
    8.0550   -1.8160   22.6700 C   0  0  0  0  0  0  0  0  0  0  0  0
    8.6870   -0.6130   22.5620 N   0  0  0  0  0  0  0  0  0  0  0  0
    8.3590    0.2670   21.5620 C   0  0  0  0  0  0  0  0  0  0  0  0
    9.0490    1.4740   21.1990 O   0  0  0  0  0  0  0  0  0  0  0  0
    7.2090   -0.2230   20.9760 N   0  0  0  0  0  0  0  0  0  0  0  0
    6.5120    0.3130   19.9310 C   0  0  0  0  0  0  0  0  0  0  0  0
    5.2580    1.1140   20.2070 C   0  0  0  0  0  0  0  0  0  0  0  0
    4.5960    1.6590   19.1240 C   0  0  0  0  0  0  0  0  0  0  0  0
    5.1240    1.4350   17.8580 C   0  0  0  0  0  0  0  0  0  0  0  0
    6.2280    0.7140   17.6040 N   0  0  0  0  0  0  0  0  0  0  0  0
    6.8920    0.1730   18.6340 C   0  0  0  0  0  0  0  0  0  0  0  0
    7.9810   -2.0240   25.2300 C   0  0  0  0  0  0  0  0  0  0  0  0
    7.4830   -3.0600   26.0140 C   0  0  0  0  0  0  0  0  0  0  0  0
  1  2  1  0
  2  3  1  0
  2  4  1  0
  4  5  1  0
  5  6  1  0
  6  7  1  0
  7  8  1  0
  8  9  1  0
  8 10  1  0
  8 11  1  0
 11 12  1  0
 12 13  1  0
 13 14  2  0
 13 15  1  0
 15 16  1  0
 16 17  2  0
 17 18  1  0
 18 19  2  0
 19 20  1  0
 16 21  1  0
 20 21  2  0
  7 22  1  0
  4 23  1  0
 22 23  1  0
M  END
