pyridine_urea_14946
     RDKit          3D

 19 20  0  0  0  0  0  0  0  0999 V2000
   12.8830    4.5840   21.6660 C   0  0  0  0  0  0  0  0  0  0  0  0
   11.9860    3.6180   22.9000 S   0  0  0  0  0  0  0  0  0  0  0  0
   12.8930    2.0140   23.0840 C   0  0  0  0  0  0  0  0  0  0  0  0
   12.0300    0.9060   22.8220 C   0  0  0  0  0  0  0  0  0  0  0  0
   10.6440    1.3620   23.0150 C   0  0  0  0  0  0  0  0  0  0  0  0
    9.5710    0.4130   22.7770 C   0  0  0  0  0  0  0  0  0  0  0  0
    9.9730   -0.9600   22.3390 C   0  0  0  0  0  0  0  0  0  0  0  0
    8.7880   -1.7100   22.0820 N   0  0  0  0  0  0  0  0  0  0  0  0
    8.0400   -0.7980   21.3420 C   0  0  0  0  0  0  0  0  0  0  0  0
    8.4880    0.3130   21.0710 O   0  0  0  0  0  0  0  0  0  0  0  0
    6.7270   -1.2120   20.9210 N   0  0  0  0  0  0  0  0  0  0  0  0
    6.1440   -0.3310   19.9850 C   0  0  0  0  0  0  0  0  0  0  0  0
    4.9760    0.4100   20.1920 C   0  0  0  0  0  0  0  0  0  0  0  0
    4.5310    1.2390   19.1750 C   0  0  0  0  0  0  0  0  0  0  0  0
    5.2390    1.3210   17.9880 C   0  0  0  0  0  0  0  0  0  0  0  0
    6.3620    0.6200   17.7650 N   0  0  0  0  0  0  0  0  0  0  0  0
    6.7830   -0.1820   18.7660 C   0  0  0  0  0  0  0  0  0  0  0  0
   11.4480   -1.3690   22.1870 C   0  0  0  0  0  0  0  0  0  0  0  0
   12.5220   -0.5030   22.4150 C   0  0  0  0  0  0  0  0  0  0  0  0
  1  2  1  0
  2  3  1  0
  3  4  1  0
  4  5  2  0
  5  6  1  0
  6  7  2  0
  7  8  1  0
  8  9  1  0
  9 10  2  0
  9 11  1  0
 11 12  1  0
 12 13  2  0
 13 14  1  0
 14 15  2  0
 15 16  1  0
 12 17  1  0
 16 17  2  0
  7 18  1  0
  4 19  1  0
 18 19  2  0
M  END
