pyridine_urea_15029
     RDKit          3D

 19 20  0  0  0  0  0  0  0  0999 V2000
   11.7830    4.0140   22.1130 C   0  0  0  0  0  0  0  0  0  0  0  0
   12.1470    3.2110   23.2300 O   0  0  0  0  0  0  0  0  0  0  0  0
   11.9960    1.8000   23.0550 C   0  0  0  0  0  0  0  0  0  0  0  0
   13.0630    0.8360   22.8710 C   0  0  0  0  0  0  0  0  0  0  0  0
   12.7190   -0.6180   22.7050 C   0  0  0  0  0  0  0  0  0  0  0  0
   11.3620   -1.4150   22.6920 C   0  0  0  0  0  0  0  0  0  0  0  0
    9.9080   -1.8520   22.7320 C   0  0  0  0  0  0  0  0  0  0  0  0
    9.2320   -1.4280   21.4970 N   0  0  0  0  0  0  0  0  0  0  0  0
    8.4390   -0.3090   21.3570 C   0  0  0  0  0  0  0  0  0  0  0  0
    8.8730    0.8270   21.4270 O   0  0  0  0  0  0  0  0  0  0  0  0
    7.0550   -0.6930   21.0870 N   0  0  0  0  0  0  0  0  0  0  0  0
    6.3590    0.0100   20.0870 C   0  0  0  0  0  0  0  0  0  0  0  0
    5.1750    0.7260   20.2810 C   0  0  0  0  0  0  0  0  0  0  0  0
    4.6140    1.3780   19.1940 C   0  0  0  0  0  0  0  0  0  0  0  0
    5.2280    1.3110   17.9570 C   0  0  0  0  0  0  0  0  0  0  0  0
    6.3610    0.6290   17.7460 N   0  0  0  0  0  0  0  0  0  0  0  0
    6.8930   -0.0020   18.8100 C   0  0  0  0  0  0  0  0  0  0  0  0
   10.5400   -0.2810   22.8780 N   0  0  0  0  0  0  0  0  0  0  0  0
   10.6650    1.1580   23.0450 C   0  0  0  0  0  0  0  0  0  0  0  0
  1  2  1  0
  2  3  1  0
  3  4  2  0
  4  5  1  0
  5  6  2  0
  6  7  1  0
  7  8  1  0
  8  9  1  0
  9 10  2  0
  9 11  1  0
 11 12  1  0
 12 13  2  0
 13 14  1  0
 14 15  2  0
 15 16  1  0
 12 17  1  0
 16 17  2  0
  6 18  1  0
  3 19  1  0
 18 19  2  0
M  END
