pyridine_urea_10773
     RDKit          3D

 20 21  0  0  0  0  0  0  0  0999 V2000
   13.8400   -3.8710   25.9770 C   0  0  0  0  0  0  0  0  0  0  0  0
   13.0000   -3.0340   25.1810 C   0  0  0  0  0  0  0  0  0  0  0  0
   13.5600   -1.8730   25.1290 C   0  0  0  0  0  0  0  0  0  0  0  0
   13.3980   -1.3900   23.9210 C   0  0  0  0  0  0  0  0  0  0  0  0
   12.2480   -1.2440   23.5340 N   0  0  0  0  0  0  0  0  0  0  0  0
   11.7100   -0.3570   24.4160 C   0  0  0  0  0  0  0  0  0  0  0  0
   10.3910    0.2900   24.2290 C   0  0  0  0  0  0  0  0  0  0  0  0
    9.9570    0.1260   22.7780 C   0  0  0  0  0  0  0  0  0  0  0  0
    8.5810   -0.1960   22.6850 N   0  0  0  0  0  0  0  0  0  0  0  0
    8.1030    0.3190   21.5340 C   0  0  0  0  0  0  0  0  0  0  0  0
    8.5540    1.3360   20.9940 O   0  0  0  0  0  0  0  0  0  0  0  0
    7.0550   -0.3810   21.0220 N   0  0  0  0  0  0  0  0  0  0  0  0
    6.3900    0.1830   19.9590 C   0  0  0  0  0  0  0  0  0  0  0  0
    5.2000    0.8720   20.1890 C   0  0  0  0  0  0  0  0  0  0  0  0
    4.5540    1.4670   19.1090 C   0  0  0  0  0  0  0  0  0  0  0  0
    5.1280    1.3420   17.8630 C   0  0  0  0  0  0  0  0  0  0  0  0
    6.2560    0.6760   17.6220 N   0  0  0  0  0  0  0  0  0  0  0  0
    6.8530    0.1160   18.6770 C   0  0  0  0  0  0  0  0  0  0  0  0
   10.7170   -0.8340   22.1550 C   0  0  0  0  0  0  0  0  0  0  0  0
   12.0720   -0.8070   22.2220 C   0  0  0  0  0  0  0  0  0  0  0  0
  1  2  2  3
  2  3  1  0
  3  4  1  0
  4  5  1  0
  5  6  1  0
  6  7  1  0
  7  8  1  0
  8  9  1  0
  9 10  1  0
 10 11  2  0
 10 12  1  0
 12 13  1  0
 13 14  2  0
 14 15  1  0
 15 16  2  0
 16 17  1  0
 13 18  1  0
 17 18  2  0
  8 19  1  0
  5 20  1  0
 19 20  1  0
M  END
