pyridine_urea_2029
     RDKit          3D

 24 26  0  0  0  0  0  0  0  0999 V2000
    9.3440    3.3060   24.5290 C   0  0  0  0  0  0  0  0  0  0  0  0
   10.2470    3.5470   23.4480 O   0  0  0  0  0  0  0  0  0  0  0  0
   11.1020    2.5080   23.1910 C   0  0  0  0  0  0  0  0  0  0  0  0
   12.5890    2.6540   23.0510 C   0  0  0  0  0  0  0  0  0  0  0  0
   13.3250    1.3140   22.7800 C   0  0  0  0  0  0  0  0  0  0  0  0
   12.6880   -0.0520   22.6370 C   0  0  0  0  0  0  0  0  0  0  0  0
   13.3680   -1.1920   22.3900 C   0  0  0  0  0  0  0  0  0  0  0  0
   12.8010   -2.4250   22.2570 C   0  0  0  0  0  0  0  0  0  0  0  0
   11.3820   -2.5060   22.3890 N   0  0  0  0  0  0  0  0  0  0  0  0
   10.7320   -1.3500   22.6340 C   0  0  0  0  0  0  0  0  0  0  0  0
    9.4010   -1.5330   22.7570 C   0  0  1  0  0  0  0  0  0  0  0  0
    9.0910   -2.0430   23.9770 C   0  0  0  0  0  0  0  0  0  0  0  0
    8.7880   -0.3240   22.7050 N   0  0  0  0  0  0  0  0  0  0  0  0
    8.2980    0.2160   21.5200 C   0  0  0  0  0  0  0  0  0  0  0  0
    8.8270    1.4310   20.9970 O   0  0  0  0  0  0  0  0  0  0  0  0
    7.3030   -0.5440   21.0140 N   0  0  0  0  0  0  0  0  0  0  0  0
    6.5610    0.0760   20.0780 C   0  0  0  0  0  0  0  0  0  0  0  0
    5.2910    0.8850   20.3200 C   0  0  0  0  0  0  0  0  0  0  0  0
    4.6530    1.4760   19.2460 C   0  0  0  0  0  0  0  0  0  0  0  0
    5.1520    1.3420   17.9560 C   0  0  0  0  0  0  0  0  0  0  0  0
    6.2600    0.6370   17.6570 N   0  0  0  0  0  0  0  0  0  0  0  0
    6.9680   -0.0080   18.7750 C   0  0  0  0  0  0  0  0  0  0  0  0
   11.3390   -0.1260   22.7610 C   0  0  0  0  0  0  0  0  0  0  0  0
   10.7820    1.2210   23.0270 C   0  0  0  0  0  0  0  0  0  0  0  0
  1  2  1  0
  2  3  1  0
  3  4  2  0
  4  5  1  0
  5  6  2  0
  6  7  1  0
  7  8  2  0
  8  9  1  0
  9 10  2  0
 10 11  1  0
 11 12  1  1
 11 13  1  0
 13 14  1  0
 14 15  2  0
 14 16  1  0
 16 17  1  0
 17 18  2  0
 18 19  1  0
 19 20  2  0
 20 21  1  0
 17 22  1  0
 21 22  2  0
  6 23  1  0
 10 23  1  0
  3 24  1  0
 23 24  2  0
M  END
