pyridine_urea_13239
     RDKit          3D

 16 16  0  0  0  0  0  0  0  0999 V2000
   13.1080   -0.6040   22.5570 C   0  0  0  0  0  0  0  0  0  0  0  0
   12.1480    0.2000   23.3840 C   0  0  0  0  0  0  0  0  0  0  0  0
   10.8040    0.3170   23.0000 C   0  0  0  0  0  0  0  0  0  0  0  0
   10.2170   -0.9280   22.8610 C   0  0  0  0  0  0  0  0  0  0  0  0
   10.6780   -1.7620   23.8430 C   0  0  0  0  0  0  0  0  0  0  0  0
   10.4400   -1.4480   21.6080 C   0  0  0  0  0  0  0  0  0  0  0  0
    8.8670   -0.9170   22.8700 N   0  0  0  0  0  0  0  0  0  0  0  0
    8.3800   -0.1640   21.7960 C   0  0  0  0  0  0  0  0  0  0  0  0
    8.9150    0.8700   21.4230 O   0  0  0  0  0  0  0  0  0  0  0  0
    7.1840   -0.7410   21.1980 N   0  0  0  0  0  0  0  0  0  0  0  0
    6.5550   -0.0950   20.1370 C   0  0  0  0  0  0  0  0  0  0  0  0
    5.3910    0.6430   20.3640 C   0  0  0  0  0  0  0  0  0  0  0  0
    4.7210    1.3150   19.3580 C   0  0  0  0  0  0  0  0  0  0  0  0
    5.2350    1.2490   18.0760 C   0  0  0  0  0  0  0  0  0  0  0  0
    6.3520    0.5500   17.7970 N   0  0  0  0  0  0  0  0  0  0  0  0
    6.9860   -0.1060   18.8130 C   0  0  0  0  0  0  0  0  0  0  0  0
  1  2  3  0
  2  3  1  0
  3  4  1  0
  4  5  1  0
  4  6  1  0
  4  7  1  0
  7  8  1  0
  8  9  2  0
  8 10  1  0
 10 11  1  0
 11 12  2  0
 12 13  1  0
 13 14  2  0
 14 15  1  0
 11 16  1  0
 15 16  2  0
M  END
