pyridine_urea_4505
     RDKit          3D

 23 24  0  0  0  0  0  0  0  0999 V2000
    4.5890   -2.5820   27.0670 C   0  0  0  0  0  0  0  0  0  0  0  0
    4.7420   -3.0860   25.7960 N   0  0  0  0  0  0  0  0  0  0  0  0
    4.5600   -2.3520   24.6120 C   0  0  0  0  0  0  0  0  0  0  0  0
    4.1680   -0.8950   24.7820 C   0  0  0  0  0  0  0  0  0  0  0  0
    3.1400   -0.5450   25.3400 O   0  0  0  0  0  0  0  0  0  0  0  0
    5.1210   -0.0590   24.2510 N   0  0  0  0  0  0  0  0  0  0  0  0
    6.1180   -0.4990   23.3440 C   0  0  0  0  0  0  0  0  0  0  0  0
    7.5550   -0.2650   23.8220 C   0  0  0  0  0  0  0  0  0  0  0  0
    8.4930   -0.4360   22.8260 N   0  0  0  0  0  0  0  0  0  0  0  0
    8.3520    0.1760   21.5810 C   0  0  0  0  0  0  0  0  0  0  0  0
    9.0200    1.1470   21.2020 O   0  0  0  0  0  0  0  0  0  0  0  0
    7.3430   -0.4570   20.9120 N   0  0  0  0  0  0  0  0  0  0  0  0
    6.5840    0.1460   19.9220 C   0  0  0  0  0  0  0  0  0  0  0  0
    5.4200    0.8470   20.2600 C   0  0  0  0  0  0  0  0  0  0  0  0
    4.6780    1.4630   19.2550 C   0  0  0  0  0  0  0  0  0  0  0  0
    5.1370    1.3450   17.9620 C   0  0  0  0  0  0  0  0  0  0  0  0
    6.2370    0.6720   17.6230 N   0  0  0  0  0  0  0  0  0  0  0  0
    6.9330    0.0890   18.6100 C   0  0  0  0  0  0  0  0  0  0  0  0
    4.7860   -3.1180   23.2890 C   0  0  0  0  0  0  0  0  0  0  0  0
    5.1330   -4.4200   24.0600 C   0  0  0  0  0  0  0  0  0  0  0  0
    5.5670   -5.9170   23.0130 Br  0  0  0  0  0  0  0  0  0  0  0  0
    5.1060   -4.4110   25.4730 C   0  0  0  0  0  0  0  0  0  0  0  0
    5.4710   -5.8330   26.6890 Br  0  0  0  0  0  0  0  0  0  0  0  0
  1  2  1  0
  2  3  1  0
  3  4  1  0
  4  5  2  0
  4  6  1  0
  6  7  1  0
  7  8  1  0
  8  9  1  0
  9 10  1  0
 10 11  2  0
 10 12  1  0
 12 13  1  0
 13 14  2  0
 14 15  1  0
 15 16  2  0
 16 17  1  0
 13 18  1  0
 17 18  2  0
  3 19  2  0
 19 20  1  0
 20 21  1  0
  2 22  1  0
 20 22  2  0
 22 23  1  0
M  END
