pyridine_urea_15092
     RDKit          3D

 18 20  0  0  0  0  0  0  0  0999 V2000
    8.9580    0.8090   21.3370 O   0  0  0  0  0  0  0  0  0  0  0  0
    8.5080   -0.3010   21.5890 C   0  0  0  0  0  0  0  0  0  0  0  0
    7.2820   -0.7710   21.1280 N   0  0  0  0  0  0  0  0  0  0  0  0
    6.5890   -0.0610   20.0740 C   0  0  0  0  0  0  0  0  0  0  0  0
    5.3370    0.7240   20.4610 C   0  0  0  0  0  0  0  0  0  0  0  0
    4.6020    1.4840   19.3550 C   0  0  0  0  0  0  0  0  0  0  0  0
    5.2160    1.3710   17.9600 C   0  0  0  0  0  0  0  0  0  0  0  0
    6.3700    0.6040   17.7710 N   0  0  0  0  0  0  0  0  0  0  0  0
    7.0170   -0.0750   18.7680 C   0  0  0  0  0  0  0  0  0  0  0  0
    9.1420   -1.2610   22.3710 N   0  0  0  0  0  0  0  0  0  0  0  0
   10.3610   -1.0910   23.0940 C   0  0  1  0  0  0  0  0  0  0  0  0
   11.5520   -1.2300   22.3990 C   0  0  0  0  0  0  0  0  0  0  0  0
   12.4400   -0.2960   22.8610 C   0  0  0  0  0  0  0  0  0  0  0  0
   11.7400    0.3860   23.8330 C   0  0  0  0  0  0  0  0  0  0  0  0
   10.3640    0.0260   23.9640 C   0  0  2  0  0  0  0  0  0  0  0  0
    9.9910   -0.3380   25.2660 C   0  0  0  0  0  0  0  0  0  0  0  0
    8.9160    0.3050   25.8650 C   0  0  0  0  0  0  0  0  0  0  0  0
    8.5890   -0.9590   25.9300 C   0  0  0  0  0  0  0  0  0  0  0  0
  1  2  2  0
  2  3  1  0
  3  4  1  0
  4  5  2  0
  5  6  1  0
  6  7  2  0
  7  8  1  0
  4  9  1  0
  8  9  2  0
  2 10  1  0
 11 10  1  6
 11 12  1  0
 12 13  1  0
 13 14  1  0
 11 15  1  0
 14 15  1  0
 15 16  1  1
 16 17  1  0
 16 18  1  0
 17 18  1  0
M  END
