pyridine_urea_4927
     RDKit          3D

 21 23  0  0  0  0  0  0  0  0999 V2000
    8.9590    1.3200   21.2160 O   0  0  0  0  0  0  0  0  0  0  0  0
    8.4950    0.1860   21.3830 C   0  0  0  0  0  0  0  0  0  0  0  0
    9.2160   -0.8550   21.8600 N   0  0  0  0  0  0  0  0  0  0  0  0
    8.5840   -2.1510   21.9070 C   0  0  0  0  0  0  0  0  0  0  0  0
    8.2090   -2.4280   23.3460 C   0  0  0  0  0  0  0  0  0  0  0  0
    8.8850   -1.6180   24.1810 N   0  0  0  0  0  0  0  0  0  0  0  0
    8.5680   -0.7250   25.1920 N   0  0  0  0  0  0  0  0  0  0  0  0
    9.7920   -0.2880   25.5800 C   0  0  0  0  0  0  0  0  0  0  0  0
   10.8010   -0.8560   24.8690 C   0  0  0  0  0  0  0  0  0  0  0  0
   12.1840   -0.7220   24.9160 C   0  0  0  0  0  0  0  0  0  0  0  0
   12.9500   -1.4730   24.0110 C   0  0  0  0  0  0  0  0  0  0  0  0
   12.3420   -2.3330   23.0840 C   0  0  0  0  0  0  0  0  0  0  0  0
   10.9620   -2.4340   23.0750 C   0  0  0  0  0  0  0  0  0  0  0  0
   10.2670   -1.6790   23.9880 C   0  0  0  0  0  0  0  0  0  0  0  0
    7.2160   -0.2120   21.1040 N   0  0  0  0  0  0  0  0  0  0  0  0
    6.5060    0.2980   19.9970 C   0  0  0  0  0  0  0  0  0  0  0  0
    5.2700    1.0850   20.2370 C   0  0  0  0  0  0  0  0  0  0  0  0
    4.5600    1.6210   19.1940 C   0  0  0  0  0  0  0  0  0  0  0  0
    5.1230    1.3490   17.9110 C   0  0  0  0  0  0  0  0  0  0  0  0
    6.2310    0.6340   17.6700 N   0  0  0  0  0  0  0  0  0  0  0  0
    6.9040    0.1170   18.7090 C   0  0  0  0  0  0  0  0  0  0  0  0
  1  2  2  0
  2  3  1  0
  3  4  1  0
  4  5  1  0
  5  6  1  0
  6  7  1  0
  7  8  2  0
  8  9  1  0
  9 10  1  0
 10 11  2  0
 11 12  1  0
 12 13  2  0
  6 14  1  0
  9 14  2  0
 13 14  1  0
  2 15  1  0
 15 16  1  0
 16 17  2  0
 17 18  1  0
 18 19  2  0
 19 20  1  0
 16 21  1  0
 20 21  2  0
M  END
