pyridine_urea_10726
     RDKit          3D

 20 22  0  0  0  0  0  0  0  0999 V2000
    9.0930    1.1910   21.3670 O   0  0  0  0  0  0  0  0  0  0  0  0
    8.4610    0.2150   21.8020 C   0  0  0  0  0  0  0  0  0  0  0  0
    8.7960   -0.4610   23.0840 N   0  0  0  0  0  0  0  0  0  0  0  0
    9.6120    0.1250   24.0940 C   0  0  0  0  0  0  0  0  0  0  0  0
   10.9000    0.4840   23.7190 C   0  0  2  0  0  0  0  0  0  0  0  0
   11.1230    0.2850   22.4090 N   0  0  0  0  0  0  0  0  0  0  0  0
   10.8860   -1.0630   21.7910 C   0  0  0  0  0  0  0  0  0  0  0  0
   12.0990   -1.7330   21.8470 C   0  0  0  0  0  0  0  0  0  0  0  0
   12.4700   -1.5800   23.2220 C   0  0  0  0  0  0  0  0  0  0  0  0
   13.6100   -2.7470   23.7510 S   0  0  0  0  0  0  0  0  0  0  0  0
   13.5250   -1.9970   25.2580 C   0  0  0  0  0  0  0  0  0  0  0  0
   12.6000   -0.8270   25.3310 C   0  0  0  0  0  0  0  0  0  0  0  0
   11.9660   -0.5650   24.1910 C   0  0  0  0  0  0  0  0  0  0  0  0
    7.3690   -0.3850   21.1880 N   0  0  0  0  0  0  0  0  0  0  0  0
    6.6300    0.1490   20.1100 C   0  0  0  0  0  0  0  0  0  0  0  0
    5.4830    0.8970   20.3930 C   0  0  0  0  0  0  0  0  0  0  0  0
    4.7470    1.4430   19.3540 C   0  0  0  0  0  0  0  0  0  0  0  0
    5.1750    1.2290   18.0640 C   0  0  0  0  0  0  0  0  0  0  0  0
    6.2620    0.5130   17.7570 N   0  0  0  0  0  0  0  0  0  0  0  0
    6.9660   -0.0140   18.7790 C   0  0  0  0  0  0  0  0  0  0  0  0
  1  2  2  0
  2  3  1  0
  3  4  1  0
  5  4  1  6
  5  6  1  0
  6  7  1  0
  7  8  1  0
  8  9  1  0
  9 10  1  0
 10 11  1  0
 11 12  2  0
  5 13  1  0
  9 13  2  0
 12 13  1  0
  2 14  1  0
 14 15  1  0
 15 16  2  0
 16 17  1  0
 17 18  2  0
 18 19  1  0
 15 20  1  0
 19 20  2  0
M  END
