pyridine_urea_9084
     RDKit          3D

 19 20  0  0  0  0  0  0  0  0999 V2000
    8.9530    0.7220   21.5240 O   0  0  0  0  0  0  0  0  0  0  0  0
    8.4090   -0.3680   21.4120 C   0  0  0  0  0  0  0  0  0  0  0  0
    9.0890   -1.5480   21.5480 N   0  0  0  0  0  0  0  0  0  0  0  0
    9.8460   -1.8540   22.7480 C   0  0  0  0  0  0  0  0  0  0  0  0
   11.2960   -1.4180   22.5540 C   0  0  0  0  0  0  0  0  0  0  0  0
   12.5820   -0.7270   22.5010 C   0  0  0  0  0  0  0  0  0  0  0  0
   13.4360   -1.4370   22.0020 O   0  0  0  0  0  0  0  0  0  0  0  0
   13.0780    0.5550   22.8790 C   0  0  0  0  0  0  0  0  0  0  0  0
   12.2220    1.4300   23.4330 C   0  0  0  0  0  0  0  0  0  0  0  0
   11.1040    0.7950   23.4780 C   0  0  0  0  0  0  0  0  0  0  0  0
   10.5570   -0.3580   23.1700 C   0  0  0  0  0  0  0  0  0  0  0  0
    9.2310   -0.4590   23.4840 F   0  0  0  0  0  0  0  0  0  0  0  0
    7.0910   -0.5900   21.1040 N   0  0  0  0  0  0  0  0  0  0  0  0
    6.4410    0.0480   20.0650 C   0  0  0  0  0  0  0  0  0  0  0  0
    5.2560    0.7500   20.3380 C   0  0  0  0  0  0  0  0  0  0  0  0
    4.5920    1.4130   19.2960 C   0  0  0  0  0  0  0  0  0  0  0  0
    5.1990    1.3310   17.9350 C   0  0  0  0  0  0  0  0  0  0  0  0
    6.3240    0.6490   17.7130 N   0  0  0  0  0  0  0  0  0  0  0  0
    6.9080    0.0300   18.7610 C   0  0  0  0  0  0  0  0  0  0  0  0
  1  2  2  0
  2  3  1  0
  3  4  1  0
  4  5  1  0
  5  6  2  0
  6  7  1  0
  6  8  1  0
  8  9  2  0
  9 10  1  0
  5 11  1  0
 10 11  2  0
 11 12  1  0
  2 13  1  0
 13 14  1  0
 14 15  2  0
 15 16  1  0
 16 17  2  0
 17 18  1  0
 14 19  1  0
 18 19  2  0
M  END
