pyridine_urea_14266
     RDKit          3D

 22 23  0  0  0  0  0  0  0  0999 V2000
   12.1010    3.9940   21.9790 C   0  0  0  0  0  0  0  0  0  0  0  0
   10.8540    3.2950   22.0810 O   0  0  0  0  0  0  0  0  0  0  0  0
   10.8530    2.2600   22.9640 C   0  0  0  0  0  0  0  0  0  0  0  0
   11.5140    2.3070   23.9700 O   0  0  0  0  0  0  0  0  0  0  0  0
   10.0320    1.1670   22.6350 C   0  0  0  0  0  0  0  0  0  0  0  0
   10.4220   -0.0590   23.2160 C   0  0  0  0  0  0  0  0  0  0  0  0
    9.3300   -0.6100   23.8410 C   0  0  0  0  0  0  0  0  0  0  0  0
    8.3320   -1.0840   22.9100 N   0  0  0  0  0  0  0  0  0  0  0  0
    8.0870   -0.3950   21.7160 C   0  0  0  0  0  0  0  0  0  0  0  0
    8.8310    0.6480   21.2540 O   0  0  0  0  0  0  0  0  0  0  0  0
    6.9830   -0.8720   21.0560 N   0  0  0  0  0  0  0  0  0  0  0  0
    6.3210   -0.1270   20.0670 C   0  0  0  0  0  0  0  0  0  0  0  0
    5.0220    0.6530   20.2470 C   0  0  0  0  0  0  0  0  0  0  0  0
    4.5260    1.3420   19.1540 C   0  0  0  0  0  0  0  0  0  0  0  0
    5.2200    1.3010   17.9420 C   0  0  0  0  0  0  0  0  0  0  0  0
    6.3680    0.6170   17.7530 N   0  0  0  0  0  0  0  0  0  0  0  0
    6.8640   -0.0600   18.8030 C   0  0  0  0  0  0  0  0  0  0  0  0
   11.6480    0.0880   24.1920 C   0  0  0  0  0  0  0  0  0  0  0  0
   12.5550    0.3870   23.1860 C   0  0  0  0  0  0  0  0  0  0  0  0
   13.0220   -0.7270   22.5360 C   0  0  0  0  0  0  0  0  0  0  0  0
   12.0110   -1.5380   22.0990 C   0  0  0  0  0  0  0  0  0  0  0  0
   10.7350   -0.9960   22.2070 C   0  0  0  0  0  0  0  0  0  0  0  0
  1  2  1  0
  2  3  1  0
  3  4  2  0
  3  5  1  0
  6  5  1  0
  6  7  1  0
  7  8  1  0
  8  9  1  0
  9 10  2  0
  9 11  1  0
 11 12  1  0
 12 13  2  0
 13 14  1  0
 14 15  2  0
 15 16  1  0
 12 17  1  0
 16 17  2  0
  6 18  1  0
 18 19  1  0
 19 20  1  0
 20 21  1  0
  6 22  1  0
 21 22  1  0
M  END
