pyridine_urea_8437
     RDKit          3D

 22 24  0  0  0  0  0  0  0  0999 V2000
    8.8540    1.0650   21.5230 O   0  0  0  0  0  0  0  0  0  0  0  0
    8.6040   -0.1240   21.4210 C   0  0  0  0  0  0  0  0  0  0  0  0
    9.5100   -1.1330   21.6840 N   0  0  0  0  0  0  0  0  0  0  0  0
   10.3440   -1.2320   22.8340 C   0  0  0  0  0  0  0  0  0  0  0  0
   11.7560   -1.1460   22.6870 C   0  0  0  0  0  0  0  0  0  0  0  0
   12.5780   -2.0830   22.3460 C   0  0  0  0  0  0  0  0  0  0  0  0
   12.8150   -0.7370   22.6780 C   0  0  0  0  0  0  0  0  0  0  0  0
   11.4630    0.1200   23.0620 C   0  0  0  0  0  0  0  0  0  0  0  0
   10.7830    1.2870   23.4400 C   0  0  0  0  0  0  0  0  0  0  0  0
   11.2450    2.6290   23.1930 N   0  0  0  0  0  0  0  0  0  0  0  0
   10.2670    3.4980   23.6930 N   0  0  0  0  0  0  0  0  0  0  0  0
    9.2650    2.6910   24.2220 C   0  0  0  0  0  0  0  0  0  0  0  0
    9.5980    1.3960   24.0620 N   0  0  0  0  0  0  0  0  0  0  0  0
   12.3190    1.1300   23.2250 C   0  0  0  0  0  0  0  0  0  0  0  0
   12.7280   -0.0660   22.8590 C   0  0  0  0  0  0  0  0  0  0  0  0
    7.3780   -0.6040   20.9960 N   0  0  0  0  0  0  0  0  0  0  0  0
    6.6380   -0.0090   20.0570 C   0  0  0  0  0  0  0  0  0  0  0  0
    5.4990    0.7030   20.4650 C   0  0  0  0  0  0  0  0  0  0  0  0
    4.7560    1.3310   19.4570 C   0  0  0  0  0  0  0  0  0  0  0  0
    5.1660    1.2220   18.1370 C   0  0  0  0  0  0  0  0  0  0  0  0
    6.2520    0.5360   17.7200 N   0  0  0  0  0  0  0  0  0  0  0  0
    6.9470   -0.0570   18.7090 C   0  0  0  0  0  0  0  0  0  0  0  0
  1  2  2  0
  2  3  1  0
  3  4  1  0
  4  5  1  0
  5  6  2  0
  6  7  1  0
  7  8  2  0
  8  9  1  0
  9 10  2  0
 10 11  1  0
 11 12  2  0
  9 13  1  0
 12 13  1  0
  8 14  1  0
  5 15  1  0
 14 15  2  0
  2 16  1  0
 16 17  1  0
 17 18  2  0
 18 19  1  0
 19 20  2  0
 20 21  1  0
 17 22  1  0
 21 22  2  0
M  END
