pyridine_urea_1827
     RDKit          3D

 17 18  0  0  0  0  0  0  0  0999 V2000
    8.8930    1.0670   21.2520 O   0  0  0  0  0  0  0  0  0  0  0  0
    8.3220    0.0170   21.5960 C   0  0  0  0  0  0  0  0  0  0  0  0
    8.6650   -0.7970   22.6440 N   0  0  0  0  0  0  0  0  0  0  0  0
    9.7510   -0.6330   23.5020 C   0  0  0  0  0  0  0  0  0  0  0  0
   10.9290   -0.2980   22.8810 C   0  0  1  0  0  0  0  0  0  0  0  0
   11.6600    0.7230   23.4590 C   0  0  0  0  0  0  0  0  0  0  0  0
   12.9640    0.3320   23.3980 C   0  0  0  0  0  0  0  0  0  0  0  0
   13.0760   -0.9010   22.7820 C   0  0  0  0  0  0  0  0  0  0  0  0
   11.7970   -1.3750   22.5950 C   0  0  2  0  0  0  0  0  0  0  0  0
   11.7290   -1.7790   21.2430 O   0  0  0  0  0  0  0  0  0  0  0  0
    7.2150   -0.5320   21.0020 N   0  0  0  0  0  0  0  0  0  0  0  0
    6.4150    0.1550   19.9970 C   0  0  0  0  0  0  0  0  0  0  0  0
    5.2440    0.8520   20.2330 C   0  0  0  0  0  0  0  0  0  0  0  0
    4.5910    1.4760   19.1690 C   0  0  0  0  0  0  0  0  0  0  0  0
    5.1520    1.3680   17.9070 C   0  0  0  0  0  0  0  0  0  0  0  0
    6.2810    0.6890   17.6600 N   0  0  0  0  0  0  0  0  0  0  0  0
    6.8780    0.1050   18.7040 C   0  0  0  0  0  0  0  0  0  0  0  0
  1  2  2  0
  2  3  1  0
  3  4  1  0
  5  4  1  1
  5  6  1  0
  6  7  1  0
  7  8  1  0
  5  9  1  0
  8  9  1  0
  9 10  1  6
  2 11  1  0
 11 12  1  0
 12 13  2  0
 13 14  1  0
 14 15  2  0
 15 16  1  0
 12 17  1  0
 16 17  2  0
M  END
