pyridine_urea_8752
     RDKit          3D

 21 22  0  0  0  0  0  0  0  0999 V2000
   12.3960    1.3230   22.8340 C   0  0  0  0  0  0  0  0  0  0  0  0
   13.5860    0.4260   22.7550 C   0  0  0  0  0  0  0  0  0  0  0  0
   13.4330   -1.2600   22.0410 S   0  0  0  0  0  0  0  0  0  0  0  0
   13.9630   -2.2670   22.9290 O   0  0  0  0  0  0  0  0  0  0  0  0
   13.5170   -1.3720   20.6090 O   0  0  0  0  0  0  0  0  0  0  0  0
   11.9040   -1.2260   22.6490 C   0  0  0  0  0  0  0  0  0  0  0  0
   12.0250   -1.3310   24.0030 C   0  0  0  0  0  0  0  0  0  0  0  0
   10.9160   -1.3340   24.7250 C   0  0  0  0  0  0  0  0  0  0  0  0
    9.5810   -1.2200   24.0940 C   0  0  0  0  0  0  0  0  0  0  0  0
    9.5290   -1.1090   22.7620 C   0  0  0  0  0  0  0  0  0  0  0  0
    8.2130   -1.0030   22.3440 N   0  0  0  0  0  0  0  0  0  0  0  0
    7.9560   -0.1090   21.3830 C   0  0  0  0  0  0  0  0  0  0  0  0
    8.7220    1.0900   21.1150 O   0  0  0  0  0  0  0  0  0  0  0  0
    6.8500   -0.5650   20.7600 N   0  0  0  0  0  0  0  0  0  0  0  0
    6.1880    0.1590   19.8190 C   0  0  0  0  0  0  0  0  0  0  0  0
    4.9990    0.8230   20.0010 C   0  0  0  0  0  0  0  0  0  0  0  0
    4.4470    1.5380   18.9540 C   0  0  0  0  0  0  0  0  0  0  0  0
    5.1420    1.5460   17.7480 C   0  0  0  0  0  0  0  0  0  0  0  0
    6.3030    0.8940   17.5550 N   0  0  0  0  0  0  0  0  0  0  0  0
    6.7910    0.2190   18.5950 C   0  0  0  0  0  0  0  0  0  0  0  0
   10.7310   -1.1120   21.9750 C   0  0  0  0  0  0  0  0  0  0  0  0
  1  2  1  0
  3  2  1  0
  3  4  2  0
  3  5  2  0
  3  6  1  0
  6  7  2  0
  7  8  1  0
  8  9  2  0
  9 10  1  0
 10 11  1  0
 11 12  1  0
 12 13  2  0
 12 14  1  0
 14 15  1  0
 15 16  2  0
 16 17  1  0
 17 18  2  0
 18 19  1  0
 15 20  1  0
 19 20  2  0
  6 21  1  0
 10 21  2  0
M  END
