pyridine_urea_5748
     RDKit          3D

 18 20  0  0  0  0  0  0  0  0999 V2000
    8.6440    1.1110   21.3540 O   0  0  0  0  0  0  0  0  0  0  0  0
    8.2510   -0.0460   21.3010 C   0  0  0  0  0  0  0  0  0  0  0  0
    6.8620   -0.3950   21.1390 N   0  0  0  0  0  0  0  0  0  0  0  0
    6.2710    0.1970   20.0530 C   0  0  0  0  0  0  0  0  0  0  0  0
    5.0840    0.9040   20.2050 C   0  0  0  0  0  0  0  0  0  0  0  0
    4.5320    1.5060   19.0810 C   0  0  0  0  0  0  0  0  0  0  0  0
    5.1870    1.3780   17.8560 C   0  0  0  0  0  0  0  0  0  0  0  0
    6.3270    0.6910   17.7000 N   0  0  0  0  0  0  0  0  0  0  0  0
    6.8470    0.1120   18.8010 C   0  0  0  0  0  0  0  0  0  0  0  0
    9.0100   -1.1550   21.3580 N   0  0  0  0  0  0  0  0  0  0  0  0
    9.8520   -1.2910   22.4930 C   0  0  1  0  0  0  0  0  0  0  0  0
   11.0710   -1.9920   22.1720 C   0  0  0  0  0  0  0  0  0  0  0  0
   11.6430   -0.9890   22.8260 C   0  0  1  0  0  0  0  0  0  0  0  0
   12.1850   -1.3280   24.0010 C   0  0  0  0  0  0  0  0  0  0  0  0
   13.0270   -0.3640   24.2160 C   0  0  0  0  0  0  0  0  0  0  0  0
   13.8260   -0.3470   23.3640 O   0  0  0  0  0  0  0  0  0  0  0  0
   13.0030   -0.3830   22.3260 C   0  0  0  0  0  0  0  0  0  0  0  0
   10.4800   -0.1380   23.0060 C   0  0  0  0  0  0  0  0  0  0  0  0
  1  2  2  0
  2  3  1  0
  3  4  1  0
  4  5  2  0
  5  6  1  0
  6  7  2  0
  7  8  1  0
  4  9  1  0
  8  9  2  0
  2 10  1  0
 11 10  1  6
 11 12  1  0
 13 12  1  6
 13 14  1  0
 14 15  1  0
 15 16  1  0
 13 17  1  0
 16 17  1  0
 11 18  1  0
 13 18  1  0
M  END
