pyridine_urea_1081
     RDKit          3D

 21 23  0  0  0  0  0  0  0  0999 V2000
   12.0990    2.0070   23.2430 C   0  0  0  0  0  0  0  0  0  0  0  0
   11.5470    0.6820   23.6640 C   0  0  2  0  0  0  0  0  0  0  0  0
   12.2980   -0.4280   23.7190 C   0  0  0  0  0  0  0  0  0  0  0  0
   12.6340   -0.9250   24.9670 C   0  0  0  0  0  0  0  0  0  0  0  0
   13.3230   -2.0620   25.1160 C   0  0  0  0  0  0  0  0  0  0  0  0
   13.7180   -2.7970   23.9450 C   0  0  0  0  0  0  0  0  0  0  0  0
   13.3040   -2.1480   22.6600 C   0  0  0  0  0  0  0  0  0  0  0  0
   12.5380   -0.8630   22.3870 C   0  0  0  0  0  0  0  0  0  0  0  0
   10.7530    0.1390   22.5460 C   0  0  0  0  0  0  0  0  0  0  0  0
    9.7800   -0.4130   23.2310 C   0  0  2  0  0  0  0  0  0  0  0  0
    8.5290   -0.2530   22.8220 N   0  0  0  0  0  0  0  0  0  0  0  0
    8.2030    0.2770   21.6030 C   0  0  0  0  0  0  0  0  0  0  0  0
    8.7890    1.2680   21.1400 O   0  0  0  0  0  0  0  0  0  0  0  0
    7.1780   -0.4110   21.0180 N   0  0  0  0  0  0  0  0  0  0  0  0
    6.4110    0.1870   20.0310 C   0  0  0  0  0  0  0  0  0  0  0  0
    5.2290    0.8700   20.2440 C   0  0  0  0  0  0  0  0  0  0  0  0
    4.5980    1.4350   19.1530 C   0  0  0  0  0  0  0  0  0  0  0  0
    5.1400    1.3170   17.8900 C   0  0  0  0  0  0  0  0  0  0  0  0
    6.2780    0.6470   17.6650 N   0  0  0  0  0  0  0  0  0  0  0  0
    6.8780    0.1030   18.7350 C   0  0  0  0  0  0  0  0  0  0  0  0
   10.2640    0.5600   24.3380 C   0  0  0  0  0  0  0  0  0  0  0  0
  2  1  1  6
  2  3  1  0
  3  4  2  0
  4  5  1  0
  5  6  2  0
  6  7  1  0
  3  8  1  0
  7  8  2  0
  2  9  1  0
  9 10  1  0
 10 11  1  6
 11 12  1  0
 12 13  2  0
 12 14  1  0
 14 15  1  0
 15 16  2  0
 16 17  1  0
 17 18  2  0
 18 19  1  0
 15 20  1  0
 19 20  2  0
  2 21  1  0
 10 21  1  0
M  END
