pyridine_urea_6691
     RDKit          3D

 22 23  0  0  0  0  0  0  0  0999 V2000
   12.5570   -2.6650   24.3500 C   0  0  0  0  0  0  0  0  0  0  0  0
   11.2230   -2.9990   23.9350 O   0  0  0  0  0  0  0  0  0  0  0  0
   10.6800   -2.2270   22.9250 C   0  0  0  0  0  0  0  0  0  0  0  0
   10.3670   -2.6710   21.8270 O   0  0  0  0  0  0  0  0  0  0  0  0
   10.4930   -0.7810   23.3700 C   0  0  2  0  0  0  0  0  0  0  0  0
    9.1080   -0.2650   22.9060 N   0  0  0  0  0  0  0  0  0  0  0  0
    8.6980    0.2980   21.6910 C   0  0  0  0  0  0  0  0  0  0  0  0
    9.2020    1.3280   21.2440 O   0  0  0  0  0  0  0  0  0  0  0  0
    7.6410   -0.3980   21.1110 N   0  0  0  0  0  0  0  0  0  0  0  0
    6.8020    0.1320   20.1040 C   0  0  0  0  0  0  0  0  0  0  0  0
    5.6880    0.8840   20.4700 C   0  0  0  0  0  0  0  0  0  0  0  0
    4.8790    1.4110   19.4740 C   0  0  0  0  0  0  0  0  0  0  0  0
    5.1830    1.1900   18.1450 C   0  0  0  0  0  0  0  0  0  0  0  0
    6.2370    0.4690   17.7590 N   0  0  0  0  0  0  0  0  0  0  0  0
    7.0220   -0.0470   18.7420 C   0  0  0  0  0  0  0  0  0  0  0  0
   11.7600    0.1650   23.1550 C   0  0  0  0  0  0  0  0  0  0  0  0
   11.1710    1.3770   23.8380 C   0  0  0  0  0  0  0  0  0  0  0  0
   12.3010    1.3440   23.3500 C   0  0  0  0  0  0  0  0  0  0  0  0
   11.8620   -0.0960   23.0190 C   0  0  0  0  0  0  0  0  0  0  0  0
   13.1540    0.0350   22.5290 O   0  0  0  0  0  0  0  0  0  0  0  0
   12.2760   -1.1600   22.4640 C   0  0  0  0  0  0  0  0  0  0  0  0
   13.1480   -0.2910   22.4050 C   0  0  0  0  0  0  0  0  0  0  0  0
  1  2  1  0
  2  3  1  0
  3  4  2  0
  3  5  1  0
  5  6  1  6
  6  7  1  0
  7  8  2  0
  7  9  1  0
  9 10  1  0
 10 11  2  0
 11 12  1  0
 12 13  2  0
 13 14  1  0
 10 15  1  0
 14 15  2  0
  5 16  1  0
 16 17  2  0
 17 18  1  0
 18 19  2  0
 19 20  1  0
 19 21  1  0
 16 22  1  0
 21 22  2  0
M  END
