pyridine_urea_9974
     RDKit          3D

 24 25  0  0  0  0  0  0  0  0999 V2000
    9.2300    0.8120   23.8680 C   0  0  0  0  0  0  0  0  0  0  0  0
   10.5170    0.4620   24.2720 N   0  0  0  0  0  0  0  0  0  0  0  0
   11.7520    0.7760   23.6280 C   0  0  0  0  0  0  0  0  0  0  0  0
   12.8170   -0.0980   23.4960 C   0  0  0  0  0  0  0  0  0  0  0  0
   12.8290   -1.0850   22.5080 C   0  0  0  0  0  0  0  0  0  0  0  0
   11.6240   -1.6720   22.1440 C   0  0  0  0  0  0  0  0  0  0  0  0
   10.4270   -1.0220   22.4560 C   0  0  0  0  0  0  0  0  0  0  0  0
    9.4080   -1.1660   21.5580 N   0  0  0  0  0  0  0  0  0  0  0  0
    8.4940   -0.1710   21.3070 C   0  0  0  0  0  0  0  0  0  0  0  0
    8.7840    1.0170   21.3010 O   0  0  0  0  0  0  0  0  0  0  0  0
    7.2290   -0.6290   21.0240 N   0  0  0  0  0  0  0  0  0  0  0  0
    6.5060    0.0060   20.0170 C   0  0  0  0  0  0  0  0  0  0  0  0
    5.3360    0.7070   20.3160 C   0  0  0  0  0  0  0  0  0  0  0  0
    4.6410    1.3530   19.3110 C   0  0  0  0  0  0  0  0  0  0  0  0
    5.1160    1.2970   18.0110 C   0  0  0  0  0  0  0  0  0  0  0  0
    6.2320    0.6230   17.6940 N   0  0  0  0  0  0  0  0  0  0  0  0
    6.8960   -0.0020   18.6950 C   0  0  0  0  0  0  0  0  0  0  0  0
   10.5040   -0.6160   25.1120 C   0  0  0  0  0  0  0  0  0  0  0  0
    9.2080   -0.6970   25.6250 C   0  0  0  0  0  0  0  0  0  0  0  0
    8.8780    0.0360   26.7630 C   0  0  0  0  0  0  0  0  0  0  0  0
    7.6180    0.0070   27.3310 C   0  0  0  0  0  0  0  0  0  0  0  0
    6.6210   -0.7790   26.7640 C   0  0  0  0  0  0  0  0  0  0  0  0
    6.9130   -1.5240   25.6280 C   0  0  0  0  0  0  0  0  0  0  0  0
    8.1960   -1.4910   25.0510 C   0  0  0  0  0  0  0  0  0  0  0  0
  1  2  1  0
  2  3  1  0
  3  4  1  0
  4  5  1  0
  5  6  1  0
  6  7  1  0
  7  8  1  0
  8  9  1  0
  9 10  2  0
  9 11  1  0
 11 12  1  0
 12 13  2  0
 13 14  1  0
 14 15  2  0
 15 16  1  0
 12 17  1  0
 16 17  2  0
  2 18  1  0
 18 19  1  0
 19 20  2  0
 20 21  1  0
 21 22  2  0
 22 23  1  0
 19 24  1  0
 23 24  2  0
M  END
