pyridine_urea_7981
     RDKit          3D

 25 27  0  0  0  0  0  0  0  0999 V2000
   13.2540    6.5520   22.5870 C   0  0  0  0  0  0  0  0  0  0  0  0
   12.1460    5.5650   22.8170 C   0  0  0  0  0  0  0  0  0  0  0  0
   11.3820    5.7320   23.9700 C   0  0  0  0  0  0  0  0  0  0  0  0
   10.3130    4.9110   24.3520 C   0  0  0  0  0  0  0  0  0  0  0  0
   10.0490    3.8680   23.4640 C   0  0  0  0  0  0  0  0  0  0  0  0
    9.0530    2.9210   23.6460 C   0  0  0  0  0  0  0  0  0  0  0  0
   10.3700    2.3940   23.1710 N   0  0  0  0  0  0  0  0  0  0  0  0
   10.4800    1.0270   22.9940 O   0  0  0  0  0  0  0  0  0  0  0  0
    9.2660    0.6760   23.3450 C   0  0  0  0  0  0  0  0  0  0  0  0
    8.8880   -0.8110   23.3530 C   0  0  1  0  0  0  0  0  0  0  0  0
    7.6900   -1.0700   24.0390 C   0  0  0  0  0  0  0  0  0  0  0  0
    8.8320   -1.2160   22.0700 N   0  0  0  0  0  0  0  0  0  0  0  0
    8.0880   -0.3710   21.2590 C   0  0  0  0  0  0  0  0  0  0  0  0
    8.4170    0.7600   20.9340 O   0  0  0  0  0  0  0  0  0  0  0  0
    6.9230   -0.9030   20.8640 N   0  0  0  0  0  0  0  0  0  0  0  0
    6.2920   -0.1400   19.9610 C   0  0  0  0  0  0  0  0  0  0  0  0
    5.1070    0.5620   20.1820 C   0  0  0  0  0  0  0  0  0  0  0  0
    4.5530    1.3330   19.1560 C   0  0  0  0  0  0  0  0  0  0  0  0
    5.2020    1.3810   17.9350 C   0  0  0  0  0  0  0  0  0  0  0  0
    6.3410    0.7190   17.6830 N   0  0  0  0  0  0  0  0  0  0  0  0
    6.8840   -0.0520   18.7170 C   0  0  0  0  0  0  0  0  0  0  0  0
    8.3970    1.6590   23.6990 N   0  0  0  0  0  0  0  0  0  0  0  0
   10.7950    3.7010   22.3280 C   0  0  0  0  0  0  0  0  0  0  0  0
   11.8340    4.5350   22.0050 C   0  0  0  0  0  0  0  0  0  0  0  0
   12.5380    4.3460   20.8990 F   0  0  0  0  0  0  0  0  0  0  0  0
  1  2  1  0
  2  3  2  0
  3  4  1  0
  4  5  2  0
  5  6  1  0
  6  7  2  0
  7  8  1  0
  8  9  1  0
  9 10  1  0
 10 11  1  6
 10 12  1  0
 12 13  1  0
 13 14  2  0
 13 15  1  0
 15 16  1  0
 16 17  2  0
 17 18  1  0
 18 19  2  0
 19 20  1  0
 16 21  1  0
 20 21  2  0
  6 22  1  0
  9 22  2  0
  5 23  1  0
  2 24  1  0
 23 24  2  0
 24 25  1  0
M  END
