pyridine_urea_9198
     RDKit          3D

 18 19  0  0  0  0  0  0  0  0999 V2000
   13.7310   -2.9010   24.8380 C   0  0  0  0  0  0  0  0  0  0  0  0
   12.8840   -1.9280   24.1580 C   0  0  0  0  0  0  0  0  0  0  0  0
   13.4040   -1.0240   23.1420 N   0  0  0  0  0  0  0  0  0  0  0  0
   12.3160   -0.3160   22.7780 N   0  0  0  0  0  0  0  0  0  0  0  0
   11.0720   -0.6360   23.4360 C   0  0  0  0  0  0  0  0  0  0  0  0
    9.8170   -0.1450   23.3320 C   0  0  1  0  0  0  0  0  0  0  0  0
    9.8550    1.2230   23.2050 C   0  0  0  0  0  0  0  0  0  0  0  0
    9.1160   -0.7630   22.3260 N   0  0  0  0  0  0  0  0  0  0  0  0
    8.4900    0.1710   21.4980 C   0  0  0  0  0  0  0  0  0  0  0  0
    8.9870    1.2630   21.1720 O   0  0  0  0  0  0  0  0  0  0  0  0
    7.2030   -0.3310   21.0780 N   0  0  0  0  0  0  0  0  0  0  0  0
    6.5420    0.1870   20.0420 C   0  0  0  0  0  0  0  0  0  0  0  0
    5.2710    1.0150   20.3030 C   0  0  0  0  0  0  0  0  0  0  0  0
    4.6170    1.5660   19.2180 C   0  0  0  0  0  0  0  0  0  0  0  0
    5.1100    1.3670   17.9320 C   0  0  0  0  0  0  0  0  0  0  0  0
    6.2260    0.6330   17.6330 N   0  0  0  0  0  0  0  0  0  0  0  0
    6.9340    0.0400   18.7330 C   0  0  0  0  0  0  0  0  0  0  0  0
   11.1650   -1.8600   24.5800 S   0  0  0  0  0  0  0  0  0  0  0  0
  1  2  1  0
  2  3  2  0
  3  4  1  0
  4  5  2  0
  5  6  1  0
  6  7  1  6
  6  8  1  0
  8  9  1  0
  9 10  2  0
  9 11  1  0
 11 12  1  0
 12 13  2  0
 13 14  1  0
 14 15  2  0
 15 16  1  0
 12 17  1  0
 16 17  2  0
  2 18  1  0
  5 18  1  0
M  END
