pyridine_urea_9222
     RDKit          3D

 18 18  0  0  0  0  0  0  0  0999 V2000
   13.1540   -1.6060   24.4280 C   0  0  0  0  0  0  0  0  0  0  0  0
   12.7950   -0.8360   23.3440 N   0  0  0  0  0  0  0  0  0  0  0  0
   13.0300    0.5270   23.0930 C   0  0  0  0  0  0  0  0  0  0  0  0
   12.4480   -1.6240   22.3030 C   0  0  0  0  0  0  0  0  0  0  0  0
   11.0820   -1.7190   22.0210 C   0  0  0  0  0  0  0  0  0  0  0  0
   10.1510   -1.1240   22.8540 C   0  0  0  0  0  0  0  0  0  0  0  0
   10.4280    0.2030   23.1690 C   0  0  0  0  0  0  0  0  0  0  0  0
   10.3240   -1.9290   24.1660 C   0  0  0  0  0  0  0  0  0  0  0  0
    8.8520   -1.3570   22.5360 N   0  0  0  0  0  0  0  0  0  0  0  0
    8.3500   -0.3490   21.5670 C   0  0  0  0  0  0  0  0  0  0  0  0
    8.8610    0.7370   21.3220 O   0  0  0  0  0  0  0  0  0  0  0  0
    7.2040   -0.8220   21.0080 N   0  0  0  0  0  0  0  0  0  0  0  0
    6.5160   -0.0820   20.0900 C   0  0  0  0  0  0  0  0  0  0  0  0
    5.3590    0.6660   20.3490 C   0  0  0  0  0  0  0  0  0  0  0  0
    4.7460    1.3770   19.3180 C   0  0  0  0  0  0  0  0  0  0  0  0
    5.2990    1.3290   18.0510 C   0  0  0  0  0  0  0  0  0  0  0  0
    6.4080    0.6180   17.7750 N   0  0  0  0  0  0  0  0  0  0  0  0
    6.9810   -0.0650   18.7890 C   0  0  0  0  0  0  0  0  0  0  0  0
  1  2  1  0
  2  3  1  0
  2  4  1  0
  4  5  1  0
  5  6  1  0
  6  7  1  0
  6  8  1  0
  6  9  1  0
  9 10  1  0
 10 11  2  0
 10 12  1  0
 12 13  1  0
 13 14  2  0
 14 15  1  0
 15 16  2  0
 16 17  1  0
 13 18  1  0
 17 18  2  0
M  END
