pyridine_urea_9282
     RDKit          3D

 18 18  0  0  0  0  0  0  0  0999 V2000
   12.2520   -0.0930   24.6900 C   0  0  0  0  0  0  0  0  0  0  0  0
   13.0730   -0.9600   23.8230 C   0  0  0  0  0  0  0  0  0  0  0  0
   13.4720   -2.2450   24.2430 C   0  0  0  0  0  0  0  0  0  0  0  0
   12.3370   -1.0980   22.5140 C   0  0  0  0  0  0  0  0  0  0  0  0
   11.0350   -1.4990   22.7130 C   0  0  0  0  0  0  0  0  0  0  0  0
   10.4760   -2.2460   21.7050 C   0  0  0  0  0  0  0  0  0  0  0  0
   11.0500   -2.4870   23.8930 C   0  0  0  0  0  0  0  0  0  0  0  0
   10.2330   -0.4600   23.1650 C   0  0  0  0  0  0  0  0  0  0  0  0
    8.9030   -0.5080   22.6030 N   0  0  0  0  0  0  0  0  0  0  0  0
    8.3730    0.1520   21.5470 C   0  0  0  0  0  0  0  0  0  0  0  0
    8.9150    1.2200   21.2100 O   0  0  0  0  0  0  0  0  0  0  0  0
    7.2820   -0.4240   20.9800 N   0  0  0  0  0  0  0  0  0  0  0  0
    6.4890    0.1900   20.0160 C   0  0  0  0  0  0  0  0  0  0  0  0
    5.3150    0.9000   20.2640 C   0  0  0  0  0  0  0  0  0  0  0  0
    4.6380    1.4840   19.2030 C   0  0  0  0  0  0  0  0  0  0  0  0
    5.1560    1.3320   17.9390 C   0  0  0  0  0  0  0  0  0  0  0  0
    6.2730    0.6470   17.6710 N   0  0  0  0  0  0  0  0  0  0  0  0
    6.9080    0.0950   18.7100 C   0  0  0  0  0  0  0  0  0  0  0  0
  1  2  1  0
  2  3  1  0
  2  4  1  0
  5  4  1  0
  5  6  1  0
  5  7  1  0
  5  8  1  0
  8  9  1  0
  9 10  1  0
 10 11  2  0
 10 12  1  0
 12 13  1  0
 13 14  2  0
 14 15  1  0
 15 16  2  0
 16 17  1  0
 13 18  1  0
 17 18  2  0
M  END
