pyridine_urea_13611
     RDKit          3D

 27 29  0  0  0  0  0  0  0  0999 V2000
   11.6280   -1.8200   22.1260 C   0  0  0  0  0  0  0  0  0  0  0  0
   10.4270   -0.8620   22.2300 C   0  0  2  0  0  0  0  0  0  0  0  0
   10.7140    0.0390   23.4190 C   0  0  0  0  0  0  0  0  0  0  0  0
   11.6760    1.1780   23.0480 C   0  0  0  0  0  0  0  0  0  0  0  0
   12.8710    0.9590   23.0570 O   0  0  0  0  0  0  0  0  0  0  0  0
   10.9730    2.4210   22.7180 N   0  0  0  0  0  0  0  0  0  0  0  0
   11.4820    3.6980   22.8860 C   0  0  0  0  0  0  0  0  0  0  0  0
   12.7710    4.1510   22.5990 C   0  0  0  0  0  0  0  0  0  0  0  0
   13.1450    5.5000   22.8120 C   0  0  0  0  0  0  0  0  0  0  0  0
   12.2400    6.4480   23.3260 C   0  0  0  0  0  0  0  0  0  0  0  0
   10.9490    6.0770   23.6400 C   0  0  0  0  0  0  0  0  0  0  0  0
   10.1380    7.0730   24.1400 N   0  0  0  0  0  0  0  0  0  0  0  0
   10.4020    7.9730   25.1670 C   0  0  0  0  0  0  0  0  0  0  0  0
    9.4570    8.9950   25.2190 C   0  0  0  0  0  0  0  0  0  0  0  0
    8.4590    8.8320   24.2090 C   0  0  0  0  0  0  0  0  0  0  0  0
    9.0150    7.5700   23.5040 C   0  0  0  0  0  0  0  0  0  0  0  0
   10.5630    4.6200   23.4020 C   0  0  0  0  0  0  0  0  0  0  0  0
    9.0720   -1.1360   22.3270 N   0  0  0  0  0  0  0  0  0  0  0  0
    8.2710   -0.3050   21.6160 C   0  0  0  0  0  0  0  0  0  0  0  0
    8.6470    1.0260   21.1950 O   0  0  0  0  0  0  0  0  0  0  0  0
    7.0720   -0.8320   21.3090 N   0  0  0  0  0  0  0  0  0  0  0  0
    6.4240   -0.1140   20.1850 C   0  0  0  0  0  0  0  0  0  0  0  0
    5.2610    0.5830   20.4750 C   0  0  0  0  0  0  0  0  0  0  0  0
    4.5430    1.3590   19.3680 C   0  0  0  0  0  0  0  0  0  0  0  0
    5.2120    1.2810   18.0100 C   0  0  0  0  0  0  0  0  0  0  0  0
    6.3360    0.6030   17.7290 N   0  0  0  0  0  0  0  0  0  0  0  0
    6.9370   -0.0730   18.7370 C   0  0  0  0  0  0  0  0  0  0  0  0
  2  1  1  1
  2  3  1  0
  3  4  1  0
  4  5  2  0
  4  6  1  0
  6  7  1  0
  7  8  2  0
  8  9  1  0
  9 10  2  0
 10 11  1  0
 11 12  1  0
 12 13  1  0
 13 14  1  0
 14 15  1  0
 12 16  1  0
 15 16  1  0
  7 17  1  0
 11 17  2  0
  2 18  1  0
 18 19  1  0
 19 20  2  0
 19 21  1  0
 21 22  1  0
 22 23  2  0
 23 24  1  0
 24 25  2  0
 25 26  1  0
 22 27  1  0
 26 27  2  0
M  END
