pyridine_urea_78
     RDKit          3D

 21 23  0  0  0  0  0  0  0  0999 V2000
    9.0130    0.8470   21.6860 O   0  0  0  0  0  0  0  0  0  0  0  0
    8.5330   -0.2360   21.3960 C   0  0  0  0  0  0  0  0  0  0  0  0
    9.2880   -1.3780   21.2640 N   0  0  0  0  0  0  0  0  0  0  0  0
   10.2860   -1.8420   22.2070 C   0  0  0  0  0  0  0  0  0  0  0  0
   11.7040   -1.2770   22.0280 C   0  0  0  0  0  0  0  0  0  0  0  0
   12.7440   -2.0700   21.3560 C   0  0  0  0  0  0  0  0  0  0  0  0
   13.7040   -1.2940   20.8100 F   0  0  0  0  0  0  0  0  0  0  0  0
   13.3600   -2.8300   22.2900 F   0  0  0  0  0  0  0  0  0  0  0  0
   11.9830    0.1850   22.4250 C   0  0  0  0  0  0  0  0  0  0  0  0
   11.5470   -0.5250   23.6420 C   0  0  0  0  0  0  0  0  0  0  0  0
   11.5880    0.1950   24.7690 C   0  0  0  0  0  0  0  0  0  0  0  0
   10.3200    0.1470   25.1630 C   0  0  0  0  0  0  0  0  0  0  0  0
   10.1630   -0.9570   24.1330 C   0  0  0  0  0  0  0  0  0  0  0  0
   12.4870   -1.4710   23.3460 C   0  0  0  0  0  0  0  0  0  0  0  0
    7.2110   -0.5040   21.1110 N   0  0  0  0  0  0  0  0  0  0  0  0
    6.5260    0.0800   20.0340 C   0  0  0  0  0  0  0  0  0  0  0  0
    5.3690    0.7920   20.2870 C   0  0  0  0  0  0  0  0  0  0  0  0
    4.4260    1.5440   19.3340 C   0  0  0  0  0  0  0  0  0  0  0  0
    5.1670    1.2590   18.0330 C   0  0  0  0  0  0  0  0  0  0  0  0
    6.2830    0.5670   17.7710 N   0  0  0  0  0  0  0  0  0  0  0  0
    6.9390   -0.0090   18.7580 C   0  0  0  0  0  0  0  0  0  0  0  0
  1  2  2  0
  2  3  1  0
  3  4  1  0
  5  4  1  0
  5  6  1  0
  6  7  1  0
  6  8  1  0
  5  9  1  0
 10  9  1  0
 10 11  1  0
 11 12  1  0
 10 13  1  0
 12 13  1  0
  5 14  1  0
 10 14  1  0
  2 15  1  0
 15 16  1  0
 16 17  2  0
 17 18  1  0
 18 19  2  0
 19 20  1  0
 16 21  1  0
 20 21  2  0
M  END
