pyridine_urea_7249
     RDKit          3D

 19 20  0  0  0  0  0  0  0  0999 V2000
    8.7090    0.6760   21.2340 O   0  0  0  0  0  0  0  0  0  0  0  0
    8.1510   -0.3820   21.4860 C   0  0  0  0  0  0  0  0  0  0  0  0
    8.6590   -1.3260   22.3340 N   0  0  0  0  0  0  0  0  0  0  0  0
    9.6290   -1.0250   23.2740 C   0  0  0  0  0  0  0  0  0  0  0  0
   10.2290    0.2150   23.2120 C   0  0  0  0  0  0  0  0  0  0  0  0
   11.1380   -0.8870   23.0410 C   0  0  0  0  0  0  0  0  0  0  0  0
   12.4930   -0.9550   22.8240 C   0  0  0  0  0  0  0  0  0  0  0  0
   13.1760   -2.5100   22.6830 Cl  0  0  0  0  0  0  0  0  0  0  0  0
   13.2510    0.1390   22.7310 C   0  0  0  0  0  0  0  0  0  0  0  0
   12.4740    1.3560   22.8900 C   0  0  0  0  0  0  0  0  0  0  0  0
   11.1420    1.3190   23.0970 C   0  0  0  0  0  0  0  0  0  0  0  0
   10.7090    2.4660   23.1940 O   0  0  0  0  0  0  0  0  0  0  0  0
    6.9450   -0.7750   20.9930 N   0  0  0  0  0  0  0  0  0  0  0  0
    6.2900   -0.0160   19.9350 C   0  0  0  0  0  0  0  0  0  0  0  0
    5.1060    0.6520   20.2070 C   0  0  0  0  0  0  0  0  0  0  0  0
    4.5190    1.3790   19.1800 C   0  0  0  0  0  0  0  0  0  0  0  0
    5.1890    1.4030   17.8540 C   0  0  0  0  0  0  0  0  0  0  0  0
    6.3370    0.7230   17.6610 N   0  0  0  0  0  0  0  0  0  0  0  0
    6.8570    0.0370   18.6870 C   0  0  0  0  0  0  0  0  0  0  0  0
  1  2  2  0
  2  3  1  0
  3  4  1  0
  4  5  1  0
  5  6  2  0
  6  7  1  0
  7  8  1  0
  7  9  2  0
  9 10  1  0
  5 11  1  0
 10 11  2  0
 11 12  1  0
  2 13  1  0
 13 14  1  0
 14 15  2  0
 15 16  1  0
 16 17  2  0
 17 18  1  0
 14 19  1  0
 18 19  2  0
M  END
