pyridine_urea_3287
     RDKit          3D

 20 21  0  0  0  0  0  0  0  0999 V2000
   12.9660   -3.0600   25.0350 C   0  0  0  0  0  0  0  0  0  0  0  0
   13.0630   -2.6920   23.6720 O   0  0  0  0  0  0  0  0  0  0  0  0
   13.5190   -1.4360   23.4700 C   0  0  0  0  0  0  0  0  0  0  0  0
   13.8590   -1.6290   24.6120 O   0  0  0  0  0  0  0  0  0  0  0  0
   12.9700   -1.6180   22.2350 C   0  0  0  0  0  0  0  0  0  0  0  0
   11.8660   -1.6980   21.4450 C   0  0  0  0  0  0  0  0  0  0  0  0
   10.5810   -1.5510   21.8970 C   0  0  0  0  0  0  0  0  0  0  0  0
    9.3860   -1.5540   21.1950 N   0  0  0  0  0  0  0  0  0  0  0  0
    8.5100   -0.4850   21.2080 C   0  0  0  0  0  0  0  0  0  0  0  0
    8.7950    0.6880   21.4130 O   0  0  0  0  0  0  0  0  0  0  0  0
    7.1960   -0.8110   20.9350 N   0  0  0  0  0  0  0  0  0  0  0  0
    6.4360   -0.0770   20.0150 C   0  0  0  0  0  0  0  0  0  0  0  0
    5.1290    0.6760   20.2680 C   0  0  0  0  0  0  0  0  0  0  0  0
    4.5480    1.3570   19.2050 C   0  0  0  0  0  0  0  0  0  0  0  0
    5.1810    1.3220   17.9730 C   0  0  0  0  0  0  0  0  0  0  0  0
    6.3280    0.6620   17.7250 N   0  0  0  0  0  0  0  0  0  0  0  0
    6.9160   -0.0090   18.7290 C   0  0  0  0  0  0  0  0  0  0  0  0
   10.2430   -1.3640   23.1410 C   0  0  0  0  0  0  0  0  0  0  0  0
   10.3970   -1.2100   24.3970 C   0  0  0  0  0  0  0  0  0  0  0  0
   11.8600   -1.3650   23.6080 S   0  0  0  0  0  0  0  0  0  0  0  0
  1  2  1  0
  2  3  1  0
  3  4  2  0
  3  5  1  0
  5  6  2  0
  6  7  1  0
  7  8  1  0
  8  9  1  0
  9 10  2  0
  9 11  1  0
 11 12  1  0
 12 13  2  0
 13 14  1  0
 14 15  2  0
 15 16  1  0
 12 17  1  0
 16 17  2  0
  7 18  2  0
 18 19  1  0
  5 20  1  0
 18 20  1  0
M  END
