pyridine_urea_8801
     RDKit          3D

 20 21  0  0  0  0  0  0  0  0999 V2000
   13.5570   -2.6810   23.0210 C   0  0  0  0  0  0  0  0  0  0  0  0
   12.7840   -2.3180   24.2610 C   0  0  0  0  0  0  0  0  0  0  0  0
   13.6990   -2.3560   25.4880 C   0  0  0  0  0  0  0  0  0  0  0  0
   11.5280   -3.1750   24.4250 C   0  0  0  0  0  0  0  0  0  0  0  0
   12.2560   -0.9970   23.8390 C   0  0  0  0  0  0  0  0  0  0  0  0
   12.9780    0.2620   23.6320 N   0  0  0  0  0  0  0  0  0  0  0  0
   12.1360    1.2330   23.2110 N   0  0  0  0  0  0  0  0  0  0  0  0
   10.9260    0.5390   23.1680 C   0  0  0  0  0  0  0  0  0  0  0  0
    9.6860    0.9550   22.8190 C   0  0  0  0  0  0  0  0  0  0  0  0
    8.8560   -0.0300   22.4270 N   0  0  0  0  0  0  0  0  0  0  0  0
    8.1350    0.3040   21.3440 C   0  0  0  0  0  0  0  0  0  0  0  0
    8.3550    1.3560   20.7420 O   0  0  0  0  0  0  0  0  0  0  0  0
    7.2090   -0.5740   21.0430 N   0  0  0  0  0  0  0  0  0  0  0  0
    6.4640    0.0630   20.0740 C   0  0  0  0  0  0  0  0  0  0  0  0
    5.2790    0.7570   20.3650 C   0  0  0  0  0  0  0  0  0  0  0  0
    4.6150    1.3880   19.3060 C   0  0  0  0  0  0  0  0  0  0  0  0
    5.1990    1.2870   17.9410 C   0  0  0  0  0  0  0  0  0  0  0  0
    6.3170    0.6170   17.6780 N   0  0  0  0  0  0  0  0  0  0  0  0
    6.9220    0.0180   18.7600 C   0  0  0  0  0  0  0  0  0  0  0  0
   10.5870   -1.0350   23.5400 S   0  0  0  0  0  0  0  0  0  0  0  0
  2  1  1  0
  2  3  1  0
  2  4  1  0
  2  5  1  0
  5  6  2  0
  6  7  1  0
  7  8  2  0
  8  9  1  0
  9 10  1  0
 10 11  1  0
 11 12  2  0
 11 13  1  0
 13 14  1  0
 14 15  2  0
 15 16  1  0
 16 17  2  0
 17 18  1  0
 14 19  1  0
 18 19  2  0
  5 20  1  0
  8 20  1  0
M  END
