pyridine_urea_11894
     RDKit          3D

 25 26  0  0  0  0  0  0  0  0999 V2000
   12.7080    6.0970   22.2320 C   0  0  0  0  0  0  0  0  0  0  0  0
   12.7390    4.6560   21.7680 C   0  0  0  0  0  0  0  0  0  0  0  0
   11.9840    3.8280   22.5740 C   0  0  0  0  0  0  0  0  0  0  0  0
   12.5220    2.8710   23.1020 O   0  0  0  0  0  0  0  0  0  0  0  0
   11.9150    1.6630   23.0110 C   0  0  0  0  0  0  0  0  0  0  0  0
   12.7710    0.6520   22.9000 C   0  0  0  0  0  0  0  0  0  0  0  0
   12.5200   -0.6560   22.7940 C   0  0  0  0  0  0  0  0  0  0  0  0
   11.2970   -1.3160   22.7830 C   0  0  0  0  0  0  0  0  0  0  0  0
    9.8180   -1.6830   22.8070 C   0  0  0  0  0  0  0  0  0  0  0  0
    9.2070   -1.4680   21.4990 N   0  0  0  0  0  0  0  0  0  0  0  0
    8.4120   -0.3850   21.2400 C   0  0  0  0  0  0  0  0  0  0  0  0
    8.9030    0.8950   21.2320 O   0  0  0  0  0  0  0  0  0  0  0  0
    7.1130   -0.7300   20.9580 N   0  0  0  0  0  0  0  0  0  0  0  0
    6.3730   -0.0140   20.0150 C   0  0  0  0  0  0  0  0  0  0  0  0
    5.1800    0.6750   20.2490 C   0  0  0  0  0  0  0  0  0  0  0  0
    4.5910    1.3530   19.1870 C   0  0  0  0  0  0  0  0  0  0  0  0
    5.1840    1.3340   17.9400 C   0  0  0  0  0  0  0  0  0  0  0  0
    6.3160    0.6860   17.6600 N   0  0  0  0  0  0  0  0  0  0  0  0
    6.8950    0.0080   18.7350 C   0  0  0  0  0  0  0  0  0  0  0  0
   10.4140    0.0400   22.9280 C   0  0  0  0  0  0  0  0  0  0  0  0
    9.1810   -0.1850   22.9640 O   0  0  0  0  0  0  0  0  0  0  0  0
    8.3700    0.7620   23.5950 C   0  0  0  0  0  0  0  0  0  0  0  0
    7.3840    0.1360   24.3080 F   0  0  0  0  0  0  0  0  0  0  0  0
    7.6950    1.5120   22.6790 F   0  0  0  0  0  0  0  0  0  0  0  0
   10.5370    1.6040   23.0470 C   0  0  0  0  0  0  0  0  0  0  0  0
  1  2  1  0
  2  3  1  0
  3  4  1  0
  4  5  1  0
  5  6  2  0
  6  7  1  0
  7  8  2  0
  8  9  1  0
  9 10  1  0
 10 11  1  0
 11 12  2  0
 11 13  1  0
 13 14  1  0
 14 15  2  0
 15 16  1  0
 16 17  2  0
 17 18  1  0
 14 19  1  0
 18 19  2  0
  8 20  1  0
 20 21  1  0
 21 22  1  0
 22 23  1  0
 22 24  1  0
  5 25  1  0
 20 25  2  0
M  END
