pyridine_urea_13762
     RDKit          3D

 25 27  0  0  0  0  0  0  0  0999 V2000
    8.4400    1.0230   21.1020 O   0  0  0  0  0  0  0  0  0  0  0  0
    8.1660   -0.1460   21.3470 C   0  0  0  0  0  0  0  0  0  0  0  0
    6.9560   -0.7040   21.0550 N   0  0  0  0  0  0  0  0  0  0  0  0
    6.3380   -0.0140   19.9650 C   0  0  0  0  0  0  0  0  0  0  0  0
    5.0340    0.7120   20.2600 C   0  0  0  0  0  0  0  0  0  0  0  0
    4.4640    1.4280   19.0890 C   0  0  0  0  0  0  0  0  0  0  0  0
    5.1410    1.3720   17.8840 C   0  0  0  0  0  0  0  0  0  0  0  0
    6.2890    0.7040   17.6840 N   0  0  0  0  0  0  0  0  0  0  0  0
    6.8540    0.0370   18.7020 C   0  0  0  0  0  0  0  0  0  0  0  0
    9.0580   -0.9820   21.9160 N   0  0  0  0  0  0  0  0  0  0  0  0
   10.2880   -0.2900   22.2820 C   0  0  1  0  0  0  0  0  0  0  0  0
   10.1670    0.1760   23.4670 C   0  0  0  0  0  0  0  0  0  0  0  0
   11.0360    1.3480   23.1040 C   0  0  0  0  0  0  0  0  0  0  0  0
   12.3510    1.5500   22.9740 C   0  0  0  0  0  0  0  0  0  0  0  0
   12.7290    2.8300   22.6610 C   0  0  0  0  0  0  0  0  0  0  0  0
   11.7910    3.8480   22.4820 C   0  0  0  0  0  0  0  0  0  0  0  0
   12.5120    5.3780   22.0940 Cl  0  0  0  0  0  0  0  0  0  0  0  0
   10.2430    3.8570   22.5670 C   0  0  0  0  0  0  0  0  0  0  0  0
   10.0020    2.4010   22.9200 C   0  0  0  0  0  0  0  0  0  0  0  0
   11.4600   -1.2570   22.2610 C   0  0  0  0  0  0  0  0  0  0  0  0
   12.1440   -2.1650   21.6090 C   0  0  0  0  0  0  0  0  0  0  0  0
   13.2610   -2.6670   22.5110 C   0  0  0  0  0  0  0  0  0  0  0  0
   13.7620   -2.3440   23.9580 C   0  0  0  0  0  0  0  0  0  0  0  0
   12.8040   -1.4090   24.0870 C   0  0  0  0  0  0  0  0  0  0  0  0
   12.3540   -1.6060   23.0090 C   0  0  0  0  0  0  0  0  0  0  0  0
  1  2  2  0
  2  3  1  0
  3  4  1  0
  4  5  2  0
  5  6  1  0
  6  7  2  0
  7  8  1  0
  4  9  1  0
  8  9  2  0
  2 10  1  0
 10 11  1  0
 11 12  1  1
 12 13  1  0
 13 14  2  0
 14 15  1  0
 15 16  2  0
 16 17  1  0
 16 18  1  0
 13 19  1  0
 18 19  2  0
 11 20  1  0
 20 21  2  0
 21 22  1  0
 22 23  2  0
 23 24  1  0
 20 25  1  0
 24 25  2  0
M  END
