pyridine_urea_3539
     RDKit          3D

 17 17  0  0  0  0  0  0  0  0999 V2000
   12.8530   -0.4240   23.8170 C   0  0  0  0  0  0  0  0  0  0  0  0
   12.2130    0.7680   23.1000 C   0  0  0  0  0  0  0  0  0  0  0  0
   10.7060    0.5300   22.9360 C   0  0  1  0  0  0  0  0  0  0  0  0
   10.1210    1.2280   22.1490 O   0  0  0  0  0  0  0  0  0  0  0  0
   10.4430   -0.9550   22.8620 C   0  0  2  0  0  0  0  0  0  0  0  0
   11.5130   -1.7570   22.1020 C   0  0  0  0  0  0  0  0  0  0  0  0
   12.9690   -1.2890   21.9780 C   0  0  0  0  0  0  0  0  0  0  0  0
    9.0960   -1.1920   22.2700 N   0  0  0  0  0  0  0  0  0  0  0  0
    8.3930   -0.2740   21.5010 C   0  0  0  0  0  0  0  0  0  0  0  0
    8.7920    0.8530   21.2620 O   0  0  0  0  0  0  0  0  0  0  0  0
    7.1220   -0.8210   21.0240 N   0  0  0  0  0  0  0  0  0  0  0  0
    6.4060   -0.0850   20.0580 C   0  0  0  0  0  0  0  0  0  0  0  0
    5.2160    0.6150   20.2900 C   0  0  0  0  0  0  0  0  0  0  0  0
    4.6280    1.3050   19.2350 C   0  0  0  0  0  0  0  0  0  0  0  0
    5.2280    1.2870   17.9890 C   0  0  0  0  0  0  0  0  0  0  0  0
    6.3660    0.6200   17.7500 N   0  0  0  0  0  0  0  0  0  0  0  0
    6.9190   -0.0460   18.7790 C   0  0  0  0  0  0  0  0  0  0  0  0
  1  2  1  0
  2  3  1  0
  3  4  1  6
  3  5  1  0
  5  6  1  6
  6  7  1  0
  5  8  1  0
  8  9  1  0
  9 10  2  0
  9 11  1  0
 11 12  1  0
 12 13  2  0
 13 14  1  0
 14 15  2  0
 15 16  1  0
 12 17  1  0
 16 17  2  0
M  END
