pyridine_urea_8356
     RDKit          3D

 22 23  0  0  0  0  0  0  0  0999 V2000
    8.3360   -3.4080   24.0580 C   0  0  0  0  0  0  0  0  0  0  0  0
    9.0140   -2.7440   25.0530 N   0  0  0  0  0  0  0  0  0  0  0  0
    8.5430   -1.4340   25.4790 C   0  0  0  0  0  0  0  0  0  0  0  0
    7.2550   -1.1200   26.0350 O   0  0  0  0  0  0  0  0  0  0  0  0
    9.4950   -0.1880   25.3550 C   0  0  0  0  0  0  0  0  0  0  0  0
   10.3510   -0.0480   24.2480 C   0  0  0  0  0  0  0  0  0  0  0  0
   10.1130   -1.0970   23.1330 C   0  0  0  0  0  0  0  0  0  0  0  0
    8.8920   -1.2770   22.5610 N   0  0  0  0  0  0  0  0  0  0  0  0
    8.4090   -0.3590   21.6750 C   0  0  0  0  0  0  0  0  0  0  0  0
    8.9840    0.6970   21.4480 O   0  0  0  0  0  0  0  0  0  0  0  0
    7.2190   -0.7680   21.1030 N   0  0  0  0  0  0  0  0  0  0  0  0
    6.5080   -0.0520   20.0520 C   0  0  0  0  0  0  0  0  0  0  0  0
    5.2200    0.7000   20.4720 C   0  0  0  0  0  0  0  0  0  0  0  0
    4.5670    1.4310   19.2890 C   0  0  0  0  0  0  0  0  0  0  0  0
    5.2050    1.3530   17.9210 C   0  0  0  0  0  0  0  0  0  0  0  0
    6.3480    0.6320   17.7300 N   0  0  0  0  0  0  0  0  0  0  0  0
    6.9860   -0.0530   18.7500 C   0  0  0  0  0  0  0  0  0  0  0  0
   11.6740    0.0890   24.5810 C   0  0  0  0  0  0  0  0  0  0  0  0
   12.5700   -0.2760   23.6330 C   0  0  0  0  0  0  0  0  0  0  0  0
   12.5190    0.7700   22.7920 C   0  0  0  0  0  0  0  0  0  0  0  0
   11.1810    1.1690   22.5780 C   0  0  0  0  0  0  0  0  0  0  0  0
   10.3530    1.1730   23.6610 C   0  0  0  0  0  0  0  0  0  0  0  0
  1  2  1  0
  2  3  1  0
  3  4  2  0
  3  5  1  0
  6  5  1  0
  6  7  1  0
  7  8  1  0
  8  9  1  0
  9 10  2  0
  9 11  1  0
 11 12  1  0
 12 13  2  0
 13 14  1  0
 14 15  2  0
 15 16  1  0
 12 17  1  0
 16 17  2  0
  6 18  1  0
 18 19  1  0
 19 20  1  0
 20 21  1  0
  6 22  1  0
 21 22  1  0
M  END
