pyridine_urea_5248
     RDKit          3D

 19 20  0  0  0  0  0  0  0  0999 V2000
   13.4520   -1.7730   24.7850 C   0  0  0  0  0  0  0  0  0  0  0  0
   12.1400   -1.6830   24.1640 C   0  0  0  0  0  0  0  0  0  0  0  0
   11.0720   -1.4140   24.9110 C   0  0  0  0  0  0  0  0  0  0  0  0
    9.9440   -1.3650   24.2830 C   0  0  0  0  0  0  0  0  0  0  0  0
    8.4320   -1.0020   25.0640 Cl  0  0  0  0  0  0  0  0  0  0  0  0
    9.8830   -1.5920   23.0320 N   0  0  0  0  0  0  0  0  0  0  0  0
   10.7770   -1.8890   22.0530 C   0  0  0  0  0  0  0  0  0  0  0  0
    9.3140   -1.7790   21.8040 C   0  0  0  0  0  0  0  0  0  0  0  0
    9.2100   -0.6930   21.0840 N   0  0  0  0  0  0  0  0  0  0  0  0
    8.2690    0.3170   21.1690 C   0  0  0  0  0  0  0  0  0  0  0  0
    8.5960    1.5050   21.1930 O   0  0  0  0  0  0  0  0  0  0  0  0
    7.0190   -0.1820   21.1570 N   0  0  0  0  0  0  0  0  0  0  0  0
    6.3230    0.3220   20.1280 C   0  0  0  0  0  0  0  0  0  0  0  0
    5.1190    1.0130   20.2450 C   0  0  0  0  0  0  0  0  0  0  0  0
    4.5270    1.5020   19.0980 C   0  0  0  0  0  0  0  0  0  0  0  0
    5.1470    1.2900   17.8760 C   0  0  0  0  0  0  0  0  0  0  0  0
    6.2970    0.6180   17.7380 N   0  0  0  0  0  0  0  0  0  0  0  0
    6.8500    0.1520   18.8610 C   0  0  0  0  0  0  0  0  0  0  0  0
   11.9870   -1.8900   22.8100 C   0  0  0  0  0  0  0  0  0  0  0  0
  1  2  1  0
  2  3  2  0
  3  4  1  0
  4  5  1  0
  4  6  2  0
  6  7  1  0
  7  8  1  0
  8  9  1  0
  9 10  1  0
 10 11  2  0
 10 12  1  0
 12 13  1  0
 13 14  2  0
 14 15  1  0
 15 16  2  0
 16 17  1  0
 13 18  1  0
 17 18  2  0
  2 19  1  0
  7 19  2  0
M  END
