pyridine_urea_1884
     RDKit          3D

 16 16  0  0  0  0  0  0  0  0999 V2000
    8.9090    1.1080   21.2540 O   0  0  0  0  0  0  0  0  0  0  0  0
    8.3680    0.0330   21.5740 C   0  0  0  0  0  0  0  0  0  0  0  0
    8.7900   -0.8240   22.5570 N   0  0  0  0  0  0  0  0  0  0  0  0
   10.1010   -0.9580   23.0160 C   0  0  0  0  0  0  0  0  0  0  0  0
   10.8550    0.2040   23.0070 C   0  0  0  0  0  0  0  0  0  0  0  0
   12.1260    0.1450   23.5470 C   0  0  0  0  0  0  0  0  0  0  0  0
   13.1390   -0.4000   22.8380 C   0  0  0  0  0  0  0  0  0  0  0  0
   12.8700   -1.4700   21.9930 C   0  0  0  0  0  0  0  0  0  0  0  0
   13.6160   -1.3850   21.0300 O   0  0  0  0  0  0  0  0  0  0  0  0
    7.2360   -0.4910   21.0140 N   0  0  0  0  0  0  0  0  0  0  0  0
    6.5650    0.0870   20.0030 C   0  0  0  0  0  0  0  0  0  0  0  0
    5.2910    0.8840   20.2670 C   0  0  0  0  0  0  0  0  0  0  0  0
    4.6120    1.4890   19.2440 C   0  0  0  0  0  0  0  0  0  0  0  0
    5.1370    1.3420   17.9620 C   0  0  0  0  0  0  0  0  0  0  0  0
    6.2570    0.6360   17.6840 N   0  0  0  0  0  0  0  0  0  0  0  0
    6.9430    0.0300   18.6830 C   0  0  0  0  0  0  0  0  0  0  0  0
  1  2  2  0
  2  3  1  0
  3  4  1  0
  4  5  1  0
  5  6  1  0
  6  7  1  0
  7  8  1  0
  8  9  1  0
  2 10  1  0
 10 11  1  0
 11 12  2  0
 12 13  1  0
 13 14  2  0
 14 15  1  0
 11 16  1  0
 15 16  2  0
M  END
