pyridine_urea_5361
     RDKit          3D

 19 20  0  0  0  0  0  0  0  0999 V2000
    9.0960    0.6890   21.3640 O   0  0  0  0  0  0  0  0  0  0  0  0
    8.3990   -0.2540   21.7200 C   0  0  0  0  0  0  0  0  0  0  0  0
    8.6750   -0.9900   22.8600 N   0  0  0  0  0  0  0  0  0  0  0  0
    9.3480   -2.2820   22.7860 C   0  0  0  0  0  0  0  0  0  0  0  0
    8.8770   -3.3510   23.8520 C   0  0  0  0  0  0  0  0  0  0  0  0
    7.8860   -2.8770   24.8900 N   0  0  0  0  0  0  0  0  0  0  0  0
    8.2670   -1.7590   25.7730 C   0  0  0  0  0  0  0  0  0  0  0  0
    8.8980   -0.6970   25.2020 O   0  0  0  0  0  0  0  0  0  0  0  0
    7.8550   -2.0350   27.2280 C   0  0  0  0  0  0  0  0  0  0  0  0
    7.4320   -3.3630   27.2750 C   0  0  0  0  0  0  0  0  0  0  0  0
    7.4570   -3.9370   25.8490 C   0  0  0  0  0  0  0  0  0  0  0  0
    7.1490   -5.0970   25.6090 O   0  0  0  0  0  0  0  0  0  0  0  0
    7.2630   -0.7010   21.0860 N   0  0  0  0  0  0  0  0  0  0  0  0
    6.5550   -0.0360   20.0690 C   0  0  0  0  0  0  0  0  0  0  0  0
    5.2770    0.7090   20.4390 C   0  0  0  0  0  0  0  0  0  0  0  0
    4.5380    1.4320   19.3150 C   0  0  0  0  0  0  0  0  0  0  0  0
    5.1980    1.3040   17.9520 C   0  0  0  0  0  0  0  0  0  0  0  0
    6.3290    0.6170   17.7320 N   0  0  0  0  0  0  0  0  0  0  0  0
    6.9570   -0.0170   18.7490 C   0  0  0  0  0  0  0  0  0  0  0  0
  1  2  2  0
  2  3  1  0
  3  4  1  0
  4  5  1  0
  5  6  1  0
  6  7  1  0
  7  8  2  0
  7  9  1  0
  9 10  1  0
  6 11  1  0
 10 11  1  0
 11 12  2  0
  2 13  1  0
 13 14  1  0
 14 15  2  0
 15 16  1  0
 16 17  2  0
 17 18  1  0
 14 19  1  0
 18 19  2  0
M  END
