pyridine_urea_4565
     RDKit          3D

 23 25  0  0  0  0  0  0  0  0999 V2000
    9.0660    0.6630   21.3520 O   0  0  0  0  0  0  0  0  0  0  0  0
    8.5560   -0.4120   21.6520 C   0  0  0  0  0  0  0  0  0  0  0  0
    8.9170   -1.1570   22.7510 N   0  0  0  0  0  0  0  0  0  0  0  0
   10.3100   -1.2140   23.0840 C   0  0  0  0  0  0  0  0  0  0  0  0
   11.2480   -1.1020   21.9340 C   0  0  0  0  0  0  0  0  0  0  0  0
   12.7530   -1.1300   22.1910 C   0  0  0  0  0  0  0  0  0  0  0  0
   13.1390   -1.2920   23.6480 C   0  0  0  0  0  0  0  0  0  0  0  0
   12.1460   -1.4070   24.6130 N   0  0  0  0  0  0  0  0  0  0  0  0
   10.8040   -1.3590   24.3410 C   0  0  0  0  0  0  0  0  0  0  0  0
    7.5480   -1.0010   20.9270 N   0  0  0  0  0  0  0  0  0  0  0  0
    6.7010   -0.1380   20.2350 C   0  0  0  0  0  0  0  0  0  0  0  0
    5.6600    0.6290   20.6790 C   0  0  0  0  0  0  0  0  0  0  0  0
    4.9080    1.4600   19.8930 C   0  0  0  0  0  0  0  0  0  0  0  0
    5.1550    1.5880   18.5410 C   0  0  0  0  0  0  0  0  0  0  0  0
    4.3130    2.4680   17.9690 O   0  0  0  0  0  0  0  0  0  0  0  0
    3.1150    2.8490   18.6920 C   0  0  0  0  0  0  0  0  0  0  0  0
    2.5590    4.0240   18.1920 C   0  0  0  0  0  0  0  0  0  0  0  0
    1.3210    4.4930   18.8570 C   0  0  0  0  0  0  0  0  0  0  0  0
    0.7740    3.7800   19.9160 C   0  0  0  0  0  0  0  0  0  0  0  0
    1.3200    2.6440   20.3970 N   0  0  0  0  0  0  0  0  0  0  0  0
    2.4670    2.2100   19.7770 C   0  0  0  0  0  0  0  0  0  0  0  0
    6.1560    0.8900   17.8970 N   0  0  0  0  0  0  0  0  0  0  0  0
    6.9570    0.0010   18.7610 C   0  0  0  0  0  0  0  0  0  0  0  0
  1  2  2  0
  2  3  1  0
  3  4  1  0
  4  5  2  0
  5  6  1  0
  6  7  2  0
  7  8  1  0
  4  9  1  0
  8  9  2  0
  2 10  1  0
 10 11  1  0
 11 12  2  0
 12 13  1  0
 13 14  2  0
 14 15  1  0
 15 16  1  0
 16 17  2  0
 17 18  1  0
 18 19  2  0
 19 20  1  0
 16 21  1  0
 20 21  2  0
 14 22  1  0
 11 23  1  0
 22 23  2  0
M  END
