pyridine_urea_11787
     RDKit          3D

 25 27  0  0  0  0  0  0  0  0999 V2000
    9.5990    2.8510   22.1990 C   0  0  0  0  0  0  0  0  0  0  0  0
   10.8240    2.1860   22.7660 C   0  0  0  0  0  0  0  0  0  0  0  0
   11.8100    2.4070   23.2870 C   0  0  0  0  0  0  0  0  0  0  0  0
   11.7320    0.8080   23.1300 C   0  0  0  0  0  0  0  0  0  0  0  0
   10.8490   -0.1160   22.5860 C   0  0  0  0  0  0  0  0  0  0  0  0
    9.9330   -0.7650   23.3810 C   0  0  1  0  0  0  0  0  0  0  0  0
    9.7940   -0.1970   24.6470 C   0  0  0  0  0  0  0  0  0  0  0  0
    8.6480   -0.9450   22.8040 N   0  0  0  0  0  0  0  0  0  0  0  0
    8.2520   -0.1930   21.7220 C   0  0  0  0  0  0  0  0  0  0  0  0
    8.8680    0.7910   21.3480 O   0  0  0  0  0  0  0  0  0  0  0  0
    7.0370   -0.6680   21.0970 N   0  0  0  0  0  0  0  0  0  0  0  0
    6.4190   -0.0370   20.0670 C   0  0  0  0  0  0  0  0  0  0  0  0
    5.2380    0.6720   20.3140 C   0  0  0  0  0  0  0  0  0  0  0  0
    4.6250    1.3280   19.2510 C   0  0  0  0  0  0  0  0  0  0  0  0
    5.1810    1.2720   17.9900 C   0  0  0  0  0  0  0  0  0  0  0  0
    6.3060    0.5930   17.7350 N   0  0  0  0  0  0  0  0  0  0  0  0
    6.8980   -0.0440   18.7680 C   0  0  0  0  0  0  0  0  0  0  0  0
   12.6840    0.7510   23.6350 N   0  0  0  0  0  0  0  0  0  0  0  0
   12.9890   -0.4870   23.7780 C   0  0  0  0  0  0  0  0  0  0  0  0
   13.0780   -0.9710   25.1740 C   0  0  0  0  0  0  0  0  0  0  0  0
   13.4160   -2.2380   25.3960 C   0  0  0  0  0  0  0  0  0  0  0  0
   13.6410   -3.0290   24.3360 C   0  0  0  0  0  0  0  0  0  0  0  0
   13.5420   -2.6260   22.9960 C   0  0  0  0  0  0  0  0  0  0  0  0
   13.2160   -1.3270   22.7290 C   0  0  0  0  0  0  0  0  0  0  0  0
   11.4060    1.0720   22.9730 N   0  0  0  0  0  0  0  0  0  0  0  0
  1  2  1  0
  2  3  1  0
  3  4  2  0
  4  5  1  0
  5  6  1  0
  6  7  1  1
  6  8  1  0
  8  9  1  0
  9 10  2  0
  9 11  1  0
 11 12  1  0
 12 13  2  0
 13 14  1  0
 14 15  2  0
 15 16  1  0
 12 17  1  0
 16 17  2  0
  4 18  1  0
 18 19  1  0
 19 20  2  0
 20 21  1  0
 21 22  2  0
 22 23  1  0
 19 24  1  0
 23 24  2  0
  2 25  2  0
 18 25  1  0
M  END
