pyridine_urea_4940
     RDKit          3D

 21 22  0  0  0  0  0  0  0  0999 V2000
    7.7590   -2.5130   24.0870 C   0  0  0  0  0  0  0  0  0  0  0  0
    8.9170   -3.3070   23.4410 C   0  0  0  0  0  0  0  0  0  0  0  0
   10.0790   -2.3640   23.0600 C   0  0  0  0  0  0  0  0  0  0  0  0
   11.2860   -2.4540   23.7420 C   0  0  0  0  0  0  0  0  0  0  0  0
   11.8040   -3.4490   24.6620 N   0  0  0  0  0  0  0  0  0  0  0  0
   13.0730   -3.0630   25.0460 C   0  0  0  0  0  0  0  0  0  0  0  0
   13.2540   -1.8960   24.3720 C   0  0  0  0  0  0  0  0  0  0  0  0
   12.2490   -1.4740   23.5930 N   0  0  0  0  0  0  0  0  0  0  0  0
   12.1010   -0.3540   22.7900 C   0  0  0  0  0  0  0  0  0  0  0  0
   10.8450   -0.0080   22.3340 C   0  0  0  0  0  0  0  0  0  0  0  0
    9.8430   -0.0540   23.2470 C   0  0  0  0  0  0  0  0  0  0  0  0
    8.6180   -0.3940   22.8030 N   0  0  0  0  0  0  0  0  0  0  0  0
    8.2350    0.1050   21.5980 C   0  0  0  0  0  0  0  0  0  0  0  0
    8.7740    1.1300   21.1400 O   0  0  0  0  0  0  0  0  0  0  0  0
    7.2530   -0.6540   21.0660 N   0  0  0  0  0  0  0  0  0  0  0  0
    6.5570    0.0240   20.0200 C   0  0  0  0  0  0  0  0  0  0  0  0
    5.3450    0.8370   20.3340 C   0  0  0  0  0  0  0  0  0  0  0  0
    4.6720    1.4940   19.3340 C   0  0  0  0  0  0  0  0  0  0  0  0
    5.1950    1.3500   18.0190 C   0  0  0  0  0  0  0  0  0  0  0  0
    6.2760    0.6270   17.6850 N   0  0  0  0  0  0  0  0  0  0  0  0
    6.9150   -0.0090   18.6970 C   0  0  0  0  0  0  0  0  0  0  0  0
  1  2  1  0
  2  3  1  0
  3  4  1  0
  4  5  2  0
  5  6  1  0
  6  7  2  0
  4  8  1  0
  7  8  1  0
  8  9  1  0
  9 10  1  0
 10 11  1  0
 11 12  1  0
 12 13  1  0
 13 14  2  0
 13 15  1  0
 15 16  1  0
 16 17  2  0
 17 18  1  0
 18 19  2  0
 19 20  1  0
 16 21  1  0
 20 21  2  0
M  END
