pyridine_urea_5260
     RDKit          3D

 19 21  0  0  0  0  0  0  0  0999 V2000
    8.5850    1.1840   21.0460 O   0  0  0  0  0  0  0  0  0  0  0  0
    8.1980    0.0240   21.2660 C   0  0  0  0  0  0  0  0  0  0  0  0
    8.9040   -0.9860   21.7920 N   0  0  0  0  0  0  0  0  0  0  0  0
   10.1040   -0.7730   22.4130 C   0  0  0  0  0  0  0  0  0  0  0  0
   10.0200   -0.5810   23.7590 C   0  0  0  0  0  0  0  0  0  0  0  0
    9.0560   -0.4750   24.6930 N   0  0  0  0  0  0  0  0  0  0  0  0
    9.7040   -0.3030   25.9030 C   0  0  0  0  0  0  0  0  0  0  0  0
   10.9320   -0.3020   25.7640 O   0  0  0  0  0  0  0  0  0  0  0  0
   11.3500   -0.4510   24.4630 C   0  0  0  0  0  0  0  0  0  0  0  0
   12.7540   -0.4830   23.9050 C   0  0  0  0  0  0  0  0  0  0  0  0
   12.9690    0.1980   22.8060 C   0  0  0  0  0  0  0  0  0  0  0  0
   12.7690   -1.1220   22.3510 C   0  0  0  0  0  0  0  0  0  0  0  0
    6.9430   -0.3980   20.9570 N   0  0  0  0  0  0  0  0  0  0  0  0
    6.2720    0.2080   19.9940 C   0  0  0  0  0  0  0  0  0  0  0  0
    5.0860    0.8880   20.1400 C   0  0  0  0  0  0  0  0  0  0  0  0
    4.4980    1.5060   19.0480 C   0  0  0  0  0  0  0  0  0  0  0  0
    5.1500    1.4080   17.8200 C   0  0  0  0  0  0  0  0  0  0  0  0
    6.3020    0.7410   17.6510 N   0  0  0  0  0  0  0  0  0  0  0  0
    6.8290    0.1590   18.7330 C   0  0  0  0  0  0  0  0  0  0  0  0
  1  2  2  0
  2  3  1  0
  3  4  1  0
  4  5  1  0
  5  6  1  0
  6  7  2  0
  7  8  1  0
  5  9  2  0
  8  9  1  0
  9 10  1  0
 10 11  1  0
 10 12  1  0
 11 12  1  0
  2 13  1  0
 13 14  1  0
 14 15  2  0
 15 16  1  0
 16 17  2  0
 17 18  1  0
 14 19  1  0
 18 19  2  0
M  END
