pyridine_urea_12073
     RDKit          3D

 23 25  0  0  0  0  0  0  0  0999 V2000
    8.8310    0.6090   21.1280 O   0  0  0  0  0  0  0  0  0  0  0  0
    8.4890   -0.4950   21.5160 C   0  0  0  0  0  0  0  0  0  0  0  0
    7.2800   -1.0110   21.1220 N   0  0  0  0  0  0  0  0  0  0  0  0
    6.5650   -0.3020   20.1120 C   0  0  0  0  0  0  0  0  0  0  0  0
    5.3290    0.3100   20.3910 C   0  0  0  0  0  0  0  0  0  0  0  0
    4.6480    1.0200   19.3890 C   0  0  0  0  0  0  0  0  0  0  0  0
    5.2240    1.1020   18.1340 C   0  0  0  0  0  0  0  0  0  0  0  0
    6.3990    0.5250   17.8400 N   0  0  0  0  0  0  0  0  0  0  0  0
    7.0350   -0.1570   18.8190 C   0  0  0  0  0  0  0  0  0  0  0  0
    9.3440   -1.2110   22.3760 N   0  0  0  0  0  0  0  0  0  0  0  0
   10.4380   -0.2540   22.6240 C   0  0  0  0  0  0  0  0  0  0  0  0
    9.7530    1.0360   22.8240 C   0  0  0  0  0  0  0  0  0  0  0  0
   10.5070    2.1360   23.0040 C   0  0  0  0  0  0  0  0  0  0  0  0
   11.8770    2.1000   23.0160 C   0  0  0  0  0  0  0  0  0  0  0  0
   12.3080    3.4170   23.1680 C   0  0  0  0  0  0  0  0  0  0  0  0
   13.4790    3.9340   22.6420 C   0  0  0  0  0  0  0  0  0  0  0  0
   13.7820    5.2830   22.8120 C   0  0  0  0  0  0  0  0  0  0  0  0
   12.9280    6.1280   23.5140 C   0  0  0  0  0  0  0  0  0  0  0  0
   11.7640    5.6170   24.0580 C   0  0  0  0  0  0  0  0  0  0  0  0
   11.4590    4.2790   23.8840 C   0  0  0  0  0  0  0  0  0  0  0  0
   12.5980    0.8760   22.8690 C   0  0  0  0  0  0  0  0  0  0  0  0
   11.8500   -0.3290   22.6700 C   0  0  0  0  0  0  0  0  0  0  0  0
   12.9480   -2.0870   22.4360 I   0  0  0  0  0  0  0  0  0  0  0  0
  1  2  2  0
  2  3  1  0
  3  4  1  0
  4  5  2  0
  5  6  1  0
  6  7  2  0
  7  8  1  0
  4  9  1  0
  8  9  2  0
  2 10  1  0
 10 11  1  0
 11 12  2  0
 12 13  1  0
 13 14  2  0
 14 15  1  0
 15 16  2  0
 16 17  1  0
 17 18  2  0
 18 19  1  0
 15 20  1  0
 19 20  2  0
 14 21  1  0
 11 22  1  0
 21 22  2  0
 22 23  1  0
M  END
