pyridine_urea_5328
     RDKit          3D

 19 20  0  0  0  0  0  0  0  0999 V2000
    8.7120    1.0990   21.1810 O   0  0  0  0  0  0  0  0  0  0  0  0
    8.1800    0.0420   21.5640 C   0  0  0  0  0  0  0  0  0  0  0  0
    7.0600   -0.5300   21.0420 N   0  0  0  0  0  0  0  0  0  0  0  0
    6.4070    0.0830   19.9850 C   0  0  0  0  0  0  0  0  0  0  0  0
    5.2200    0.7770   20.2200 C   0  0  0  0  0  0  0  0  0  0  0  0
    4.5750    1.4130   19.1640 C   0  0  0  0  0  0  0  0  0  0  0  0
    5.1500    1.3260   17.9130 C   0  0  0  0  0  0  0  0  0  0  0  0
    6.2830    0.6560   17.6700 N   0  0  0  0  0  0  0  0  0  0  0  0
    6.8840    0.0500   18.7010 C   0  0  0  0  0  0  0  0  0  0  0  0
    8.7070   -0.6890   22.5930 N   0  0  0  0  0  0  0  0  0  0  0  0
   10.0980   -0.4190   22.7380 C   0  0  0  0  0  0  0  0  0  0  0  0
   10.4960    1.0380   22.7430 C   0  0  0  0  0  0  0  0  0  0  0  0
   11.8350    1.3460   22.8430 C   0  0  0  0  0  0  0  0  0  0  0  0
   12.2330    3.0290   22.8120 Cl  0  0  0  0  0  0  0  0  0  0  0  0
   12.7550    0.3150   22.9460 C   0  0  0  0  0  0  0  0  0  0  0  0
   14.0580    0.6110   23.0230 O   0  0  0  0  0  0  0  0  0  0  0  0
   12.3660   -1.0290   22.9620 C   0  0  0  0  0  0  0  0  0  0  0  0
   13.4330   -2.3590   23.1120 Cl  0  0  0  0  0  0  0  0  0  0  0  0
   11.0450   -1.4110   22.8530 C   0  0  0  0  0  0  0  0  0  0  0  0
  1  2  2  0
  2  3  1  0
  3  4  1  0
  4  5  2  0
  5  6  1  0
  6  7  2  0
  7  8  1  0
  4  9  1  0
  8  9  2  0
  2 10  1  0
 10 11  1  0
 11 12  2  0
 12 13  1  0
 13 14  1  0
 13 15  2  0
 15 16  1  0
 15 17  1  0
 17 18  1  0
 11 19  1  0
 17 19  2  0
M  END
