pyridine_urea_11320
     RDKit          3D

 15 16  0  0  0  0  0  0  0  0999 V2000
   10.3340    2.4660   22.6920 C   0  0  0  0  0  0  0  0  0  0  0  0
   10.3430    1.2620   22.6720 C   0  0  0  0  0  0  0  0  0  0  0  0
   10.3220   -0.2720   22.6370 C   0  0  0  0  0  0  0  0  0  0  0  0
    9.0140   -0.9020   22.3830 N   0  0  0  0  0  0  0  0  0  0  0  0
    8.2660   -0.0120   21.4660 C   0  0  0  0  0  0  0  0  0  0  0  0
    8.7560    1.2650   21.0150 O   0  0  0  0  0  0  0  0  0  0  0  0
    7.0620   -0.6160   21.1650 N   0  0  0  0  0  0  0  0  0  0  0  0
    6.5850   -0.0490   20.0790 C   0  0  0  0  0  0  0  0  0  0  0  0
    5.3230    0.7700   20.3760 C   0  0  0  0  0  0  0  0  0  0  0  0
    4.6770    1.4620   19.2510 C   0  0  0  0  0  0  0  0  0  0  0  0
    5.2520    1.3190   18.0560 C   0  0  0  0  0  0  0  0  0  0  0  0
    6.3660    0.5990   17.7660 N   0  0  0  0  0  0  0  0  0  0  0  0
    7.0090   -0.0720   18.7690 C   0  0  0  0  0  0  0  0  0  0  0  0
   11.5810   -1.1220   22.4290 C   0  0  0  0  0  0  0  0  0  0  0  0
   11.3850   -0.9090   23.7010 C   0  0  0  0  0  0  0  0  0  0  0  0
  1  2  3  0
  3  2  1  0
  3  4  1  0
  4  5  1  0
  5  6  2  0
  5  7  1  0
  7  8  1  0
  8  9  2  0
  9 10  1  0
 10 11  2  0
 11 12  1  0
  8 13  1  0
 12 13  2  0
  3 14  1  0
  3 15  1  0
 14 15  1  0
M  END
