pyridine_urea_4401
     RDKit          3D

 23 24  0  0  0  0  0  0  0  0999 V2000
   13.3510   -1.8390   21.0880 C   0  0  0  0  0  0  0  0  0  0  0  0
   13.9310   -1.4070   22.3160 O   0  0  0  0  0  0  0  0  0  0  0  0
   13.6180   -0.0540   22.5910 C   0  0  0  0  0  0  0  0  0  0  0  0
   14.3050    0.9120   22.6880 O   0  0  0  0  0  0  0  0  0  0  0  0
   12.2300   -0.0360   22.7120 C   0  0  0  0  0  0  0  0  0  0  0  0
   11.4820    1.1740   23.1000 C   0  0  0  0  0  0  0  0  0  0  0  0
   10.0020    0.9570   23.1370 C   0  0  0  0  0  0  0  0  0  0  0  0
    9.4410   -0.4020   22.7920 C   0  0  0  0  0  0  0  0  0  0  0  0
    8.0410   -0.5050   22.8060 N   0  0  0  0  0  0  0  0  0  0  0  0
    7.6630   -0.0190   21.6030 C   0  0  0  0  0  0  0  0  0  0  0  0
    8.2400    0.9390   21.0930 O   0  0  0  0  0  0  0  0  0  0  0  0
    6.5730   -0.7350   21.0080 N   0  0  0  0  0  0  0  0  0  0  0  0
    6.0300   -0.0040   19.9690 C   0  0  0  0  0  0  0  0  0  0  0  0
    4.8560    0.7290   20.0600 C   0  0  0  0  0  0  0  0  0  0  0  0
    4.4270    1.4360   18.9620 C   0  0  0  0  0  0  0  0  0  0  0  0
    5.1740    1.3970   17.8050 C   0  0  0  0  0  0  0  0  0  0  0  0
    6.3100    0.6910   17.6830 N   0  0  0  0  0  0  0  0  0  0  0  0
    6.7150    0.0060   18.7670 C   0  0  0  0  0  0  0  0  0  0  0  0
   10.2210   -1.6160   22.4110 C   0  0  0  0  0  0  0  0  0  0  0  0
    9.4870   -2.7980   22.1330 O   0  0  0  0  0  0  0  0  0  0  0  0
    8.6020   -3.2630   23.1440 C   0  0  0  0  0  0  0  0  0  0  0  0
   11.6630   -1.3870   22.3780 C   0  0  0  0  0  0  0  0  0  0  0  0
   12.4680   -2.4050   22.0390 F   0  0  0  0  0  0  0  0  0  0  0  0
  1  2  1  0
  2  3  1  0
  3  4  2  0
  3  5  1  0
  5  6  2  0
  6  7  1  0
  7  8  2  0
  8  9  1  0
  9 10  1  0
 10 11  2  0
 10 12  1  0
 12 13  1  0
 13 14  2  0
 14 15  1  0
 15 16  2  0
 16 17  1  0
 13 18  1  0
 17 18  2  0
  8 19  1  0
 19 20  1  0
 20 21  1  0
  5 22  1  0
 19 22  2  0
 22 23  1  0
M  END
