pyridine_urea_14904
     RDKit          3D

 20 21  0  0  0  0  0  0  0  0999 V2000
    8.9300    1.0950   21.1970 O   0  0  0  0  0  0  0  0  0  0  0  0
    8.4960   -0.0250   21.5090 C   0  0  0  0  0  0  0  0  0  0  0  0
    9.0980   -0.8860   22.4150 N   0  0  0  0  0  0  0  0  0  0  0  0
   10.4200   -0.7930   22.9100 C   0  0  0  0  0  0  0  0  0  0  0  0
   10.8190    0.2650   23.7250 C   0  0  0  0  0  0  0  0  0  0  0  0
    9.9330    0.9310   24.2690 O   0  0  0  0  0  0  0  0  0  0  0  0
   10.0240    2.3400   24.0380 C   0  0  0  0  0  0  0  0  0  0  0  0
    8.9070    3.0760   24.4190 C   0  0  0  0  0  0  0  0  0  0  0  0
    8.7700    4.4520   24.2910 C   0  0  0  0  0  0  0  0  0  0  0  0
    9.9210    5.2530   23.6850 C   0  0  0  0  0  0  0  0  0  0  0  0
    9.8270    6.9580   23.4930 Cl  0  0  0  0  0  0  0  0  0  0  0  0
   11.0420    4.5270   23.3010 C   0  0  0  0  0  0  0  0  0  0  0  0
   11.0870    3.0690   23.4790 N   0  0  0  0  0  0  0  0  0  0  0  0
    7.3210   -0.5740   21.0040 N   0  0  0  0  0  0  0  0  0  0  0  0
    6.5260    0.0830   20.0630 C   0  0  0  0  0  0  0  0  0  0  0  0
    5.3390    0.7910   20.3430 C   0  0  0  0  0  0  0  0  0  0  0  0
    4.6290    1.4330   19.3170 C   0  0  0  0  0  0  0  0  0  0  0  0
    5.1420    1.3620   17.9330 C   0  0  0  0  0  0  0  0  0  0  0  0
    6.3110    0.6400   17.7190 N   0  0  0  0  0  0  0  0  0  0  0  0
    6.9530    0.0360   18.7460 C   0  0  0  0  0  0  0  0  0  0  0  0
  1  2  2  0
  2  3  1  0
  3  4  1  0
  4  5  1  0
  5  6  1  0
  6  7  1  0
  7  8  2  0
  8  9  1  0
  9 10  2  0
 10 11  1  0
 10 12  1  0
  7 13  1  0
 12 13  2  0
  2 14  1  0
 14 15  1  0
 15 16  2  0
 16 17  1  0
 17 18  2  0
 18 19  1  0
 15 20  1  0
 19 20  2  0
M  END
