pyridine_urea_3722
     RDKit          3D

 21 22  0  0  0  0  0  0  0  0999 V2000
   11.4960   -2.1690   21.7310 C   0  0  0  0  0  0  0  0  0  0  0  0
   12.9650   -2.0990   21.3440 C   0  0  0  0  0  0  0  0  0  0  0  0
   13.5450   -1.1320   22.2090 O   0  0  0  0  0  0  0  0  0  0  0  0
   13.1850   -1.3560   23.5530 C   0  0  0  0  0  0  0  0  0  0  0  0
   13.4640   -2.5460   24.1730 O   0  0  0  0  0  0  0  0  0  0  0  0
   12.4750   -0.2540   24.2930 C   0  0  2  0  0  0  0  0  0  0  0  0
   11.1200   -0.6340   24.5980 C   0  0  0  0  0  0  0  0  0  0  0  0
   10.4350    0.4630   23.8450 C   0  0  1  0  0  0  0  0  0  0  0  0
   10.2410    0.8730   22.5840 F   0  0  0  0  0  0  0  0  0  0  0  0
    9.7840   -0.7900   23.2780 C   0  0  0  0  0  0  0  0  0  0  0  0
    8.4360   -0.4670   22.8150 N   0  0  0  0  0  0  0  0  0  0  0  0
    8.2080    0.1270   21.5890 C   0  0  0  0  0  0  0  0  0  0  0  0
    8.8410    1.1110   21.1730 O   0  0  0  0  0  0  0  0  0  0  0  0
    7.1870   -0.5170   20.9470 N   0  0  0  0  0  0  0  0  0  0  0  0
    6.4240    0.1310   19.9880 C   0  0  0  0  0  0  0  0  0  0  0  0
    5.2550    0.8260   20.2110 C   0  0  0  0  0  0  0  0  0  0  0  0
    4.6110    1.4470   19.1630 C   0  0  0  0  0  0  0  0  0  0  0  0
    5.1530    1.3600   17.8970 C   0  0  0  0  0  0  0  0  0  0  0  0
    6.2820    0.6830   17.6460 N   0  0  0  0  0  0  0  0  0  0  0  0
    6.8880    0.0850   18.6900 C   0  0  0  0  0  0  0  0  0  0  0  0
   11.9160    1.0450   23.5900 C   0  0  0  0  0  0  0  0  0  0  0  0
  1  2  1  0
  2  3  1  0
  3  4  1  0
  4  5  2  0
  6  4  1  6
  6  7  1  0
  7  8  1  0
  8  9  1  6
  8 10  1  0
 10 11  1  0
 11 12  1  0
 12 13  2  0
 12 14  1  0
 14 15  1  0
 15 16  2  0
 16 17  1  0
 17 18  2  0
 18 19  1  0
 15 20  1  0
 19 20  2  0
  6 21  1  0
  8 21  1  0
M  END
