pyridine_urea_10168
     RDKit          3D

 23 25  0  0  0  0  0  0  0  0999 V2000
    8.5550    1.0980   21.3720 O   0  0  0  0  0  0  0  0  0  0  0  0
    7.9730    0.1070   21.8090 C   0  0  0  0  0  0  0  0  0  0  0  0
    8.3410   -0.5900   22.9220 N   0  0  0  0  0  0  0  0  0  0  0  0
    9.5280   -1.2690   22.8650 C   0  0  0  0  0  0  0  0  0  0  0  0
   10.1740   -1.1280   21.6660 C   0  0  0  0  0  0  0  0  0  0  0  0
   11.4080   -1.6580   21.6270 C   0  0  0  0  0  0  0  0  0  0  0  0
   12.3660   -2.1290   20.7960 C   0  0  0  0  0  0  0  0  0  0  0  0
   13.4630   -2.5730   21.2700 N   0  0  0  0  0  0  0  0  0  0  0  0
   13.2160   -2.3920   22.5090 C   0  0  0  0  0  0  0  0  0  0  0  0
   13.6720   -2.5100   23.9480 C   0  0  0  0  0  0  0  0  0  0  0  0
   12.7390   -2.0610   24.9790 C   0  0  0  0  0  0  0  0  0  0  0  0
   13.3990   -2.2700   26.1080 F   0  0  0  0  0  0  0  0  0  0  0  0
   11.3630   -1.5150   24.6260 C   0  0  0  0  0  0  0  0  0  0  0  0
   10.9270   -1.3030   25.7800 F   0  0  0  0  0  0  0  0  0  0  0  0
   12.1910   -1.8730   23.9220 C   0  0  0  0  0  0  0  0  0  0  0  0
   12.1380   -1.9080   22.7550 C   0  0  0  0  0  0  0  0  0  0  0  0
    6.8760   -0.4600   21.2180 N   0  0  0  0  0  0  0  0  0  0  0  0
    6.3440    0.1220   20.0040 C   0  0  0  0  0  0  0  0  0  0  0  0
    5.1670    0.8690   20.1730 C   0  0  0  0  0  0  0  0  0  0  0  0
    4.5370    1.5160   19.1080 C   0  0  0  0  0  0  0  0  0  0  0  0
    5.1280    1.3920   17.8610 C   0  0  0  0  0  0  0  0  0  0  0  0
    6.2740    0.6610   17.6770 N   0  0  0  0  0  0  0  0  0  0  0  0
    6.8860    0.0190   18.7430 C   0  0  0  0  0  0  0  0  0  0  0  0
  1  2  2  0
  2  3  1  0
  3  4  1  0
  4  5  1  0
  5  6  1  0
  6  7  2  0
  7  8  1  0
  8  9  1  0
  9 10  1  0
 10 11  2  0
 11 12  1  0
 11 13  1  0
 13 14  1  0
 13 15  2  0
  6 16  1  0
  9 16  2  0
 15 16  1  0
  2 17  1  0
 17 18  1  0
 18 19  2  0
 19 20  1  0
 20 21  2  0
 21 22  1  0
 18 23  1  0
 22 23  2  0
M  END
