pyridine_urea_3641
     RDKit          3D

 14 14  0  0  0  0  0  0  0  0999 V2000
   12.3450    0.3150   23.3190 C   0  0  0  0  0  0  0  0  0  0  0  0
   10.8610   -0.1000   23.4820 C   0  0  0  0  0  0  0  0  0  0  0  0
   10.4330   -0.8530   22.2740 C   0  0  1  0  0  0  0  0  0  0  0  0
   11.3510   -2.0090   21.9680 C   0  0  0  0  0  0  0  0  0  0  0  0
    9.1340   -1.1830   22.2220 N   0  0  0  0  0  0  0  0  0  0  0  0
    8.3830   -0.2460   21.5390 C   0  0  0  0  0  0  0  0  0  0  0  0
    8.7450    0.9160   21.4230 O   0  0  0  0  0  0  0  0  0  0  0  0
    7.1890   -0.7720   21.0070 N   0  0  0  0  0  0  0  0  0  0  0  0
    6.4490   -0.0750   20.0640 C   0  0  0  0  0  0  0  0  0  0  0  0
    5.1490    0.6800   20.3410 C   0  0  0  0  0  0  0  0  0  0  0  0
    4.5900    1.3270   19.2320 C   0  0  0  0  0  0  0  0  0  0  0  0
    5.2060    1.2600   17.9860 C   0  0  0  0  0  0  0  0  0  0  0  0
    6.3440    0.5910   17.7500 N   0  0  0  0  0  0  0  0  0  0  0  0
    6.9310   -0.0550   18.7730 C   0  0  0  0  0  0  0  0  0  0  0  0
  1  2  1  0
  2  3  1  0
  3  4  1  1
  3  5  1  0
  5  6  1  0
  6  7  2  0
  6  8  1  0
  8  9  1  0
  9 10  2  0
 10 11  1  0
 11 12  2  0
 12 13  1  0
  9 14  1  0
 13 14  2  0
M  END
