pyridine_urea_4876
     RDKit          3D

 21 23  0  0  0  0  0  0  0  0999 V2000
    8.2090   -1.4400   20.0740 O   0  0  0  0  0  0  0  0  0  0  0  0
    8.0850   -0.7820   21.0290 C   0  0  0  0  0  0  0  0  0  0  0  0
    6.8720   -0.2740   21.2810 N   0  0  0  0  0  0  0  0  0  0  0  0
    6.3410    0.2800   20.0720 C   0  0  0  0  0  0  0  0  0  0  0  0
    5.0850    1.1330   20.2140 C   0  0  0  0  0  0  0  0  0  0  0  0
    4.5210    1.7170   19.0900 C   0  0  0  0  0  0  0  0  0  0  0  0
    5.1340    1.4980   17.8590 C   0  0  0  0  0  0  0  0  0  0  0  0
    6.2570    0.7180   17.7670 N   0  0  0  0  0  0  0  0  0  0  0  0
    6.8780    0.0990   18.8460 C   0  0  0  0  0  0  0  0  0  0  0  0
    9.0720   -0.4220   21.8490 N   0  0  0  0  0  0  0  0  0  0  0  0
   10.0650    0.0400   22.5780 C   0  0  0  0  0  0  0  0  0  0  0  0
   10.0150    1.3430   23.0030 C   0  0  0  0  0  0  0  0  0  0  0  0
    8.8510    2.0630   22.8020 C   0  0  0  0  0  0  0  0  0  0  0  0
    8.9140    3.2450   22.0850 C   0  0  0  0  0  0  0  0  0  0  0  0
    7.7460    3.9960   21.8850 C   0  0  0  0  0  0  0  0  0  0  0  0
    6.4690    3.4740   22.4670 C   0  0  0  0  0  0  0  0  0  0  0  0
    6.3840    2.3030   23.1850 C   0  0  0  0  0  0  0  0  0  0  0  0
    4.8980    1.7400   23.8500 Cl  0  0  0  0  0  0  0  0  0  0  0  0
    7.6250    1.6040   23.3370 C   0  0  0  0  0  0  0  0  0  0  0  0
   11.4810   -0.6180   22.5790 C   0  0  0  0  0  0  0  0  0  0  0  0
   10.6490   -1.0130   23.5820 C   0  0  0  0  0  0  0  0  0  0  0  0
  1  2  2  0
  2  3  1  0
  3  4  1  0
  4  5  2  0
  5  6  1  0
  6  7  2  0
  7  8  1  0
  4  9  1  0
  8  9  2  0
  2 10  1  0
 11 10  1  0
 11 12  1  0
 12 13  1  0
 13 14  2  0
 14 15  1  0
 15 16  2  0
 16 17  1  0
 17 18  1  0
 13 19  1  0
 17 19  2  0
 11 20  1  0
 11 21  1  0
 20 21  1  0
M  END
