pyridine_urea_5578
     RDKit          3D

 17 18  0  0  0  0  0  0  0  0999 V2000
    8.9050    1.1460   21.1940 O   0  0  0  0  0  0  0  0  0  0  0  0
    8.4360    0.0510   21.5430 C   0  0  0  0  0  0  0  0  0  0  0  0
    9.1000   -0.8130   22.3850 N   0  0  0  0  0  0  0  0  0  0  0  0
   10.3970   -0.4230   22.9030 C   0  0  0  0  0  0  0  0  0  0  0  0
   11.5900   -1.2920   22.3810 C   0  0  1  0  0  0  0  0  0  0  0  0
   12.8680   -0.7650   22.5350 C   0  0  0  0  0  0  0  0  0  0  0  0
   13.2600   -0.9920   23.8970 N   0  0  0  0  0  0  0  0  0  0  0  0
   12.9660   -2.1790   24.5100 C   0  0  0  0  0  0  0  0  0  0  0  0
   11.6540   -2.5300   24.2080 C   0  0  0  0  0  0  0  0  0  0  0  0
   11.5310   -2.5970   22.9860 O   0  0  0  0  0  0  0  0  0  0  0  0
    7.2140   -0.4740   21.1820 N   0  0  0  0  0  0  0  0  0  0  0  0
    6.5200    0.1300   20.0600 C   0  0  0  0  0  0  0  0  0  0  0  0
    5.2310    0.9060   20.3980 C   0  0  0  0  0  0  0  0  0  0  0  0
    4.5470    1.5470   19.1880 C   0  0  0  0  0  0  0  0  0  0  0  0
    5.1930    1.3590   17.8330 C   0  0  0  0  0  0  0  0  0  0  0  0
    6.3410    0.6300   17.7030 N   0  0  0  0  0  0  0  0  0  0  0  0
    6.9930    0.0240   18.7640 C   0  0  0  0  0  0  0  0  0  0  0  0
  1  2  2  0
  2  3  1  0
  3  4  1  0
  5  4  1  1
  5  6  1  0
  6  7  1  0
  7  8  1  0
  8  9  1  0
  5 10  1  0
  9 10  1  0
  2 11  1  0
 11 12  1  0
 12 13  2  0
 13 14  1  0
 14 15  2  0
 15 16  1  0
 12 17  1  0
 16 17  2  0
M  END
