pyridine_urea_1882
     RDKit          3D

 18 19  0  0  0  0  0  0  0  0999 V2000
    8.9900    1.2210   21.2210 O   0  0  0  0  0  0  0  0  0  0  0  0
    8.3610    0.2720   21.7120 C   0  0  0  0  0  0  0  0  0  0  0  0
    8.5230   -0.2180   22.9870 N   0  0  0  0  0  0  0  0  0  0  0  0
    9.4030   -1.2120   23.4390 C   0  0  0  0  0  0  0  0  0  0  0  0
   10.7300   -1.0610   23.1240 C   0  0  1  0  0  0  0  0  0  0  0  0
   10.9300   -1.8760   22.0840 F   0  0  0  0  0  0  0  0  0  0  0  0
   11.1800    0.1970   22.9080 C   0  0  0  0  0  0  0  0  0  0  0  0
   12.3590   -0.1510   23.4610 C   0  0  2  0  0  0  0  0  0  0  0  0
   13.3780   -0.6300   22.6830 C   0  0  0  0  0  0  0  0  0  0  0  0
   12.8900   -1.1640   21.7090 O   0  0  0  0  0  0  0  0  0  0  0  0
   11.6980   -1.3950   24.1110 C   0  0  0  0  0  0  0  0  0  0  0  0
    7.3670   -0.4320   21.0660 N   0  0  0  0  0  0  0  0  0  0  0  0
    6.5170    0.1850   20.0510 C   0  0  0  0  0  0  0  0  0  0  0  0
    5.3490    0.8810   20.3040 C   0  0  0  0  0  0  0  0  0  0  0  0
    4.6400    1.4420   19.2470 C   0  0  0  0  0  0  0  0  0  0  0  0
    5.1460    1.2740   17.9720 C   0  0  0  0  0  0  0  0  0  0  0  0
    6.2630    0.5970   17.6980 N   0  0  0  0  0  0  0  0  0  0  0  0
    6.9240    0.0670   18.7390 C   0  0  0  0  0  0  0  0  0  0  0  0
  1  2  2  0
  2  3  1  0
  3  4  1  0
  4  5  1  0
  5  6  1  6
  5  7  1  0
  7  8  1  0
  8  9  1  6
  9 10  1  0
  5 11  1  0
  8 11  1  0
  2 12  1  0
 12 13  1  0
 13 14  2  0
 14 15  1  0
 15 16  2  0
 16 17  1  0
 13 18  1  0
 17 18  2  0
M  END
