pyridine_urea_2792
     RDKit          3D

 22 24  0  0  0  0  0  0  0  0999 V2000
    8.8280    0.4930   21.3770 O   0  0  0  0  0  0  0  0  0  0  0  0
    8.0580   -0.4130   21.6740 C   0  0  0  0  0  0  0  0  0  0  0  0
    8.2050   -1.2340   22.7670 N   0  0  0  0  0  0  0  0  0  0  0  0
    9.5050   -1.7760   23.0610 C   0  0  0  0  0  0  0  0  0  0  0  0
   10.5610   -0.6530   23.2280 C   0  0  0  0  0  0  0  0  0  0  0  0
   11.8140    0.3110   23.2390 C   0  0  0  0  0  0  0  0  0  0  0  0
   13.3300    0.3130   22.6650 C   0  0  0  0  0  0  0  0  0  0  0  0
   13.2950   -0.8040   22.0980 C   0  0  0  0  0  0  0  0  0  0  0  0
   12.2680   -1.9100   21.9240 C   0  0  0  0  0  0  0  0  0  0  0  0
   10.9380   -2.0710   22.3560 C   0  0  0  0  0  0  0  0  0  0  0  0
   11.2900   -1.1790   22.6840 C   0  0  0  0  0  0  0  0  0  0  0  0
   11.8760   -1.1400   23.9970 C   0  0  0  0  0  0  0  0  0  0  0  0
   12.1980    0.2120   23.0640 S   0  0  0  0  0  0  0  0  0  0  0  0
   11.0300    0.5730   22.2800 O   0  0  0  0  0  0  0  0  0  0  0  0
   12.9440    1.1970   23.7660 O   0  0  0  0  0  0  0  0  0  0  0  0
    6.9280   -0.7750   21.0060 N   0  0  0  0  0  0  0  0  0  0  0  0
    6.3630   -0.0600   19.9550 C   0  0  0  0  0  0  0  0  0  0  0  0
    5.0770    0.7130   20.1810 C   0  0  0  0  0  0  0  0  0  0  0  0
    4.5460    1.4240   19.1160 C   0  0  0  0  0  0  0  0  0  0  0  0
    5.2160    1.3940   17.8960 C   0  0  0  0  0  0  0  0  0  0  0  0
    6.3560    0.7080   17.6880 N   0  0  0  0  0  0  0  0  0  0  0  0
    6.8990    0.0040   18.6980 C   0  0  0  0  0  0  0  0  0  0  0  0
  1  2  2  0
  2  3  1  0
  3  4  1  0
  4  5  1  0
  5  6  2  0
  6  7  1  0
  7  8  2  0
  8  9  1  0
  5 10  1  0
  9 10  2  0
  9 11  1  0
 11 12  1  0
  8 13  1  0
 13 12  1  0
 13 14  2  0
 13 15  2  0
  2 16  1  0
 16 17  1  0
 17 18  2  0
 18 19  1  0
 19 20  2  0
 20 21  1  0
 17 22  1  0
 21 22  2  0
M  END
