pyridine_urea_11345
     RDKit          3D

 18 19  0  0  0  0  0  0  0  0999 V2000
    9.7460   -0.4960   24.2970 C   0  0  0  0  0  0  0  0  0  0  0  0
   10.1150   -1.1720   23.3720 C   0  0  1  0  0  0  0  0  0  0  0  0
    8.9870   -1.4440   22.4660 N   0  0  0  0  0  0  0  0  0  0  0  0
    8.4430   -0.3560   21.6570 C   0  0  0  0  0  0  0  0  0  0  0  0
    9.1050    0.8920   21.4700 O   0  0  0  0  0  0  0  0  0  0  0  0
    7.1560   -0.7120   21.0990 N   0  0  0  0  0  0  0  0  0  0  0  0
    6.5690   -0.0880   20.0510 C   0  0  0  0  0  0  0  0  0  0  0  0
    5.4410    0.6250   20.3620 C   0  0  0  0  0  0  0  0  0  0  0  0
    4.6380    1.4150   19.3240 C   0  0  0  0  0  0  0  0  0  0  0  0
    5.1470    1.3760   17.9440 C   0  0  0  0  0  0  0  0  0  0  0  0
    6.2900    0.6200   17.7480 N   0  0  0  0  0  0  0  0  0  0  0  0
    6.9940   -0.0980   18.7400 C   0  0  0  0  0  0  0  0  0  0  0  0
   11.2080   -0.5640   22.4410 C   0  0  2  0  0  0  0  0  0  0  0  0
   12.2140   -1.3330   22.9640 C   0  0  0  0  0  0  0  0  0  0  0  0
   12.7270   -0.6120   23.9960 C   0  0  0  0  0  0  0  0  0  0  0  0
   11.9550    0.5250   24.0510 C   0  0  0  0  0  0  0  0  0  0  0  0
   11.4300    0.8120   22.6720 C   0  0  2  0  0  0  0  0  0  0  0  0
   10.2350    1.6470   22.7190 O   0  0  0  0  0  0  0  0  0  0  0  0
  2  1  1  1
  2  3  1  0
  3  4  1  0
  4  5  2  0
  4  6  1  0
  6  7  1  0
  7  8  2  0
  8  9  1  0
  9 10  2  0
 10 11  1  0
  7 12  1  0
 11 12  2  0
  2 13  1  0
 13 14  1  1
 14 15  1  0
 15 16  1  0
 13 17  1  0
 16 17  1  0
 17 18  1  1
M  END
