pyridine_urea_5028
     RDKit          3D

 20 22  0  0  0  0  0  0  0  0999 V2000
    8.7910    1.3640   21.0990 O   0  0  0  0  0  0  0  0  0  0  0  0
    8.2550    0.3650   21.5920 C   0  0  0  0  0  0  0  0  0  0  0  0
    8.6070   -0.1980   22.7790 N   0  0  0  0  0  0  0  0  0  0  0  0
    9.8550   -0.7440   23.0200 C   0  0  0  0  0  0  0  0  0  0  0  0
   10.6560   -0.2210   24.0350 C   0  0  2  0  0  0  0  0  0  0  0  0
   10.5790    0.9270   24.1010 O   0  0  0  0  0  0  0  0  0  0  0  0
   11.0260    1.3020   23.0050 C   0  0  0  0  0  0  0  0  0  0  0  0
   12.2060    0.5980   22.9720 C   0  0  0  0  0  0  0  0  0  0  0  0
   13.3000   -0.2760   23.0750 C   0  0  0  0  0  0  0  0  0  0  0  0
   12.2660   -0.8890   23.8310 C   0  0  0  0  0  0  0  0  0  0  0  0
   12.6960   -2.1360   24.4350 C   0  0  0  0  0  0  0  0  0  0  0  0
   13.3630   -1.1980   23.6340 C   0  0  0  0  0  0  0  0  0  0  0  0
   11.9810   -0.7120   23.8470 C   0  0  0  0  0  0  0  0  0  0  0  0
    7.2130   -0.3350   21.0420 N   0  0  0  0  0  0  0  0  0  0  0  0
    6.4940    0.2070   19.9900 C   0  0  0  0  0  0  0  0  0  0  0  0
    5.3340    0.9300   20.2730 C   0  0  0  0  0  0  0  0  0  0  0  0
    4.6210    1.5040   19.2200 C   0  0  0  0  0  0  0  0  0  0  0  0
    5.1090    1.3220   17.9360 C   0  0  0  0  0  0  0  0  0  0  0  0
    6.2100    0.6230   17.6360 N   0  0  0  0  0  0  0  0  0  0  0  0
    6.8660    0.0870   18.6730 C   0  0  0  0  0  0  0  0  0  0  0  0
  1  2  2  0
  2  3  1  0
  3  4  1  0
  5  4  1  6
  5  6  1  0
  6  7  1  0
  7  8  1  0
  8  9  1  0
  9 10  2  0
 10 11  1  0
 11 12  2  0
  5 13  1  0
  8 13  2  0
 12 13  1  0
  2 14  1  0
 14 15  1  0
 15 16  2  0
 16 17  1  0
 17 18  2  0
 18 19  1  0
 15 20  1  0
 19 20  2  0
M  END
