pyridine_urea_11044
     RDKit          3D

 19 19  0  0  0  0  0  0  0  0999 V2000
   14.1430    1.7660   21.7830 C   0  0  0  0  0  0  0  0  0  0  0  0
   12.8500    1.7680   22.3690 N   0  0  0  0  0  0  0  0  0  0  0  0
   12.6250    0.5800   23.1020 C   0  0  0  0  0  0  0  0  0  0  0  0
   11.6270   -0.3760   22.7750 C   0  0  0  0  0  0  0  0  0  0  0  0
   10.3140   -0.1940   23.2140 C   0  0  0  0  0  0  0  0  0  0  0  0
    9.3140   -0.7970   22.3370 N   0  0  0  0  0  0  0  0  0  0  0  0
    8.5750    0.0170   21.4890 C   0  0  0  0  0  0  0  0  0  0  0  0
    8.9820    1.1560   21.2410 O   0  0  0  0  0  0  0  0  0  0  0  0
    7.4200   -0.5790   21.0300 N   0  0  0  0  0  0  0  0  0  0  0  0
    6.5980    0.0570   20.0850 C   0  0  0  0  0  0  0  0  0  0  0  0
    5.3140    0.8060   20.3680 C   0  0  0  0  0  0  0  0  0  0  0  0
    4.5830    1.4450   19.2040 C   0  0  0  0  0  0  0  0  0  0  0  0
    5.1550    1.2890   17.9620 C   0  0  0  0  0  0  0  0  0  0  0  0
    6.2990    0.6050   17.7330 N   0  0  0  0  0  0  0  0  0  0  0  0
    6.9690    0.0230   18.7580 C   0  0  0  0  0  0  0  0  0  0  0  0
   12.3040    3.3090   22.8560 S   0  0  0  0  0  0  0  0  0  0  0  0
   12.1990    4.2730   21.3730 C   0  0  0  0  0  0  0  0  0  0  0  0
   13.3610    4.0840   23.4440 O   0  0  0  0  0  0  0  0  0  0  0  0
   10.9870    3.2210   23.4520 O   0  0  0  0  0  0  0  0  0  0  0  0
  1  2  1  0
  2  3  1  0
  3  4  1  0
  4  5  1  0
  5  6  1  0
  6  7  1  0
  7  8  2  0
  7  9  1  0
  9 10  1  0
 10 11  2  0
 11 12  1  0
 12 13  2  0
 13 14  1  0
 10 15  1  0
 14 15  2  0
 16  2  1  0
 16 17  1  0
 16 18  2  0
 16 19  2  0
M  END
