pyridine_urea_4836
     RDKit          3D

 21 22  0  0  0  0  0  0  0  0999 V2000
    8.3780    1.3670   20.9470 O   0  0  0  0  0  0  0  0  0  0  0  0
    8.3400    0.1880   21.3030 C   0  0  0  0  0  0  0  0  0  0  0  0
    7.2430   -0.5810   21.0570 N   0  0  0  0  0  0  0  0  0  0  0  0
    6.5610   -0.0020   19.9490 C   0  0  0  0  0  0  0  0  0  0  0  0
    5.2960    0.8090   20.2720 C   0  0  0  0  0  0  0  0  0  0  0  0
    4.5950    1.4330   19.2480 C   0  0  0  0  0  0  0  0  0  0  0  0
    5.0870    1.2900   17.9550 C   0  0  0  0  0  0  0  0  0  0  0  0
    6.2120    0.5480   17.7130 N   0  0  0  0  0  0  0  0  0  0  0  0
    6.9610   -0.1050   18.6860 C   0  0  0  0  0  0  0  0  0  0  0  0
    9.3750   -0.4180   21.9150 N   0  0  0  0  0  0  0  0  0  0  0  0
   10.5450   -0.7810   22.4320 C   0  0  0  0  0  0  0  0  0  0  0  0
   11.4480   -1.5410   21.6870 C   0  0  0  0  0  0  0  0  0  0  0  0
   12.6850   -1.9160   22.1180 C   0  0  0  0  0  0  0  0  0  0  0  0
   13.0780   -1.5560   23.3460 C   0  0  0  0  0  0  0  0  0  0  0  0
   12.2160   -0.8370   24.1020 C   0  0  0  0  0  0  0  0  0  0  0  0
   12.7480   -0.4890   25.5450 Cl  0  0  0  0  0  0  0  0  0  0  0  0
   10.9000   -0.4140   23.6640 C   0  0  0  0  0  0  0  0  0  0  0  0
   10.1690    0.2470   24.4030 O   0  0  0  0  0  0  0  0  0  0  0  0
    8.9250   -0.3960   24.7400 C   0  0  0  0  0  0  0  0  0  0  0  0
    9.2030   -1.6330   25.1780 F   0  0  0  0  0  0  0  0  0  0  0  0
    8.3560    0.2320   25.7840 F   0  0  0  0  0  0  0  0  0  0  0  0
  1  2  2  0
  2  3  1  0
  3  4  1  0
  4  5  2  0
  5  6  1  0
  6  7  2  0
  7  8  1  0
  4  9  1  0
  8  9  2  0
  2 10  1  0
 10 11  1  0
 11 12  2  0
 12 13  1  0
 13 14  2  0
 14 15  1  0
 15 16  1  0
 11 17  1  0
 15 17  2  0
 17 18  1  0
 18 19  1  0
 19 20  1  0
 19 21  1  0
M  END
