pyridine_urea_13095
     RDKit          3D

 18 19  0  0  0  0  0  0  0  0999 V2000
    8.9020    1.1680   21.2120 O   0  0  0  0  0  0  0  0  0  0  0  0
    8.4050    0.0910   21.5790 C   0  0  0  0  0  0  0  0  0  0  0  0
    8.8630   -0.7200   22.5790 N   0  0  0  0  0  0  0  0  0  0  0  0
   10.1250   -0.6210   23.1830 C   0  0  0  0  0  0  0  0  0  0  0  0
   10.4550    0.6200   23.7320 C   0  0  0  0  0  0  0  0  0  0  0  0
   11.8160    0.8620   23.6770 C   0  0  0  0  0  0  0  0  0  0  0  0
   12.5010   -0.3200   23.6550 C   0  0  0  0  0  0  0  0  0  0  0  0
   13.1190   -0.9090   22.3570 C   0  0  0  0  0  0  0  0  0  0  0  0
   13.5150   -1.9670   23.2390 N   0  0  0  0  0  0  0  0  0  0  0  0
   13.2530   -2.0460   24.6170 C   0  0  0  0  0  0  0  0  0  0  0  0
   12.5970   -0.9610   24.8400 N   0  0  0  0  0  0  0  0  0  0  0  0
    7.2700   -0.4510   21.0340 N   0  0  0  0  0  0  0  0  0  0  0  0
    6.5600    0.1380   19.9950 C   0  0  0  0  0  0  0  0  0  0  0  0
    5.4100    0.8710   20.2610 C   0  0  0  0  0  0  0  0  0  0  0  0
    4.6910    1.4830   19.2680 C   0  0  0  0  0  0  0  0  0  0  0  0
    5.1420    1.3510   17.9670 C   0  0  0  0  0  0  0  0  0  0  0  0
    6.2440    0.6420   17.6670 N   0  0  0  0  0  0  0  0  0  0  0  0
    6.9330    0.0490   18.6720 C   0  0  0  0  0  0  0  0  0  0  0  0
  1  2  2  0
  2  3  1  0
  3  4  1  0
  4  5  1  0
  5  6  1  0
  6  7  1  0
  7  8  2  0
  8  9  1  0
  9 10  1  0
  7 11  1  0
 10 11  2  0
  2 12  1  0
 12 13  1  0
 13 14  2  0
 14 15  1  0
 15 16  2  0
 16 17  1  0
 13 18  1  0
 17 18  2  0
M  END
