pyridine_urea_14867
     RDKit          3D

 19 21  0  0  0  0  0  0  0  0999 V2000
    8.8220    0.7810   21.1480 O   0  0  0  0  0  0  0  0  0  0  0  0
    8.3090   -0.2530   21.5270 C   0  0  0  0  0  0  0  0  0  0  0  0
    8.8650   -1.0630   22.4920 N   0  0  0  0  0  0  0  0  0  0  0  0
   10.1920   -0.9340   22.9490 C   0  0  0  0  0  0  0  0  0  0  0  0
   10.5880   -0.0010   23.9120 C   0  0  0  0  0  0  0  0  0  0  0  0
    9.8930   -0.0140   24.9360 O   0  0  0  0  0  0  0  0  0  0  0  0
   11.9780    0.0570   24.0220 C   0  0  0  0  0  0  0  0  0  0  0  0
   12.6140   -0.5130   23.1400 C   0  0  0  0  0  0  0  0  0  0  0  0
   12.6850    0.9330   23.0790 C   0  0  0  0  0  0  0  0  0  0  0  0
   10.3520    1.4290   23.4060 C   0  0  0  0  0  0  0  0  0  0  0  0
    9.2170    1.7980   23.0090 C   0  0  0  0  0  0  0  0  0  0  0  0
    9.6050    2.5570   24.1970 C   0  0  0  0  0  0  0  0  0  0  0  0
    7.1210   -0.7180   21.0370 N   0  0  0  0  0  0  0  0  0  0  0  0
    6.4310   -0.0370   20.0360 C   0  0  0  0  0  0  0  0  0  0  0  0
    5.2300    0.6590   20.2550 C   0  0  0  0  0  0  0  0  0  0  0  0
    4.5590    1.3990   19.1340 C   0  0  0  0  0  0  0  0  0  0  0  0
    5.1660    1.3670   17.8770 C   0  0  0  0  0  0  0  0  0  0  0  0
    6.3490    0.6550   17.7080 N   0  0  0  0  0  0  0  0  0  0  0  0
    6.9060    0.0100   18.7450 C   0  0  0  0  0  0  0  0  0  0  0  0
  1  2  2  0
  2  3  1  0
  3  4  1  0
  4  5  1  0
  5  6  1  0
  5  7  1  0
  7  8  1  0
  7  9  1  0
  8  9  1  0
  5 10  1  0
 10 11  1  0
 10 12  1  0
 11 12  1  0
  2 13  1  0
 13 14  1  0
 14 15  2  0
 15 16  1  0
 16 17  2  0
 17 18  1  0
 14 19  1  0
 18 19  2  0
M  END
