pyridine_urea_4333
     RDKit          3D

 24 25  0  0  0  0  0  0  0  0999 V2000
   11.7450   -1.9660   21.7760 C   0  0  0  0  0  0  0  0  0  0  0  0
   11.8230   -1.0210   22.9620 C   0  0  0  0  0  0  0  0  0  0  0  0
   12.8860    0.0300   22.6930 C   0  0  0  0  0  0  0  0  0  0  0  0
   12.2300   -1.8570   24.1890 C   0  0  0  0  0  0  0  0  0  0  0  0
   10.4440   -0.3360   23.1600 C   0  0  2  0  0  0  0  0  0  0  0  0
    9.9300   -0.3880   24.5870 C   0  0  0  0  0  0  0  0  0  0  0  0
    8.7280   -0.1350   24.6570 O   0  0  0  0  0  0  0  0  0  0  0  0
    8.3270    0.2340   25.9810 C   0  0  0  0  0  0  0  0  0  0  0  0
    9.2920    0.0910   26.9710 C   0  0  0  0  0  0  0  0  0  0  0  0
    8.9990    0.4260   28.3020 C   0  0  0  0  0  0  0  0  0  0  0  0
    7.7290    0.9030   28.6170 C   0  0  0  0  0  0  0  0  0  0  0  0
    6.7700    1.0430   27.6240 C   0  0  0  0  0  0  0  0  0  0  0  0
    7.0540    0.7140   26.3060 C   0  0  0  0  0  0  0  0  0  0  0  0
    6.0340    0.8970   25.4330 F   0  0  0  0  0  0  0  0  0  0  0  0
    9.3660   -0.8400   22.3070 N   0  0  0  0  0  0  0  0  0  0  0  0
    8.6430    0.0340   21.5100 C   0  0  0  0  0  0  0  0  0  0  0  0
    9.0750    1.3150   21.2290 O   0  0  0  0  0  0  0  0  0  0  0  0
    7.4600   -0.5100   21.0500 N   0  0  0  0  0  0  0  0  0  0  0  0
    6.6760    0.0600   20.0360 C   0  0  0  0  0  0  0  0  0  0  0  0
    5.4420    0.8240   20.3780 C   0  0  0  0  0  0  0  0  0  0  0  0
    4.7000    1.3980   19.3510 C   0  0  0  0  0  0  0  0  0  0  0  0
    5.1430    1.2310   18.0540 C   0  0  0  0  0  0  0  0  0  0  0  0
    6.2430    0.5400   17.7170 N   0  0  0  0  0  0  0  0  0  0  0  0
    6.9770   -0.0260   18.6990 C   0  0  0  0  0  0  0  0  0  0  0  0
  2  1  1  0
  2  3  1  0
  2  4  1  0
  2  5  1  0
  5  6  1  1
  6  7  1  0
  7  8  1  0
  8  9  2  0
  9 10  1  0
 10 11  2  0
 11 12  1  0
  8 13  1  0
 12 13  2  0
 13 14  1  0
  5 15  1  0
 15 16  1  0
 16 17  2  0
 16 18  1  0
 18 19  1  0
 19 20  2  0
 20 21  1  0
 21 22  2  0
 22 23  1  0
 19 24  1  0
 23 24  2  0
M  END
