pyridine_urea_8021
     RDKit          3D

 25 27  0  0  0  0  0  0  0  0999 V2000
    8.8350    1.0560   21.2090 O   0  0  0  0  0  0  0  0  0  0  0  0
    8.1490    0.0900   21.5870 C   0  0  0  0  0  0  0  0  0  0  0  0
    7.0950   -0.4900   20.9470 N   0  0  0  0  0  0  0  0  0  0  0  0
    6.4290    0.1400   19.9180 C   0  0  0  0  0  0  0  0  0  0  0  0
    5.2620    0.8560   20.1920 C   0  0  0  0  0  0  0  0  0  0  0  0
    4.6040    1.5090   19.1540 C   0  0  0  0  0  0  0  0  0  0  0  0
    5.1440    1.4160   17.8910 C   0  0  0  0  0  0  0  0  0  0  0  0
    6.2570    0.7220   17.6190 N   0  0  0  0  0  0  0  0  0  0  0  0
    6.8720    0.1030   18.6320 C   0  0  0  0  0  0  0  0  0  0  0  0
    8.3380   -0.5670   22.7680 N   0  0  0  0  0  0  0  0  0  0  0  0
    9.6580   -0.5710   23.3610 C   0  0  2  0  0  0  0  0  0  0  0  0
   10.1010    0.8750   23.5040 C   0  0  0  0  0  0  0  0  0  0  0  0
   10.7600    2.1440   23.5550 C   0  0  0  0  0  0  0  0  0  0  0  0
   12.0540    2.5360   23.2740 C   0  0  0  0  0  0  0  0  0  0  0  0
   12.9700    1.6530   22.8790 C   0  0  0  0  0  0  0  0  0  0  0  0
   12.5520    0.4030   22.7740 C   0  0  0  0  0  0  0  0  0  0  0  0
   11.2300    0.1130   23.0720 C   0  0  0  0  0  0  0  0  0  0  0  0
   10.6180   -1.4800   22.5800 C   0  0  1  0  0  0  0  0  0  0  0  0
   11.0220   -1.1660   21.3530 O   0  0  0  0  0  0  0  0  0  0  0  0
   11.7280   -1.6960   23.3170 C   0  0  0  0  0  0  0  0  0  0  0  0
   12.6420   -2.5960   22.8890 C   0  0  0  0  0  0  0  0  0  0  0  0
   13.7310   -2.8410   23.6640 C   0  0  0  0  0  0  0  0  0  0  0  0
   13.8930   -2.1820   24.8570 C   0  0  0  0  0  0  0  0  0  0  0  0
   12.9870   -1.2400   25.2750 C   0  0  0  0  0  0  0  0  0  0  0  0
   11.9100   -1.0040   24.5090 C   0  0  0  0  0  0  0  0  0  0  0  0
  1  2  2  0
  2  3  1  0
  3  4  1  0
  4  5  2  0
  5  6  1  0
  6  7  2  0
  7  8  1  0
  4  9  1  0
  8  9  2  0
  2 10  1  0
 11 10  1  6
 11 12  1  0
 12 13  2  0
 13 14  1  0
 14 15  2  0
 15 16  1  0
 12 17  1  0
 16 17  2  0
 11 18  1  0
 18 19  1  6
 18 20  1  0
 20 21  2  0
 21 22  1  0
 22 23  2  0
 23 24  1  0
 20 25  1  0
 24 25  2  0
M  END
