pyridine_urea_2702
     RDKit          3D

 23 25  0  0  0  0  0  0  0  0999 V2000
    9.7490    2.3410   23.0530 C   0  0  0  0  0  0  0  0  0  0  0  0
   10.9370    2.0650   22.4040 N   0  0  0  0  0  0  0  0  0  0  0  0
   12.0280    3.0300   22.5440 C   0  0  0  0  0  0  0  0  0  0  0  0
   11.4190    0.6630   22.5870 C   0  0  0  0  0  0  0  0  0  0  0  0
   10.5370   -0.4620   22.7230 C   0  0  0  0  0  0  0  0  0  0  0  0
    9.6060   -0.6810   21.6370 N   0  0  0  0  0  0  0  0  0  0  0  0
    8.6140    0.2030   21.3360 C   0  0  0  0  0  0  0  0  0  0  0  0
    8.8210    1.4080   21.2190 O   0  0  0  0  0  0  0  0  0  0  0  0
    7.3980   -0.4010   21.1100 N   0  0  0  0  0  0  0  0  0  0  0  0
    6.6490    0.1460   20.0770 C   0  0  0  0  0  0  0  0  0  0  0  0
    5.4030    0.9530   20.3750 C   0  0  0  0  0  0  0  0  0  0  0  0
    4.5650    1.6130   19.2970 C   0  0  0  0  0  0  0  0  0  0  0  0
    5.0760    1.4080   17.8720 C   0  0  0  0  0  0  0  0  0  0  0  0
    6.2840    0.5910   17.7150 N   0  0  0  0  0  0  0  0  0  0  0  0
    6.9860    0.0200   18.7660 C   0  0  0  0  0  0  0  0  0  0  0  0
   12.9730    0.2180   22.4680 C   0  0  0  0  0  0  0  0  0  0  0  0
   12.7840   -0.9290   23.3860 C   0  0  0  0  0  0  0  0  0  0  0  0
   13.4100   -2.2420   23.2210 C   0  0  0  0  0  0  0  0  0  0  0  0
   12.7310   -2.5790   24.3270 C   0  0  0  0  0  0  0  0  0  0  0  0
   12.0110   -1.5900   24.7610 C   0  0  0  0  0  0  0  0  0  0  0  0
   11.2090   -0.8710   25.4450 C   0  0  0  0  0  0  0  0  0  0  0  0
   11.7840   -0.2650   24.4040 C   0  0  0  0  0  0  0  0  0  0  0  0
   11.6200    0.9780   24.0220 C   0  0  0  0  0  0  0  0  0  0  0  0
  1  2  1  0
  2  3  1  0
  4  2  1  0
  4  5  1  0
  5  6  1  0
  6  7  1  0
  7  8  2  0
  7  9  1  0
  9 10  1  0
 10 11  2  0
 11 12  1  0
 12 13  2  0
 13 14  1  0
 10 15  1  0
 14 15  2  0
  4 16  1  0
 16 17  1  0
 17 18  1  0
 18 19  2  0
 19 20  1  0
 20 21  2  0
 17 22  2  0
 21 22  1  0
  4 23  1  0
 22 23  1  0
M  END
