pyridine_urea_13343
     RDKit          3D

 15 16  0  0  0  0  0  0  0  0999 V2000
    8.9000    1.2590   21.2310 O   0  0  0  0  0  0  0  0  0  0  0  0
    8.5870    0.0690   21.3390 C   0  0  0  0  0  0  0  0  0  0  0  0
    7.3380   -0.4360   21.0820 N   0  0  0  0  0  0  0  0  0  0  0  0
    6.5700    0.1070   20.0500 C   0  0  0  0  0  0  0  0  0  0  0  0
    5.3990    0.8030   20.3520 C   0  0  0  0  0  0  0  0  0  0  0  0
    4.6490    1.3700   19.3230 C   0  0  0  0  0  0  0  0  0  0  0  0
    5.1040    1.2140   18.0320 C   0  0  0  0  0  0  0  0  0  0  0  0
    6.2160    0.5410   17.7150 N   0  0  0  0  0  0  0  0  0  0  0  0
    6.9220    0.0040   18.7240 C   0  0  0  0  0  0  0  0  0  0  0  0
    9.5260   -0.8750   21.6900 N   0  0  0  0  0  0  0  0  0  0  0  0
   10.5500   -0.3500   22.5740 C   0  0  1  0  0  0  0  0  0  0  0  0
   10.8020   -1.1110   23.8500 C   0  0  0  0  0  0  0  0  0  0  0  0
   12.1490   -1.0970   23.6560 C   0  0  1  0  0  0  0  0  0  0  0  0
   13.1330   -2.5950   24.2040 Br  0  0  0  0  0  0  0  0  0  0  0  0
   12.0130   -0.7370   22.3400 C   0  0  0  0  0  0  0  0  0  0  0  0
  1  2  2  0
  2  3  1  0
  3  4  1  0
  4  5  2  0
  5  6  1  0
  6  7  2  0
  7  8  1  0
  4  9  1  0
  8  9  2  0
  2 10  1  0
 11 10  1  6
 11 12  1  0
 12 13  1  0
 13 14  1  6
 11 15  1  0
 13 15  1  0
M  END
