pyridine_urea_7371
     RDKit          3D

 18 19  0  0  0  0  0  0  0  0999 V2000
    5.2370   -5.3000   22.3360 C   0  0  0  0  0  0  0  0  0  0  0  0
    6.3990   -4.3950   22.7400 C   0  0  0  0  0  0  0  0  0  0  0  0
    7.5560   -5.0480   23.3630 N   0  0  0  0  0  0  0  0  0  0  0  0
    8.4410   -4.0420   23.6160 C   0  0  0  0  0  0  0  0  0  0  0  0
    7.9350   -2.8630   23.2080 C   0  0  0  0  0  0  0  0  0  0  0  0
    8.6090   -1.6440   23.3180 C   0  0  0  0  0  0  0  0  0  0  0  0
    7.9970   -0.5170   22.9230 N   0  0  0  0  0  0  0  0  0  0  0  0
    8.0700   -0.1610   21.6180 C   0  0  0  0  0  0  0  0  0  0  0  0
    8.7290    0.7980   21.2270 O   0  0  0  0  0  0  0  0  0  0  0  0
    7.3230   -1.0100   20.8480 N   0  0  0  0  0  0  0  0  0  0  0  0
    6.5810   -0.1610   19.9080 C   0  0  0  0  0  0  0  0  0  0  0  0
    5.3160    0.5740   20.3020 C   0  0  0  0  0  0  0  0  0  0  0  0
    4.6350    1.3710   19.3700 C   0  0  0  0  0  0  0  0  0  0  0  0
    5.1370    1.4860   18.0610 C   0  0  0  0  0  0  0  0  0  0  0  0
    6.3570    0.7680   17.6960 N   0  0  0  0  0  0  0  0  0  0  0  0
    6.9920   -0.0020   18.6290 C   0  0  0  0  0  0  0  0  0  0  0  0
    6.6440   -2.9900   22.6480 N   0  0  0  0  0  0  0  0  0  0  0  0
    5.6840   -2.1190   22.0880 C   0  0  0  0  0  0  0  0  0  0  0  0
  1  2  1  0
  2  3  2  0
  3  4  1  0
  4  5  2  0
  5  6  1  0
  6  7  1  0
  7  8  1  0
  8  9  2  0
  8 10  1  0
 10 11  1  0
 11 12  2  0
 12 13  1  0
 13 14  2  0
 14 15  1  0
 11 16  1  0
 15 16  2  0
  2 17  1  0
  5 17  1  0
 17 18  1  0
M  END
