pyridine_urea_5840
     RDKit          3D

 19 21  0  0  0  0  0  0  0  0999 V2000
    8.9260    1.2450   21.1000 O   0  0  0  0  0  0  0  0  0  0  0  0
    8.3020    0.3560   21.6820 C   0  0  0  0  0  0  0  0  0  0  0  0
    7.3400   -0.5130   21.0110 N   0  0  0  0  0  0  0  0  0  0  0  0
    6.5770    0.0950   20.0280 C   0  0  0  0  0  0  0  0  0  0  0  0
    5.4260    0.8090   20.3540 C   0  0  0  0  0  0  0  0  0  0  0  0
    4.7030    1.4200   19.3300 C   0  0  0  0  0  0  0  0  0  0  0  0
    5.1620    1.2910   18.0160 C   0  0  0  0  0  0  0  0  0  0  0  0
    6.2610    0.6000   17.6920 N   0  0  0  0  0  0  0  0  0  0  0  0
    6.9460    0.0150   18.7020 C   0  0  0  0  0  0  0  0  0  0  0  0
    8.3640    0.0920   23.0260 N   0  0  0  0  0  0  0  0  0  0  0  0
    9.1660   -0.9510   23.6310 C   0  0  1  0  0  0  0  0  0  0  0  0
    9.9200   -1.8060   22.7530 C   0  0  0  0  0  0  0  0  0  0  0  0
   10.9470   -1.5900   23.6160 C   0  0  1  0  0  0  0  0  0  0  0  0
   11.9610   -1.1440   23.0160 N   0  0  0  0  0  0  0  0  0  0  0  0
   12.5510   -0.0230   23.3740 C   0  0  0  0  0  0  0  0  0  0  0  0
   13.5660    0.1660   22.5300 C   0  0  0  0  0  0  0  0  0  0  0  0
   13.6720   -0.8150   21.6090 N   0  0  0  0  0  0  0  0  0  0  0  0
   12.6310   -1.6680   21.9230 C   0  0  0  0  0  0  0  0  0  0  0  0
   10.2680   -0.5720   24.4220 C   0  0  0  0  0  0  0  0  0  0  0  0
  1  2  2  0
  2  3  1  0
  3  4  1  0
  4  5  2  0
  5  6  1  0
  6  7  2  0
  7  8  1  0
  4  9  1  0
  8  9  2  0
  2 10  1  0
 11 10  1  6
 11 12  1  0
 12 13  1  0
 13 14  1  6
 14 15  1  0
 15 16  2  0
 16 17  1  0
 14 18  1  0
 17 18  2  0
 11 19  1  0
 13 19  1  0
M  END
