pyridine_urea_12039
     RDKit          3D

 23 24  0  0  0  0  0  0  0  0999 V2000
    8.8390   -0.0060   25.8940 N   0  0  0  0  0  0  0  0  0  0  0  0
   10.1890   -0.1960   25.8700 C   0  0  0  0  0  0  0  0  0  0  0  0
   10.7940   -0.5720   24.5280 C   0  0  0  0  0  0  0  0  0  0  0  0
    9.8270   -0.6290   23.5570 C   0  0  0  0  0  0  0  0  0  0  0  0
   10.2300   -1.0050   22.3050 C   0  0  0  0  0  0  0  0  0  0  0  0
    9.2440   -1.1230   21.2630 N   0  0  0  0  0  0  0  0  0  0  0  0
    8.3110   -0.0930   21.2690 C   0  0  0  0  0  0  0  0  0  0  0  0
    8.6750    1.0680   21.3820 O   0  0  0  0  0  0  0  0  0  0  0  0
    7.0290   -0.4800   21.1150 N   0  0  0  0  0  0  0  0  0  0  0  0
    6.3790    0.1260   20.1150 C   0  0  0  0  0  0  0  0  0  0  0  0
    5.1790    0.8180   20.3490 C   0  0  0  0  0  0  0  0  0  0  0  0
    4.5650    1.4710   19.1150 C   0  0  0  0  0  0  0  0  0  0  0  0
    5.2070    1.3420   17.8940 C   0  0  0  0  0  0  0  0  0  0  0  0
    6.3410    0.6690   17.7280 N   0  0  0  0  0  0  0  0  0  0  0  0
    6.8860    0.0880   18.8150 C   0  0  0  0  0  0  0  0  0  0  0  0
   11.6380   -1.3220   21.9540 C   0  0  0  0  0  0  0  0  0  0  0  0
   12.5760   -1.2350   22.9270 C   0  0  0  0  0  0  0  0  0  0  0  0
   12.1450   -0.8770   24.2030 C   0  0  0  0  0  0  0  0  0  0  0  0
   13.0860   -0.8800   25.1440 O   0  0  0  0  0  0  0  0  0  0  0  0
   13.3900   -2.2800   25.0560 C   0  0  0  0  0  0  0  0  0  0  0  0
   14.2010   -2.6780   26.0570 F   0  0  0  0  0  0  0  0  0  0  0  0
   13.9730   -2.5770   23.8760 F   0  0  0  0  0  0  0  0  0  0  0  0
   12.2650   -3.0230   25.0360 F   0  0  0  0  0  0  0  0  0  0  0  0
  1  2  3  0
  2  3  1  0
  3  4  2  0
  4  5  1  0
  5  6  1  0
  6  7  1  0
  7  8  2  0
  7  9  1  0
  9 10  1  0
 10 11  2  0
 11 12  1  0
 12 13  2  0
 13 14  1  0
 10 15  1  0
 14 15  2  0
  5 16  2  0
 16 17  1  0
  3 18  1  0
 17 18  2  0
 18 19  1  0
 19 20  1  0
 20 21  1  0
 20 22  1  0
 20 23  1  0
M  END
