pyridine_urea_6348
     RDKit          3D

 23 25  0  0  0  0  0  0  0  0999 V2000
    8.7800    1.0260   21.3760 O   0  0  0  0  0  0  0  0  0  0  0  0
    8.3010   -0.0990   21.2850 C   0  0  0  0  0  0  0  0  0  0  0  0
    9.0210   -1.2340   21.4400 N   0  0  0  0  0  0  0  0  0  0  0  0
   10.0840   -1.2530   22.3860 C   0  0  0  0  0  0  0  0  0  0  0  0
    9.5060   -1.2900   23.7890 C   0  0  2  0  0  0  0  0  0  0  0  0
   10.4910   -1.5970   24.8520 C   0  0  0  0  0  0  0  0  0  0  0  0
   10.5810   -2.9280   25.1050 N   0  0  0  0  0  0  0  0  0  0  0  0
   11.5070   -2.8240   24.2480 C   0  0  0  0  0  0  0  0  0  0  0  0
   10.9040   -2.4410   22.9470 C   0  0  0  0  0  0  0  0  0  0  0  0
   11.7960   -2.2150   21.8200 C   0  0  0  0  0  0  0  0  0  0  0  0
   13.1370   -2.3360   21.8580 C   0  0  0  0  0  0  0  0  0  0  0  0
   13.6480   -2.7600   23.2710 C   0  0  0  0  0  0  0  0  0  0  0  0
   12.9170   -2.9910   24.4180 C   0  0  0  0  0  0  0  0  0  0  0  0
    9.3130   -3.3370   24.6390 C   0  0  0  0  0  0  0  0  0  0  0  0
    8.7860   -4.5560   24.9130 O   0  0  0  0  0  0  0  0  0  0  0  0
    8.5960   -2.3970   23.8640 O   0  0  0  0  0  0  0  0  0  0  0  0
    6.9950   -0.3610   20.9890 N   0  0  0  0  0  0  0  0  0  0  0  0
    6.2770    0.2450   20.0060 C   0  0  0  0  0  0  0  0  0  0  0  0
    4.9730    0.8950   20.5230 C   0  0  0  0  0  0  0  0  0  0  0  0
    4.5340    1.4460   19.1770 C   0  0  0  0  0  0  0  0  0  0  0  0
    5.1850    1.3530   17.8480 C   0  0  0  0  0  0  0  0  0  0  0  0
    6.3050    0.7310   17.6360 N   0  0  0  0  0  0  0  0  0  0  0  0
    6.8090    0.1990   18.7270 C   0  0  0  0  0  0  0  0  0  0  0  0
  1  2  2  0
  2  3  1  0
  3  4  1  0
  5  4  1  6
  5  6  1  0
  6  7  1  0
  7  8  1  0
  8  9  2  0
  9 10  1  0
 10 11  2  0
 11 12  1  0
  8 13  1  0
 12 13  2  0
  7 14  1  0
 14 15  2  0
  5 16  1  0
 14 16  1  0
  2 17  1  0
 17 18  1  0
 18 19  2  0
 19 20  1  0
 20 21  2  0
 21 22  1  0
 18 23  1  0
 22 23  2  0
M  END
