pyridine_urea_11719
     RDKit          3D

 26 28  0  0  0  0  0  0  0  0999 V2000
    8.6180    0.5380   21.1890 O   0  0  0  0  0  0  0  0  0  0  0  0
    8.2300   -0.5510   21.6050 C   0  0  0  0  0  0  0  0  0  0  0  0
    8.9740   -1.2860   22.5250 N   0  0  0  0  0  0  0  0  0  0  0  0
   10.1990   -0.6500   22.6190 C   0  0  0  0  0  0  0  0  0  0  0  0
   10.0250    0.6840   22.9330 C   0  0  0  0  0  0  0  0  0  0  0  0
   11.0710    1.5440   22.9850 C   0  0  0  0  0  0  0  0  0  0  0  0
   12.2960    1.0790   22.7280 C   0  0  0  0  0  0  0  0  0  0  0  0
   13.3690    1.8730   22.6650 C   0  0  0  0  0  0  0  0  0  0  0  0
   13.0590    3.1740   23.0620 C   0  0  0  0  0  0  0  0  0  0  0  0
   12.4020    4.0710   22.0220 C   0  0  2  0  0  0  0  0  0  0  0  0
   13.4550    4.5450   21.1910 O   0  0  0  0  0  0  0  0  0  0  0  0
   11.8890    5.1960   22.6410 C   0  0  0  0  0  0  0  0  0  0  0  0
   12.6170    6.1980   23.2180 C   0  0  0  0  0  0  0  0  0  0  0  0
   11.9820    7.2590   23.8130 C   0  0  0  0  0  0  0  0  0  0  0  0
   10.5790    7.3790   23.8450 C   0  0  0  0  0  0  0  0  0  0  0  0
    9.7160    6.4430   23.2930 C   0  0  0  0  0  0  0  0  0  0  0  0
   10.3820    5.2480   22.6510 C   0  0  0  0  0  0  0  0  0  0  0  0
   12.5700   -0.3960   22.4330 C   0  0  0  0  0  0  0  0  0  0  0  0
   11.4560   -1.2310   22.3870 C   0  0  0  0  0  0  0  0  0  0  0  0
    7.0460   -1.0480   21.1490 N   0  0  0  0  0  0  0  0  0  0  0  0
    6.3210   -0.2490   20.1170 C   0  0  0  0  0  0  0  0  0  0  0  0
    5.0980    0.4030   20.2880 C   0  0  0  0  0  0  0  0  0  0  0  0
    4.5480    1.1320   19.2310 C   0  0  0  0  0  0  0  0  0  0  0  0
    5.2380    1.1900   18.0240 C   0  0  0  0  0  0  0  0  0  0  0  0
    6.4120    0.5700   17.8280 N   0  0  0  0  0  0  0  0  0  0  0  0
    6.9190   -0.1270   18.8700 C   0  0  0  0  0  0  0  0  0  0  0  0
  1  2  2  0
  2  3  1  0
  3  4  1  0
  4  5  2  0
  5  6  1  0
  6  7  2  0
  7  8  1  0
  8  9  1  0
  9 10  1  0
 10 11  1  6
 10 12  1  0
 12 13  2  0
 13 14  1  0
 14 15  2  0
 15 16  1  0
 12 17  1  0
 16 17  2  0
  7 18  1  0
  4 19  1  0
 18 19  2  0
  2 20  1  0
 20 21  1  0
 21 22  2  0
 22 23  1  0
 23 24  2  0
 24 25  1  0
 21 26  1  0
 25 26  2  0
M  END
