pyridine_urea_231
     RDKit          3D

 21 22  0  0  0  0  0  0  0  0999 V2000
    4.8070   -1.9080   24.9080 C   0  0  0  0  0  0  0  0  0  0  0  0
    5.4920   -2.4890   25.7130 C   0  0  0  0  0  0  0  0  0  0  0  0
    5.9070   -3.4000   26.8730 C   0  0  0  0  0  0  0  0  0  0  0  0
    6.3260   -3.1830   24.6270 C   0  0  0  0  0  0  0  0  0  0  0  0
    7.3080   -2.1950   24.2710 N   0  0  0  0  0  0  0  0  0  0  0  0
    8.1000   -2.7300   23.2890 C   0  0  0  0  0  0  0  0  0  0  0  0
    9.3080   -2.0600   22.5650 C   0  0  2  0  0  0  0  0  0  0  0  0
   10.5970   -2.2640   23.2710 C   0  0  0  0  0  0  0  0  0  0  0  0
   11.5310   -1.2780   22.8270 O   0  0  0  0  0  0  0  0  0  0  0  0
    8.9840   -0.7140   22.6680 N   0  0  0  0  0  0  0  0  0  0  0  0
    8.4200    0.0470   21.5280 C   0  0  0  0  0  0  0  0  0  0  0  0
    8.9010    1.1310   21.1580 O   0  0  0  0  0  0  0  0  0  0  0  0
    7.3400   -0.5910   21.0130 N   0  0  0  0  0  0  0  0  0  0  0  0
    6.6530    0.0250   20.0230 C   0  0  0  0  0  0  0  0  0  0  0  0
    5.4900    0.7580   20.3370 C   0  0  0  0  0  0  0  0  0  0  0  0
    4.7870    1.3980   19.3060 C   0  0  0  0  0  0  0  0  0  0  0  0
    5.1940    1.3320   18.0030 C   0  0  0  0  0  0  0  0  0  0  0  0
    6.2980    0.6230   17.6840 N   0  0  0  0  0  0  0  0  0  0  0  0
    7.0180   -0.0220   18.6890 C   0  0  0  0  0  0  0  0  0  0  0  0
    7.6840   -4.1780   22.9080 C   0  0  0  0  0  0  0  0  0  0  0  0
    6.3310   -4.7100   23.8410 S   0  0  0  0  0  0  0  0  0  0  0  0
  1  2  1  0
  2  3  1  0
  2  4  1  0
  4  5  2  0
  5  6  1  0
  6  7  1  0
  7  8  1  1
  8  9  1  0
  7 10  1  0
 10 11  1  0
 11 12  2  0
 11 13  1  0
 13 14  1  0
 14 15  2  0
 15 16  1  0
 16 17  2  0
 17 18  1  0
 14 19  1  0
 18 19  2  0
  6 20  2  0
  4 21  1  0
 20 21  1  0
M  END
