pyridine_urea_14804
     RDKit          3D

 20 21  0  0  0  0  0  0  0  0999 V2000
    6.4940   -1.8800   25.5960 C   0  0  0  0  0  0  0  0  0  0  0  0
    7.7010   -2.8020   25.5420 C   0  0  0  0  0  0  0  0  0  0  0  0
    7.9070   -3.6070   26.6620 C   0  0  0  0  0  0  0  0  0  0  0  0
    7.6100   -3.6260   24.3370 N   0  0  0  0  0  0  0  0  0  0  0  0
    6.8640   -4.8400   24.3390 C   0  0  0  0  0  0  0  0  0  0  0  0
    5.9550   -5.4930   25.7860 S   0  0  0  0  0  0  0  0  0  0  0  0
    6.9260   -5.4360   23.1010 N   0  0  0  0  0  0  0  0  0  0  0  0
    7.6970   -4.6230   22.2930 N   0  0  0  0  0  0  0  0  0  0  0  0
    8.1150   -3.5080   23.0570 C   0  0  0  0  0  0  0  0  0  0  0  0
    8.9200   -2.4790   22.5210 C   0  0  0  0  0  0  0  0  0  0  0  0
    8.8360   -1.1310   22.8270 N   0  0  0  0  0  0  0  0  0  0  0  0
    8.3600   -0.4070   21.6990 C   0  0  0  0  0  0  0  0  0  0  0  0
    8.9600    0.5930   21.3280 O   0  0  0  0  0  0  0  0  0  0  0  0
    7.2390   -0.7800   21.0440 N   0  0  0  0  0  0  0  0  0  0  0  0
    6.5580   -0.0720   20.0330 C   0  0  0  0  0  0  0  0  0  0  0  0
    5.3920    0.6450   20.3510 C   0  0  0  0  0  0  0  0  0  0  0  0
    4.7500    1.3390   19.3260 C   0  0  0  0  0  0  0  0  0  0  0  0
    5.2640    1.3090   18.0420 C   0  0  0  0  0  0  0  0  0  0  0  0
    6.3670    0.6380   17.7060 N   0  0  0  0  0  0  0  0  0  0  0  0
    6.9610   -0.0170   18.7120 C   0  0  0  0  0  0  0  0  0  0  0  0
  1  2  1  0
  2  3  1  0
  2  4  1  0
  4  5  1  0
  5  6  1  0
  5  7  2  0
  7  8  1  0
  4  9  1  0
  8  9  2  0
  9 10  1  0
 10 11  1  0
 11 12  1  0
 12 13  2  0
 12 14  1  0
 14 15  1  0
 15 16  2  0
 16 17  1  0
 17 18  2  0
 18 19  1  0
 15 20  1  0
 19 20  2  0
M  END
