pyridine_urea_9880
     RDKit          3D

 25 27  0  0  0  0  0  0  0  0999 V2000
   15.7120    1.9750   18.3090 C   0  0  0  0  0  0  0  0  0  0  0  0
   15.6400    0.9990   19.4850 C   0  0  0  0  0  0  0  0  0  0  0  0
   14.4930    0.0770   20.3080 C   0  0  0  0  0  0  0  0  0  0  0  0
   14.1870   -1.3410   20.2190 C   0  0  0  0  0  0  0  0  0  0  0  0
   13.2120   -2.0350   21.1160 C   0  0  0  0  0  0  0  0  0  0  0  0
   12.4880   -2.8080   20.6040 O   0  0  0  0  0  0  0  0  0  0  0  0
   13.3880   -1.5670   22.4140 N   0  0  0  0  0  0  0  0  0  0  0  0
   13.2310   -0.2700   22.2220 C   0  0  0  0  0  0  0  0  0  0  0  0
   12.0900    0.3980   22.6690 C   0  0  0  0  0  0  0  0  0  0  0  0
   12.1490    1.7170   22.9800 C   0  0  0  0  0  0  0  0  0  0  0  0
   11.0090    2.3940   23.2880 C   0  0  0  0  0  0  0  0  0  0  0  0
    9.7630    1.7780   23.3080 C   0  0  0  0  0  0  0  0  0  0  0  0
    9.6200    0.4200   23.0120 C   0  0  0  0  0  0  0  0  0  0  0  0
    8.3370   -0.1930   22.9860 N   0  0  0  0  0  0  0  0  0  0  0  0
    7.8570   -0.0140   21.6320 C   0  0  0  0  0  0  0  0  0  0  0  0
    8.2780    0.8610   20.8890 O   0  0  0  0  0  0  0  0  0  0  0  0
    6.8950   -0.7830   21.1170 N   0  0  0  0  0  0  0  0  0  0  0  0
    6.2750   -0.0980   20.1310 C   0  0  0  0  0  0  0  0  0  0  0  0
    5.0900    0.6230   20.2450 C   0  0  0  0  0  0  0  0  0  0  0  0
    4.5320    1.3450   19.0890 C   0  0  0  0  0  0  0  0  0  0  0  0
    5.2150    1.2840   17.9060 C   0  0  0  0  0  0  0  0  0  0  0  0
    6.3610    0.5900   17.7600 N   0  0  0  0  0  0  0  0  0  0  0  0
    6.8560   -0.0750   18.8510 C   0  0  0  0  0  0  0  0  0  0  0  0
   10.8430   -0.3660   22.6700 C   0  0  0  0  0  0  0  0  0  0  0  0
   13.7420    0.5500   21.3490 N   0  0  0  0  0  0  0  0  0  0  0  0
  1  2  1  0
  2  3  1  0
  3  4  2  0
  4  5  1  0
  5  6  2  0
  5  7  1  0
  7  8  1  0
  8  9  1  0
  9 10  2  0
 10 11  1  0
 11 12  2  0
 12 13  1  0
 13 14  1  0
 14 15  1  0
 15 16  2  0
 15 17  1  0
 17 18  1  0
 18 19  2  0
 19 20  1  0
 20 21  2  0
 21 22  1  0
 18 23  1  0
 22 23  2  0
  9 24  1  0
 13 24  2  0
  3 25  1  0
  8 25  2  0
M  END
