pyridine_urea_2610
     RDKit          3D

 24 26  0  0  0  0  0  0  0  0999 V2000
    9.0340    1.6090   21.0110 O   0  0  0  0  0  0  0  0  0  0  0  0
    8.5680    0.6310   21.5550 C   0  0  0  0  0  0  0  0  0  0  0  0
    7.5500   -0.1700   21.0800 N   0  0  0  0  0  0  0  0  0  0  0  0
    6.7170    0.2510   20.0360 C   0  0  0  0  0  0  0  0  0  0  0  0
    5.5410    0.9390   20.3470 C   0  0  0  0  0  0  0  0  0  0  0  0
    4.7100    1.3910   19.3240 C   0  0  0  0  0  0  0  0  0  0  0  0
    5.0900    1.1300   18.0300 C   0  0  0  0  0  0  0  0  0  0  0  0
    6.2000    0.4690   17.7050 N   0  0  0  0  0  0  0  0  0  0  0  0
    6.9870    0.0410   18.7060 C   0  0  0  0  0  0  0  0  0  0  0  0
    9.0430    0.2700   22.7770 N   0  0  0  0  0  0  0  0  0  0  0  0
    9.6520   -1.0210   23.0140 C   0  0  0  0  0  0  0  0  0  0  0  0
   11.1480   -1.1680   22.8150 C   0  0  0  0  0  0  0  0  0  0  0  0
   11.7100   -2.3250   23.3790 C   0  0  0  0  0  0  0  0  0  0  0  0
   10.8810   -3.2420   24.0730 C   0  0  0  0  0  0  0  0  0  0  0  0
   11.3490   -3.9270   24.9440 O   0  0  0  0  0  0  0  0  0  0  0  0
    9.4740   -3.2560   23.6710 N   0  0  0  0  0  0  0  0  0  0  0  0
    8.6210   -4.2080   24.1730 C   0  0  0  0  0  0  0  0  0  0  0  0
    7.6530   -4.7860   23.3600 C   0  0  0  0  0  0  0  0  0  0  0  0
    6.7510   -4.0040   22.6310 C   0  0  0  0  0  0  0  0  0  0  0  0
    5.7920   -4.6100   21.8170 C   0  0  0  0  0  0  0  0  0  0  0  0
    5.7440   -5.9980   21.7410 C   0  0  0  0  0  0  0  0  0  0  0  0
    6.6370   -6.7720   22.4570 C   0  0  0  0  0  0  0  0  0  0  0  0
    7.5810   -6.1650   23.2560 C   0  0  0  0  0  0  0  0  0  0  0  0
    8.8930   -2.0870   23.4300 C   0  0  0  0  0  0  0  0  0  0  0  0
  1  2  2  0
  2  3  1  0
  3  4  1  0
  4  5  2  0
  5  6  1  0
  6  7  2  0
  7  8  1  0
  4  9  1  0
  8  9  2  0
  2 10  1  0
 10 11  1  0
 11 12  1  0
 12 13  2  0
 13 14  1  0
 14 15  2  0
 14 16  1  0
 16 17  1  0
 17 18  1  0
 18 19  2  0
 19 20  1  0
 20 21  2  0
 21 22  1  0
 18 23  1  0
 22 23  2  0
 11 24  2  0
 16 24  1  0
M  END
