pyridine_urea_8402
     RDKit          3D

 22 24  0  0  0  0  0  0  0  0999 V2000
    8.7650    0.7450   21.2870 O   0  0  0  0  0  0  0  0  0  0  0  0
    8.1400   -0.2790   21.5400 C   0  0  0  0  0  0  0  0  0  0  0  0
    8.5070   -1.1710   22.5090 N   0  0  0  0  0  0  0  0  0  0  0  0
    9.8070   -1.0340   23.1120 C   0  0  0  0  0  0  0  0  0  0  0  0
    9.8500    0.0250   24.2550 C   0  0  0  0  0  0  0  0  0  0  0  0
   10.7540    1.0540   23.9820 C   0  0  0  0  0  0  0  0  0  0  0  0
   12.0820    0.6230   23.3750 C   0  0  0  0  0  0  0  0  0  0  0  0
   13.1450    0.0080   22.6890 C   0  0  0  0  0  0  0  0  0  0  0  0
   13.2200   -1.2050   21.7810 C   0  0  0  0  0  0  0  0  0  0  0  0
   12.1050   -2.0520   21.4060 C   0  0  0  0  0  0  0  0  0  0  0  0
   10.9100   -1.5320   22.0550 C   0  0  0  0  0  0  0  0  0  0  0  0
   11.0330   -0.2730   22.9500 C   0  0  0  0  0  0  0  0  0  0  0  0
    8.5310    0.7560   24.8470 C   0  0  0  0  0  0  0  0  0  0  0  0
    8.7050   -0.0520   26.0860 C   0  0  0  0  0  0  0  0  0  0  0  0
    9.8250   -0.5660   25.5570 C   0  0  0  0  0  0  0  0  0  0  0  0
    6.9910   -0.7040   20.9390 N   0  0  0  0  0  0  0  0  0  0  0  0
    6.3080    0.0270   19.9760 C   0  0  0  0  0  0  0  0  0  0  0  0
    5.1190    0.7240   20.1820 C   0  0  0  0  0  0  0  0  0  0  0  0
    4.5540    1.4210   19.1300 C   0  0  0  0  0  0  0  0  0  0  0  0
    5.2050    1.3980   17.8920 C   0  0  0  0  0  0  0  0  0  0  0  0
    6.3460    0.7290   17.6750 N   0  0  0  0  0  0  0  0  0  0  0  0
    6.8630    0.0630   18.7200 C   0  0  0  0  0  0  0  0  0  0  0  0
  1  2  2  0
  2  3  1  0
  3  4  1  0
  5  4  1  0
  5  6  1  0
  6  7  1  0
  7  8  2  0
  8  9  1  0
  9 10  2  0
 10 11  1  0
  7 12  1  0
 11 12  2  0
  5 13  1  0
 13 14  1  0
  5 15  1  0
 14 15  1  0
  2 16  1  0
 16 17  1  0
 17 18  2  0
 18 19  1  0
 19 20  2  0
 20 21  1  0
 17 22  1  0
 21 22  2  0
M  END
