pyridine_urea_3597
     RDKit          3D

 16 16  0  0  0  0  0  0  0  0999 V2000
   13.3290   -0.0730   22.5250 C   0  0  0  0  0  0  0  0  0  0  0  0
   12.9080   -0.9830   24.0140 S   0  0  0  0  0  0  0  0  0  0  0  0
   11.5470    0.1530   24.4290 C   0  0  0  0  0  0  0  0  0  0  0  0
   10.4280    0.0790   23.4150 C   0  0  0  0  0  0  0  0  0  0  0  0
   10.2260   -1.3310   22.9250 C   0  0  2  0  0  0  0  0  0  0  0  0
   11.3860   -1.8490   22.0760 C   0  0  0  0  0  0  0  0  0  0  0  0
    8.9620   -1.4160   22.1620 N   0  0  0  0  0  0  0  0  0  0  0  0
    8.4260   -0.3140   21.5340 C   0  0  0  0  0  0  0  0  0  0  0  0
    9.0290    0.7400   21.3880 O   0  0  0  0  0  0  0  0  0  0  0  0
    7.1450   -0.5840   21.1150 N   0  0  0  0  0  0  0  0  0  0  0  0
    6.4900    0.0450   20.0470 C   0  0  0  0  0  0  0  0  0  0  0  0
    5.3220    0.7700   20.3060 C   0  0  0  0  0  0  0  0  0  0  0  0
    4.6600    1.4150   19.2580 C   0  0  0  0  0  0  0  0  0  0  0  0
    5.1930    1.3100   17.9920 C   0  0  0  0  0  0  0  0  0  0  0  0
    6.3060    0.6140   17.7200 N   0  0  0  0  0  0  0  0  0  0  0  0
    6.9280   -0.0030   18.7460 C   0  0  0  0  0  0  0  0  0  0  0  0
  1  2  1  0
  2  3  1  0
  3  4  1  0
  4  5  1  0
  5  6  1  6
  5  7  1  0
  7  8  1  0
  8  9  2  0
  8 10  1  0
 10 11  1  0
 11 12  2  0
 12 13  1  0
 13 14  2  0
 14 15  1  0
 11 16  1  0
 15 16  2  0
M  END
