pyridine_urea_11166
     RDKit          3D

 16 17  0  0  0  0  0  0  0  0999 V2000
   10.1760    0.1900   23.2640 C   0  0  0  0  0  0  0  0  0  0  0  0
   10.3260   -0.9190   22.9220 C   0  0  1  0  0  0  0  0  0  0  0  0
    9.4560   -1.1780   21.7830 N   0  0  0  0  0  0  0  0  0  0  0  0
    8.5930   -0.0810   21.3750 C   0  0  0  0  0  0  0  0  0  0  0  0
    9.0440    1.2810   21.2580 O   0  0  0  0  0  0  0  0  0  0  0  0
    7.2510   -0.4950   21.0740 N   0  0  0  0  0  0  0  0  0  0  0  0
    6.5950    0.0460   20.0380 C   0  0  0  0  0  0  0  0  0  0  0  0
    5.4840    0.7770   20.3600 C   0  0  0  0  0  0  0  0  0  0  0  0
    4.6320    1.4980   19.3120 C   0  0  0  0  0  0  0  0  0  0  0  0
    5.0810    1.3620   17.9180 C   0  0  0  0  0  0  0  0  0  0  0  0
    6.2060    0.5910   17.7090 N   0  0  0  0  0  0  0  0  0  0  0  0
    6.9540   -0.0570   18.7120 C   0  0  0  0  0  0  0  0  0  0  0  0
   11.8060   -1.3120   22.5510 C   0  0  0  0  0  0  0  0  0  0  0  0
   11.9670   -1.8870   21.3360 F   0  0  0  0  0  0  0  0  0  0  0  0
   12.3170   -0.1810   22.8440 C   0  0  0  0  0  0  0  0  0  0  0  0
   13.1050   -1.2120   23.4550 C   0  0  0  0  0  0  0  0  0  0  0  0
  2  1  1  6
  2  3  1  0
  3  4  1  0
  4  5  2  0
  4  6  1  0
  6  7  1  0
  7  8  2  0
  8  9  1  0
  9 10  2  0
 10 11  1  0
  7 12  1  0
 11 12  2  0
  2 13  1  0
 13 14  1  0
 13 15  1  0
 13 16  1  0
 15 16  1  0
M  END
