pyridine_urea_13572
     RDKit          3D

 21 22  0  0  0  0  0  0  0  0999 V2000
   13.2590   -2.5530   24.6060 C   0  0  0  0  0  0  0  0  0  0  0  0
   13.8570   -2.8260   23.3360 O   0  0  0  0  0  0  0  0  0  0  0  0
   13.2610   -2.2220   22.2620 C   0  0  0  0  0  0  0  0  0  0  0  0
   13.4040   -2.5710   21.0930 O   0  0  0  0  0  0  0  0  0  0  0  0
   12.3890   -1.0770   22.6900 C   0  0  0  0  0  0  0  0  0  0  0  0
   12.8500    0.2570   23.2330 C   0  0  0  0  0  0  0  0  0  0  0  0
   11.8230    1.2720   23.6110 C   0  0  0  0  0  0  0  0  0  0  0  0
   10.4830    1.0050   23.4620 C   0  0  0  0  0  0  0  0  0  0  0  0
   10.0690   -0.2220   22.9510 C   0  0  0  0  0  0  0  0  0  0  0  0
    8.6620   -0.3820   22.8110 N   0  0  0  0  0  0  0  0  0  0  0  0
    8.1930    0.2070   21.6730 C   0  0  0  0  0  0  0  0  0  0  0  0
    8.7760    1.2120   21.2260 O   0  0  0  0  0  0  0  0  0  0  0  0
    7.0930   -0.4140   21.1660 N   0  0  0  0  0  0  0  0  0  0  0  0
    6.4350    0.1510   20.0970 C   0  0  0  0  0  0  0  0  0  0  0  0
    5.2540    0.8770   20.2500 C   0  0  0  0  0  0  0  0  0  0  0  0
    4.5960    1.4750   19.1680 C   0  0  0  0  0  0  0  0  0  0  0  0
    5.1340    1.3450   17.8800 C   0  0  0  0  0  0  0  0  0  0  0  0
    6.2450    0.6650   17.6220 N   0  0  0  0  0  0  0  0  0  0  0  0
    6.8790    0.0910   18.6520 C   0  0  0  0  0  0  0  0  0  0  0  0
   10.8930   -1.2420   22.5740 C   0  0  0  0  0  0  0  0  0  0  0  0
   10.2560   -2.4160   22.0860 O   0  0  0  0  0  0  0  0  0  0  0  0
  1  2  1  0
  2  3  1  0
  3  4  2  0
  3  5  1  0
  5  6  2  0
  6  7  1  0
  7  8  2  0
  8  9  1  0
  9 10  1  0
 10 11  1  0
 11 12  2  0
 11 13  1  0
 13 14  1  0
 14 15  2  0
 15 16  1  0
 16 17  2  0
 17 18  1  0
 14 19  1  0
 18 19  2  0
  5 20  1  0
  9 20  2  0
 20 21  1  0
M  END
