pyridine_urea_11595
     RDKit          3D

 16 17  0  0  0  0  0  0  0  0999 V2000
    8.8740    0.8750   21.3390 O   0  0  0  0  0  0  0  0  0  0  0  0
    8.4430   -0.2480   21.5650 C   0  0  0  0  0  0  0  0  0  0  0  0
    7.2360   -0.7030   21.0880 N   0  0  0  0  0  0  0  0  0  0  0  0
    6.5250   -0.0600   20.0600 C   0  0  0  0  0  0  0  0  0  0  0  0
    5.3550    0.6530   20.3590 C   0  0  0  0  0  0  0  0  0  0  0  0
    4.6590    1.3110   19.3430 C   0  0  0  0  0  0  0  0  0  0  0  0
    5.1540    1.2340   18.0590 C   0  0  0  0  0  0  0  0  0  0  0  0
    6.2660    0.5520   17.7450 N   0  0  0  0  0  0  0  0  0  0  0  0
    6.9200   -0.0750   18.7400 C   0  0  0  0  0  0  0  0  0  0  0  0
    9.1500   -1.1660   22.3190 N   0  0  0  0  0  0  0  0  0  0  0  0
   10.4190   -0.7540   22.9440 C   0  0  2  0  0  0  0  0  0  0  0  0
   10.5210    0.7510   22.8460 C   0  0  0  0  0  0  0  0  0  0  0  0
   11.9000    0.9410   22.8320 O   0  0  0  0  0  0  0  0  0  0  0  0
   12.2360   -0.3810   23.0530 C   0  0  0  0  0  0  0  0  0  0  0  0
   11.6710   -1.4670   22.3130 C   0  0  1  0  0  0  0  0  0  0  0  0
   12.0360   -2.6350   22.7740 O   0  0  0  0  0  0  0  0  0  0  0  0
  1  2  2  0
  2  3  1  0
  3  4  1  0
  4  5  2  0
  5  6  1  0
  6  7  2  0
  7  8  1  0
  4  9  1  0
  8  9  2  0
  2 10  1  0
 11 10  1  6
 11 12  1  0
 12 13  1  0
 13 14  1  0
 11 15  1  0
 14 15  1  0
 15 16  1  1
M  END
