pyridine_urea_10538
     RDKit          3D

 21 23  0  0  0  0  0  0  0  0999 V2000
    9.7510   -0.2140   25.6980 C   0  0  0  0  0  0  0  0  0  0  0  0
   10.1540    0.2890   24.3010 C   0  0  2  0  0  0  0  0  0  0  0  0
    9.5740    1.5810   24.0570 O   0  0  0  0  0  0  0  0  0  0  0  0
    9.6410   -0.7750   23.3340 C   0  0  0  0  0  0  0  0  0  0  0  0
    8.2880   -0.4400   22.8170 N   0  0  0  0  0  0  0  0  0  0  0  0
    8.1440    0.1420   21.5890 C   0  0  0  0  0  0  0  0  0  0  0  0
    8.8440    1.0920   21.1920 O   0  0  0  0  0  0  0  0  0  0  0  0
    7.1220   -0.4760   20.9330 N   0  0  0  0  0  0  0  0  0  0  0  0
    6.4360    0.1480   19.9150 C   0  0  0  0  0  0  0  0  0  0  0  0
    5.2650    0.8330   20.2120 C   0  0  0  0  0  0  0  0  0  0  0  0
    4.6050    1.4710   19.1680 C   0  0  0  0  0  0  0  0  0  0  0  0
    5.1490    1.3910   17.8860 C   0  0  0  0  0  0  0  0  0  0  0  0
    6.2700    0.7200   17.6100 N   0  0  0  0  0  0  0  0  0  0  0  0
    6.8810    0.1190   18.6290 C   0  0  0  0  0  0  0  0  0  0  0  0
   11.6720    0.3900   24.0210 C   0  0  1  0  0  0  0  0  0  0  0  0
   12.4080   -0.6130   24.6460 C   0  0  0  0  0  0  0  0  0  0  0  0
   13.1490   -1.1310   23.5550 C   0  0  1  0  0  0  0  0  0  0  0  0
   12.0740   -2.0400   22.9800 C   0  0  0  0  0  0  0  0  0  0  0  0
   11.2780   -1.1200   22.3750 C   0  0  0  0  0  0  0  0  0  0  0  0
   11.8830    0.1120   22.6820 C   0  0  2  0  0  0  0  0  0  0  0  0
   13.2500   -0.1130   22.6390 C   0  0  0  0  0  0  0  0  0  0  0  0
  2  1  1  1
  2  3  1  0
  2  4  1  0
  4  5  1  0
  5  6  1  0
  6  7  2  0
  6  8  1  0
  8  9  1  0
  9 10  2  0
 10 11  1  0
 11 12  2  0
 12 13  1  0
  9 14  1  0
 13 14  2  0
  2 15  1  0
 15 16  1  1
 17 16  1  1
 17 18  1  0
 18 19  1  0
 15 20  1  0
 20 19  1  1
 17 21  1  0
 20 21  1  0
M  END
