pyridine_urea_3937
     RDKit          3D

 29 31  0  0  0  0  0  0  0  0999 V2000
    9.0020    1.6970   24.2070 C   0  0  0  0  0  0  0  0  0  0  0  0
   10.1330    0.8530   23.6970 C   0  0  0  0  0  0  0  0  0  0  0  0
   11.4320    1.1450   23.9360 C   0  0  0  0  0  0  0  0  0  0  0  0
   12.4620    0.3920   23.4870 C   0  0  0  0  0  0  0  0  0  0  0  0
   12.1560   -0.7200   22.7430 C   0  0  0  0  0  0  0  0  0  0  0  0
   13.3360   -1.3730   22.3660 N   0  0  0  0  0  0  0  0  0  0  0  0
   13.3390   -1.7020   21.0750 C   0  0  0  0  0  0  0  0  0  0  0  0
   12.6790   -2.6010   20.6080 O   0  0  0  0  0  0  0  0  0  0  0  0
   14.1050   -1.0060   20.1660 C   0  0  0  0  0  0  0  0  0  0  0  0
   14.3610    0.2980   20.3280 N   0  0  0  0  0  0  0  0  0  0  0  0
   15.3350    0.6100   19.3630 N   0  0  0  0  0  0  0  0  0  0  0  0
   15.6860    1.8600   19.0750 C   0  0  0  0  0  0  0  0  0  0  0  0
   15.8490    2.3410   17.7670 O   0  0  0  0  0  0  0  0  0  0  0  0
   15.5720    2.8550   20.0480 C   0  0  0  0  0  0  0  0  0  0  0  0
   14.8660    2.3300   21.4470 C   0  0  0  0  0  0  0  0  0  0  0  0
   14.1890    1.1180   21.4820 C   0  0  0  0  0  0  0  0  0  0  0  0
   13.4410    0.9290   22.6610 O   0  0  0  0  0  0  0  0  0  0  0  0
   10.8630   -1.1050   22.4310 C   0  0  0  0  0  0  0  0  0  0  0  0
    9.8810   -0.2860   22.9330 C   0  0  0  0  0  0  0  0  0  0  0  0
    8.6160   -0.5790   22.6730 N   0  0  0  0  0  0  0  0  0  0  0  0
    8.1870    0.0900   21.5920 C   0  0  0  0  0  0  0  0  0  0  0  0
    8.7680    1.2700   21.1290 O   0  0  0  0  0  0  0  0  0  0  0  0
    7.1030   -0.5290   21.0290 N   0  0  0  0  0  0  0  0  0  0  0  0
    6.4400    0.0850   19.9800 C   0  0  0  0  0  0  0  0  0  0  0  0
    5.2640    0.7860   20.2130 C   0  0  0  0  0  0  0  0  0  0  0  0
    4.5840    1.4350   19.1900 C   0  0  0  0  0  0  0  0  0  0  0  0
    5.1440    1.3430   17.9190 C   0  0  0  0  0  0  0  0  0  0  0  0
    6.2710    0.6660   17.6700 N   0  0  0  0  0  0  0  0  0  0  0  0
    6.8940    0.0520   18.6880 C   0  0  0  0  0  0  0  0  0  0  0  0
  1  2  1  0
  2  3  2  0
  3  4  1  0
  4  5  2  0
  5  6  1  0
  6  7  1  0
  7  8  2  0
  7  9  1  0
  9 10  1  0
 10 11  1  0
 11 12  1  0
 12 13  2  0
 12 14  1  0
 14 15  1  0
 10 16  1  0
 15 16  1  0
 16 17  2  0
  5 18  1  0
  2 19  1  0
 18 19  2  0
 19 20  1  0
 20 21  1  0
 21 22  2  0
 21 23  1  0
 23 24  1  0
 24 25  2  0
 25 26  1  0
 26 27  2  0
 27 28  1  0
 24 29  1  0
 28 29  2  0
M  END
