pyridine_urea_449
     RDKit          3D

 25 27  0  0  0  0  0  0  0  0999 V2000
    8.8640    0.6670   21.4750 O   0  0  0  0  0  0  0  0  0  0  0  0
    8.4760   -0.4830   21.4060 C   0  0  0  0  0  0  0  0  0  0  0  0
    7.1860   -0.8260   21.0160 N   0  0  0  0  0  0  0  0  0  0  0  0
    6.4360   -0.0920   20.0640 C   0  0  0  0  0  0  0  0  0  0  0  0
    5.2530    0.6080   20.3050 C   0  0  0  0  0  0  0  0  0  0  0  0
    4.6300    1.3020   19.2580 C   0  0  0  0  0  0  0  0  0  0  0  0
    5.2120    1.2740   18.0090 C   0  0  0  0  0  0  0  0  0  0  0  0
    6.3470    0.6050   17.7530 N   0  0  0  0  0  0  0  0  0  0  0  0
    6.9190   -0.0550   18.7730 C   0  0  0  0  0  0  0  0  0  0  0  0
    9.2740   -1.5930   21.6690 N   0  0  0  0  0  0  0  0  0  0  0  0
   10.3010   -1.6430   22.6510 C   0  0  1  0  0  0  0  0  0  0  0  0
   11.3210   -0.9160   22.3030 C   0  0  0  0  0  0  0  0  0  0  0  0
   11.5320   -0.2110   23.4470 C   0  0  1  0  0  0  0  0  0  0  0  0
   11.3830    1.1670   23.0460 N   0  0  0  0  0  0  0  0  0  0  0  0
   10.1140    1.8190   23.0750 C   0  0  0  0  0  0  0  0  0  0  0  0
    9.1830    1.4760   23.8070 O   0  0  0  0  0  0  0  0  0  0  0  0
   10.1070    2.7480   22.2900 O   0  0  0  0  0  0  0  0  0  0  0  0
    9.6840    3.9950   22.8470 C   0  0  0  0  0  0  0  0  0  0  0  0
   10.8430    4.9280   22.8320 C   0  0  0  0  0  0  0  0  0  0  0  0
   11.9560    4.6240   22.0150 C   0  0  0  0  0  0  0  0  0  0  0  0
   13.0570    5.4870   21.9770 C   0  0  0  0  0  0  0  0  0  0  0  0
   13.0560    6.6470   22.7470 C   0  0  0  0  0  0  0  0  0  0  0  0
   11.9580    6.9110   23.5330 C   0  0  0  0  0  0  0  0  0  0  0  0
   10.8600    6.0910   23.5960 C   0  0  0  0  0  0  0  0  0  0  0  0
   10.2090   -1.0240   23.8720 C   0  0  0  0  0  0  0  0  0  0  0  0
  1  2  2  0
  2  3  1  0
  3  4  1  0
  4  5  2  0
  5  6  1  0
  6  7  2  0
  7  8  1  0
  4  9  1  0
  8  9  2  0
  2 10  1  0
 11 10  1  6
 11 12  1  0
 12 13  1  0
 13 14  1  6
 14 15  1  0
 15 16  2  0
 15 17  1  0
 17 18  1  0
 18 19  1  0
 19 20  2  0
 20 21  1  0
 21 22  2  0
 22 23  1  0
 19 24  1  0
 23 24  2  0
 11 25  1  0
 13 25  1  0
M  END
