pyridine_urea_13028
     RDKit          3D

 21 22  0  0  0  0  0  0  0  0999 V2000
    7.8670   -0.4060   26.1520 C   0  0  0  0  0  0  0  0  0  0  0  0
    8.5030   -0.4450   24.7750 C   0  0  0  0  0  0  0  0  0  0  0  0
    8.1660    0.6420   23.6940 C   0  0  0  0  0  0  0  0  0  0  0  0
    7.7170    0.5710   24.7970 C   0  0  0  0  0  0  0  0  0  0  0  0
    8.5500   -0.5000   24.7260 C   0  0  0  0  0  0  0  0  0  0  0  0
    9.4440   -0.8430   23.3380 C   0  0  0  0  0  0  0  0  0  0  0  0
   10.3050   -1.7760   22.9170 C   0  0  0  0  0  0  0  0  0  0  0  0
   11.7730   -1.5000   22.5000 C   0  0  0  0  0  0  0  0  0  0  0  0
    9.8510   -3.0740   23.4560 C   0  0  0  0  0  0  0  0  0  0  0  0
    9.9740   -1.8640   21.5710 C   0  0  0  0  0  0  0  0  0  0  0  0
    8.5830   -1.6250   21.4570 N   0  0  0  0  0  0  0  0  0  0  0  0
    8.1460   -0.3480   21.3250 C   0  0  0  0  0  0  0  0  0  0  0  0
    8.8710    0.6400   21.3810 O   0  0  0  0  0  0  0  0  0  0  0  0
    6.8070   -0.3800   21.1080 N   0  0  0  0  0  0  0  0  0  0  0  0
    6.2480    0.2210   19.9990 C   0  0  0  0  0  0  0  0  0  0  0  0
    5.0670    0.9430   20.1600 C   0  0  0  0  0  0  0  0  0  0  0  0
    4.5220    1.5570   19.0480 C   0  0  0  0  0  0  0  0  0  0  0  0
    5.1670    1.4310   17.8310 C   0  0  0  0  0  0  0  0  0  0  0  0
    6.2970    0.7340   17.6610 N   0  0  0  0  0  0  0  0  0  0  0  0
    6.8150    0.1410   18.7460 C   0  0  0  0  0  0  0  0  0  0  0  0
    9.3700   -1.4560   24.5010 C   0  0  0  0  0  0  0  0  0  0  0  0
  1  2  1  0
  2  3  2  0
  3  4  1  0
  4  5  2  0
  5  6  1  0
  6  7  1  0
  7  8  1  0
  7  9  1  0
  7 10  1  0
 10 11  1  0
 11 12  1  0
 12 13  2  0
 12 14  1  0
 14 15  1  0
 15 16  2  0
 16 17  1  0
 17 18  2  0
 18 19  1  0
 15 20  1  0
 19 20  2  0
  2 21  1  0
  6 21  2  0
M  END
