pyridine_urea_11131
     RDKit          3D

 18 19  0  0  0  0  0  0  0  0999 V2000
    8.8500    0.7500   21.5350 O   0  0  0  0  0  0  0  0  0  0  0  0
    8.3900   -0.3720   21.6940 C   0  0  0  0  0  0  0  0  0  0  0  0
    9.0040   -1.3980   22.4150 N   0  0  0  0  0  0  0  0  0  0  0  0
    9.7570   -1.2110   23.6740 C   0  0  0  0  0  0  0  0  0  0  0  0
   10.4840    0.1250   23.7720 C   0  0  1  0  0  0  0  0  0  0  0  0
   11.7740    0.1050   24.4940 C   0  0  0  0  0  0  0  0  0  0  0  0
   12.8130   -0.4220   23.7710 C   0  0  0  0  0  0  0  0  0  0  0  0
   12.6210   -1.0810   22.4200 C   0  0  0  0  0  0  0  0  0  0  0  0
   11.3350   -0.6690   22.1690 N   0  0  0  0  0  0  0  0  0  0  0  0
   10.8150    0.6420   22.3720 C   0  0  0  0  0  0  0  0  0  0  0  0
   10.1840    1.7030   23.1000 O   0  0  0  0  0  0  0  0  0  0  0  0
    7.1650   -0.7340   21.1470 N   0  0  0  0  0  0  0  0  0  0  0  0
    6.5290   -0.0630   20.0860 C   0  0  0  0  0  0  0  0  0  0  0  0
    5.2710    0.7230   20.3520 C   0  0  0  0  0  0  0  0  0  0  0  0
    4.6420    1.4050   19.3060 C   0  0  0  0  0  0  0  0  0  0  0  0
    5.1690    1.3660   18.0200 C   0  0  0  0  0  0  0  0  0  0  0  0
    6.3930    0.5980   17.7450 N   0  0  0  0  0  0  0  0  0  0  0  0
    6.9860   -0.0630   18.7930 C   0  0  0  0  0  0  0  0  0  0  0  0
  1  2  2  0
  2  3  1  0
  3  4  1  0
  5  4  1  6
  5  6  1  0
  6  7  1  0
  7  8  1  0
  8  9  1  0
  5 10  1  0
  9 10  1  0
 10 11  2  0
  2 12  1  0
 12 13  1  0
 13 14  2  0
 14 15  1  0
 15 16  2  0
 16 17  1  0
 13 18  1  0
 17 18  2  0
M  END
