pyridine_urea_2832
     RDKit          3D

 22 23  0  0  0  0  0  0  0  0999 V2000
    8.7350    1.2280   21.1350 O   0  0  0  0  0  0  0  0  0  0  0  0
    8.3360    0.0630   21.2930 C   0  0  0  0  0  0  0  0  0  0  0  0
    7.0240   -0.3130   21.1630 N   0  0  0  0  0  0  0  0  0  0  0  0
    6.3520    0.2620   20.0390 C   0  0  0  0  0  0  0  0  0  0  0  0
    5.0190    1.0300   20.2730 C   0  0  0  0  0  0  0  0  0  0  0  0
    4.4270    1.5900   19.1570 C   0  0  0  0  0  0  0  0  0  0  0  0
    5.1490    1.3900   17.8240 C   0  0  0  0  0  0  0  0  0  0  0  0
    6.3010    0.7030   17.6790 N   0  0  0  0  0  0  0  0  0  0  0  0
    6.8650    0.1600   18.7690 C   0  0  0  0  0  0  0  0  0  0  0  0
    9.0770   -1.0330   21.5750 N   0  0  0  0  0  0  0  0  0  0  0  0
   10.4000   -0.8490   22.1140 C   0  0  2  0  0  0  0  0  0  0  0  0
   11.1940   -2.1330   21.9820 C   0  0  0  0  0  0  0  0  0  0  0  0
   12.6270   -1.8260   21.5780 C   0  0  0  0  0  0  0  0  0  0  0  0
   13.3540   -2.7290   21.9810 O   0  0  0  0  0  0  0  0  0  0  0  0
   10.1800   -0.6160   23.3770 C   0  0  0  0  0  0  0  0  0  0  0  0
    9.2070   -0.3830   24.4050 C   0  0  0  0  0  0  0  0  0  0  0  0
   10.2870   -0.2640   25.6310 C   0  0  0  0  0  0  0  0  0  0  0  0
    9.5330    0.0440   27.1690 Cl  0  0  0  0  0  0  0  0  0  0  0  0
   11.8550   -0.4050   25.3990 C   0  0  0  0  0  0  0  0  0  0  0  0
   12.0120   -0.5740   24.1290 C   0  0  0  0  0  0  0  0  0  0  0  0
   13.1720   -0.7900   22.9090 Cl  0  0  0  0  0  0  0  0  0  0  0  0
   10.8110   -0.4780   24.4200 C   0  0  0  0  0  0  0  0  0  0  0  0
  1  2  2  0
  2  3  1  0
  3  4  1  0
  4  5  2  0
  5  6  1  0
  6  7  2  0
  7  8  1  0
  4  9  1  0
  8  9  2  0
  2 10  1  0
 10 11  1  0
 11 12  1  1
 12 13  1  0
 13 14  1  0
 11 15  1  0
 15 16  2  0
 16 17  1  0
 17 18  1  0
 17 19  2  0
 19 20  1  0
 20 21  1  0
 15 22  1  0
 20 22  2  0
M  END
