pyridine_urea_4867
     RDKit          3D

 21 23  0  0  0  0  0  0  0  0999 V2000
   14.2290   -2.5290   25.7610 N   0  0  0  0  0  0  0  0  0  0  0  0
   13.4600   -1.9770   25.0870 C   0  0  0  0  0  0  0  0  0  0  0  0
   12.3640   -1.3610   24.1910 C   0  0  0  0  0  0  0  0  0  0  0  0
   10.8840   -0.9830   24.7480 C   0  0  0  0  0  0  0  0  0  0  0  0
    9.7480   -0.4380   23.8630 C   0  0  0  0  0  0  0  0  0  0  0  0
    9.8720   -0.1830   22.3950 C   0  0  0  0  0  0  0  0  0  0  0  0
   11.0980   -0.5310   22.1820 C   0  0  0  0  0  0  0  0  0  0  0  0
   12.1980   -1.0440   22.9450 C   0  0  0  0  0  0  0  0  0  0  0  0
   11.4710   -0.9700   24.1320 C   0  0  0  0  0  0  0  0  0  0  0  0
   10.7930    0.1200   24.1660 C   0  0  0  0  0  0  0  0  0  0  0  0
   10.1720   -0.5100   23.2510 C   0  0  1  0  0  0  0  0  0  0  0  0
    8.9110   -0.0500   22.8170 N   0  0  0  0  0  0  0  0  0  0  0  0
    8.4450    0.4160   21.5540 C   0  0  0  0  0  0  0  0  0  0  0  0
    8.8880    1.4450   21.0400 O   0  0  0  0  0  0  0  0  0  0  0  0
    7.4610   -0.3940   21.0510 N   0  0  0  0  0  0  0  0  0  0  0  0
    6.7060    0.1500   20.0680 C   0  0  0  0  0  0  0  0  0  0  0  0
    5.5860    0.8960   20.4350 C   0  0  0  0  0  0  0  0  0  0  0  0
    4.7980    1.4810   19.3950 C   0  0  0  0  0  0  0  0  0  0  0  0
    5.1770    1.2830   18.1000 C   0  0  0  0  0  0  0  0  0  0  0  0
    6.2780    0.5390   17.7280 N   0  0  0  0  0  0  0  0  0  0  0  0
    6.9960    0.0020   18.7270 C   0  0  0  0  0  0  0  0  0  0  0  0
  1  2  3  0
  2  3  1  0
  3  4  2  0
  4  5  1  0
  5  6  2  0
  6  7  1  0
  3  8  1  0
  7  8  2  0
  8  9  1  0
  9 10  1  0
  7 11  1  0
 10 11  1  0
 11 12  1  6
 12 13  1  0
 13 14  2  0
 13 15  1  0
 15 16  1  0
 16 17  2  0
 17 18  1  0
 18 19  2  0
 19 20  1  0
 16 21  1  0
 20 21  2  0
M  END
