pyridine_urea_6838
     RDKit          3D

 21 22  0  0  0  0  0  0  0  0999 V2000
   13.4630   -1.8520   25.4090 C   0  0  0  0  0  0  0  0  0  0  0  0
   12.7660   -1.5620   24.1060 C   0  0  0  0  0  0  0  0  0  0  0  0
   13.5950   -2.3820   23.1630 C   0  0  0  0  0  0  0  0  0  0  0  0
   13.1980   -2.3960   21.7920 C   0  0  0  0  0  0  0  0  0  0  0  0
   12.0730   -1.6320   21.5780 C   0  0  0  0  0  0  0  0  0  0  0  0
   11.4070   -0.9110   22.5340 C   0  0  0  0  0  0  0  0  0  0  0  0
   11.6100   -0.7360   23.9350 C   0  0  0  0  0  0  0  0  0  0  0  0
   10.5480   -0.0630   23.4070 C   0  0  0  0  0  0  0  0  0  0  0  0
    9.7180   -1.0720   23.0030 C   0  0  0  0  0  0  0  0  0  0  0  0
   10.0380   -1.5870   21.7640 C   0  0  0  0  0  0  0  0  0  0  0  0
    9.3650   -2.3800   23.7510 C   0  0  0  0  0  0  0  0  0  0  0  0
    8.4540   -0.4440   22.7970 N   0  0  0  0  0  0  0  0  0  0  0  0
    8.2160    0.1910   21.6180 C   0  0  0  0  0  0  0  0  0  0  0  0
    8.8790    1.1600   21.2150 O   0  0  0  0  0  0  0  0  0  0  0  0
    7.1570   -0.4070   21.0020 N   0  0  0  0  0  0  0  0  0  0  0  0
    6.4980    0.1690   19.9770 C   0  0  0  0  0  0  0  0  0  0  0  0
    5.3580    0.9080   20.2130 C   0  0  0  0  0  0  0  0  0  0  0  0
    4.6800    1.5220   19.1910 C   0  0  0  0  0  0  0  0  0  0  0  0
    5.1550    1.3920   17.9090 C   0  0  0  0  0  0  0  0  0  0  0  0
    6.2520    0.6750   17.6200 N   0  0  0  0  0  0  0  0  0  0  0  0
    6.8980    0.0810   18.6580 C   0  0  0  0  0  0  0  0  0  0  0  0
  1  2  1  0
  2  3  2  0
  3  4  1  0
  4  5  2  0
  5  6  1  0
  2  7  1  0
  6  7  2  0
  7  8  1  0
  8  9  1  0
  9 10  1  0
  9 11  1  0
  9 12  1  0
 12 13  1  0
 13 14  2  0
 13 15  1  0
 15 16  1  0
 16 17  2  0
 17 18  1  0
 18 19  2  0
 19 20  1  0
 16 21  1  0
 20 21  2  0
M  END
