pyridine_urea_15172
     RDKit          3D

 18 19  0  0  0  0  0  0  0  0999 V2000
    8.7580   -1.4230   24.0140 C   0  0  0  0  0  0  0  0  0  0  0  0
   10.1910   -1.4640   23.4750 C   0  0  0  0  0  0  0  0  0  0  0  0
   11.3850   -1.4410   24.3190 C   0  0  0  0  0  0  0  0  0  0  0  0
   11.1160   -1.4160   25.5430 F   0  0  0  0  0  0  0  0  0  0  0  0
   12.8220   -1.4630   23.9080 C   0  0  0  0  0  0  0  0  0  0  0  0
   13.0280   -1.5700   22.4250 C   0  0  0  0  0  0  0  0  0  0  0  0
   11.8640   -1.6370   21.4690 C   0  0  0  0  0  0  0  0  0  0  0  0
   10.4520   -1.5530   22.0320 C   0  0  0  0  0  0  0  0  0  0  0  0
    9.2480   -1.5550   21.2230 N   0  0  0  0  0  0  0  0  0  0  0  0
    8.4640   -0.4250   21.2260 C   0  0  0  0  0  0  0  0  0  0  0  0
    8.9360    0.6890   21.4070 O   0  0  0  0  0  0  0  0  0  0  0  0
    7.1430   -0.7020   20.9860 N   0  0  0  0  0  0  0  0  0  0  0  0
    6.3990   -0.0030   20.0330 C   0  0  0  0  0  0  0  0  0  0  0  0
    5.2220    0.6890   20.2660 C   0  0  0  0  0  0  0  0  0  0  0  0
    4.5900    1.3580   19.2220 C   0  0  0  0  0  0  0  0  0  0  0  0
    5.1680    1.3110   17.9580 C   0  0  0  0  0  0  0  0  0  0  0  0
    6.3020    0.6410   17.7120 N   0  0  0  0  0  0  0  0  0  0  0  0
    6.8820    0.0060   18.7430 C   0  0  0  0  0  0  0  0  0  0  0  0
  1  2  1  0
  2  3  2  0
  3  4  1  0
  3  5  1  0
  5  6  2  0
  6  7  1  0
  2  8  1  0
  7  8  2  0
  8  9  1  0
  9 10  1  0
 10 11  2  0
 10 12  1  0
 12 13  1  0
 13 14  2  0
 14 15  1  0
 15 16  2  0
 16 17  1  0
 13 18  1  0
 17 18  2  0
M  END
