pyridine_urea_14723
     RDKit          3D

 20 21  0  0  0  0  0  0  0  0999 V2000
    8.5410    0.8000   21.0720 O   0  0  0  0  0  0  0  0  0  0  0  0
    8.0440   -0.2430   21.4730 C   0  0  0  0  0  0  0  0  0  0  0  0
    8.5510   -0.9630   22.5030 N   0  0  0  0  0  0  0  0  0  0  0  0
    9.4310   -0.3250   23.3540 C   0  0  0  0  0  0  0  0  0  0  0  0
   10.5220    0.2940   22.8120 C   0  0  2  0  0  0  0  0  0  0  0  0
   11.6650   -0.3020   23.1980 C   0  0  0  0  0  0  0  0  0  0  0  0
   12.8220    0.3450   22.8440 C   0  0  0  0  0  0  0  0  0  0  0  0
   13.0150   -1.0380   22.8730 C   0  0  0  0  0  0  0  0  0  0  0  0
   11.8460   -1.7160   22.8720 F   0  0  0  0  0  0  0  0  0  0  0  0
   13.6580   -1.4770   23.9790 F   0  0  0  0  0  0  0  0  0  0  0  0
   13.6460   -1.4670   21.7650 F   0  0  0  0  0  0  0  0  0  0  0  0
   12.2110    1.5700   22.8990 N   0  0  0  0  0  0  0  0  0  0  0  0
   10.7790    1.4230   23.1480 O   0  0  0  0  0  0  0  0  0  0  0  0
    6.9060   -0.7770   20.9480 N   0  0  0  0  0  0  0  0  0  0  0  0
    6.3250   -0.0710   19.9070 C   0  0  0  0  0  0  0  0  0  0  0  0
    5.1390    0.6330   20.0870 C   0  0  0  0  0  0  0  0  0  0  0  0
    4.5160    1.3840   19.0880 C   0  0  0  0  0  0  0  0  0  0  0  0
    5.1200    1.4340   17.8370 C   0  0  0  0  0  0  0  0  0  0  0  0
    6.3040    0.7200   17.6660 N   0  0  0  0  0  0  0  0  0  0  0  0
    6.8760   -0.0010   18.6610 C   0  0  0  0  0  0  0  0  0  0  0  0
  1  2  2  0
  2  3  1  0
  3  4  1  0
  5  4  1  1
  5  6  1  0
  6  7  1  0
  7  8  1  0
  8  9  1  0
  8 10  1  0
  8 11  1  0
  7 12  2  0
  5 13  1  0
 12 13  1  0
  2 14  1  0
 14 15  1  0
 15 16  2  0
 16 17  1  0
 17 18  2  0
 18 19  1  0
 15 20  1  0
 19 20  2  0
M  END
