pyridine_urea_904
     RDKit          3D

 22 24  0  0  0  0  0  0  0  0999 V2000
   13.8290    4.5950   23.0030 C   0  0  0  0  0  0  0  0  0  0  0  0
   12.9360    3.8080   23.8050 O   0  0  0  0  0  0  0  0  0  0  0  0
   12.8020    2.5080   23.4050 C   0  0  0  0  0  0  0  0  0  0  0  0
   12.7380    2.3330   22.0990 C   0  0  0  0  0  0  0  0  0  0  0  0
   12.5980    1.0800   21.6640 C   0  0  0  0  0  0  0  0  0  0  0  0
   12.4870    0.0220   22.3680 C   0  0  0  0  0  0  0  0  0  0  0  0
   12.4960   -0.0910   23.5590 C   0  0  0  0  0  0  0  0  0  0  0  0
   12.7140    1.2810   24.1710 C   0  0  0  0  0  0  0  0  0  0  0  0
   12.5050   -0.2110   24.8200 C   0  0  0  0  0  0  0  0  0  0  0  0
   11.3420   -1.0150   24.5700 C   0  0  0  0  0  0  0  0  0  0  0  0
   10.9300   -1.2170   23.1390 C   0  0  1  0  0  0  0  0  0  0  0  0
    9.8860   -0.4170   22.5970 N   0  0  0  0  0  0  0  0  0  0  0  0
    9.2060   -0.3800   21.3630 C   0  0  0  0  0  0  0  0  0  0  0  0
    9.7510   -0.7920   20.3480 O   0  0  0  0  0  0  0  0  0  0  0  0
    7.9080    0.1570   21.4590 N   0  0  0  0  0  0  0  0  0  0  0  0
    7.0040    0.4900   20.3860 C   0  0  0  0  0  0  0  0  0  0  0  0
    5.6920    0.9810   20.5070 C   0  0  0  0  0  0  0  0  0  0  0  0
    4.9230    1.2690   19.3420 C   0  0  0  0  0  0  0  0  0  0  0  0
    5.4330    1.0750   18.0600 C   0  0  0  0  0  0  0  0  0  0  0  0
    6.6970    0.6020   17.8920 N   0  0  0  0  0  0  0  0  0  0  0  0
    7.4330    0.3300   19.0220 C   0  0  0  0  0  0  0  0  0  0  0  0
   12.2290   -1.2730   22.0760 C   0  0  0  0  0  0  0  0  0  0  0  0
  1  2  1  0
  2  3  1  0
  3  4  2  0
  4  5  1  0
  5  6  2  0
  6  7  1  0
  3  8  1  0
  7  8  2  0
  7  9  1  0
  9 10  1  0
 10 11  1  0
 11 12  1  6
 12 13  1  0
 13 14  2  0
 13 15  1  0
 15 16  1  0
 16 17  2  0
 17 18  1  0
 18 19  2  0
 19 20  1  0
 16 21  1  0
 20 21  2  0
  6 22  1  0
 11 22  1  0
M  END
