pyridine_urea_11573
     RDKit          3D

 20 21  0  0  0  0  0  0  0  0999 V2000
    7.9500    3.5990   24.9450 C   0  0  0  0  0  0  0  0  0  0  0  0
    7.9300    2.2130   24.3710 C   0  0  0  0  0  0  0  0  0  0  0  0
    8.9660    1.4280   24.9990 O   0  0  0  0  0  0  0  0  0  0  0  0
   10.1260    1.3520   24.2910 C   0  0  0  0  0  0  0  0  0  0  0  0
   10.9100    2.4590   23.8080 O   0  0  0  0  0  0  0  0  0  0  0  0
   10.7060    0.1250   23.9540 C   0  0  2  0  0  0  0  0  0  0  0  0
   12.0740    0.0570   24.1990 C   0  0  0  0  0  0  0  0  0  0  0  0
   12.7090   -0.7380   23.2370 C   0  0  0  0  0  0  0  0  0  0  0  0
   11.6990   -1.2610   22.4490 C   0  0  0  0  0  0  0  0  0  0  0  0
   10.5230   -0.2880   22.6370 C   0  0  1  0  0  0  0  0  0  0  0  0
    9.1980   -0.7750   22.3320 N   0  0  0  0  0  0  0  0  0  0  0  0
    8.3340   -0.1390   21.5010 C   0  0  0  0  0  0  0  0  0  0  0  0
    8.5470    0.9940   21.1050 O   0  0  0  0  0  0  0  0  0  0  0  0
    7.1950   -0.7200   21.0510 N   0  0  0  0  0  0  0  0  0  0  0  0
    6.4220   -0.0460   20.0900 C   0  0  0  0  0  0  0  0  0  0  0  0
    5.2250    0.6310   20.3010 C   0  0  0  0  0  0  0  0  0  0  0  0
    4.6090    1.2650   19.2410 C   0  0  0  0  0  0  0  0  0  0  0  0
    5.1730    1.2250   17.9950 C   0  0  0  0  0  0  0  0  0  0  0  0
    6.3180    0.5820   17.7310 N   0  0  0  0  0  0  0  0  0  0  0  0
    6.9040   -0.0330   18.7850 C   0  0  0  0  0  0  0  0  0  0  0  0
  1  2  1  0
  2  3  1  0
  3  4  1  0
  4  5  2  0
  6  4  1  6
  6  7  1  0
  7  8  1  0
  8  9  1  0
  6 10  1  0
  9 10  1  0
 10 11  1  1
 11 12  1  0
 12 13  2  0
 12 14  1  0
 14 15  1  0
 15 16  2  0
 16 17  1  0
 17 18  2  0
 18 19  1  0
 15 20  1  0
 19 20  2  0
M  END
