pyridine_urea_12980
     RDKit          3D

 19 20  0  0  0  0  0  0  0  0999 V2000
   13.6320   -1.6810   20.7030 C   0  0  0  0  0  0  0  0  0  0  0  0
   13.1320   -2.9900   21.2360 C   0  0  0  0  0  0  0  0  0  0  0  0
   12.2760   -2.4370   22.1740 N   0  0  0  0  0  0  0  0  0  0  0  0
   11.0400   -2.3580   22.0460 C   0  0  0  0  0  0  0  0  0  0  0  0
   10.6130   -1.7800   23.1020 C   0  0  0  0  0  0  0  0  0  0  0  0
    9.2820   -1.5720   23.2570 C   0  0  1  0  0  0  0  0  0  0  0  0
    8.8860   -0.5230   24.0470 C   0  0  0  0  0  0  0  0  0  0  0  0
    8.7870   -1.3220   22.0090 N   0  0  0  0  0  0  0  0  0  0  0  0
    8.0990   -0.2240   21.4990 C   0  0  0  0  0  0  0  0  0  0  0  0
    8.6370    0.8660   21.3430 O   0  0  0  0  0  0  0  0  0  0  0  0
    6.8250   -0.5190   21.1960 N   0  0  0  0  0  0  0  0  0  0  0  0
    6.3160    0.0880   20.1030 C   0  0  0  0  0  0  0  0  0  0  0  0
    5.1550    0.8270   20.2530 C   0  0  0  0  0  0  0  0  0  0  0  0
    4.5970    1.4770   19.1550 C   0  0  0  0  0  0  0  0  0  0  0  0
    5.2360    1.3620   17.9180 C   0  0  0  0  0  0  0  0  0  0  0  0
    6.3610    0.6490   17.7500 N   0  0  0  0  0  0  0  0  0  0  0  0
    6.8710    0.0300   18.8320 C   0  0  0  0  0  0  0  0  0  0  0  0
   11.7090   -1.3640   24.1560 C   0  0  0  0  0  0  0  0  0  0  0  0
   12.7140   -1.9020   23.3220 N   0  0  0  0  0  0  0  0  0  0  0  0
  1  2  1  0
  2  3  1  0
  3  4  1  0
  4  5  2  0
  5  6  1  0
  6  7  1  1
  6  8  1  0
  8  9  1  0
  9 10  2  0
  9 11  1  0
 11 12  1  0
 12 13  2  0
 13 14  1  0
 14 15  2  0
 15 16  1  0
 12 17  1  0
 16 17  2  0
  5 18  1  0
  3 19  1  0
 18 19  2  0
M  END
