pyridine_urea_5969
     RDKit          3D

 26 28  0  0  0  0  0  0  0  0999 V2000
    8.2740    1.1150   25.1230 C   0  0  0  0  0  0  0  0  0  0  0  0
    9.1750    1.7170   24.1950 O   0  0  0  0  0  0  0  0  0  0  0  0
   10.0440    0.8140   23.6660 C   0  0  0  0  0  0  0  0  0  0  0  0
   11.3760    0.8370   23.9600 C   0  0  0  0  0  0  0  0  0  0  0  0
   12.1390   -0.1400   23.3820 C   0  0  0  0  0  0  0  0  0  0  0  0
   13.3180   -0.3290   23.5760 N   0  0  0  0  0  0  0  0  0  0  0  0
   13.2650   -1.2310   22.5670 C   0  0  0  0  0  0  0  0  0  0  0  0
   12.7510   -2.6500   22.7760 C   0  0  0  0  0  0  0  0  0  0  0  0
   12.0310   -2.9780   24.3280 S   0  0  0  0  0  0  0  0  0  0  0  0
   10.7370   -3.5930   24.2080 O   0  0  0  0  0  0  0  0  0  0  0  0
   13.0750   -3.4420   25.2150 O   0  0  0  0  0  0  0  0  0  0  0  0
   11.7820   -1.3930   24.7220 C   0  0  0  0  0  0  0  0  0  0  0  0
   13.1440   -0.8390   24.8290 C   0  0  0  0  0  0  0  0  0  0  0  0
   11.6940   -1.1240   22.4920 C   0  0  0  0  0  0  0  0  0  0  0  0
   10.3830   -1.1050   22.2280 C   0  0  0  0  0  0  0  0  0  0  0  0
    9.5770   -0.1710   22.8110 C   0  0  0  0  0  0  0  0  0  0  0  0
    8.2810   -0.1790   22.5630 N   0  0  0  0  0  0  0  0  0  0  0  0
    7.8640    0.2510   21.3560 C   0  0  0  0  0  0  0  0  0  0  0  0
    8.3960    1.4270   20.7410 O   0  0  0  0  0  0  0  0  0  0  0  0
    6.9260   -0.5660   20.8770 N   0  0  0  0  0  0  0  0  0  0  0  0
    6.2420    0.1090   19.9040 C   0  0  0  0  0  0  0  0  0  0  0  0
    5.0260    0.7710   20.0760 C   0  0  0  0  0  0  0  0  0  0  0  0
    4.4590    1.4420   18.9960 C   0  0  0  0  0  0  0  0  0  0  0  0
    5.1320    1.4230   17.7840 C   0  0  0  0  0  0  0  0  0  0  0  0
    6.2850    0.7800   17.6230 N   0  0  0  0  0  0  0  0  0  0  0  0
    6.8350    0.1310   18.6640 C   0  0  0  0  0  0  0  0  0  0  0  0
  1  2  1  0
  2  3  1  0
  3  4  2  0
  4  5  1  0
  5  6  1  0
  6  7  1  0
  7  8  1  0
  9  8  1  0
  9 10  2  0
  9 11  2  0
  9 12  1  0
  6 13  1  0
 12 13  1  0
  5 14  2  0
 14 15  1  0
  3 16  1  0
 15 16  2  0
 16 17  1  0
 17 18  1  0
 18 19  2  0
 18 20  1  0
 20 21  1  0
 21 22  2  0
 22 23  1  0
 23 24  2  0
 24 25  1  0
 21 26  1  0
 25 26  2  0
M  END
