pyridine_urea_5301
     RDKit          3D

 19 20  0  0  0  0  0  0  0  0999 V2000
   11.5430   -2.9650   24.4290 N   0  0  0  0  0  0  0  0  0  0  0  0
   10.3380   -2.7170   23.8740 C   0  0  0  0  0  0  0  0  0  0  0  0
    9.2600   -3.6250   24.0830 O   0  0  0  0  0  0  0  0  0  0  0  0
   10.2130   -1.4930   23.0170 C   0  0  2  0  0  0  0  0  0  0  0  0
    9.0290   -1.4370   22.2860 N   0  0  0  0  0  0  0  0  0  0  0  0
    8.4380   -0.3750   21.5460 C   0  0  0  0  0  0  0  0  0  0  0  0
    8.9750    0.7160   21.4050 O   0  0  0  0  0  0  0  0  0  0  0  0
    7.2020   -0.7340   21.0390 N   0  0  0  0  0  0  0  0  0  0  0  0
    6.5530   -0.0860   20.0880 C   0  0  0  0  0  0  0  0  0  0  0  0
    5.4060    0.6730   20.3390 C   0  0  0  0  0  0  0  0  0  0  0  0
    4.6800    1.4250   19.2290 C   0  0  0  0  0  0  0  0  0  0  0  0
    5.2150    1.3210   17.9670 C   0  0  0  0  0  0  0  0  0  0  0  0
    6.3310    0.5570   17.8190 N   0  0  0  0  0  0  0  0  0  0  0  0
    7.0490   -0.1690   18.7890 C   0  0  0  0  0  0  0  0  0  0  0  0
   11.3300   -1.6570   21.9350 C   0  0  0  0  0  0  0  0  0  0  0  0
   12.6290   -1.2220   22.2890 C   0  0  0  0  0  0  0  0  0  0  0  0
   12.7190    0.0100   22.9150 C   0  0  0  0  0  0  0  0  0  0  0  0
   11.7260   -0.0190   23.9220 O   0  0  0  0  0  0  0  0  0  0  0  0
   10.3650   -0.2320   23.5430 C   0  0  0  0  0  0  0  0  0  0  0  0
  1  2  1  0
  2  3  2  0
  4  2  1  0
  4  5  1  6
  5  6  1  0
  6  7  2  0
  6  8  1  0
  8  9  1  0
  9 10  2  0
 10 11  1  0
 11 12  2  0
 12 13  1  0
  9 14  1  0
 13 14  2  0
  4 15  1  0
 15 16  1  0
 16 17  1  0
 17 18  1  0
  4 19  1  0
 18 19  1  0
M  END
