pyridine_urea_4271
     RDKit          3D

 24 25  0  0  0  0  0  0  0  0999 V2000
    9.1550    0.0310   27.8710 C   0  0  0  0  0  0  0  0  0  0  0  0
    8.7400    0.3700   26.4350 C   0  0  0  0  0  0  0  0  0  0  0  0
    9.8090   -0.0720   25.5810 O   0  0  0  0  0  0  0  0  0  0  0  0
    9.3700   -0.9220   24.5290 C   0  0  0  0  0  0  0  0  0  0  0  0
    8.6200   -2.0350   24.8060 O   0  0  0  0  0  0  0  0  0  0  0  0
    9.7400   -0.5810   23.1050 C   0  0  1  0  0  0  0  0  0  0  0  0
   11.1450   -0.9370   22.6390 C   0  0  0  0  0  0  0  0  0  0  0  0
   11.9280    0.3270   22.7160 C   0  0  0  0  0  0  0  0  0  0  0  0
   13.2070    0.9230   22.8620 C   0  0  0  0  0  0  0  0  0  0  0  0
   12.9180    2.4770   22.7590 C   0  0  0  0  0  0  0  0  0  0  0  0
   11.6580    3.4130   22.5630 C   0  0  0  0  0  0  0  0  0  0  0  0
   13.0670    4.6720   22.6550 Br  0  0  0  0  0  0  0  0  0  0  0  0
   10.9020    2.3080   22.5360 C   0  0  0  0  0  0  0  0  0  0  0  0
   11.7800    1.5260   22.6700 C   0  0  0  0  0  0  0  0  0  0  0  0
    8.7910   -1.2760   22.2420 N   0  0  0  0  0  0  0  0  0  0  0  0
    8.2380   -0.3370   21.4470 C   0  0  0  0  0  0  0  0  0  0  0  0
    8.7710    0.8910   21.2010 O   0  0  0  0  0  0  0  0  0  0  0  0
    7.0520   -0.7790   20.9370 N   0  0  0  0  0  0  0  0  0  0  0  0
    6.3450   -0.0430   19.9930 C   0  0  0  0  0  0  0  0  0  0  0  0
    5.1590    0.6500   20.1950 C   0  0  0  0  0  0  0  0  0  0  0  0
    4.5160    1.4120   19.1010 C   0  0  0  0  0  0  0  0  0  0  0  0
    5.1670    1.3900   17.8800 C   0  0  0  0  0  0  0  0  0  0  0  0
    6.3200    0.7080   17.6860 N   0  0  0  0  0  0  0  0  0  0  0  0
    6.8680    0.0240   18.7170 C   0  0  0  0  0  0  0  0  0  0  0  0
  1  2  1  0
  2  3  1  0
  3  4  1  0
  4  5  2  0
  4  6  1  0
  6  7  1  6
  7  8  1  0
  8  9  2  0
  9 10  1  0
 10 11  2  0
 11 12  1  0
 11 13  1  0
  8 14  1  0
 13 14  2  0
  6 15  1  0
 15 16  1  0
 16 17  2  0
 16 18  1  0
 18 19  1  0
 19 20  2  0
 20 21  1  0
 21 22  2  0
 22 23  1  0
 19 24  1  0
 23 24  2  0
M  END
