pyridine_urea_5522
     RDKit          3D

 17 18  0  0  0  0  0  0  0  0999 V2000
    8.6470    0.8420   21.2360 O   0  0  0  0  0  0  0  0  0  0  0  0
    8.3440   -0.3240   21.4570 C   0  0  0  0  0  0  0  0  0  0  0  0
    7.1090   -0.8240   21.1050 N   0  0  0  0  0  0  0  0  0  0  0  0
    6.4350   -0.0940   20.0520 C   0  0  0  0  0  0  0  0  0  0  0  0
    5.1170    0.6870   20.3670 C   0  0  0  0  0  0  0  0  0  0  0  0
    4.5220    1.3810   19.3180 C   0  0  0  0  0  0  0  0  0  0  0  0
    5.2190    1.3090   17.9560 C   0  0  0  0  0  0  0  0  0  0  0  0
    6.3570    0.6110   17.7390 N   0  0  0  0  0  0  0  0  0  0  0  0
    6.9230   -0.0590   18.7640 C   0  0  0  0  0  0  0  0  0  0  0  0
    9.1480   -1.2600   22.0530 N   0  0  0  0  0  0  0  0  0  0  0  0
   10.4980   -0.7790   22.2970 C   0  0  2  0  0  0  0  0  0  0  0  0
   11.5660   -1.7770   21.8810 C   0  0  0  0  0  0  0  0  0  0  0  0
   12.7820   -1.1580   22.5400 C   0  0  2  0  0  0  0  0  0  0  0  0
   13.5240   -2.0380   22.9390 O   0  0  0  0  0  0  0  0  0  0  0  0
   12.2800   -0.4270   23.7570 C   0  0  2  0  0  0  0  0  0  0  0  0
   12.4300   -1.3990   24.7920 O   0  0  0  0  0  0  0  0  0  0  0  0
   10.7700   -0.3030   23.5420 C   0  0  0  0  0  0  0  0  0  0  0  0
  1  2  2  0
  2  3  1  0
  3  4  1  0
  4  5  2  0
  5  6  1  0
  6  7  2  0
  7  8  1  0
  4  9  1  0
  8  9  2  0
  2 10  1  0
 11 10  1  1
 11 12  1  0
 12 13  1  0
 13 14  1  1
 13 15  1  0
 15 16  1  1
 11 17  1  0
 15 17  1  0
M  END
