pyridine_urea_14529
     RDKit          3D

 21 23  0  0  0  0  0  0  0  0999 V2000
    8.8620    1.1990   21.0930 O   0  0  0  0  0  0  0  0  0  0  0  0
    8.5470    0.0460   21.4050 C   0  0  0  0  0  0  0  0  0  0  0  0
    7.3540   -0.5470   21.0180 N   0  0  0  0  0  0  0  0  0  0  0  0
    6.5240    0.0800   20.0740 C   0  0  0  0  0  0  0  0  0  0  0  0
    5.3380    0.7650   20.3360 C   0  0  0  0  0  0  0  0  0  0  0  0
    4.6320    1.3590   19.2850 C   0  0  0  0  0  0  0  0  0  0  0  0
    5.1440    1.2420   18.0100 C   0  0  0  0  0  0  0  0  0  0  0  0
    6.2750    0.5820   17.7260 N   0  0  0  0  0  0  0  0  0  0  0  0
    6.9290    0.0230   18.7550 C   0  0  0  0  0  0  0  0  0  0  0  0
    9.3580   -0.7910   22.1600 N   0  0  0  0  0  0  0  0  0  0  0  0
   10.6390   -0.4120   22.6250 C   0  0  0  0  0  0  0  0  0  0  0  0
   10.8930    0.9610   22.7910 C   0  0  0  0  0  0  0  0  0  0  0  0
   12.2140    1.4590   22.7420 C   0  0  0  0  0  0  0  0  0  0  0  0
   12.4680    2.8270   22.8900 C   0  0  0  0  0  0  0  0  0  0  0  0
   11.4330    3.7290   23.0990 C   0  0  0  0  0  0  0  0  0  0  0  0
   10.0470    3.2150   23.1630 C   0  0  0  0  0  0  0  0  0  0  0  0
    9.0560    4.1280   23.3760 F   0  0  0  0  0  0  0  0  0  0  0  0
    9.8160    1.8460   23.0040 C   0  0  0  0  0  0  0  0  0  0  0  0
   11.9150   -0.9750   22.3040 C   0  0  0  0  0  0  0  0  0  0  0  0
   12.2150   -1.5330   23.4860 C   0  0  0  0  0  0  0  0  0  0  0  0
   10.9540   -1.2350   23.9060 C   0  0  0  0  0  0  0  0  0  0  0  0
  1  2  2  0
  2  3  1  0
  3  4  1  0
  4  5  2  0
  5  6  1  0
  6  7  2  0
  7  8  1  0
  4  9  1  0
  8  9  2  0
  2 10  1  0
 11 10  1  0
 11 12  1  0
 12 13  2  0
 13 14  1  0
 14 15  2  0
 15 16  1  0
 16 17  1  0
 12 18  1  0
 16 18  2  0
 11 19  1  0
 19 20  1  0
 11 21  1  0
 20 21  1  0
M  END
