pyridine_urea_12109
     RDKit          3D

 23 25  0  0  0  0  0  0  0  0999 V2000
    8.6320    0.7070   21.2700 O   0  0  0  0  0  0  0  0  0  0  0  0
    8.0530   -0.3240   21.5780 C   0  0  0  0  0  0  0  0  0  0  0  0
    6.9090   -0.7860   21.0010 N   0  0  0  0  0  0  0  0  0  0  0  0
    6.3200   -0.0820   19.9540 C   0  0  0  0  0  0  0  0  0  0  0  0
    5.1520    0.6460   20.1960 C   0  0  0  0  0  0  0  0  0  0  0  0
    4.5630    1.3680   19.1610 C   0  0  0  0  0  0  0  0  0  0  0  0
    5.1670    1.3350   17.9210 C   0  0  0  0  0  0  0  0  0  0  0  0
    6.2850    0.6390   17.6710 N   0  0  0  0  0  0  0  0  0  0  0  0
    6.8350   -0.0530   18.6820 C   0  0  0  0  0  0  0  0  0  0  0  0
    8.5080   -1.1330   22.5820 N   0  0  0  0  0  0  0  0  0  0  0  0
    9.7930   -0.6900   23.0970 C   0  0  1  0  0  0  0  0  0  0  0  0
    9.6200    0.3550   24.1420 C   0  0  0  0  0  0  0  0  0  0  0  0
   10.6080    1.2640   23.9560 C   0  0  0  0  0  0  0  0  0  0  0  0
   11.8500    0.6110   24.0410 C   0  0  0  0  0  0  0  0  0  0  0  0
   11.8750   -0.3520   25.0650 C   0  0  0  0  0  0  0  0  0  0  0  0
   11.4440   -1.6160   24.6680 C   0  0  0  0  0  0  0  0  0  0  0  0
   10.8100   -1.7750   23.4540 C   0  0  2  0  0  0  0  0  0  0  0  0
   11.7300   -1.6180   22.5450 C   0  0  0  0  0  0  0  0  0  0  0  0
   11.9440   -2.5770   21.6460 C   0  0  0  0  0  0  0  0  0  0  0  0
   12.8720   -2.4600   20.7100 C   0  0  0  0  0  0  0  0  0  0  0  0
   13.6030   -1.3060   20.6690 C   0  0  0  0  0  0  0  0  0  0  0  0
   13.3800   -0.3180   21.5980 C   0  0  0  0  0  0  0  0  0  0  0  0
   12.4450   -0.4670   22.5480 C   0  0  0  0  0  0  0  0  0  0  0  0
  1  2  2  0
  2  3  1  0
  3  4  1  0
  4  5  2  0
  5  6  1  0
  6  7  2  0
  7  8  1  0
  4  9  1  0
  8  9  2  0
  2 10  1  0
 11 10  1  1
 11 12  1  0
 12 13  1  0
 13 14  1  0
 14 15  1  0
 15 16  1  0
 11 17  1  0
 16 17  1  0
 17 18  1  6
 18 19  2  0
 19 20  1  0
 20 21  2  0
 21 22  1  0
 18 23  1  0
 22 23  2  0
M  END
