pyridine_urea_11605
     RDKit          3D

 30 32  0  0  0  0  0  0  0  0999 V2000
    3.7230    2.3070   23.3560 C   0  0  0  0  0  0  0  0  0  0  0  0
    4.7160    1.6880   24.2980 C   0  0  0  0  0  0  0  0  0  0  0  0
    4.3730    0.7200   25.2420 C   0  0  0  0  0  0  0  0  0  0  0  0
    5.2610    0.1190   26.1320 C   0  0  0  0  0  0  0  0  0  0  0  0
    6.5790    0.5320   26.0500 C   0  0  0  0  0  0  0  0  0  0  0  0
    7.5310   -0.0910   26.9690 N   0  0  0  0  0  0  0  0  0  0  0  0
    8.3730   -0.9730   26.3510 C   0  0  0  0  0  0  0  0  0  0  0  0
    8.2090   -2.1930   26.3160 O   0  0  0  0  0  0  0  0  0  0  0  0
    9.5140   -0.5320   25.6970 C   0  0  0  0  0  0  0  0  0  0  0  0
    9.5340   -0.9870   24.3530 O   0  0  0  0  0  0  0  0  0  0  0  0
   10.7010   -0.6510   23.7060 C   0  0  0  0  0  0  0  0  0  0  0  0
   11.0330   -1.6760   22.7150 C   0  0  0  0  0  0  0  0  0  0  0  0
   12.1980   -1.5290   21.9530 C   0  0  0  0  0  0  0  0  0  0  0  0
   12.7800   -0.3830   22.3390 C   0  0  0  0  0  0  0  0  0  0  0  0
   11.6130   -0.6190   23.0620 C   0  0  0  0  0  0  0  0  0  0  0  0
   10.5120    0.1520   22.6740 C   0  0  0  0  0  0  0  0  0  0  0  0
    9.4040   -0.4830   22.0450 N   0  0  0  0  0  0  0  0  0  0  0  0
    8.4150    0.1730   21.3460 C   0  0  0  0  0  0  0  0  0  0  0  0
    8.6090    1.5460   21.0160 O   0  0  0  0  0  0  0  0  0  0  0  0
    7.3400   -0.5830   21.0280 N   0  0  0  0  0  0  0  0  0  0  0  0
    6.5720    0.0310   20.1070 C   0  0  0  0  0  0  0  0  0  0  0  0
    5.4040    0.7600   20.3500 C   0  0  0  0  0  0  0  0  0  0  0  0
    4.6670    1.3880   19.3340 C   0  0  0  0  0  0  0  0  0  0  0  0
    5.1330    1.2720   18.0260 C   0  0  0  0  0  0  0  0  0  0  0  0
    6.2320    0.5890   17.6800 N   0  0  0  0  0  0  0  0  0  0  0  0
    6.9580   -0.0470   18.7930 C   0  0  0  0  0  0  0  0  0  0  0  0
   12.6570    0.6610   23.1820 C   0  0  0  0  0  0  0  0  0  0  0  0
   11.5120    0.5330   23.9500 C   0  0  0  0  0  0  0  0  0  0  0  0
    6.9950    1.5010   25.1260 C   0  0  0  0  0  0  0  0  0  0  0  0
    6.0670    2.0800   24.2510 C   0  0  0  0  0  0  0  0  0  0  0  0
  1  2  1  0
  2  3  2  0
  3  4  1  0
  4  5  2  0
  5  6  1  0
  6  7  1  0
  7  8  2  0
  7  9  1  0
  9 10  1  0
 10 11  1  0
 11 12  2  0
 12 13  1  0
 13 14  2  0
 14 15  1  0
 15 16  1  0
 16 17  1  0
 17 18  1  0
 18 19  2  0
 18 20  1  0
 20 21  1  0
 21 22  2  0
 22 23  1  0
 23 24  2  0
 24 25  1  0
 21 26  1  0
 25 26  2  0
 14 27  1  0
 11 28  1  0
 27 28  2  0
  5 29  1  0
  2 30  1  0
 29 30  2  0
M  END
