pyridine_urea_7852
     RDKit          3D

 26 28  0  0  0  0  0  0  0  0999 V2000
    8.9730    1.3040   21.1880 O   0  0  0  0  0  0  0  0  0  0  0  0
    8.6010    0.1760   21.5250 C   0  0  0  0  0  0  0  0  0  0  0  0
    9.3300   -0.6770   22.3210 N   0  0  0  0  0  0  0  0  0  0  0  0
   10.7100   -0.9350   22.1310 C   0  0  0  0  0  0  0  0  0  0  0  0
   11.4240   -1.8230   22.9450 C   0  0  0  0  0  0  0  0  0  0  0  0
   10.6650   -2.5150   23.8970 C   0  0  0  0  0  0  0  0  0  0  0  0
    9.2820   -2.2740   23.7900 C   0  0  0  0  0  0  0  0  0  0  0  0
    8.6390   -1.3500   24.6620 C   0  0  0  0  0  0  0  0  0  0  0  0
    7.2630   -1.1020   24.5740 C   0  0  0  0  0  0  0  0  0  0  0  0
    6.5020   -1.8610   23.5110 C   0  0  0  0  0  0  0  0  0  0  0  0
    7.1340   -2.7570   22.6670 C   0  0  0  0  0  0  0  0  0  0  0  0
    8.5060   -2.9480   22.8180 C   0  0  0  0  0  0  0  0  0  0  0  0
   12.6280   -1.0520   23.2320 C   0  0  0  0  0  0  0  0  0  0  0  0
   12.4060    0.3010   23.1980 C   0  0  0  0  0  0  0  0  0  0  0  0
   11.8940    1.6340   23.3350 C   0  0  0  0  0  0  0  0  0  0  0  0
   10.8000    2.3980   23.8820 C   0  0  0  0  0  0  0  0  0  0  0  0
   10.0610    1.4030   24.4690 C   0  0  0  0  0  0  0  0  0  0  0  0
   10.3380    0.1160   24.4940 C   0  0  0  0  0  0  0  0  0  0  0  0
   11.4220   -0.3780   23.9010 C   0  0  0  0  0  0  0  0  0  0  0  0
    7.4030   -0.3900   21.1460 N   0  0  0  0  0  0  0  0  0  0  0  0
    6.6250    0.1560   20.0330 C   0  0  0  0  0  0  0  0  0  0  0  0
    5.4580    0.8720   20.3390 C   0  0  0  0  0  0  0  0  0  0  0  0
    4.6960    1.4300   19.3320 C   0  0  0  0  0  0  0  0  0  0  0  0
    5.1260    1.2560   18.0220 C   0  0  0  0  0  0  0  0  0  0  0  0
    6.2310    0.5680   17.6990 N   0  0  0  0  0  0  0  0  0  0  0  0
    6.9520    0.0340   18.7040 C   0  0  0  0  0  0  0  0  0  0  0  0
  1  2  2  0
  2  3  1  0
  3  4  1  0
  4  5  1  0
  5  6  1  0
  6  7  1  0
  7  8  2  0
  8  9  1  0
  9 10  2  0
 10 11  1  0
  7 12  1  0
 11 12  2  0
  5 13  1  0
 13 14  1  0
 14 15  2  0
 15 16  1  0
 16 17  2  0
 17 18  1  0
 14 19  1  0
 18 19  2  0
  2 20  1  0
 20 21  1  0
 21 22  2  0
 22 23  1  0
 23 24  2  0
 24 25  1  0
 21 26  1  0
 25 26  2  0
M  END
