pyridine_urea_1122
     RDKit          3D

 21 22  0  0  0  0  0  0  0  0999 V2000
   12.7100   -2.4830   21.4830 C   0  0  0  0  0  0  0  0  0  0  0  0
   11.9720   -2.1030   22.6500 O   0  0  0  0  0  0  0  0  0  0  0  0
   10.8490   -1.3870   22.3630 C   0  0  0  0  0  0  0  0  0  0  0  0
   10.5640   -1.0590   21.2570 O   0  0  0  0  0  0  0  0  0  0  0  0
    9.9960   -1.0420   23.3910 C   0  0  1  0  0  0  0  0  0  0  0  0
   10.0640    0.3010   23.7490 C   0  0  0  0  0  0  0  0  0  0  0  0
   11.3650    0.6530   24.0780 C   0  0  2  0  0  0  0  0  0  0  0  0
   12.3180    1.0780   23.0410 C   0  0  0  0  0  0  0  0  0  0  0  0
   13.1380   -0.1320   22.7290 C   0  0  0  0  0  0  0  0  0  0  0  0
   13.0860   -0.9480   23.6430 O   0  0  0  0  0  0  0  0  0  0  0  0
   12.1720   -0.5180   24.6690 C   0  0  0  0  0  0  0  0  0  0  0  0
    8.6550   -1.1280   22.7420 N   0  0  0  0  0  0  0  0  0  0  0  0
    8.2740   -0.2690   21.7190 C   0  0  0  0  0  0  0  0  0  0  0  0
    8.8190    0.7670   21.3430 O   0  0  0  0  0  0  0  0  0  0  0  0
    7.1140   -0.6800   21.0950 N   0  0  0  0  0  0  0  0  0  0  0  0
    6.4710   -0.0100   20.0400 C   0  0  0  0  0  0  0  0  0  0  0  0
    5.3040    0.7120   20.3040 C   0  0  0  0  0  0  0  0  0  0  0  0
    4.6730    1.3810   19.2640 C   0  0  0  0  0  0  0  0  0  0  0  0
    5.2140    1.3180   17.9960 C   0  0  0  0  0  0  0  0  0  0  0  0
    6.3260    0.6270   17.7220 N   0  0  0  0  0  0  0  0  0  0  0  0
    6.9270   -0.0190   18.7410 C   0  0  0  0  0  0  0  0  0  0  0  0
  1  2  1  0
  2  3  1  0
  3  4  2  0
  3  5  1  0
  5  6  1  6
  7  6  1  6
  7  8  1  0
  8  9  1  0
  9 10  1  0
  7 11  1  0
 10 11  1  0
  5 12  1  0
 12 13  1  0
 13 14  2  0
 13 15  1  0
 15 16  1  0
 16 17  2  0
 17 18  1  0
 18 19  2  0
 19 20  1  0
 16 21  1  0
 20 21  2  0
M  END
