pyridine_urea_12100
     RDKit          3D

 23 24  0  0  0  0  0  0  0  0999 V2000
   10.6330   -2.1420   22.2180 C   0  0  0  0  0  0  0  0  0  0  0  0
   10.9860   -0.7500   22.7390 C   0  0  0  0  0  0  0  0  0  0  0  0
    9.8760    0.0090   22.8710 C   0  0  0  0  0  0  0  0  0  0  0  0
    8.6460   -0.3380   22.5930 N   0  0  0  0  0  0  0  0  0  0  0  0
    8.0710    0.1540   21.4850 C   0  0  0  0  0  0  0  0  0  0  0  0
    8.4920    1.2020   20.9710 O   0  0  0  0  0  0  0  0  0  0  0  0
    6.9560   -0.6860   21.0510 N   0  0  0  0  0  0  0  0  0  0  0  0
    6.3350    0.0080   20.0080 C   0  0  0  0  0  0  0  0  0  0  0  0
    5.1580    0.7050   20.2840 C   0  0  0  0  0  0  0  0  0  0  0  0
    4.5750    1.3900   19.2420 C   0  0  0  0  0  0  0  0  0  0  0  0
    5.2190    1.3610   17.8810 C   0  0  0  0  0  0  0  0  0  0  0  0
    6.3490    0.6740   17.6540 N   0  0  0  0  0  0  0  0  0  0  0  0
    6.8780    0.0140   18.7170 C   0  0  0  0  0  0  0  0  0  0  0  0
   10.0220    1.3870   23.3690 C   0  0  0  0  0  0  0  0  0  0  0  0
   11.2520    1.8970   23.6790 C   0  0  0  0  0  0  0  0  0  0  0  0
   12.3520    1.0890   23.5240 C   0  0  0  0  0  0  0  0  0  0  0  0
   12.2320   -0.2070   23.0760 C   0  0  0  0  0  0  0  0  0  0  0  0
   13.3440   -0.9120   22.9920 N   0  0  0  0  0  0  0  0  0  0  0  0
   13.3660   -2.2380   23.1360 C   0  0  0  0  0  0  0  0  0  0  0  0
   13.8730   -2.9960   24.1410 O   0  0  0  0  0  0  0  0  0  0  0  0
   12.7220   -2.7410   22.1050 N   0  0  0  0  0  0  0  0  0  0  0  0
   11.4120   -2.4740   22.1150 C   0  0  0  0  0  0  0  0  0  0  0  0
   13.2500   -2.2550   20.9910 C   0  0  0  0  0  0  0  0  0  0  0  0
  1  2  1  0
  2  3  2  0
  3  4  1  0
  4  5  1  0
  5  6  2  0
  5  7  1  0
  7  8  1  0
  8  9  2  0
  9 10  1  0
 10 11  2  0
 11 12  1  0
  8 13  1  0
 12 13  2  0
  3 14  1  0
 14 15  2  0
 15 16  1  0
  2 17  1  0
 16 17  2  0
 17 18  1  0
 18 19  1  0
 19 20  2  0
 19 21  1  0
 21 22  1  0
 21 23  1  0
M  END
