pyridine_urea_1816
     RDKit          3D

 17 18  0  0  0  0  0  0  0  0999 V2000
   12.3070    1.5450   23.3860 C   0  0  0  0  0  0  0  0  0  0  0  0
   12.7400    0.1530   23.1220 C   0  0  2  0  0  0  0  0  0  0  0  0
   11.8580   -0.6200   22.4210 C   0  0  0  0  0  0  0  0  0  0  0  0
   11.1500   -1.2340   23.3430 C   0  0  0  0  0  0  0  0  0  0  0  0
    9.9410   -1.8200   23.0200 C   0  0  0  0  0  0  0  0  0  0  0  0
    9.4150   -1.3610   21.7240 N   0  0  0  0  0  0  0  0  0  0  0  0
    8.6420   -0.2380   21.5340 C   0  0  0  0  0  0  0  0  0  0  0  0
    9.0650    0.9020   21.7100 O   0  0  0  0  0  0  0  0  0  0  0  0
    7.2930   -0.5830   21.0770 N   0  0  0  0  0  0  0  0  0  0  0  0
    6.5960    0.0140   20.0700 C   0  0  0  0  0  0  0  0  0  0  0  0
    5.3150    0.8110   20.3950 C   0  0  0  0  0  0  0  0  0  0  0  0
    4.6570    1.4080   19.3340 C   0  0  0  0  0  0  0  0  0  0  0  0
    5.1630    1.2690   18.0480 C   0  0  0  0  0  0  0  0  0  0  0  0
    6.2720    0.5720   17.7420 N   0  0  0  0  0  0  0  0  0  0  0  0
    6.9590   -0.0350   18.7390 C   0  0  0  0  0  0  0  0  0  0  0  0
   11.6700   -1.2010   24.5240 N   0  0  0  0  0  0  0  0  0  0  0  0
   12.8570   -0.4440   24.2340 O   0  0  0  0  0  0  0  0  0  0  0  0
  2  1  1  1
  2  3  1  0
  3  4  1  0
  4  5  1  0
  5  6  1  0
  6  7  1  0
  7  8  2  0
  7  9  1  0
  9 10  1  0
 10 11  2  0
 11 12  1  0
 12 13  2  0
 13 14  1  0
 10 15  1  0
 14 15  2  0
  4 16  2  0
  2 17  1  0
 16 17  1  0
M  END
