pyridine_urea_8398
     RDKit          3D

 22 24  0  0  0  0  0  0  0  0999 V2000
   13.7100   -2.8850   23.5770 C   0  0  0  0  0  0  0  0  0  0  0  0
   13.0760   -2.2290   22.3830 C   0  0  0  0  0  0  0  0  0  0  0  0
   13.3770   -2.6060   20.9150 C   0  0  0  0  0  0  0  0  0  0  0  0
   13.4620   -0.8330   22.4300 C   0  0  0  0  0  0  0  0  0  0  0  0
   12.2420   -0.6190   22.2350 N   0  0  0  0  0  0  0  0  0  0  0  0
   11.5270    0.1670   22.7970 C   0  0  0  0  0  0  0  0  0  0  0  0
   11.9580    1.2800   23.4130 C   0  0  0  0  0  0  0  0  0  0  0  0
   10.9170    2.1180   24.0420 C   0  0  0  0  0  0  0  0  0  0  0  0
    9.4490    1.7750   24.0300 C   0  0  0  0  0  0  0  0  0  0  0  0
    9.2530    0.4870   23.2610 C   0  0  0  0  0  0  0  0  0  0  0  0
    8.0830   -0.1430   22.9570 N   0  0  0  0  0  0  0  0  0  0  0  0
    7.8240    0.1350   21.6480 C   0  0  0  0  0  0  0  0  0  0  0  0
    8.5640    1.1730   20.9640 O   0  0  0  0  0  0  0  0  0  0  0  0
    6.8320   -0.5990   21.0670 N   0  0  0  0  0  0  0  0  0  0  0  0
    6.2720    0.0210   19.9690 C   0  0  0  0  0  0  0  0  0  0  0  0
    4.9700    0.7690   20.1400 C   0  0  0  0  0  0  0  0  0  0  0  0
    4.4420    1.4100   19.0390 C   0  0  0  0  0  0  0  0  0  0  0  0
    5.1390    1.3340   17.8320 C   0  0  0  0  0  0  0  0  0  0  0  0
    6.2960    0.6610   17.6710 N   0  0  0  0  0  0  0  0  0  0  0  0
    6.8350    0.0240   18.7220 C   0  0  0  0  0  0  0  0  0  0  0  0
   10.2590   -0.2110   22.7170 C   0  0  0  0  0  0  0  0  0  0  0  0
   11.7360   -1.8910   22.4840 C   0  0  0  0  0  0  0  0  0  0  0  0
  2  1  1  0
  2  3  1  0
  2  4  1  0
  4  5  1  0
  5  6  1  0
  6  7  2  0
  7  8  1  0
  8  9  2  0
  9 10  1  0
 10 11  1  0
 11 12  1  0
 12 13  2  0
 12 14  1  0
 14 15  1  0
 15 16  2  0
 16 17  1  0
 17 18  2  0
 18 19  1  0
 15 20  1  0
 19 20  2  0
  6 21  1  0
 10 21  2  0
  2 22  1  0
  5 22  1  0
M  END
