pyridine_urea_7423
     RDKit          3D

 16 17  0  0  0  0  0  0  0  0999 V2000
   10.4590    1.5910   22.7910 C   0  0  0  0  0  0  0  0  0  0  0  0
   10.8960    0.1650   23.1380 C   0  0  2  0  0  0  0  0  0  0  0  0
   12.2950    0.0690   23.2430 C   0  0  0  0  0  0  0  0  0  0  0  0
   12.6660   -1.0960   22.6140 C   0  0  0  0  0  0  0  0  0  0  0  0
   11.4900   -1.6710   22.1870 C   0  0  0  0  0  0  0  0  0  0  0  0
   10.4370   -0.7480   22.1830 C   0  0  1  0  0  0  0  0  0  0  0  0
    9.0900   -1.1860   22.3800 N   0  0  0  0  0  0  0  0  0  0  0  0
    8.2490   -0.1880   22.0300 C   0  0  0  0  0  0  0  0  0  0  0  0
    8.3340    0.9310   22.4780 O   0  0  0  0  0  0  0  0  0  0  0  0
    7.3280   -0.3580   21.1080 N   0  0  0  0  0  0  0  0  0  0  0  0
    6.5860    0.1050   20.0590 C   0  0  0  0  0  0  0  0  0  0  0  0
    5.3960    0.8050   20.3400 C   0  0  0  0  0  0  0  0  0  0  0  0
    4.6420    1.3200   19.2910 C   0  0  0  0  0  0  0  0  0  0  0  0
    5.1050    1.1160   18.0110 C   0  0  0  0  0  0  0  0  0  0  0  0
    6.2220    0.4470   17.7120 N   0  0  0  0  0  0  0  0  0  0  0  0
    6.9400   -0.0470   18.7360 C   0  0  0  0  0  0  0  0  0  0  0  0
  2  1  1  6
  2  3  1  0
  3  4  1  0
  4  5  1  0
  2  6  1  0
  5  6  1  0
  6  7  1  1
  7  8  1  0
  8  9  2  0
  8 10  1  0
 10 11  1  0
 11 12  2  0
 12 13  1  0
 13 14  2  0
 14 15  1  0
 11 16  1  0
 15 16  2  0
M  END
