pyridine_urea_14195
     RDKit          3D

 22 23  0  0  0  0  0  0  0  0999 V2000
    8.9580    1.2510   21.2100 O   0  0  0  0  0  0  0  0  0  0  0  0
    8.2370    0.3620   21.6810 C   0  0  0  0  0  0  0  0  0  0  0  0
    8.2350   -0.0470   23.0730 N   0  0  0  0  0  0  0  0  0  0  0  0
    9.3280   -0.6470   23.6430 C   0  0  0  0  0  0  0  0  0  0  0  0
   10.4480    0.0980   23.7690 C   0  0  0  0  0  0  0  0  0  0  0  0
   11.7610    0.6720   23.7110 C   0  0  0  0  0  0  0  0  0  0  0  0
   12.9370    0.2990   23.0470 C   0  0  0  0  0  0  0  0  0  0  0  0
   13.1170   -0.8760   22.1810 C   0  0  0  0  0  0  0  0  0  0  0  0
   11.8290   -1.5730   22.1480 C   0  0  0  0  0  0  0  0  0  0  0  0
   10.6380   -1.0580   22.9130 C   0  0  0  0  0  0  0  0  0  0  0  0
    9.3950   -2.3020   22.4820 S   0  0  0  0  0  0  0  0  0  0  0  0
    8.7370   -2.9580   24.0190 C   0  0  0  0  0  0  0  0  0  0  0  0
    8.7940   -2.1110   25.0610 F   0  0  0  0  0  0  0  0  0  0  0  0
    9.3440   -4.1020   24.3900 F   0  0  0  0  0  0  0  0  0  0  0  0
    7.4270   -3.2860   23.8730 F   0  0  0  0  0  0  0  0  0  0  0  0
    7.2900   -0.3700   20.9960 N   0  0  0  0  0  0  0  0  0  0  0  0
    6.5530    0.1880   19.9660 C   0  0  0  0  0  0  0  0  0  0  0  0
    5.3950    0.8980   20.2630 C   0  0  0  0  0  0  0  0  0  0  0  0
    4.6870    1.4680   19.2330 C   0  0  0  0  0  0  0  0  0  0  0  0
    5.1230    1.3330   17.9400 C   0  0  0  0  0  0  0  0  0  0  0  0
    6.2260    0.6430   17.6330 N   0  0  0  0  0  0  0  0  0  0  0  0
    6.9140    0.0880   18.6510 C   0  0  0  0  0  0  0  0  0  0  0  0
  1  2  2  0
  2  3  1  0
  3  4  1  0
  4  5  1  0
  5  6  2  0
  6  7  1  0
  7  8  2  0
  8  9  1  0
  5 10  1  0
  9 10  2  0
 10 11  1  0
 11 12  1  0
 12 13  1  0
 12 14  1  0
 12 15  1  0
  2 16  1  0
 16 17  1  0
 17 18  2  0
 18 19  1  0
 19 20  2  0
 20 21  1  0
 17 22  1  0
 21 22  2  0
M  END
