pyridine_urea_7212
     RDKit          3D

 19 20  0  0  0  0  0  0  0  0999 V2000
    6.5220   -5.7760   23.6110 C   0  0  0  0  0  0  0  0  0  0  0  0
    7.0500   -4.4590   23.1000 C   0  0  0  0  0  0  0  0  0  0  0  0
    8.4360   -4.0430   23.3470 N   0  0  0  0  0  0  0  0  0  0  0  0
    8.4650   -2.7550   22.6620 C   0  0  0  0  0  0  0  0  0  0  0  0
    9.5370   -1.8760   22.5310 C   0  0  2  0  0  0  0  0  0  0  0  0
   10.4430   -2.0450   23.5750 C   0  0  0  0  0  0  0  0  0  0  0  0
    9.1260   -0.5470   22.6450 N   0  0  0  0  0  0  0  0  0  0  0  0
    8.5530    0.1720   21.6250 C   0  0  0  0  0  0  0  0  0  0  0  0
    9.0330    1.2460   21.2350 O   0  0  0  0  0  0  0  0  0  0  0  0
    7.3330   -0.4770   21.1240 N   0  0  0  0  0  0  0  0  0  0  0  0
    6.6360    0.1090   20.0530 C   0  0  0  0  0  0  0  0  0  0  0  0
    5.4930    0.8750   20.3370 C   0  0  0  0  0  0  0  0  0  0  0  0
    4.7610    1.4960   19.3060 C   0  0  0  0  0  0  0  0  0  0  0  0
    5.1740    1.3500   17.9950 C   0  0  0  0  0  0  0  0  0  0  0  0
    6.2930    0.5860   17.7350 N   0  0  0  0  0  0  0  0  0  0  0  0
    7.0000   -0.0160   18.7310 C   0  0  0  0  0  0  0  0  0  0  0  0
    7.2340   -2.4710   22.1040 N   0  0  0  0  0  0  0  0  0  0  0  0
    6.3620   -3.4900   22.3540 C   0  0  0  0  0  0  0  0  0  0  0  0
    5.0330   -3.5580   21.9370 C   0  0  0  0  0  0  0  0  0  0  0  0
  1  2  1  0
  2  3  1  0
  3  4  2  0
  4  5  1  0
  5  6  1  1
  5  7  1  0
  7  8  1  0
  8  9  2  0
  8 10  1  0
 10 11  1  0
 11 12  2  0
 12 13  1  0
 13 14  2  0
 14 15  1  0
 11 16  1  0
 15 16  2  0
  4 17  1  0
  2 18  2  0
 17 18  1  0
 18 19  1  0
M  END
