pyridine_urea_12268
     RDKit          3D

 22 23  0  0  0  0  0  0  0  0999 V2000
   10.3830    0.2980   24.1830 C   0  0  0  0  0  0  0  0  0  0  0  0
   11.7010    0.0950   23.4080 C   0  0  0  0  0  0  0  0  0  0  0  0
   11.5750    1.5660   23.8940 C   0  0  0  0  0  0  0  0  0  0  0  0
   12.5370    1.0470   23.2360 C   0  0  0  0  0  0  0  0  0  0  0  0
   12.3190   -0.4610   22.8700 C   0  0  0  0  0  0  0  0  0  0  0  0
   11.2780   -1.3680   23.0970 C   0  0  0  0  0  0  0  0  0  0  0  0
   11.5060   -2.4210   24.1880 C   0  0  0  0  0  0  0  0  0  0  0  0
   10.7850   -2.1800   21.8810 C   0  0  0  0  0  0  0  0  0  0  0  0
    9.9420   -0.6430   23.4440 C   0  0  0  0  0  0  0  0  0  0  0  0
    8.8280   -0.9670   22.5580 N   0  0  0  0  0  0  0  0  0  0  0  0
    8.3760   -0.0810   21.6020 C   0  0  0  0  0  0  0  0  0  0  0  0
    9.0170    1.1690   21.2670 O   0  0  0  0  0  0  0  0  0  0  0  0
    7.1900   -0.5670   21.0310 N   0  0  0  0  0  0  0  0  0  0  0  0
    6.5040    0.0540   19.9980 C   0  0  0  0  0  0  0  0  0  0  0  0
    5.2270    0.8220   20.2860 C   0  0  0  0  0  0  0  0  0  0  0  0
    4.5910    1.4420   19.2200 C   0  0  0  0  0  0  0  0  0  0  0  0
    5.1570    1.3240   17.9540 C   0  0  0  0  0  0  0  0  0  0  0  0
    6.2820    0.6400   17.6860 N   0  0  0  0  0  0  0  0  0  0  0  0
    6.9230    0.0270   18.6970 C   0  0  0  0  0  0  0  0  0  0  0  0
   13.3600   -0.7400   22.2560 C   0  0  0  0  0  0  0  0  0  0  0  0
   13.0230   -2.0770   22.0100 C   0  0  0  0  0  0  0  0  0  0  0  0
   13.0770    0.5640   22.8150 C   0  0  0  0  0  0  0  0  0  0  0  0
  1  2  1  0
  2  3  2  0
  3  4  1  0
  4  5  2  0
  5  6  1  0
  6  7  1  0
  6  8  1  0
  6  9  1  0
  9 10  1  0
 10 11  1  0
 11 12  2  0
 11 13  1  0
 13 14  1  0
 14 15  2  0
 15 16  1  0
 16 17  2  0
 17 18  1  0
 14 19  1  0
 18 19  2  0
  5 20  1  0
 20 21  1  0
  2 22  1  0
 20 22  2  0
M  END
