pyridine_urea_4883
     RDKit          3D

 21 21  0  0  0  0  0  0  0  0999 V2000
   13.5460   -2.8230   24.4200 C   0  0  0  0  0  0  0  0  0  0  0  0
   12.4450   -2.2130   23.5550 C   0  0  0  0  0  0  0  0  0  0  0  0
   11.0820   -2.8140   23.9320 C   0  0  0  0  0  0  0  0  0  0  0  0
   12.7440   -2.3090   22.0290 C   0  0  0  0  0  0  0  0  0  0  0  0
   12.4450   -0.8490   23.8680 O   0  0  0  0  0  0  0  0  0  0  0  0
   12.9060    0.0600   22.9860 C   0  0  0  0  0  0  0  0  0  0  0  0
   13.7540   -0.1630   22.1590 O   0  0  0  0  0  0  0  0  0  0  0  0
   12.3840    1.3180   23.0340 C   0  0  0  0  0  0  0  0  0  0  0  0
   11.3810    1.3300   23.9650 C   0  0  0  0  0  0  0  0  0  0  0  0
   10.1820    0.7400   23.6180 C   0  0  0  0  0  0  0  0  0  0  0  0
   10.2460   -0.4760   22.9730 C   0  0  0  0  0  0  0  0  0  0  0  0
    8.9320   -0.7830   22.4540 N   0  0  0  0  0  0  0  0  0  0  0  0
    8.3860    0.0550   21.5170 C   0  0  0  0  0  0  0  0  0  0  0  0
    8.9070    1.1390   21.1990 O   0  0  0  0  0  0  0  0  0  0  0  0
    7.2190   -0.4700   21.0310 N   0  0  0  0  0  0  0  0  0  0  0  0
    6.5310    0.1160   19.9810 C   0  0  0  0  0  0  0  0  0  0  0  0
    5.2780    0.8940   20.2450 C   0  0  0  0  0  0  0  0  0  0  0  0
    4.5710    1.5130   19.2410 C   0  0  0  0  0  0  0  0  0  0  0  0
    5.1530    1.3330   17.9580 C   0  0  0  0  0  0  0  0  0  0  0  0
    6.2670    0.6380   17.6680 N   0  0  0  0  0  0  0  0  0  0  0  0
    6.9290    0.0470   18.6790 C   0  0  0  0  0  0  0  0  0  0  0  0
  1  2  1  0
  2  3  1  0
  2  4  1  0
  2  5  1  0
  5  6  1  0
  6  7  2  0
  6  8  1  0
  8  9  1  0
  9 10  1  0
 10 11  1  0
 11 12  1  0
 12 13  1  0
 13 14  2  0
 13 15  1  0
 15 16  1  0
 16 17  2  0
 17 18  1  0
 18 19  2  0
 19 20  1  0
 16 21  1  0
 20 21  2  0
M  END
