pyridine_urea_7185
     RDKit          3D

 19 21  0  0  0  0  0  0  0  0999 V2000
    8.9050    1.3310   21.2040 O   0  0  0  0  0  0  0  0  0  0  0  0
    8.1360    0.4630   21.6330 C   0  0  0  0  0  0  0  0  0  0  0  0
    7.9420    0.1150   22.9340 N   0  0  0  0  0  0  0  0  0  0  0  0
    7.8880   -1.1950   23.3710 C   0  0  0  0  0  0  0  0  0  0  0  0
    9.0970   -1.7910   23.4500 C   0  0  0  0  0  0  0  0  0  0  0  0
    9.3040   -2.9560   24.0860 N   0  0  0  0  0  0  0  0  0  0  0  0
   10.6890   -3.1810   23.9630 C   0  0  0  0  0  0  0  0  0  0  0  0
   11.2090   -2.1650   23.2450 C   0  0  0  0  0  0  0  0  0  0  0  0
   12.5330   -2.0670   22.9220 C   0  0  0  0  0  0  0  0  0  0  0  0
   13.4110   -2.1010   23.9450 C   0  0  0  0  0  0  0  0  0  0  0  0
   13.1970   -0.7960   23.3010 C   0  0  0  0  0  0  0  0  0  0  0  0
   10.1230   -1.2760   22.9320 O   0  0  0  0  0  0  0  0  0  0  0  0
    7.2960   -0.3200   20.8820 N   0  0  0  0  0  0  0  0  0  0  0  0
    6.5050    0.2720   19.9360 C   0  0  0  0  0  0  0  0  0  0  0  0
    5.3140    0.9680   20.1620 C   0  0  0  0  0  0  0  0  0  0  0  0
    4.5710    1.5760   19.1580 C   0  0  0  0  0  0  0  0  0  0  0  0
    5.1070    1.4570   17.7910 C   0  0  0  0  0  0  0  0  0  0  0  0
    6.2890    0.7410   17.5990 N   0  0  0  0  0  0  0  0  0  0  0  0
    6.9370    0.1830   18.6420 C   0  0  0  0  0  0  0  0  0  0  0  0
  1  2  2  0
  2  3  1  0
  3  4  1  0
  4  5  1  0
  5  6  2  0
  6  7  1  0
  7  8  2  0
  8  9  1  0
  9 10  1  0
  9 11  1  0
 10 11  1  0
  5 12  1  0
  8 12  1  0
  2 13  1  0
 13 14  1  0
 14 15  2  0
 15 16  1  0
 16 17  2  0
 17 18  1  0
 14 19  1  0
 18 19  2  0
M  END
