pyridine_urea_8060
     RDKit          3D

 24 26  0  0  0  0  0  0  0  0999 V2000
   12.5350   -3.4000   20.5840 C   0  0  0  0  0  0  0  0  0  0  0  0
   13.2790   -3.6360   21.7610 O   0  0  0  0  0  0  0  0  0  0  0  0
   13.0330   -2.4690   22.4580 C   0  0  0  0  0  0  0  0  0  0  0  0
   13.3080   -1.3050   21.5990 C   0  0  0  0  0  0  0  0  0  0  0  0
   13.0570   -0.2040   22.1980 C   0  0  0  0  0  0  0  0  0  0  0  0
   12.5590   -0.1290   23.5630 C   0  0  0  0  0  0  0  0  0  0  0  0
   12.3750    1.2000   23.7900 C   0  0  0  0  0  0  0  0  0  0  0  0
   11.1650    2.2720   23.7540 C   0  0  0  0  0  0  0  0  0  0  0  0
    9.4520    1.7030   23.3340 S   0  0  0  0  0  0  0  0  0  0  0  0
   10.2680    0.2450   23.2340 C   0  0  0  0  0  0  0  0  0  0  0  0
   10.0300   -1.2170   22.9330 C   0  0  0  0  0  0  0  0  0  0  0  0
    8.6750   -1.3030   22.4260 N   0  0  0  0  0  0  0  0  0  0  0  0
    8.2130   -0.3550   21.5490 C   0  0  0  0  0  0  0  0  0  0  0  0
    8.8330    0.8270   21.2560 O   0  0  0  0  0  0  0  0  0  0  0  0
    6.9920   -0.7580   20.9910 N   0  0  0  0  0  0  0  0  0  0  0  0
    6.3790   -0.0590   19.9580 C   0  0  0  0  0  0  0  0  0  0  0  0
    5.1060    0.7260   20.2250 C   0  0  0  0  0  0  0  0  0  0  0  0
    4.5300    1.4220   19.1680 C   0  0  0  0  0  0  0  0  0  0  0  0
    5.1550    1.3610   17.9230 C   0  0  0  0  0  0  0  0  0  0  0  0
    6.2770    0.6640   17.6790 N   0  0  0  0  0  0  0  0  0  0  0  0
    6.8610   -0.0250   18.6790 C   0  0  0  0  0  0  0  0  0  0  0  0
   11.2010    1.1750   23.5690 C   0  0  0  0  0  0  0  0  0  0  0  0
   12.2610   -1.1270   24.5340 C   0  0  0  0  0  0  0  0  0  0  0  0
   12.5670   -2.3320   23.7890 C   0  0  0  0  0  0  0  0  0  0  0  0
  1  2  1  0
  2  3  1  0
  3  4  2  0
  4  5  1  0
  5  6  2  0
  6  7  1  0
  7  8  2  0
  8  9  1  0
  9 10  1  0
 10 11  1  0
 11 12  1  0
 12 13  1  0
 13 14  2  0
 13 15  1  0
 15 16  1  0
 16 17  2  0
 17 18  1  0
 18 19  2  0
 19 20  1  0
 16 21  1  0
 20 21  2  0
  7 22  1  0
 10 22  2  0
  6 23  1  0
  3 24  1  0
 23 24  2  0
M  END
