pyridine_urea_6064
     RDKit          3D

 25 26  0  0  0  0  0  0  0  0999 V2000
    8.8450    0.4070   21.4050 O   0  0  0  0  0  0  0  0  0  0  0  0
    8.1220   -0.5530   21.6260 C   0  0  0  0  0  0  0  0  0  0  0  0
    8.4260   -1.6490   22.5280 N   0  0  0  0  0  0  0  0  0  0  0  0
    9.6810   -1.7670   23.1060 C   0  0  0  0  0  0  0  0  0  0  0  0
   10.0900   -0.7260   23.9190 C   0  0  0  0  0  0  0  0  0  0  0  0
   11.1920   -0.1260   23.3510 C   0  0  0  0  0  0  0  0  0  0  0  0
   12.4240   -0.4400   23.9360 C   0  0  0  0  0  0  0  0  0  0  0  0
   13.4100   -1.1480   23.1400 C   0  0  0  0  0  0  0  0  0  0  0  0
   12.7490   -1.8700   22.0340 C   0  0  0  0  0  0  0  0  0  0  0  0
   12.0710   -2.1350   20.8990 O   0  0  0  0  0  0  0  0  0  0  0  0
   12.6280   -0.6600   21.8790 O   0  0  0  0  0  0  0  0  0  0  0  0
   11.4950   -0.1340   22.6120 C   0  0  0  0  0  0  0  0  0  0  0  0
   11.5320    1.2770   22.6940 C   0  0  0  0  0  0  0  0  0  0  0  0
   10.3500    2.0420   22.6760 C   0  0  0  0  0  0  0  0  0  0  0  0
   10.3390    3.4400   22.7420 C   0  0  0  0  0  0  0  0  0  0  0  0
   11.5440    4.1190   22.8270 C   0  0  0  0  0  0  0  0  0  0  0  0
   12.7060    3.3860   22.8480 C   0  0  0  0  0  0  0  0  0  0  0  0
   12.7170    1.9950   22.7880 C   0  0  0  0  0  0  0  0  0  0  0  0
    6.8750   -0.7640   21.0630 N   0  0  0  0  0  0  0  0  0  0  0  0
    6.3290   -0.0470   20.0000 C   0  0  0  0  0  0  0  0  0  0  0  0
    5.1490    0.6820   20.2190 C   0  0  0  0  0  0  0  0  0  0  0  0
    4.5940    1.4110   19.1630 C   0  0  0  0  0  0  0  0  0  0  0  0
    5.2510    1.3720   17.9370 C   0  0  0  0  0  0  0  0  0  0  0  0
    6.3740    0.6830   17.7000 N   0  0  0  0  0  0  0  0  0  0  0  0
    6.8840   -0.0110   18.7360 C   0  0  0  0  0  0  0  0  0  0  0  0
  1  2  2  0
  2  3  1  0
  3  4  1  0
  4  5  1  0
  5  6  1  0
  6  7  1  0
  7  8  1  0
  8  9  1  0
  9 10  2  0
  9 11  1  0
 11 12  1  0
 12 13  1  0
 13 14  2  0
 14 15  1  0
 15 16  2  0
 16 17  1  0
 13 18  1  0
 17 18  2  0
  2 19  1  0
 19 20  1  0
 20 21  2  0
 21 22  1  0
 22 23  2  0
 23 24  1  0
 20 25  1  0
 24 25  2  0
M  END
