pyridine_urea_15024
     RDKit          3D

 19 19  0  0  0  0  0  0  0  0999 V2000
   12.1010    2.8130   22.7170 C   0  0  0  0  0  0  0  0  0  0  0  0
   11.2520    2.6860   23.8490 O   0  0  0  0  0  0  0  0  0  0  0  0
   10.1920    1.7420   23.6700 C   0  0  0  0  0  0  0  0  0  0  0  0
    9.0640    2.0320   23.3020 O   0  0  0  0  0  0  0  0  0  0  0  0
   10.6310    0.3170   24.0110 C   0  0  0  0  0  0  0  0  0  0  0  0
   12.1280    0.2930   24.2720 C   0  0  0  0  0  0  0  0  0  0  0  0
    9.9000   -0.0100   25.3370 C   0  0  0  0  0  0  0  0  0  0  0  0
   10.3790   -0.8290   23.1830 C   0  0  2  0  0  0  0  0  0  0  0  0
   11.4680   -1.1970   22.1730 C   0  0  0  0  0  0  0  0  0  0  0  0
    9.0440   -0.8620   22.5330 N   0  0  0  0  0  0  0  0  0  0  0  0
    8.5860    0.0040   21.5410 C   0  0  0  0  0  0  0  0  0  0  0  0
    9.1190    1.0840   21.2590 O   0  0  0  0  0  0  0  0  0  0  0  0
    7.4450   -0.5280   20.9630 N   0  0  0  0  0  0  0  0  0  0  0  0
    6.6120    0.1040   20.0270 C   0  0  0  0  0  0  0  0  0  0  0  0
    5.4480    0.7990   20.3230 C   0  0  0  0  0  0  0  0  0  0  0  0
    4.7080    1.3950   19.3070 C   0  0  0  0  0  0  0  0  0  0  0  0
    5.1650    1.2770   18.0030 C   0  0  0  0  0  0  0  0  0  0  0  0
    6.2800    0.6060   17.6880 N   0  0  0  0  0  0  0  0  0  0  0  0
    6.9710    0.0410   18.6960 C   0  0  0  0  0  0  0  0  0  0  0  0
  1  2  1  0
  2  3  1  0
  3  4  2  0
  5  3  1  0
  5  6  1  0
  5  7  1  0
  5  8  1  0
  8  9  1  6
  8 10  1  0
 10 11  1  0
 11 12  2  0
 11 13  1  0
 13 14  1  0
 14 15  2  0
 15 16  1  0
 16 17  2  0
 17 18  1  0
 14 19  1  0
 18 19  2  0
M  END
