pyridine_urea_12119
     RDKit          3D

 23 25  0  0  0  0  0  0  0  0999 V2000
    8.8920    1.2950   21.1640 O   0  0  0  0  0  0  0  0  0  0  0  0
    8.4260    0.2250   21.5700 C   0  0  0  0  0  0  0  0  0  0  0  0
    8.8820   -0.4870   22.6560 N   0  0  0  0  0  0  0  0  0  0  0  0
    9.4290    0.0510   23.8450 C   0  0  0  0  0  0  0  0  0  0  0  0
   10.1820    1.2210   23.7330 C   0  0  0  0  0  0  0  0  0  0  0  0
   11.3120    2.0920   23.4840 C   0  0  0  0  0  0  0  0  0  0  0  0
   12.6200    1.8230   23.0720 C   0  0  0  0  0  0  0  0  0  0  0  0
   13.0150    0.5730   22.8480 C   0  0  0  0  0  0  0  0  0  0  0  0
   12.0500   -0.2790   23.0700 C   0  0  0  0  0  0  0  0  0  0  0  0
   12.1630   -1.5220   22.9690 N   0  0  0  0  0  0  0  0  0  0  0  0
   11.7410   -2.7550   22.9260 C   0  0  0  0  0  0  0  0  0  0  0  0
   11.2020   -2.9980   24.1830 C   0  0  0  0  0  0  0  0  0  0  0  0
   11.8900   -2.4300   25.1970 O   0  0  0  0  0  0  0  0  0  0  0  0
   13.2410   -2.1080   24.9060 C   0  0  0  0  0  0  0  0  0  0  0  0
   13.3640   -1.5690   23.6240 C   0  0  0  0  0  0  0  0  0  0  0  0
   10.8080    0.0340   23.4560 N   0  0  0  0  0  0  0  0  0  0  0  0
    7.3360   -0.4150   20.9950 N   0  0  0  0  0  0  0  0  0  0  0  0
    6.5520    0.1680   20.0630 C   0  0  0  0  0  0  0  0  0  0  0  0
    5.3810    0.8810   20.2900 C   0  0  0  0  0  0  0  0  0  0  0  0
    4.6880    1.4440   19.2430 C   0  0  0  0  0  0  0  0  0  0  0  0
    5.1420    1.3120   17.9520 C   0  0  0  0  0  0  0  0  0  0  0  0
    6.2640    0.6210   17.6790 N   0  0  0  0  0  0  0  0  0  0  0  0
    6.9320    0.0710   18.7300 C   0  0  0  0  0  0  0  0  0  0  0  0
  1  2  2  0
  2  3  1  0
  3  4  1  0
  4  5  1  0
  5  6  2  0
  6  7  1  0
  7  8  2  0
  8  9  1  0
  9 10  1  0
 10 11  1  0
 11 12  1  0
 12 13  1  0
 13 14  1  0
 10 15  1  0
 14 15  1  0
  5 16  1  0
  9 16  2  0
  2 17  1  0
 17 18  1  0
 18 19  2  0
 19 20  1  0
 20 21  2  0
 21 22  1  0
 18 23  1  0
 22 23  2  0
M  END
