pyridine_urea_2563
     RDKit          3D

 23 25  0  0  0  0  0  0  0  0999 V2000
   14.9640   -4.9730   20.6350 C   0  0  0  0  0  0  0  0  0  0  0  0
   13.7900   -4.2180   20.7340 N   0  0  0  0  0  0  0  0  0  0  0  0
   12.7330   -4.3810   19.9250 C   0  0  0  0  0  0  0  0  0  0  0  0
   11.7910   -3.6630   20.2000 C   0  0  0  0  0  0  0  0  0  0  0  0
   12.0500   -2.8860   21.1960 C   0  0  0  0  0  0  0  0  0  0  0  0
   10.9750   -2.0130   21.5870 N   0  0  0  0  0  0  0  0  0  0  0  0
   11.2650   -0.8830   22.2940 C   0  0  0  0  0  0  0  0  0  0  0  0
   12.6130   -0.5430   22.4450 C   0  0  0  0  0  0  0  0  0  0  0  0
   12.9100    0.6050   23.1370 C   0  0  0  0  0  0  0  0  0  0  0  0
   11.7390    1.3840   23.6840 C   0  0  0  0  0  0  0  0  0  0  0  0
   10.4390    1.0100   23.5200 C   0  0  0  0  0  0  0  0  0  0  0  0
   10.1970   -0.1330   22.8100 C   0  0  0  0  0  0  0  0  0  0  0  0
    8.9590   -0.5900   22.5520 N   0  0  0  0  0  0  0  0  0  0  0  0
    8.3660    0.0780   21.5200 C   0  0  0  0  0  0  0  0  0  0  0  0
    8.7300    1.1930   21.1190 O   0  0  0  0  0  0  0  0  0  0  0  0
    7.3210   -0.6230   21.0140 N   0  0  0  0  0  0  0  0  0  0  0  0
    6.5560    0.0290   20.0940 C   0  0  0  0  0  0  0  0  0  0  0  0
    5.4070    0.7780   20.3930 C   0  0  0  0  0  0  0  0  0  0  0  0
    4.7140    1.4080   19.3630 C   0  0  0  0  0  0  0  0  0  0  0  0
    5.1900    1.2700   18.0760 C   0  0  0  0  0  0  0  0  0  0  0  0
    6.2770    0.5580   17.7520 N   0  0  0  0  0  0  0  0  0  0  0  0
    6.9440   -0.0520   18.7600 C   0  0  0  0  0  0  0  0  0  0  0  0
   13.4020   -3.1750   21.6490 N   0  0  0  0  0  0  0  0  0  0  0  0
  1  2  1  0
  2  3  1  0
  3  4  2  0
  4  5  1  0
  5  6  1  0
  6  7  1  0
  7  8  2  0
  8  9  1  0
  9 10  2  0
 10 11  1  0
  7 12  1  0
 11 12  2  0
 12 13  1  0
 13 14  1  0
 14 15  2  0
 14 16  1  0
 16 17  1  0
 17 18  2  0
 18 19  1  0
 19 20  2  0
 20 21  1  0
 17 22  1  0
 21 22  2  0
  2 23  1  0
  5 23  2  0
M  END
