pyridine_urea_13189
     RDKit          3D

 17 18  0  0  0  0  0  0  0  0999 V2000
    8.8860    1.1600   21.2170 O   0  0  0  0  0  0  0  0  0  0  0  0
    8.3680    0.0720   21.5180 C   0  0  0  0  0  0  0  0  0  0  0  0
    7.1970   -0.4460   21.0390 N   0  0  0  0  0  0  0  0  0  0  0  0
    6.4950    0.1430   19.9950 C   0  0  0  0  0  0  0  0  0  0  0  0
    5.3270    0.8570   20.2700 C   0  0  0  0  0  0  0  0  0  0  0  0
    4.6310    1.4660   19.2280 C   0  0  0  0  0  0  0  0  0  0  0  0
    5.1380    1.3330   17.9550 C   0  0  0  0  0  0  0  0  0  0  0  0
    6.2490    0.6450   17.6710 N   0  0  0  0  0  0  0  0  0  0  0  0
    6.9000    0.0660   18.6900 C   0  0  0  0  0  0  0  0  0  0  0  0
    8.9480   -0.7920   22.4090 N   0  0  0  0  0  0  0  0  0  0  0  0
   10.3610   -0.6370   22.6290 C   0  0  1  0  0  0  0  0  0  0  0  0
   10.5470    0.0470   23.9870 C   0  0  0  0  0  0  0  0  0  0  0  0
   11.7720    0.6660   24.1550 C   0  0  0  0  0  0  0  0  0  0  0  0
   12.7210    0.4340   23.2160 C   0  0  0  0  0  0  0  0  0  0  0  0
   13.3070   -1.0960   23.6370 S   0  0  0  0  0  0  0  0  0  0  0  0
   12.4740   -1.8000   22.2900 C   0  0  0  0  0  0  0  0  0  0  0  0
   11.0770   -1.8310   22.3590 C   0  0  0  0  0  0  0  0  0  0  0  0
  1  2  2  0
  2  3  1  0
  3  4  1  0
  4  5  2  0
  5  6  1  0
  6  7  2  0
  7  8  1  0
  4  9  1  0
  8  9  2  0
  2 10  1  0
 11 10  1  1
 11 12  1  0
 12 13  1  0
 13 14  1  0
 14 15  1  0
 15 16  1  0
 11 17  1  0
 16 17  1  0
M  END
