pyridine_urea_5968
     RDKit          3D

 26 28  0  0  0  0  0  0  0  0999 V2000
   12.7450   -1.5130   21.7250 C   0  0  0  0  0  0  0  0  0  0  0  0
   12.8420   -0.2620   22.5690 C   0  0  0  0  0  0  0  0  0  0  0  0
   13.7410   -0.3100   23.3790 O   0  0  0  0  0  0  0  0  0  0  0  0
   11.9050    0.8620   22.3910 N   0  0  0  0  0  0  0  0  0  0  0  0
   10.4970    0.6960   22.3750 C   0  0  0  0  0  0  0  0  0  0  0  0
    9.7330    1.8950   22.1940 C   0  0  0  0  0  0  0  0  0  0  0  0
   10.3220    2.8600   23.0290 N   0  0  0  0  0  0  0  0  0  0  0  0
   10.4910    2.2200   24.1840 C   0  0  0  0  0  0  0  0  0  0  0  0
   10.7440    0.7540   23.9890 C   0  0  0  0  0  0  0  0  0  0  0  0
   11.9340    0.0210   24.5180 C   0  0  0  0  0  0  0  0  0  0  0  0
   11.9210   -1.4290   24.1900 C   0  0  0  0  0  0  0  0  0  0  0  0
   10.9030   -2.0240   23.4500 C   0  0  0  0  0  0  0  0  0  0  0  0
    9.7790   -1.3600   22.9270 C   0  0  0  0  0  0  0  0  0  0  0  0
    8.7410   -1.7960   22.1950 N   0  0  0  0  0  0  0  0  0  0  0  0
    8.2040   -0.7960   21.4290 C   0  0  0  0  0  0  0  0  0  0  0  0
    8.7080    0.2630   21.1200 O   0  0  0  0  0  0  0  0  0  0  0  0
    6.9030   -1.0450   20.9650 N   0  0  0  0  0  0  0  0  0  0  0  0
    6.2500   -0.2310   20.0230 C   0  0  0  0  0  0  0  0  0  0  0  0
    5.0770    0.4750   20.2280 C   0  0  0  0  0  0  0  0  0  0  0  0
    4.5450    1.2550   19.2000 C   0  0  0  0  0  0  0  0  0  0  0  0
    5.2140    1.3050   17.9820 C   0  0  0  0  0  0  0  0  0  0  0  0
    6.3520    0.6260   17.7560 N   0  0  0  0  0  0  0  0  0  0  0  0
    6.8320   -0.1160   18.7730 C   0  0  0  0  0  0  0  0  0  0  0  0
    9.7850    0.0950   23.2700 C   0  0  0  0  0  0  0  0  0  0  0  0
   11.6310    3.2780   22.5890 C   0  0  0  0  0  0  0  0  0  0  0  0
   12.4320    2.1570   22.8930 C   0  0  0  0  0  0  0  0  0  0  0  0
  1  2  1  0
  2  3  2  0
  2  4  1  0
  4  5  1  0
  5  6  1  0
  6  7  1  0
  7  8  1  0
  8  9  1  0
  9 10  2  0
 10 11  1  0
 11 12  2  0
 12 13  1  0
 13 14  1  0
 14 15  1  0
 15 16  2  0
 15 17  1  0
 17 18  1  0
 18 19  2  0
 19 20  1  0
 20 21  2  0
 21 22  1  0
 18 23  1  0
 22 23  2  0
  9 24  1  0
 13 24  2  0
  7 25  1  0
  4 26  1  0
 25 26  1  0
M  END
