pyridine_urea_11968
     RDKit          3D

 24 26  0  0  0  0  0  0  0  0999 V2000
   11.1430    6.2410   23.5530 C   0  0  0  0  0  0  0  0  0  0  0  0
   11.6840    4.8270   23.3790 C   0  0  0  0  0  0  0  0  0  0  0  0
   12.8980    4.5360   22.8230 C   0  0  0  0  0  0  0  0  0  0  0  0
   13.4150    3.2520   22.6540 C   0  0  0  0  0  0  0  0  0  0  0  0
   12.6870    2.1160   23.0640 C   0  0  0  0  0  0  0  0  0  0  0  0
   13.1630    0.8050   22.9200 C   0  0  0  0  0  0  0  0  0  0  0  0
   11.4650    2.3180   23.6280 C   0  0  0  0  0  0  0  0  0  0  0  0
   10.6000    1.2580   24.0580 N   0  0  0  0  0  0  0  0  0  0  0  0
   10.9090    1.0410   22.7110 N   0  0  0  0  0  0  0  0  0  0  0  0
   10.3110    0.0080   22.1460 C   0  0  0  0  0  0  0  0  0  0  0  0
    9.5470   -0.6050   22.9440 C   0  0  0  0  0  0  0  0  0  0  0  0
    8.7930   -1.6010   22.5460 N   0  0  0  0  0  0  0  0  0  0  0  0
    8.1620   -0.8670   21.5420 C   0  0  0  0  0  0  0  0  0  0  0  0
    8.6150    0.1850   21.1160 O   0  0  0  0  0  0  0  0  0  0  0  0
    6.9000   -1.3280   21.0140 N   0  0  0  0  0  0  0  0  0  0  0  0
    6.2910   -0.4640   20.1010 C   0  0  0  0  0  0  0  0  0  0  0  0
    5.1240    0.2750   20.3260 C   0  0  0  0  0  0  0  0  0  0  0  0
    4.6180    1.1150   19.3200 C   0  0  0  0  0  0  0  0  0  0  0  0
    5.2910    1.2000   18.1110 C   0  0  0  0  0  0  0  0  0  0  0  0
    6.4130    0.5070   17.8560 N   0  0  0  0  0  0  0  0  0  0  0  0
    6.8780   -0.2970   18.8460 C   0  0  0  0  0  0  0  0  0  0  0  0
    9.7040    0.0360   24.1420 C   0  0  0  0  0  0  0  0  0  0  0  0
    9.1250   -0.2400   25.3700 C   0  0  0  0  0  0  0  0  0  0  0  0
   10.9270    3.6030   23.8050 C   0  0  0  0  0  0  0  0  0  0  0  0
  1  2  1  0
  2  3  2  0
  3  4  1  0
  4  5  2  0
  5  6  1  0
  5  7  1  0
  7  8  1  0
  8  9  1  0
  9 10  2  0
 10 11  1  0
 11 12  1  0
 12 13  1  0
 13 14  2  0
 13 15  1  0
 15 16  1  0
 16 17  2  0
 17 18  1  0
 18 19  2  0
 19 20  1  0
 16 21  1  0
 20 21  2  0
  8 22  1  0
 11 22  2  0
 22 23  1  0
  2 24  1  0
  7 24  2  0
M  END
