pyridine_urea_9791
     RDKit          3D

 25 27  0  0  0  0  0  0  0  0999 V2000
    8.8990    1.2930   21.1610 O   0  0  0  0  0  0  0  0  0  0  0  0
    8.7390    0.0800   21.3570 C   0  0  0  0  0  0  0  0  0  0  0  0
    7.5230   -0.5570   21.1170 N   0  0  0  0  0  0  0  0  0  0  0  0
    6.7020    0.0480   20.0930 C   0  0  0  0  0  0  0  0  0  0  0  0
    5.4630    0.8290   20.5280 C   0  0  0  0  0  0  0  0  0  0  0  0
    4.6180    1.4810   19.4320 C   0  0  0  0  0  0  0  0  0  0  0  0
    5.1240    1.2730   18.0050 C   0  0  0  0  0  0  0  0  0  0  0  0
    6.2750    0.5210   17.7730 N   0  0  0  0  0  0  0  0  0  0  0  0
    7.0190   -0.0590   18.7600 C   0  0  0  0  0  0  0  0  0  0  0  0
    9.7650   -0.7860   21.7920 N   0  0  0  0  0  0  0  0  0  0  0  0
   10.7840   -0.3610   22.7610 C   0  0  1  0  0  0  0  0  0  0  0  0
   10.5390   -0.3660   24.1550 C   0  0  0  0  0  0  0  0  0  0  0  0
    9.8000    0.7150   24.7050 C   0  0  0  0  0  0  0  0  0  0  0  0
    8.8010    1.2930   23.9110 C   0  0  0  0  0  0  0  0  0  0  0  0
    7.6610    0.4950   23.7520 C   0  0  0  0  0  0  0  0  0  0  0  0
    6.9570    0.2980   24.9360 C   0  0  0  0  0  0  0  0  0  0  0  0
    7.8700    0.3590   26.1030 C   0  0  0  0  0  0  0  0  0  0  0  0
    9.2120    0.0780   25.8170 C   0  0  0  0  0  0  0  0  0  0  0  0
   12.1160   -1.2280   22.5820 C   0  0  0  0  0  0  0  0  0  0  0  0
   12.4310    0.0660   22.6470 C   0  0  0  0  0  0  0  0  0  0  0  0
   11.2560    0.7410   22.8560 C   0  0  0  0  0  0  0  0  0  0  0  0
   10.0000   -0.0310   22.9570 C   0  0  0  0  0  0  0  0  0  0  0  0
    9.9340   -1.4860   22.8490 C   0  0  0  0  0  0  0  0  0  0  0  0
    8.1890   -2.6280   23.0110 I   0  0  0  0  0  0  0  0  0  0  0  0
   11.1160   -2.1110   22.6380 C   0  0  0  0  0  0  0  0  0  0  0  0
  1  2  2  0
  2  3  1  0
  3  4  1  0
  4  5  2  0
  5  6  1  0
  6  7  2  0
  7  8  1  0
  4  9  1  0
  8  9  2  0
  2 10  1  0
 10 11  1  0
 11 12  1  1
 12 13  1  0
 13 14  1  0
 14 15  1  0
 15 16  1  0
 16 17  1  0
 13 18  1  0
 17 18  1  0
 11 19  1  0
 19 20  2  0
 20 21  1  0
 21 22  2  0
 22 23  1  0
 23 24  1  0
 19 25  1  0
 23 25  2  0
M  END
