pyridine_urea_3640
     RDKit          3D

 15 16  0  0  0  0  0  0  0  0999 V2000
   13.2670   -2.2920   24.0400 C   0  0  0  0  0  0  0  0  0  0  0  0
   12.1580   -1.6600   23.1840 C   0  0  0  0  0  0  0  0  0  0  0  0
   11.3310   -0.5240   23.6670 C   0  0  0  0  0  0  0  0  0  0  0  0
   10.7330   -0.5480   22.3690 C   0  0  0  0  0  0  0  0  0  0  0  0
    9.2620   -0.7030   22.3900 N   0  0  0  0  0  0  0  0  0  0  0  0
    8.5440    0.1030   21.5160 C   0  0  0  0  0  0  0  0  0  0  0  0
    8.9190    1.2440   21.2270 O   0  0  0  0  0  0  0  0  0  0  0  0
    7.3750   -0.5230   21.0260 N   0  0  0  0  0  0  0  0  0  0  0  0
    6.5600    0.0820   20.0890 C   0  0  0  0  0  0  0  0  0  0  0  0
    5.2690    0.8420   20.3990 C   0  0  0  0  0  0  0  0  0  0  0  0
    4.6220    1.3930   19.2880 C   0  0  0  0  0  0  0  0  0  0  0  0
    5.1540    1.2330   18.0140 C   0  0  0  0  0  0  0  0  0  0  0  0
    6.2780    0.5610   17.7440 N   0  0  0  0  0  0  0  0  0  0  0  0
    6.9490    0.0050   18.7680 C   0  0  0  0  0  0  0  0  0  0  0  0
   11.5270   -1.7840   21.8930 C   0  0  0  0  0  0  0  0  0  0  0  0
  1  2  2  3
  2  3  1  0
  3  4  1  0
  4  5  1  0
  5  6  1  0
  6  7  2  0
  6  8  1  0
  8  9  1  0
  9 10  2  0
 10 11  1  0
 11 12  2  0
 12 13  1  0
  9 14  1  0
 13 14  2  0
  2 15  1  0
  4 15  1  0
M  END
