pyridine_urea_5077
     RDKit          3D

 20 21  0  0  0  0  0  0  0  0999 V2000
    7.7730   -2.6120   22.5860 C   0  0  0  0  0  0  0  0  0  0  0  0
    8.9670   -1.7390   22.3180 C   0  0  1  0  0  0  0  0  0  0  0  0
    8.7050   -0.3980   22.7340 N   0  0  0  0  0  0  0  0  0  0  0  0
    8.2840    0.3390   21.5540 C   0  0  0  0  0  0  0  0  0  0  0  0
    8.8920    1.3710   21.1770 O   0  0  0  0  0  0  0  0  0  0  0  0
    7.1980   -0.2760   21.0070 N   0  0  0  0  0  0  0  0  0  0  0  0
    6.4980    0.2790   19.9670 C   0  0  0  0  0  0  0  0  0  0  0  0
    5.3580    0.9950   20.2380 C   0  0  0  0  0  0  0  0  0  0  0  0
    4.6120    1.6250   19.0930 C   0  0  0  0  0  0  0  0  0  0  0  0
    5.1270    1.4400   17.8290 C   0  0  0  0  0  0  0  0  0  0  0  0
    6.2380    0.7190   17.6060 N   0  0  0  0  0  0  0  0  0  0  0  0
    6.8880    0.1640   18.6540 C   0  0  0  0  0  0  0  0  0  0  0  0
   10.1940   -2.2000   23.0950 C   0  0  0  0  0  0  0  0  0  0  0  0
   10.0520   -3.3490   23.7380 N   0  0  0  0  0  0  0  0  0  0  0  0
   11.1820   -3.5020   24.2940 O   0  0  0  0  0  0  0  0  0  0  0  0
   11.9770   -2.4360   23.9620 C   0  0  0  0  0  0  0  0  0  0  0  0
   13.2700   -2.2830   24.3740 C   0  0  0  0  0  0  0  0  0  0  0  0
   13.4960   -3.0140   25.4830 F   0  0  0  0  0  0  0  0  0  0  0  0
   14.0200   -2.8110   23.4150 F   0  0  0  0  0  0  0  0  0  0  0  0
   11.3410   -1.5920   23.1910 N   0  0  0  0  0  0  0  0  0  0  0  0
  2  1  1  1
  2  3  1  0
  3  4  1  0
  4  5  2  0
  4  6  1  0
  6  7  1  0
  7  8  2  0
  8  9  1  0
  9 10  2  0
 10 11  1  0
  7 12  1  0
 11 12  2  0
  2 13  1  0
 13 14  2  0
 14 15  1  0
 15 16  1  0
 16 17  1  0
 17 18  1  0
 17 19  1  0
 13 20  1  0
 16 20  2  0
M  END
