pyridine_urea_10781
     RDKit          3D

 20 20  0  0  0  0  0  0  0  0999 V2000
   10.8630    2.7180   23.8310 C   0  0  0  0  0  0  0  0  0  0  0  0
    9.4410    2.3960   24.2310 C   0  0  0  0  0  0  0  0  0  0  0  0
    9.3230    1.3270   24.8590 O   0  0  0  0  0  0  0  0  0  0  0  0
   10.1330    0.2480   24.5810 C   0  0  0  0  0  0  0  0  0  0  0  0
   10.8550   -0.3050   25.3970 O   0  0  0  0  0  0  0  0  0  0  0  0
   10.0120   -0.1560   23.2640 C   0  0  2  0  0  0  0  0  0  0  0  0
   10.2770    0.9290   22.4480 C   0  0  0  0  0  0  0  0  0  0  0  0
    8.8920   -0.7880   22.9120 N   0  0  0  0  0  0  0  0  0  0  0  0
    8.2460   -0.7160   21.6840 C   0  0  0  0  0  0  0  0  0  0  0  0
    8.8880   -1.0200   20.5900 O   0  0  0  0  0  0  0  0  0  0  0  0
    6.9320   -0.3190   21.6300 N   0  0  0  0  0  0  0  0  0  0  0  0
    6.3220    0.2000   20.4490 C   0  0  0  0  0  0  0  0  0  0  0  0
    5.0400    1.0080   20.4100 C   0  0  0  0  0  0  0  0  0  0  0  0
    4.5500    1.4680   19.2020 C   0  0  0  0  0  0  0  0  0  0  0  0
    5.2490    1.1810   18.0270 C   0  0  0  0  0  0  0  0  0  0  0  0
    6.3930    0.4590   17.9890 N   0  0  0  0  0  0  0  0  0  0  0  0
    6.8800    0.0000   19.1780 C   0  0  0  0  0  0  0  0  0  0  0  0
   11.1630   -1.2360   23.0630 C   0  0  0  0  0  0  0  0  0  0  0  0
   10.7400   -1.6400   21.8200 C   0  0  0  0  0  0  0  0  0  0  0  0
   12.6210   -0.6800   22.9440 C   0  0  0  0  0  0  0  0  0  0  0  0
  1  2  1  0
  2  3  1  0
  3  4  1  0
  4  5  2  0
  6  4  1  0
  6  7  1  6
  6  8  1  0
  8  9  1  0
  9 10  2  0
  9 11  1  0
 11 12  1  0
 12 13  2  0
 13 14  1  0
 14 15  2  0
 15 16  1  0
 12 17  1  0
 16 17  2  0
  6 18  1  0
 18 19  1  0
 18 20  1  0
M  END
