pyridine_urea_7974
     RDKit          3D

 25 27  0  0  0  0  0  0  0  0999 V2000
   12.4710    7.3140   23.7860 C   0  0  0  0  0  0  0  0  0  0  0  0
   11.1940    6.6340   23.3420 C   0  0  0  0  0  0  0  0  0  0  0  0
   11.4780    5.2120   23.3460 N   0  0  0  0  0  0  0  0  0  0  0  0
   12.7370    4.7770   22.9770 C   0  0  0  0  0  0  0  0  0  0  0  0
   12.7570    3.4320   22.5990 C   0  0  0  0  0  0  0  0  0  0  0  0
   12.0100    2.6160   23.5590 N   0  0  0  0  0  0  0  0  0  0  0  0
   11.7990    1.3280   23.1430 C   0  0  0  0  0  0  0  0  0  0  0  0
   10.4700    1.3140   23.2470 C   0  0  0  0  0  0  0  0  0  0  0  0
    9.6260    0.3530   22.9330 C   0  0  0  0  0  0  0  0  0  0  0  0
   10.1020   -0.9360   22.3660 C   0  0  0  0  0  0  0  0  0  0  0  0
    9.0990   -1.7470   22.0410 N   0  0  0  0  0  0  0  0  0  0  0  0
    8.2620   -0.8590   21.3610 C   0  0  0  0  0  0  0  0  0  0  0  0
    8.6370    0.2840   21.1160 O   0  0  0  0  0  0  0  0  0  0  0  0
    7.0350   -1.2860   20.9940 N   0  0  0  0  0  0  0  0  0  0  0  0
    6.4090   -0.4490   20.0930 C   0  0  0  0  0  0  0  0  0  0  0  0
    5.2300    0.2560   20.3930 C   0  0  0  0  0  0  0  0  0  0  0  0
    4.6810    1.0770   19.4090 C   0  0  0  0  0  0  0  0  0  0  0  0
    5.3170    1.1680   18.1860 C   0  0  0  0  0  0  0  0  0  0  0  0
    6.4400    0.5240   17.8460 N   0  0  0  0  0  0  0  0  0  0  0  0
    6.9590   -0.2770   18.8180 C   0  0  0  0  0  0  0  0  0  0  0  0
   11.6370   -0.9750   22.2770 C   0  0  0  0  0  0  0  0  0  0  0  0
   12.3940   -2.0410   21.7980 C   0  0  0  0  0  0  0  0  0  0  0  0
   12.5440    0.2410   22.6960 C   0  0  0  0  0  0  0  0  0  0  0  0
   10.5940    3.0740   23.5740 C   0  0  0  0  0  0  0  0  0  0  0  0
   10.4310    4.2990   22.9490 C   0  0  0  0  0  0  0  0  0  0  0  0
  1  2  1  0
  2  3  1  0
  3  4  1  0
  4  5  1  0
  5  6  1  0
  6  7  1  0
  7  8  2  0
  8  9  1  0
  9 10  2  0
 10 11  1  0
 11 12  1  0
 12 13  2  0
 12 14  1  0
 14 15  1  0
 15 16  2  0
 16 17  1  0
 17 18  2  0
 18 19  1  0
 15 20  1  0
 19 20  2  0
 10 21  1  0
 21 22  1  0
  7 23  1  0
 21 23  2  0
  6 24  1  0
  3 25  1  0
 24 25  1  0
M  END
