pyridine_urea_6991
     RDKit          3D

 20 22  0  0  0  0  0  0  0  0999 V2000
    8.8820    1.1900   21.1420 O   0  0  0  0  0  0  0  0  0  0  0  0
    8.4410    0.0630   21.4130 C   0  0  0  0  0  0  0  0  0  0  0  0
    9.0580   -0.8530   22.2110 N   0  0  0  0  0  0  0  0  0  0  0  0
    9.6640   -0.5210   23.4130 C   0  0  0  0  0  0  0  0  0  0  0  0
   10.9940   -0.7910   23.6850 C   0  0  0  0  0  0  0  0  0  0  0  0
   11.1600   -1.8590   24.6000 N   0  0  0  0  0  0  0  0  0  0  0  0
   12.5220   -1.8650   24.7470 O   0  0  0  0  0  0  0  0  0  0  0  0
   12.6150   -0.8220   23.8380 C   0  0  0  0  0  0  0  0  0  0  0  0
   12.0780    0.1130   22.9500 C   0  0  0  0  0  0  0  0  0  0  0  0
   13.3390    0.2000   22.8560 C   0  0  0  0  0  0  0  0  0  0  0  0
   13.0600   -1.1340   22.1240 C   0  0  0  0  0  0  0  0  0  0  0  0
   11.6480   -1.4490   22.3760 C   0  0  0  0  0  0  0  0  0  0  0  0
   11.3190   -0.9640   23.6760 C   0  0  0  0  0  0  0  0  0  0  0  0
    7.2420   -0.4330   20.9590 N   0  0  0  0  0  0  0  0  0  0  0  0
    6.4580    0.1860   20.0110 C   0  0  0  0  0  0  0  0  0  0  0  0
    5.3040    0.9210   20.2570 C   0  0  0  0  0  0  0  0  0  0  0  0
    4.5730    1.5620   19.1470 C   0  0  0  0  0  0  0  0  0  0  0  0
    5.1220    1.3690   17.8900 C   0  0  0  0  0  0  0  0  0  0  0  0
    6.2220    0.6550   17.6160 N   0  0  0  0  0  0  0  0  0  0  0  0
    6.8720    0.0720   18.7030 C   0  0  0  0  0  0  0  0  0  0  0  0
  1  2  2  0
  2  3  1  0
  3  4  1  0
  4  5  1  0
  5  6  2  0
  6  7  1  0
  7  8  1  0
  5  9  1  0
  8  9  2  0
  9 10  1  0
 10 11  1  0
 11 12  1  0
  8 13  1  0
 12 13  1  0
  2 14  1  0
 14 15  1  0
 15 16  2  0
 16 17  1  0
 17 18  2  0
 18 19  1  0
 15 20  1  0
 19 20  2  0
M  END
