pyridine_urea_3194
     RDKit          3D

 20 22  0  0  0  0  0  0  0  0999 V2000
    9.3090    0.8360   21.8370 O   0  0  0  0  0  0  0  0  0  0  0  0
    8.8050   -0.2320   21.5430 C   0  0  0  0  0  0  0  0  0  0  0  0
    9.3420   -1.4650   21.7490 N   0  0  0  0  0  0  0  0  0  0  0  0
   10.4230   -1.6960   22.6120 C   0  0  0  0  0  0  0  0  0  0  0  0
   11.7270   -1.8500   22.0830 C   0  0  0  0  0  0  0  0  0  0  0  0
   12.1990   -2.3550   20.9970 C   0  0  0  0  0  0  0  0  0  0  0  0
   12.8150   -1.7180   22.1860 N   0  0  0  0  0  0  0  0  0  0  0  0
   11.7120   -1.3670   23.0900 C   0  0  0  0  0  0  0  0  0  0  0  0
   10.6580   -0.9470   24.1480 C   0  0  0  0  0  0  0  0  0  0  0  0
   10.9780   -0.4630   25.2820 C   0  0  0  0  0  0  0  0  0  0  0  0
   12.5790   -0.4060   25.3130 S   0  0  0  0  0  0  0  0  0  0  0  0
   12.9500   -1.0180   23.7970 C   0  0  0  0  0  0  0  0  0  0  0  0
   12.9820   -1.5110   22.6170 C   0  0  0  0  0  0  0  0  0  0  0  0
    7.6000   -0.2390   20.9060 N   0  0  0  0  0  0  0  0  0  0  0  0
    6.6410    0.2560   20.0400 C   0  0  0  0  0  0  0  0  0  0  0  0
    5.4450    0.8930   20.3700 C   0  0  0  0  0  0  0  0  0  0  0  0
    4.6370    1.3570   19.3300 C   0  0  0  0  0  0  0  0  0  0  0  0
    5.0410    1.1730   18.0170 C   0  0  0  0  0  0  0  0  0  0  0  0
    6.1680    0.5550   17.6760 N   0  0  0  0  0  0  0  0  0  0  0  0
    6.9390    0.1100   18.7050 C   0  0  0  0  0  0  0  0  0  0  0  0
  1  2  2  0
  2  3  1  0
  3  4  1  0
  4  5  1  0
  5  6  2  0
  6  7  1  0
  7  8  2  0
  8  9  1  0
  9 10  2  0
 10 11  1  0
  8 12  1  0
 11 12  1  0
  5 13  1  0
 12 13  2  0
  2 14  1  0
 14 15  1  0
 15 16  2  0
 16 17  1  0
 17 18  2  0
 18 19  1  0
 15 20  1  0
 19 20  2  0
M  END
