pyridine_urea_12392
     RDKit          3D

 22 23  0  0  0  0  0  0  0  0999 V2000
   13.4780   -2.6340   23.0840 C   0  0  0  0  0  0  0  0  0  0  0  0
   13.1520   -1.5780   21.6880 S   0  0  0  0  0  0  0  0  0  0  0  0
   14.0180   -1.6600   20.5590 O   0  0  0  0  0  0  0  0  0  0  0  0
   11.7410   -1.7220   21.4420 O   0  0  0  0  0  0  0  0  0  0  0  0
   13.5260   -0.1080   22.4580 N   0  0  0  0  0  0  0  0  0  0  0  0
   12.2720    0.1250   22.9970 C   0  0  0  0  0  0  0  0  0  0  0  0
   11.8020    1.3790   23.6580 C   0  0  0  0  0  0  0  0  0  0  0  0
   10.5400    1.2990   24.0620 C   0  0  0  0  0  0  0  0  0  0  0  0
    9.7590    0.0090   23.8110 C   0  0  0  0  0  0  0  0  0  0  0  0
   10.1070   -1.2500   23.1820 C   0  0  0  0  0  0  0  0  0  0  0  0
    8.6720   -1.3840   23.6110 C   0  0  0  0  0  0  0  0  0  0  0  0
    8.0630   -0.2100   23.0880 N   0  0  0  0  0  0  0  0  0  0  0  0
    8.1240   -0.0880   21.7050 C   0  0  0  0  0  0  0  0  0  0  0  0
    8.9570    0.6760   21.2460 O   0  0  0  0  0  0  0  0  0  0  0  0
    7.2220   -0.8060   20.9970 N   0  0  0  0  0  0  0  0  0  0  0  0
    6.4880   -0.0960   20.1060 C   0  0  0  0  0  0  0  0  0  0  0  0
    5.2010    0.6530   20.4470 C   0  0  0  0  0  0  0  0  0  0  0  0
    4.5330    1.4030   19.2950 C   0  0  0  0  0  0  0  0  0  0  0  0
    5.2410    1.3040   17.9560 C   0  0  0  0  0  0  0  0  0  0  0  0
    6.3710    0.6080   17.7800 N   0  0  0  0  0  0  0  0  0  0  0  0
    6.9420   -0.0480   18.8000 C   0  0  0  0  0  0  0  0  0  0  0  0
   11.4460   -0.9630   22.8460 C   0  0  0  0  0  0  0  0  0  0  0  0
  1  2  1  0
  2  3  2  0
  2  4  2  0
  2  5  1  0
  5  6  1  0
  6  7  2  0
  7  8  1  0
  8  9  2  0
  9 10  1  0
 10 11  1  0
 11 12  1  0
 12 13  1  0
 13 14  2  0
 13 15  1  0
 15 16  1  0
 16 17  2  0
 17 18  1  0
 18 19  2  0
 19 20  1  0
 16 21  1  0
 20 21  2  0
  6 22  1  0
 10 22  2  0
M  END
