pyridine_urea_8374
     RDKit          3D

 22 23  0  0  0  0  0  0  0  0999 V2000
   12.0730   -2.2310   21.1680 C   0  0  0  0  0  0  0  0  0  0  0  0
   13.4050   -1.9000   21.4160 O   0  0  0  0  0  0  0  0  0  0  0  0
   13.5790   -2.2100   22.7730 C   0  0  0  0  0  0  0  0  0  0  0  0
   14.1070   -3.1600   23.2970 O   0  0  0  0  0  0  0  0  0  0  0  0
   12.9230   -1.1200   23.5640 C   0  0  0  0  0  0  0  0  0  0  0  0
   13.1500    0.2180   23.2430 C   0  0  0  0  0  0  0  0  0  0  0  0
   13.1610   -1.5690   25.0150 C   0  0  0  0  0  0  0  0  0  0  0  0
   11.5880   -1.3940   23.3430 N   0  0  0  0  0  0  0  0  0  0  0  0
   10.2230   -1.4540   23.1090 C   0  0  0  0  0  0  0  0  0  0  0  0
    9.5750   -0.1940   22.9540 C   0  0  0  0  0  0  0  0  0  0  0  0
    8.2100   -0.2610   22.7290 N   0  0  0  0  0  0  0  0  0  0  0  0
    8.0120    0.1310   21.4410 C   0  0  0  0  0  0  0  0  0  0  0  0
    8.6210    1.1430   21.0360 O   0  0  0  0  0  0  0  0  0  0  0  0
    7.1510   -0.6480   20.7820 N   0  0  0  0  0  0  0  0  0  0  0  0
    6.4140    0.0410   19.9280 C   0  0  0  0  0  0  0  0  0  0  0  0
    5.1170    0.7590   20.2470 C   0  0  0  0  0  0  0  0  0  0  0  0
    4.4410    1.5100   19.1260 C   0  0  0  0  0  0  0  0  0  0  0  0
    5.1560    1.4550   17.7920 C   0  0  0  0  0  0  0  0  0  0  0  0
    6.3080    0.7740   17.6300 N   0  0  0  0  0  0  0  0  0  0  0  0
    6.8790    0.1160   18.6440 C   0  0  0  0  0  0  0  0  0  0  0  0
   10.4970    0.7070   23.0720 C   0  0  0  0  0  0  0  0  0  0  0  0
   11.6630    0.0400   23.2990 N   0  0  0  0  0  0  0  0  0  0  0  0
  1  2  1  0
  2  3  1  0
  3  4  2  0
  5  3  1  0
  5  6  1  0
  5  7  1  0
  5  8  1  0
  8  9  1  0
  9 10  2  0
 10 11  1  0
 11 12  1  0
 12 13  2  0
 12 14  1  0
 14 15  1  0
 15 16  2  0
 16 17  1  0
 17 18  2  0
 18 19  1  0
 15 20  1  0
 19 20  2  0
 10 21  1  0
  8 22  1  0
 21 22  2  0
M  END
