pyridine_urea_6832
     RDKit          3D

 21 22  0  0  0  0  0  0  0  0999 V2000
    8.6970    1.7150   21.1360 O   0  0  0  0  0  0  0  0  0  0  0  0
    8.5370    0.5160   21.3290 C   0  0  0  0  0  0  0  0  0  0  0  0
    9.4720   -0.3080   21.8300 N   0  0  0  0  0  0  0  0  0  0  0  0
    9.3820   -1.6790   21.9500 C   0  0  0  0  0  0  0  0  0  0  0  0
    8.9290   -2.2010   23.2940 C   0  0  0  0  0  0  0  0  0  0  0  0
    9.0150   -1.2340   24.0250 O   0  0  0  0  0  0  0  0  0  0  0  0
   10.1910   -0.7460   23.6610 C   0  0  0  0  0  0  0  0  0  0  0  0
   10.7020    0.5500   24.1560 C   0  0  0  0  0  0  0  0  0  0  0  0
   11.9390    0.9550   23.7370 C   0  0  0  0  0  0  0  0  0  0  0  0
   12.6390    0.1150   22.8740 C   0  0  0  0  0  0  0  0  0  0  0  0
   13.8510    0.4750   22.4660 F   0  0  0  0  0  0  0  0  0  0  0  0
   12.1760   -1.1130   22.3780 C   0  0  0  0  0  0  0  0  0  0  0  0
   13.0900   -2.0900   21.3170 Cl  0  0  0  0  0  0  0  0  0  0  0  0
   10.9390   -1.5350   22.7800 C   0  0  0  0  0  0  0  0  0  0  0  0
    7.3860   -0.1810   21.0370 N   0  0  0  0  0  0  0  0  0  0  0  0
    6.5530    0.3130   20.0500 C   0  0  0  0  0  0  0  0  0  0  0  0
    5.3620    1.0370   20.2960 C   0  0  0  0  0  0  0  0  0  0  0  0
    4.5170    1.5810   19.2740 C   0  0  0  0  0  0  0  0  0  0  0  0
    5.0920    1.2700   17.8950 C   0  0  0  0  0  0  0  0  0  0  0  0
    6.2240    0.5660   17.7030 N   0  0  0  0  0  0  0  0  0  0  0  0
    6.9460    0.0880   18.7590 C   0  0  0  0  0  0  0  0  0  0  0  0
  1  2  2  0
  2  3  1  0
  3  4  1  0
  4  5  1  0
  5  6  1  0
  6  7  1  0
  7  8  2  0
  8  9  1  0
  9 10  2  0
 10 11  1  0
 10 12  1  0
 12 13  1  0
  7 14  1  0
 12 14  2  0
  2 15  1  0
 15 16  1  0
 16 17  2  0
 17 18  1  0
 18 19  2  0
 19 20  1  0
 16 21  1  0
 20 21  2  0
M  END
