pyridine_urea_12839
     RDKit          3D

 21 23  0  0  0  0  0  0  0  0999 V2000
    8.1930    0.9680   20.9680 O   0  0  0  0  0  0  0  0  0  0  0  0
    8.1980   -0.2500   21.1040 C   0  0  0  0  0  0  0  0  0  0  0  0
    7.0570   -0.9420   20.8690 N   0  0  0  0  0  0  0  0  0  0  0  0
    6.4220   -0.2000   19.8390 C   0  0  0  0  0  0  0  0  0  0  0  0
    5.1040    0.5180   20.1630 C   0  0  0  0  0  0  0  0  0  0  0  0
    4.4750    1.2800   19.1800 C   0  0  0  0  0  0  0  0  0  0  0  0
    5.0880    1.3530   17.9280 C   0  0  0  0  0  0  0  0  0  0  0  0
    6.2620    0.6810   17.6970 N   0  0  0  0  0  0  0  0  0  0  0  0
    6.9390   -0.0930   18.6270 C   0  0  0  0  0  0  0  0  0  0  0  0
    9.3150   -0.9110   21.4560 N   0  0  0  0  0  0  0  0  0  0  0  0
   10.5080   -1.1430   21.9780 C   0  0  0  0  0  0  0  0  0  0  0  0
   11.6020   -1.9190   21.5280 C   0  0  0  0  0  0  0  0  0  0  0  0
   12.7940   -1.9750   22.2630 C   0  0  0  0  0  0  0  0  0  0  0  0
   12.9160   -1.2860   23.4540 C   0  0  0  0  0  0  0  0  0  0  0  0
   11.8150   -0.5830   23.8180 C   0  0  0  0  0  0  0  0  0  0  0  0
   10.6160   -0.4940   23.0890 C   0  0  0  0  0  0  0  0  0  0  0  0
    9.6650    0.1830   23.4760 O   0  0  0  0  0  0  0  0  0  0  0  0
    9.5560    0.2720   24.8830 C   0  0  0  0  0  0  0  0  0  0  0  0
   10.6350   -0.3900   25.5040 C   0  0  0  0  0  0  0  0  0  0  0  0
   11.8020    0.0520   24.8850 C   0  0  2  0  0  0  0  0  0  0  0  0
   11.7020    1.4020   24.4320 O   0  0  0  0  0  0  0  0  0  0  0  0
  1  2  2  0
  2  3  1  0
  3  4  1  0
  4  5  2  0
  5  6  1  0
  6  7  2  0
  7  8  1  0
  4  9  1  0
  8  9  2  0
  2 10  1  0
 10 11  1  0
 11 12  2  0
 12 13  1  0
 13 14  2  0
 14 15  1  0
 11 16  1  0
 15 16  2  0
 16 17  1  0
 17 18  1  0
 18 19  1  0
 15 20  1  0
 19 20  1  0
 20 21  1  6
M  END
