pyridine_urea_7890
     RDKit          3D

 33 34  0  0  0  0  0  0  0  0999 V2000
   12.2670    2.1380   22.8290 C   0  0  0  0  0  0  0  0  0  0  0  0
   10.7400    2.1610   22.8220 C   0  0  0  0  0  0  0  0  0  0  0  0
   10.2190    3.1420   22.0010 C   0  0  0  0  0  0  0  0  0  0  0  0
   10.2590    2.5710   24.2100 C   0  0  0  0  0  0  0  0  0  0  0  0
   10.2500    0.8220   22.5040 O   0  0  0  0  0  0  0  0  0  0  0  0
    9.4020    0.1880   23.3580 C   0  0  0  0  0  0  0  0  0  0  0  0
    9.0450    1.3080   23.6650 O   0  0  0  0  0  0  0  0  0  0  0  0
   10.0310   -0.9540   22.7760 C   0  0  2  0  0  0  0  0  0  0  0  0
   11.2990   -0.9090   22.1870 C   0  0  0  0  0  0  0  0  0  0  0  0
   12.5030   -1.3140   23.0230 C   0  0  0  0  0  0  0  0  0  0  0  0
   12.7300   -0.3920   24.0150 C   0  0  0  0  0  0  0  0  0  0  0  0
   11.5470    0.2350   24.3460 C   0  0  0  0  0  0  0  0  0  0  0  0
   10.8460   -0.4420   25.4250 N   0  0  0  0  0  0  0  0  0  0  0  0
    9.5290   -0.3190   25.8000 C   0  0  0  0  0  0  0  0  0  0  0  0
    8.5450   -0.9200   25.0720 O   0  0  0  0  0  0  0  0  0  0  0  0
    9.2190    0.3160   26.8020 O   0  0  0  0  0  0  0  0  0  0  0  0
    7.8190    0.1840   27.0650 C   0  0  0  0  0  0  0  0  0  0  0  0
    7.5580    0.4990   28.3990 C   0  0  0  0  0  0  0  0  0  0  0  0
    6.8600    1.6730   28.6910 C   0  0  0  0  0  0  0  0  0  0  0  0
    6.6040    1.9660   30.0300 C   0  0  0  0  0  0  0  0  0  0  0  0
    7.0390    1.1030   31.0240 C   0  0  0  0  0  0  0  0  0  0  0  0
    7.7330   -0.0640   30.7570 C   0  0  0  0  0  0  0  0  0  0  0  0
    7.9940   -0.3660   29.4190 C   0  0  0  0  0  0  0  0  0  0  0  0
    8.9810   -1.4770   21.9060 N   0  0  0  0  0  0  0  0  0  0  0  0
    8.2020   -0.3720   21.3430 C   0  0  0  0  0  0  0  0  0  0  0  0
    8.6440    0.7560   21.1760 O   0  0  0  0  0  0  0  0  0  0  0  0
    6.9510   -0.7710   21.0370 N   0  0  0  0  0  0  0  0  0  0  0  0
    6.3930   -0.0850   20.0160 C   0  0  0  0  0  0  0  0  0  0  0  0
    5.2080    0.6230   20.2190 C   0  0  0  0  0  0  0  0  0  0  0  0
    4.6010    1.3510   19.1990 C   0  0  0  0  0  0  0  0  0  0  0  0
    5.2230    1.3490   17.9590 C   0  0  0  0  0  0  0  0  0  0  0  0
    6.3670    0.6740   17.7280 N   0  0  0  0  0  0  0  0  0  0  0  0
    6.9220   -0.0230   18.7460 C   0  0  0  0  0  0  0  0  0  0  0  0
  1  2  1  0
  2  3  1  0
  2  4  1  0
  2  5  1  0
  5  6  1  0
  6  7  2  0
  6  8  1  0
  8  9  1  6
  9 10  1  0
 10 11  1  0
 11 12  1  0
 12 13  1  0
 13 14  1  0
 14 15  2  0
 14 16  1  0
 16 17  1  0
 17 18  1  0
 18 19  2  0
 19 20  1  0
 20 21  2  0
 21 22  1  0
 18 23  1  0
 22 23  2  0
  8 24  1  0
 24 25  1  0
 25 26  2  0
 25 27  1  0
 27 28  1  0
 28 29  2  0
 29 30  1  0
 30 31  2  0
 31 32  1  0
 28 33  1  0
 32 33  2  0
M  END
