pyridine_urea_8053
     RDKit          3D

 24 26  0  0  0  0  0  0  0  0999 V2000
   11.0780   -1.3190   22.1940 C   0  0  0  0  0  0  0  0  0  0  0  0
    9.7420   -1.8100   22.7550 C   0  0  2  0  0  0  0  0  0  0  0  0
    8.8440   -1.8280   21.6470 N   0  0  0  0  0  0  0  0  0  0  0  0
    8.2840   -0.5060   21.3950 C   0  0  0  0  0  0  0  0  0  0  0  0
    8.9400    0.5290   21.3630 O   0  0  0  0  0  0  0  0  0  0  0  0
    6.8140   -0.6640   21.1940 N   0  0  0  0  0  0  0  0  0  0  0  0
    6.2740    0.0430   20.0440 C   0  0  0  0  0  0  0  0  0  0  0  0
    4.9960    0.8720   20.2170 C   0  0  0  0  0  0  0  0  0  0  0  0
    4.4960    1.5510   19.1220 C   0  0  0  0  0  0  0  0  0  0  0  0
    5.2080    1.4670   17.7900 C   0  0  0  0  0  0  0  0  0  0  0  0
    6.3500    0.7070   17.6810 N   0  0  0  0  0  0  0  0  0  0  0  0
    6.8740    0.0050   18.7850 C   0  0  0  0  0  0  0  0  0  0  0  0
    9.0220   -0.9790   23.8470 C   0  0  0  0  0  0  0  0  0  0  0  0
    8.3050    0.2900   23.5420 N   0  0  0  0  0  0  0  0  0  0  0  0
    7.7520    0.7910   24.7150 N   0  0  0  0  0  0  0  0  0  0  0  0
    8.0210   -0.0230   25.8280 C   0  0  0  0  0  0  0  0  0  0  0  0
    7.6490    0.1200   27.3030 C   0  0  0  0  0  0  0  0  0  0  0  0
    7.7230    1.5320   27.8800 C   0  0  0  0  0  0  0  0  0  0  0  0
    7.4030    1.7270   29.2250 C   0  0  0  0  0  0  0  0  0  0  0  0
    7.0280    0.6150   30.0010 C   0  0  0  0  0  0  0  0  0  0  0  0
    6.9660   -0.6670   29.4540 C   0  0  0  0  0  0  0  0  0  0  0  0
    7.2650   -0.9370   28.1370 C   0  0  0  0  0  0  0  0  0  0  0  0
    7.1870   -2.1950   27.6700 F   0  0  0  0  0  0  0  0  0  0  0  0
    8.9630   -1.4710   25.4900 S   0  0  0  0  0  0  0  0  0  0  0  0
  2  1  1  6
  2  3  1  0
  3  4  1  0
  4  5  2  0
  4  6  1  0
  6  7  1  0
  7  8  2  0
  8  9  1  0
  9 10  2  0
 10 11  1  0
  7 12  1  0
 11 12  2  0
  2 13  1  0
 13 14  2  0
 14 15  1  0
 15 16  2  0
 16 17  1  0
 17 18  2  0
 18 19  1  0
 19 20  2  0
 20 21  1  0
 17 22  1  0
 21 22  2  0
 22 23  1  0
 13 24  1  0
 16 24  1  0
M  END
