pyridine_urea_4194
     RDKit          3D

 24 25  0  0  0  0  0  0  0  0999 V2000
    5.7450   -1.8150   26.5320 C   0  0  0  0  0  0  0  0  0  0  0  0
    6.3880   -0.6010   25.9180 C   0  0  0  0  0  0  0  0  0  0  0  0
    7.7720   -0.4840   25.9400 C   0  0  0  0  0  0  0  0  0  0  0  0
    8.4190    0.1020   27.0600 N   0  0  0  0  0  0  0  0  0  0  0  0
    9.7400    0.0570   26.8070 N   0  0  0  0  0  0  0  0  0  0  0  0
   10.0950   -0.5240   25.5660 C   0  0  0  0  0  0  0  0  0  0  0  0
   11.4610   -0.5980   25.2950 N   0  0  0  0  0  0  0  0  0  0  0  0
   12.0020   -1.0230   24.0730 C   0  0  0  0  0  0  0  0  0  0  0  0
   13.1820   -0.8690   23.8130 O   0  0  0  0  0  0  0  0  0  0  0  0
   11.1700   -1.6290   23.1680 C   0  0  2  0  0  0  0  0  0  0  0  0
   11.5130   -1.7540   21.8380 C   0  0  0  0  0  0  0  0  0  0  0  0
   10.4300   -0.7430   22.2250 C   0  0  2  0  0  0  0  0  0  0  0  0
   10.6570    0.5190   22.7680 C   0  0  0  0  0  0  0  0  0  0  0  0
    9.1130   -1.0630   22.1700 N   0  0  0  0  0  0  0  0  0  0  0  0
    8.2850   -0.2610   21.4830 C   0  0  0  0  0  0  0  0  0  0  0  0
    8.5560    1.0260   21.0940 O   0  0  0  0  0  0  0  0  0  0  0  0
    7.0700   -0.8050   21.1400 N   0  0  0  0  0  0  0  0  0  0  0  0
    6.3810   -0.0570   20.0980 C   0  0  0  0  0  0  0  0  0  0  0  0
    5.2050    0.6700   20.2920 C   0  0  0  0  0  0  0  0  0  0  0  0
    4.5630    1.3870   19.2940 C   0  0  0  0  0  0  0  0  0  0  0  0
    5.2300    1.3320   17.9600 C   0  0  0  0  0  0  0  0  0  0  0  0
    6.3750    0.6370   17.7080 N   0  0  0  0  0  0  0  0  0  0  0  0
    6.9290   -0.0610   18.8240 C   0  0  0  0  0  0  0  0  0  0  0  0
    8.7550   -1.0420   24.6450 S   0  0  0  0  0  0  0  0  0  0  0  0
  1  2  1  0
  2  3  1  0
  3  4  2  0
  4  5  1  0
  5  6  2  0
  6  7  1  0
  7  8  1  0
  8  9  2  0
  8 10  1  0
 10 11  1  6
 10 12  1  0
 12 13  1  1
 12 14  1  0
 14 15  1  0
 15 16  2  0
 15 17  1  0
 17 18  1  0
 18 19  2  0
 19 20  1  0
 20 21  2  0
 21 22  1  0
 18 23  1  0
 22 23  2  0
  3 24  1  0
  6 24  1  0
M  END
