pyridine_urea_7116
     RDKit          3D

 20 21  0  0  0  0  0  0  0  0999 V2000
    8.9300    1.0620   21.4470 O   0  0  0  0  0  0  0  0  0  0  0  0
    8.5720   -0.1050   21.4400 C   0  0  0  0  0  0  0  0  0  0  0  0
    9.4290   -1.1560   21.6580 N   0  0  0  0  0  0  0  0  0  0  0  0
   10.4790   -1.1020   22.5980 C   0  0  0  0  0  0  0  0  0  0  0  0
   11.7890   -1.4140   22.2470 C   0  0  0  0  0  0  0  0  0  0  0  0
   12.8210   -0.5670   22.7000 C   0  0  0  0  0  0  0  0  0  0  0  0
   12.5090    0.3170   23.7320 C   0  0  0  0  0  0  0  0  0  0  0  0
   11.1700    0.5230   24.0840 C   0  0  0  0  0  0  0  0  0  0  0  0
   10.2940    1.5210   23.3580 C   0  0  0  0  0  0  0  0  0  0  0  0
    8.9680    1.7710   23.6440 C   0  0  0  0  0  0  0  0  0  0  0  0
    8.3840    1.0470   24.6850 C   0  0  0  0  0  0  0  0  0  0  0  0
    9.1340    0.1090   25.4060 C   0  0  0  0  0  0  0  0  0  0  0  0
   10.4850   -0.1470   25.1190 C   0  0  0  0  0  0  0  0  0  0  0  0
    7.2890   -0.5070   21.1620 N   0  0  0  0  0  0  0  0  0  0  0  0
    6.6120    0.0530   20.0080 C   0  0  0  0  0  0  0  0  0  0  0  0
    5.4750    0.8000   20.3780 C   0  0  0  0  0  0  0  0  0  0  0  0
    4.7300    1.4280   19.3750 C   0  0  0  0  0  0  0  0  0  0  0  0
    5.1140    1.3090   18.0540 C   0  0  0  0  0  0  0  0  0  0  0  0
    6.2040    0.5790   17.6990 N   0  0  0  0  0  0  0  0  0  0  0  0
    6.9560   -0.0540   18.6840 C   0  0  0  0  0  0  0  0  0  0  0  0
  1  2  2  0
  2  3  1  0
  3  4  1  0
  4  5  1  0
  5  6  1  0
  6  7  1  0
  7  8  1  0
  8  9  2  0
  9 10  1  0
 10 11  2  0
 11 12  1  0
  8 13  1  0
 12 13  2  0
  2 14  1  0
 14 15  1  0
 15 16  2  0
 16 17  1  0
 17 18  2  0
 18 19  1  0
 15 20  1  0
 19 20  2  0
M  END
