pyridine_urea_14026
     RDKit          3D

 23 24  0  0  0  0  0  0  0  0999 V2000
    8.8760    2.1380   23.3960 C   0  0  0  0  0  0  0  0  0  0  0  0
    9.0480    0.7220   23.3520 O   0  0  0  0  0  0  0  0  0  0  0  0
   10.3480    0.2910   22.9410 C   0  0  0  0  0  0  0  0  0  0  0  0
   10.5890    1.4620   22.6740 O   0  0  0  0  0  0  0  0  0  0  0  0
    9.6380   -0.9900   23.3970 C   0  0  2  0  0  0  0  0  0  0  0  0
   10.2390   -2.2760   22.9040 C   0  0  0  0  0  0  0  0  0  0  0  0
   11.3670   -2.0740   22.2030 C   0  0  0  0  0  0  0  0  0  0  0  0
   12.4360   -2.2260   21.2340 C   0  0  0  0  0  0  0  0  0  0  0  0
   13.4290   -1.0250   21.4720 C   0  0  0  0  0  0  0  0  0  0  0  0
   13.3690    0.0990   22.4920 C   0  0  0  0  0  0  0  0  0  0  0  0
   14.1670    1.1270   22.6870 F   0  0  0  0  0  0  0  0  0  0  0  0
   12.1790   -0.1370   23.2850 C   0  0  0  0  0  0  0  0  0  0  0  0
   12.0410   -1.0320   22.5970 C   0  0  0  0  0  0  0  0  0  0  0  0
    8.2800   -0.8630   22.8520 N   0  0  0  0  0  0  0  0  0  0  0  0
    8.1430   -0.1130   21.5760 C   0  0  0  0  0  0  0  0  0  0  0  0
    8.9470    1.0220   21.1970 O   0  0  0  0  0  0  0  0  0  0  0  0
    7.1170   -0.6560   20.8570 N   0  0  0  0  0  0  0  0  0  0  0  0
    6.3640    0.0600   19.9280 C   0  0  0  0  0  0  0  0  0  0  0  0
    5.0690    0.6730   20.5200 C   0  0  0  0  0  0  0  0  0  0  0  0
    4.6020    1.3400   19.2340 C   0  0  0  0  0  0  0  0  0  0  0  0
    5.2180    1.3670   17.8830 C   0  0  0  0  0  0  0  0  0  0  0  0
    6.3360    0.7560   17.6240 N   0  0  0  0  0  0  0  0  0  0  0  0
    6.8620    0.1280   18.6490 C   0  0  0  0  0  0  0  0  0  0  0  0
  1  2  1  0
  2  3  1  0
  3  4  2  0
  3  5  1  0
  5  6  1  6
  6  7  1  0
  7  8  2  0
  8  9  1  0
  9 10  2  0
 10 11  1  0
 10 12  1  0
  7 13  1  0
 12 13  2  0
  5 14  1  0
 14 15  1  0
 15 16  2  0
 15 17  1  0
 17 18  1  0
 18 19  2  0
 19 20  1  0
 20 21  2  0
 21 22  1  0
 18 23  1  0
 22 23  2  0
M  END
