pyridine_urea_14145
     RDKit          3D

 23 24  0  0  0  0  0  0  0  0999 V2000
    8.8020    1.0560   21.2250 O   0  0  0  0  0  0  0  0  0  0  0  0
    8.0980    0.0940   21.5870 C   0  0  0  0  0  0  0  0  0  0  0  0
    8.2580   -0.6030   22.8440 N   0  0  0  0  0  0  0  0  0  0  0  0
    9.5300   -0.8300   23.2870 C   0  0  0  0  0  0  0  0  0  0  0  0
   10.4530    0.1570   22.9720 C   0  0  0  0  0  0  0  0  0  0  0  0
   11.7280   -0.0530   23.3790 N   0  0  0  0  0  0  0  0  0  0  0  0
   12.2000   -1.4030   23.7130 C   0  0  0  0  0  0  0  0  0  0  0  0
   12.5490   -1.9810   24.9870 O   0  0  0  0  0  0  0  0  0  0  0  0
   12.3410   -2.2160   22.5990 C   0  0  0  0  0  0  0  0  0  0  0  0
   11.3670   -2.2980   21.4900 C   0  0  0  0  0  0  0  0  0  0  0  0
   10.2250   -1.6090   21.4550 F   0  0  0  0  0  0  0  0  0  0  0  0
   11.8280   -3.2810   20.4070 C   0  0  0  0  0  0  0  0  0  0  0  0
   13.0420   -3.9990   20.4340 C   0  0  0  0  0  0  0  0  0  0  0  0
   13.7730   -3.8630   21.4470 C   0  0  0  0  0  0  0  0  0  0  0  0
   13.4400   -2.9920   22.5230 C   0  0  0  0  0  0  0  0  0  0  0  0
   14.2300   -2.8990   23.5660 F   0  0  0  0  0  0  0  0  0  0  0  0
    7.0560   -0.4820   20.9300 N   0  0  0  0  0  0  0  0  0  0  0  0
    6.4210    0.1230   19.9400 C   0  0  0  0  0  0  0  0  0  0  0  0
    5.2800    0.8510   20.2140 C   0  0  0  0  0  0  0  0  0  0  0  0
    4.6450    1.4900   19.1820 C   0  0  0  0  0  0  0  0  0  0  0  0
    5.1370    1.4060   17.8960 C   0  0  0  0  0  0  0  0  0  0  0  0
    6.2340    0.6950   17.6120 N   0  0  0  0  0  0  0  0  0  0  0  0
    6.8490    0.0730   18.6390 C   0  0  0  0  0  0  0  0  0  0  0  0
  1  2  2  0
  2  3  1  0
  3  4  1  0
  4  5  1  0
  5  6  1  0
  6  7  1  0
  7  8  2  0
  7  9  1  0
  9 10  2  0
 10 11  1  0
 10 12  1  0
 12 13  2  0
 13 14  1  0
  9 15  1  0
 14 15  2  0
 15 16  1  0
  2 17  1  0
 17 18  1  0
 18 19  2  0
 19 20  1  0
 20 21  2  0
 21 22  1  0
 18 23  1  0
 22 23  2  0
M  END
