pyridine_urea_924
     RDKit          3D

 22 24  0  0  0  0  0  0  0  0999 V2000
   13.6320   -3.5090   20.5680 C   0  0  0  0  0  0  0  0  0  0  0  0
   12.3060   -3.1340   20.3770 O   0  0  0  0  0  0  0  0  0  0  0  0
   12.1870   -2.1130   21.1790 C   0  0  0  0  0  0  0  0  0  0  0  0
   13.3200   -1.4280   21.4570 C   0  0  0  0  0  0  0  0  0  0  0  0
   13.3050   -0.3530   22.2820 C   0  0  0  0  0  0  0  0  0  0  0  0
   12.1300    0.0390   22.8070 C   0  0  0  0  0  0  0  0  0  0  0  0
   12.1770    1.2310   23.6700 C   0  0  0  0  0  0  0  0  0  0  0  0
   10.8170    1.5710   24.1720 C   0  0  0  0  0  0  0  0  0  0  0  0
    9.6300    0.7650   23.7990 C   0  0  0  0  0  0  0  0  0  0  0  0
    9.7400   -0.3040   22.9840 C   0  0  0  0  0  0  0  0  0  0  0  0
    8.5820   -0.9580   22.6340 N   0  0  0  0  0  0  0  0  0  0  0  0
    8.0070   -0.2900   21.5770 C   0  0  0  0  0  0  0  0  0  0  0  0
    8.5690    0.9550   21.1510 O   0  0  0  0  0  0  0  0  0  0  0  0
    6.9020   -0.8610   21.0080 N   0  0  0  0  0  0  0  0  0  0  0  0
    6.2530   -0.1370   20.0430 C   0  0  0  0  0  0  0  0  0  0  0  0
    5.0630    0.5480   20.2080 C   0  0  0  0  0  0  0  0  0  0  0  0
    4.5450    1.2500   19.1450 C   0  0  0  0  0  0  0  0  0  0  0  0
    5.1890    1.2810   17.9280 C   0  0  0  0  0  0  0  0  0  0  0  0
    6.3430    0.6220   17.7370 N   0  0  0  0  0  0  0  0  0  0  0  0
    6.8440   -0.0680   18.7910 C   0  0  0  0  0  0  0  0  0  0  0  0
   10.9620   -0.6630   22.5080 C   0  0  0  0  0  0  0  0  0  0  0  0
   10.9910   -1.7580   21.6930 C   0  0  0  0  0  0  0  0  0  0  0  0
  1  2  1  0
  2  3  1  0
  3  4  2  0
  4  5  1  0
  5  6  2  0
  6  7  1  0
  7  8  2  0
  8  9  1  0
  9 10  2  0
 10 11  1  0
 11 12  1  0
 12 13  2  0
 12 14  1  0
 14 15  1  0
 15 16  2  0
 16 17  1  0
 17 18  2  0
 18 19  1  0
 15 20  1  0
 19 20  2  0
  6 21  1  0
 10 21  1  0
  3 22  1  0
 21 22  2  0
M  END
