pyridine_urea_11170
     RDKit          3D

 18 18  0  0  0  0  0  0  0  0999 V2000
    6.7470   -6.8260   22.7250 C   0  0  0  0  0  0  0  0  0  0  0  0
    6.7550   -5.6520   22.0460 N   0  0  0  0  0  0  0  0  0  0  0  0
    5.5950   -5.3560   21.2270 C   0  0  0  0  0  0  0  0  0  0  0  0
    7.1620   -4.6590   23.0290 C   0  0  0  0  0  0  0  0  0  0  0  0
    7.9020   -4.9000   24.2220 O   0  0  0  0  0  0  0  0  0  0  0  0
    6.7610   -3.2550   22.7800 C   0  0  0  0  0  0  0  0  0  0  0  0
    7.6680   -2.3220   23.2320 C   0  0  0  0  0  0  0  0  0  0  0  0
    9.0970   -2.1240   22.6810 C   0  0  0  0  0  0  0  0  0  0  0  0
    9.2250   -0.7610   22.5510 N   0  0  0  0  0  0  0  0  0  0  0  0
    8.5770    0.0570   21.6000 C   0  0  0  0  0  0  0  0  0  0  0  0
    9.0770    1.3690   21.2560 O   0  0  0  0  0  0  0  0  0  0  0  0
    7.4420   -0.5270   21.0830 N   0  0  0  0  0  0  0  0  0  0  0  0
    6.6970    0.0680   20.0610 C   0  0  0  0  0  0  0  0  0  0  0  0
    5.4860    0.8860   20.3720 C   0  0  0  0  0  0  0  0  0  0  0  0
    4.7590    1.4970   19.3740 C   0  0  0  0  0  0  0  0  0  0  0  0
    5.1060    1.3890   18.0390 C   0  0  0  0  0  0  0  0  0  0  0  0
    6.2860    0.5800   17.6920 N   0  0  0  0  0  0  0  0  0  0  0  0
    6.9970   -0.0240   18.7220 C   0  0  0  0  0  0  0  0  0  0  0  0
  1  2  1  0
  2  3  1  0
  2  4  1  0
  4  5  2  0
  4  6  1  0
  6  7  1  0
  7  8  1  0
  8  9  1  0
  9 10  1  0
 10 11  2  0
 10 12  1  0
 12 13  1  0
 13 14  2  0
 14 15  1  0
 15 16  2  0
 16 17  1  0
 13 18  1  0
 17 18  2  0
M  END
