pyridine_urea_5364
     RDKit          3D

 19 20  0  0  0  0  0  0  0  0999 V2000
    8.9240    1.3130   21.2330 O   0  0  0  0  0  0  0  0  0  0  0  0
    8.2640    0.3420   21.6240 C   0  0  0  0  0  0  0  0  0  0  0  0
    8.3800   -0.2120   22.8710 N   0  0  0  0  0  0  0  0  0  0  0  0
    8.6660   -1.6130   22.8840 C   0  0  0  0  0  0  0  0  0  0  0  0
    9.8160   -1.9070   21.8820 C   0  0  0  0  0  0  0  0  0  0  0  0
   11.1020   -2.0600   22.5960 N   0  0  0  0  0  0  0  0  0  0  0  0
   11.9180   -0.8410   22.7490 C   0  0  0  0  0  0  0  0  0  0  0  0
   12.9850   -0.7800   23.8230 C   0  0  0  0  0  0  0  0  0  0  0  0
   13.1520   -1.8750   24.6440 C   0  0  0  0  0  0  0  0  0  0  0  0
   12.1420   -2.9860   24.6300 C   0  0  0  0  0  0  0  0  0  0  0  0
   10.9580   -2.8710   23.7000 C   0  0  0  0  0  0  0  0  0  0  0  0
    9.7920   -3.6130   24.0560 O   0  0  0  0  0  0  0  0  0  0  0  0
    7.3090   -0.3510   20.9270 N   0  0  0  0  0  0  0  0  0  0  0  0
    6.5280    0.2240   20.0190 C   0  0  0  0  0  0  0  0  0  0  0  0
    5.2350    0.9530   20.3080 C   0  0  0  0  0  0  0  0  0  0  0  0
    4.4660    1.5850   19.1730 C   0  0  0  0  0  0  0  0  0  0  0  0
    5.1410    1.3890   17.8250 C   0  0  0  0  0  0  0  0  0  0  0  0
    6.2910    0.7110   17.6650 N   0  0  0  0  0  0  0  0  0  0  0  0
    6.9270    0.1690   18.7060 C   0  0  0  0  0  0  0  0  0  0  0  0
  1  2  2  0
  2  3  1  0
  3  4  1  0
  4  5  1  0
  5  6  1  0
  6  7  1  0
  7  8  2  0
  8  9  1  0
  9 10  2  0
  6 11  1  0
 10 11  1  0
 11 12  2  0
  2 13  1  0
 13 14  1  0
 14 15  2  0
 15 16  1  0
 16 17  2  0
 17 18  1  0
 14 19  1  0
 18 19  2  0
M  END
