pyridine_urea_11945
     RDKit          3D

 24 25  0  0  0  0  0  0  0  0999 V2000
   11.1820    2.8880   22.8160 C   0  0  0  0  0  0  0  0  0  0  0  0
   10.3300    2.0550   22.4970 O   0  0  0  0  0  0  0  0  0  0  0  0
    9.7230    1.4330   23.5410 C   0  0  0  0  0  0  0  0  0  0  0  0
    8.8830    1.9390   24.2730 O   0  0  0  0  0  0  0  0  0  0  0  0
   10.1880    0.1170   23.6950 C   0  0  1  0  0  0  0  0  0  0  0  0
   10.0330   -0.7540   22.6290 C   0  0  0  0  0  0  0  0  0  0  0  0
    8.5970   -0.8950   22.4900 N   0  0  0  0  0  0  0  0  0  0  0  0
    7.9960   -0.2630   21.4670 C   0  0  0  0  0  0  0  0  0  0  0  0
    8.3590    0.8220   21.0240 O   0  0  0  0  0  0  0  0  0  0  0  0
    6.9310   -0.8630   20.9170 N   0  0  0  0  0  0  0  0  0  0  0  0
    6.2820   -0.1060   20.0140 C   0  0  0  0  0  0  0  0  0  0  0  0
    5.1060    0.6020   20.2500 C   0  0  0  0  0  0  0  0  0  0  0  0
    4.5330    1.4100   19.0990 C   0  0  0  0  0  0  0  0  0  0  0  0
    5.2100    1.3950   17.8830 C   0  0  0  0  0  0  0  0  0  0  0  0
    6.3420    0.6880   17.7080 N   0  0  0  0  0  0  0  0  0  0  0  0
    6.8360   -0.0250   18.7460 C   0  0  0  0  0  0  0  0  0  0  0  0
   11.4080    0.3920   24.3330 C   0  0  0  0  0  0  0  0  0  0  0  0
   12.5750    0.5500   23.6140 C   0  0  0  0  0  0  0  0  0  0  0  0
   12.4290   -0.4110   22.8880 C   0  0  0  0  0  0  0  0  0  0  0  0
   11.7220   -1.3850   22.5620 C   0  0  0  0  0  0  0  0  0  0  0  0
   12.1780   -2.0530   21.6370 C   0  0  0  0  0  0  0  0  0  0  0  0
   11.8360   -3.1390   20.9210 O   0  0  0  0  0  0  0  0  0  0  0  0
   13.3260   -1.1520   21.5820 C   0  0  0  0  0  0  0  0  0  0  0  0
   13.4990    0.0940   22.5370 C   0  0  0  0  0  0  0  0  0  0  0  0
  1  2  1  0
  2  3  1  0
  3  4  2  0
  3  5  1  0
  5  6  1  6
  6  7  1  0
  7  8  1  0
  8  9  2  0
  8 10  1  0
 10 11  1  0
 11 12  2  0
 12 13  1  0
 13 14  2  0
 14 15  1  0
 11 16  1  0
 15 16  2  0
  5 17  1  0
 17 18  1  0
 18 19  2  0
 19 20  1  0
 20 21  2  0
 21 22  1  0
 21 23  1  0
 18 24  1  0
 23 24  2  0
M  END
