pyridine_urea_5501
     RDKit          3D

 17 19  0  0  0  0  0  0  0  0999 V2000
    8.7120    0.8200   21.3450 O   0  0  0  0  0  0  0  0  0  0  0  0
    8.3430   -0.2940   21.6980 C   0  0  0  0  0  0  0  0  0  0  0  0
    7.2170   -0.8780   21.1380 N   0  0  0  0  0  0  0  0  0  0  0  0
    6.5150   -0.1380   20.0950 C   0  0  0  0  0  0  0  0  0  0  0  0
    5.1960    0.6430   20.4260 C   0  0  0  0  0  0  0  0  0  0  0  0
    4.5790    1.3360   19.3880 C   0  0  0  0  0  0  0  0  0  0  0  0
    5.2520    1.2710   18.0100 C   0  0  0  0  0  0  0  0  0  0  0  0
    6.3880    0.5790   17.7770 N   0  0  0  0  0  0  0  0  0  0  0  0
    6.9770   -0.0940   18.7930 C   0  0  0  0  0  0  0  0  0  0  0  0
    8.9500   -1.1020   22.6580 N   0  0  0  0  0  0  0  0  0  0  0  0
   10.3220   -0.7460   23.0610 C   0  0  2  0  0  0  0  0  0  0  0  0
   11.3350   -1.8440   22.5170 C   0  0  0  0  0  0  0  0  0  0  0  0
   12.6270   -1.0070   22.4880 C   0  0  0  0  0  0  0  0  0  0  0  0
   11.8320    0.0960   23.0280 C   0  0  2  0  0  0  0  0  0  0  0  0
   11.8790    0.5160   24.3780 C   0  0  0  0  0  0  0  0  0  0  0  0
   10.5540   -0.2590   24.4340 C   0  0  0  0  0  0  0  0  0  0  0  0
   10.6450    0.4620   22.4820 C   0  0  0  0  0  0  0  0  0  0  0  0
  1  2  2  0
  2  3  1  0
  3  4  1  0
  4  5  2  0
  5  6  1  0
  6  7  2  0
  7  8  1  0
  4  9  1  0
  8  9  2  0
  2 10  1  0
 11 10  1  1
 11 12  1  0
 12 13  1  0
 14 13  1  1
 14 15  1  0
 11 16  1  0
 15 16  1  0
 11 17  1  0
 14 17  1  0
M  END
