pyridine_urea_8819
     RDKit          3D

 20 21  0  0  0  0  0  0  0  0999 V2000
   13.0540   -1.8580   21.1460 C   0  0  0  0  0  0  0  0  0  0  0  0
   12.5420   -1.2370   22.4630 C   0  0  0  0  0  0  0  0  0  0  0  0
   11.1990   -1.7590   23.0120 C   0  0  0  0  0  0  0  0  0  0  0  0
   10.1550   -0.8570   23.1710 C   0  0  2  0  0  0  0  0  0  0  0  0
    8.9290   -1.1590   22.4290 N   0  0  0  0  0  0  0  0  0  0  0  0
    8.3590   -0.2790   21.5280 C   0  0  0  0  0  0  0  0  0  0  0  0
    8.8720    0.7720   21.2100 O   0  0  0  0  0  0  0  0  0  0  0  0
    7.1530   -0.7250   21.0420 N   0  0  0  0  0  0  0  0  0  0  0  0
    6.4150   -0.0230   20.0740 C   0  0  0  0  0  0  0  0  0  0  0  0
    5.2300    0.6840   20.3080 C   0  0  0  0  0  0  0  0  0  0  0  0
    4.6150    1.3490   19.2400 C   0  0  0  0  0  0  0  0  0  0  0  0
    5.2130    1.2730   18.0090 C   0  0  0  0  0  0  0  0  0  0  0  0
    6.3400    0.6040   17.7410 N   0  0  0  0  0  0  0  0  0  0  0  0
    6.9110   -0.0270   18.7770 C   0  0  0  0  0  0  0  0  0  0  0  0
   10.5010    0.4730   22.9500 C   0  0  0  0  0  0  0  0  0  0  0  0
   10.0490    1.8500   22.5850 C   0  0  0  0  0  0  0  0  0  0  0  0
   11.1330    2.9060   22.5320 C   0  0  0  0  0  0  0  0  0  0  0  0
   12.6420    2.6290   22.8330 C   0  0  0  0  0  0  0  0  0  0  0  0
   12.8570    1.3010   23.1470 C   0  0  0  0  0  0  0  0  0  0  0  0
   11.5470    1.1280   22.9790 C   0  0  0  0  0  0  0  0  0  0  0  0
  1  2  2  3
  2  3  1  0
  4  3  1  6
  4  5  1  0
  5  6  1  0
  6  7  2  0
  6  8  1  0
  8  9  1  0
  9 10  2  0
 10 11  1  0
 11 12  2  0
 12 13  1  0
  9 14  1  0
 13 14  2  0
  4 15  1  0
 15 16  2  0
 16 17  1  0
 17 18  2  0
 18 19  1  0
 15 20  1  0
 19 20  2  0
M  END
