pyridine_urea_4988
     RDKit          3D

 21 22  0  0  0  0  0  0  0  0999 V2000
   13.6900   -2.9390   25.2300 C   0  0  0  0  0  0  0  0  0  0  0  0
   12.4020   -2.4120   24.7370 C   0  0  1  0  0  0  0  0  0  0  0  0
   12.2220   -1.0490   24.9410 C   0  0  0  0  0  0  0  0  0  0  0  0
   12.4890   -0.2220   23.7790 N   0  0  0  0  0  0  0  0  0  0  0  0
   11.7120    0.8950   23.6250 C   0  0  0  0  0  0  0  0  0  0  0  0
   10.3780    0.6360   23.8390 C   0  0  1  0  0  0  0  0  0  0  0  0
    9.6190    1.5790   23.6650 O   0  0  0  0  0  0  0  0  0  0  0  0
   10.0240   -0.6200   23.0370 C   0  0  0  0  0  0  0  0  0  0  0  0
    8.7230   -0.5870   22.5900 N   0  0  0  0  0  0  0  0  0  0  0  0
    8.2330    0.1010   21.4670 C   0  0  0  0  0  0  0  0  0  0  0  0
    8.7210    1.1780   21.0870 O   0  0  0  0  0  0  0  0  0  0  0  0
    7.1980   -0.5820   20.9400 N   0  0  0  0  0  0  0  0  0  0  0  0
    6.4640    0.0780   20.0220 C   0  0  0  0  0  0  0  0  0  0  0  0
    5.2870    0.7870   20.2610 C   0  0  0  0  0  0  0  0  0  0  0  0
    4.6520    1.4250   19.2150 C   0  0  0  0  0  0  0  0  0  0  0  0
    5.1920    1.3530   17.9430 C   0  0  0  0  0  0  0  0  0  0  0  0
    6.3210    0.6700   17.6890 N   0  0  0  0  0  0  0  0  0  0  0  0
    6.9210    0.0540   18.7260 C   0  0  0  0  0  0  0  0  0  0  0  0
   12.7590   -0.8220   22.4670 C   0  0  0  0  0  0  0  0  0  0  0  0
   13.0540   -2.1500   22.5720 C   0  0  0  0  0  0  0  0  0  0  0  0
   12.1380   -2.7410   23.4530 O   0  0  0  0  0  0  0  0  0  0  0  0
  2  1  1  6
  2  3  1  0
  3  4  1  0
  4  5  1  0
  5  6  1  0
  6  7  1  6
  6  8  1  0
  8  9  1  0
  9 10  1  0
 10 11  2  0
 10 12  1  0
 12 13  1  0
 13 14  2  0
 14 15  1  0
 15 16  2  0
 16 17  1  0
 13 18  1  0
 17 18  2  0
  4 19  1  0
 19 20  1  0
  2 21  1  0
 20 21  1  0
M  END
