pyridine_urea_14030
     RDKit          3D

 23 25  0  0  0  0  0  0  0  0999 V2000
    8.9520    0.6590   21.4700 O   0  0  0  0  0  0  0  0  0  0  0  0
    8.3980   -0.4130   21.6810 C   0  0  0  0  0  0  0  0  0  0  0  0
    8.8700   -1.3850   22.5640 N   0  0  0  0  0  0  0  0  0  0  0  0
    9.7270   -1.0580   23.7110 C   0  0  0  0  0  0  0  0  0  0  0  0
   11.2110   -1.2350   23.3970 C   0  0  0  0  0  0  0  0  0  0  0  0
   12.0080   -2.1630   24.3080 C   0  0  0  0  0  0  0  0  0  0  0  0
   13.2020   -2.6800   23.7390 C   0  0  0  0  0  0  0  0  0  0  0  0
   13.2710   -2.8070   22.3830 N   0  0  0  0  0  0  0  0  0  0  0  0
   13.7190   -3.7050   21.4150 C   0  0  0  0  0  0  0  0  0  0  0  0
   15.0110   -4.6710   21.3100 C   0  0  0  0  0  0  0  0  0  0  0  0
   15.4430   -5.3650   20.4150 C   0  0  0  0  0  0  0  0  0  0  0  0
   14.5240   -5.1720   19.5230 C   0  0  0  0  0  0  0  0  0  0  0  0
   13.3540   -4.4460   19.5030 C   0  0  0  0  0  0  0  0  0  0  0  0
   12.9260   -3.6900   20.4150 C   0  0  0  0  0  0  0  0  0  0  0  0
   12.8020   -1.6560   21.7800 C   0  0  0  0  0  0  0  0  0  0  0  0
   11.3350   -1.6250   21.9240 C   0  0  0  0  0  0  0  0  0  0  0  0
    7.2130   -0.7890   21.0610 N   0  0  0  0  0  0  0  0  0  0  0  0
    6.5160   -0.0880   20.1190 C   0  0  0  0  0  0  0  0  0  0  0  0
    5.2850    0.7440   20.3580 C   0  0  0  0  0  0  0  0  0  0  0  0
    4.6730    1.4170   19.2980 C   0  0  0  0  0  0  0  0  0  0  0  0
    5.2460    1.2800   18.0430 C   0  0  0  0  0  0  0  0  0  0  0  0
    6.3470    0.5440   17.7760 N   0  0  0  0  0  0  0  0  0  0  0  0
    6.9440   -0.1140   18.8000 C   0  0  0  0  0  0  0  0  0  0  0  0
  1  2  2  0
  2  3  1  0
  3  4  1  0
  4  5  1  0
  5  6  1  0
  6  7  1  0
  7  8  1  0
  8  9  1  0
  9 10  2  0
 10 11  1  0
 11 12  2  0
 12 13  1  0
  9 14  1  0
 13 14  2  0
  8 15  1  0
  5 16  1  0
 15 16  1  0
  2 17  1  0
 17 18  1  0
 18 19  2  0
 19 20  1  0
 20 21  2  0
 21 22  1  0
 18 23  1  0
 22 23  2  0
M  END
