pyridine_urea_13289
     RDKit          3D

 18 19  0  0  0  0  0  0  0  0999 V2000
    8.8250    1.1620   21.1320 O   0  0  0  0  0  0  0  0  0  0  0  0
    8.3870    0.0460   21.4470 C   0  0  0  0  0  0  0  0  0  0  0  0
    7.2070   -0.5020   21.0280 N   0  0  0  0  0  0  0  0  0  0  0  0
    6.4900    0.0960   19.9960 C   0  0  0  0  0  0  0  0  0  0  0  0
    5.3270    0.8050   20.2920 C   0  0  0  0  0  0  0  0  0  0  0  0
    4.6220    1.4240   19.2610 C   0  0  0  0  0  0  0  0  0  0  0  0
    5.1170    1.3030   17.9800 C   0  0  0  0  0  0  0  0  0  0  0  0
    6.2250    0.6170   17.6760 N   0  0  0  0  0  0  0  0  0  0  0  0
    6.8850    0.0300   18.6850 C   0  0  0  0  0  0  0  0  0  0  0  0
    9.0950   -0.7850   22.2810 N   0  0  0  0  0  0  0  0  0  0  0  0
   10.3580   -0.2300   22.6960 C   0  0  2  0  0  0  0  0  0  0  0  0
   11.4920   -1.2400   22.4190 C   0  0  0  0  0  0  0  0  0  0  0  0
   12.7210   -0.7260   22.7770 C   0  0  0  0  0  0  0  0  0  0  0  0
   12.7860    0.0010   23.7390 O   0  0  0  0  0  0  0  0  0  0  0  0
   11.7660    0.9110   23.6430 C   0  0  0  0  0  0  0  0  0  0  0  0
   10.4460    0.4910   23.9020 C   0  0  2  0  0  0  0  0  0  0  0  0
   10.1810   -0.2330   25.0760 C   0  0  0  0  0  0  0  0  0  0  0  0
    9.5400   -1.3930   24.7560 O   0  0  0  0  0  0  0  0  0  0  0  0
  1  2  2  0
  2  3  1  0
  3  4  1  0
  4  5  2  0
  5  6  1  0
  6  7  2  0
  7  8  1  0
  4  9  1  0
  8  9  2  0
  2 10  1  0
 11 10  1  1
 11 12  1  0
 12 13  1  0
 13 14  1  0
 14 15  1  0
 11 16  1  0
 15 16  1  0
 16 17  1  1
 17 18  1  0
M  END
