pyridine_urea_1647
     RDKit          3D

 19 19  0  0  0  0  0  0  0  0999 V2000
    8.8740    1.0370   21.3770 O   0  0  0  0  0  0  0  0  0  0  0  0
    8.5360   -0.1390   21.3720 C   0  0  0  0  0  0  0  0  0  0  0  0
    9.3420   -1.2000   21.6500 N   0  0  0  0  0  0  0  0  0  0  0  0
    9.8990   -1.5290   22.8960 C   0  0  0  0  0  0  0  0  0  0  0  0
    9.1710   -1.1370   24.0320 C   0  0  0  0  0  0  0  0  0  0  0  0
    8.1230   -1.9440   24.4420 N   0  0  0  0  0  0  0  0  0  0  0  0
    6.8290   -1.4030   25.4010 S   0  0  0  0  0  0  0  0  0  0  0  0
    6.5560   -2.4710   26.3400 O   0  0  0  0  0  0  0  0  0  0  0  0
    5.8330   -0.9610   24.4500 O   0  0  0  0  0  0  0  0  0  0  0  0
    7.3870    0.0200   26.3200 C   0  0  0  0  0  0  0  0  0  0  0  0
    7.6980   -0.2800   27.5940 F   0  0  0  0  0  0  0  0  0  0  0  0
    6.4270    0.9910   26.3830 F   0  0  0  0  0  0  0  0  0  0  0  0
    7.2610   -0.5220   21.0340 N   0  0  0  0  0  0  0  0  0  0  0  0
    6.4630    0.1260   20.0790 C   0  0  0  0  0  0  0  0  0  0  0  0
    5.2720    0.8070   20.3640 C   0  0  0  0  0  0  0  0  0  0  0  0
    4.5820    1.4250   19.3290 C   0  0  0  0  0  0  0  0  0  0  0  0
    5.1930    1.3110   17.9340 C   0  0  0  0  0  0  0  0  0  0  0  0
    6.3350    0.6380   17.7090 N   0  0  0  0  0  0  0  0  0  0  0  0
    6.9150    0.0790   18.7680 C   0  0  0  0  0  0  0  0  0  0  0  0
  1  2  2  0
  2  3  1  0
  3  4  1  0
  4  5  1  0
  5  6  1  0
  7  6  1  0
  7  8  2  0
  7  9  2  0
  7 10  1  0
 10 11  1  0
 10 12  1  0
  2 13  1  0
 13 14  1  0
 14 15  2  0
 15 16  1  0
 16 17  2  0
 17 18  1  0
 14 19  1  0
 18 19  2  0
M  END
