pyridine_urea_628
     RDKit          3D

 24 25  0  0  0  0  0  0  0  0999 V2000
   13.1610   -2.5980   22.3000 C   0  0  0  0  0  0  0  0  0  0  0  0
   13.2210   -2.3130   23.7810 C   0  0  0  0  0  0  0  0  0  0  0  0
   12.3530   -2.9300   24.6460 C   0  0  0  0  0  0  0  0  0  0  0  0
   12.9890   -0.8350   23.9350 C   0  0  0  0  0  0  0  0  0  0  0  0
   12.3820   -0.3860   22.9700 O   0  0  0  0  0  0  0  0  0  0  0  0
   11.4860    0.5590   23.2920 C   0  0  0  0  0  0  0  0  0  0  0  0
   12.7660    1.0810   23.3910 C   0  0  0  0  0  0  0  0  0  0  0  0
   11.4400    1.4670   23.5760 C   0  0  0  0  0  0  0  0  0  0  0  0
   10.4000    0.4410   23.2890 C   0  0  0  0  0  0  0  0  0  0  0  0
   10.2410   -0.9060   22.8560 C   0  0  0  0  0  0  0  0  0  0  0  0
   11.3210   -1.4400   22.1740 C   0  0  0  0  0  0  0  0  0  0  0  0
    9.7990   -1.7270   23.9070 C   0  0  0  0  0  0  0  0  0  0  0  0
    9.2700   -1.1200   21.8510 N   0  0  0  0  0  0  0  0  0  0  0  0
    8.4370   -0.1060   21.4580 C   0  0  0  0  0  0  0  0  0  0  0  0
    8.8050    1.0580   21.3950 O   0  0  0  0  0  0  0  0  0  0  0  0
    7.1820   -0.5660   21.1200 N   0  0  0  0  0  0  0  0  0  0  0  0
    6.4760    0.0730   20.0330 C   0  0  0  0  0  0  0  0  0  0  0  0
    5.3250    0.8080   20.2690 C   0  0  0  0  0  0  0  0  0  0  0  0
    4.6450    1.4460   19.2450 C   0  0  0  0  0  0  0  0  0  0  0  0
    5.1330    1.3440   17.9530 C   0  0  0  0  0  0  0  0  0  0  0  0
    6.2410    0.6320   17.6750 N   0  0  0  0  0  0  0  0  0  0  0  0
    6.8660    0.0290   18.7120 C   0  0  0  0  0  0  0  0  0  0  0  0
    9.6620    1.3300   23.6080 C   0  0  0  0  0  0  0  0  0  0  0  0
   10.8820    1.9830   23.7510 C   0  0  0  0  0  0  0  0  0  0  0  0
  1  2  1  0
  2  3  1  0
  2  4  1  0
  4  5  1  0
  5  6  1  0
  6  7  2  0
  7  8  1  0
  8  9  2  0
  9 10  1  0
 10 11  1  0
 10 12  1  0
 10 13  1  0
 13 14  1  0
 14 15  2  0
 14 16  1  0
 16 17  1  0
 17 18  2  0
 18 19  1  0
 19 20  2  0
 20 21  1  0
 17 22  1  0
 21 22  2  0
  9 23  1  0
  6 24  1  0
 23 24  2  0
M  END
