pyridine_urea_2999
     RDKit          3D

 21 22  0  0  0  0  0  0  0  0999 V2000
    8.8790    1.2490   21.1480 O   0  0  0  0  0  0  0  0  0  0  0  0
    8.5390    0.0920   21.4350 C   0  0  0  0  0  0  0  0  0  0  0  0
    9.2920   -0.6770   22.2980 N   0  0  0  0  0  0  0  0  0  0  0  0
   10.4440    0.0190   22.8600 C   0  0  0  0  0  0  0  0  0  0  0  0
   11.6970   -0.8370   23.3290 C   0  0  0  0  0  0  0  0  0  0  0  0
   12.8360   -0.7750   22.5540 C   0  0  0  0  0  0  0  0  0  0  0  0
   12.7660    0.6190   23.1120 C   0  0  0  0  0  0  0  0  0  0  0  0
   11.7020    0.8350   23.9690 C   0  0  0  0  0  0  0  0  0  0  0  0
   10.7370   -0.3620   24.2490 C   0  0  0  0  0  0  0  0  0  0  0  0
    9.5540   -0.1470   25.2070 C   0  0  0  0  0  0  0  0  0  0  0  0
    8.5090   -0.9850   24.9510 F   0  0  0  0  0  0  0  0  0  0  0  0
    9.0180    1.1060   25.1150 F   0  0  0  0  0  0  0  0  0  0  0  0
   11.0470   -1.7160   23.5270 C   0  0  0  0  0  0  0  0  0  0  0  0
   12.1370   -2.0030   22.6160 N   0  0  0  0  0  0  0  0  0  0  0  0
    7.4100   -0.5440   20.9710 N   0  0  0  0  0  0  0  0  0  0  0  0
    6.5580    0.0820   20.0590 C   0  0  0  0  0  0  0  0  0  0  0  0
    5.2550    0.7980   20.4070 C   0  0  0  0  0  0  0  0  0  0  0  0
    4.5590    1.4080   19.2010 C   0  0  0  0  0  0  0  0  0  0  0  0
    5.1320    1.2710   17.9490 C   0  0  0  0  0  0  0  0  0  0  0  0
    6.2770    0.6180   17.7080 N   0  0  0  0  0  0  0  0  0  0  0  0
    6.9380    0.0560   18.7340 C   0  0  0  0  0  0  0  0  0  0  0  0
  1  2  2  0
  2  3  1  0
  3  4  1  0
  4  5  1  0
  5  6  1  0
  6  7  2  0
  7  8  1  0
  8  9  2  0
  9 10  1  0
 10 11  1  0
 10 12  1  0
  9 13  1  0
  6 14  1  0
 13 14  2  0
  2 15  1  0
 15 16  1  0
 16 17  2  0
 17 18  1  0
 18 19  2  0
 19 20  1  0
 16 21  1  0
 20 21  2  0
M  END
