pyridine_urea_15185
     RDKit          3D

 16 16  0  0  0  0  0  0  0  0999 V2000
   12.4620    1.3230   23.3570 C   0  0  0  0  0  0  0  0  0  0  0  0
   12.1970   -0.1610   23.5520 C   0  0  0  0  0  0  0  0  0  0  0  0
   12.6300   -0.7920   24.8650 C   0  0  0  0  0  0  0  0  0  0  0  0
   12.9830   -0.8530   22.4610 C   0  0  0  0  0  0  0  0  0  0  0  0
   10.6810   -0.3200   23.4550 C   0  0  0  0  0  0  0  0  0  0  0  0
   10.1710   -1.4300   22.5720 C   0  0  0  0  0  0  0  0  0  0  0  0
    8.7360   -1.2700   22.4180 N   0  0  0  0  0  0  0  0  0  0  0  0
    8.2480   -0.3270   21.5500 C   0  0  0  0  0  0  0  0  0  0  0  0
    8.8040    0.7370   21.3180 O   0  0  0  0  0  0  0  0  0  0  0  0
    6.9880   -0.7970   20.9910 N   0  0  0  0  0  0  0  0  0  0  0  0
    6.3300   -0.0400   20.0100 C   0  0  0  0  0  0  0  0  0  0  0  0
    5.1510    0.6790   20.2140 C   0  0  0  0  0  0  0  0  0  0  0  0
    4.6110    1.3880   19.1530 C   0  0  0  0  0  0  0  0  0  0  0  0
    5.2480    1.3690   17.9250 C   0  0  0  0  0  0  0  0  0  0  0  0
    6.3800    0.6810   17.7150 N   0  0  0  0  0  0  0  0  0  0  0  0
    6.8900   -0.0030   18.7530 C   0  0  0  0  0  0  0  0  0  0  0  0
  2  1  1  0
  2  3  1  0
  2  4  1  0
  2  5  1  0
  5  6  1  0
  6  7  1  0
  7  8  1  0
  8  9  2  0
  8 10  1  0
 10 11  1  0
 11 12  2  0
 12 13  1  0
 13 14  2  0
 14 15  1  0
 11 16  1  0
 15 16  2  0
M  END
