pyridine_urea_14934
     RDKit          3D

 19 20  0  0  0  0  0  0  0  0999 V2000
   13.4500   -0.1990   22.6330 C   0  0  0  0  0  0  0  0  0  0  0  0
   11.9800   -0.2650   22.9030 C   0  0  0  0  0  0  0  0  0  0  0  0
   11.4840   -1.6680   23.1840 C   0  0  0  0  0  0  0  0  0  0  0  0
   10.0280   -1.8390   23.4760 C   0  0  0  0  0  0  0  0  0  0  0  0
    9.3440   -3.1560   23.7630 C   0  0  0  0  0  0  0  0  0  0  0  0
    9.2560   -0.6030   23.4640 N   0  0  0  0  0  0  0  0  0  0  0  0
    9.8390    0.6010   23.1680 C   0  0  0  0  0  0  0  0  0  0  0  0
    8.8110    1.6990   23.1490 C   0  0  0  0  0  0  0  0  0  0  0  0
    7.7030    0.9410   22.5710 N   0  0  0  0  0  0  0  0  0  0  0  0
    7.9920   -0.0220   21.5770 C   0  0  0  0  0  0  0  0  0  0  0  0
    9.1280   -0.2490   21.2220 O   0  0  0  0  0  0  0  0  0  0  0  0
    6.8670   -0.6020   21.1140 N   0  0  0  0  0  0  0  0  0  0  0  0
    6.3510    0.0100   20.0290 C   0  0  0  0  0  0  0  0  0  0  0  0
    5.2110    0.7770   20.2400 C   0  0  0  0  0  0  0  0  0  0  0  0
    4.6120    1.4540   19.2020 C   0  0  0  0  0  0  0  0  0  0  0  0
    5.1820    1.3390   17.9660 C   0  0  0  0  0  0  0  0  0  0  0  0
    6.2890    0.6050   17.6810 N   0  0  0  0  0  0  0  0  0  0  0  0
    6.9440   -0.1250   18.7710 C   0  0  0  0  0  0  0  0  0  0  0  0
   11.1340    0.8240   22.9000 N   0  0  0  0  0  0  0  0  0  0  0  0
  1  2  1  0
  2  3  2  0
  3  4  1  0
  4  5  1  0
  4  6  2  0
  6  7  1  0
  7  8  1  0
  8  9  1  0
  9 10  1  0
 10 11  2  0
 10 12  1  0
 12 13  1  0
 13 14  2  0
 14 15  1  0
 15 16  2  0
 16 17  1  0
 13 18  1  0
 17 18  2  0
  2 19  1  0
  7 19  2  0
M  END
