pyridine_urea_12470
     RDKit          3D

 22 24  0  0  0  0  0  0  0  0999 V2000
    9.0510    1.4020   21.2550 O   0  0  0  0  0  0  0  0  0  0  0  0
    8.8180    0.2100   21.4670 C   0  0  0  0  0  0  0  0  0  0  0  0
    9.7370   -0.6160   22.1340 N   0  0  0  0  0  0  0  0  0  0  0  0
   10.7760   -0.0380   23.0380 C   0  0  0  0  0  0  0  0  0  0  0  0
   10.1320    1.1580   23.7570 C   0  0  0  0  0  0  0  0  0  0  0  0
   11.3610    1.7250   23.5020 C   0  0  0  0  0  0  0  0  0  0  0  0
   11.5990    3.0230   23.8280 O   0  0  0  0  0  0  0  0  0  0  0  0
   12.3620    0.7660   22.8470 C   0  0  0  0  0  0  0  0  0  0  0  0
   11.9580   -0.5510   22.5490 C   0  0  0  0  0  0  0  0  0  0  0  0
   10.5030   -1.0710   22.8740 C   0  0  0  0  0  0  0  0  0  0  0  0
   10.1190   -2.4980   22.5250 C   0  0  0  0  0  0  0  0  0  0  0  0
    8.6950   -2.9810   22.8730 C   0  0  0  0  0  0  0  0  0  0  0  0
    7.6880   -2.0350   23.5620 C   0  0  0  0  0  0  0  0  0  0  0  0
    8.1150   -0.6070   23.8930 C   0  0  0  0  0  0  0  0  0  0  0  0
    9.5250   -0.2320   23.5070 C   0  0  0  0  0  0  0  0  0  0  0  0
    7.6550   -0.4330   21.0750 N   0  0  0  0  0  0  0  0  0  0  0  0
    6.7030    0.1390   20.1070 C   0  0  0  0  0  0  0  0  0  0  0  0
    5.5300    0.8390   20.4220 C   0  0  0  0  0  0  0  0  0  0  0  0
    4.7340    1.3460   19.3980 C   0  0  0  0  0  0  0  0  0  0  0  0
    5.1340    1.1370   18.1000 C   0  0  0  0  0  0  0  0  0  0  0  0
    6.2400    0.4680   17.7600 N   0  0  0  0  0  0  0  0  0  0  0  0
    6.9910   -0.0140   18.7660 C   0  0  0  0  0  0  0  0  0  0  0  0
  1  2  2  0
  2  3  1  0
  3  4  1  0
  4  5  1  0
  5  6  2  0
  6  7  1  0
  6  8  1  0
  8  9  2  0
  9 10  1  0
 10 11  1  0
 11 12  2  0
 12 13  1  0
 13 14  2  0
  5 15  1  0
 10 15  2  0
 14 15  1  0
  2 16  1  0
 16 17  1  0
 17 18  2  0
 18 19  1  0
 19 20  2  0
 20 21  1  0
 17 22  1  0
 21 22  2  0
M  END
