pyridine_urea_1977
     RDKit          3D

 17 17  0  0  0  0  0  0  0  0999 V2000
   10.4250   -1.0350   24.3570 C   0  0  0  0  0  0  0  0  0  0  0  0
   10.0690   -1.6540   23.0240 C   0  0  2  0  0  0  0  0  0  0  0  0
   11.1200   -1.1420   22.0710 C   0  0  0  0  0  0  0  0  0  0  0  0
   12.7460   -1.7170   22.4690 S   0  0  0  0  0  0  0  0  0  0  0  0
   13.0930   -2.6070   21.0960 N   0  0  0  0  0  0  0  0  0  0  0  0
   13.6350   -0.5870   22.4570 O   0  0  0  0  0  0  0  0  0  0  0  0
   12.6850   -2.6530   23.5720 O   0  0  0  0  0  0  0  0  0  0  0  0
    8.6870   -1.2060   22.6970 N   0  0  0  0  0  0  0  0  0  0  0  0
    8.3650   -0.3100   21.6610 C   0  0  0  0  0  0  0  0  0  0  0  0
    9.0230    0.6850   21.3950 O   0  0  0  0  0  0  0  0  0  0  0  0
    7.2070   -0.7220   21.0390 N   0  0  0  0  0  0  0  0  0  0  0  0
    6.4970   -0.0160   20.0590 C   0  0  0  0  0  0  0  0  0  0  0  0
    5.3360    0.7340   20.2600 C   0  0  0  0  0  0  0  0  0  0  0  0
    4.6830    1.4230   19.2380 C   0  0  0  0  0  0  0  0  0  0  0  0
    5.2160    1.3610   17.9580 C   0  0  0  0  0  0  0  0  0  0  0  0
    6.3380    0.6380   17.7200 N   0  0  0  0  0  0  0  0  0  0  0  0
    6.9750   -0.0490   18.7580 C   0  0  0  0  0  0  0  0  0  0  0  0
  2  1  1  1
  2  3  1  0
  3  4  1  0
  4  5  1  0
  4  6  2  0
  4  7  2  0
  2  8  1  0
  8  9  1  0
  9 10  2  0
  9 11  1  0
 11 12  1  0
 12 13  2  0
 13 14  1  0
 14 15  2  0
 15 16  1  0
 12 17  1  0
 16 17  2  0
M  END
