pyridine_urea_3618
     RDKit          3D

 17 19  0  0  0  0  0  0  0  0999 V2000
    8.6960    0.8790   21.2380 O   0  0  0  0  0  0  0  0  0  0  0  0
    8.2110   -0.1830   21.6060 C   0  0  0  0  0  0  0  0  0  0  0  0
    7.1130   -0.7810   21.0370 N   0  0  0  0  0  0  0  0  0  0  0  0
    6.4580   -0.0530   19.9950 C   0  0  0  0  0  0  0  0  0  0  0  0
    5.1880    0.7070   20.3580 C   0  0  0  0  0  0  0  0  0  0  0  0
    4.5020    1.4950   19.2460 C   0  0  0  0  0  0  0  0  0  0  0  0
    5.1820    1.4290   17.8790 C   0  0  0  0  0  0  0  0  0  0  0  0
    6.3510    0.6740   17.7180 N   0  0  0  0  0  0  0  0  0  0  0  0
    6.9500   -0.0280   18.7190 C   0  0  0  0  0  0  0  0  0  0  0  0
    8.6820   -0.9290   22.6520 N   0  0  0  0  0  0  0  0  0  0  0  0
   10.0440   -0.9090   22.9690 C   0  0  0  0  0  0  0  0  0  0  0  0
   10.8280    0.1800   22.8980 C   0  0  0  0  0  0  0  0  0  0  0  0
   12.1410   -0.1060   23.2420 C   0  0  0  0  0  0  0  0  0  0  0  0
   13.0210    0.5230   22.6880 C   0  0  0  0  0  0  0  0  0  0  0  0
   13.1380   -0.8520   22.2600 C   0  0  0  0  0  0  0  0  0  0  0  0
   10.8630   -2.2820   22.7470 C   0  0  0  0  0  0  0  0  0  0  0  0
   10.4510   -1.7810   23.9460 C   0  0  0  0  0  0  0  0  0  0  0  0
  1  2  2  0
  2  3  1  0
  3  4  1  0
  4  5  2  0
  5  6  1  0
  6  7  2  0
  7  8  1  0
  4  9  1  0
  8  9  2  0
  2 10  1  0
 11 10  1  0
 11 12  1  0
 12 13  1  0
 13 14  1  0
 13 15  1  0
 14 15  1  0
 11 16  1  0
 11 17  1  0
 16 17  1  0
M  END
