pyridine_urea_3584
     RDKit          3D

 17 18  0  0  0  0  0  0  0  0999 V2000
   10.2010   -1.6980   21.6070 C   0  0  0  0  0  0  0  0  0  0  0  0
    9.9170   -1.2710   23.0090 C   0  0  2  0  0  0  0  0  0  0  0  0
    9.1000   -0.0730   22.9950 N   0  0  0  0  0  0  0  0  0  0  0  0
    8.5880    0.4850   21.8100 C   0  0  0  0  0  0  0  0  0  0  0  0
    9.0580    1.5020   21.2980 O   0  0  0  0  0  0  0  0  0  0  0  0
    7.5200   -0.2350   21.2830 N   0  0  0  0  0  0  0  0  0  0  0  0
    6.7330    0.2040   20.1980 C   0  0  0  0  0  0  0  0  0  0  0  0
    5.4820    1.0190   20.5190 C   0  0  0  0  0  0  0  0  0  0  0  0
    4.6240    1.5270   19.3750 C   0  0  0  0  0  0  0  0  0  0  0  0
    5.1590    1.1340   18.0120 C   0  0  0  0  0  0  0  0  0  0  0  0
    6.2660    0.4030   17.8070 N   0  0  0  0  0  0  0  0  0  0  0  0
    7.0070   -0.0370   18.8580 C   0  0  0  0  0  0  0  0  0  0  0  0
   11.2950   -1.1620   23.5810 C   0  0  0  0  0  0  0  0  0  0  0  0
   12.0760    0.0110   23.3930 C   0  0  0  0  0  0  0  0  0  0  0  0
   13.1690   -0.4710   24.0560 N   0  0  0  0  0  0  0  0  0  0  0  0
   13.2160   -1.6860   24.6080 C   0  0  0  0  0  0  0  0  0  0  0  0
   11.8410   -2.5630   24.4250 S   0  0  0  0  0  0  0  0  0  0  0  0
  2  1  1  6
  2  3  1  0
  3  4  1  0
  4  5  2  0
  4  6  1  0
  6  7  1  0
  7  8  2  0
  8  9  1  0
  9 10  2  0
 10 11  1  0
  7 12  1  0
 11 12  2  0
  2 13  1  0
 13 14  2  0
 14 15  1  0
 15 16  2  0
 13 17  1  0
 16 17  1  0
M  END
