pyridine_urea_12621
     RDKit          3D

 21 22  0  0  0  0  0  0  0  0999 V2000
    8.8380    0.6820   21.3620 O   0  0  0  0  0  0  0  0  0  0  0  0
    8.1870   -0.3280   21.5960 C   0  0  0  0  0  0  0  0  0  0  0  0
    8.6020   -1.2860   22.4790 N   0  0  0  0  0  0  0  0  0  0  0  0
    9.9860   -1.3730   22.8410 C   0  0  0  0  0  0  0  0  0  0  0  0
   10.4040   -0.1560   23.6860 C   0  0  2  0  0  0  0  0  0  0  0  0
    9.2670    0.7560   23.5600 O   0  0  0  0  0  0  0  0  0  0  0  0
   11.5880    0.4790   23.3190 C   0  0  0  0  0  0  0  0  0  0  0  0
   11.7360    1.6640   23.1030 C   0  0  0  0  0  0  0  0  0  0  0  0
   12.8780    0.7780   22.9780 C   0  0  0  0  0  0  0  0  0  0  0  0
   12.0000   -0.4540   23.3460 C   0  0  0  0  0  0  0  0  0  0  0  0
   11.8260   -1.7940   23.5740 F   0  0  0  0  0  0  0  0  0  0  0  0
   13.2350   -1.0740   23.1520 C   0  0  0  0  0  0  0  0  0  0  0  0
   12.9070    0.1180   23.0640 C   0  0  0  0  0  0  0  0  0  0  0  0
   13.8120    1.0380   22.7280 F   0  0  0  0  0  0  0  0  0  0  0  0
    6.9800   -0.6630   21.0530 N   0  0  0  0  0  0  0  0  0  0  0  0
    6.4120   -0.0060   19.9900 C   0  0  0  0  0  0  0  0  0  0  0  0
    5.2420    0.6870   20.3200 C   0  0  0  0  0  0  0  0  0  0  0  0
    4.6130    1.4240   19.1800 C   0  0  0  0  0  0  0  0  0  0  0  0
    5.1790    1.3910   17.9290 C   0  0  0  0  0  0  0  0  0  0  0  0
    6.3070    0.7000   17.6570 N   0  0  0  0  0  0  0  0  0  0  0  0
    6.9130    0.0010   18.7110 C   0  0  0  0  0  0  0  0  0  0  0  0
  1  2  2  0
  2  3  1  0
  3  4  1  0
  4  5  1  0
  5  6  1  6
  5  7  1  0
  7  8  2  0
  8  9  1  0
  9 10  2  0
 10 11  1  0
 10 12  1  0
  7 13  1  0
 12 13  2  0
 13 14  1  0
  2 15  1  0
 15 16  1  0
 16 17  2  0
 17 18  1  0
 18 19  2  0
 19 20  1  0
 16 21  1  0
 20 21  2  0
M  END
