pyridine_urea_3873
     RDKit          3D

 21 23  0  0  0  0  0  0  0  0999 V2000
    8.8570    1.1510   21.1430 O   0  0  0  0  0  0  0  0  0  0  0  0
    8.3220    0.0460   21.3160 C   0  0  0  0  0  0  0  0  0  0  0  0
    7.0360   -0.2940   21.0450 N   0  0  0  0  0  0  0  0  0  0  0  0
    6.3850    0.2620   19.9680 C   0  0  0  0  0  0  0  0  0  0  0  0
    5.2140    0.9740   20.1830 C   0  0  0  0  0  0  0  0  0  0  0  0
    4.5660    1.5580   19.1040 C   0  0  0  0  0  0  0  0  0  0  0  0
    5.1290    1.3970   17.8560 C   0  0  0  0  0  0  0  0  0  0  0  0
    6.2490    0.7040   17.6310 N   0  0  0  0  0  0  0  0  0  0  0  0
    6.8530    0.1510   18.6880 C   0  0  0  0  0  0  0  0  0  0  0  0
    8.9880   -1.0240   21.7920 N   0  0  0  0  0  0  0  0  0  0  0  0
    9.9370   -0.8840   22.8510 C   0  0  1  0  0  0  0  0  0  0  0  0
   11.3380   -1.0620   22.3580 C   0  0  0  0  0  0  0  0  0  0  0  0
   12.6810   -1.3870   22.2840 C   0  0  0  0  0  0  0  0  0  0  0  0
   13.5050   -1.9570   23.1830 C   0  0  0  0  0  0  0  0  0  0  0  0
   13.2200   -2.3520   24.3930 C   0  0  0  0  0  0  0  0  0  0  0  0
   11.9910   -2.1530   24.7280 C   0  0  0  0  0  0  0  0  0  0  0  0
   11.0870   -1.5860   23.8890 C   0  0  0  0  0  0  0  0  0  0  0  0
    9.9090   -1.5080   24.5580 O   0  0  0  0  0  0  0  0  0  0  0  0
    9.7840   -0.1640   24.9590 C   0  0  0  0  0  0  0  0  0  0  0  0
    9.9240    0.4210   23.6020 C   0  0  2  0  0  0  0  0  0  0  0  0
    8.8190    1.2690   23.2900 O   0  0  0  0  0  0  0  0  0  0  0  0
  1  2  2  0
  2  3  1  0
  3  4  1  0
  4  5  2  0
  5  6  1  0
  6  7  2  0
  7  8  1  0
  4  9  1  0
  8  9  2  0
  2 10  1  0
 11 10  1  6
 11 12  1  0
 12 13  2  0
 13 14  1  0
 14 15  2  0
 15 16  1  0
 12 17  1  0
 16 17  2  0
 17 18  1  0
 18 19  1  0
 11 20  1  0
 19 20  1  0
 20 21  1  6
M  END
