pyridine_urea_11092
     RDKit          3D

 18 20  0  0  0  0  0  0  0  0999 V2000
    8.7690    1.0930   21.1840 O   0  0  0  0  0  0  0  0  0  0  0  0
    8.1520    0.0680   21.5310 C   0  0  0  0  0  0  0  0  0  0  0  0
    8.5800   -0.7640   22.5120 N   0  0  0  0  0  0  0  0  0  0  0  0
    9.9790   -0.8110   22.7250 C   0  0  0  0  0  0  0  0  0  0  0  0
   10.4160    0.1740   23.7850 C   0  0  0  0  0  0  0  0  0  0  0  0
   11.8360   -0.0720   24.0290 C   0  0  0  0  0  0  0  0  0  0  0  0
   12.2690   -1.2900   23.6170 C   0  0  0  0  0  0  0  0  0  0  0  0
   13.0540   -0.9400   22.4810 C   0  0  0  0  0  0  0  0  0  0  0  0
   12.8580    0.4820   22.8750 C   0  0  0  0  0  0  0  0  0  0  0  0
    9.4960    0.8220   24.7520 C   0  0  0  0  0  0  0  0  0  0  0  0
   10.0160   -0.2940   25.2860 C   0  0  0  0  0  0  0  0  0  0  0  0
    6.9790   -0.4180   21.0560 N   0  0  0  0  0  0  0  0  0  0  0  0
    6.3290    0.2130   19.9370 C   0  0  0  0  0  0  0  0  0  0  0  0
    5.1530    0.8820   20.2390 C   0  0  0  0  0  0  0  0  0  0  0  0
    4.5190    1.5190   19.1950 C   0  0  0  0  0  0  0  0  0  0  0  0
    5.1400    1.4420   17.8250 C   0  0  0  0  0  0  0  0  0  0  0  0
    6.2740    0.7730   17.5690 N   0  0  0  0  0  0  0  0  0  0  0  0
    6.8650    0.1670   18.5970 C   0  0  0  0  0  0  0  0  0  0  0  0
  1  2  2  0
  2  3  1  0
  3  4  1  0
  5  4  1  0
  5  6  1  0
  6  7  1  0
  7  8  1  0
  6  9  1  0
  8  9  1  0
  5 10  1  0
  5 11  1  0
 10 11  1  0
  2 12  1  0
 12 13  1  0
 13 14  2  0
 14 15  1  0
 15 16  2  0
 16 17  1  0
 13 18  1  0
 17 18  2  0
M  END
