pyridine_urea_8137
     RDKit          3D

 24 25  0  0  0  0  0  0  0  0999 V2000
   15.5970    3.8620   19.3100 C   0  0  0  0  0  0  0  0  0  0  0  0
   14.7410    2.8700   18.6190 C   0  0  0  0  0  0  0  0  0  0  0  0
   15.0270    1.7870   19.6330 C   0  0  0  0  0  0  0  0  0  0  0  0
   14.7990    0.4730   19.4890 C   0  0  0  0  0  0  0  0  0  0  0  0
   13.9920   -0.4530   20.3200 N   0  0  0  0  0  0  0  0  0  0  0  0
   13.6000   -0.3700   21.6820 C   0  0  0  0  0  0  0  0  0  0  0  0
   14.1940    0.2810   22.4980 O   0  0  0  0  0  0  0  0  0  0  0  0
   12.4700   -0.7260   22.3100 C   0  0  0  0  0  0  0  0  0  0  0  0
   11.3890   -1.5900   21.9150 C   0  0  0  0  0  0  0  0  0  0  0  0
   10.2010   -1.7250   22.7960 C   0  0  0  0  0  0  0  0  0  0  0  0
   10.0640   -0.9720   24.1670 C   0  0  0  0  0  0  0  0  0  0  0  0
    8.9600   -1.8460   23.6680 C   0  0  0  0  0  0  0  0  0  0  0  0
    7.9530   -1.1040   23.0100 N   0  0  0  0  0  0  0  0  0  0  0  0
    7.9730   -0.4750   21.7410 C   0  0  0  0  0  0  0  0  0  0  0  0
    8.7310    0.3920   21.3180 O   0  0  0  0  0  0  0  0  0  0  0  0
    6.9720   -0.9600   20.9860 N   0  0  0  0  0  0  0  0  0  0  0  0
    6.4290   -0.1940   20.0070 C   0  0  0  0  0  0  0  0  0  0  0  0
    5.2540    0.5230   20.2680 C   0  0  0  0  0  0  0  0  0  0  0  0
    4.6750    1.3190   19.2590 C   0  0  0  0  0  0  0  0  0  0  0  0
    5.2610    1.4030   17.9990 C   0  0  0  0  0  0  0  0  0  0  0  0
    6.3850    0.7450   17.6870 N   0  0  0  0  0  0  0  0  0  0  0  0
    6.9620   -0.0780   18.7500 C   0  0  0  0  0  0  0  0  0  0  0  0
   11.2700   -0.2430   24.3100 C   0  0  0  0  0  0  0  0  0  0  0  0
   12.3650   -0.1050   23.4990 C   0  0  0  0  0  0  0  0  0  0  0  0
  1  2  1  0
  2  3  1  0
  3  4  1  0
  4  5  1  0
  5  6  1  0
  6  7  2  0
  6  8  1  0
  8  9  2  0
  9 10  1  0
 10 11  2  0
 11 12  1  0
 12 13  1  0
 13 14  1  0
 14 15  2  0
 14 16  1  0
 16 17  1  0
 17 18  2  0
 18 19  1  0
 19 20  2  0
 20 21  1  0
 17 22  1  0
 21 22  2  0
 11 23  1  0
  8 24  1  0
 23 24  2  0
M  END
