pyridine_urea_9147
     RDKit          3D

 19 21  0  0  0  0  0  0  0  0999 V2000
    8.7160   -1.0610   23.7290 C   0  0  0  0  0  0  0  0  0  0  0  0
    9.7840   -1.3930   22.6870 C   0  0  1  0  0  0  0  0  0  0  0  0
    9.3990   -0.8540   21.4020 N   0  0  0  0  0  0  0  0  0  0  0  0
    8.3500    0.0150   21.2110 C   0  0  0  0  0  0  0  0  0  0  0  0
    8.5520    1.4300   21.0740 O   0  0  0  0  0  0  0  0  0  0  0  0
    7.1560   -0.6540   21.1480 N   0  0  0  0  0  0  0  0  0  0  0  0
    6.4620    0.0110   20.1580 C   0  0  0  0  0  0  0  0  0  0  0  0
    5.2900    0.7540   20.3000 C   0  0  0  0  0  0  0  0  0  0  0  0
    4.6640    1.3990   19.2330 C   0  0  0  0  0  0  0  0  0  0  0  0
    5.2410    1.2920   17.9850 C   0  0  0  0  0  0  0  0  0  0  0  0
    6.3630    0.5900   17.7850 N   0  0  0  0  0  0  0  0  0  0  0  0
    6.9370   -0.0260   18.8490 C   0  0  0  0  0  0  0  0  0  0  0  0
   11.0300   -0.7780   23.1960 C   0  0  2  0  0  0  0  0  0  0  0  0
   12.0810   -0.6460   22.3210 C   0  0  0  0  0  0  0  0  0  0  0  0
   13.1540   -1.1380   23.0130 C   0  0  2  0  0  0  0  0  0  0  0  0
   13.0110   -2.5730   23.2310 C   0  0  0  0  0  0  0  0  0  0  0  0
   11.9850   -2.7580   24.1240 C   0  0  0  0  0  0  0  0  0  0  0  0
   11.6410   -1.3660   24.2800 C   0  0  1  0  0  0  0  0  0  0  0  0
   12.8490   -0.7270   24.2560 C   0  0  0  0  0  0  0  0  0  0  0  0
  2  1  1  1
  2  3  1  0
  3  4  1  0
  4  5  2  0
  4  6  1  0
  6  7  1  0
  7  8  2  0
  8  9  1  0
  9 10  2  0
 10 11  1  0
  7 12  1  0
 11 12  2  0
  2 13  1  0
 13 14  1  6
 15 14  1  6
 15 16  1  0
 16 17  1  0
 13 18  1  0
 18 17  1  6
 15 19  1  0
 18 19  1  0
M  END
