pyridine_urea_7263
     RDKit          3D

 19 20  0  0  0  0  0  0  0  0999 V2000
   10.4960   -0.3500   25.9840 N   0  0  0  0  0  0  0  0  0  0  0  0
   11.7420   -0.4320   25.4050 C   0  0  0  0  0  0  0  0  0  0  0  0
   12.8250   -0.2580   25.9210 O   0  0  0  0  0  0  0  0  0  0  0  0
   11.7050   -0.8130   24.0710 C   0  0  0  0  0  0  0  0  0  0  0  0
   12.8930   -1.1020   23.4760 C   0  0  0  0  0  0  0  0  0  0  0  0
   12.8840   -1.5290   22.1850 C   0  0  0  0  0  0  0  0  0  0  0  0
   11.6840   -1.6490   21.5380 C   0  0  0  0  0  0  0  0  0  0  0  0
   10.4470   -1.3280   22.1270 C   0  0  0  0  0  0  0  0  0  0  0  0
    9.2660   -1.4180   21.4780 N   0  0  0  0  0  0  0  0  0  0  0  0
    8.4640   -0.3210   21.3080 C   0  0  0  0  0  0  0  0  0  0  0  0
    8.9320    0.9700   21.3950 O   0  0  0  0  0  0  0  0  0  0  0  0
    7.1600   -0.6600   21.0190 N   0  0  0  0  0  0  0  0  0  0  0  0
    6.4580   -0.0070   20.0030 C   0  0  0  0  0  0  0  0  0  0  0  0
    5.2910    0.7020   20.3090 C   0  0  0  0  0  0  0  0  0  0  0  0
    4.6200    1.3630   19.2860 C   0  0  0  0  0  0  0  0  0  0  0  0
    5.1370    1.2900   18.0040 C   0  0  0  0  0  0  0  0  0  0  0  0
    6.2420    0.6120   17.6880 N   0  0  0  0  0  0  0  0  0  0  0  0
    6.8790   -0.0210   18.6920 C   0  0  0  0  0  0  0  0  0  0  0  0
   10.4950   -0.8850   23.4830 C   0  0  0  0  0  0  0  0  0  0  0  0
  1  2  1  0
  2  3  2  0
  2  4  1  0
  4  5  2  0
  5  6  1  0
  6  7  2  0
  7  8  1  0
  8  9  1  0
  9 10  1  0
 10 11  2  0
 10 12  1  0
 12 13  1  0
 13 14  2  0
 14 15  1  0
 15 16  2  0
 16 17  1  0
 13 18  1  0
 17 18  2  0
  4 19  1  0
  8 19  2  0
M  END
