pyridine_urea_6938
     RDKit          3D

 21 22  0  0  0  0  0  0  0  0999 V2000
   13.7020   -3.3040   25.2210 C   0  0  0  0  0  0  0  0  0  0  0  0
   12.3180   -2.9310   24.9430 C   0  0  0  0  0  0  0  0  0  0  0  0
   11.3060   -3.8370   24.5910 O   0  0  0  0  0  0  0  0  0  0  0  0
   12.2520   -1.5820   25.1100 N   0  0  0  0  0  0  0  0  0  0  0  0
   11.7350   -0.8600   24.0390 C   0  0  0  0  0  0  0  0  0  0  0  0
   12.7730    0.0620   23.7560 C   0  0  0  0  0  0  0  0  0  0  0  0
   12.5760    0.9100   22.8190 C   0  0  0  0  0  0  0  0  0  0  0  0
   11.4110    0.6420   22.3740 C   0  0  0  0  0  0  0  0  0  0  0  0
   10.2950   -0.2670   22.5660 C   0  0  0  0  0  0  0  0  0  0  0  0
   10.3980   -1.2260   23.5690 C   0  0  0  0  0  0  0  0  0  0  0  0
    9.1740   -1.4070   22.9830 C   0  0  0  0  0  0  0  0  0  0  0  0
    8.4780   -0.1570   22.8700 N   0  0  0  0  0  0  0  0  0  0  0  0
    8.1780    0.3070   21.5880 C   0  0  0  0  0  0  0  0  0  0  0  0
    8.7420    1.2920   21.0870 O   0  0  0  0  0  0  0  0  0  0  0  0
    7.2200   -0.4750   21.0590 N   0  0  0  0  0  0  0  0  0  0  0  0
    6.5300    0.1340   19.9600 C   0  0  0  0  0  0  0  0  0  0  0  0
    5.2970    0.9290   20.2590 C   0  0  0  0  0  0  0  0  0  0  0  0
    4.6250    1.5500   19.1830 C   0  0  0  0  0  0  0  0  0  0  0  0
    5.1410    1.3940   17.9000 C   0  0  0  0  0  0  0  0  0  0  0  0
    6.2520    0.6580   17.6790 N   0  0  0  0  0  0  0  0  0  0  0  0
    6.9610    0.0210   18.6710 C   0  0  0  0  0  0  0  0  0  0  0  0
  1  2  1  0
  2  3  2  0
  2  4  1  0
  4  5  1  0
  5  6  2  0
  6  7  1  0
  7  8  2  0
  8  9  1  0
  5 10  1  0
  9 10  2  0
 10 11  1  0
 11 12  1  0
 12 13  1  0
 13 14  2  0
 13 15  1  0
 15 16  1  0
 16 17  2  0
 17 18  1  0
 18 19  2  0
 19 20  1  0
 16 21  1  0
 20 21  2  0
M  END
