pyridine_urea_11796
     RDKit          3D

 25 26  0  0  0  0  0  0  0  0999 V2000
   13.4070   -0.0060   22.6430 C   0  0  0  0  0  0  0  0  0  0  0  0
   13.6700   -1.0650   23.5760 O   0  0  0  0  0  0  0  0  0  0  0  0
   13.3150   -2.3430   23.1620 C   0  0  0  0  0  0  0  0  0  0  0  0
   12.7260   -2.4280   21.9060 C   0  0  0  0  0  0  0  0  0  0  0  0
   12.1290   -1.2120   21.5890 O   0  0  0  0  0  0  0  0  0  0  0  0
   11.4740   -0.8450   22.7550 C   0  0  0  0  0  0  0  0  0  0  0  0
   12.0920   -0.7470   23.9510 C   0  0  0  0  0  0  0  0  0  0  0  0
   11.4970   -0.4140   25.1600 C   0  0  0  0  0  0  0  0  0  0  0  0
   10.0870   -0.1210   25.3030 C   0  0  0  0  0  0  0  0  0  0  0  0
    9.1050    0.2800   26.6930 S   0  0  0  0  0  0  0  0  0  0  0  0
    7.7000   -0.7940   26.4600 C   0  0  0  0  0  0  0  0  0  0  0  0
    8.4330    1.5490   26.5840 O   0  0  0  0  0  0  0  0  0  0  0  0
    9.7730   -0.0710   27.9180 O   0  0  0  0  0  0  0  0  0  0  0  0
    9.3770   -0.1930   24.0120 C   0  0  0  0  0  0  0  0  0  0  0  0
   10.0590   -0.5220   22.9150 C   0  0  0  0  0  0  0  0  0  0  0  0
    9.1800   -0.4940   21.9450 N   0  0  0  0  0  0  0  0  0  0  0  0
    8.2070    0.1050   21.1340 C   0  0  0  0  0  0  0  0  0  0  0  0
    8.3710    1.2630   20.7420 O   0  0  0  0  0  0  0  0  0  0  0  0
    7.0270   -0.6280   20.8050 N   0  0  0  0  0  0  0  0  0  0  0  0
    6.2280    0.0620   19.9220 C   0  0  0  0  0  0  0  0  0  0  0  0
    4.9880    0.6140   20.2400 C   0  0  0  0  0  0  0  0  0  0  0  0
    4.3650    1.3490   19.0890 C   0  0  0  0  0  0  0  0  0  0  0  0
    5.1400    1.3840   17.7950 C   0  0  0  0  0  0  0  0  0  0  0  0
    6.3130    0.8060   17.6050 N   0  0  0  0  0  0  0  0  0  0  0  0
    6.8070    0.1720   18.6680 C   0  0  0  0  0  0  0  0  0  0  0  0
  1  2  1  0
  2  3  1  0
  3  4  1  0
  4  5  1  0
  5  6  1  0
  6  7  2  0
  7  8  1  0
  8  9  2  0
  9 10  1  0
 10 11  1  0
 10 12  2  0
 10 13  2  0
  9 14  1  0
  6 15  1  0
 14 15  2  0
 15 16  1  0
 16 17  1  0
 17 18  2  0
 17 19  1  0
 19 20  1  0
 20 21  2  0
 21 22  1  0
 22 23  2  0
 23 24  1  0
 20 25  1  0
 24 25  2  0
M  END
