pyridine_urea_686
     RDKit          3D

 24 26  0  0  0  0  0  0  0  0999 V2000
   12.4150    2.8410   23.0950 C   0  0  0  0  0  0  0  0  0  0  0  0
   12.6100    1.9010   23.8830 O   0  0  0  0  0  0  0  0  0  0  0  0
   12.6100    0.7500   23.2830 C   0  0  0  0  0  0  0  0  0  0  0  0
   13.5570    0.4800   22.4540 C   0  0  0  0  0  0  0  0  0  0  0  0
   13.5370   -0.6750   21.7380 C   0  0  0  0  0  0  0  0  0  0  0  0
   12.6220   -1.5490   21.8610 C   0  0  0  0  0  0  0  0  0  0  0  0
   12.9400   -2.7660   20.8460 Cl  0  0  0  0  0  0  0  0  0  0  0  0
   11.6190   -1.4100   22.6970 C   0  0  0  0  0  0  0  0  0  0  0  0
   11.6620   -0.1170   23.4850 C   0  0  0  0  0  0  0  0  0  0  0  0
   10.7100    0.0870   24.3560 N   0  0  0  0  0  0  0  0  0  0  0  0
   10.0190    1.2660   24.4010 C   0  0  0  0  0  0  0  0  0  0  0  0
    9.3080    1.1210   23.2100 C   0  0  0  0  0  0  0  0  0  0  0  0
    9.2680   -0.2160   22.8460 C   0  0  2  0  0  0  0  0  0  0  0  0
    8.1000   -0.6710   22.4160 N   0  0  0  0  0  0  0  0  0  0  0  0
    7.6060   -0.1400   21.2820 C   0  0  0  0  0  0  0  0  0  0  0  0
    8.1230    0.8340   20.7520 O   0  0  0  0  0  0  0  0  0  0  0  0
    6.5380   -0.7890   20.8700 N   0  0  0  0  0  0  0  0  0  0  0  0
    6.0820   -0.0170   19.7620 C   0  0  0  0  0  0  0  0  0  0  0  0
    4.8900    0.6950   19.9580 C   0  0  0  0  0  0  0  0  0  0  0  0
    4.4000    1.4950   18.9250 C   0  0  0  0  0  0  0  0  0  0  0  0
    5.1070    1.5640   17.7300 C   0  0  0  0  0  0  0  0  0  0  0  0
    6.2670    0.8510   17.5630 N   0  0  0  0  0  0  0  0  0  0  0  0
    6.7510    0.0630   18.5800 C   0  0  0  0  0  0  0  0  0  0  0  0
    9.8130   -0.8890   23.8210 C   0  0  0  0  0  0  0  0  0  0  0  0
  1  2  1  0
  2  3  1  0
  3  4  2  0
  4  5  1  0
  5  6  2  0
  6  7  1  0
  6  8  1  0
  3  9  1  0
  8  9  2  0
  9 10  1  0
 10 11  1  0
 11 12  1  0
 12 13  1  0
 13 14  1  1
 14 15  1  0
 15 16  2  0
 15 17  1  0
 17 18  1  0
 18 19  2  0
 19 20  1  0
 20 21  2  0
 21 22  1  0
 18 23  1  0
 22 23  2  0
 10 24  1  0
 13 24  1  0
M  END
