pyridine_urea_3389
     RDKit          3D

 19 20  0  0  0  0  0  0  0  0999 V2000
    9.9520    0.6190   24.1490 C   0  0  0  0  0  0  0  0  0  0  0  0
   11.3670    0.7980   23.7560 C   0  0  0  0  0  0  0  0  0  0  0  0
   11.4900   -0.1360   23.0340 C   0  0  0  0  0  0  0  0  0  0  0  0
   11.0900   -1.1220   22.4580 C   0  0  0  0  0  0  0  0  0  0  0  0
    9.9940   -1.8780   22.2890 C   0  0  0  0  0  0  0  0  0  0  0  0
    8.9800   -1.6430   23.3750 C   0  0  0  0  0  0  0  0  0  0  0  0
    8.1190   -0.5550   23.0210 N   0  0  0  0  0  0  0  0  0  0  0  0
    8.0540   -0.1280   21.7200 C   0  0  0  0  0  0  0  0  0  0  0  0
    8.8280    0.6850   21.2380 O   0  0  0  0  0  0  0  0  0  0  0  0
    6.9510   -0.7560   21.0400 N   0  0  0  0  0  0  0  0  0  0  0  0
    6.3860   -0.0720   20.0040 C   0  0  0  0  0  0  0  0  0  0  0  0
    5.2130    0.6430   20.1970 C   0  0  0  0  0  0  0  0  0  0  0  0
    4.6100    1.3580   19.1930 C   0  0  0  0  0  0  0  0  0  0  0  0
    5.2110    1.3540   17.9470 C   0  0  0  0  0  0  0  0  0  0  0  0
    6.3480    0.6690   17.7140 N   0  0  0  0  0  0  0  0  0  0  0  0
    6.9100   -0.0260   18.7270 C   0  0  0  0  0  0  0  0  0  0  0  0
   12.3100   -1.0400   22.0970 N   0  0  0  0  0  0  0  0  0  0  0  0
   12.4520    0.2200   22.9410 N   0  0  0  0  0  0  0  0  0  0  0  0
   13.5860    0.6810   22.8670 C   0  0  0  0  0  0  0  0  0  0  0  0
  1  2  1  0
  2  3  2  0
  3  4  1  0
  4  5  1  0
  5  6  1  0
  6  7  1  0
  7  8  1  0
  8  9  2  0
  8 10  1  0
 10 11  1  0
 11 12  2  0
 12 13  1  0
 13 14  2  0
 14 15  1  0
 11 16  1  0
 15 16  2  0
  4 17  2  0
  2 18  1  0
 17 18  1  0
 18 19  1  0
M  END
