pyridine_urea_3463
     RDKit          3D

 19 20  0  0  0  0  0  0  0  0999 V2000
   13.2330   -2.5940   24.4160 C   0  0  0  0  0  0  0  0  0  0  0  0
   13.4600   -1.2580   24.8290 O   0  0  0  0  0  0  0  0  0  0  0  0
   13.1390   -0.2770   23.8400 C   0  0  0  0  0  0  0  0  0  0  0  0
   13.8160    0.0860   22.8960 O   0  0  0  0  0  0  0  0  0  0  0  0
   11.7860    0.2400   24.1050 C   0  0  0  0  0  0  0  0  0  0  0  0
   10.3420    0.3160   23.9150 C   0  0  0  0  0  0  0  0  0  0  0  0
    9.9230   -0.6120   22.9080 C   0  0  0  0  0  0  0  0  0  0  0  0
    8.5600   -0.7210   22.5530 N   0  0  0  0  0  0  0  0  0  0  0  0
    8.1450    0.0510   21.5180 C   0  0  0  0  0  0  0  0  0  0  0  0
    8.7640    1.0920   21.1960 O   0  0  0  0  0  0  0  0  0  0  0  0
    7.0200   -0.4700   20.9730 N   0  0  0  0  0  0  0  0  0  0  0  0
    6.3910    0.1540   19.9250 C   0  0  0  0  0  0  0  0  0  0  0  0
    5.2230    0.8670   20.1200 C   0  0  0  0  0  0  0  0  0  0  0  0
    4.5690    1.5270   19.0990 C   0  0  0  0  0  0  0  0  0  0  0  0
    5.1380    1.4460   17.8460 C   0  0  0  0  0  0  0  0  0  0  0  0
    6.2680    0.7530   17.6040 N   0  0  0  0  0  0  0  0  0  0  0  0
    6.8480    0.1380   18.6420 C   0  0  0  0  0  0  0  0  0  0  0  0
   10.7830   -1.3930   22.2780 C   0  0  0  0  0  0  0  0  0  0  0  0
   11.8010   -0.7900   23.0730 N   0  0  0  0  0  0  0  0  0  0  0  0
  1  2  1  0
  2  3  1  0
  3  4  2  0
  3  5  1  0
  5  6  2  0
  6  7  1  0
  7  8  1  0
  8  9  1  0
  9 10  2  0
  9 11  1  0
 11 12  1  0
 12 13  2  0
 13 14  1  0
 14 15  2  0
 15 16  1  0
 12 17  1  0
 16 17  2  0
  7 18  2  0
  5 19  1  0
 18 19  1  0
M  END
