pyridine_urea_4669
     RDKit          3D

 22 24  0  0  0  0  0  0  0  0999 V2000
   12.8610   -0.7510   25.5760 C   0  0  0  0  0  0  0  0  0  0  0  0
   11.3970   -0.5550   25.2990 C   0  0  0  0  0  0  0  0  0  0  0  0
   10.2110   -0.1670   26.0810 N   0  0  0  0  0  0  0  0  0  0  0  0
    9.1470   -0.1440   25.2470 N   0  0  0  0  0  0  0  0  0  0  0  0
    9.0210   -1.0090   24.0800 C   0  0  0  0  0  0  0  0  0  0  0  0
    7.7890   -1.6510   23.7580 O   0  0  0  0  0  0  0  0  0  0  0  0
   10.2150   -1.1280   23.3790 C   0  0  0  0  0  0  0  0  0  0  0  0
   10.3060   -1.4940   22.1190 C   0  0  0  0  0  0  0  0  0  0  0  0
    9.1010   -1.7020   21.5530 N   0  0  0  0  0  0  0  0  0  0  0  0
    8.3410   -0.5020   21.2720 C   0  0  0  0  0  0  0  0  0  0  0  0
    8.8240    0.6240   21.2980 O   0  0  0  0  0  0  0  0  0  0  0  0
    7.0300   -0.7440   20.9630 N   0  0  0  0  0  0  0  0  0  0  0  0
    6.3960   -0.0510   19.9720 C   0  0  0  0  0  0  0  0  0  0  0  0
    5.2110    0.6400   20.2420 C   0  0  0  0  0  0  0  0  0  0  0  0
    4.5970    1.3530   19.2180 C   0  0  0  0  0  0  0  0  0  0  0  0
    5.1640    1.3730   17.9430 C   0  0  0  0  0  0  0  0  0  0  0  0
    6.3280    0.6820   17.6930 N   0  0  0  0  0  0  0  0  0  0  0  0
    6.8930    0.0040   18.6980 C   0  0  0  0  0  0  0  0  0  0  0  0
   11.5680   -1.6260   21.5130 C   0  0  0  0  0  0  0  0  0  0  0  0
   12.7490   -1.3550   22.1410 C   0  0  0  0  0  0  0  0  0  0  0  0
   12.6440   -0.9550   23.4550 C   0  0  0  0  0  0  0  0  0  0  0  0
   11.3720   -0.8940   23.9520 C   0  0  0  0  0  0  0  0  0  0  0  0
  1  2  1  0
  2  3  2  0
  3  4  1  0
  4  5  1  0
  5  6  2  0
  5  7  1  0
  7  8  1  0
  8  9  1  0
  9 10  1  0
 10 11  2  0
 10 12  1  0
 12 13  1  0
 13 14  2  0
 14 15  1  0
 15 16  2  0
 16 17  1  0
 13 18  1  0
 17 18  2  0
  8 19  2  0
 19 20  1  0
 20 21  2  0
  2 22  1  0
  7 22  2  0
 21 22  1  0
M  END
