pyridine_urea_290
     RDKit          3D

 28 30  0  0  0  0  0  0  0  0999 V2000
   13.5260   -3.1610   22.6600 C   0  0  0  0  0  0  0  0  0  0  0  0
   13.8910   -3.8290   21.4380 N   0  0  0  0  0  0  0  0  0  0  0  0
   15.2230   -4.7320   21.2890 C   0  0  0  0  0  0  0  0  0  0  0  0
   16.1320   -4.9210   20.1790 C   0  0  0  0  0  0  0  0  0  0  0  0
   15.2110   -5.8960   19.9240 C   0  0  0  0  0  0  0  0  0  0  0  0
   13.9720   -5.4020   20.2100 C   0  0  0  0  0  0  0  0  0  0  0  0
   12.7170   -4.5950   19.7710 C   0  0  0  0  0  0  0  0  0  0  0  0
   12.9820   -3.5690   20.5530 C   0  0  0  0  0  0  0  0  0  0  0  0
   12.4290   -2.3050   20.5260 N   0  0  0  0  0  0  0  0  0  0  0  0
   13.1330   -1.1900   21.5180 S   0  0  0  0  0  0  0  0  0  0  0  0
   13.6030   -0.1130   20.6930 O   0  0  0  0  0  0  0  0  0  0  0  0
   13.7770   -1.7500   22.6610 O   0  0  0  0  0  0  0  0  0  0  0  0
   11.9010   -0.5950   22.3760 C   0  0  0  0  0  0  0  0  0  0  0  0
   12.1450    0.4230   23.3400 C   0  0  0  0  0  0  0  0  0  0  0  0
   11.1380    0.8900   24.0230 C   0  0  0  0  0  0  0  0  0  0  0  0
    9.8330    0.4110   23.8350 C   0  0  0  0  0  0  0  0  0  0  0  0
    9.5480   -0.5560   22.9180 C   0  0  0  0  0  0  0  0  0  0  0  0
    8.3380   -1.0160   22.6750 N   0  0  0  0  0  0  0  0  0  0  0  0
    7.8660   -0.3360   21.6160 C   0  0  0  0  0  0  0  0  0  0  0  0
    8.4120    0.8990   21.1740 O   0  0  0  0  0  0  0  0  0  0  0  0
    6.8220   -0.9420   21.0370 N   0  0  0  0  0  0  0  0  0  0  0  0
    6.3030   -0.2250   20.0240 C   0  0  0  0  0  0  0  0  0  0  0  0
    5.0790    0.6090   20.2590 C   0  0  0  0  0  0  0  0  0  0  0  0
    4.5340    1.3620   19.2200 C   0  0  0  0  0  0  0  0  0  0  0  0
    5.1690    1.3040   17.9840 C   0  0  0  0  0  0  0  0  0  0  0  0
    6.2670    0.5670   17.7310 N   0  0  0  0  0  0  0  0  0  0  0  0
    6.7990   -0.1700   18.7370 C   0  0  0  0  0  0  0  0  0  0  0  0
   10.5230   -1.0950   22.1710 C   0  0  0  0  0  0  0  0  0  0  0  0
  1  2  1  0
  2  3  1  0
  3  4  1  0
  4  5  1  0
  5  6  1  0
  6  7  1  0
  2  8  1  0
  7  8  1  0
  8  9  2  3
 10  9  1  0
 10 11  2  0
 10 12  2  0
 10 13  1  0
 13 14  2  0
 14 15  1  0
 15 16  2  0
 16 17  1  0
 17 18  1  0
 18 19  1  0
 19 20  2  0
 19 21  1  0
 21 22  1  0
 22 23  2  0
 23 24  1  0
 24 25  2  0
 25 26  1  0
 22 27  1  0
 26 27  2  0
 13 28  1  0
 17 28  2  0
M  END
