pyridine_urea_22
     RDKit          3D

 25 27  0  0  0  0  0  0  0  0999 V2000
   15.1850   -5.1130   20.6600 C   0  0  0  0  0  0  0  0  0  0  0  0
   14.1110   -4.2450   20.3760 N   0  0  0  0  0  0  0  0  0  0  0  0
   13.5790   -3.0850   20.9910 C   0  0  0  0  0  0  0  0  0  0  0  0
   12.7310   -2.8170   22.1080 C   0  0  0  0  0  0  0  0  0  0  0  0
   12.6260   -1.4480   22.3150 C   0  0  0  0  0  0  0  0  0  0  0  0
   11.9800   -1.0440   23.1940 N   0  0  0  0  0  0  0  0  0  0  0  0
   13.0770   -1.1530   23.8690 C   0  0  0  0  0  0  0  0  0  0  0  0
   12.5440   -1.8950   24.9900 C   0  0  2  0  0  0  0  0  0  0  0  0
   12.8630   -3.0590   25.1690 O   0  0  0  0  0  0  0  0  0  0  0  0
   11.0640   -1.8830   24.8240 C   0  0  0  0  0  0  0  0  0  0  0  0
   10.8610   -1.8630   23.5410 C   0  0  1  0  0  0  0  0  0  0  0  0
    9.5050   -1.1860   23.5180 C   0  0  0  0  0  0  0  0  0  0  0  0
    8.7140   -1.4270   22.4370 N   0  0  0  0  0  0  0  0  0  0  0  0
    8.2580   -0.4320   21.6080 C   0  0  0  0  0  0  0  0  0  0  0  0
    8.9200    0.8140   21.4160 O   0  0  0  0  0  0  0  0  0  0  0  0
    7.0960   -0.8480   21.0350 N   0  0  0  0  0  0  0  0  0  0  0  0
    6.4730   -0.1080   20.0650 C   0  0  0  0  0  0  0  0  0  0  0  0
    5.3310    0.6500   20.2850 C   0  0  0  0  0  0  0  0  0  0  0  0
    4.4990    1.5310   19.3180 C   0  0  0  0  0  0  0  0  0  0  0  0
    5.3400    1.2950   18.0620 C   0  0  0  0  0  0  0  0  0  0  0  0
    6.4400    0.5670   17.8390 N   0  0  0  0  0  0  0  0  0  0  0  0
    6.9800   -0.1140   18.8220 C   0  0  0  0  0  0  0  0  0  0  0  0
   13.1690   -0.5390   21.6870 N   0  0  0  0  0  0  0  0  0  0  0  0
   13.8280   -1.0270   20.7120 C   0  0  0  0  0  0  0  0  0  0  0  0
   14.0080   -2.1420   20.4030 N   0  0  0  0  0  0  0  0  0  0  0  0
  1  2  1  0
  2  3  1  0
  3  4  2  0
  4  5  1  0
  5  6  1  0
  6  7  1  0
  7  8  1  0
  8  9  1  6
  8 10  1  0
  6 11  1  0
 10 11  1  0
 11 12  1  1
 12 13  1  0
 13 14  1  0
 14 15  2  0
 14 16  1  0
 16 17  1  0
 17 18  2  0
 18 19  1  0
 19 20  2  0
 20 21  1  0
 17 22  1  0
 21 22  2  0
  5 23  2  0
 23 24  1  0
  3 25  1  0
 24 25  2  0
M  END
