pyridine_urea_8038
     RDKit          3D

 24 25  0  0  0  0  0  0  0  0999 V2000
    8.5570   -5.0050   24.2380 C   0  0  0  0  0  0  0  0  0  0  0  0
    9.0890   -4.0320   25.2900 C   0  0  0  0  0  0  0  0  0  0  0  0
    8.0020   -3.8940   26.4170 C   0  0  0  0  0  0  0  0  0  0  0  0
   10.3920   -4.5740   25.9010 C   0  0  0  0  0  0  0  0  0  0  0  0
    9.2610   -2.7380   24.6590 O   0  0  0  0  0  0  0  0  0  0  0  0
   10.4800   -2.2100   24.1050 C   0  0  0  0  0  0  0  0  0  0  0  0
   11.7400   -2.5950   24.4610 O   0  0  0  0  0  0  0  0  0  0  0  0
   10.2330   -1.2210   23.1230 C   0  0  0  0  0  0  0  0  0  0  0  0
    8.9920   -1.5470   22.3630 N   0  0  0  0  0  0  0  0  0  0  0  0
    8.3630   -0.4660   21.5680 C   0  0  0  0  0  0  0  0  0  0  0  0
    8.8960    0.6010   21.2940 O   0  0  0  0  0  0  0  0  0  0  0  0
    7.0410   -0.8800   21.1900 N   0  0  0  0  0  0  0  0  0  0  0  0
    6.4740   -0.1490   20.1440 C   0  0  0  0  0  0  0  0  0  0  0  0
    5.2120    0.6540   20.4340 C   0  0  0  0  0  0  0  0  0  0  0  0
    4.5920    1.4410   19.2980 C   0  0  0  0  0  0  0  0  0  0  0  0
    5.3110    1.3460   17.9730 C   0  0  0  0  0  0  0  0  0  0  0  0
    6.4280    0.6180   17.7800 N   0  0  0  0  0  0  0  0  0  0  0  0
    6.9520   -0.0830   18.8330 C   0  0  0  0  0  0  0  0  0  0  0  0
   10.3170    0.0910   23.6030 C   0  0  0  0  0  0  0  0  0  0  0  0
   11.5650    0.4760   24.0470 C   0  0  0  0  0  0  0  0  0  0  0  0
   12.3240    0.9180   23.0250 C   0  0  0  0  0  0  0  0  0  0  0  0
   13.2210   -0.0520   22.7990 C   0  0  0  0  0  0  0  0  0  0  0  0
   12.6320   -1.2460   22.3780 C   0  0  0  0  0  0  0  0  0  0  0  0
   11.2580   -1.5270   22.1990 C   0  0  0  0  0  0  0  0  0  0  0  0
  1  2  1  0
  2  3  1  0
  2  4  1  0
  2  5  1  0
  5  6  1  0
  6  7  2  0
  8  6  1  0
  8  9  1  0
  9 10  1  0
 10 11  2  0
 10 12  1  0
 12 13  1  0
 13 14  2  0
 14 15  1  0
 15 16  2  0
 16 17  1  0
 13 18  1  0
 17 18  2  0
  8 19  1  0
 19 20  1  0
 20 21  1  0
 21 22  1  0
 22 23  1  0
  8 24  1  0
 23 24  1  0
M  END
