pyridine_urea_8838
     RDKit          3D

 20 21  0  0  0  0  0  0  0  0999 V2000
   12.4970    3.2270   22.6810 C   0  0  0  0  0  0  0  0  0  0  0  0
   12.5610    1.8050   22.8160 O   0  0  0  0  0  0  0  0  0  0  0  0
   11.3840    1.1240   22.7350 C   0  0  0  0  0  0  0  0  0  0  0  0
   10.3110    1.6740   22.5500 O   0  0  0  0  0  0  0  0  0  0  0  0
   11.5320   -0.4000   22.9300 C   0  0  0  0  0  0  0  0  0  0  0  0
   10.3930   -1.1120   22.5310 C   0  0  0  0  0  0  0  0  0  0  0  0
    9.0870   -0.4660   22.6310 N   0  0  0  0  0  0  0  0  0  0  0  0
    8.5100    0.2040   21.5630 C   0  0  0  0  0  0  0  0  0  0  0  0
    8.9350    1.2960   21.1740 O   0  0  0  0  0  0  0  0  0  0  0  0
    7.4270   -0.4690   21.0280 N   0  0  0  0  0  0  0  0  0  0  0  0
    6.5810    0.1380   20.0860 C   0  0  0  0  0  0  0  0  0  0  0  0
    5.4130    0.8520   20.3690 C   0  0  0  0  0  0  0  0  0  0  0  0
    4.6890    1.4230   19.3160 C   0  0  0  0  0  0  0  0  0  0  0  0
    5.1730    1.2490   18.0390 C   0  0  0  0  0  0  0  0  0  0  0  0
    6.2730    0.5700   17.7060 N   0  0  0  0  0  0  0  0  0  0  0  0
    6.9220    0.0450   18.7540 C   0  0  0  0  0  0  0  0  0  0  0  0
   12.7760   -0.9790   22.2110 C   0  0  0  0  0  0  0  0  0  0  0  0
   13.3670   -1.7850   23.2770 C   0  0  0  0  0  0  0  0  0  0  0  0
   12.8610   -1.5720   24.4780 C   0  0  0  0  0  0  0  0  0  0  0  0
   11.8500   -0.6070   24.2990 C   0  0  0  0  0  0  0  0  0  0  0  0
  1  2  1  0
  2  3  1  0
  3  4  2  0
  5  3  1  0
  5  6  1  0
  6  7  1  0
  7  8  1  0
  8  9  2  0
  8 10  1  0
 10 11  1  0
 11 12  2  0
 12 13  1  0
 13 14  2  0
 14 15  1  0
 11 16  1  0
 15 16  2  0
  5 17  1  0
 17 18  1  0
 18 19  2  0
  5 20  1  0
 19 20  1  0
M  END
