pyridine_urea_811
     RDKit          3D

 23 25  0  0  0  0  0  0  0  0999 V2000
   10.5150   -2.0170   21.8190 C   0  0  0  0  0  0  0  0  0  0  0  0
   11.4050   -1.3210   22.7160 N   0  0  0  0  0  0  0  0  0  0  0  0
   11.2310   -0.0720   22.9520 C   0  0  0  0  0  0  0  0  0  0  0  0
   12.3960    0.6580   23.1110 C   0  0  0  0  0  0  0  0  0  0  0  0
   12.3360    1.9910   23.3640 C   0  0  0  0  0  0  0  0  0  0  0  0
   11.1260    2.6600   23.4970 C   0  0  0  0  0  0  0  0  0  0  0  0
    9.8480    1.9090   23.3310 C   0  0  0  0  0  0  0  0  0  0  0  0
    9.9820    0.4690   23.0290 C   0  0  0  0  0  0  0  0  0  0  0  0
    8.7800   -0.2920   22.8050 N   0  0  0  0  0  0  0  0  0  0  0  0
    8.2340    0.2000   21.6380 C   0  0  0  0  0  0  0  0  0  0  0  0
    8.6440    1.2330   21.0820 O   0  0  0  0  0  0  0  0  0  0  0  0
    7.1790   -0.4980   21.1120 N   0  0  0  0  0  0  0  0  0  0  0  0
    6.4890    0.0740   20.0430 C   0  0  0  0  0  0  0  0  0  0  0  0
    5.3070    0.7760   20.2980 C   0  0  0  0  0  0  0  0  0  0  0  0
    4.6240    1.3760   19.2420 C   0  0  0  0  0  0  0  0  0  0  0  0
    5.1460    1.2510   17.9750 C   0  0  0  0  0  0  0  0  0  0  0  0
    6.2690    0.5750   17.7040 N   0  0  0  0  0  0  0  0  0  0  0  0
    6.9130    0.0020   18.7380 C   0  0  0  0  0  0  0  0  0  0  0  0
   12.7270   -1.5160   22.6060 C   0  0  0  0  0  0  0  0  0  0  0  0
   13.0220   -2.7240   22.2370 C   0  0  0  0  0  0  0  0  0  0  0  0
   13.1260   -2.6190   20.8920 C   0  0  0  0  0  0  0  0  0  0  0  0
   13.6250   -1.4060   20.6910 C   0  0  0  0  0  0  0  0  0  0  0  0
   13.3530   -0.6210   21.8470 C   0  0  0  0  0  0  0  0  0  0  0  0
  1  2  1  0
  2  3  1  0
  3  4  2  0
  4  5  1  0
  5  6  2  0
  6  7  1  0
  3  8  1  0
  7  8  2  0
  8  9  1  0
  9 10  1  0
 10 11  2  0
 10 12  1  0
 12 13  1  0
 13 14  2  0
 14 15  1  0
 15 16  2  0
 16 17  1  0
 13 18  1  0
 17 18  2  0
  2 19  1  0
 19 20  1  0
 20 21  1  0
 21 22  1  0
 19 23  1  0
 22 23  1  0
M  END
