pyridine_urea_2325
     RDKit          3D

 25 28  0  0  0  0  0  0  0  0999 V2000
    8.6030    0.4990   21.0310 O   0  0  0  0  0  0  0  0  0  0  0  0
    8.4030   -0.6630   21.3530 C   0  0  0  0  0  0  0  0  0  0  0  0
    9.3550   -1.3750   22.0840 N   0  0  0  0  0  0  0  0  0  0  0  0
   10.2120   -0.3550   22.4510 C   0  0  0  0  0  0  0  0  0  0  0  0
    9.4110    0.6850   22.7580 C   0  0  0  0  0  0  0  0  0  0  0  0
    9.8880    1.8650   23.0920 C   0  0  0  0  0  0  0  0  0  0  0  0
   11.1940    2.0980   23.1520 C   0  0  0  0  0  0  0  0  0  0  0  0
   11.2820    3.3990   23.5130 N   0  0  0  0  0  0  0  0  0  0  0  0
   10.4290    3.8380   24.5360 N   0  0  0  0  0  0  0  0  0  0  0  0
   10.7200    5.1250   24.6660 C   0  0  0  0  0  0  0  0  0  0  0  0
   11.6760    5.5390   23.8010 C   0  0  0  0  0  0  0  0  0  0  0  0
   12.2920    6.8750   23.5910 C   0  0  0  0  0  0  0  0  0  0  0  0
   13.2420    6.9000   22.5880 C   0  0  0  0  0  0  0  0  0  0  0  0
   13.5590    5.7370   21.8620 C   0  0  0  0  0  0  0  0  0  0  0  0
   12.9640    4.5450   22.1050 C   0  0  0  0  0  0  0  0  0  0  0  0
   12.0400    4.4420   23.0560 C   0  0  0  0  0  0  0  0  0  0  0  0
   12.1420    1.0380   22.8730 C   0  0  0  0  0  0  0  0  0  0  0  0
   11.6160   -0.2370   22.5100 C   0  0  0  0  0  0  0  0  0  0  0  0
    7.1990   -1.2040   20.9730 N   0  0  0  0  0  0  0  0  0  0  0  0
    6.4820   -0.4210   20.0280 C   0  0  0  0  0  0  0  0  0  0  0  0
    5.2690    0.1910   20.3630 C   0  0  0  0  0  0  0  0  0  0  0  0
    4.5970    0.9720   19.4110 C   0  0  0  0  0  0  0  0  0  0  0  0
    5.1610    1.1210   18.1450 C   0  0  0  0  0  0  0  0  0  0  0  0
    6.3190    0.5400   17.8070 N   0  0  0  0  0  0  0  0  0  0  0  0
    6.9460   -0.2100   18.7420 C   0  0  0  0  0  0  0  0  0  0  0  0
  1  2  2  0
  2  3  1  0
  3  4  1  0
  4  5  2  0
  5  6  1  0
  6  7  2  0
  7  8  1  0
  8  9  1  0
  9 10  2  0
 10 11  1  0
 11 12  1  0
 12 13  2  0
 13 14  1  0
 14 15  2  0
  8 16  1  0
 11 16  2  0
 15 16  1  0
  7 17  1  0
  4 18  1  0
 17 18  2  0
  2 19  1  0
 19 20  1  0
 20 21  2  0
 21 22  1  0
 22 23  2  0
 23 24  1  0
 20 25  1  0
 24 25  2  0
M  END
