pyridine_urea_2676
     RDKit          3D

 23 25  0  0  0  0  0  0  0  0999 V2000
    8.4990    0.7570   21.2250 O   0  0  0  0  0  0  0  0  0  0  0  0
    8.0020   -0.3220   21.4890 C   0  0  0  0  0  0  0  0  0  0  0  0
    8.5430   -1.2000   22.3860 N   0  0  0  0  0  0  0  0  0  0  0  0
    9.6530   -0.7100   23.1500 C   0  0  0  0  0  0  0  0  0  0  0  0
   10.9490   -0.5700   22.3160 C   0  0  0  0  0  0  0  0  0  0  0  0
   11.4250   -1.3520   23.4260 N   0  0  0  0  0  0  0  0  0  0  0  0
   11.8020   -2.6470   22.9670 C   0  0  0  0  0  0  0  0  0  0  0  0
   13.3140   -2.7620   23.0540 C   0  0  0  0  0  0  0  0  0  0  0  0
   13.7070   -3.0960   24.7720 S   0  0  0  0  0  0  0  0  0  0  0  0
   12.9390   -1.6180   25.2250 C   0  0  0  0  0  0  0  0  0  0  0  0
   12.6590   -0.8090   23.9980 C   0  0  0  0  0  0  0  0  0  0  0  0
   12.3140    0.1960   22.6570 C   0  0  0  0  0  0  0  0  0  0  0  0
   12.3680    1.6870   23.0850 C   0  0  0  0  0  0  0  0  0  0  0  0
   11.0720    2.5300   23.2350 C   0  0  0  0  0  0  0  0  0  0  0  0
    9.8390    1.6590   23.2390 C   0  0  0  0  0  0  0  0  0  0  0  0
   10.3690    0.8370   22.1890 C   0  0  0  0  0  0  0  0  0  0  0  0
    6.8510   -0.7850   20.9410 N   0  0  0  0  0  0  0  0  0  0  0  0
    6.2720   -0.0630   19.9110 C   0  0  0  0  0  0  0  0  0  0  0  0
    5.0620    0.5990   20.1230 C   0  0  0  0  0  0  0  0  0  0  0  0
    4.4980    1.3400   19.0830 C   0  0  0  0  0  0  0  0  0  0  0  0
    5.1720    1.3860   17.8790 C   0  0  0  0  0  0  0  0  0  0  0  0
    6.3340    0.7490   17.6640 N   0  0  0  0  0  0  0  0  0  0  0  0
    6.8510    0.0420   18.6780 C   0  0  0  0  0  0  0  0  0  0  0  0
  1  2  2  0
  2  3  1  0
  3  4  1  0
  5  4  1  0
  5  6  1  0
  6  7  1  0
  7  8  1  0
  8  9  1  0
  9 10  1  0
  6 11  1  0
 10 11  1  0
  5 12  1  0
 12 13  1  0
 13 14  1  0
 14 15  1  0
  5 16  1  0
 15 16  1  0
  2 17  1  0
 17 18  1  0
 18 19  2  0
 19 20  1  0
 20 21  2  0
 21 22  1  0
 18 23  1  0
 22 23  2  0
M  END
