pyridine_urea_8486
     RDKit          3D

 22 24  0  0  0  0  0  0  0  0999 V2000
    8.6630    0.6930   21.3370 O   0  0  0  0  0  0  0  0  0  0  0  0
    8.1930   -0.4270   21.4950 C   0  0  0  0  0  0  0  0  0  0  0  0
    6.9610   -0.7950   21.0510 N   0  0  0  0  0  0  0  0  0  0  0  0
    6.3540   -0.0990   20.0040 C   0  0  0  0  0  0  0  0  0  0  0  0
    5.1420    0.5630   20.2140 C   0  0  0  0  0  0  0  0  0  0  0  0
    4.5500    1.2760   19.1710 C   0  0  0  0  0  0  0  0  0  0  0  0
    5.1940    1.3020   17.9500 C   0  0  0  0  0  0  0  0  0  0  0  0
    6.3570    0.6670   17.7270 N   0  0  0  0  0  0  0  0  0  0  0  0
    6.9060   -0.0140   18.7460 C   0  0  0  0  0  0  0  0  0  0  0  0
    8.9160   -1.3930   22.1430 N   0  0  0  0  0  0  0  0  0  0  0  0
   10.1880   -0.8140   22.4300 C   0  0  0  0  0  0  0  0  0  0  0  0
   10.3880    0.4000   23.1900 C   0  0  0  0  0  0  0  0  0  0  0  0
   11.7390    0.5080   23.1210 N   0  0  0  0  0  0  0  0  0  0  0  0
   12.5610   -0.4000   22.4590 N   0  0  0  0  0  0  0  0  0  0  0  0
   13.1840    0.6340   23.0300 C   0  0  0  0  0  0  0  0  0  0  0  0
   12.8780    1.9570   22.6390 C   0  0  0  0  0  0  0  0  0  0  0  0
   11.6100    2.5500   22.8560 C   0  0  0  0  0  0  0  0  0  0  0  0
   11.3440    3.8760   22.4590 C   0  0  0  0  0  0  0  0  0  0  0  0
   12.3310    4.6280   21.8410 C   0  0  0  0  0  0  0  0  0  0  0  0
   13.5500    4.0600   21.6260 C   0  0  0  0  0  0  0  0  0  0  0  0
   13.8370    2.7560   22.0070 C   0  0  0  0  0  0  0  0  0  0  0  0
   11.5540   -1.2480   22.0380 C   0  0  0  0  0  0  0  0  0  0  0  0
  1  2  2  0
  2  3  1  0
  3  4  1  0
  4  5  2  0
  5  6  1  0
  6  7  2  0
  7  8  1  0
  4  9  1  0
  8  9  2  0
  2 10  1  0
 10 11  1  0
 11 12  1  0
 12 13  2  0
 13 14  1  0
 14 15  1  0
 15 16  1  0
 16 17  2  0
 17 18  1  0
 18 19  2  0
 19 20  1  0
 16 21  1  0
 20 21  2  0
 11 22  2  0
 14 22  1  0
M  END
