pyridine_urea_5805
     RDKit          3D

 25 27  0  0  0  0  0  0  0  0999 V2000
    8.6320    0.9520   21.2820 O   0  0  0  0  0  0  0  0  0  0  0  0
    8.2550   -0.2090   21.1850 C   0  0  0  0  0  0  0  0  0  0  0  0
    6.8670   -0.5710   21.0140 N   0  0  0  0  0  0  0  0  0  0  0  0
    6.2650    0.0900   19.9810 C   0  0  0  0  0  0  0  0  0  0  0  0
    5.0810    0.7870   20.1750 C   0  0  0  0  0  0  0  0  0  0  0  0
    4.5240    1.4550   19.0880 C   0  0  0  0  0  0  0  0  0  0  0  0
    5.1790    1.3950   17.8540 C   0  0  0  0  0  0  0  0  0  0  0  0
    6.3200    0.7160   17.6660 N   0  0  0  0  0  0  0  0  0  0  0  0
    6.8400    0.0750   18.7300 C   0  0  0  0  0  0  0  0  0  0  0  0
    9.0220   -1.3240   21.1920 N   0  0  0  0  0  0  0  0  0  0  0  0
    9.5690   -1.7290   22.4300 C   0  0  1  0  0  0  0  0  0  0  0  0
   11.0230   -1.3620   22.3830 C   0  0  0  0  0  0  0  0  0  0  0  0
   12.1860   -2.0790   22.1110 C   0  0  0  0  0  0  0  0  0  0  0  0
   13.3390   -1.3590   22.1840 N   0  0  0  0  0  0  0  0  0  0  0  0
   12.8530   -0.1610   22.5000 C   0  0  0  0  0  0  0  0  0  0  0  0
   13.4660    1.1710   22.7480 C   0  0  0  0  0  0  0  0  0  0  0  0
   12.6630    2.4210   23.0740 C   0  0  0  0  0  0  0  0  0  0  0  0
   11.3400    2.1530   23.1210 C   0  0  0  0  0  0  0  0  0  0  0  0
   11.7030    1.0210   22.8530 C   0  0  0  0  0  0  0  0  0  0  0  0
   13.0280    1.1390   22.7930 F   0  0  0  0  0  0  0  0  0  0  0  0
   11.5470   -0.1590   22.6070 C   0  0  0  0  0  0  0  0  0  0  0  0
    8.9260   -1.2170   23.5250 C   0  0  0  0  0  0  0  0  0  0  0  0
    9.4690   -0.0510   23.8740 F   0  0  0  0  0  0  0  0  0  0  0  0
    8.9190   -2.0820   24.5610 F   0  0  0  0  0  0  0  0  0  0  0  0
    7.6160   -0.9730   23.2790 F   0  0  0  0  0  0  0  0  0  0  0  0
  1  2  2  0
  2  3  1  0
  3  4  1  0
  4  5  2  0
  5  6  1  0
  6  7  2  0
  7  8  1  0
  4  9  1  0
  8  9  2  0
  2 10  1  0
 11 10  1  6
 11 12  1  0
 12 13  2  0
 13 14  1  0
 14 15  1  0
 15 16  1  0
 16 17  2  0
 17 18  1  0
 18 19  2  0
 19 20  1  0
 12 21  1  0
 15 21  2  0
 19 21  1  0
 11 22  1  0
 22 23  1  0
 22 24  1  0
 22 25  1  0
M  END
