pyridine_urea_12554
     RDKit          3D

 21 22  0  0  0  0  0  0  0  0999 V2000
   12.1540    0.4010   23.1840 C   0  0  0  0  0  0  0  0  0  0  0  0
   10.7870    0.1980   23.8880 C   0  0  1  0  0  0  0  0  0  0  0  0
    9.6960    0.9620   23.1640 C   0  0  0  0  0  0  0  0  0  0  0  0
    8.7710    0.0160   22.5830 N   0  0  0  0  0  0  0  0  0  0  0  0
    8.2120    0.3780   21.4250 C   0  0  0  0  0  0  0  0  0  0  0  0
    8.6040    1.4020   20.8710 O   0  0  0  0  0  0  0  0  0  0  0  0
    7.1580   -0.4940   20.9860 N   0  0  0  0  0  0  0  0  0  0  0  0
    6.4310    0.1070   20.0210 C   0  0  0  0  0  0  0  0  0  0  0  0
    5.2310    0.7410   20.3260 C   0  0  0  0  0  0  0  0  0  0  0  0
    4.5130    1.4200   19.1840 C   0  0  0  0  0  0  0  0  0  0  0  0
    5.1550    1.3500   17.8320 C   0  0  0  0  0  0  0  0  0  0  0  0
    6.3140    0.6980   17.6460 N   0  0  0  0  0  0  0  0  0  0  0  0
    6.9010    0.1100   18.7160 C   0  0  0  0  0  0  0  0  0  0  0  0
   10.4030   -0.9180   23.6820 O   0  0  0  0  0  0  0  0  0  0  0  0
   11.5450   -1.6220   23.5310 C   0  0  0  0  0  0  0  0  0  0  0  0
   12.2050   -1.8860   24.8130 C   0  0  0  0  0  0  0  0  0  0  0  0
   13.4820   -2.6300   24.6830 C   0  0  0  0  0  0  0  0  0  0  0  0
   13.8920   -2.9750   23.4140 C   0  0  0  0  0  0  0  0  0  0  0  0
   13.1890   -2.6780   22.2600 C   0  0  0  0  0  0  0  0  0  0  0  0
   12.0370   -2.0170   22.3430 C   0  0  0  0  0  0  0  0  0  0  0  0
   11.4490   -1.7900   21.1910 F   0  0  0  0  0  0  0  0  0  0  0  0
  2  1  1  6
  2  3  1  0
  3  4  1  0
  4  5  1  0
  5  6  2  0
  5  7  1  0
  7  8  1  0
  8  9  2  0
  9 10  1  0
 10 11  2  0
 11 12  1  0
  8 13  1  0
 12 13  2  0
  2 14  1  0
 14 15  1  0
 15 16  2  0
 16 17  1  0
 17 18  2  0
 18 19  1  0
 15 20  1  0
 19 20  2  0
 20 21  1  0
M  END
