pyridine_urea_6107
     RDKit          3D

 25 27  0  0  0  0  0  0  0  0999 V2000
   13.9650    3.6120   22.3800 C   0  0  0  0  0  0  0  0  0  0  0  0
   13.0450    2.5770   22.5550 C   0  0  1  0  0  0  0  0  0  0  0  0
   13.8500    1.3060   22.7760 O   0  0  0  0  0  0  0  0  0  0  0  0
   13.2710   -0.0800   22.8610 C   0  0  0  0  0  0  0  0  0  0  0  0
   12.3120    0.1360   22.1480 C   0  0  0  0  0  0  0  0  0  0  0  0
   11.1910   -0.6220   21.9040 C   0  0  0  0  0  0  0  0  0  0  0  0
   10.9910   -1.8360   22.4170 C   0  0  0  0  0  0  0  0  0  0  0  0
    9.6400   -2.2790   21.9940 N   0  0  0  0  0  0  0  0  0  0  0  0
    8.7300   -1.2390   21.5310 C   0  0  0  0  0  0  0  0  0  0  0  0
    9.1980    0.0500   21.5350 O   0  0  0  0  0  0  0  0  0  0  0  0
    7.3360   -1.4720   21.0810 N   0  0  0  0  0  0  0  0  0  0  0  0
    6.6930   -0.6020   20.1500 C   0  0  0  0  0  0  0  0  0  0  0  0
    5.5510    0.1150   20.5400 C   0  0  0  0  0  0  0  0  0  0  0  0
    4.9020    0.9730   19.6260 C   0  0  0  0  0  0  0  0  0  0  0  0
    5.4090    1.1000   18.3420 C   0  0  0  0  0  0  0  0  0  0  0  0
    6.4960    0.4320   17.9400 N   0  0  0  0  0  0  0  0  0  0  0  0
    7.1090   -0.3970   18.8360 C   0  0  0  0  0  0  0  0  0  0  0  0
   12.2190   -2.2870   23.2440 C   0  0  0  0  0  0  0  0  0  0  0  0
   13.3650   -1.3760   23.4600 C   0  0  0  0  0  0  0  0  0  0  0  0
   12.1720    3.6870   22.9280 C   0  0  0  0  0  0  0  0  0  0  0  0
   10.8160    3.7850   22.5340 C   0  0  0  0  0  0  0  0  0  0  0  0
   10.0290    4.8940   22.8930 C   0  0  0  0  0  0  0  0  0  0  0  0
   10.5650    5.9430   23.6420 C   0  0  0  0  0  0  0  0  0  0  0  0
   11.9030    5.8850   24.0340 C   0  0  0  0  0  0  0  0  0  0  0  0
   12.6810    4.7830   23.6750 C   0  0  0  0  0  0  0  0  0  0  0  0
  2  1  1  1
  2  3  1  0
  3  4  1  0
  4  5  2  0
  5  6  1  0
  6  7  2  0
  7  8  1  0
  8  9  1  0
  9 10  2  0
  9 11  1  0
 11 12  1  0
 12 13  2  0
 13 14  1  0
 14 15  2  0
 15 16  1  0
 12 17  1  0
 16 17  2  0
  7 18  1  0
  4 19  1  0
 18 19  2  0
  2 20  1  0
 20 21  2  0
 21 22  1  0
 22 23  2  0
 23 24  1  0
 20 25  1  0
 24 25  2  0
M  END
