pyridine_urea_6716
     RDKit          3D

 21 22  0  0  0  0  0  0  0  0999 V2000
   10.3220   -1.6630   24.0530 C   0  0  0  0  0  0  0  0  0  0  0  0
   10.5010   -1.1230   22.6230 C   0  0  2  0  0  0  0  0  0  0  0  0
    9.2680   -1.3870   21.8700 N   0  0  0  0  0  0  0  0  0  0  0  0
    8.5030   -0.3130   21.4640 C   0  0  0  0  0  0  0  0  0  0  0  0
    8.9280    0.8340   21.4420 O   0  0  0  0  0  0  0  0  0  0  0  0
    7.2330   -0.6770   21.0770 N   0  0  0  0  0  0  0  0  0  0  0  0
    6.5580   -0.0310   20.0330 C   0  0  0  0  0  0  0  0  0  0  0  0
    5.3050    0.7450   20.2980 C   0  0  0  0  0  0  0  0  0  0  0  0
    4.6390    1.4090   19.2780 C   0  0  0  0  0  0  0  0  0  0  0  0
    5.1130    1.3810   17.9620 C   0  0  0  0  0  0  0  0  0  0  0  0
    6.3190    0.6160   17.7350 N   0  0  0  0  0  0  0  0  0  0  0  0
    6.9710   -0.0390   18.7360 C   0  0  0  0  0  0  0  0  0  0  0  0
   11.8130   -1.6140   21.8780 C   0  0  0  0  0  0  0  0  0  0  0  0
   11.7980   -2.5800   21.1100 C   0  0  0  0  0  0  0  0  0  0  0  0
   12.9750   -1.8310   21.3850 C   0  0  0  0  0  0  0  0  0  0  0  0
   12.0990   -0.9500   22.3590 C   0  0  0  0  0  0  0  0  0  0  0  0
   11.8190    0.2530   23.4470 S   0  0  0  0  0  0  0  0  0  0  0  0
   12.5510   -1.0220   24.3820 C   0  0  0  0  0  0  0  0  0  0  0  0
   10.3710    0.3350   23.6440 O   0  0  0  0  0  0  0  0  0  0  0  0
   13.3960   -0.2080   22.5910 C   0  0  0  0  0  0  0  0  0  0  0  0
   13.2010   -1.1900   21.8390 C   0  0  0  0  0  0  0  0  0  0  0  0
  2  1  1  1
  2  3  1  0
  3  4  1  0
  4  5  2  0
  4  6  1  0
  6  7  1  0
  7  8  2  0
  8  9  1  0
  9 10  2  0
 10 11  1  0
  7 12  1  0
 11 12  2  0
  2 13  1  0
 13 14  2  0
 14 15  1  0
 15 16  2  0
 16 17  1  0
 17 18  1  1
 17 19  2  0
 16 20  1  0
 13 21  1  0
 20 21  2  0
M  END
