pyridine_urea_10071
     RDKit          3D

 23 25  0  0  0  0  0  0  0  0999 V2000
   12.9310    5.0760   21.6450 C   0  0  0  0  0  0  0  0  0  0  0  0
   12.2440    4.8760   22.6210 O   0  0  0  0  0  0  0  0  0  0  0  0
   11.7830    3.6030   22.7850 C   0  0  0  0  0  0  0  0  0  0  0  0
   10.4270    3.3790   22.9630 C   0  0  0  0  0  0  0  0  0  0  0  0
    9.9250    2.0890   23.1530 C   0  0  0  0  0  0  0  0  0  0  0  0
   10.7940    0.9940   23.1650 C   0  0  0  0  0  0  0  0  0  0  0  0
   12.1670    1.0900   22.9730 C   0  0  0  0  0  0  0  0  0  0  0  0
   12.6660    2.5290   22.7780 C   0  0  0  0  0  0  0  0  0  0  0  0
   13.0380   -0.0160   22.9570 C   0  0  0  0  0  0  0  0  0  0  0  0
   12.5160   -1.3000   23.1470 C   0  0  0  0  0  0  0  0  0  0  0  0
   11.5480   -1.7410   22.2430 C   0  0  0  0  0  0  0  0  0  0  0  0
   10.4490   -0.9120   22.2130 C   0  0  1  0  0  0  0  0  0  0  0  0
    9.1700   -1.3260   21.8570 N   0  0  0  0  0  0  0  0  0  0  0  0
    8.3010   -0.3610   21.4100 C   0  0  0  0  0  0  0  0  0  0  0  0
    8.6530    0.8110   21.3450 O   0  0  0  0  0  0  0  0  0  0  0  0
    7.0640   -0.8160   21.0260 N   0  0  0  0  0  0  0  0  0  0  0  0
    6.3930   -0.0890   19.9720 C   0  0  0  0  0  0  0  0  0  0  0  0
    5.1940    0.5840   20.1980 C   0  0  0  0  0  0  0  0  0  0  0  0
    4.5410    1.3070   19.2130 C   0  0  0  0  0  0  0  0  0  0  0  0
    5.1400    1.3360   17.9610 C   0  0  0  0  0  0  0  0  0  0  0  0
    6.2950    0.6940   17.6960 N   0  0  0  0  0  0  0  0  0  0  0  0
    6.8850    0.0050   18.6920 C   0  0  0  0  0  0  0  0  0  0  0  0
   10.3620   -0.2790   23.3860 C   0  0  0  0  0  0  0  0  0  0  0  0
  1  2  1  0
  2  3  1  0
  3  4  2  0
  4  5  1  0
  5  6  2  0
  6  7  1  0
  3  8  1  0
  7  8  2  0
  7  9  1  0
  9 10  1  0
 10 11  1  0
 11 12  1  0
 12 13  1  1
 13 14  1  0
 14 15  2  0
 14 16  1  0
 16 17  1  0
 17 18  2  0
 18 19  1  0
 19 20  2  0
 20 21  1  0
 17 22  1  0
 21 22  2  0
  6 23  1  0
 12 23  1  0
M  END
