pyridine_urea_12347
     RDKit          3D

 22 23  0  0  0  0  0  0  0  0999 V2000
    8.0190    0.9090   24.9610 C   0  0  0  0  0  0  0  0  0  0  0  0
    9.3590    0.6950   25.1960 N   0  0  0  0  0  0  0  0  0  0  0  0
    9.8340   -0.5070   25.8530 C   0  0  0  0  0  0  0  0  0  0  0  0
   10.2630    1.1320   24.1140 C   0  0  0  0  0  0  0  0  0  0  0  0
   10.6120    0.2210   23.1110 C   0  0  2  0  0  0  0  0  0  0  0  0
    9.7460   -1.0410   23.0030 C   0  0  0  0  0  0  0  0  0  0  0  0
    9.0770   -1.3210   21.8660 N   0  0  0  0  0  0  0  0  0  0  0  0
    8.3210   -0.3040   21.4230 C   0  0  0  0  0  0  0  0  0  0  0  0
    8.7230    0.8500   21.3540 O   0  0  0  0  0  0  0  0  0  0  0  0
    7.0760   -0.7200   21.0390 N   0  0  0  0  0  0  0  0  0  0  0  0
    6.3920   -0.0060   19.9890 C   0  0  0  0  0  0  0  0  0  0  0  0
    5.0950    0.7290   20.3820 C   0  0  0  0  0  0  0  0  0  0  0  0
    4.4800    1.4710   19.1830 C   0  0  0  0  0  0  0  0  0  0  0  0
    5.1730    1.4000   17.8410 C   0  0  0  0  0  0  0  0  0  0  0  0
    6.3200    0.6840   17.6840 N   0  0  0  0  0  0  0  0  0  0  0  0
    6.9200   -0.0040   18.7130 C   0  0  0  0  0  0  0  0  0  0  0  0
   11.9890    0.0410   22.9010 C   0  0  0  0  0  0  0  0  0  0  0  0
   12.9660    0.8880   23.1570 C   0  0  0  0  0  0  0  0  0  0  0  0
   12.9780   -0.3620   22.6220 C   0  0  0  0  0  0  0  0  0  0  0  0
   11.5660   -0.7520   22.5900 C   0  0  0  0  0  0  0  0  0  0  0  0
   11.9880   -1.8750   22.0640 C   0  0  0  0  0  0  0  0  0  0  0  0
   13.0490   -1.0790   22.3110 C   0  0  0  0  0  0  0  0  0  0  0  0
  1  2  1  0
  2  3  1  0
  2  4  1  0
  5  4  1  1
  5  6  1  0
  6  7  1  0
  7  8  1  0
  8  9  2  0
  8 10  1  0
 10 11  1  0
 11 12  2  0
 12 13  1  0
 13 14  2  0
 14 15  1  0
 11 16  1  0
 15 16  2  0
  5 17  1  0
 17 18  2  0
 18 19  1  0
 19 20  2  0
 20 21  1  0
 17 22  1  0
 21 22  2  0
M  END
