pyridine_urea_1643
     RDKit          3D

 19 20  0  0  0  0  0  0  0  0999 V2000
    8.8210    1.1020   21.1230 O   0  0  0  0  0  0  0  0  0  0  0  0
    8.2330    0.0360   21.3590 C   0  0  0  0  0  0  0  0  0  0  0  0
    8.7090   -1.0270   22.0250 N   0  0  0  0  0  0  0  0  0  0  0  0
    9.9350   -1.1500   22.6070 C   0  0  0  0  0  0  0  0  0  0  0  0
   11.1140   -1.2820   21.9260 C   0  0  0  0  0  0  0  0  0  0  0  0
   12.2920   -1.4000   22.6080 C   0  0  0  0  0  0  0  0  0  0  0  0
   12.2220   -1.4020   23.9750 C   0  0  0  0  0  0  0  0  0  0  0  0
   13.3430   -1.5530   24.6760 C   0  0  0  0  0  0  0  0  0  0  0  0
   13.5440   -2.8820   24.8600 C   0  0  0  0  0  0  0  0  0  0  0  0
   12.2510   -3.4490   24.8340 O   0  0  0  0  0  0  0  0  0  0  0  0
   11.0390   -1.2780   24.6810 C   0  0  0  0  0  0  0  0  0  0  0  0
    9.8650   -1.1400   24.0680 C   0  0  0  0  0  0  0  0  0  0  0  0
    6.9690   -0.3020   20.9980 N   0  0  0  0  0  0  0  0  0  0  0  0
    6.2870    0.3070   19.9730 C   0  0  0  0  0  0  0  0  0  0  0  0
    5.1040    1.0100   20.1190 C   0  0  0  0  0  0  0  0  0  0  0  0
    4.5290    1.5940   19.0060 C   0  0  0  0  0  0  0  0  0  0  0  0
    5.1700    1.4440   17.7990 C   0  0  0  0  0  0  0  0  0  0  0  0
    6.3100    0.7620   17.6320 N   0  0  0  0  0  0  0  0  0  0  0  0
    6.8420    0.2060   18.7190 C   0  0  0  0  0  0  0  0  0  0  0  0
  1  2  2  0
  2  3  1  0
  3  4  1  0
  4  5  2  0
  5  6  1  0
  6  7  2  0
  7  8  1  0
  8  9  1  0
  9 10  1  0
  7 11  1  0
  4 12  1  0
 11 12  2  0
  2 13  1  0
 13 14  1  0
 14 15  2  0
 15 16  1  0
 16 17  2  0
 17 18  1  0
 14 19  1  0
 18 19  2  0
M  END
