pyridine_urea_13560
     RDKit          3D

 30 33  0  0  0  0  0  0  0  0999 V2000
    8.7710    0.8630   21.2790 O   0  0  0  0  0  0  0  0  0  0  0  0
    8.3700   -0.2830   21.4490 C   0  0  0  0  0  0  0  0  0  0  0  0
    7.1920   -0.7810   20.9650 N   0  0  0  0  0  0  0  0  0  0  0  0
    6.4170   -0.0610   20.0520 C   0  0  0  0  0  0  0  0  0  0  0  0
    5.0890    0.6410   20.3770 C   0  0  0  0  0  0  0  0  0  0  0  0
    4.4660    1.3770   19.1920 C   0  0  0  0  0  0  0  0  0  0  0  0
    5.1980    1.3330   17.8890 C   0  0  0  0  0  0  0  0  0  0  0  0
    6.3570    0.6760   17.7200 N   0  0  0  0  0  0  0  0  0  0  0  0
    6.9100    0.0230   18.7610 C   0  0  0  0  0  0  0  0  0  0  0  0
    9.1010   -1.1920   22.1590 N   0  0  0  0  0  0  0  0  0  0  0  0
   10.4030   -0.7500   22.5740 C   0  0  0  0  0  0  0  0  0  0  0  0
   11.5330   -1.4460   22.1810 C   0  0  0  0  0  0  0  0  0  0  0  0
   12.7750   -0.9930   22.5670 C   0  0  0  0  0  0  0  0  0  0  0  0
   12.8770    0.1440   23.3420 C   0  0  0  0  0  0  0  0  0  0  0  0
   11.7340    0.8570   23.7570 C   0  0  0  0  0  0  0  0  0  0  0  0
   10.4490    0.3990   23.3620 C   0  0  0  0  0  0  0  0  0  0  0  0
    9.3130    1.1440   23.7770 O   0  0  0  0  0  0  0  0  0  0  0  0
    8.8390    0.9110   25.1240 C   0  0  0  0  0  0  0  0  0  0  0  0
    8.1870    2.1130   25.3110 C   0  0  0  0  0  0  0  0  0  0  0  0
    7.1070    2.3700   26.0540 N   0  0  0  0  0  0  0  0  0  0  0  0
    7.0040    3.7750   25.7750 C   0  0  0  0  0  0  0  0  0  0  0  0
    8.0530    4.1080   24.9060 C   0  0  0  0  0  0  0  0  0  0  0  0
    8.2690    5.3860   24.4230 C   0  0  0  0  0  0  0  0  0  0  0  0
    7.9600    5.7030   22.9530 C   0  0  0  0  0  0  0  0  0  0  0  0
    8.2360    7.1410   22.5370 C   0  0  0  0  0  0  0  0  0  0  0  0
    8.7310    8.0390   23.4810 C   0  0  0  0  0  0  0  0  0  0  0  0
    8.9920    7.6770   24.8080 C   0  0  0  0  0  0  0  0  0  0  0  0
    9.6070    8.8660   25.8890 Cl  0  0  0  0  0  0  0  0  0  0  0  0
    8.7680    6.3800   25.2780 C   0  0  0  0  0  0  0  0  0  0  0  0
    8.8060    3.1730   24.5790 O   0  0  0  0  0  0  0  0  0  0  0  0
  1  2  2  0
  2  3  1  0
  3  4  1  0
  4  5  2  0
  5  6  1  0
  6  7  2  0
  7  8  1  0
  4  9  1  0
  8  9  2  0
  2 10  1  0
 10 11  1  0
 11 12  2  0
 12 13  1  0
 13 14  2  0
 14 15  1  0
 11 16  1  0
 15 16  2  0
 16 17  1  0
 17 18  1  0
 18 19  1  0
 19 20  2  0
 20 21  1  0
 21 22  2  0
 22 23  1  0
 23 24  2  0
 24 25  1  0
 25 26  2  0
 26 27  1  0
 27 28  1  0
 23 29  1  0
 27 29  2  0
 19 30  1  0
 22 30  1  0
M  END
