pyridine_urea_5820
     RDKit          3D

 22 24  0  0  0  0  0  0  0  0999 V2000
   11.3970   -2.9930   24.0240 C   0  0  0  0  0  0  0  0  0  0  0  0
   12.5090   -2.2300   24.6410 C   0  0  0  0  0  0  0  0  0  0  0  0
   13.5180   -2.8400   25.3560 C   0  0  0  0  0  0  0  0  0  0  0  0
   13.2980   -1.6560   23.4840 C   0  0  0  0  0  0  0  0  0  0  0  0
   12.0160   -1.2880   25.2410 O   0  0  0  0  0  0  0  0  0  0  0  0
   11.4780   -0.2600   24.5420 C   0  0  2  0  0  0  0  0  0  0  0  0
   10.0960    0.1060   24.6630 C   0  0  0  0  0  0  0  0  0  0  0  0
   10.1780    0.1860   23.1720 C   0  0  2  0  0  0  0  0  0  0  0  0
    9.2090   -0.4530   22.3820 N   0  0  0  0  0  0  0  0  0  0  0  0
    8.4840    0.2360   21.4450 C   0  0  0  0  0  0  0  0  0  0  0  0
    8.8090    1.3730   21.0900 O   0  0  0  0  0  0  0  0  0  0  0  0
    7.3290   -0.4840   20.9670 N   0  0  0  0  0  0  0  0  0  0  0  0
    6.5490    0.0920   20.0220 C   0  0  0  0  0  0  0  0  0  0  0  0
    5.3720    0.7840   20.3230 C   0  0  0  0  0  0  0  0  0  0  0  0
    4.6420    1.3760   19.2880 C   0  0  0  0  0  0  0  0  0  0  0  0
    5.1150    1.2540   17.9990 C   0  0  0  0  0  0  0  0  0  0  0  0
    6.2320    0.5920   17.6650 N   0  0  0  0  0  0  0  0  0  0  0  0
    6.9350    0.0130   18.7130 C   0  0  0  0  0  0  0  0  0  0  0  0
   11.5330   -0.2990   23.1470 C   0  0  0  0  0  0  0  0  0  0  0  0
   12.1500   -1.2820   22.4360 C   0  0  0  0  0  0  0  0  0  0  0  0
   13.2030   -0.4580   22.2860 C   0  0  0  0  0  0  0  0  0  0  0  0
   12.6260    0.7430   22.7490 C   0  0  0  0  0  0  0  0  0  0  0  0
  1  2  1  0
  2  3  1  0
  2  4  1  0
  2  5  1  0
  6  5  1  1
  6  7  1  0
  7  8  1  0
  8  9  1  6
  9 10  1  0
 10 11  2  0
 10 12  1  0
 12 13  1  0
 13 14  2  0
 14 15  1  0
 15 16  2  0
 16 17  1  0
 13 18  1  0
 17 18  2  0
  6 19  1  0
  8 19  1  0
 19 20  1  0
 20 21  1  0
 19 22  1  0
 21 22  1  0
M  END
