pyridine_urea_14234
     RDKit          3D

 22 24  0  0  0  0  0  0  0  0999 V2000
   11.6890   -2.4160   22.0310 C   0  0  0  0  0  0  0  0  0  0  0  0
   11.5800   -0.9870   22.3830 C   0  0  0  0  0  0  0  0  0  0  0  0
   12.7920   -0.3380   22.6240 C   0  0  0  0  0  0  0  0  0  0  0  0
   12.8320    1.0170   22.9340 C   0  0  0  0  0  0  0  0  0  0  0  0
   11.6540    1.7570   23.0150 C   0  0  0  0  0  0  0  0  0  0  0  0
   11.6010    3.1700   23.2970 N   0  0  0  0  0  0  0  0  0  0  0  0
   12.5270    3.9730   22.6440 C   0  0  0  0  0  0  0  0  0  0  0  0
   11.9770    5.3570   22.9610 C   0  0  0  0  0  0  0  0  0  0  0  0
   10.6440    5.0780   23.6530 C   0  0  0  0  0  0  0  0  0  0  0  0
   10.3500    3.7280   23.5430 C   0  0  0  0  0  0  0  0  0  0  0  0
   10.4690    1.0950   22.7940 C   0  0  0  0  0  0  0  0  0  0  0  0
   10.4050   -0.2420   22.4790 C   0  0  0  0  0  0  0  0  0  0  0  0
    9.2010   -0.8380   22.2300 N   0  0  0  0  0  0  0  0  0  0  0  0
    8.2770   -0.1490   21.4190 C   0  0  0  0  0  0  0  0  0  0  0  0
    8.4930    1.0070   21.0810 O   0  0  0  0  0  0  0  0  0  0  0  0
    7.1890   -0.8440   21.0570 N   0  0  0  0  0  0  0  0  0  0  0  0
    6.4520   -0.1300   20.0900 C   0  0  0  0  0  0  0  0  0  0  0  0
    5.2500    0.5690   20.3200 C   0  0  0  0  0  0  0  0  0  0  0  0
    4.6180    1.2570   19.2690 C   0  0  0  0  0  0  0  0  0  0  0  0
    5.2040    1.2320   18.0100 C   0  0  0  0  0  0  0  0  0  0  0  0
    6.3360    0.5710   17.7820 N   0  0  0  0  0  0  0  0  0  0  0  0
    6.9500   -0.1000   18.7940 C   0  0  0  0  0  0  0  0  0  0  0  0
  1  2  1  0
  2  3  2  0
  3  4  1  0
  4  5  2  0
  5  6  1  0
  6  7  1  0
  7  8  1  0
  8  9  1  0
  6 10  1  0
  9 10  1  0
  5 11  1  0
  2 12  1  0
 11 12  2  0
 12 13  1  0
 13 14  1  0
 14 15  2  0
 14 16  1  0
 16 17  1  0
 17 18  2  0
 18 19  1  0
 19 20  2  0
 20 21  1  0
 17 22  1  0
 21 22  2  0
M  END
