pyridine_urea_2406
     RDKit          3D

 25 28  0  0  0  0  0  0  0  0999 V2000
    8.4060    0.5130   21.2290 O   0  0  0  0  0  0  0  0  0  0  0  0
    8.0260   -0.6140   21.5290 C   0  0  0  0  0  0  0  0  0  0  0  0
    8.7630   -1.4770   22.3230 N   0  0  0  0  0  0  0  0  0  0  0  0
   10.0150   -0.9210   22.4110 C   0  0  0  0  0  0  0  0  0  0  0  0
    9.9260    0.4040   22.7450 C   0  0  0  0  0  0  0  0  0  0  0  0
   11.0200    1.1490   22.7950 C   0  0  0  0  0  0  0  0  0  0  0  0
   12.2110    0.5740   22.5150 C   0  0  0  0  0  0  0  0  0  0  0  0
   13.1530    1.4760   22.5720 C   0  0  0  0  0  0  0  0  0  0  0  0
   12.7610    2.8120   22.7380 C   0  0  0  0  0  0  0  0  0  0  0  0
   13.8350    3.4750   23.0360 N   0  0  0  0  0  0  0  0  0  0  0  0
   14.4740    4.6850   23.6230 C   0  0  0  0  0  0  0  0  0  0  0  0
   16.2230    4.7440   24.3640 C   0  0  0  0  0  0  0  0  0  0  0  0
   17.3510    3.8800   24.3380 C   0  0  0  0  0  0  0  0  0  0  0  0
   16.9290    2.7230   23.4900 C   0  0  0  0  0  0  0  0  0  0  0  0
   15.0420    2.4170   22.7810 C   0  0  0  0  0  0  0  0  0  0  0  0
   14.4630    1.1840   22.5400 N   0  0  0  0  0  0  0  0  0  0  0  0
   12.3810   -0.7870   22.2200 C   0  0  0  0  0  0  0  0  0  0  0  0
   11.2320   -1.5590   22.1620 C   0  0  0  0  0  0  0  0  0  0  0  0
    6.8260   -1.0540   21.0380 N   0  0  0  0  0  0  0  0  0  0  0  0
    6.2600   -0.2790   20.0080 C   0  0  0  0  0  0  0  0  0  0  0  0
    5.0590    0.3960   20.2270 C   0  0  0  0  0  0  0  0  0  0  0  0
    4.5110    1.1760   19.2080 C   0  0  0  0  0  0  0  0  0  0  0  0
    5.1830    1.2620   17.9920 C   0  0  0  0  0  0  0  0  0  0  0  0
    6.3370    0.6190   17.7630 N   0  0  0  0  0  0  0  0  0  0  0  0
    6.8490   -0.1310   18.7640 C   0  0  0  0  0  0  0  0  0  0  0  0
  1  2  2  0
  2  3  1  0
  3  4  1  0
  4  5  2  0
  5  6  1  0
  6  7  2  0
  7  8  1  0
  8  9  2  0
  9 10  1  0
 10 11  1  0
 11 12  2  0
 12 13  1  0
 13 14  2  0
 10 15  1  0
 14 15  1  0
  8 16  1  0
 15 16  2  0
  7 17  1  0
  4 18  1  0
 17 18  2  0
  2 19  1  0
 19 20  1  0
 20 21  2  0
 21 22  1  0
 22 23  2  0
 23 24  1  0
 20 25  1  0
 24 25  2  0
M  END
