pyridine_urea_5938
     RDKit          3D

 27 29  0  0  0  0  0  0  0  0999 V2000
    8.4660    0.3780   20.8570 O   0  0  0  0  0  0  0  0  0  0  0  0
    8.0570   -0.6990   21.2740 C   0  0  0  0  0  0  0  0  0  0  0  0
    6.7310   -1.1200   20.9230 N   0  0  0  0  0  0  0  0  0  0  0  0
    6.1980   -0.2800   19.9570 C   0  0  0  0  0  0  0  0  0  0  0  0
    4.9820    0.3670   20.1490 C   0  0  0  0  0  0  0  0  0  0  0  0
    4.5040    1.2040   19.1390 C   0  0  0  0  0  0  0  0  0  0  0  0
    5.2600    1.3670   17.9720 C   0  0  0  0  0  0  0  0  0  0  0  0
    6.4370    0.7480   17.7750 N   0  0  0  0  0  0  0  0  0  0  0  0
    6.8800   -0.0610   18.7720 C   0  0  0  0  0  0  0  0  0  0  0  0
    8.7880   -1.5430   22.0790 N   0  0  0  0  0  0  0  0  0  0  0  0
    9.9090   -0.7430   22.4130 C   0  0  0  0  0  0  0  0  0  0  0  0
    9.5240    0.6580   22.6960 C   0  0  0  0  0  0  0  0  0  0  0  0
   10.4110    1.5880   22.9820 C   0  0  0  0  0  0  0  0  0  0  0  0
    9.7220    3.1420   23.2420 Cl  0  0  0  0  0  0  0  0  0  0  0  0
   11.7640    1.3610   23.0560 C   0  0  0  0  0  0  0  0  0  0  0  0
   12.5630    2.4010   23.3530 N   0  0  0  0  0  0  0  0  0  0  0  0
   11.9560    3.5960   23.9790 C   0  0  0  0  0  0  0  0  0  0  0  0
   11.0120    3.6890   24.7560 O   0  0  0  0  0  0  0  0  0  0  0  0
   12.6070    4.6910   23.6210 C   0  0  0  0  0  0  0  0  0  0  0  0
   13.3780    4.5850   22.5150 C   0  0  0  0  0  0  0  0  0  0  0  0
   14.0700    5.6640   22.1200 C   0  0  0  0  0  0  0  0  0  0  0  0
   14.0610    6.8550   22.7390 N   0  0  0  0  0  0  0  0  0  0  0  0
   13.2750    6.9530   23.8360 C   0  0  0  0  0  0  0  0  0  0  0  0
   12.5300    5.8920   24.3190 C   0  0  0  0  0  0  0  0  0  0  0  0
   12.2030   -0.1090   22.7860 C   0  0  0  0  0  0  0  0  0  0  0  0
   13.8180   -0.6040   22.8400 Cl  0  0  0  0  0  0  0  0  0  0  0  0
   11.3680   -1.1940   22.4630 C   0  0  0  0  0  0  0  0  0  0  0  0
  1  2  2  0
  2  3  1  0
  3  4  1  0
  4  5  2  0
  5  6  1  0
  6  7  2  0
  7  8  1  0
  4  9  1  0
  8  9  2  0
  2 10  1  0
 10 11  1  0
 11 12  2  0
 12 13  1  0
 13 14  1  0
 13 15  2  0
 15 16  1  0
 16 17  1  0
 17 18  2  0
 17 19  1  0
 19 20  2  0
 20 21  1  0
 21 22  2  0
 22 23  1  0
 19 24  1  0
 23 24  2  0
 15 25  1  0
 25 26  1  0
 11 27  1  0
 25 27  2  0
M  END
