pyridine_urea_10469
     RDKit          3D

 22 24  0  0  0  0  0  0  0  0999 V2000
   12.7740   -2.7550   20.7610 O   0  0  0  0  0  0  0  0  0  0  0  0
   12.6200   -2.4920   21.9380 C   0  0  0  0  0  0  0  0  0  0  0  0
   13.6940   -1.9870   22.8430 C   0  0  0  0  0  0  0  0  0  0  0  0
   13.2420   -1.0750   23.9550 C   0  0  0  0  0  0  0  0  0  0  0  0
   11.8790   -0.6370   23.6860 C   0  0  0  0  0  0  0  0  0  0  0  0
   11.4060    0.6800   24.1550 C   0  0  0  0  0  0  0  0  0  0  0  0
   10.1260    0.9870   23.8780 C   0  0  0  0  0  0  0  0  0  0  0  0
    9.6090    2.1700   24.2760 F   0  0  0  0  0  0  0  0  0  0  0  0
    9.3460    0.1010   23.1890 C   0  0  0  0  0  0  0  0  0  0  0  0
    8.0340    0.4290   22.9060 N   0  0  0  0  0  0  0  0  0  0  0  0
    7.9410    0.5760   21.5870 C   0  0  0  0  0  0  0  0  0  0  0  0
    8.6580    1.3790   20.9800 O   0  0  0  0  0  0  0  0  0  0  0  0
    6.9970   -0.2430   21.0780 N   0  0  0  0  0  0  0  0  0  0  0  0
    6.3590    0.2780   20.0070 C   0  0  0  0  0  0  0  0  0  0  0  0
    5.1810    0.9980   20.1310 C   0  0  0  0  0  0  0  0  0  0  0  0
    4.5310    1.5780   19.0430 C   0  0  0  0  0  0  0  0  0  0  0  0
    5.1020    1.4190   17.7720 C   0  0  0  0  0  0  0  0  0  0  0  0
    6.2170    0.7330   17.5400 N   0  0  0  0  0  0  0  0  0  0  0  0
    6.8270    0.1870   18.5870 C   0  0  0  0  0  0  0  0  0  0  0  0
    9.7970   -1.0840   22.7500 C   0  0  0  0  0  0  0  0  0  0  0  0
   11.0380   -1.4580   22.9870 C   0  0  0  0  0  0  0  0  0  0  0  0
   11.4720   -2.5890   22.5560 N   0  0  0  0  0  0  0  0  0  0  0  0
  1  2  2  0
  2  3  1  0
  3  4  1  0
  4  5  1  0
  5  6  1  0
  6  7  2  0
  7  8  1  0
  7  9  1  0
  9 10  1  0
 10 11  1  0
 11 12  2  0
 11 13  1  0
 13 14  1  0
 14 15  2  0
 15 16  1  0
 16 17  2  0
 17 18  1  0
 14 19  1  0
 18 19  2  0
  9 20  2  0
  5 21  2  0
 20 21  1  0
  2 22  1  0
 21 22  1  0
M  END
