pyridine_urea_4992
     RDKit          3D

 21 22  0  0  0  0  0  0  0  0999 V2000
   12.7800    0.7900   22.7630 O   0  0  0  0  0  0  0  0  0  0  0  0
   11.5820    0.9240   22.9370 C   0  0  0  0  0  0  0  0  0  0  0  0
   10.7100   -0.2150   23.3940 C   0  0  0  0  0  0  0  0  0  0  0  0
   10.4100   -1.2140   22.4800 C   0  0  0  0  0  0  0  0  0  0  0  0
    8.9680   -1.2550   22.3100 N   0  0  0  0  0  0  0  0  0  0  0  0
    8.3660   -0.2850   21.5420 C   0  0  0  0  0  0  0  0  0  0  0  0
    8.9210    0.7640   21.2580 O   0  0  0  0  0  0  0  0  0  0  0  0
    7.0170   -0.6850   21.1370 N   0  0  0  0  0  0  0  0  0  0  0  0
    6.4190   -0.0280   20.0970 C   0  0  0  0  0  0  0  0  0  0  0  0
    5.1270    0.7250   20.3440 C   0  0  0  0  0  0  0  0  0  0  0  0
    4.5640    1.3830   19.2800 C   0  0  0  0  0  0  0  0  0  0  0  0
    5.2550    1.3230   17.9270 C   0  0  0  0  0  0  0  0  0  0  0  0
    6.4060    0.6380   17.7360 N   0  0  0  0  0  0  0  0  0  0  0  0
    6.9540   -0.0140   18.8050 C   0  0  0  0  0  0  0  0  0  0  0  0
   10.8940    2.1130   22.7510 N   0  0  0  0  0  0  0  0  0  0  0  0
   11.3610    3.3970   22.7820 C   0  0  0  0  0  0  0  0  0  0  0  0
   10.5740    4.5110   23.0780 C   0  0  0  0  0  0  0  0  0  0  0  0
   11.1570    5.7880   23.0720 C   0  0  0  0  0  0  0  0  0  0  0  0
   12.5060    5.9270   22.7730 C   0  0  0  0  0  0  0  0  0  0  0  0
   13.2140    4.7670   22.4950 C   0  0  0  0  0  0  0  0  0  0  0  0
   12.6750    3.5280   22.4940 N   0  0  0  0  0  0  0  0  0  0  0  0
  1  2  2  0
  2  3  1  0
  3  4  1  0
  4  5  1  0
  5  6  1  0
  6  7  2  0
  6  8  1  0
  8  9  1  0
  9 10  2  0
 10 11  1  0
 11 12  2  0
 12 13  1  0
  9 14  1  0
 13 14  2  0
  2 15  1  0
 15 16  1  0
 16 17  2  0
 17 18  1  0
 18 19  2  0
 19 20  1  0
 16 21  1  0
 20 21  2  0
M  END
