pyridine_urea_10917
     RDKit          3D

 19 20  0  0  0  0  0  0  0  0999 V2000
    9.4930    1.4010   24.3970 C   0  0  0  0  0  0  0  0  0  0  0  0
   10.4640    0.6210   23.5620 C   0  0  0  0  0  0  0  0  0  0  0  0
   10.2000   -0.7150   23.2530 C   0  0  1  0  0  0  0  0  0  0  0  0
    8.7870   -0.7600   22.8060 N   0  0  0  0  0  0  0  0  0  0  0  0
    8.3050   -0.1620   21.6860 C   0  0  0  0  0  0  0  0  0  0  0  0
    8.8770    0.8520   21.2980 O   0  0  0  0  0  0  0  0  0  0  0  0
    7.1440   -0.7740   21.0620 N   0  0  0  0  0  0  0  0  0  0  0  0
    6.5060   -0.0830   20.0560 C   0  0  0  0  0  0  0  0  0  0  0  0
    5.2430    0.6840   20.4280 C   0  0  0  0  0  0  0  0  0  0  0  0
    4.5790    1.4390   19.2840 C   0  0  0  0  0  0  0  0  0  0  0  0
    5.2050    1.3730   17.9240 C   0  0  0  0  0  0  0  0  0  0  0  0
    6.3340    0.6430   17.7370 N   0  0  0  0  0  0  0  0  0  0  0  0
    6.9820   -0.0720   18.7460 C   0  0  0  0  0  0  0  0  0  0  0  0
   11.3020   -1.0690   22.4620 C   0  0  0  0  0  0  0  0  0  0  0  0
   11.7180   -2.3550   22.7160 C   0  0  0  0  0  0  0  0  0  0  0  0
   12.2270   -2.4240   23.9980 C   0  0  0  0  0  0  0  0  0  0  0  0
   12.2520   -1.3840   24.6240 O   0  0  0  0  0  0  0  0  0  0  0  0
   12.7520   -0.2270   23.9630 C   0  0  0  0  0  0  0  0  0  0  0  0
   12.3500   -0.1820   22.6470 C   0  0  0  0  0  0  0  0  0  0  0  0
  1  2  3  0
  3  2  1  6
  3  4  1  0
  4  5  1  0
  5  6  2  0
  5  7  1  0
  7  8  1  0
  8  9  2  0
  9 10  1  0
 10 11  2  0
 11 12  1  0
  8 13  1  0
 12 13  2  0
  3 14  1  0
 14 15  1  0
 15 16  1  0
 16 17  1  0
 17 18  1  0
 14 19  1  0
 18 19  1  0
M  END
