pyridine_urea_12709
     RDKit          3D

 20 22  0  0  0  0  0  0  0  0999 V2000
    8.3260    1.6730   21.1680 O   0  0  0  0  0  0  0  0  0  0  0  0
    8.3370    0.4900   21.4990 C   0  0  0  0  0  0  0  0  0  0  0  0
    7.2710   -0.3280   21.2410 N   0  0  0  0  0  0  0  0  0  0  0  0
    6.6000    0.1250   20.0560 C   0  0  0  0  0  0  0  0  0  0  0  0
    5.3500    0.9830   20.3010 C   0  0  0  0  0  0  0  0  0  0  0  0
    4.6430    1.5060   19.2280 C   0  0  0  0  0  0  0  0  0  0  0  0
    5.1150    1.2210   17.9520 C   0  0  0  0  0  0  0  0  0  0  0  0
    6.2250    0.4430   17.7700 N   0  0  0  0  0  0  0  0  0  0  0  0
    6.9860   -0.1220   18.7960 C   0  0  0  0  0  0  0  0  0  0  0  0
    9.4230   -0.0950   22.0420 N   0  0  0  0  0  0  0  0  0  0  0  0
   10.6600   -0.5170   22.2910 C   0  0  2  0  0  0  0  0  0  0  0  0
   11.0800   -1.7470   21.7440 C   0  0  0  0  0  0  0  0  0  0  0  0
   11.7500   -2.5120   22.6640 C   0  0  0  0  0  0  0  0  0  0  0  0
   12.0840   -1.7040   23.6460 C   0  0  0  0  0  0  0  0  0  0  0  0
   12.9830   -1.9680   24.7840 C   0  0  0  0  0  0  0  0  0  0  0  0
   13.0240   -0.7170   25.5680 C   0  0  0  0  0  0  0  0  0  0  0  0
   12.3630   -0.9060   24.5090 C   0  0  0  0  0  0  0  0  0  0  0  0
   13.2900   -2.5070   24.9400 Br  0  0  0  0  0  0  0  0  0  0  0  0
   11.7950    0.3010   24.3680 C   0  0  0  0  0  0  0  0  0  0  0  0
   11.4350   -0.4650   23.4450 C   0  0  0  0  0  0  0  0  0  0  0  0
  1  2  2  0
  2  3  1  0
  3  4  1  0
  4  5  2  0
  5  6  1  0
  6  7  2  0
  7  8  1  0
  4  9  1  0
  8  9  2  0
  2 10  1  0
 11 10  1  1
 11 12  1  0
 12 13  1  0
 13 14  1  0
 14 15  1  0
 15 16  2  0
 16 17  1  0
 17 18  1  0
 17 19  2  0
 11 20  1  0
 14 20  2  0
 19 20  1  0
M  END
