pyridine_urea_12183
     RDKit          3D

 23 24  0  0  0  0  0  0  0  0999 V2000
   11.7460    7.4370   25.8530 C   0  0  0  0  0  0  0  0  0  0  0  0
   11.4050    6.2100   25.0190 C   0  0  0  0  0  0  0  0  0  0  0  0
   10.2370    5.5620   25.4010 C   0  0  0  0  0  0  0  0  0  0  0  0
    9.8510    4.4500   24.7170 C   0  0  0  0  0  0  0  0  0  0  0  0
    8.8490    3.4980   24.6760 C   0  0  0  0  0  0  0  0  0  0  0  0
   10.5140    3.7470   23.5460 C   0  0  0  0  0  0  0  0  0  0  0  0
   10.0600    2.5300   22.8600 N   0  0  0  0  0  0  0  0  0  0  0  0
   10.8690    1.4130   22.8350 C   0  0  0  0  0  0  0  0  0  0  0  0
   12.0770    1.5420   22.7060 O   0  0  0  0  0  0  0  0  0  0  0  0
   10.3810   -0.0480   23.0060 C   0  0  0  0  0  0  0  0  0  0  0  0
    9.4130   -0.5700   22.1660 N   0  0  0  0  0  0  0  0  0  0  0  0
    8.4510    0.1290   21.4160 C   0  0  0  0  0  0  0  0  0  0  0  0
    8.6390    1.4370   21.0340 O   0  0  0  0  0  0  0  0  0  0  0  0
    7.3270   -0.5510   21.0710 N   0  0  0  0  0  0  0  0  0  0  0  0
    6.5760    0.0600   20.1230 C   0  0  0  0  0  0  0  0  0  0  0  0
    5.4060    0.8100   20.3410 C   0  0  0  0  0  0  0  0  0  0  0  0
    4.7400    1.4010   19.2590 C   0  0  0  0  0  0  0  0  0  0  0  0
    5.1870    1.2850   17.9490 C   0  0  0  0  0  0  0  0  0  0  0  0
    6.3060    0.5510   17.7900 N   0  0  0  0  0  0  0  0  0  0  0  0
    6.9880   -0.0470   18.8000 C   0  0  0  0  0  0  0  0  0  0  0  0
   11.7010    4.3900   23.1250 C   0  0  0  0  0  0  0  0  0  0  0  0
   12.5610    4.0540   22.1040 C   0  0  0  0  0  0  0  0  0  0  0  0
   12.1110    5.6740   23.9390 C   0  0  0  0  0  0  0  0  0  0  0  0
  1  2  1  0
  2  3  2  0
  3  4  1  0
  4  5  1  0
  4  6  2  0
  6  7  1  0
  7  8  1  0
  8  9  2  0
  8 10  1  0
 10 11  1  0
 11 12  1  0
 12 13  2  0
 12 14  1  0
 14 15  1  0
 15 16  2  0
 16 17  1  0
 17 18  2  0
 18 19  1  0
 15 20  1  0
 19 20  2  0
  6 21  1  0
 21 22  1  0
  2 23  1  0
 21 23  2  0
M  END
