pyridine_urea_14233
     RDKit          3D

 22 24  0  0  0  0  0  0  0  0999 V2000
   13.3960   -1.3210   21.7720 C   0  0  0  0  0  0  0  0  0  0  0  0
   13.2290   -0.3750   22.8680 N   0  0  0  0  0  0  0  0  0  0  0  0
   13.5430    0.9510   22.7650 C   0  0  0  0  0  0  0  0  0  0  0  0
   14.6630    1.2190   22.5470 O   0  0  0  0  0  0  0  0  0  0  0  0
   12.6620    2.0630   22.8750 C   0  0  0  0  0  0  0  0  0  0  0  0
   11.6100    1.8820   23.4050 O   0  0  0  0  0  0  0  0  0  0  0  0
   11.1260    0.6790   23.1010 C   0  0  0  0  0  0  0  0  0  0  0  0
    9.7800    0.5790   23.0440 C   0  0  0  0  0  0  0  0  0  0  0  0
    9.2880   -0.7670   22.6620 C   0  0  0  0  0  0  0  0  0  0  0  0
    7.9850   -0.8480   22.5640 N   0  0  0  0  0  0  0  0  0  0  0  0
    7.5400   -0.2240   21.4260 C   0  0  0  0  0  0  0  0  0  0  0  0
    8.0930    0.7980   21.0150 O   0  0  0  0  0  0  0  0  0  0  0  0
    6.5170   -0.8510   20.8770 N   0  0  0  0  0  0  0  0  0  0  0  0
    6.0300   -0.0870   19.9110 C   0  0  0  0  0  0  0  0  0  0  0  0
    4.8850    0.6930   20.0320 C   0  0  0  0  0  0  0  0  0  0  0  0
    4.4400    1.4910   18.9680 C   0  0  0  0  0  0  0  0  0  0  0  0
    5.1460    1.5070   17.7770 C   0  0  0  0  0  0  0  0  0  0  0  0
    6.2900    0.7130   17.6760 N   0  0  0  0  0  0  0  0  0  0  0  0
    6.7250   -0.0700   18.7240 C   0  0  0  0  0  0  0  0  0  0  0  0
   10.2100   -1.8920   22.3860 C   0  0  0  0  0  0  0  0  0  0  0  0
   11.5150   -1.6680   22.4860 C   0  0  0  0  0  0  0  0  0  0  0  0
   11.8820   -0.4030   22.8370 C   0  0  0  0  0  0  0  0  0  0  0  0
  1  2  1  0
  2  3  1  0
  3  4  2  0
  3  5  1  0
  5  6  1  0
  6  7  1  0
  7  8  1  0
  8  9  2  0
  9 10  1  0
 10 11  1  0
 11 12  2  0
 11 13  1  0
 13 14  1  0
 14 15  2  0
 15 16  1  0
 16 17  2  0
 17 18  1  0
 14 19  1  0
 18 19  2  0
  9 20  1  0
 20 21  2  0
  2 22  1  0
  7 22  2  0
 21 22  1  0
M  END
