pyridine_urea_10062
     RDKit          3D

 24 26  0  0  0  0  0  0  0  0999 V2000
    8.5560    0.4460   21.0680 O   0  0  0  0  0  0  0  0  0  0  0  0
    8.1080   -0.5730   21.5790 C   0  0  0  0  0  0  0  0  0  0  0  0
    8.8190   -1.2240   22.5970 N   0  0  0  0  0  0  0  0  0  0  0  0
    9.9410   -0.4310   22.7160 C   0  0  0  0  0  0  0  0  0  0  0  0
   11.2880   -0.7320   22.5660 C   0  0  0  0  0  0  0  0  0  0  0  0
   12.2180    0.3140   22.6300 C   0  0  0  0  0  0  0  0  0  0  0  0
   11.7710    1.6430   22.8360 C   0  0  0  0  0  0  0  0  0  0  0  0
   12.5150    2.7290   22.8160 N   0  0  0  0  0  0  0  0  0  0  0  0
   13.6920    2.2770   22.6300 C   0  0  0  0  0  0  0  0  0  0  0  0
   13.7920    1.0480   22.4820 O   0  0  0  0  0  0  0  0  0  0  0  0
   14.9050    3.0900   23.0170 C   0  0  0  0  0  0  0  0  0  0  0  0
   14.7990    4.4750   23.7390 C   0  0  0  0  0  0  0  0  0  0  0  0
   16.4920    4.5870   24.3990 C   0  0  0  0  0  0  0  0  0  0  0  0
   17.6120    3.6770   24.2260 C   0  0  0  0  0  0  0  0  0  0  0  0
   17.0320    2.5660   23.2580 O   0  0  0  0  0  0  0  0  0  0  0  0
   10.4730    1.9170   23.0410 C   0  0  0  0  0  0  0  0  0  0  0  0
    9.5120    0.8560   22.9830 C   0  0  0  0  0  0  0  0  0  0  0  0
    6.8990   -1.0410   21.1290 N   0  0  0  0  0  0  0  0  0  0  0  0
    6.3450   -0.3240   20.1130 C   0  0  0  0  0  0  0  0  0  0  0  0
    5.1280    0.3450   20.3110 C   0  0  0  0  0  0  0  0  0  0  0  0
    4.5590    1.1020   19.2740 C   0  0  0  0  0  0  0  0  0  0  0  0
    5.2140    1.1820   18.0510 C   0  0  0  0  0  0  0  0  0  0  0  0
    6.3760    0.5580   17.8150 N   0  0  0  0  0  0  0  0  0  0  0  0
    6.9270   -0.1940   18.8600 C   0  0  0  0  0  0  0  0  0  0  0  0
  1  2  2  0
  2  3  1  0
  3  4  1  0
  4  5  2  0
  5  6  1  0
  6  7  2  0
  7  8  1  0
  8  9  1  0
  9 10  2  0
  9 11  1  0
 11 12  2  0
 12 13  1  0
 13 14  2  0
 11 15  1  0
 14 15  1  0
  7 16  1  0
  4 17  1  0
 16 17  2  0
  2 18  1  0
 18 19  1  0
 19 20  2  0
 20 21  1  0
 21 22  2  0
 22 23  1  0
 19 24  1  0
 23 24  2  0
M  END
