pyridine_urea_198
     RDKit          3D

 17 18  0  0  0  0  0  0  0  0999 V2000
    9.8720    0.8250   23.3200 C   0  0  0  0  0  0  0  0  0  0  0  0
   10.0330   -0.3540   23.2930 C   0  0  1  0  0  0  0  0  0  0  0  0
    8.9990   -0.9450   22.4520 N   0  0  0  0  0  0  0  0  0  0  0  0
    8.3700   -0.0170   21.5330 C   0  0  0  0  0  0  0  0  0  0  0  0
    8.9660    1.2430   21.1550 O   0  0  0  0  0  0  0  0  0  0  0  0
    7.1020   -0.4890   21.0650 N   0  0  0  0  0  0  0  0  0  0  0  0
    6.5060    0.0700   20.0070 C   0  0  0  0  0  0  0  0  0  0  0  0
    5.3770    0.7890   20.2890 C   0  0  0  0  0  0  0  0  0  0  0  0
    4.5810    1.5280   19.2180 C   0  0  0  0  0  0  0  0  0  0  0  0
    5.1050    1.4290   17.8450 C   0  0  0  0  0  0  0  0  0  0  0  0
    6.2460    0.6670   17.6820 N   0  0  0  0  0  0  0  0  0  0  0  0
    6.9420   -0.0020   18.7030 C   0  0  0  0  0  0  0  0  0  0  0  0
   11.3630   -0.7640   22.6460 C   0  0  0  0  0  0  0  0  0  0  0  0
   11.0460   -1.8360   21.8670 C   0  0  0  0  0  0  0  0  0  0  0  0
   12.0470   -2.3870   21.1750 N   0  0  0  0  0  0  0  0  0  0  0  0
   13.4380   -1.5480   21.4970 S   0  0  0  0  0  0  0  0  0  0  0  0
   12.7980   -0.3990   22.5860 C   0  0  0  0  0  0  0  0  0  0  0  0
  2  1  1  6
  2  3  1  0
  3  4  1  0
  4  5  2  0
  4  6  1  0
  6  7  1  0
  7  8  2  0
  8  9  1  0
  9 10  2  0
 10 11  1  0
  7 12  1  0
 11 12  2  0
  2 13  1  0
 13 14  1  0
 14 15  2  0
 15 16  1  0
 13 17  2  0
 16 17  1  0
M  END
