pyridine_urea_5326
     RDKit          3D

 19 21  0  0  0  0  0  0  0  0999 V2000
    8.8750    0.7940   21.3680 O   0  0  0  0  0  0  0  0  0  0  0  0
    8.3510   -0.3110   21.3580 C   0  0  0  0  0  0  0  0  0  0  0  0
    7.0460   -0.5760   21.0600 N   0  0  0  0  0  0  0  0  0  0  0  0
    6.4020    0.0640   20.0070 C   0  0  0  0  0  0  0  0  0  0  0  0
    5.2160    0.7620   20.2410 C   0  0  0  0  0  0  0  0  0  0  0  0
    4.5830    1.4170   19.1840 C   0  0  0  0  0  0  0  0  0  0  0  0
    5.1650    1.3450   17.9370 C   0  0  0  0  0  0  0  0  0  0  0  0
    6.3000    0.6710   17.6950 N   0  0  0  0  0  0  0  0  0  0  0  0
    6.8890    0.0480   18.7270 C   0  0  0  0  0  0  0  0  0  0  0  0
    9.0450   -1.4430   21.6540 N   0  0  0  0  0  0  0  0  0  0  0  0
   10.2250   -1.2270   22.4230 C   0  0  0  0  0  0  0  0  0  0  0  0
   11.7060   -1.3600   21.9750 C   0  0  0  0  0  0  0  0  0  0  0  0
   12.8270   -1.1120   22.8040 C   0  0  0  0  0  0  0  0  0  0  0  0
   12.6720   -0.7350   24.1280 C   0  0  0  0  0  0  0  0  0  0  0  0
   11.3890   -0.6180   24.5860 C   0  0  0  0  0  0  0  0  0  0  0  0
   11.1760   -0.3170   25.7320 O   0  0  0  0  0  0  0  0  0  0  0  0
    9.7900   -0.2510   25.9370 C   0  0  0  0  0  0  0  0  0  0  0  0
    9.1640   -0.5650   24.7780 C   0  0  0  0  0  0  0  0  0  0  0  0
   10.0990   -0.8380   23.8020 C   0  0  0  0  0  0  0  0  0  0  0  0
  1  2  2  0
  2  3  1  0
  3  4  1  0
  4  5  2  0
  5  6  1  0
  6  7  2  0
  7  8  1  0
  4  9  1  0
  8  9  2  0
  2 10  1  0
 10 11  1  0
 11 12  2  0
 12 13  1  0
 13 14  2  0
 14 15  1  0
 15 16  1  0
 16 17  1  0
 17 18  2  0
 11 19  1  0
 15 19  2  0
 18 19  1  0
M  END
