pyridine_urea_3702
     RDKit          3D

 23 24  0  0  0  0  0  0  0  0999 V2000
   10.9840   -2.8160   24.1730 C   0  0  0  0  0  0  0  0  0  0  0  0
    9.6210   -2.8410   23.8500 O   0  0  0  0  0  0  0  0  0  0  0  0
    9.1490   -1.5220   23.6070 C   0  0  0  0  0  0  0  0  0  0  0  0
    8.2390   -0.9990   24.2330 O   0  0  0  0  0  0  0  0  0  0  0  0
    9.8670   -0.8630   22.4440 C   0  0  1  0  0  0  0  0  0  0  0  0
   10.3380    0.5460   22.7540 C   0  0  0  0  0  0  0  0  0  0  0  0
   10.9730   -1.7430   21.8550 C   0  0  0  0  0  0  0  0  0  0  0  0
   12.1540   -1.7120   22.7100 C   0  0  0  0  0  0  0  0  0  0  0  0
   12.3020   -2.8570   23.6460 C   0  0  0  0  0  0  0  0  0  0  0  0
   13.4000   -2.6390   24.4040 C   0  0  0  0  0  0  0  0  0  0  0  0
   13.0700   -1.4570   25.0100 C   0  0  0  0  0  0  0  0  0  0  0  0
   12.8780   -0.4020   24.0810 C   0  0  0  0  0  0  0  0  0  0  0  0
   13.0650   -0.7350   22.7980 C   0  0  0  0  0  0  0  0  0  0  0  0
    9.0710   -0.7830   21.4240 N   0  0  0  0  0  0  0  0  0  0  0  0
    8.2600    0.2240   21.1710 C   0  0  0  0  0  0  0  0  0  0  0  0
    8.6380    1.5330   21.0490 O   0  0  0  0  0  0  0  0  0  0  0  0
    6.9990   -0.2370   21.0200 N   0  0  0  0  0  0  0  0  0  0  0  0
    6.2790    0.3190   20.0050 C   0  0  0  0  0  0  0  0  0  0  0  0
    5.0850    0.9880   20.0930 C   0  0  0  0  0  0  0  0  0  0  0  0
    4.4050    1.5940   18.9480 C   0  0  0  0  0  0  0  0  0  0  0  0
    5.0800    1.4330   17.7500 C   0  0  0  0  0  0  0  0  0  0  0  0
    6.2510    0.7630   17.6320 N   0  0  0  0  0  0  0  0  0  0  0  0
    6.8060    0.2330   18.7350 C   0  0  0  0  0  0  0  0  0  0  0  0
  1  2  1  0
  2  3  1  0
  3  4  2  0
  5  3  1  0
  5  6  1  1
  5  7  1  0
  7  8  1  0
  8  9  2  0
  9 10  1  0
 10 11  1  0
 11 12  1  0
  8 13  1  0
 12 13  1  0
  5 14  1  0
 14 15  1  0
 15 16  2  0
 15 17  1  0
 17 18  1  0
 18 19  2  0
 19 20  1  0
 20 21  2  0
 21 22  1  0
 18 23  1  0
 22 23  2  0
M  END
