pyridine_urea_2696
     RDKit          3D

 23 25  0  0  0  0  0  0  0  0999 V2000
    8.6850    0.7280   21.4460 O   0  0  0  0  0  0  0  0  0  0  0  0
    8.3160   -0.4180   21.7420 C   0  0  0  0  0  0  0  0  0  0  0  0
    7.1790   -0.9510   21.1360 N   0  0  0  0  0  0  0  0  0  0  0  0
    6.4970   -0.1790   20.0910 C   0  0  0  0  0  0  0  0  0  0  0  0
    5.1890    0.6190   20.4250 C   0  0  0  0  0  0  0  0  0  0  0  0
    4.5860    1.3400   19.3930 C   0  0  0  0  0  0  0  0  0  0  0  0
    5.2640    1.2890   18.0200 C   0  0  0  0  0  0  0  0  0  0  0  0
    6.3910    0.5830   17.7830 N   0  0  0  0  0  0  0  0  0  0  0  0
    6.9680   -0.1200   18.7920 C   0  0  0  0  0  0  0  0  0  0  0  0
    8.8910   -1.3420   22.6830 N   0  0  0  0  0  0  0  0  0  0  0  0
   10.3840   -1.4780   23.0020 C   0  0  0  0  0  0  0  0  0  0  0  0
   10.9270   -1.6090   21.6780 C   0  0  0  0  0  0  0  0  0  0  0  0
    9.8370   -0.6100   21.4470 C   0  0  0  0  0  0  0  0  0  0  0  0
    9.1760   -0.4900   22.7610 N   0  0  0  0  0  0  0  0  0  0  0  0
    9.3600   -1.6660   23.5540 C   0  0  0  0  0  0  0  0  0  0  0  0
   10.8370   -1.9250   23.9330 C   0  0  0  0  0  0  0  0  0  0  0  0
   11.8270   -0.7980   23.6650 C   0  0  0  0  0  0  0  0  0  0  0  0
   13.1370   -1.0080   24.0030 C   0  0  0  0  0  0  0  0  0  0  0  0
   13.4920   -2.2230   24.5760 C   0  0  0  0  0  0  0  0  0  0  0  0
   12.6460   -3.2240   24.8140 N   0  0  0  0  0  0  0  0  0  0  0  0
   11.3450   -3.0730   24.4900 C   0  0  0  0  0  0  0  0  0  0  0  0
    9.9590    0.5760   23.3970 C   0  0  0  0  0  0  0  0  0  0  0  0
   10.9180   -0.3540   23.6150 C   0  0  0  0  0  0  0  0  0  0  0  0
  1  2  2  0
  2  3  1  0
  3  4  1  0
  4  5  2  0
  5  6  1  0
  6  7  2  0
  7  8  1  0
  4  9  1  0
  8  9  2  0
  2 10  1  0
 10 11  1  0
 11 12  1  0
 12 13  1  0
 13 14  1  0
 14 15  1  0
 15 16  1  0
 16 17  2  0
 17 18  1  0
 18 19  2  0
 19 20  1  0
 16 21  1  0
 20 21  2  0
 14 22  1  0
 11 23  1  0
 22 23  1  0
M  END
