pyridine_urea_10340
     RDKit          3D

 22 24  0  0  0  0  0  0  0  0999 V2000
    8.8080    0.7500   21.3330 O   0  0  0  0  0  0  0  0  0  0  0  0
    8.2500   -0.3050   21.6090 C   0  0  0  0  0  0  0  0  0  0  0  0
    7.1280   -0.7920   20.9930 N   0  0  0  0  0  0  0  0  0  0  0  0
    6.3870   -0.0580   20.0610 C   0  0  0  0  0  0  0  0  0  0  0  0
    5.0770    0.6810   20.3800 C   0  0  0  0  0  0  0  0  0  0  0  0
    4.4740    1.4210   19.1890 C   0  0  0  0  0  0  0  0  0  0  0  0
    5.2030    1.3450   17.8870 C   0  0  0  0  0  0  0  0  0  0  0  0
    6.3450    0.6600   17.7220 N   0  0  0  0  0  0  0  0  0  0  0  0
    6.8860    0.0010   18.7690 C   0  0  0  0  0  0  0  0  0  0  0  0
    8.6840   -1.1440   22.6170 N   0  0  0  0  0  0  0  0  0  0  0  0
    9.7400   -0.7190   23.5040 C   0  0  0  0  0  0  0  0  0  0  0  0
   10.7750   -1.6730   23.4050 C   0  0  0  0  0  0  0  0  0  0  0  0
   11.8370   -1.3660   24.2300 C   0  0  0  0  0  0  0  0  0  0  0  0
   12.2060   -0.1110   24.2790 N   0  0  0  0  0  0  0  0  0  0  0  0
   12.8700    0.1460   22.8510 S   0  0  0  0  0  0  0  0  0  0  0  0
   11.7750    0.7350   22.1900 O   0  0  0  0  0  0  0  0  0  0  0  0
   14.1170    0.8010   22.8860 O   0  0  0  0  0  0  0  0  0  0  0  0
   13.1110   -1.6050   22.3900 C   0  0  0  0  0  0  0  0  0  0  0  0
   12.0810   -1.9980   21.7690 C   0  0  0  0  0  0  0  0  0  0  0  0
   13.2670   -2.0910   20.9070 C   0  0  0  0  0  0  0  0  0  0  0  0
   11.0800    0.6190   24.3620 C   0  0  0  0  0  0  0  0  0  0  0  0
   10.2040    0.5930   23.2840 C   0  0  0  0  0  0  0  0  0  0  0  0
  1  2  2  0
  2  3  1  0
  3  4  1  0
  4  5  2  0
  5  6  1  0
  6  7  2  0
  7  8  1  0
  4  9  1  0
  8  9  2  0
  2 10  1  0
 10 11  1  0
 11 12  1  0
 12 13  1  0
 13 14  1  0
 15 14  1  0
 15 16  2  0
 15 17  2  0
 15 18  1  0
 18 19  1  0
 18 20  1  0
 19 20  1  0
 14 21  1  0
 11 22  1  0
 21 22  1  0
M  END
