pyridine_urea_15255
     RDKit          3D

 16 16  0  0  0  0  0  0  0  0999 V2000
   13.2650   -2.0600   24.8740 C   0  0  0  0  0  0  0  0  0  0  0  0
   11.8440   -3.0080   24.3030 S   0  0  0  0  0  0  0  0  0  0  0  0
   10.5440   -1.7360   24.1390 C   0  0  0  0  0  0  0  0  0  0  0  0
   10.7120   -0.8960   22.8840 C   0  0  0  0  0  0  0  0  0  0  0  0
   11.4290    0.4030   23.1660 C   0  0  0  0  0  0  0  0  0  0  0  0
   11.5990   -1.7090   21.9280 C   0  0  0  0  0  0  0  0  0  0  0  0
    9.5820   -0.5720   22.1960 N   0  0  0  0  0  0  0  0  0  0  0  0
    8.6880    0.1810   21.4450 C   0  0  0  0  0  0  0  0  0  0  0  0
    8.9660    1.3480   21.1610 O   0  0  0  0  0  0  0  0  0  0  0  0
    7.5320   -0.4650   21.0600 N   0  0  0  0  0  0  0  0  0  0  0  0
    6.7060    0.0640   20.0460 C   0  0  0  0  0  0  0  0  0  0  0  0
    5.5240    0.7360   20.3870 C   0  0  0  0  0  0  0  0  0  0  0  0
    4.7130    1.2860   19.3870 C   0  0  0  0  0  0  0  0  0  0  0  0
    5.1190    1.1470   18.0790 C   0  0  0  0  0  0  0  0  0  0  0  0
    6.2340    0.5040   17.7200 N   0  0  0  0  0  0  0  0  0  0  0  0
    7.0030   -0.0160   18.7020 C   0  0  0  0  0  0  0  0  0  0  0  0
  1  2  1  0
  2  3  1  0
  3  4  1  0
  4  5  1  0
  4  6  1  0
  4  7  1  0
  7  8  1  0
  8  9  2  0
  8 10  1  0
 10 11  1  0
 11 12  2  0
 12 13  1  0
 13 14  2  0
 14 15  1  0
 11 16  1  0
 15 16  2  0
M  END
