pyridine_urea_3301
     RDKit          3D

 20 21  0  0  0  0  0  0  0  0999 V2000
    9.0260    1.1000   21.1960 O   0  0  0  0  0  0  0  0  0  0  0  0
    8.5950   -0.0420   21.3910 C   0  0  0  0  0  0  0  0  0  0  0  0
    9.2990   -1.0780   21.9580 N   0  0  0  0  0  0  0  0  0  0  0  0
    9.3080   -1.3490   23.3250 C   0  0  0  0  0  0  0  0  0  0  0  0
    8.5100   -0.4480   24.0300 C   0  0  0  0  0  0  0  0  0  0  0  0
    8.6540   -0.5580   25.2330 O   0  0  0  0  0  0  0  0  0  0  0  0
    7.7580    0.1280   26.0070 C   0  0  0  0  0  0  0  0  0  0  0  0
    7.2770   -0.7580   26.9370 C   0  0  0  0  0  0  0  0  0  0  0  0
    7.6180   -0.6040   28.4180 C   0  0  0  0  0  0  0  0  0  0  0  0
    7.1230   -1.5120   29.3540 C   0  0  0  0  0  0  0  0  0  0  0  0
    6.2330   -2.6610   28.8400 C   0  0  0  0  0  0  0  0  0  0  0  0
    5.9740   -2.7220   27.4740 C   0  0  0  0  0  0  0  0  0  0  0  0
    6.4590   -1.8280   26.5490 C   0  0  0  0  0  0  0  0  0  0  0  0
    7.3200   -0.4590   21.0710 N   0  0  0  0  0  0  0  0  0  0  0  0
    6.5730    0.1180   20.0370 C   0  0  0  0  0  0  0  0  0  0  0  0
    5.4150    0.8360   20.3540 C   0  0  0  0  0  0  0  0  0  0  0  0
    4.6770    1.4340   19.3310 C   0  0  0  0  0  0  0  0  0  0  0  0
    5.1380    1.2830   18.0370 C   0  0  0  0  0  0  0  0  0  0  0  0
    6.2400    0.5930   17.7040 N   0  0  0  0  0  0  0  0  0  0  0  0
    6.9400    0.0190   18.7030 C   0  0  0  0  0  0  0  0  0  0  0  0
  1  2  2  0
  2  3  1  0
  3  4  1  0
  4  5  1  0
  5  6  1  0
  6  7  1  0
  7  8  1  0
  8  9  2  0
  9 10  1  0
 10 11  2  0
 11 12  1  0
  8 13  1  0
 12 13  2  0
  2 14  1  0
 14 15  1  0
 15 16  2  0
 16 17  1  0
 17 18  2  0
 18 19  1  0
 15 20  1  0
 19 20  2  0
M  END
