pyridine_urea_3378
     RDKit          3D

 19 20  0  0  0  0  0  0  0  0999 V2000
   12.9100   -0.7960   24.1670 C   0  0  0  0  0  0  0  0  0  0  0  0
   12.3980   -0.7280   22.7730 C   0  0  0  0  0  0  0  0  0  0  0  0
   13.1460   -1.3250   21.7650 C   0  0  0  0  0  0  0  0  0  0  0  0
   11.0640   -1.4760   22.7410 C   0  0  0  0  0  0  0  0  0  0  0  0
   10.1620   -0.5960   23.2660 C   0  0  2  0  0  0  0  0  0  0  0  0
    9.9080   -0.8810   24.7480 C   0  0  0  0  0  0  0  0  0  0  0  0
    8.8790   -0.6020   22.6760 N   0  0  0  0  0  0  0  0  0  0  0  0
    8.4440    0.1450   21.5990 C   0  0  0  0  0  0  0  0  0  0  0  0
    8.9710    1.2060   21.2300 O   0  0  0  0  0  0  0  0  0  0  0  0
    7.2830   -0.5070   21.0180 N   0  0  0  0  0  0  0  0  0  0  0  0
    6.5750    0.0970   20.0150 C   0  0  0  0  0  0  0  0  0  0  0  0
    5.4220    0.8270   20.3290 C   0  0  0  0  0  0  0  0  0  0  0  0
    4.7100    1.4490   19.3140 C   0  0  0  0  0  0  0  0  0  0  0  0
    5.1770    1.3210   18.0140 C   0  0  0  0  0  0  0  0  0  0  0  0
    6.2700    0.6230   17.6920 N   0  0  0  0  0  0  0  0  0  0  0  0
    6.9400    0.0290   18.6940 C   0  0  0  0  0  0  0  0  0  0  0  0
   10.7150    0.6760   23.0820 C   0  0  0  0  0  0  0  0  0  0  0  0
   10.1420    1.9300   23.4530 O   0  0  0  0  0  0  0  0  0  0  0  0
   11.9490    0.5240   22.4750 O   0  0  0  0  0  0  0  0  0  0  0  0
  2  1  1  0
  2  3  1  0
  2  4  1  0
  4  5  1  0
  5  6  1  1
  5  7  1  0
  7  8  1  0
  8  9  2  0
  8 10  1  0
 10 11  1  0
 11 12  2  0
 12 13  1  0
 13 14  2  0
 14 15  1  0
 11 16  1  0
 15 16  2  0
  5 17  1  0
 17 18  2  0
  2 19  1  0
 17 19  1  0
M  END
