pyridine_urea_2930
     RDKit          3D

 22 23  0  0  0  0  0  0  0  0999 V2000
   12.1180    2.8470   22.7710 C   0  0  0  0  0  0  0  0  0  0  0  0
   11.4090    1.6630   22.4240 O   0  0  0  0  0  0  0  0  0  0  0  0
   11.8740    0.4700   23.0660 C   0  0  0  0  0  0  0  0  0  0  0  0
   13.0040    1.1610   22.7360 C   0  0  0  0  0  0  0  0  0  0  0  0
   13.2060   -0.0340   23.3770 C   0  0  0  0  0  0  0  0  0  0  0  0
   11.6020   -0.5760   23.5860 C   0  0  0  0  0  0  0  0  0  0  0  0
   10.3700   -0.0680   23.2230 C   0  0  0  0  0  0  0  0  0  0  0  0
    9.5030   -1.2010   22.7700 C   0  0  0  0  0  0  0  0  0  0  0  0
    8.6470   -1.6420   22.1810 N   0  0  0  0  0  0  0  0  0  0  0  0
    8.1130   -0.4960   21.4680 C   0  0  0  0  0  0  0  0  0  0  0  0
    8.8310    0.7230   21.2540 O   0  0  0  0  0  0  0  0  0  0  0  0
    6.7770   -0.7860   21.0480 N   0  0  0  0  0  0  0  0  0  0  0  0
    6.2740   -0.0840   19.9930 C   0  0  0  0  0  0  0  0  0  0  0  0
    4.9950    0.6970   20.3020 C   0  0  0  0  0  0  0  0  0  0  0  0
    4.4050    1.5100   19.1410 C   0  0  0  0  0  0  0  0  0  0  0  0
    5.1790    1.4320   17.8320 C   0  0  0  0  0  0  0  0  0  0  0  0
    6.3230    0.6760   17.7100 N   0  0  0  0  0  0  0  0  0  0  0  0
    6.8570   -0.0630   18.7520 C   0  0  0  0  0  0  0  0  0  0  0  0
   12.1530   -1.6450   24.1990 C   0  0  0  0  0  0  0  0  0  0  0  0
   12.2600   -2.8770   24.8730 O   0  0  0  0  0  0  0  0  0  0  0  0
   13.6030   -2.9890   25.3100 C   0  0  0  0  0  0  0  0  0  0  0  0
   12.7770   -0.5550   23.6400 C   0  0  0  0  0  0  0  0  0  0  0  0
  1  2  1  0
  2  3  1  0
  3  4  2  0
  4  5  1  0
  5  6  2  0
  6  7  1  0
  7  8  1  0
  8  9  1  0
  9 10  1  0
 10 11  2  0
 10 12  1  0
 12 13  1  0
 13 14  2  0
 14 15  1  0
 15 16  2  0
 16 17  1  0
 13 18  1  0
 17 18  2  0
  6 19  1  0
 19 20  1  0
 20 21  1  0
  3 22  1  0
 19 22  2  0
M  END
