pyridine_urea_13592
     RDKit          3D

 27 29  0  0  0  0  0  0  0  0999 V2000
    8.7480    0.3550   21.2460 O   0  0  0  0  0  0  0  0  0  0  0  0
    8.1340   -0.6890   21.4480 C   0  0  0  0  0  0  0  0  0  0  0  0
    8.6120   -1.7540   22.1710 N   0  0  0  0  0  0  0  0  0  0  0  0
    9.6700   -1.5750   23.0330 C   0  0  0  0  0  0  0  0  0  0  0  0
   10.0440   -0.1220   23.1090 C   0  0  0  0  0  0  0  0  0  0  0  0
   11.2180   -1.1120   22.8660 C   0  0  0  0  0  0  0  0  0  0  0  0
   12.6570   -0.8720   22.6920 C   0  0  0  0  0  0  0  0  0  0  0  0
   13.4030   -1.9900   22.4950 F   0  0  0  0  0  0  0  0  0  0  0  0
   13.1950    0.3370   22.7260 C   0  0  0  0  0  0  0  0  0  0  0  0
   12.3340    1.3490   22.9290 C   0  0  0  0  0  0  0  0  0  0  0  0
   10.9520    1.1490   23.0930 C   0  0  0  0  0  0  0  0  0  0  0  0
   10.1580    2.0790   23.2680 O   0  0  0  0  0  0  0  0  0  0  0  0
   10.6780    3.3820   23.5040 C   0  0  0  0  0  0  0  0  0  0  0  0
   10.1650    4.0410   24.6170 C   0  0  0  0  0  0  0  0  0  0  0  0
   10.5670    5.3280   24.9860 C   0  0  0  0  0  0  0  0  0  0  0  0
   11.5280    6.0490   24.2360 C   0  0  0  0  0  0  0  0  0  0  0  0
   11.8700    7.2930   24.6400 F   0  0  0  0  0  0  0  0  0  0  0  0
   12.0890    5.3200   23.0040 C   0  0  0  0  0  0  0  0  0  0  0  0
   13.2330    6.0920   22.0280 Cl  0  0  0  0  0  0  0  0  0  0  0  0
   11.7170    4.0570   22.6250 C   0  0  0  0  0  0  0  0  0  0  0  0
    6.8760   -0.9330   20.9870 N   0  0  0  0  0  0  0  0  0  0  0  0
    6.2660   -0.1250   19.9450 C   0  0  0  0  0  0  0  0  0  0  0  0
    5.0730    0.5480   20.2300 C   0  0  0  0  0  0  0  0  0  0  0  0
    4.4770    1.3310   19.2530 C   0  0  0  0  0  0  0  0  0  0  0  0
    5.1960    1.3960   17.9070 C   0  0  0  0  0  0  0  0  0  0  0  0
    6.3320    0.7320   17.6800 N   0  0  0  0  0  0  0  0  0  0  0  0
    6.8330   -0.0040   18.6900 C   0  0  0  0  0  0  0  0  0  0  0  0
  1  2  2  0
  2  3  1  0
  3  4  1  0
  4  5  1  0
  5  6  2  0
  6  7  1  0
  7  8  1  0
  7  9  2  0
  9 10  1  0
  5 11  1  0
 10 11  2  0
 11 12  1  0
 12 13  1  0
 13 14  2  0
 14 15  1  0
 15 16  2  0
 16 17  1  0
 16 18  1  0
 18 19  1  0
 13 20  1  0
 18 20  2  0
  2 21  1  0
 21 22  1  0
 22 23  2  0
 23 24  1  0
 24 25  2  0
 25 26  1  0
 22 27  1  0
 26 27  2  0
M  END
