pyridine_urea_8125
     RDKit          3D

 23 25  0  0  0  0  0  0  0  0999 V2000
    9.7130   -2.5140   21.9010 C   0  0  0  0  0  0  0  0  0  0  0  0
   10.6860   -2.8930   22.8620 O   0  0  0  0  0  0  0  0  0  0  0  0
   11.9400   -2.3180   22.5080 C   0  0  0  0  0  0  0  0  0  0  0  0
   12.9180   -2.8500   22.0110 O   0  0  0  0  0  0  0  0  0  0  0  0
   11.9310   -0.7980   22.8570 C   0  0  0  0  0  0  0  0  0  0  0  0
   12.9710    0.1610   22.6560 C   0  0  0  0  0  0  0  0  0  0  0  0
   12.7000    1.6300   23.1190 C   0  0  0  0  0  0  0  0  0  0  0  0
   11.4340    1.7360   23.6690 C   0  0  0  0  0  0  0  0  0  0  0  0
   11.9500    0.4940   23.1370 C   0  0  0  0  0  0  0  0  0  0  0  0
   10.6780   -0.1260   23.5300 C   0  0  0  0  0  0  0  0  0  0  0  0
   11.7000   -0.8850   22.8750 C   0  0  0  0  0  0  0  0  0  0  0  0
   10.3020   -0.4720   23.4590 C   0  0  2  0  0  0  0  0  0  0  0  0
    9.1370   -0.7520   22.5680 N   0  0  0  0  0  0  0  0  0  0  0  0
    8.5990    0.1160   21.6170 C   0  0  0  0  0  0  0  0  0  0  0  0
    9.1210    1.3550   21.2930 O   0  0  0  0  0  0  0  0  0  0  0  0
    7.4250   -0.4580   21.0460 N   0  0  0  0  0  0  0  0  0  0  0  0
    6.6040    0.1390   20.1090 C   0  0  0  0  0  0  0  0  0  0  0  0
    5.4500    0.8720   20.4070 C   0  0  0  0  0  0  0  0  0  0  0  0
    4.7320    1.4270   19.3500 C   0  0  0  0  0  0  0  0  0  0  0  0
    5.1790    1.2370   18.0630 C   0  0  0  0  0  0  0  0  0  0  0  0
    6.2690    0.5410   17.7340 N   0  0  0  0  0  0  0  0  0  0  0  0
    6.9520    0.0080   18.7690 C   0  0  0  0  0  0  0  0  0  0  0  0
   10.2820    0.9100   23.9350 C   0  0  0  0  0  0  0  0  0  0  0  0
  1  2  1  0
  2  3  1  0
  3  4  2  0
  3  5  1  0
  5  6  2  0
  6  7  1  0
  7  8  2  0
  8  9  1  0
  5 10  1  0
  9 10  2  0
  9 11  1  0
 11 12  1  0
 12 13  1  6
 13 14  1  0
 14 15  2  0
 14 16  1  0
 16 17  1  0
 17 18  2  0
 18 19  1  0
 19 20  2  0
 20 21  1  0
 17 22  1  0
 21 22  2  0
  8 23  1  0
 12 23  1  0
M  END
