pyridine_urea_12315
     RDKit          3D

 22 25  0  0  0  0  0  0  0  0999 V2000
    8.6160    0.7720   21.4820 O   0  0  0  0  0  0  0  0  0  0  0  0
    8.0990   -0.3350   21.5520 C   0  0  0  0  0  0  0  0  0  0  0  0
    8.7350   -1.4210   22.0730 N   0  0  0  0  0  0  0  0  0  0  0  0
   10.0530   -1.5570   21.5250 C   0  0  0  0  0  0  0  0  0  0  0  0
   11.1380   -1.1190   22.4380 C   0  0  2  0  0  0  0  0  0  0  0  0
   10.5880    0.0080   23.0500 C   0  0  0  0  0  0  0  0  0  0  0  0
   11.0220    0.1950   24.4340 C   0  0  1  0  0  0  0  0  0  0  0  0
   10.7600   -0.9340   25.1540 C   0  0  0  0  0  0  0  0  0  0  0  0
   11.6170   -2.1340   24.6350 C   0  0  2  0  0  0  0  0  0  0  0  0
   13.1410   -1.9270   24.5290 C   0  0  0  0  0  0  0  0  0  0  0  0
   12.7770   -0.8170   23.6380 C   0  0  1  0  0  0  0  0  0  0  0  0
   11.6410   -1.2100   23.7120 O   0  0  0  0  0  0  0  0  0  0  0  0
   12.3650    0.3340   24.4200 C   0  0  0  0  0  0  0  0  0  0  0  0
   12.7000   -0.8660   22.2970 C   0  0  0  0  0  0  0  0  0  0  0  0
   11.0800   -2.4160   23.3760 C   0  0  0  0  0  0  0  0  0  0  0  0
    6.8560   -0.6520   21.1100 N   0  0  0  0  0  0  0  0  0  0  0  0
    6.2060    0.0650   20.0270 C   0  0  0  0  0  0  0  0  0  0  0  0
    5.0270    0.7810   20.1100 C   0  0  0  0  0  0  0  0  0  0  0  0
    4.4760    1.4550   19.0360 C   0  0  0  0  0  0  0  0  0  0  0  0
    5.1720    1.3840   17.8460 C   0  0  0  0  0  0  0  0  0  0  0  0
    6.3260    0.6970   17.6960 N   0  0  0  0  0  0  0  0  0  0  0  0
    6.7970    0.0640   18.7850 C   0  0  0  0  0  0  0  0  0  0  0  0
  1  2  2  0
  2  3  1  0
  3  4  1  0
  5  4  1  6
  5  6  1  0
  7  6  1  6
  7  8  1  0
  9  8  1  6
  9 10  1  0
 10 11  1  0
 11 12  1  1
  7 13  1  0
 11 13  1  0
  5 14  1  0
 11 14  1  0
  5 15  1  0
  9 15  1  0
  2 16  1  0
 16 17  1  0
 17 18  2  0
 18 19  1  0
 19 20  2  0
 20 21  1  0
 17 22  1  0
 21 22  2  0
M  END
