pyridine_urea_8628
     RDKit          3D

 21 22  0  0  0  0  0  0  0  0999 V2000
    7.0510    1.4160   26.6820 C   0  0  0  0  0  0  0  0  0  0  0  0
    7.9020    0.1870   26.5540 C   0  0  0  0  0  0  0  0  0  0  0  0
    9.1120    0.5490   25.8650 O   0  0  0  0  0  0  0  0  0  0  0  0
    9.0250    1.3310   24.7390 C   0  0  0  0  0  0  0  0  0  0  0  0
   10.1170    1.2690   23.8720 C   0  0  0  0  0  0  0  0  0  0  0  0
   10.6450    0.0220   23.5900 C   0  0  0  0  0  0  0  0  0  0  0  0
    9.6290   -1.1080   23.6110 C   0  0  0  0  0  0  0  0  0  0  0  0
    9.0440   -1.3120   22.2980 N   0  0  0  0  0  0  0  0  0  0  0  0
    8.4150   -0.3100   21.5720 C   0  0  0  0  0  0  0  0  0  0  0  0
    8.9280    0.7820   21.3780 O   0  0  0  0  0  0  0  0  0  0  0  0
    7.1070   -0.7380   21.1010 N   0  0  0  0  0  0  0  0  0  0  0  0
    6.4820   -0.0580   20.0660 C   0  0  0  0  0  0  0  0  0  0  0  0
    5.3040    0.6590   20.3240 C   0  0  0  0  0  0  0  0  0  0  0  0
    4.6710    1.3550   19.2950 C   0  0  0  0  0  0  0  0  0  0  0  0
    5.2370    1.3150   18.0250 C   0  0  0  0  0  0  0  0  0  0  0  0
    6.3570    0.6320   17.7540 N   0  0  0  0  0  0  0  0  0  0  0  0
    6.9500   -0.0360   18.7660 C   0  0  0  0  0  0  0  0  0  0  0  0
   11.4150   -0.0480   22.4360 C   0  0  0  0  0  0  0  0  0  0  0  0
   12.5840   -0.7530   22.5830 C   0  0  0  0  0  0  0  0  0  0  0  0
   12.7910   -0.7800   23.9160 C   0  0  0  0  0  0  0  0  0  0  0  0
   11.7280   -0.0930   24.4670 C   0  0  0  0  0  0  0  0  0  0  0  0
  1  2  1  0
  2  3  1  0
  3  4  1  0
  4  5  1  0
  6  5  1  0
  6  7  1  0
  7  8  1  0
  8  9  1  0
  9 10  2  0
  9 11  1  0
 11 12  1  0
 12 13  2  0
 13 14  1  0
 14 15  2  0
 15 16  1  0
 12 17  1  0
 16 17  2  0
  6 18  1  0
 18 19  1  0
 19 20  1  0
  6 21  1  0
 20 21  1  0
M  END
