pyridine_urea_8101
     RDKit          3D

 24 25  0  0  0  0  0  0  0  0999 V2000
   10.5370    5.3200   23.0000 C   0  0  0  0  0  0  0  0  0  0  0  0
   10.7090    3.9880   23.7350 C   0  0  0  0  0  0  0  0  0  0  0  0
    9.4440    3.0900   23.4480 C   0  0  0  0  0  0  0  0  0  0  0  0
    8.1790    3.6030   23.7160 C   0  0  0  0  0  0  0  0  0  0  0  0
    9.3940    2.6270   21.9800 C   0  0  0  0  0  0  0  0  0  0  0  0
    9.5820    2.0400   24.0560 O   0  0  0  0  0  0  0  0  0  0  0  0
   10.2170    0.9400   23.5170 C   0  0  0  0  0  0  0  0  0  0  0  0
   11.6180    1.3410   23.1180 C   0  0  0  0  0  0  0  0  0  0  0  0
   12.4130    0.2910   22.5660 C   0  0  0  0  0  0  0  0  0  0  0  0
   13.7260    0.7930   22.2620 C   0  0  0  0  0  0  0  0  0  0  0  0
   11.9070   -0.9320   22.4120 C   0  0  0  0  0  0  0  0  0  0  0  0
   10.4980   -1.2560   22.8280 C   0  0  0  0  0  0  0  0  0  0  0  0
    9.4720   -0.2580   23.4760 C   0  0  0  0  0  0  0  0  0  0  0  0
    8.9800   -1.5190   23.3250 C   0  0  0  0  0  0  0  0  0  0  0  0
    8.4320   -1.6670   22.0760 N   0  0  0  0  0  0  0  0  0  0  0  0
    8.0200   -0.5940   21.3580 C   0  0  0  0  0  0  0  0  0  0  0  0
    8.7040    0.3930   21.1370 O   0  0  0  0  0  0  0  0  0  0  0  0
    6.7340   -0.7880   20.9540 N   0  0  0  0  0  0  0  0  0  0  0  0
    6.1740    0.0040   19.8750 C   0  0  0  0  0  0  0  0  0  0  0  0
    4.9920    0.6780   20.1020 C   0  0  0  0  0  0  0  0  0  0  0  0
    4.4990    1.4330   19.0390 C   0  0  0  0  0  0  0  0  0  0  0  0
    5.1660    1.4990   17.8200 C   0  0  0  0  0  0  0  0  0  0  0  0
    6.3100    0.8340   17.6180 N   0  0  0  0  0  0  0  0  0  0  0  0
    6.7830    0.1070   18.6460 C   0  0  0  0  0  0  0  0  0  0  0  0
  1  2  1  0
  2  3  1  0
  3  4  1  0
  3  5  1  0
  3  6  1  0
  6  7  1  0
  7  8  2  0
  8  9  1  0
  9 10  1  0
  9 11  2  0
 11 12  1  0
  7 13  1  0
 12 13  2  0
 13 14  1  0
 14 15  1  0
 15 16  1  0
 16 17  2  0
 16 18  1  0
 18 19  1  0
 19 20  2  0
 20 21  1  0
 21 22  2  0
 22 23  1  0
 19 24  1  0
 23 24  2  0
M  END
