pyridine_urea_6053
     RDKit          3D

 25 27  0  0  0  0  0  0  0  0999 V2000
   12.1010   -2.2180   21.8090 C   0  0  0  0  0  0  0  0  0  0  0  0
   11.8120   -0.8390   22.3050 C   0  0  0  0  0  0  0  0  0  0  0  0
   12.7880    0.1020   22.6930 C   0  0  0  0  0  0  0  0  0  0  0  0
   12.4500    1.4010   23.1310 C   0  0  0  0  0  0  0  0  0  0  0  0
   11.1050    1.8280   23.2140 C   0  0  0  0  0  0  0  0  0  0  0  0
   10.4280    3.0470   23.5990 N   0  0  0  0  0  0  0  0  0  0  0  0
   10.9650    4.2850   23.8970 C   0  0  0  0  0  0  0  0  0  0  0  0
   10.1530    4.7750   25.0660 C   0  0  0  0  0  0  0  0  0  0  0  0
   10.9460    5.9330   25.6260 C   0  0  0  0  0  0  0  0  0  0  0  0
   11.3970    6.8330   24.5650 N   0  0  0  0  0  0  0  0  0  0  0  0
   12.0940    7.9560   24.9030 C   0  0  0  0  0  0  0  0  0  0  0  0
   11.1760    6.4940   23.1860 C   0  0  0  0  0  0  0  0  0  0  0  0
   10.9070    5.1620   22.8420 C   0  0  0  0  0  0  0  0  0  0  0  0
   10.0480    0.8580   22.8260 C   0  0  0  0  0  0  0  0  0  0  0  0
   10.3270   -0.3870   22.3900 C   0  0  0  0  0  0  0  0  0  0  0  0
    9.2800   -1.1560   22.0350 N   0  0  0  0  0  0  0  0  0  0  0  0
    8.3820   -0.3580   21.3670 C   0  0  0  0  0  0  0  0  0  0  0  0
    8.5970    0.8150   21.0940 O   0  0  0  0  0  0  0  0  0  0  0  0
    7.2240   -0.9530   21.0190 N   0  0  0  0  0  0  0  0  0  0  0  0
    6.5100   -0.2260   20.1020 C   0  0  0  0  0  0  0  0  0  0  0  0
    5.3180    0.4670   20.3250 C   0  0  0  0  0  0  0  0  0  0  0  0
    4.6510    1.1990   19.3360 C   0  0  0  0  0  0  0  0  0  0  0  0
    5.2360    1.2220   18.0660 C   0  0  0  0  0  0  0  0  0  0  0  0
    6.3890    0.5650   17.8030 N   0  0  0  0  0  0  0  0  0  0  0  0
    6.9860   -0.1330   18.8050 C   0  0  0  0  0  0  0  0  0  0  0  0
  1  2  1  0
  2  3  2  0
  3  4  1  0
  4  5  2  0
  5  6  1  0
  6  7  1  0
  7  8  1  0
  8  9  1  0
  9 10  1  0
 10 11  1  0
 10 12  1  0
  7 13  1  0
 12 13  1  0
  5 14  1  0
  2 15  1  0
 14 15  2  0
 15 16  1  0
 16 17  1  0
 17 18  2  0
 17 19  1  0
 19 20  1  0
 20 21  2  0
 21 22  1  0
 22 23  2  0
 23 24  1  0
 20 25  1  0
 24 25  2  0
M  END
