pyridine_urea_1042
     RDKit          3D

 22 24  0  0  0  0  0  0  0  0999 V2000
    8.6690    1.1610   21.1080 O   0  0  0  0  0  0  0  0  0  0  0  0
    8.1800    0.1260   21.6000 C   0  0  0  0  0  0  0  0  0  0  0  0
    7.0850   -0.6050   20.9890 N   0  0  0  0  0  0  0  0  0  0  0  0
    6.4140    0.0510   19.9830 C   0  0  0  0  0  0  0  0  0  0  0  0
    5.2410    0.7530   20.2510 C   0  0  0  0  0  0  0  0  0  0  0  0
    4.6090    1.4110   19.1980 C   0  0  0  0  0  0  0  0  0  0  0  0
    5.1760    1.3390   17.9250 C   0  0  0  0  0  0  0  0  0  0  0  0
    6.3020    0.6580   17.6650 N   0  0  0  0  0  0  0  0  0  0  0  0
    6.8950    0.0280   18.6980 C   0  0  0  0  0  0  0  0  0  0  0  0
    8.5460   -0.4980   22.7690 N   0  0  0  0  0  0  0  0  0  0  0  0
    9.7380   -0.0370   23.4440 C   0  0  1  0  0  0  0  0  0  0  0  0
   10.6880    0.3560   22.3610 C   0  0  0  0  0  0  0  0  0  0  0  0
   11.1150    1.6160   22.7480 C   0  0  0  0  0  0  0  0  0  0  0  0
   11.0510    1.5670   24.0640 N   0  0  0  0  0  0  0  0  0  0  0  0
   11.6960    0.4740   24.1160 C   0  0  0  0  0  0  0  0  0  0  0  0
   12.5900    0.4190   23.0770 C   0  0  0  0  0  0  0  0  0  0  0  0
   13.2890   -0.6960   22.9480 C   0  0  0  0  0  0  0  0  0  0  0  0
   13.0560   -1.6570   23.8630 C   0  0  0  0  0  0  0  0  0  0  0  0
   13.8630   -3.0330   23.7330 Cl  0  0  0  0  0  0  0  0  0  0  0  0
   12.1950   -1.6070   24.9020 C   0  0  0  0  0  0  0  0  0  0  0  0
   11.4620   -0.5040   25.0650 C   0  0  0  0  0  0  0  0  0  0  0  0
    9.7110    1.0530   24.3430 C   0  0  0  0  0  0  0  0  0  0  0  0
  1  2  2  0
  2  3  1  0
  3  4  1  0
  4  5  2  0
  5  6  1  0
  6  7  2  0
  7  8  1  0
  4  9  1  0
  8  9  2  0
  2 10  1  0
 11 10  1  6
 11 12  1  0
 12 13  1  0
 13 14  1  0
 14 15  1  0
 15 16  2  0
 16 17  1  0
 17 18  2  0
 18 19  1  0
 18 20  1  0
 15 21  1  0
 20 21  2  0
 11 22  1  0
 14 22  1  0
M  END
