pyridine_urea_1008
     RDKit          3D

 22 24  0  0  0  0  0  0  0  0999 V2000
    8.9370    1.1980   21.1720 O   0  0  0  0  0  0  0  0  0  0  0  0
    8.3400    0.1950   21.5880 C   0  0  0  0  0  0  0  0  0  0  0  0
    8.6640   -0.4560   22.8420 N   0  0  0  0  0  0  0  0  0  0  0  0
    8.9090    0.3700   23.9390 C   0  0  0  0  0  0  0  0  0  0  0  0
   10.0700    1.1270   23.8990 C   0  0  0  0  0  0  0  0  0  0  0  0
   11.4120    1.5970   23.7560 C   0  0  0  0  0  0  0  0  0  0  0  0
   12.6010    0.9720   23.3850 C   0  0  0  0  0  0  0  0  0  0  0  0
   12.7090   -0.4240   23.0420 C   0  0  0  0  0  0  0  0  0  0  0  0
   11.4090   -1.0470   23.1240 C   0  0  0  0  0  0  0  0  0  0  0  0
   10.2340   -0.2300   23.5420 C   0  0  0  0  0  0  0  0  0  0  0  0
   11.1720   -2.3230   22.8330 O   0  0  0  0  0  0  0  0  0  0  0  0
   11.4920   -2.3170   21.5220 C   0  0  0  0  0  0  0  0  0  0  0  0
   12.8710   -2.4760   21.4520 C   0  0  0  0  0  0  0  0  0  0  0  0
   13.4020   -2.2880   22.7190 C   0  0  0  0  0  0  0  0  0  0  0  0
   13.7840   -1.1280   22.6920 O   0  0  0  0  0  0  0  0  0  0  0  0
    7.2820   -0.4460   20.9670 N   0  0  0  0  0  0  0  0  0  0  0  0
    6.4790    0.1760   20.0170 C   0  0  0  0  0  0  0  0  0  0  0  0
    5.3130    0.8720   20.2740 C   0  0  0  0  0  0  0  0  0  0  0  0
    4.6440    1.4540   19.2090 C   0  0  0  0  0  0  0  0  0  0  0  0
    5.1410    1.3340   17.9250 C   0  0  0  0  0  0  0  0  0  0  0  0
    6.2600    0.6530   17.6570 N   0  0  0  0  0  0  0  0  0  0  0  0
    6.8940    0.0960   18.7020 C   0  0  0  0  0  0  0  0  0  0  0  0
  1  2  2  0
  2  3  1  0
  3  4  1  0
  4  5  1  0
  5  6  2  0
  6  7  1  0
  7  8  2  0
  8  9  1  0
  5 10  1  0
  9 10  2  0
  9 11  1  0
 11 12  1  0
 12 13  1  0
 13 14  1  0
  8 15  1  0
 14 15  1  0
  2 16  1  0
 16 17  1  0
 17 18  2  0
 18 19  1  0
 19 20  2  0
 20 21  1  0
 17 22  1  0
 21 22  2  0
M  END
