pyridine_urea_12517
     RDKit          3D

 21 22  0  0  0  0  0  0  0  0999 V2000
    8.9430    1.2150   21.1710 O   0  0  0  0  0  0  0  0  0  0  0  0
    8.3940    0.2070   21.6340 C   0  0  0  0  0  0  0  0  0  0  0  0
    9.0700   -0.7180   22.4100 N   0  0  0  0  0  0  0  0  0  0  0  0
   10.4960   -0.5310   22.5640 C   0  0  0  0  0  0  0  0  0  0  0  0
   10.8320    0.9350   22.9780 C   0  0  0  0  0  0  0  0  0  0  0  0
   12.1220    1.2660   23.1560 C   0  0  0  0  0  0  0  0  0  0  0  0
   13.0230    0.1140   22.9150 C   0  0  0  0  0  0  0  0  0  0  0  0
   12.6140   -1.1220   22.5580 N   0  0  0  0  0  0  0  0  0  0  0  0
   11.3520   -1.6520   22.3250 C   0  0  0  0  0  0  0  0  0  0  0  0
    7.0750   -0.1550   21.4830 N   0  0  0  0  0  0  0  0  0  0  0  0
    6.4020    0.3140   20.2860 C   0  0  0  0  0  0  0  0  0  0  0  0
    5.8590    1.7360   20.3310 C   0  0  0  0  0  0  0  0  0  0  0  0
    5.1620    2.2270   19.0630 C   0  0  0  0  0  0  0  0  0  0  0  0
    5.1180    1.2380   17.9170 C   0  0  0  0  0  0  0  0  0  0  0  0
    5.6460   -0.0190   18.0360 N   0  0  0  0  0  0  0  0  0  0  0  0
    6.2600   -0.4800   19.1820 C   0  0  0  0  0  0  0  0  0  0  0  0
    6.6900   -1.5960   19.3130 O   0  0  0  0  0  0  0  0  0  0  0  0
    6.0880   -2.2930   20.4310 C   0  0  0  0  0  0  0  0  0  0  0  0
    5.1670   -1.5680   21.1070 F   0  0  0  0  0  0  0  0  0  0  0  0
    5.4840   -3.4380   20.0370 F   0  0  0  0  0  0  0  0  0  0  0  0
    7.0750   -2.5750   21.3100 F   0  0  0  0  0  0  0  0  0  0  0  0
  1  2  2  0
  2  3  1  0
  3  4  1  0
  4  5  2  0
  5  6  1  0
  6  7  2  0
  7  8  1  0
  4  9  1  0
  8  9  2  0
  2 10  1  0
 10 11  1  0
 11 12  2  0
 12 13  1  0
 13 14  2  0
 14 15  1  0
 11 16  1  0
 15 16  2  0
 16 17  1  0
 17 18  1  0
 18 19  1  0
 18 20  1  0
 18 21  1  0
M  END
