pyridine_urea_8914
     RDKit          3D

 20 22  0  0  0  0  0  0  0  0999 V2000
   13.2390   -1.2210   21.5720 C   0  0  0  0  0  0  0  0  0  0  0  0
   12.0280   -1.7490   22.3090 C   0  0  2  0  0  0  0  0  0  0  0  0
   10.6760   -1.7120   21.6140 C   0  0  0  0  0  0  0  0  0  0  0  0
    9.7470   -1.6380   22.5950 C   0  0  2  0  0  0  0  0  0  0  0  0
    8.6530   -0.7040   22.5580 N   0  0  0  0  0  0  0  0  0  0  0  0
    8.3210    0.0770   21.4920 C   0  0  0  0  0  0  0  0  0  0  0  0
    8.9170    1.1160   21.1750 O   0  0  0  0  0  0  0  0  0  0  0  0
    7.2330   -0.4840   20.8920 N   0  0  0  0  0  0  0  0  0  0  0  0
    6.4480    0.1690   19.9570 C   0  0  0  0  0  0  0  0  0  0  0  0
    5.2850    0.8770   20.2280 C   0  0  0  0  0  0  0  0  0  0  0  0
    4.6110    1.5000   19.1840 C   0  0  0  0  0  0  0  0  0  0  0  0
    5.1350    1.3810   17.9180 C   0  0  0  0  0  0  0  0  0  0  0  0
    6.2490    0.6940   17.6330 N   0  0  0  0  0  0  0  0  0  0  0  0
    6.8770    0.1060   18.6560 C   0  0  0  0  0  0  0  0  0  0  0  0
   10.4400   -1.2270   23.6650 C   0  0  0  0  0  0  0  0  0  0  0  0
    9.9120   -0.7880   24.8530 C   0  0  0  0  0  0  0  0  0  0  0  0
   10.7540   -0.4400   25.7460 C   0  0  0  0  0  0  0  0  0  0  0  0
   12.2090   -0.5160   25.4500 C   0  0  0  0  0  0  0  0  0  0  0  0
   12.9640   -0.9050   24.3680 C   0  0  0  0  0  0  0  0  0  0  0  0
   11.8020   -1.2560   23.5300 C   0  0  0  0  0  0  0  0  0  0  0  0
  2  1  1  6
  2  3  1  0
  3  4  1  0
  4  5  1  6
  5  6  1  0
  6  7  2  0
  6  8  1  0
  8  9  1  0
  9 10  2  0
 10 11  1  0
 11 12  2  0
 12 13  1  0
  9 14  1  0
 13 14  2  0
  4 15  1  0
 15 16  2  0
 16 17  1  0
 17 18  2  0
 18 19  1  0
  2 20  1  0
 15 20  1  0
 19 20  2  0
M  END
