pyridine_urea_3778
     RDKit          3D

 19 21  0  0  0  0  0  0  0  0999 V2000
    9.8680   -0.0200   25.7960 C   0  0  0  0  0  0  0  0  0  0  0  0
   10.9620   -0.2970   24.7440 C   0  0  0  0  0  0  0  0  0  0  0  0
   10.4970   -1.5090   23.9070 C   0  0  0  0  0  0  0  0  0  0  0  0
   11.7560    0.8740   23.9820 C   0  0  0  0  0  0  0  0  0  0  0  0
   12.4280   -0.4110   23.6660 C   0  0  0  0  0  0  0  0  0  0  0  0
   11.1530   -1.1850   23.5800 C   0  0  0  0  0  0  0  0  0  0  0  0
   10.7600   -0.5000   22.3230 C   0  0  0  0  0  0  0  0  0  0  0  0
    9.6250   -1.1180   21.5940 N   0  0  0  0  0  0  0  0  0  0  0  0
    8.5900   -0.2280   21.3510 C   0  0  0  0  0  0  0  0  0  0  0  0
    8.7770    0.9770   21.4630 O   0  0  0  0  0  0  0  0  0  0  0  0
    7.3910   -0.7770   20.9530 N   0  0  0  0  0  0  0  0  0  0  0  0
    6.5520   -0.0820   20.0650 C   0  0  0  0  0  0  0  0  0  0  0  0
    5.3920    0.6080   20.3680 C   0  0  0  0  0  0  0  0  0  0  0  0
    4.6960    1.2590   19.3660 C   0  0  0  0  0  0  0  0  0  0  0  0
    5.1350    1.2350   18.0610 C   0  0  0  0  0  0  0  0  0  0  0  0
    6.2470    0.5700   17.7220 N   0  0  0  0  0  0  0  0  0  0  0  0
    6.9050   -0.0560   18.7270 C   0  0  0  0  0  0  0  0  0  0  0  0
   12.2670   -0.9550   22.1970 C   0  0  0  0  0  0  0  0  0  0  0  0
   12.3010   -1.0870   24.9900 C   0  0  0  0  0  0  0  0  0  0  0  0
  2  1  1  0
  2  3  1  0
  2  4  1  0
  5  4  1  0
  5  6  1  0
  6  7  1  0
  7  8  1  0
  8  9  1  0
  9 10  2  0
  9 11  1  0
 11 12  1  0
 12 13  2  0
 13 14  1  0
 14 15  2  0
 15 16  1  0
 12 17  1  0
 16 17  2  0
  5 18  1  0
  7 18  1  0
  2 19  1  0
  5 19  1  0
M  END
