pyridine_urea_1158
     RDKit          3D

 21 22  0  0  0  0  0  0  0  0999 V2000
   13.2960    0.2090   22.8940 C   0  0  0  0  0  0  0  0  0  0  0  0
   12.5410   -0.8840   23.6310 C   0  0  0  0  0  0  0  0  0  0  0  0
   13.3640   -1.9480   24.3880 C   0  0  0  0  0  0  0  0  0  0  0  0
   11.5840   -0.2240   24.6280 C   0  0  0  0  0  0  0  0  0  0  0  0
   10.2820   -0.4800   24.3330 C   0  0  0  0  0  0  0  0  0  0  0  0
    9.9630   -0.1720   23.0410 C   0  0  0  0  0  0  0  0  0  0  0  0
    8.5420   -0.2960   22.7170 N   0  0  0  0  0  0  0  0  0  0  0  0
    8.1380    0.2260   21.5150 C   0  0  0  0  0  0  0  0  0  0  0  0
    8.6740    1.2080   21.0020 O   0  0  0  0  0  0  0  0  0  0  0  0
    7.0850   -0.4300   20.9840 N   0  0  0  0  0  0  0  0  0  0  0  0
    6.3470    0.1440   20.0190 C   0  0  0  0  0  0  0  0  0  0  0  0
    5.1360    0.7820   20.2030 C   0  0  0  0  0  0  0  0  0  0  0  0
    4.5060    1.3670   19.1100 C   0  0  0  0  0  0  0  0  0  0  0  0
    5.1320    1.2830   17.8630 C   0  0  0  0  0  0  0  0  0  0  0  0
    6.2980    0.6570   17.6730 N   0  0  0  0  0  0  0  0  0  0  0  0
    6.8680    0.1060   18.7450 C   0  0  0  0  0  0  0  0  0  0  0  0
   10.3790    1.2990   22.6530 C   0  0  0  0  0  0  0  0  0  0  0  0
   11.6280    1.7660   22.9440 N   0  0  0  0  0  0  0  0  0  0  0  0
    9.6140    2.0960   22.1110 O   0  0  0  0  0  0  0  0  0  0  0  0
   10.6250   -1.2260   22.1350 C   0  0  0  0  0  0  0  0  0  0  0  0
   11.8860   -1.6170   22.4710 C   0  0  0  0  0  0  0  0  0  0  0  0
  2  1  1  0
  2  3  1  0
  2  4  1  0
  4  5  1  0
  5  6  1  0
  6  7  1  0
  7  8  1  0
  8  9  2  0
  8 10  1  0
 10 11  1  0
 11 12  2  0
 12 13  1  0
 13 14  2  0
 14 15  1  0
 11 16  1  0
 15 16  2  0
  6 17  1  0
 17 18  1  0
 17 19  2  0
  6 20  1  0
  2 21  1  0
 20 21  1  0
M  END
