pyridine_urea_6333
     RDKit          3D

 23 25  0  0  0  0  0  0  0  0999 V2000
    8.8560    1.3300   21.2660 O   0  0  0  0  0  0  0  0  0  0  0  0
    8.5460    0.1340   21.3090 C   0  0  0  0  0  0  0  0  0  0  0  0
    7.2580   -0.3310   21.1480 N   0  0  0  0  0  0  0  0  0  0  0  0
    6.5450    0.2130   20.0290 C   0  0  0  0  0  0  0  0  0  0  0  0
    5.2980    1.0160   20.3630 C   0  0  0  0  0  0  0  0  0  0  0  0
    4.6020    1.5820   19.1790 C   0  0  0  0  0  0  0  0  0  0  0  0
    5.1290    1.3360   17.9280 C   0  0  0  0  0  0  0  0  0  0  0  0
    6.2320    0.6070   17.6840 N   0  0  0  0  0  0  0  0  0  0  0  0
    6.9070    0.0680   18.7150 C   0  0  0  0  0  0  0  0  0  0  0  0
    9.4480   -0.8930   21.4400 N   0  0  0  0  0  0  0  0  0  0  0  0
   10.0610   -1.3950   22.6820 C   0  0  2  0  0  0  0  0  0  0  0  0
    9.4070   -0.9520   23.7860 C   0  0  0  0  0  0  0  0  0  0  0  0
   10.3970   -0.6860   24.8680 C   0  0  0  0  0  0  0  0  0  0  0  0
    9.9060   -0.2540   26.1100 C   0  0  0  0  0  0  0  0  0  0  0  0
    8.5370   -0.0490   26.3640 C   0  0  0  0  0  0  0  0  0  0  0  0
    7.5920   -0.2770   25.3820 C   0  0  0  0  0  0  0  0  0  0  0  0
    8.0400   -0.7540   24.0370 C   0  0  0  0  0  0  0  0  0  0  0  0
    7.0660   -0.9790   23.1320 F   0  0  0  0  0  0  0  0  0  0  0  0
   11.6190   -1.4310   22.4940 C   0  0  0  0  0  0  0  0  0  0  0  0
   11.8390   -0.0190   22.9110 C   0  0  0  0  0  0  0  0  0  0  0  0
   12.7830   -0.0590   23.9080 C   0  0  0  0  0  0  0  0  0  0  0  0
   12.9870   -1.4140   24.2450 C   0  0  0  0  0  0  0  0  0  0  0  0
   12.3500   -2.2550   23.3340 C   0  0  0  0  0  0  0  0  0  0  0  0
  1  2  2  0
  2  3  1  0
  3  4  1  0
  4  5  2  0
  5  6  1  0
  6  7  2  0
  7  8  1  0
  4  9  1  0
  8  9  2  0
  2 10  1  0
 11 10  1  6
 11 12  1  0
 12 13  2  0
 13 14  1  0
 14 15  2  0
 15 16  1  0
 12 17  1  0
 16 17  2  0
 17 18  1  0
 11 19  1  0
 19 20  1  0
 20 21  1  0
 21 22  1  0
 19 23  1  0
 22 23  1  0
M  END
