pyridine_urea_6178
     RDKit          3D

 24 26  0  0  0  0  0  0  0  0999 V2000
    8.8110    1.2440   21.1650 O   0  0  0  0  0  0  0  0  0  0  0  0
    8.5260    0.0690   21.4370 C   0  0  0  0  0  0  0  0  0  0  0  0
    8.9010   -0.5150   22.6320 N   0  0  0  0  0  0  0  0  0  0  0  0
   10.2970   -0.3690   23.0060 C   0  0  0  0  0  0  0  0  0  0  0  0
   10.7290   -1.4680   23.9440 C   0  0  0  0  0  0  0  0  0  0  0  0
   12.1150   -1.4170   24.3460 C   0  0  0  0  0  0  0  0  0  0  0  0
   12.8080   -0.4060   23.8240 C   0  0  0  0  0  0  0  0  0  0  0  0
   12.3150    0.5120   23.0160 N   0  0  0  0  0  0  0  0  0  0  0  0
   11.0590    0.6990   22.4930 C   0  0  0  0  0  0  0  0  0  0  0  0
    7.8480   -0.8030   20.5910 N   0  0  0  0  0  0  0  0  0  0  0  0
    6.6290   -0.3620   19.8370 C   0  0  1  0  0  0  0  0  0  0  0  0
    5.5870   -0.0840   20.6660 C   0  0  0  0  0  0  0  0  0  0  0  0
    4.5640   -0.0570   19.5380 C   0  0  0  0  0  0  0  0  0  0  0  0
    4.7730    0.9370   18.6290 C   0  0  0  0  0  0  0  0  0  0  0  0
    5.7570    1.6680   19.0220 N   0  0  0  0  0  0  0  0  0  0  0  0
    5.4370    2.4720   20.1080 C   0  0  0  0  0  0  0  0  0  0  0  0
    6.4110    2.7730   21.0760 C   0  0  0  0  0  0  0  0  0  0  0  0
    6.4920    3.5920   22.3890 C   0  0  0  0  0  0  0  0  0  0  0  0
    5.0510    4.0740   22.3970 C   0  0  0  0  0  0  0  0  0  0  0  0
    4.6520    5.0810   23.7410 Cl  0  0  0  0  0  0  0  0  0  0  0  0
    3.9660    3.7960   21.4120 C   0  0  0  0  0  0  0  0  0  0  0  0
    4.1730    3.0190   20.3140 C   0  0  0  0  0  0  0  0  0  0  0  0
    2.7930    2.8060   19.2900 Cl  0  0  0  0  0  0  0  0  0  0  0  0
    7.0030    0.9560   19.1530 C   0  0  0  0  0  0  0  0  0  0  0  0
  1  2  2  0
  2  3  1  0
  3  4  1  0
  4  5  2  0
  5  6  1  0
  6  7  2  0
  7  8  1  0
  4  9  1  0
  8  9  2  0
  2 10  1  0
 11 10  1  1
 11 12  1  0
 12 13  1  0
 13 14  1  0
 14 15  1  0
 15 16  1  0
 16 17  2  0
 17 18  1  0
 18 19  2  0
 19 20  1  0
 19 21  1  0
 16 22  1  0
 21 22  2  0
 22 23  1  0
 11 24  1  0
 15 24  1  0
M  END
