pyridine_urea_216
     RDKit          3D

 23 24  0  0  0  0  0  0  0  0999 V2000
    9.1530   -0.0700   26.1900 C   0  0  0  0  0  0  0  0  0  0  0  0
    8.1030   -0.1650   25.6220 C   0  0  0  0  0  0  0  0  0  0  0  0
    8.4360   -0.2640   24.2110 O   0  0  0  0  0  0  0  0  0  0  0  0
    9.4780    0.5150   23.7770 C   0  0  0  0  0  0  0  0  0  0  0  0
    8.9260    1.4500   24.3550 O   0  0  0  0  0  0  0  0  0  0  0  0
    9.7860   -0.8460   23.2310 C   0  0  2  0  0  0  0  0  0  0  0  0
   10.8660   -0.8160   22.4090 C   0  0  0  0  0  0  0  0  0  0  0  0
   12.1650   -0.2710   22.9680 C   0  0  0  0  0  0  0  0  0  0  0  0
   12.6330    0.6490   22.3410 O   0  0  0  0  0  0  0  0  0  0  0  0
   12.4540    1.9560   22.8810 C   0  0  0  0  0  0  0  0  0  0  0  0
   12.3220   -0.2840   24.4240 C   0  0  0  0  0  0  0  0  0  0  0  0
   12.8390   -1.5810   24.4880 C   0  0  0  0  0  0  0  0  0  0  0  0
   12.8290   -1.5790   23.0910 C   0  0  0  0  0  0  0  0  0  0  0  0
    8.6840   -1.3120   22.4260 N   0  0  0  0  0  0  0  0  0  0  0  0
    8.2070   -0.2820   21.4910 C   0  0  0  0  0  0  0  0  0  0  0  0
    8.7990    0.7710   21.2850 O   0  0  0  0  0  0  0  0  0  0  0  0
    7.0250   -0.6780   20.9250 N   0  0  0  0  0  0  0  0  0  0  0  0
    6.3240    0.0450   19.9570 C   0  0  0  0  0  0  0  0  0  0  0  0
    5.0260    0.6910   20.4920 C   0  0  0  0  0  0  0  0  0  0  0  0
    4.5760    1.3690   19.2020 C   0  0  0  0  0  0  0  0  0  0  0  0
    5.2420    1.3620   17.8740 C   0  0  0  0  0  0  0  0  0  0  0  0
    6.3590    0.7300   17.6470 N   0  0  0  0  0  0  0  0  0  0  0  0
    6.8530    0.0990   18.6900 C   0  0  0  0  0  0  0  0  0  0  0  0
  1  2  1  0
  2  3  1  0
  3  4  1  0
  4  5  2  0
  4  6  1  0
  6  7  1  6
  7  8  1  0
  8  9  1  0
  9 10  1  0
  8 11  1  0
 11 12  1  0
  8 13  1  0
 12 13  1  0
  6 14  1  0
 14 15  1  0
 15 16  2  0
 15 17  1  0
 17 18  1  0
 18 19  2  0
 19 20  1  0
 20 21  2  0
 21 22  1  0
 18 23  1  0
 22 23  2  0
M  END
