pyridine_urea_12461
     RDKit          3D

 21 22  0  0  0  0  0  0  0  0999 V2000
    8.6010   -0.0410   26.2990 C   0  0  0  0  0  0  0  0  0  0  0  0
    8.4530   -0.4940   24.9530 O   0  0  0  0  0  0  0  0  0  0  0  0
    9.6390   -0.1750   24.2160 C   0  0  0  0  0  0  0  0  0  0  0  0
   10.8010   -1.0190   24.5920 C   0  0  0  0  0  0  0  0  0  0  0  0
   12.0380   -1.1540   24.2730 C   0  0  0  0  0  0  0  0  0  0  0  0
   13.3900   -2.5410   25.0220 I   0  0  0  0  0  0  0  0  0  0  0  0
   12.2390   -0.1240   23.2640 C   0  0  0  0  0  0  0  0  0  0  0  0
   13.6540    0.1070   22.5350 Cl  0  0  0  0  0  0  0  0  0  0  0  0
   11.2070    0.6900   22.8780 C   0  0  0  0  0  0  0  0  0  0  0  0
    9.6960    0.8570   23.2210 C   0  0  0  0  0  0  0  0  0  0  0  0
    8.3170    0.7710   23.7480 C   0  0  0  0  0  0  0  0  0  0  0  0
    7.8420   -0.4240   23.0530 N   0  0  0  0  0  0  0  0  0  0  0  0
    8.1220   -0.4570   21.7150 C   0  0  0  0  0  0  0  0  0  0  0  0
    9.1950   -0.1240   21.2560 O   0  0  0  0  0  0  0  0  0  0  0  0
    7.0050   -0.8810   20.9880 N   0  0  0  0  0  0  0  0  0  0  0  0
    6.4180   -0.1520   19.9820 C   0  0  0  0  0  0  0  0  0  0  0  0
    5.1280    0.6240   20.2720 C   0  0  0  0  0  0  0  0  0  0  0  0
    4.5360    1.4250   19.1110 C   0  0  0  0  0  0  0  0  0  0  0  0
    5.1860    1.4040   17.8890 C   0  0  0  0  0  0  0  0  0  0  0  0
    6.3290    0.6820   17.7170 N   0  0  0  0  0  0  0  0  0  0  0  0
    6.9340   -0.0730   18.7100 C   0  0  0  0  0  0  0  0  0  0  0  0
  1  2  1  0
  2  3  1  0
  3  4  2  0
  4  5  1  0
  5  6  1  0
  5  7  2  0
  7  8  1  0
  7  9  1  0
  3 10  1  0
  9 10  2  0
 10 11  1  0
 11 12  1  0
 12 13  1  0
 13 14  2  0
 13 15  1  0
 15 16  1  0
 16 17  2  0
 17 18  1  0
 18 19  2  0
 19 20  1  0
 16 21  1  0
 20 21  2  0
M  END
