pyridine_urea_5590
     RDKit          3D

 15 16  0  0  0  0  0  0  0  0999 V2000
   12.2130    1.0420   22.5770 N   0  0  0  0  0  0  0  0  0  0  0  0
   11.5760    0.1110   22.8390 C   0  0  0  0  0  0  0  0  0  0  0  0
   10.2530   -0.6420   23.0850 C   0  0  0  0  0  0  0  0  0  0  0  0
    9.7020   -1.1690   22.0060 N   0  0  0  0  0  0  0  0  0  0  0  0
    8.6440   -0.2270   21.4760 C   0  0  0  0  0  0  0  0  0  0  0  0
    8.9250    0.9580   21.3700 O   0  0  0  0  0  0  0  0  0  0  0  0
    7.3890   -0.6940   21.0890 N   0  0  0  0  0  0  0  0  0  0  0  0
    6.6320   -0.0430   20.1240 C   0  0  0  0  0  0  0  0  0  0  0  0
    5.3170    0.7350   20.3560 C   0  0  0  0  0  0  0  0  0  0  0  0
    4.6550    1.3630   19.3080 C   0  0  0  0  0  0  0  0  0  0  0  0
    5.1790    1.3210   17.8930 C   0  0  0  0  0  0  0  0  0  0  0  0
    6.3440    0.6110   17.7430 N   0  0  0  0  0  0  0  0  0  0  0  0
    7.0360   -0.0400   18.7840 C   0  0  0  0  0  0  0  0  0  0  0  0
   12.5910   -0.9100   22.3810 C   0  0  0  0  0  0  0  0  0  0  0  0
   12.6000   -0.6190   23.8180 C   0  0  0  0  0  0  0  0  0  0  0  0
  2  1  1  0
  2  3  1  0
  3  4  1  0
  4  5  1  0
  5  6  2  0
  5  7  1  0
  7  8  1  0
  8  9  2  0
  9 10  1  0
 10 11  2  0
 11 12  1  0
  8 13  1  0
 12 13  2  0
  2 14  1  0
  2 15  1  0
 14 15  1  0
M  END
