pyridine_urea_10446
     RDKit          3D

 22 24  0  0  0  0  0  0  0  0999 V2000
    8.7370    0.9440   21.2910 O   0  0  0  0  0  0  0  0  0  0  0  0
    8.2480   -0.1730   21.1960 C   0  0  0  0  0  0  0  0  0  0  0  0
    8.9170   -1.3360   21.2730 N   0  0  0  0  0  0  0  0  0  0  0  0
    9.3880   -1.7750   22.4660 C   0  0  0  0  0  0  0  0  0  0  0  0
    9.2070   -0.7790   23.5910 C   0  0  0  0  0  0  0  0  0  0  0  0
   10.0740    0.4490   23.2960 C   0  0  0  0  0  0  0  0  0  0  0  0
   10.2120    1.8720   23.1190 C   0  0  0  0  0  0  0  0  0  0  0  0
   11.6500    2.0080   22.8360 C   0  0  0  0  0  0  0  0  0  0  0  0
   12.4670    0.7230   22.8000 C   0  0  0  0  0  0  0  0  0  0  0  0
   13.6320    0.2860   22.6150 C   0  0  0  0  0  0  0  0  0  0  0  0
   13.4820   -1.1770   22.7700 C   0  0  0  0  0  0  0  0  0  0  0  0
   12.2780   -1.9420   23.0750 C   0  0  0  0  0  0  0  0  0  0  0  0
   11.0350   -1.2930   23.2620 C   0  0  0  0  0  0  0  0  0  0  0  0
   12.0840   -0.5480   22.9910 C   0  0  0  0  0  0  0  0  0  0  0  0
   11.4200    0.6350   23.0130 C   0  0  0  0  0  0  0  0  0  0  0  0
    6.9360   -0.4420   20.9840 N   0  0  0  0  0  0  0  0  0  0  0  0
    6.3240    0.1660   19.9540 C   0  0  0  0  0  0  0  0  0  0  0  0
    5.1500    0.8790   20.1420 C   0  0  0  0  0  0  0  0  0  0  0  0
    4.5480    1.5160   19.0860 C   0  0  0  0  0  0  0  0  0  0  0  0
    5.1350    1.4270   17.8570 C   0  0  0  0  0  0  0  0  0  0  0  0
    6.2640    0.7420   17.6150 N   0  0  0  0  0  0  0  0  0  0  0  0
    6.8320    0.1260   18.6720 C   0  0  0  0  0  0  0  0  0  0  0  0
  1  2  2  0
  2  3  1  0
  3  4  1  0
  4  5  1  0
  5  6  1  0
  6  7  2  0
  7  8  1  0
  8  9  2  0
  9 10  1  0
 10 11  2  0
 11 12  1  0
 12 13  2  0
  9 14  1  0
 13 14  1  0
  6 15  1  0
 14 15  2  0
  2 16  1  0
 16 17  1  0
 17 18  2  0
 18 19  1  0
 19 20  2  0
 20 21  1  0
 17 22  1  0
 21 22  2  0
M  END
