pyridine_urea_7396
     RDKit          3D

 17 18  0  0  0  0  0  0  0  0999 V2000
   10.0030   -0.2020   23.6710 C   0  0  0  0  0  0  0  0  0  0  0  0
   10.3620   -0.5620   22.2870 C   0  0  2  0  0  0  0  0  0  0  0  0
    9.1910   -1.1850   21.7550 N   0  0  0  0  0  0  0  0  0  0  0  0
    8.3000   -0.2380   21.3560 C   0  0  0  0  0  0  0  0  0  0  0  0
    8.6250    0.9420   21.2910 O   0  0  0  0  0  0  0  0  0  0  0  0
    7.0710   -0.7160   21.0210 N   0  0  0  0  0  0  0  0  0  0  0  0
    6.3940   -0.0250   19.9590 C   0  0  0  0  0  0  0  0  0  0  0  0
    5.2170    0.6680   20.1850 C   0  0  0  0  0  0  0  0  0  0  0  0
    4.5400    1.3780   19.1890 C   0  0  0  0  0  0  0  0  0  0  0  0
    5.1060    1.3680   17.9110 C   0  0  0  0  0  0  0  0  0  0  0  0
    6.2630    0.6770   17.6800 N   0  0  0  0  0  0  0  0  0  0  0  0
    6.9040   -0.0170   18.6910 C   0  0  0  0  0  0  0  0  0  0  0  0
   11.6140   -1.3850   22.2070 C   0  0  0  0  0  0  0  0  0  0  0  0
   12.7590   -0.6260   22.4410 C   0  0  0  0  0  0  0  0  0  0  0  0
   12.9660   -0.6000   23.7910 C   0  0  0  0  0  0  0  0  0  0  0  0
   12.0880   -1.5030   24.3490 C   0  0  0  0  0  0  0  0  0  0  0  0
   11.6370   -2.3740   23.3740 C   0  0  0  0  0  0  0  0  0  0  0  0
  2  1  1  1
  2  3  1  0
  3  4  1  0
  4  5  2  0
  4  6  1  0
  6  7  1  0
  7  8  2  0
  8  9  1  0
  9 10  2  0
 10 11  1  0
  7 12  1  0
 11 12  2  0
  2 13  1  0
 13 14  1  0
 14 15  1  0
 15 16  1  0
 13 17  1  0
 16 17  1  0
M  END
