pyridine_urea_4399
     RDKit          3D

 24 26  0  0  0  0  0  0  0  0999 V2000
    8.7040    0.4950   21.3400 O   0  0  0  0  0  0  0  0  0  0  0  0
    8.2530   -0.6240   21.5610 C   0  0  0  0  0  0  0  0  0  0  0  0
    8.9780   -1.5020   22.3610 N   0  0  0  0  0  0  0  0  0  0  0  0
   10.1280   -0.7120   22.6430 C   0  0  0  0  0  0  0  0  0  0  0  0
   11.5330   -1.1080   22.2030 C   0  0  0  0  0  0  0  0  0  0  0  0
   12.6470   -0.1000   22.4880 C   0  0  0  0  0  0  0  0  0  0  0  0
   12.2160    1.1970   23.1880 C   0  0  0  0  0  0  0  0  0  0  0  0
   13.0450    2.0210   23.3540 O   0  0  0  0  0  0  0  0  0  0  0  0
   12.4280    3.3110   23.0650 C   0  0  0  0  0  0  0  0  0  0  0  0
   13.2300    4.3320   22.2850 C   0  0  0  0  0  0  0  0  0  0  0  0
   12.6290    5.5710   22.0310 C   0  0  0  0  0  0  0  0  0  0  0  0
   11.3340    5.8560   22.4810 C   0  0  0  0  0  0  0  0  0  0  0  0
   10.6200    4.9020   23.1910 C   0  0  0  0  0  0  0  0  0  0  0  0
    9.3650    5.2760   23.5870 F   0  0  0  0  0  0  0  0  0  0  0  0
   11.1400    3.6520   23.4830 C   0  0  0  0  0  0  0  0  0  0  0  0
   10.9740    1.4960   23.6100 C   0  0  0  0  0  0  0  0  0  0  0  0
    9.8770    0.5870   23.3740 C   0  0  0  0  0  0  0  0  0  0  0  0
    7.0540   -1.0480   21.0540 N   0  0  0  0  0  0  0  0  0  0  0  0
    6.4320   -0.2870   20.0400 C   0  0  0  0  0  0  0  0  0  0  0  0
    5.1570    0.4430   20.3110 C   0  0  0  0  0  0  0  0  0  0  0  0
    4.5810    1.1940   19.2840 C   0  0  0  0  0  0  0  0  0  0  0  0
    5.2100    1.2380   18.0570 C   0  0  0  0  0  0  0  0  0  0  0  0
    6.3590    0.5840   17.7920 N   0  0  0  0  0  0  0  0  0  0  0  0
    6.9350   -0.1530   18.7690 C   0  0  0  0  0  0  0  0  0  0  0  0
  1  2  2  0
  2  3  1  0
  3  4  1  0
  4  5  2  0
  5  6  1  0
  6  7  2  0
  7  8  1  0
  8  9  1  0
  9 10  2  0
 10 11  1  0
 11 12  2  0
 12 13  1  0
 13 14  1  0
  9 15  1  0
 13 15  2  0
  7 16  1  0
  4 17  1  0
 16 17  2  0
  2 18  1  0
 18 19  1  0
 19 20  2  0
 20 21  1  0
 21 22  2  0
 22 23  1  0
 19 24  1  0
 23 24  2  0
M  END
