pyridine_urea_14336
     RDKit          3D

 22 24  0  0  0  0  0  0  0  0999 V2000
    9.1250    0.5480   21.4910 O   0  0  0  0  0  0  0  0  0  0  0  0
    8.4310   -0.4510   21.6240 C   0  0  0  0  0  0  0  0  0  0  0  0
    8.9250   -1.6610   22.2730 N   0  0  0  0  0  0  0  0  0  0  0  0
    9.5900   -1.5680   23.4920 C   0  0  0  0  0  0  0  0  0  0  0  0
    9.4260   -2.5870   24.4320 C   0  0  0  0  0  0  0  0  0  0  0  0
    8.3110   -3.1410   24.9730 N   0  0  0  0  0  0  0  0  0  0  0  0
    8.6050   -4.1970   25.9440 C   0  0  0  0  0  0  0  0  0  0  0  0
    7.5840   -4.8780   26.6100 C   0  0  0  0  0  0  0  0  0  0  0  0
    6.3030   -5.2770   25.9350 C   0  0  0  0  0  0  0  0  0  0  0  0
    5.3270   -6.0010   26.8450 C   0  0  0  0  0  0  0  0  0  0  0  0
    5.5860   -6.2610   28.1410 N   0  0  0  0  0  0  0  0  0  0  0  0
    6.7840   -5.8520   28.6410 C   0  0  0  0  0  0  0  0  0  0  0  0
    7.7890   -5.1800   27.9520 C   0  0  0  0  0  0  0  0  0  0  0  0
    9.9560   -4.4340   26.1260 C   0  0  0  0  0  0  0  0  0  0  0  0
   10.9360   -3.3340   25.0840 S   0  0  0  0  0  0  0  0  0  0  0  0
    7.1290   -0.6130   21.2100 N   0  0  0  0  0  0  0  0  0  0  0  0
    6.5350    0.0020   20.0310 C   0  0  0  0  0  0  0  0  0  0  0  0
    5.4130    0.7360   20.3460 C   0  0  0  0  0  0  0  0  0  0  0  0
    4.7140    1.4040   19.3610 C   0  0  0  0  0  0  0  0  0  0  0  0
    5.1890    1.3040   18.0560 C   0  0  0  0  0  0  0  0  0  0  0  0
    6.2800    0.5890   17.7240 N   0  0  0  0  0  0  0  0  0  0  0  0
    6.9390   -0.0550   18.7190 C   0  0  0  0  0  0  0  0  0  0  0  0
  1  2  2  0
  2  3  1  0
  3  4  1  0
  4  5  1  0
  5  6  2  0
  6  7  1  0
  7  8  1  0
  8  9  2  0
  9 10  1  0
 10 11  2  0
 11 12  1  0
  8 13  1  0
 12 13  2  0
  7 14  2  0
  5 15  1  0
 14 15  1  0
  2 16  1  0
 16 17  1  0
 17 18  2  0
 18 19  1  0
 19 20  2  0
 20 21  1  0
 17 22  1  0
 21 22  2  0
M  END
