pyridine_urea_9109
     RDKit          3D

 19 20  0  0  0  0  0  0  0  0999 V2000
    5.6380   -5.0670   24.6980 C   0  0  0  0  0  0  0  0  0  0  0  0
    5.7240   -3.8890   23.6930 C   0  0  0  0  0  0  0  0  0  0  0  0
    7.1500   -3.3150   23.7510 C   0  0  0  0  0  0  0  0  0  0  0  0
    8.3190   -4.1770   23.6180 N   0  0  0  0  0  0  0  0  0  0  0  0
    9.4050   -3.3180   23.7220 C   0  0  0  0  0  0  0  0  0  0  0  0
    8.9840   -2.0300   23.9060 C   0  0  0  0  0  0  0  0  0  0  0  0
    7.6260   -2.0560   23.9150 N   0  0  0  0  0  0  0  0  0  0  0  0
    6.7190   -1.0060   24.0590 C   0  0  0  0  0  0  0  0  0  0  0  0
    7.2390    0.1490   23.4900 C   0  0  0  0  0  0  0  0  0  0  0  0
    8.3830   -0.0210   22.7780 N   0  0  0  0  0  0  0  0  0  0  0  0
    8.3430    0.3720   21.4860 C   0  0  0  0  0  0  0  0  0  0  0  0
    8.8220    1.4480   21.1040 O   0  0  0  0  0  0  0  0  0  0  0  0
    7.7390   -0.5390   20.7600 N   0  0  0  0  0  0  0  0  0  0  0  0
    6.7900    0.0980   19.9850 C   0  0  0  0  0  0  0  0  0  0  0  0
    5.6660    0.7790   20.4910 C   0  0  0  0  0  0  0  0  0  0  0  0
    4.8090    1.3860   19.5630 C   0  0  0  0  0  0  0  0  0  0  0  0
    5.1280    1.2750   18.1180 C   0  0  0  0  0  0  0  0  0  0  0  0
    6.1890    0.6160   17.6550 N   0  0  0  0  0  0  0  0  0  0  0  0
    6.9860    0.0480   18.6240 C   0  0  0  0  0  0  0  0  0  0  0  0
  1  2  1  0
  2  3  1  0
  3  4  2  0
  4  5  1  0
  5  6  2  0
  3  7  1  0
  6  7  1  0
  7  8  1  0
  8  9  1  0
  9 10  1  0
 10 11  1  0
 11 12  2  0
 11 13  1  0
 13 14  1  0
 14 15  2  0
 15 16  1  0
 16 17  2  0
 17 18  1  0
 14 19  1  0
 18 19  2  0
M  END
