pyridine_urea_9571
     RDKit          3D

 22 23  0  0  0  0  0  0  0  0999 V2000
   12.7780    1.9520   22.8550 C   0  0  0  0  0  0  0  0  0  0  0  0
   13.2580    0.8170   22.1610 O   0  0  0  0  0  0  0  0  0  0  0  0
   12.6170   -0.3390   22.5370 C   0  0  0  0  0  0  0  0  0  0  0  0
   11.0650   -0.2920   22.4470 C   0  0  0  0  0  0  0  0  0  0  0  0
   10.6280   -0.8450   21.3170 F   0  0  0  0  0  0  0  0  0  0  0  0
   10.7080    1.0260   22.4430 F   0  0  0  0  0  0  0  0  0  0  0  0
   10.0960   -0.8720   23.4250 C   0  0  0  0  0  0  0  0  0  0  0  0
    8.8740   -1.1520   22.6040 N   0  0  0  0  0  0  0  0  0  0  0  0
    8.3730   -0.2610   21.6500 C   0  0  0  0  0  0  0  0  0  0  0  0
    8.9010    0.8120   21.3910 O   0  0  0  0  0  0  0  0  0  0  0  0
    7.1890   -0.7470   21.0380 N   0  0  0  0  0  0  0  0  0  0  0  0
    6.4570   -0.0520   20.0870 C   0  0  0  0  0  0  0  0  0  0  0  0
    5.1630    0.7190   20.3580 C   0  0  0  0  0  0  0  0  0  0  0  0
    4.6050    1.3590   19.2420 C   0  0  0  0  0  0  0  0  0  0  0  0
    5.2160    1.2740   17.9940 C   0  0  0  0  0  0  0  0  0  0  0  0
    6.3480    0.5890   17.7620 N   0  0  0  0  0  0  0  0  0  0  0  0
    6.9330   -0.0500   18.7900 C   0  0  0  0  0  0  0  0  0  0  0  0
   12.8060   -1.5380   21.9370 C   0  0  0  0  0  0  0  0  0  0  0  0
   12.3290   -2.6320   22.5950 C   0  0  0  0  0  0  0  0  0  0  0  0
   11.3030   -2.3730   23.6820 C   0  0  0  0  0  0  0  0  0  0  0  0
   11.5660   -1.2820   24.4440 C   0  0  0  0  0  0  0  0  0  0  0  0
   12.7430   -0.5910   23.9830 C   0  0  0  0  0  0  0  0  0  0  0  0
  1  2  1  0
  3  2  1  0
  3  4  1  0
  4  5  1  0
  4  6  1  0
  4  7  1  0
  7  8  1  0
  8  9  1  0
  9 10  2  0
  9 11  1  0
 11 12  1  0
 12 13  2  0
 13 14  1  0
 14 15  2  0
 15 16  1  0
 12 17  1  0
 16 17  2  0
  3 18  1  0
 18 19  1  0
 19 20  1  0
 20 21  1  0
  3 22  1  0
 21 22  1  0
M  END
