pyridine_urea_4075
     RDKit          3D

 26 28  0  0  0  0  0  0  0  0999 V2000
    8.3460   -1.6870   24.5690 O   0  0  0  0  0  0  0  0  0  0  0  0
    8.6480   -0.7050   25.2380 C   0  0  0  0  0  0  0  0  0  0  0  0
    9.9420    0.0720   25.0390 C   0  0  0  0  0  0  0  0  0  0  0  0
   10.4740   -0.1800   23.9240 O   0  0  0  0  0  0  0  0  0  0  0  0
   11.4530    0.8120   23.4640 C   0  0  0  0  0  0  0  0  0  0  0  0
   11.0200    2.0280   23.3800 C   0  0  0  0  0  0  0  0  0  0  0  0
   12.3000    1.6620   23.0860 C   0  0  0  0  0  0  0  0  0  0  0  0
   11.8900    0.2150   23.4230 C   0  0  0  0  0  0  0  0  0  0  0  0
   10.6490   -0.2350   23.8060 C   0  0  0  0  0  0  0  0  0  0  0  0
   10.2690   -1.3260   22.7720 C   0  0  0  0  0  0  0  0  0  0  0  0
    8.8980   -1.1990   22.3340 N   0  0  0  0  0  0  0  0  0  0  0  0
    8.3060   -0.3070   21.5060 C   0  0  0  0  0  0  0  0  0  0  0  0
    8.7540    0.7980   21.2370 O   0  0  0  0  0  0  0  0  0  0  0  0
    7.1210   -0.6930   20.9620 N   0  0  0  0  0  0  0  0  0  0  0  0
    6.3960    0.0210   20.0070 C   0  0  0  0  0  0  0  0  0  0  0  0
    5.2140    0.7200   20.2300 C   0  0  0  0  0  0  0  0  0  0  0  0
    4.6080    1.3980   19.1760 C   0  0  0  0  0  0  0  0  0  0  0  0
    5.2110    1.3520   17.9360 C   0  0  0  0  0  0  0  0  0  0  0  0
    6.3470    0.6800   17.6990 N   0  0  0  0  0  0  0  0  0  0  0  0
    6.9040    0.0360   18.7300 C   0  0  0  0  0  0  0  0  0  0  0  0
   12.9520   -0.7180   23.2910 C   0  0  0  0  0  0  0  0  0  0  0  0
   12.8430    0.5130   23.1160 C   0  0  0  0  0  0  0  0  0  0  0  0
    7.8770   -0.1740   26.2600 N   0  0  0  0  0  0  0  0  0  0  0  0
    6.5340   -0.5550   26.4840 C   0  0  0  0  0  0  0  0  0  0  0  0
    6.2080   -1.2510   27.4780 C   0  0  0  0  0  0  0  0  0  0  0  0
    6.1320   -1.9630   26.2390 C   0  0  0  0  0  0  0  0  0  0  0  0
  1  2  2  0
  2  3  1  0
  3  4  1  0
  4  5  1  0
  5  6  2  0
  6  7  1  0
  7  8  2  0
  8  9  1  0
  9 10  1  0
 10 11  1  0
 11 12  1  0
 12 13  2  0
 12 14  1  0
 14 15  1  0
 15 16  2  0
 16 17  1  0
 17 18  2  0
 18 19  1  0
 15 20  1  0
 19 20  2  0
  8 21  1  0
  5 22  1  0
 21 22  2  0
  2 23  1  0
 23 24  1  0
 24 25  1  0
 24 26  1  0
 25 26  1  0
M  END
