pyridine_urea_10455
     RDKit          3D

 22 24  0  0  0  0  0  0  0  0999 V2000
    8.8570    1.1330   21.1680 O   0  0  0  0  0  0  0  0  0  0  0  0
    8.4570   -0.0010   21.4860 C   0  0  0  0  0  0  0  0  0  0  0  0
    7.3210   -0.6030   20.9980 N   0  0  0  0  0  0  0  0  0  0  0  0
    6.4940    0.0480   20.0830 C   0  0  0  0  0  0  0  0  0  0  0  0
    5.1700    0.7530   20.4250 C   0  0  0  0  0  0  0  0  0  0  0  0
    4.4870    1.4080   19.2280 C   0  0  0  0  0  0  0  0  0  0  0  0
    5.1640    1.2910   17.9000 C   0  0  0  0  0  0  0  0  0  0  0  0
    6.3200    0.6380   17.7190 N   0  0  0  0  0  0  0  0  0  0  0  0
    6.9250    0.0570   18.7680 C   0  0  0  0  0  0  0  0  0  0  0  0
    9.1690   -0.8020   22.3920 N   0  0  0  0  0  0  0  0  0  0  0  0
   10.6330   -0.6350   22.4690 C   0  0  0  0  0  0  0  0  0  0  0  0
   11.2170   -1.5160   21.9140 C   0  0  0  0  0  0  0  0  0  0  0  0
    9.8020   -1.1140   22.2150 N   0  0  0  0  0  0  0  0  0  0  0  0
    9.7490    0.2330   23.0430 N   0  0  0  0  0  0  0  0  0  0  0  0
   11.0670    0.5380   23.1610 C   0  0  0  0  0  0  0  0  0  0  0  0
   12.1460    1.3710   23.6000 C   0  0  0  0  0  0  0  0  0  0  0  0
   12.7650    0.1850   23.5130 C   0  0  0  0  0  0  0  0  0  0  0  0
   12.1430   -1.0430   23.1620 C   0  0  0  0  0  0  0  0  0  0  0  0
   10.7270   -0.2450   23.0210 C   0  0  0  0  0  0  0  0  0  0  0  0
   10.2760    1.1210   23.1670 C   0  0  0  0  0  0  0  0  0  0  0  0
   11.0790    2.1040   23.5030 C   0  0  0  0  0  0  0  0  0  0  0  0
   10.8660    3.4130   23.6930 F   0  0  0  0  0  0  0  0  0  0  0  0
  1  2  2  0
  2  3  1  0
  3  4  1  0
  4  5  2  0
  5  6  1  0
  6  7  2  0
  7  8  1  0
  4  9  1  0
  8  9  2  0
  2 10  1  0
 10 11  1  0
 11 12  2  0
 12 13  1  0
 13 14  1  0
 11 15  1  0
 14 15  2  0
 15 16  1  0
 16 17  2  0
 17 18  1  0
 18 19  2  0
 19 20  1  0
 16 21  1  0
 20 21  2  0
 21 22  1  0
M  END
