pyridine_urea_7729
     RDKit          3D

 21 23  0  0  0  0  0  0  0  0999 V2000
    8.9330    1.4300   21.1100 O   0  0  0  0  0  0  0  0  0  0  0  0
    8.5580    0.3040   21.4160 C   0  0  0  0  0  0  0  0  0  0  0  0
    7.3590   -0.2680   21.0760 N   0  0  0  0  0  0  0  0  0  0  0  0
    6.5910    0.2250   20.0270 C   0  0  0  0  0  0  0  0  0  0  0  0
    5.4260    0.9380   20.3170 C   0  0  0  0  0  0  0  0  0  0  0  0
    4.6670    1.4600   19.2730 C   0  0  0  0  0  0  0  0  0  0  0  0
    5.1080    1.2460   17.9920 C   0  0  0  0  0  0  0  0  0  0  0  0
    6.2130    0.5570   17.6900 N   0  0  0  0  0  0  0  0  0  0  0  0
    6.9280    0.0610   18.7100 C   0  0  0  0  0  0  0  0  0  0  0  0
    9.3390   -0.5360   22.1430 N   0  0  0  0  0  0  0  0  0  0  0  0
    9.2290   -0.4590   23.5900 C   0  0  1  0  0  0  0  0  0  0  0  0
    9.7200   -1.5790   24.0520 C   0  0  0  0  0  0  0  0  0  0  0  0
   10.3790   -0.3010   24.4710 C   0  0  1  0  0  0  0  0  0  0  0  0
   11.5180   -0.0310   23.7870 C   0  0  0  0  0  0  0  0  0  0  0  0
   12.4410    0.8640   23.6740 C   0  0  0  0  0  0  0  0  0  0  0  0
   13.3130    0.3250   22.6500 C   0  0  0  0  0  0  0  0  0  0  0  0
   13.0490   -0.9950   21.9520 C   0  0  0  0  0  0  0  0  0  0  0  0
   13.8740   -1.4190   20.9840 F   0  0  0  0  0  0  0  0  0  0  0  0
   11.9450   -1.7980   22.2720 C   0  0  0  0  0  0  0  0  0  0  0  0
   12.1250   -0.6940   22.8820 C   0  0  0  0  0  0  0  0  0  0  0  0
   13.2560   -0.1300   22.4030 F   0  0  0  0  0  0  0  0  0  0  0  0
  1  2  2  0
  2  3  1  0
  3  4  1  0
  4  5  2  0
  5  6  1  0
  6  7  2  0
  7  8  1  0
  4  9  1  0
  8  9  2  0
  2 10  1  0
 11 10  1  6
 11 12  1  0
 11 13  1  0
 12 13  1  0
 13 14  1  6
 14 15  2  0
 15 16  1  0
 16 17  2  0
 17 18  1  0
 17 19  1  0
 14 20  1  0
 19 20  2  0
 20 21  1  0
M  END
