pyridine_urea_8273
     RDKit          3D

 23 25  0  0  0  0  0  0  0  0999 V2000
    8.8970    0.7600   21.3680 O   0  0  0  0  0  0  0  0  0  0  0  0
    8.3480   -0.3020   21.5930 C   0  0  0  0  0  0  0  0  0  0  0  0
    8.8710   -1.2450   22.4580 N   0  0  0  0  0  0  0  0  0  0  0  0
   10.3120   -1.4350   22.5220 C   0  0  0  0  0  0  0  0  0  0  0  0
   11.1300   -0.1040   22.6950 C   0  0  0  0  0  0  0  0  0  0  0  0
   10.5960    1.2730   22.7480 N   0  0  0  0  0  0  0  0  0  0  0  0
   11.8330    2.0340   22.9110 C   0  0  0  0  0  0  0  0  0  0  0  0
   11.7980    3.5730   23.0310 C   0  0  0  0  0  0  0  0  0  0  0  0
   12.6610    4.3690   22.2780 C   0  0  0  0  0  0  0  0  0  0  0  0
   12.6630    5.8890   22.3990 C   0  0  0  0  0  0  0  0  0  0  0  0
   11.7270    6.6230   23.3470 C   0  0  0  0  0  0  0  0  0  0  0  0
   10.8000    5.6920   24.1380 C   0  0  0  0  0  0  0  0  0  0  0  0
    9.6670    6.3500   25.2640 Cl  0  0  0  0  0  0  0  0  0  0  0  0
   10.8970    4.1760   23.9210 C   0  0  0  0  0  0  0  0  0  0  0  0
   12.9380    1.2380   22.9510 N   0  0  0  0  0  0  0  0  0  0  0  0
   12.5450   -0.1230   22.8210 O   0  0  0  0  0  0  0  0  0  0  0  0
    7.1540   -0.7140   21.0600 N   0  0  0  0  0  0  0  0  0  0  0  0
    6.4990   -0.0440   20.0200 C   0  0  0  0  0  0  0  0  0  0  0  0
    5.2210    0.7360   20.2970 C   0  0  0  0  0  0  0  0  0  0  0  0
    4.6070    1.4010   19.2390 C   0  0  0  0  0  0  0  0  0  0  0  0
    5.1960    1.3160   17.9770 C   0  0  0  0  0  0  0  0  0  0  0  0
    6.3210    0.6240   17.7160 N   0  0  0  0  0  0  0  0  0  0  0  0
    6.9390   -0.0310   18.7180 C   0  0  0  0  0  0  0  0  0  0  0  0
  1  2  2  0
  2  3  1  0
  3  4  1  0
  4  5  1  0
  5  6  2  0
  6  7  1  0
  7  8  1  0
  8  9  2  0
  9 10  1  0
 10 11  2  0
 11 12  1  0
 12 13  1  0
  8 14  1  0
 12 14  2  0
  7 15  2  0
  5 16  1  0
 15 16  1  0
  2 17  1  0
 17 18  1  0
 18 19  2  0
 19 20  1  0
 20 21  2  0
 21 22  1  0
 18 23  1  0
 22 23  2  0
M  END
