pyridine_urea_6329
     RDKit          3D

 23 25  0  0  0  0  0  0  0  0999 V2000
   13.0350    5.1800   22.8200 C   0  0  0  0  0  0  0  0  0  0  0  0
   11.9070    5.4480   22.4870 C   0  0  0  0  0  0  0  0  0  0  0  0
   11.0840    4.3320   22.9450 O   0  0  0  0  0  0  0  0  0  0  0  0
   11.7160    3.1320   22.8620 C   0  0  0  0  0  0  0  0  0  0  0  0
   10.2010    2.8920   23.0090 C   0  0  0  0  0  0  0  0  0  0  0  0
    9.5100    1.6850   23.0600 C   0  0  0  0  0  0  0  0  0  0  0  0
   10.1270    0.3010   22.9710 C   0  0  0  0  0  0  0  0  0  0  0  0
    9.3390   -1.1150   23.0400 C   0  0  0  0  0  0  0  0  0  0  0  0
   10.4600   -0.9240   22.9030 C   0  0  0  0  0  0  0  0  0  0  0  0
   10.1700    0.4680   22.7850 N   0  0  0  0  0  0  0  0  0  0  0  0
    9.1630    0.8250   21.7540 C   0  0  0  0  0  0  0  0  0  0  0  0
    9.2270    1.9080   21.2060 O   0  0  0  0  0  0  0  0  0  0  0  0
    8.1090   -0.0610   21.3830 N   0  0  0  0  0  0  0  0  0  0  0  0
    7.1020    0.2560   20.2880 C   0  0  0  0  0  0  0  0  0  0  0  0
    6.0320    1.0700   20.6940 C   0  0  0  0  0  0  0  0  0  0  0  0
    5.0820    1.4210   19.7370 C   0  0  0  0  0  0  0  0  0  0  0  0
    5.2160    0.9360   18.3210 C   0  0  0  0  0  0  0  0  0  0  0  0
    6.2320    0.1550   17.9290 N   0  0  0  0  0  0  0  0  0  0  0  0
    7.1520   -0.1880   18.8730 C   0  0  0  0  0  0  0  0  0  0  0  0
   11.7330   -1.6760   22.8140 C   0  0  0  0  0  0  0  0  0  0  0  0
   12.4970   -0.6010   22.7210 C   0  0  0  0  0  0  0  0  0  0  0  0
   11.6180    0.5130   22.8240 C   0  0  0  0  0  0  0  0  0  0  0  0
   12.2300    1.7810   22.7870 C   0  0  0  0  0  0  0  0  0  0  0  0
  1  2  1  0
  2  3  1  0
  3  4  1  0
  4  5  2  0
  5  6  1  0
  6  7  2  0
  7  8  1  0
  8  9  2  0
  9 10  1  0
 10 11  1  0
 11 12  2  0
 11 13  1  0
 13 14  1  0
 14 15  2  0
 15 16  1  0
 16 17  2  0
 17 18  1  0
 14 19  1  0
 18 19  2  0
  9 20  1  0
 20 21  2  0
  7 22  1  0
 21 22  1  0
  4 23  1  0
 22 23  2  0
M  END
