pyridine_urea_1950
     RDKit          3D

 27 30  0  0  0  0  0  0  0  0999 V2000
    8.3700    0.8290   21.0320 O   0  0  0  0  0  0  0  0  0  0  0  0
    8.0300   -0.3450   21.1540 C   0  0  0  0  0  0  0  0  0  0  0  0
    6.8280   -0.8370   20.7980 N   0  0  0  0  0  0  0  0  0  0  0  0
    6.1310   -0.0590   19.9110 C   0  0  0  0  0  0  0  0  0  0  0  0
    4.8110    0.6530   20.2060 C   0  0  0  0  0  0  0  0  0  0  0  0
    4.2970    1.4700   19.0290 C   0  0  0  0  0  0  0  0  0  0  0  0
    5.1170    1.4740   17.7780 C   0  0  0  0  0  0  0  0  0  0  0  0
    6.2670    0.7950   17.6360 N   0  0  0  0  0  0  0  0  0  0  0  0
    6.7240    0.0750   18.6720 C   0  0  0  0  0  0  0  0  0  0  0  0
    8.8730   -1.2500   21.6610 N   0  0  0  0  0  0  0  0  0  0  0  0
    9.9270   -0.5490   22.2540 C   0  0  1  0  0  0  0  0  0  0  0  0
    9.4770   -0.0440   23.4420 C   0  0  0  0  0  0  0  0  0  0  0  0
   10.2900   -0.2760   24.4570 N   0  0  0  0  0  0  0  0  0  0  0  0
    9.8690   -0.7660   25.7190 C   0  0  0  0  0  0  0  0  0  0  0  0
    8.6420   -0.4660   26.2980 C   0  0  0  0  0  0  0  0  0  0  0  0
    7.7010   -1.5070   26.4750 C   0  0  0  0  0  0  0  0  0  0  0  0
    6.4060   -1.3320   27.0650 C   0  0  0  0  0  0  0  0  0  0  0  0
    6.1800    0.1290   27.4740 C   0  0  0  0  0  0  0  0  0  0  0  0
    7.1240    1.1120   27.2850 C   0  0  0  0  0  0  0  0  0  0  0  0
    8.3490    0.8340   26.7050 C   0  0  0  0  0  0  0  0  0  0  0  0
   11.6210   -0.7130   23.8650 C   0  0  0  0  0  0  0  0  0  0  0  0
   12.1990    0.3550   24.3770 C   0  0  0  0  0  0  0  0  0  0  0  0
   11.2240    1.4670   24.2080 C   0  0  0  0  0  0  0  0  0  0  0  0
   10.8720    1.5750   22.9530 O   0  0  0  0  0  0  0  0  0  0  0  0
   11.8160    0.8130   22.3390 C   0  0  0  0  0  0  0  0  0  0  0  0
   12.5850   -0.0500   22.9780 C   0  0  0  0  0  0  0  0  0  0  0  0
   11.1600   -1.3000   22.6600 C   0  0  0  0  0  0  0  0  0  0  0  0
  1  2  2  0
  2  3  1  0
  3  4  1  0
  4  5  2  0
  5  6  1  0
  6  7  2  0
  7  8  1  0
  4  9  1  0
  8  9  2  0
  2 10  1  0
 11 10  1  1
 11 12  1  0
 12 13  1  0
 13 14  1  0
 14 15  1  0
 15 16  2  0
 16 17  1  0
 17 18  2  0
 18 19  1  0
 15 20  1  0
 19 20  2  0
 21 13  1  0
 21 22  1  0
 22 23  1  0
 23 24  1  0
 24 25  1  0
 21 26  1  0
 25 26  1  0
 11 27  1  0
 21 27  1  0
M  END
