pyridine_urea_3273
     RDKit          3D

 20 21  0  0  0  0  0  0  0  0999 V2000
   13.8070    1.2630   22.1830 C   0  0  0  0  0  0  0  0  0  0  0  0
   13.8470    0.1320   21.3260 O   0  0  0  0  0  0  0  0  0  0  0  0
   13.2820   -1.0390   21.7350 C   0  0  0  0  0  0  0  0  0  0  0  0
   13.4280   -2.0590   21.0800 O   0  0  0  0  0  0  0  0  0  0  0  0
   12.5330   -1.0370   22.8720 C   0  0  1  0  0  0  0  0  0  0  0  0
   12.4560    0.2500   23.3770 C   0  0  0  0  0  0  0  0  0  0  0  0
   11.5670    0.3260   24.4100 C   0  0  0  0  0  0  0  0  0  0  0  0
   10.1600   -0.0750   24.0320 C   0  0  0  0  0  0  0  0  0  0  0  0
   10.1850   -0.5610   22.7390 C   0  0  2  0  0  0  0  0  0  0  0  0
    8.8360   -0.8690   22.4040 N   0  0  0  0  0  0  0  0  0  0  0  0
    8.2780   -0.0280   21.4830 C   0  0  0  0  0  0  0  0  0  0  0  0
    8.8450    1.2560   21.1580 O   0  0  0  0  0  0  0  0  0  0  0  0
    7.1390   -0.5660   20.9580 N   0  0  0  0  0  0  0  0  0  0  0  0
    6.3870    0.0980   19.9980 C   0  0  0  0  0  0  0  0  0  0  0  0
    5.1900    0.7580   20.2200 C   0  0  0  0  0  0  0  0  0  0  0  0
    4.5720    1.3950   19.1450 C   0  0  0  0  0  0  0  0  0  0  0  0
    5.1840    1.3410   17.8920 C   0  0  0  0  0  0  0  0  0  0  0  0
    6.3370    0.6950   17.6740 N   0  0  0  0  0  0  0  0  0  0  0  0
    6.9000    0.0950   18.7250 C   0  0  0  0  0  0  0  0  0  0  0  0
   11.2850   -1.5000   22.4860 C   0  0  0  0  0  0  0  0  0  0  0  0
  1  2  1  0
  2  3  1  0
  3  4  2  0
  5  3  1  6
  5  6  1  0
  6  7  1  0
  7  8  1  0
  8  9  1  0
  9 10  1  1
 10 11  1  0
 11 12  2  0
 11 13  1  0
 13 14  1  0
 14 15  2  0
 15 16  1  0
 16 17  2  0
 17 18  1  0
 14 19  1  0
 18 19  2  0
  5 20  1  0
  9 20  1  0
M  END
