pyridine_urea_107
     RDKit          3D

 17 17  0  0  0  0  0  0  0  0999 V2000
    7.7640   -0.4490   23.5830 C   0  0  0  0  0  0  0  0  0  0  0  0
    8.8840   -0.7590   23.5910 C   0  0  1  0  0  0  0  0  0  0  0  0
   10.1650   -1.4910   23.7830 C   0  0  0  0  0  0  0  0  0  0  0  0
   10.0050   -3.0710   23.4560 S   0  0  0  0  0  0  0  0  0  0  0  0
    8.4500   -3.4730   23.9290 N   0  0  0  0  0  0  0  0  0  0  0  0
   10.0130   -3.1550   22.0160 O   0  0  0  0  0  0  0  0  0  0  0  0
   10.9460   -3.7420   24.3160 O   0  0  0  0  0  0  0  0  0  0  0  0
    9.0820   -0.7500   22.1180 N   0  0  0  0  0  0  0  0  0  0  0  0
    8.4150    0.1310   21.3660 C   0  0  0  0  0  0  0  0  0  0  0  0
    8.9010    1.3990   21.0890 O   0  0  0  0  0  0  0  0  0  0  0  0
    7.2320   -0.4130   20.9580 N   0  0  0  0  0  0  0  0  0  0  0  0
    6.4590    0.1990   19.9940 C   0  0  0  0  0  0  0  0  0  0  0  0
    5.1640    0.9720   20.2090 C   0  0  0  0  0  0  0  0  0  0  0  0
    4.5220    1.5680   19.0440 C   0  0  0  0  0  0  0  0  0  0  0  0
    5.1110    1.3970   17.8570 C   0  0  0  0  0  0  0  0  0  0  0  0
    6.2580    0.6990   17.6510 N   0  0  0  0  0  0  0  0  0  0  0  0
    6.8850    0.1320   18.6940 C   0  0  0  0  0  0  0  0  0  0  0  0
  2  1  1  6
  2  3  1  0
  3  4  1  0
  4  5  1  0
  4  6  2  0
  4  7  2  0
  2  8  1  0
  8  9  1  0
  9 10  2  0
  9 11  1  0
 11 12  1  0
 12 13  2  0
 13 14  1  0
 14 15  2  0
 15 16  1  0
 12 17  1  0
 16 17  2  0
M  END
