pyridine_urea_1957
     RDKit          3D

 20 21  0  0  0  0  0  0  0  0999 V2000
   11.0410   -3.2850   24.2510 N   0  0  0  0  0  0  0  0  0  0  0  0
    9.8460   -2.9670   23.6670 C   0  0  0  0  0  0  0  0  0  0  0  0
    8.7280   -3.8610   23.6990 O   0  0  0  0  0  0  0  0  0  0  0  0
    9.8860   -1.5870   23.0340 C   0  0  1  0  0  0  0  0  0  0  0  0
    8.5190   -1.1500   22.6910 N   0  0  0  0  0  0  0  0  0  0  0  0
    8.2400   -0.2980   21.6540 C   0  0  0  0  0  0  0  0  0  0  0  0
    8.9460    0.6650   21.3580 O   0  0  0  0  0  0  0  0  0  0  0  0
    7.1030   -0.6720   21.0620 N   0  0  0  0  0  0  0  0  0  0  0  0
    6.4780   -0.0030   20.0140 C   0  0  0  0  0  0  0  0  0  0  0  0
    5.2460    0.8000   20.2840 C   0  0  0  0  0  0  0  0  0  0  0  0
    4.6160    1.4810   19.2630 C   0  0  0  0  0  0  0  0  0  0  0  0
    5.1370    1.4140   17.9750 C   0  0  0  0  0  0  0  0  0  0  0  0
    6.2840    0.6830   17.6020 N   0  0  0  0  0  0  0  0  0  0  0  0
    6.9220   -0.0260   18.7230 C   0  0  0  0  0  0  0  0  0  0  0  0
   10.5960   -0.5780   23.8940 C   0  0  0  0  0  0  0  0  0  0  0  0
   11.8400   -0.6510   23.3600 C   0  0  2  0  0  0  0  0  0  0  0  0
   12.6330    0.4630   23.1620 C   0  0  0  0  0  0  0  0  0  0  0  0
   13.5360    0.0960   22.2390 F   0  0  0  0  0  0  0  0  0  0  0  0
   11.8820    1.4580   22.6410 F   0  0  0  0  0  0  0  0  0  0  0  0
   11.0680   -1.1970   22.1040 C   0  0  0  0  0  0  0  0  0  0  0  0
  1  2  1  0
  2  3  2  0
  4  2  1  0
  4  5  1  6
  5  6  1  0
  6  7  2  0
  6  8  1  0
  8  9  1  0
  9 10  2  0
 10 11  1  0
 11 12  2  0
 12 13  1  0
  9 14  1  0
 13 14  2  0
  4 15  1  0
 15 16  1  0
 16 17  1  6
 17 18  1  0
 17 19  1  0
  4 20  1  0
 16 20  1  0
M  END
