pyridine_urea_2155
     RDKit          3D

 22 24  0  0  0  0  0  0  0  0999 V2000
    9.0200    1.2420   21.2310 O   0  0  0  0  0  0  0  0  0  0  0  0
    8.5630    0.1460   21.5830 C   0  0  0  0  0  0  0  0  0  0  0  0
    7.4750   -0.4950   21.0170 N   0  0  0  0  0  0  0  0  0  0  0  0
    6.6080    0.1150   20.1010 C   0  0  0  0  0  0  0  0  0  0  0  0
    5.2890    0.8190   20.4730 C   0  0  0  0  0  0  0  0  0  0  0  0
    4.5510    1.4250   19.2810 C   0  0  0  0  0  0  0  0  0  0  0  0
    5.1750    1.2690   17.9350 C   0  0  0  0  0  0  0  0  0  0  0  0
    6.3290    0.6230   17.7260 N   0  0  0  0  0  0  0  0  0  0  0  0
    6.9840    0.0860   18.7710 C   0  0  0  0  0  0  0  0  0  0  0  0
    9.1060   -0.6000   22.6190 N   0  0  0  0  0  0  0  0  0  0  0  0
   10.0460   -0.0450   23.5870 C   0  0  1  0  0  0  0  0  0  0  0  0
    9.4770    0.3710   24.8090 C   0  0  0  0  0  0  0  0  0  0  0  0
    8.4770   -0.2990   25.0420 O   0  0  0  0  0  0  0  0  0  0  0  0
   11.0650   -1.1320   24.3230 C   0  0  0  0  0  0  0  0  0  0  0  0
   12.5460   -0.9830   24.1180 O   0  0  0  0  0  0  0  0  0  0  0  0
   12.6470   -0.8120   22.7320 C   0  0  0  0  0  0  0  0  0  0  0  0
   13.6320   -1.8460   22.7200 C   0  0  0  0  0  0  0  0  0  0  0  0
   13.0640   -1.1360   21.8180 C   0  0  0  0  0  0  0  0  0  0  0  0
   12.9450   -1.1660   23.4760 C   0  0  0  0  0  0  0  0  0  0  0  0
   12.1530   -0.4380   24.4970 C   0  0  0  0  0  0  0  0  0  0  0  0
   11.8310   -0.0350   23.3590 C   0  0  0  0  0  0  0  0  0  0  0  0
   10.9290    0.8670   23.0590 C   0  0  0  0  0  0  0  0  0  0  0  0
  1  2  2  0
  2  3  1  0
  3  4  1  0
  4  5  2  0
  5  6  1  0
  6  7  2  0
  7  8  1  0
  4  9  1  0
  8  9  2  0
  2 10  1  0
 11 10  1  0
 11 12  1  1
 12 13  1  0
 11 14  1  0
 14 15  1  0
 15 16  1  0
 16 17  2  0
 17 18  1  0
 18 19  2  0
 19 20  1  0
 16 21  1  0
 20 21  2  0
 11 22  1  0
 21 22  1  0
M  END
