pyridine_urea_14908
     RDKit          3D

 19 20  0  0  0  0  0  0  0  0999 V2000
   12.2830    1.3050   22.9510 C   0  0  0  0  0  0  0  0  0  0  0  0
   13.3370    0.2390   22.6840 C   0  0  0  0  0  0  0  0  0  0  0  0
   13.0970   -0.9590   23.5660 C   0  0  0  0  0  0  0  0  0  0  0  0
   11.9100   -1.4220   23.2350 N   0  0  0  0  0  0  0  0  0  0  0  0
   11.7240   -2.0670   22.0880 C   0  0  0  0  0  0  0  0  0  0  0  0
   10.3410   -2.4320   21.9420 C   0  0  0  0  0  0  0  0  0  0  0  0
    9.7430   -1.9030   23.1860 C   0  0  0  0  0  0  0  0  0  0  0  0
    8.2710   -2.0360   23.4540 C   0  0  0  0  0  0  0  0  0  0  0  0
    7.8140   -0.7010   23.0760 N   0  0  0  0  0  0  0  0  0  0  0  0
    7.8730   -0.2730   21.7300 C   0  0  0  0  0  0  0  0  0  0  0  0
    8.7020    0.5180   21.2920 O   0  0  0  0  0  0  0  0  0  0  0  0
    6.8730   -0.8490   21.0410 N   0  0  0  0  0  0  0  0  0  0  0  0
    6.3700   -0.1350   20.0080 C   0  0  0  0  0  0  0  0  0  0  0  0
    5.2140    0.6030   20.2250 C   0  0  0  0  0  0  0  0  0  0  0  0
    4.6550    1.3530   19.2200 C   0  0  0  0  0  0  0  0  0  0  0  0
    5.2260    1.3920   17.9810 C   0  0  0  0  0  0  0  0  0  0  0  0
    6.3600    0.6950   17.6800 N   0  0  0  0  0  0  0  0  0  0  0  0
    6.9700   -0.1190   18.7470 C   0  0  0  0  0  0  0  0  0  0  0  0
   10.7280   -1.2960   23.9650 N   0  0  0  0  0  0  0  0  0  0  0  0
  1  2  1  0
  2  3  1  0
  3  4  1  0
  4  5  1  0
  5  6  2  0
  6  7  1  0
  7  8  1  0
  8  9  1  0
  9 10  1  0
 10 11  2  0
 10 12  1  0
 12 13  1  0
 13 14  2  0
 14 15  1  0
 15 16  2  0
 16 17  1  0
 13 18  1  0
 17 18  2  0
  4 19  1  0
  7 19  2  0
M  END
