pyridine_urea_13565
     RDKit          3D

 28 31  0  0  0  0  0  0  0  0999 V2000
    8.8180    0.8220   21.3360 O   0  0  0  0  0  0  0  0  0  0  0  0
    8.3860   -0.3050   21.5530 C   0  0  0  0  0  0  0  0  0  0  0  0
    7.2370   -0.8210   21.0040 N   0  0  0  0  0  0  0  0  0  0  0  0
    6.4570   -0.0960   20.0900 C   0  0  0  0  0  0  0  0  0  0  0  0
    5.1460    0.6320   20.4330 C   0  0  0  0  0  0  0  0  0  0  0  0
    4.5070    1.3640   19.2510 C   0  0  0  0  0  0  0  0  0  0  0  0
    5.2090    1.2920   17.9320 C   0  0  0  0  0  0  0  0  0  0  0  0
    6.3530    0.6170   17.7480 N   0  0  0  0  0  0  0  0  0  0  0  0
    6.9220   -0.0340   18.7850 C   0  0  0  0  0  0  0  0  0  0  0  0
    9.0650   -1.1640   22.3900 N   0  0  0  0  0  0  0  0  0  0  0  0
   10.4090   -0.7450   22.6590 C   0  0  0  0  0  0  0  0  0  0  0  0
   11.4940   -1.3610   22.0540 C   0  0  0  0  0  0  0  0  0  0  0  0
   12.7780   -0.8940   22.3200 C   0  0  0  0  0  0  0  0  0  0  0  0
   12.9810    0.1800   23.1820 C   0  0  0  0  0  0  0  0  0  0  0  0
   11.8970    0.8100   23.8160 C   0  0  0  0  0  0  0  0  0  0  0  0
   10.6280    0.3090   23.5260 C   0  0  0  0  0  0  0  0  0  0  0  0
    9.4360    0.9670   24.2050 C   0  0  0  0  0  0  0  0  0  0  0  0
    8.9020    2.1410   23.7090 C   0  0  0  0  0  0  0  0  0  0  0  0
    7.8060    2.7530   24.3200 C   0  0  0  0  0  0  0  0  0  0  0  0
    7.2280    2.1790   25.4550 C   0  0  0  0  0  0  0  0  0  0  0  0
    6.1410    2.7900   26.0520 C   0  0  0  0  0  0  0  0  0  0  0  0
    5.5920    2.2050   27.3540 C   0  0  0  0  0  0  0  0  0  0  0  0
    4.3950    2.9540   27.9290 C   0  0  0  0  0  0  0  0  0  0  0  0
    3.8940    4.0730   27.2680 C   0  0  0  0  0  0  0  0  0  0  0  0
    4.4530    4.5500   26.0750 C   0  0  0  0  0  0  0  0  0  0  0  0
    5.5550    3.9260   25.4750 C   0  0  0  0  0  0  0  0  0  0  0  0
    7.7730    0.9870   25.9620 C   0  0  0  0  0  0  0  0  0  0  0  0
    8.8670    0.3890   25.3410 C   0  0  0  0  0  0  0  0  0  0  0  0
  1  2  2  0
  2  3  1  0
  3  4  1  0
  4  5  2  0
  5  6  1  0
  6  7  2  0
  7  8  1  0
  4  9  1  0
  8  9  2  0
  2 10  1  0
 10 11  1  0
 11 12  2  0
 12 13  1  0
 13 14  2  0
 14 15  1  0
 11 16  1  0
 15 16  2  0
 16 17  1  0
 17 18  2  0
 18 19  1  0
 19 20  2  0
 20 21  1  0
 21 22  2  0
 22 23  1  0
 23 24  2  0
 24 25  1  0
 21 26  1  0
 25 26  2  0
 20 27  1  0
 17 28  1  0
 27 28  2  0
M  END
