pyridine_urea_13044
     RDKit          3D

 18 19  0  0  0  0  0  0  0  0999 V2000
    8.5950    0.4950   21.3690 O   0  0  0  0  0  0  0  0  0  0  0  0
    8.0800   -0.6150   21.4380 C   0  0  0  0  0  0  0  0  0  0  0  0
    6.8530   -0.9350   20.9610 N   0  0  0  0  0  0  0  0  0  0  0  0
    6.2810   -0.1710   19.9430 C   0  0  0  0  0  0  0  0  0  0  0  0
    5.0940    0.5220   20.1790 C   0  0  0  0  0  0  0  0  0  0  0  0
    4.5300    1.2980   19.1640 C   0  0  0  0  0  0  0  0  0  0  0  0
    5.1820    1.3500   17.9480 C   0  0  0  0  0  0  0  0  0  0  0  0
    6.3260    0.6850   17.7040 N   0  0  0  0  0  0  0  0  0  0  0  0
    6.8460   -0.0560   18.6970 C   0  0  0  0  0  0  0  0  0  0  0  0
    8.7490   -1.6580   22.0300 N   0  0  0  0  0  0  0  0  0  0  0  0
   10.0210   -1.1510   22.3910 C   0  0  0  0  0  0  0  0  0  0  0  0
   11.2960   -1.5560   21.8270 C   0  0  0  0  0  0  0  0  0  0  0  0
   12.0970   -0.7020   22.5300 N   0  0  0  0  0  0  0  0  0  0  0  0
   11.5740    0.2060   23.4820 N   0  0  0  0  0  0  0  0  0  0  0  0
   12.8490    0.3150   23.3650 C   0  0  0  0  0  0  0  0  0  0  0  0
   13.0630    1.5970   22.9920 C   0  0  0  0  0  0  0  0  0  0  0  0
   12.1040    2.2200   22.3230 F   0  0  0  0  0  0  0  0  0  0  0  0
   10.3490   -0.2260   23.2590 C   0  0  0  0  0  0  0  0  0  0  0  0
  1  2  2  0
  2  3  1  0
  3  4  1  0
  4  5  2  0
  5  6  1  0
  6  7  2  0
  7  8  1  0
  4  9  1  0
  8  9  2  0
  2 10  1  0
 10 11  1  0
 11 12  1  0
 12 13  2  0
 13 14  1  0
 14 15  1  0
 15 16  1  0
 16 17  1  0
 11 18  2  0
 14 18  1  0
M  END
