pyridine_urea_903
     RDKit          3D

 22 23  0  0  0  0  0  0  0  0999 V2000
    8.8000   -1.0620   20.6910 O   0  0  0  0  0  0  0  0  0  0  0  0
    8.0280   -0.4520   21.3430 C   0  0  0  0  0  0  0  0  0  0  0  0
    6.6090   -0.5660   21.1560 N   0  0  0  0  0  0  0  0  0  0  0  0
    6.1270    0.0910   20.0540 C   0  0  0  0  0  0  0  0  0  0  0  0
    4.9630    0.8350   20.1630 C   0  0  0  0  0  0  0  0  0  0  0  0
    4.4960    1.5020   19.0370 C   0  0  0  0  0  0  0  0  0  0  0  0
    5.2120    1.4030   17.8430 C   0  0  0  0  0  0  0  0  0  0  0  0
    6.3400    0.6810   17.7200 N   0  0  0  0  0  0  0  0  0  0  0  0
    6.7780    0.0350   18.8300 C   0  0  0  0  0  0  0  0  0  0  0  0
    8.3750    0.3990   22.3150 N   0  0  0  0  0  0  0  0  0  0  0  0
    9.5650    0.0210   22.9960 C   0  0  0  0  0  0  0  0  0  0  0  0
   10.6880   -0.5650   22.1770 C   0  0  0  0  0  0  0  0  0  0  0  0
   11.8160   -0.9270   22.8490 C   0  0  0  0  0  0  0  0  0  0  0  0
   11.8170   -0.7440   24.2290 C   0  0  0  0  0  0  0  0  0  0  0  0
   13.1480   -1.2100   25.1870 S   0  0  0  0  0  0  0  0  0  0  0  0
   13.1220   -2.8850   24.6850 C   0  0  0  0  0  0  0  0  0  0  0  0
   13.7650   -3.6130   25.5930 F   0  0  0  0  0  0  0  0  0  0  0  0
   13.7040   -3.0150   23.4760 F   0  0  0  0  0  0  0  0  0  0  0  0
   11.8510   -3.3360   24.5950 F   0  0  0  0  0  0  0  0  0  0  0  0
   10.7700   -0.2110   24.9530 C   0  0  0  0  0  0  0  0  0  0  0  0
    9.6470    0.1820   24.3430 C   0  0  0  0  0  0  0  0  0  0  0  0
    8.6270    0.7080   25.0460 F   0  0  0  0  0  0  0  0  0  0  0  0
  1  2  2  0
  2  3  1  0
  3  4  1  0
  4  5  2  0
  5  6  1  0
  6  7  2  0
  7  8  1  0
  4  9  1  0
  8  9  2  0
  2 10  1  0
 10 11  1  0
 11 12  2  0
 12 13  1  0
 13 14  2  0
 14 15  1  0
 15 16  1  0
 16 17  1  0
 16 18  1  0
 16 19  1  0
 14 20  1  0
 11 21  1  0
 20 21  2  0
 21 22  1  0
M  END
