pyridine_urea_13213
     RDKit          3D

 17 17  0  0  0  0  0  0  0  0999 V2000
   13.0820   -2.0130   21.0330 C   0  0  0  0  0  0  0  0  0  0  0  0
   11.9910   -2.3780   21.8200 O   0  0  0  0  0  0  0  0  0  0  0  0
   11.6160   -1.3470   22.5920 C   0  0  0  0  0  0  0  0  0  0  0  0
   10.2970   -0.9570   22.7970 C   0  0  2  0  0  0  0  0  0  0  0  0
    9.4220   -1.0930   21.6330 N   0  0  0  0  0  0  0  0  0  0  0  0
    8.4790   -0.1320   21.3550 C   0  0  0  0  0  0  0  0  0  0  0  0
    8.7440    1.0590   21.3390 O   0  0  0  0  0  0  0  0  0  0  0  0
    7.1640   -0.6990   21.0470 N   0  0  0  0  0  0  0  0  0  0  0  0
    6.4740   -0.0410   20.0570 C   0  0  0  0  0  0  0  0  0  0  0  0
    5.2080    0.7300   20.4130 C   0  0  0  0  0  0  0  0  0  0  0  0
    4.5640    1.3880   19.3680 C   0  0  0  0  0  0  0  0  0  0  0  0
    5.1800    1.2780   17.9700 C   0  0  0  0  0  0  0  0  0  0  0  0
    6.2990    0.5780   17.7160 N   0  0  0  0  0  0  0  0  0  0  0  0
    6.9070   -0.0540   18.7430 C   0  0  0  0  0  0  0  0  0  0  0  0
   10.1110    0.3060   23.3410 C   0  0  0  0  0  0  0  0  0  0  0  0
   11.0600   -0.5750   23.8740 C   0  0  0  0  0  0  0  0  0  0  0  0
   10.5910    1.4240   22.6590 C   0  0  0  0  0  0  0  0  0  0  0  0
  1  2  1  0
  2  3  1  0
  4  3  1  6
  4  5  1  0
  5  6  1  0
  6  7  2  0
  6  8  1  0
  8  9  1  0
  9 10  2  0
 10 11  1  0
 11 12  2  0
 12 13  1  0
  9 14  1  0
 13 14  2  0
  4 15  1  0
 15 16  1  0
 15 17  1  0
M  END
