pyridine_urea_8175
     RDKit          3D

 23 24  0  0  0  0  0  0  0  0999 V2000
   10.6650    3.1610   22.9880 C   0  0  0  0  0  0  0  0  0  0  0  0
    9.2680    2.8620   22.9870 O   0  0  0  0  0  0  0  0  0  0  0  0
    8.7610    2.4600   24.2720 C   0  0  0  0  0  0  0  0  0  0  0  0
    8.8340    3.6250   24.6310 O   0  0  0  0  0  0  0  0  0  0  0  0
    8.8480    1.1790   23.3970 C   0  0  1  0  0  0  0  0  0  0  0  0
    9.1640    0.0740   23.9940 C   0  0  0  0  0  0  0  0  0  0  0  0
    9.7120   -0.8150   23.1210 C   0  0  0  0  0  0  0  0  0  0  0  0
    9.3390   -1.8150   22.3930 C   0  0  0  0  0  0  0  0  0  0  0  0
   10.6720   -2.1860   21.6880 C   0  0  0  0  0  0  0  0  0  0  0  0
   12.1000   -1.4520   21.8990 C   0  0  0  0  0  0  0  0  0  0  0  0
   13.4220   -2.0360   20.9580 Br  0  0  0  0  0  0  0  0  0  0  0  0
   12.0860   -0.3220   22.8900 C   0  0  0  0  0  0  0  0  0  0  0  0
   10.8620   -0.8470   22.7820 C   0  0  0  0  0  0  0  0  0  0  0  0
    7.6560    0.7550   22.7720 N   0  0  0  0  0  0  0  0  0  0  0  0
    7.8900    0.5950   21.4700 C   0  0  0  0  0  0  0  0  0  0  0  0
    8.8530    1.3670   20.8840 O   0  0  0  0  0  0  0  0  0  0  0  0
    7.0360   -0.3350   20.8860 N   0  0  0  0  0  0  0  0  0  0  0  0
    6.3040    0.2160   19.9150 C   0  0  0  0  0  0  0  0  0  0  0  0
    5.0810    0.8330   20.1110 C   0  0  0  0  0  0  0  0  0  0  0  0
    4.4600    1.4080   19.0160 C   0  0  0  0  0  0  0  0  0  0  0  0
    5.0930    1.3310   17.7930 C   0  0  0  0  0  0  0  0  0  0  0  0
    6.2620    0.7230   17.5940 N   0  0  0  0  0  0  0  0  0  0  0  0
    6.8430    0.1770   18.6590 C   0  0  0  0  0  0  0  0  0  0  0  0
  1  2  1  0
  2  3  1  0
  3  4  2  0
  3  5  1  0
  5  6  1  1
  6  7  1  0
  7  8  2  0
  8  9  1  0
  9 10  2  0
 10 11  1  0
 10 12  1  0
  7 13  1  0
 12 13  2  0
  5 14  1  0
 14 15  1  0
 15 16  2  0
 15 17  1  0
 17 18  1  0
 18 19  2  0
 19 20  1  0
 20 21  2  0
 21 22  1  0
 18 23  1  0
 22 23  2  0
M  END
