pyridine_urea_8656
     RDKit          3D

 21 23  0  0  0  0  0  0  0  0999 V2000
    8.9420    0.6580   21.3650 O   0  0  0  0  0  0  0  0  0  0  0  0
    8.4140   -0.4480   21.3130 C   0  0  0  0  0  0  0  0  0  0  0  0
    7.0960   -0.6810   21.0260 N   0  0  0  0  0  0  0  0  0  0  0  0
    6.4360   -0.0060   20.0010 C   0  0  0  0  0  0  0  0  0  0  0  0
    5.2500    0.6840   20.2640 C   0  0  0  0  0  0  0  0  0  0  0  0
    4.6030    1.3700   19.2330 C   0  0  0  0  0  0  0  0  0  0  0  0
    5.1760    1.3360   17.9760 C   0  0  0  0  0  0  0  0  0  0  0  0
    6.3080    0.6720   17.7070 N   0  0  0  0  0  0  0  0  0  0  0  0
    6.9080    0.0210   18.7140 C   0  0  0  0  0  0  0  0  0  0  0  0
    9.1240   -1.6010   21.5390 N   0  0  0  0  0  0  0  0  0  0  0  0
   10.3630   -1.3960   22.2230 C   0  0  0  0  0  0  0  0  0  0  0  0
   11.7270   -1.6160   21.5650 C   0  0  0  0  0  0  0  0  0  0  0  0
   12.8790   -1.3680   22.2840 C   0  0  0  0  0  0  0  0  0  0  0  0
   12.7540   -0.9550   23.5740 C   0  0  0  0  0  0  0  0  0  0  0  0
   11.4880   -0.8000   24.1240 C   0  0  0  0  0  0  0  0  0  0  0  0
   10.2940   -0.9910   23.5070 C   0  0  0  0  0  0  0  0  0  0  0  0
    9.0590   -0.8060   24.1370 C   0  0  0  0  0  0  0  0  0  0  0  0
    9.1800   -0.0200   25.2670 C   0  0  0  0  0  0  0  0  0  0  0  0
   10.2490   -0.2520   26.0370 N   0  0  0  0  0  0  0  0  0  0  0  0
   11.4240   -0.4520   25.3670 C   0  0  0  0  0  0  0  0  0  0  0  0
   12.7580   -0.3800   25.8620 O   0  0  0  0  0  0  0  0  0  0  0  0
  1  2  2  0
  2  3  1  0
  3  4  1  0
  4  5  2  0
  5  6  1  0
  6  7  2  0
  7  8  1  0
  4  9  1  0
  8  9  2  0
  2 10  1  0
 10 11  1  0
 11 12  2  0
 12 13  1  0
 13 14  2  0
 14 15  1  0
 11 16  1  0
 15 16  2  0
 16 17  1  0
 17 18  1  0
 18 19  1  0
 15 20  1  0
 19 20  1  0
 20 21  2  0
M  END
