pyridine_urea_12231
     RDKit          3D

 22 24  0  0  0  0  0  0  0  0999 V2000
    8.8870    1.5950   21.0860 O   0  0  0  0  0  0  0  0  0  0  0  0
    8.5490    0.5050   21.5280 C   0  0  0  0  0  0  0  0  0  0  0  0
    9.1830   -0.1030   22.5640 N   0  0  0  0  0  0  0  0  0  0  0  0
   10.4830    0.2260   23.0490 C   0  0  0  0  0  0  0  0  0  0  0  0
   11.1880   -0.8700   23.5660 C   0  0  2  0  0  0  0  0  0  0  0  0
   12.2640   -0.9810   24.4260 C   0  0  0  0  0  0  0  0  0  0  0  0
   13.2560   -1.4170   23.4290 C   0  0  0  0  0  0  0  0  0  0  0  0
   13.3460   -0.6230   22.4450 O   0  0  0  0  0  0  0  0  0  0  0  0
   12.5520   -0.0250   23.2280 C   0  0  0  0  0  0  0  0  0  0  0  0
   11.3550    0.1890   24.0130 C   0  0  0  0  0  0  0  0  0  0  0  0
   10.0900   -0.7520   24.1100 C   0  0  0  0  0  0  0  0  0  0  0  0
    9.9570   -1.9570   23.3600 C   0  0  0  0  0  0  0  0  0  0  0  0
    8.4340   -3.0840   23.4750 Br  0  0  0  0  0  0  0  0  0  0  0  0
   11.0280   -2.1770   22.5420 C   0  0  0  0  0  0  0  0  0  0  0  0
   12.0160   -1.2520   22.6330 C   0  0  0  0  0  0  0  0  0  0  0  0
    7.4880   -0.2400   21.0580 N   0  0  0  0  0  0  0  0  0  0  0  0
    6.6480    0.2820   20.0700 C   0  0  0  0  0  0  0  0  0  0  0  0
    5.5010    1.0350   20.3130 C   0  0  0  0  0  0  0  0  0  0  0  0
    4.7460    1.5450   19.2590 C   0  0  0  0  0  0  0  0  0  0  0  0
    5.1030    1.3260   17.9320 C   0  0  0  0  0  0  0  0  0  0  0  0
    6.2740    0.5350   17.7120 N   0  0  0  0  0  0  0  0  0  0  0  0
    6.9860    0.0520   18.7610 C   0  0  0  0  0  0  0  0  0  0  0  0
  1  2  2  0
  2  3  1  0
  3  4  1  0
  5  4  1  6
  5  6  1  0
  6  7  1  0
  7  8  1  0
  8  9  1  0
  9 10  2  0
 10 11  1  0
 11 12  2  0
 12 13  1  0
 12 14  1  0
  5 15  1  0
  9 15  1  0
 14 15  2  0
  2 16  1  0
 16 17  1  0
 17 18  2  0
 18 19  1  0
 19 20  2  0
 20 21  1  0
 17 22  1  0
 21 22  2  0
M  END
