pyridine_urea_7796
     RDKit          3D

 29 31  0  0  0  0  0  0  0  0999 V2000
    8.8330    6.3980   22.4760 C   0  0  0  0  0  0  0  0  0  0  0  0
    9.2880    5.4880   23.1810 O   0  0  0  0  0  0  0  0  0  0  0  0
   10.6310    5.3250   23.0680 C   0  0  0  0  0  0  0  0  0  0  0  0
   11.4350    6.4190   22.8880 C   0  0  0  0  0  0  0  0  0  0  0  0
   12.8020    6.3400   22.7670 C   0  0  0  0  0  0  0  0  0  0  0  0
   13.3220    5.0520   22.8420 C   0  0  0  0  0  0  0  0  0  0  0  0
   12.5460    3.8970   23.0240 C   0  0  0  0  0  0  0  0  0  0  0  0
   13.0970    2.7660   23.0880 O   0  0  0  0  0  0  0  0  0  0  0  0
   12.3000    1.6790   22.9320 C   0  0  0  0  0  0  0  0  0  0  0  0
   12.5970    0.1880   22.6590 C   0  0  0  0  0  0  0  0  0  0  0  0
   11.5240   -0.7380   22.4930 C   0  0  0  0  0  0  0  0  0  0  0  0
   10.1850   -0.2980   22.5900 C   0  0  0  0  0  0  0  0  0  0  0  0
    9.0850   -1.1750   22.3600 N   0  0  0  0  0  0  0  0  0  0  0  0
    8.2360   -0.5990   21.4630 C   0  0  0  0  0  0  0  0  0  0  0  0
    8.5480    0.6200   20.9740 O   0  0  0  0  0  0  0  0  0  0  0  0
    7.0750   -1.1400   21.0200 N   0  0  0  0  0  0  0  0  0  0  0  0
    6.3650   -0.3530   20.0700 C   0  0  0  0  0  0  0  0  0  0  0  0
    5.1590    0.3240   20.2850 C   0  0  0  0  0  0  0  0  0  0  0  0
    4.5540    1.0930   19.2770 C   0  0  0  0  0  0  0  0  0  0  0  0
    5.1210    1.2290   18.0030 C   0  0  0  0  0  0  0  0  0  0  0  0
    6.3560    0.5250   17.8000 N   0  0  0  0  0  0  0  0  0  0  0  0
    6.9120   -0.2170   18.8070 C   0  0  0  0  0  0  0  0  0  0  0  0
    9.8070    1.0020   22.8680 C   0  0  0  0  0  0  0  0  0  0  0  0
    8.5060    1.5320   23.0000 C   0  0  0  0  0  0  0  0  0  0  0  0
    8.1600    2.3160   21.9640 F   0  0  0  0  0  0  0  0  0  0  0  0
    7.4810    0.6800   23.1690 F   0  0  0  0  0  0  0  0  0  0  0  0
    8.4170    2.3670   24.0820 F   0  0  0  0  0  0  0  0  0  0  0  0
   10.8820    2.0230   23.0380 C   0  0  0  0  0  0  0  0  0  0  0  0
   11.1500    4.0310   23.1410 C   0  0  0  0  0  0  0  0  0  0  0  0
  1  2  1  0
  2  3  1  0
  3  4  2  0
  4  5  1  0
  5  6  2  0
  6  7  1  0
  7  8  1  0
  8  9  1  0
  9 10  2  0
 10 11  1  0
 11 12  2  0
 12 13  1  0
 13 14  1  0
 14 15  2  0
 14 16  1  0
 16 17  1  0
 17 18  2  0
 18 19  1  0
 19 20  2  0
 20 21  1  0
 17 22  1  0
 21 22  2  0
 12 23  1  0
 23 24  1  0
 24 25  1  0
 24 26  1  0
 24 27  1  0
  9 28  1  0
 23 28  2  0
  3 29  1  0
  7 29  2  0
M  END
