pyridine_urea_8420
     RDKit          3D

 22 23  0  0  0  0  0  0  0  0999 V2000
   12.9010   -0.2590   24.1060 C   0  0  0  0  0  0  0  0  0  0  0  0
   11.7240   -1.1400   24.3030 C   0  0  0  0  0  0  0  0  0  0  0  0
   10.5650   -0.7980   23.7080 C   0  0  0  0  0  0  0  0  0  0  0  0
    9.4290   -0.8090   22.9710 C   0  0  0  0  0  0  0  0  0  0  0  0
    8.4960    0.0920   22.7730 N   0  0  0  0  0  0  0  0  0  0  0  0
    8.2670    0.4340   21.5180 C   0  0  0  0  0  0  0  0  0  0  0  0
    8.8260    1.4030   21.0110 O   0  0  0  0  0  0  0  0  0  0  0  0
    7.3620   -0.4080   20.9790 N   0  0  0  0  0  0  0  0  0  0  0  0
    6.6060    0.1790   20.0490 C   0  0  0  0  0  0  0  0  0  0  0  0
    5.4570    0.9480   20.2810 C   0  0  0  0  0  0  0  0  0  0  0  0
    4.6800    1.5970   19.1430 C   0  0  0  0  0  0  0  0  0  0  0  0
    5.1540    1.3950   17.8760 C   0  0  0  0  0  0  0  0  0  0  0  0
    6.2570    0.6360   17.6840 N   0  0  0  0  0  0  0  0  0  0  0  0
    6.9770    0.0350   18.7210 C   0  0  0  0  0  0  0  0  0  0  0  0
    9.2150   -2.0530   22.2800 C   0  0  0  0  0  0  0  0  0  0  0  0
   10.1570   -2.8580   22.5670 N   0  0  0  0  0  0  0  0  0  0  0  0
   10.9210   -2.0930   23.4020 N   0  0  0  0  0  0  0  0  0  0  0  0
   12.0300   -2.6870   23.8860 C   0  0  0  0  0  0  0  0  0  0  0  0
   13.1550   -2.4830   23.1210 C   0  0  0  0  0  0  0  0  0  0  0  0
   12.7190   -1.6120   22.1400 C   0  0  0  0  0  0  0  0  0  0  0  0
   13.1950   -0.3320   22.3140 C   0  0  0  0  0  0  0  0  0  0  0  0
   13.1400   -2.1710   20.9540 C   0  0  0  0  0  0  0  0  0  0  0  0
  1  2  1  0
  2  3  1  0
  3  4  2  0
  4  5  1  0
  5  6  1  0
  6  7  2  0
  6  8  1  0
  8  9  1  0
  9 10  2  0
 10 11  1  0
 11 12  2  0
 12 13  1  0
  9 14  1  0
 13 14  2  0
  4 15  1  0
 15 16  2  0
  3 17  1  0
 16 17  1  0
 17 18  1  0
 18 19  1  0
 19 20  1  0
 20 21  1  0
 20 22  1  0
M  END
