pyridine_urea_7141
     RDKit          3D

 19 20  0  0  0  0  0  0  0  0999 V2000
   13.4520   -2.3660   25.1920 C   0  0  0  0  0  0  0  0  0  0  0  0
   12.3420   -2.0410   24.2250 C   0  0  0  0  0  0  0  0  0  0  0  0
   11.1130   -1.5810   24.6220 C   0  0  0  0  0  0  0  0  0  0  0  0
   10.1620   -1.3430   23.6760 C   0  0  0  0  0  0  0  0  0  0  0  0
    9.0120   -0.9930   23.9770 O   0  0  0  0  0  0  0  0  0  0  0  0
   10.4630   -1.5100   22.3790 C   0  0  0  0  0  0  0  0  0  0  0  0
    9.5500   -1.3340   21.3410 N   0  0  0  0  0  0  0  0  0  0  0  0
    8.5980   -0.2020   21.3930 C   0  0  0  0  0  0  0  0  0  0  0  0
    9.0010    0.9400   21.6070 O   0  0  0  0  0  0  0  0  0  0  0  0
    7.2780   -0.4810   21.1350 N   0  0  0  0  0  0  0  0  0  0  0  0
    6.5360    0.1180   20.1460 C   0  0  0  0  0  0  0  0  0  0  0  0
    5.3810    0.8720   20.3200 C   0  0  0  0  0  0  0  0  0  0  0  0
    4.6760    1.4720   19.2780 C   0  0  0  0  0  0  0  0  0  0  0  0
    5.1580    1.3050   17.9890 C   0  0  0  0  0  0  0  0  0  0  0  0
    6.2600    0.5890   17.7070 N   0  0  0  0  0  0  0  0  0  0  0  0
    6.9490   -0.0130   18.8320 C   0  0  0  0  0  0  0  0  0  0  0  0
   11.7810   -1.9250   22.0240 C   0  0  0  0  0  0  0  0  0  0  0  0
   12.0290   -1.9760   20.8460 O   0  0  0  0  0  0  0  0  0  0  0  0
   12.6180   -2.2320   22.8710 O   0  0  0  0  0  0  0  0  0  0  0  0
  1  2  1  0
  2  3  2  0
  3  4  1  0
  4  5  1  0
  4  6  2  0
  6  7  1  0
  7  8  1  0
  8  9  2  0
  8 10  1  0
 10 11  1  0
 11 12  2  0
 12 13  1  0
 13 14  2  0
 14 15  1  0
 11 16  1  0
 15 16  2  0
  6 17  1  0
 17 18  2  0
  2 19  1  0
 17 19  1  0
M  END
