pyridine_urea_3235
     RDKit          3D

 20 22  0  0  0  0  0  0  0  0999 V2000
    8.8730    1.5980   21.1840 O   0  0  0  0  0  0  0  0  0  0  0  0
    8.4900    0.4760   21.5020 C   0  0  0  0  0  0  0  0  0  0  0  0
    9.1410   -0.3560   22.3440 N   0  0  0  0  0  0  0  0  0  0  0  0
    9.5740   -1.5950   21.9120 C   0  0  0  0  0  0  0  0  0  0  0  0
    9.1320   -2.6600   22.6460 C   0  0  0  0  0  0  0  0  0  0  0  0
    7.9630   -3.3550   22.4620 N   0  0  0  0  0  0  0  0  0  0  0  0
    7.9220   -4.3310   23.4040 N   0  0  0  0  0  0  0  0  0  0  0  0
    9.0720   -4.1970   24.1350 N   0  0  0  0  0  0  0  0  0  0  0  0
    9.7820   -3.1680   23.6460 N   0  0  0  0  0  0  0  0  0  0  0  0
   11.0630   -2.7860   24.2370 C   0  0  0  0  0  0  0  0  0  0  0  0
   12.0040   -2.4460   23.2800 C   0  0  0  0  0  0  0  0  0  0  0  0
   13.3040   -2.4460   23.6390 C   0  0  0  0  0  0  0  0  0  0  0  0
   12.7080   -1.1330   23.3280 C   0  0  0  0  0  0  0  0  0  0  0  0
    7.3490   -0.1520   21.0670 N   0  0  0  0  0  0  0  0  0  0  0  0
    6.5450    0.3600   20.0590 C   0  0  0  0  0  0  0  0  0  0  0  0
    5.3910    1.1070   20.2440 C   0  0  0  0  0  0  0  0  0  0  0  0
    4.6730    1.5930   19.1900 C   0  0  0  0  0  0  0  0  0  0  0  0
    5.1290    1.3230   17.9140 C   0  0  0  0  0  0  0  0  0  0  0  0
    6.2330    0.5940   17.6790 N   0  0  0  0  0  0  0  0  0  0  0  0
    6.9110    0.1300   18.7480 C   0  0  0  0  0  0  0  0  0  0  0  0
  1  2  2  0
  2  3  1  0
  3  4  1  0
  4  5  1  0
  5  6  2  0
  6  7  1  0
  7  8  2  0
  5  9  1  0
  8  9  1  0
  9 10  1  0
 10 11  1  0
 11 12  1  0
 11 13  1  0
 12 13  1  0
  2 14  1  0
 14 15  1  0
 15 16  2  0
 16 17  1  0
 17 18  2  0
 18 19  1  0
 15 20  1  0
 19 20  2  0
M  END
