pyridine_urea_336
     RDKit          3D

 27 29  0  0  0  0  0  0  0  0999 V2000
    9.3710    1.2430   23.6340 C   0  0  0  0  0  0  0  0  0  0  0  0
    9.7270    0.3900   22.8770 C   0  0  2  0  0  0  0  0  0  0  0  0
    8.6950   -0.6600   22.9420 N   0  0  0  0  0  0  0  0  0  0  0  0
    8.1140   -0.7540   21.6380 C   0  0  0  0  0  0  0  0  0  0  0  0
    8.9330   -1.0550   20.6090 O   0  0  0  0  0  0  0  0  0  0  0  0
    6.7240   -0.4830   21.4500 N   0  0  0  0  0  0  0  0  0  0  0  0
    6.2900    0.0570   20.2790 C   0  0  0  0  0  0  0  0  0  0  0  0
    5.1650    0.8190   20.3980 C   0  0  0  0  0  0  0  0  0  0  0  0
    4.5130    1.5340   19.2160 C   0  0  0  0  0  0  0  0  0  0  0  0
    5.1630    1.3650   17.9050 C   0  0  0  0  0  0  0  0  0  0  0  0
    6.2940    0.5690   17.8830 N   0  0  0  0  0  0  0  0  0  0  0  0
    6.8640   -0.0790   19.0090 C   0  0  0  0  0  0  0  0  0  0  0  0
   11.1760   -0.2600   23.0430 C   0  0  0  0  0  0  0  0  0  0  0  0
   11.0220   -1.4400   23.1200 C   0  0  0  0  0  0  0  0  0  0  0  0
   12.3140   -1.3540   23.2190 C   0  0  0  0  0  0  0  0  0  0  0  0
   11.8490    0.2020   23.0660 C   0  0  0  0  0  0  0  0  0  0  0  0
   10.5710    0.7250   22.9260 N   0  0  0  0  0  0  0  0  0  0  0  0
   10.1890    2.0330   22.4210 C   0  0  0  0  0  0  0  0  0  0  0  0
    9.1800    2.2160   21.3650 O   0  0  0  0  0  0  0  0  0  0  0  0
   10.7800    3.3260   22.9380 C   0  0  0  0  0  0  0  0  0  0  0  0
   11.8090    4.1120   22.1690 C   0  0  0  0  0  0  0  0  0  0  0  0
   12.3170    5.3160   22.6630 C   0  0  0  0  0  0  0  0  0  0  0  0
   11.9090    5.8290   23.8460 N   0  0  0  0  0  0  0  0  0  0  0  0
   10.9880    5.1020   24.5320 C   0  0  0  0  0  0  0  0  0  0  0  0
   10.3980    3.8890   24.1570 C   0  0  0  0  0  0  0  0  0  0  0  0
   12.9180    1.1180   23.0800 C   0  0  0  0  0  0  0  0  0  0  0  0
   12.6730   -0.0970   23.1500 C   0  0  0  0  0  0  0  0  0  0  0  0
  2  1  1  1
  2  3  1  0
  3  4  1  0
  4  5  2  0
  4  6  1  0
  6  7  1  0
  7  8  2  0
  8  9  1  0
  9 10  2  0
 10 11  1  0
  7 12  1  0
 11 12  2  0
  2 13  1  0
 13 14  2  0
 14 15  1  0
 15 16  2  0
 16 17  1  0
 17 18  1  0
 18 19  2  0
 18 20  1  0
 20 21  2  0
 21 22  1  0
 22 23  2  0
 23 24  1  0
 20 25  1  0
 24 25  2  0
 16 26  1  0
 13 27  1  0
 26 27  2  0
M  END
