pyridine_urea_12903
     RDKit          3D

 19 19  0  0  0  0  0  0  0  0999 V2000
   11.5190    0.5710   24.0050 C   0  0  0  0  0  0  0  0  0  0  0  0
   12.5310   -0.4670   23.5020 C   0  0  0  0  0  0  0  0  0  0  0  0
   13.1160   -1.2210   24.7100 C   0  0  0  0  0  0  0  0  0  0  0  0
   13.4160    0.3550   22.6110 C   0  0  0  0  0  0  0  0  0  0  0  0
   12.0020   -1.5620   22.6020 C   0  0  0  0  0  0  0  0  0  0  0  0
   10.6640   -1.7690   22.5120 C   0  0  0  0  0  0  0  0  0  0  0  0
    9.8590   -0.7660   23.0010 C   0  0  2  0  0  0  0  0  0  0  0  0
    9.8210   -0.6220   24.3850 C   0  0  0  0  0  0  0  0  0  0  0  0
    8.7490   -1.1270   24.7230 O   0  0  0  0  0  0  0  0  0  0  0  0
    8.5490   -0.7510   22.5740 N   0  0  0  0  0  0  0  0  0  0  0  0
    8.1780    0.0570   21.5600 C   0  0  0  0  0  0  0  0  0  0  0  0
    8.8850    1.2280   21.1840 O   0  0  0  0  0  0  0  0  0  0  0  0
    7.0070   -0.4390   20.9920 N   0  0  0  0  0  0  0  0  0  0  0  0
    6.4130    0.1500   19.9310 C   0  0  0  0  0  0  0  0  0  0  0  0
    5.2650    0.8660   20.2670 C   0  0  0  0  0  0  0  0  0  0  0  0
    4.6100    1.5470   19.1160 C   0  0  0  0  0  0  0  0  0  0  0  0
    5.1300    1.4470   17.8490 C   0  0  0  0  0  0  0  0  0  0  0  0
    6.2410    0.7280   17.5780 N   0  0  0  0  0  0  0  0  0  0  0  0
    6.8700    0.0830   18.6470 C   0  0  0  0  0  0  0  0  0  0  0  0
  2  1  1  0
  2  3  1  0
  2  4  1  0
  2  5  1  0
  5  6  1  0
  7  6  1  1
  7  8  1  0
  8  9  1  0
  7 10  1  0
 10 11  1  0
 11 12  2  0
 11 13  1  0
 13 14  1  0
 14 15  2  0
 15 16  1  0
 16 17  2  0
 17 18  1  0
 14 19  1  0
 18 19  2  0
M  END
