pyridine_urea_2691
     RDKit          3D

 23 24  0  0  0  0  0  0  0  0999 V2000
   12.6070   -1.9570   22.1710 C   0  0  0  0  0  0  0  0  0  0  0  0
   11.9390   -1.6220   23.5240 C   0  0  0  0  0  0  0  0  0  0  0  0
   10.7050   -2.6130   23.7060 C   0  0  0  0  0  0  0  0  0  0  0  0
   12.9620   -1.9260   24.6470 C   0  0  0  0  0  0  0  0  0  0  0  0
   11.5310   -0.0790   23.5140 C   0  0  0  0  0  0  0  0  0  0  0  0
   10.4060    0.5570   23.7960 C   0  0  0  0  0  0  0  0  0  0  0  0
   11.1720    1.7060   23.4830 C   0  0  0  0  0  0  0  0  0  0  0  0
   12.0300    0.2880   23.3450 C   0  0  0  0  0  0  0  0  0  0  0  0
   11.0430   -0.8160   23.7200 C   0  0  1  0  0  0  0  0  0  0  0  0
   10.3330   -0.4890   24.6810 O   0  0  0  0  0  0  0  0  0  0  0  0
   10.1850   -1.1750   22.4870 C   0  0  0  0  0  0  0  0  0  0  0  0
    8.8180   -0.7060   22.5420 N   0  0  0  0  0  0  0  0  0  0  0  0
    8.3630    0.0950   21.5250 C   0  0  0  0  0  0  0  0  0  0  0  0
    8.9020    1.1690   21.2080 O   0  0  0  0  0  0  0  0  0  0  0  0
    7.2150   -0.4860   20.9490 N   0  0  0  0  0  0  0  0  0  0  0  0
    6.4490    0.1430   20.0080 C   0  0  0  0  0  0  0  0  0  0  0  0
    5.2720    0.8420   20.2620 C   0  0  0  0  0  0  0  0  0  0  0  0
    4.6080    1.4490   19.1990 C   0  0  0  0  0  0  0  0  0  0  0  0
    5.1430    1.3330   17.9260 C   0  0  0  0  0  0  0  0  0  0  0  0
    6.2670    0.6540   17.6660 N   0  0  0  0  0  0  0  0  0  0  0  0
    6.8850    0.0810   18.7040 C   0  0  0  0  0  0  0  0  0  0  0  0
   13.4210    0.2890   22.9340 C   0  0  0  0  0  0  0  0  0  0  0  0
   12.4680    1.0230   23.1510 C   0  0  0  0  0  0  0  0  0  0  0  0
  2  1  1  0
  2  3  1  0
  2  4  1  0
  2  5  1  0
  5  6  2  0
  6  7  1  0
  7  8  2  0
  8  9  1  0
  9 10  1  1
  9 11  1  0
 11 12  1  0
 12 13  1  0
 13 14  2  0
 13 15  1  0
 15 16  1  0
 16 17  2  0
 17 18  1  0
 18 19  2  0
 19 20  1  0
 16 21  1  0
 20 21  2  0
  8 22  1  0
  5 23  1  0
 22 23  2  0
M  END
