pyridine_urea_11289
     RDKit          3D

 16 16  0  0  0  0  0  0  0  0999 V2000
   11.3410    4.0550   23.3250 C   0  0  0  0  0  0  0  0  0  0  0  0
   11.4950    3.0020   22.7640 C   0  0  0  0  0  0  0  0  0  0  0  0
    9.9150    2.0890   22.7620 S   0  0  0  0  0  0  0  0  0  0  0  0
    9.3110    2.2280   21.4440 O   0  0  0  0  0  0  0  0  0  0  0  0
   10.6050    0.4960   22.9960 C   0  0  0  0  0  0  0  0  0  0  0  0
   10.2470   -0.7960   22.3410 C   0  0  0  0  0  0  0  0  0  0  0  0
    8.8120   -0.9870   22.2940 N   0  0  0  0  0  0  0  0  0  0  0  0
    8.1060   -0.2270   21.3980 C   0  0  0  0  0  0  0  0  0  0  0  0
    8.5050    0.8490   21.0200 O   0  0  0  0  0  0  0  0  0  0  0  0
    6.9640   -0.7960   20.9920 N   0  0  0  0  0  0  0  0  0  0  0  0
    6.4080   -0.1370   19.9440 C   0  0  0  0  0  0  0  0  0  0  0  0
    5.1550    0.6490   20.1350 C   0  0  0  0  0  0  0  0  0  0  0  0
    4.2890    1.4460   19.3680 C   0  0  0  0  0  0  0  0  0  0  0  0
    5.2180    1.1680   18.1510 C   0  0  0  0  0  0  0  0  0  0  0  0
    6.3380    0.5200   17.7860 N   0  0  0  0  0  0  0  0  0  0  0  0
    6.9020   -0.1290   18.7340 C   0  0  0  0  0  0  0  0  0  0  0  0
  1  2  1  0
  3  2  1  6
  3  4  2  0
  3  5  1  0
  5  6  1  0
  6  7  1  0
  7  8  1  0
  8  9  2  0
  8 10  1  0
 10 11  1  0
 11 12  2  0
 12 13  1  0
 13 14  2  0
 14 15  1  0
 11 16  1  0
 15 16  2  0
M  END
