pyridine_urea_3217
     RDKit          3D

 20 21  0  0  0  0  0  0  0  0999 V2000
    8.7700    0.7400   21.4540 O   0  0  0  0  0  0  0  0  0  0  0  0
    8.1640   -0.3030   21.6740 C   0  0  0  0  0  0  0  0  0  0  0  0
    7.0030   -0.6920   21.0660 N   0  0  0  0  0  0  0  0  0  0  0  0
    6.3920   -0.0190   20.0020 C   0  0  0  0  0  0  0  0  0  0  0  0
    5.2330    0.7200   20.2490 C   0  0  0  0  0  0  0  0  0  0  0  0
    4.6120    1.4100   19.2070 C   0  0  0  0  0  0  0  0  0  0  0  0
    5.1770    1.3350   17.9530 C   0  0  0  0  0  0  0  0  0  0  0  0
    6.2860    0.6290   17.6930 N   0  0  0  0  0  0  0  0  0  0  0  0
    6.8670   -0.0320   18.7110 C   0  0  0  0  0  0  0  0  0  0  0  0
    8.5700   -1.2410   22.6020 N   0  0  0  0  0  0  0  0  0  0  0  0
    9.9800   -1.4610   22.8290 C   0  0  0  0  0  0  0  0  0  0  0  0
   10.5340   -0.7800   24.0300 C   0  0  0  0  0  0  0  0  0  0  0  0
   11.9290   -0.7390   23.9720 C   0  0  0  0  0  0  0  0  0  0  0  0
   12.6160   -1.5420   24.8310 C   0  0  0  0  0  0  0  0  0  0  0  0
   13.2730   -2.5390   24.1800 C   0  0  0  0  0  0  0  0  0  0  0  0
   12.9800   -2.6030   22.8120 C   0  0  0  0  0  0  0  0  0  0  0  0
   13.0950   -1.4740   21.9860 C   0  0  0  0  0  0  0  0  0  0  0  0
   13.0090   -0.2410   22.5650 C   0  0  0  0  0  0  0  0  0  0  0  0
   11.7090    0.1430   22.6220 C   0  0  0  0  0  0  0  0  0  0  0  0
   10.8220   -0.6920   21.8850 C   0  0  0  0  0  0  0  0  0  0  0  0
  1  2  2  0
  2  3  1  0
  3  4  1  0
  4  5  2  0
  5  6  1  0
  6  7  2  0
  7  8  1  0
  4  9  1  0
  8  9  2  0
  2 10  1  0
 10 11  1  0
 11 12  1  0
 12 13  1  0
 13 14  1  0
 14 15  1  0
 15 16  1  0
 16 17  1  0
 17 18  1  0
 18 19  1  0
 11 20  1  0
 19 20  1  0
M  END
