pyridine_urea_364
     RDKit          3D

 26 29  0  0  0  0  0  0  0  0999 V2000
    8.4110    0.9800   21.2710 O   0  0  0  0  0  0  0  0  0  0  0  0
    8.2220   -0.1710   21.6430 C   0  0  0  0  0  0  0  0  0  0  0  0
    7.1390   -0.8750   21.1680 N   0  0  0  0  0  0  0  0  0  0  0  0
    6.4850   -0.1780   20.0680 C   0  0  0  0  0  0  0  0  0  0  0  0
    5.1850    0.5570   20.3940 C   0  0  0  0  0  0  0  0  0  0  0  0
    4.5640    1.2760   19.2400 C   0  0  0  0  0  0  0  0  0  0  0  0
    5.1920    1.2230   18.0090 C   0  0  0  0  0  0  0  0  0  0  0  0
    6.3360    0.5560   17.7730 N   0  0  0  0  0  0  0  0  0  0  0  0
    6.9460   -0.1180   18.7730 C   0  0  0  0  0  0  0  0  0  0  0  0
    9.1050   -0.7830   22.5220 N   0  0  0  0  0  0  0  0  0  0  0  0
   10.3660   -0.0310   22.3990 C   0  0  2  0  0  0  0  0  0  0  0  0
   11.5600   -0.7010   22.4480 C   0  0  0  0  0  0  0  0  0  0  0  0
   11.3430   -1.8880   21.9620 C   0  0  0  0  0  0  0  0  0  0  0  0
   12.4940   -1.1870   22.4740 C   0  0  0  0  0  0  0  0  0  0  0  0
   11.5470    0.1220   22.7720 C   0  0  0  0  0  0  0  0  0  0  0  0
   12.7410    0.6500   23.2100 C   0  0  0  0  0  0  0  0  0  0  0  0
   12.9780   -0.5250   22.8350 C   0  0  0  0  0  0  0  0  0  0  0  0
   10.2340    1.4060   23.0330 C   0  0  0  0  0  0  0  0  0  0  0  0
   11.1670    2.3930   23.0180 N   0  0  0  0  0  0  0  0  0  0  0  0
   10.6830    3.5540   23.6810 C   0  0  0  0  0  0  0  0  0  0  0  0
   11.4140    4.7400   23.8360 C   0  0  0  0  0  0  0  0  0  0  0  0
   10.8370    5.8100   24.5150 C   0  0  0  0  0  0  0  0  0  0  0  0
    9.5440    5.7130   25.0380 C   0  0  0  0  0  0  0  0  0  0  0  0
    8.8210    4.5270   24.8760 C   0  0  0  0  0  0  0  0  0  0  0  0
    9.3950    3.4560   24.1990 C   0  0  0  0  0  0  0  0  0  0  0  0
    8.7800    1.8780   23.8350 S   0  0  0  0  0  0  0  0  0  0  0  0
  1  2  2  0
  2  3  1  0
  3  4  1  0
  4  5  2  0
  5  6  1  0
  6  7  2  0
  7  8  1  0
  4  9  1  0
  8  9  2  0
  2 10  1  0
 11 10  1  1
 11 12  1  0
 12 13  2  0
 13 14  1  0
 14 15  2  0
 15 16  1  0
 12 17  1  0
 16 17  2  0
 11 18  1  0
 18 19  2  0
 19 20  1  0
 20 21  2  0
 21 22  1  0
 22 23  2  0
 23 24  1  0
 20 25  1  0
 24 25  2  0
 18 26  1  0
 25 26  1  0
M  END
