pyridine_urea_4027
     RDKit          3D

 26 28  0  0  0  0  0  0  0  0999 V2000
   10.7020    2.2230   23.6710 C   0  0  0  0  0  0  0  0  0  0  0  0
   11.7730    1.9110   22.7980 O   0  0  0  0  0  0  0  0  0  0  0  0
   12.2260    0.6020   22.8140 C   0  0  0  0  0  0  0  0  0  0  0  0
   13.4320    0.1360   22.7740 C   0  0  0  0  0  0  0  0  0  0  0  0
   13.4130   -1.3200   22.8120 C   0  0  0  0  0  0  0  0  0  0  0  0
   12.1580   -2.0460   22.8750 C   0  0  0  0  0  0  0  0  0  0  0  0
   10.8600   -1.4740   22.9050 C   0  0  0  0  0  0  0  0  0  0  0  0
   10.0000   -0.4240   22.9080 C   0  0  1  0  0  0  0  0  0  0  0  0
    8.9430   -0.8850   22.0800 N   0  0  0  0  0  0  0  0  0  0  0  0
    8.3080    0.0620   21.3790 C   0  0  0  0  0  0  0  0  0  0  0  0
    8.8940    1.3440   21.0870 O   0  0  0  0  0  0  0  0  0  0  0  0
    7.0050   -0.3830   20.9830 N   0  0  0  0  0  0  0  0  0  0  0  0
    6.3660    0.1780   19.9620 C   0  0  0  0  0  0  0  0  0  0  0  0
    5.1910    0.8790   20.1990 C   0  0  0  0  0  0  0  0  0  0  0  0
    4.5470    1.4880   19.1370 C   0  0  0  0  0  0  0  0  0  0  0  0
    5.1090    1.3650   17.8810 C   0  0  0  0  0  0  0  0  0  0  0  0
    6.2310    0.6830   17.6340 N   0  0  0  0  0  0  0  0  0  0  0  0
    6.8370    0.1040   18.6750 C   0  0  0  0  0  0  0  0  0  0  0  0
    9.4400   -0.1650   24.1470 C   0  0  0  0  0  0  0  0  0  0  0  0
   10.2890   -0.2720   25.3820 C   0  0  0  0  0  0  0  0  0  0  0  0
    9.6940   -0.0260   26.6170 C   0  0  0  0  0  0  0  0  0  0  0  0
    8.3470    0.3130   26.6740 C   0  0  0  0  0  0  0  0  0  0  0  0
    7.5520    0.4200   25.5350 C   0  0  0  0  0  0  0  0  0  0  0  0
    5.8970    0.8550   25.7790 Cl  0  0  0  0  0  0  0  0  0  0  0  0
    8.0790    0.1840   24.2590 C   0  0  0  0  0  0  0  0  0  0  0  0
   11.8940   -0.6780   22.8530 C   0  0  0  0  0  0  0  0  0  0  0  0
  1  2  1  0
  2  3  1  0
  3  4  2  0
  4  5  1  0
  5  6  2  0
  6  7  1  0
  7  8  1  0
  8  9  1  6
  9 10  1  0
 10 11  2  0
 10 12  1  0
 12 13  1  0
 13 14  2  0
 14 15  1  0
 15 16  2  0
 16 17  1  0
 13 18  1  0
 17 18  2  0
  8 19  1  0
 19 20  2  0
 20 21  1  0
 21 22  2  0
 22 23  1  0
 23 24  1  0
 19 25  1  0
 23 25  2  0
  3 26  1  0
  7 26  2  0
M  END
