pyridine_urea_8833
     RDKit          3D

 20 21  0  0  0  0  0  0  0  0999 V2000
    8.0550    1.4610   20.8860 O   0  0  0  0  0  0  0  0  0  0  0  0
    8.0960    0.2930   21.2590 C   0  0  0  0  0  0  0  0  0  0  0  0
    7.0730   -0.5560   21.0290 N   0  0  0  0  0  0  0  0  0  0  0  0
    6.4460    0.0210   19.9050 C   0  0  0  0  0  0  0  0  0  0  0  0
    5.1800    0.8350   20.1870 C   0  0  0  0  0  0  0  0  0  0  0  0
    4.5310    1.4740   19.1410 C   0  0  0  0  0  0  0  0  0  0  0  0
    5.0800    1.3360   17.8730 C   0  0  0  0  0  0  0  0  0  0  0  0
    6.2070    0.5840   17.6730 N   0  0  0  0  0  0  0  0  0  0  0  0
    6.9070   -0.0840   18.6680 C   0  0  0  0  0  0  0  0  0  0  0  0
    9.1640   -0.1870   21.8530 N   0  0  0  0  0  0  0  0  0  0  0  0
   10.3500   -0.3220   22.3600 C   0  0  0  0  0  0  0  0  0  0  0  0
   10.6470    0.7600   23.2000 C   0  0  0  0  0  0  0  0  0  0  0  0
   11.8260    0.9140   23.8570 C   0  0  0  0  0  0  0  0  0  0  0  0
   12.8180   -0.0150   23.7360 C   0  0  0  0  0  0  0  0  0  0  0  0
   12.6340   -1.0990   22.9520 C   0  0  0  0  0  0  0  0  0  0  0  0
   13.4970   -1.9060   22.8740 O   0  0  0  0  0  0  0  0  0  0  0  0
   13.5100   -2.6610   24.0500 C   0  0  0  0  0  0  0  0  0  0  0  0
   12.1920   -2.8300   24.4060 C   0  0  0  0  0  0  0  0  0  0  0  0
   11.6510   -1.7620   25.0070 F   0  0  0  0  0  0  0  0  0  0  0  0
   11.3460   -1.2670   22.2280 C   0  0  0  0  0  0  0  0  0  0  0  0
  1  2  2  0
  2  3  1  0
  3  4  1  0
  4  5  2  0
  5  6  1  0
  6  7  2  0
  7  8  1  0
  4  9  1  0
  8  9  2  0
  2 10  1  0
 10 11  1  0
 11 12  2  0
 12 13  1  0
 13 14  2  0
 14 15  1  0
 15 16  1  0
 16 17  1  0
 17 18  1  0
 18 19  1  0
 11 20  1  0
 15 20  2  0
M  END
