pyridine_urea_9686
     RDKit          3D

 27 28  0  0  0  0  0  0  0  0999 V2000
    8.8500    1.4360   21.1000 O   0  0  0  0  0  0  0  0  0  0  0  0
    8.4030    0.3490   21.4740 C   0  0  0  0  0  0  0  0  0  0  0  0
    9.0590   -0.4250   22.3580 N   0  0  0  0  0  0  0  0  0  0  0  0
   10.4850   -0.2940   22.3370 C   0  0  0  0  0  0  0  0  0  0  0  0
   11.1110   -0.4290   23.7070 C   0  0  1  0  0  0  0  0  0  0  0  0
   12.2390   -1.2160   23.7660 O   0  0  0  0  0  0  0  0  0  0  0  0
   11.1830    0.9290   24.2920 C   0  0  0  0  0  0  0  0  0  0  0  0
   12.4090    0.5730   23.5060 C   0  0  0  0  0  0  0  0  0  0  0  0
   12.1570   -0.8160   22.9390 C   0  0  0  0  0  0  0  0  0  0  0  0
   12.8010   -1.9070   22.0740 C   0  0  0  0  0  0  0  0  0  0  0  0
   13.4760   -2.8620   22.7110 F   0  0  0  0  0  0  0  0  0  0  0  0
   11.8900   -2.5870   21.3240 F   0  0  0  0  0  0  0  0  0  0  0  0
   13.6420   -1.3400   21.1730 F   0  0  0  0  0  0  0  0  0  0  0  0
   10.8850   -1.6800   23.1370 C   0  0  0  0  0  0  0  0  0  0  0  0
    9.7830   -1.1490   23.9460 C   0  0  0  0  0  0  0  0  0  0  0  0
    8.5630   -1.8320   24.1870 C   0  0  0  0  0  0  0  0  0  0  0  0
    7.5970   -1.5760   23.2590 F   0  0  0  0  0  0  0  0  0  0  0  0
    7.9670   -1.4790   25.3610 F   0  0  0  0  0  0  0  0  0  0  0  0
    8.6630   -3.1890   24.1650 F   0  0  0  0  0  0  0  0  0  0  0  0
    9.8750    0.2710   24.6170 C   0  0  0  0  0  0  0  0  0  0  0  0
    7.2270   -0.2230   21.0870 N   0  0  0  0  0  0  0  0  0  0  0  0
    6.4990    0.3040   19.9930 C   0  0  0  0  0  0  0  0  0  0  0  0
    5.2480    1.0560   20.2450 C   0  0  0  0  0  0  0  0  0  0  0  0
    4.5920    1.5810   19.1660 C   0  0  0  0  0  0  0  0  0  0  0  0
    5.1230    1.3970   17.8070 C   0  0  0  0  0  0  0  0  0  0  0  0
    6.2500    0.6990   17.6040 N   0  0  0  0  0  0  0  0  0  0  0  0
    6.8980    0.1780   18.6740 C   0  0  0  0  0  0  0  0  0  0  0  0
  1  2  2  0
  2  3  1  0
  3  4  1  0
  4  5  1  0
  5  6  1  6
  5  7  1  0
  7  8  2  0
  8  9  1  0
  9 10  1  0
 10 11  1  0
 10 12  1  0
 10 13  1  0
  9 14  2  0
 14 15  1  0
 15 16  1  0
 16 17  1  0
 16 18  1  0
 16 19  1  0
  7 20  1  0
 15 20  2  0
  2 21  1  0
 21 22  1  0
 22 23  2  0
 23 24  1  0
 24 25  2  0
 25 26  1  0
 22 27  1  0
 26 27  2  0
M  END
