pyridine_urea_11136
     RDKit          3D

 18 19  0  0  0  0  0  0  0  0999 V2000
    8.8240    0.7410   21.3310 O   0  0  0  0  0  0  0  0  0  0  0  0
    8.2350   -0.3090   21.5480 C   0  0  0  0  0  0  0  0  0  0  0  0
    8.7000   -1.2550   22.4210 N   0  0  0  0  0  0  0  0  0  0  0  0
   10.0880   -1.2370   22.8060 C   0  0  0  0  0  0  0  0  0  0  0  0
   10.3010   -0.6080   24.1780 C   0  0  0  0  0  0  0  0  0  0  0  0
   11.6370   -0.0120   24.2830 C   0  0  0  0  0  0  0  0  0  0  0  0
   11.5590    1.2770   23.8130 C   0  0  0  0  0  0  0  0  0  0  0  0
   12.3630    1.8420   22.7180 C   0  0  0  0  0  0  0  0  0  0  0  0
   12.5500    0.7270   22.0440 O   0  0  0  0  0  0  0  0  0  0  0  0
   13.2500   -0.2040   22.7920 C   0  0  0  0  0  0  0  0  0  0  0  0
   12.5240   -0.9040   23.6460 C   0  0  0  0  0  0  0  0  0  0  0  0
    7.0520   -0.7130   20.9950 N   0  0  0  0  0  0  0  0  0  0  0  0
    6.3630   -0.0000   20.0160 C   0  0  0  0  0  0  0  0  0  0  0  0
    5.1880    0.7090   20.1880 C   0  0  0  0  0  0  0  0  0  0  0  0
    4.5840    1.3980   19.1480 C   0  0  0  0  0  0  0  0  0  0  0  0
    5.1870    1.3680   17.9110 C   0  0  0  0  0  0  0  0  0  0  0  0
    6.3300    0.6840   17.6980 N   0  0  0  0  0  0  0  0  0  0  0  0
    6.8820    0.0240   18.7380 C   0  0  0  0  0  0  0  0  0  0  0  0
  1  2  2  0
  2  3  1  0
  3  4  1  0
  4  5  1  0
  5  6  1  0
  6  7  1  0
  7  8  1  0
  8  9  1  0
  9 10  1  0
  6 11  1  0
 10 11  1  0
  2 12  1  0
 12 13  1  0
 13 14  2  0
 14 15  1  0
 15 16  2  0
 16 17  1  0
 13 18  1  0
 17 18  2  0
M  END
