pyridine_urea_884
     RDKit          3D

 22 24  0  0  0  0  0  0  0  0999 V2000
   13.2740   -3.1800   20.6860 C   0  0  0  0  0  0  0  0  0  0  0  0
   13.7430   -3.5400   21.9420 O   0  0  0  0  0  0  0  0  0  0  0  0
   13.1510   -2.7590   22.7800 C   0  0  0  0  0  0  0  0  0  0  0  0
   13.5680   -2.5770   24.0720 C   0  0  0  0  0  0  0  0  0  0  0  0
   12.8590   -1.7720   24.8780 C   0  0  0  0  0  0  0  0  0  0  0  0
   11.7340   -1.1800   24.3640 C   0  0  0  0  0  0  0  0  0  0  0  0
   10.9420   -0.3590   25.2700 C   0  0  0  0  0  0  0  0  0  0  0  0
    9.7440    0.2230   24.6510 C   0  0  0  0  0  0  0  0  0  0  0  0
    9.4510   -0.0680   23.2330 C   0  0  0  0  0  0  0  0  0  0  0  0
    8.2630    0.5250   22.8080 N   0  0  0  0  0  0  0  0  0  0  0  0
    8.1750    0.7190   21.5000 C   0  0  0  0  0  0  0  0  0  0  0  0
    8.8270    1.5680   20.9210 O   0  0  0  0  0  0  0  0  0  0  0  0
    7.2640   -0.1330   20.9580 N   0  0  0  0  0  0  0  0  0  0  0  0
    6.5210    0.3370   19.9140 C   0  0  0  0  0  0  0  0  0  0  0  0
    5.3480    1.0360   20.1990 C   0  0  0  0  0  0  0  0  0  0  0  0
    4.6410    1.5320   19.1360 C   0  0  0  0  0  0  0  0  0  0  0  0
    5.1180    1.3150   17.8760 C   0  0  0  0  0  0  0  0  0  0  0  0
    6.2220    0.6380   17.5840 N   0  0  0  0  0  0  0  0  0  0  0  0
    6.9050    0.1580   18.6210 C   0  0  0  0  0  0  0  0  0  0  0  0
   10.2690   -0.8440   22.4770 C   0  0  0  0  0  0  0  0  0  0  0  0
   11.3790   -1.3920   23.0440 C   0  0  0  0  0  0  0  0  0  0  0  0
   12.0740   -2.1480   22.2820 N   0  0  0  0  0  0  0  0  0  0  0  0
  1  2  1  0
  2  3  1  0
  3  4  2  0
  4  5  1  0
  5  6  2  0
  6  7  1  0
  7  8  2  0
  8  9  1  0
  9 10  1  0
 10 11  1  0
 11 12  2  0
 11 13  1  0
 13 14  1  0
 14 15  2  0
 15 16  1  0
 16 17  2  0
 17 18  1  0
 14 19  1  0
 18 19  2  0
  9 20  2  0
  6 21  1  0
 20 21  1  0
  3 22  1  0
 21 22  2  0
M  END
