pyridine_urea_5891
     RDKit          3D

 26 28  0  0  0  0  0  0  0  0999 V2000
   13.4980   -2.9980   20.7290 C   0  0  0  0  0  0  0  0  0  0  0  0
   13.2090   -2.5760   22.0800 C   0  0  0  0  0  0  0  0  0  0  0  0
   12.1120   -1.8890   22.2390 C   0  0  0  0  0  0  0  0  0  0  0  0
   11.9980   -1.5830   23.6000 N   0  0  0  0  0  0  0  0  0  0  0  0
   10.9890   -0.9720   24.0040 C   0  0  0  0  0  0  0  0  0  0  0  0
   10.0600   -0.8140   23.0280 C   0  0  0  0  0  0  0  0  0  0  0  0
    8.8220   -0.2130   23.4330 C   0  0  0  0  0  0  0  0  0  0  0  0
    7.8620   -0.0510   22.5560 N   0  0  0  0  0  0  0  0  0  0  0  0
    7.9960    0.3160   21.2710 C   0  0  0  0  0  0  0  0  0  0  0  0
    8.6680    1.2740   20.8910 O   0  0  0  0  0  0  0  0  0  0  0  0
    7.2460   -0.5400   20.5870 N   0  0  0  0  0  0  0  0  0  0  0  0
    6.4610    0.1300   19.7820 C   0  0  0  0  0  0  0  0  0  0  0  0
    5.2410    0.7260   20.0910 C   0  0  0  0  0  0  0  0  0  0  0  0
    4.5310    1.4410   19.1120 C   0  0  0  0  0  0  0  0  0  0  0  0
    5.0610    1.5480   17.8310 C   0  0  0  0  0  0  0  0  0  0  0  0
    6.2740    0.9260   17.5620 N   0  0  0  0  0  0  0  0  0  0  0  0
    6.9410    0.2360   18.5330 C   0  0  0  0  0  0  0  0  0  0  0  0
    8.6520    0.1730   24.8320 C   0  0  0  0  0  0  0  0  0  0  0  0
    9.5790    0.0160   25.7910 C   0  0  0  0  0  0  0  0  0  0  0  0
    9.1830    0.4000   27.1070 C   0  0  0  0  0  0  0  0  0  0  0  0
    8.4710    1.5500   27.1290 F   0  0  0  0  0  0  0  0  0  0  0  0
    8.2570   -0.4710   27.5410 F   0  0  0  0  0  0  0  0  0  0  0  0
   10.1080    0.4060   28.0750 F   0  0  0  0  0  0  0  0  0  0  0  0
   10.8070   -0.5690   25.3030 C   0  0  0  0  0  0  0  0  0  0  0  0
   13.1270   -2.1340   24.2230 C   0  0  0  0  0  0  0  0  0  0  0  0
   13.8650   -2.7480   23.3270 N   0  0  0  0  0  0  0  0  0  0  0  0
  1  2  1  0
  2  3  2  0
  3  4  1  0
  4  5  1  0
  5  6  2  0
  6  7  1  0
  7  8  1  0
  8  9  1  0
  9 10  2  0
  9 11  1  0
 11 12  1  0
 12 13  2  0
 13 14  1  0
 14 15  2  0
 15 16  1  0
 12 17  1  0
 16 17  2  0
  7 18  2  0
 18 19  1  0
 19 20  1  0
 20 21  1  0
 20 22  1  0
 20 23  1  0
  5 24  1  0
 19 24  2  0
  4 25  1  0
  2 26  1  0
 25 26  2  0
M  END
