pyridine_urea_576
     RDKit          3D

 24 26  0  0  0  0  0  0  0  0999 V2000
    8.6940    1.2350   21.1020 O   0  0  0  0  0  0  0  0  0  0  0  0
    8.1590    0.1910   21.5040 C   0  0  0  0  0  0  0  0  0  0  0  0
    8.6490   -0.5670   22.5130 N   0  0  0  0  0  0  0  0  0  0  0  0
    9.9960   -0.6100   22.7550 C   0  0  0  0  0  0  0  0  0  0  0  0
   10.5380   -0.1040   23.9070 C   0  0  0  0  0  0  0  0  0  0  0  0
   11.6910   -0.8330   24.0520 C   0  0  0  0  0  0  0  0  0  0  0  0
   11.8460   -1.8130   24.7860 C   0  0  0  0  0  0  0  0  0  0  0  0
   12.6740   -2.7700   25.2210 F   0  0  0  0  0  0  0  0  0  0  0  0
   12.9390   -1.3800   23.9760 C   0  0  0  0  0  0  0  0  0  0  0  0
   11.9630   -0.1500   23.3670 C   0  0  0  0  0  0  0  0  0  0  0  0
   13.1070    0.1600   22.6420 C   0  0  0  0  0  0  0  0  0  0  0  0
   12.9560   -0.7780   23.4730 C   0  0  0  0  0  0  0  0  0  0  0  0
   13.9180   -1.6540   23.7690 F   0  0  0  0  0  0  0  0  0  0  0  0
   10.6440    1.3860   23.7260 C   0  0  0  0  0  0  0  0  0  0  0  0
    9.4340    1.9360   24.1530 C   0  0  0  0  0  0  0  0  0  0  0  0
    8.8100    0.9190   25.0290 C   0  0  0  0  0  0  0  0  0  0  0  0
    9.6570   -0.1840   25.0090 C   0  0  0  0  0  0  0  0  0  0  0  0
    7.0160   -0.3730   21.0400 N   0  0  0  0  0  0  0  0  0  0  0  0
    6.3750    0.2290   19.9260 C   0  0  0  0  0  0  0  0  0  0  0  0
    5.2350    0.9830   20.1950 C   0  0  0  0  0  0  0  0  0  0  0  0
    4.6390    1.5860   19.1110 C   0  0  0  0  0  0  0  0  0  0  0  0
    5.1350    1.4520   17.8390 C   0  0  0  0  0  0  0  0  0  0  0  0
    6.2140    0.7260   17.5430 N   0  0  0  0  0  0  0  0  0  0  0  0
    6.8270    0.1140   18.6320 C   0  0  0  0  0  0  0  0  0  0  0  0
  1  2  2  0
  2  3  1  0
  3  4  1  0
  5  4  1  0
  5  6  1  0
  6  7  2  0
  7  8  1  0
  7  9  1  0
  9 10  2  0
 10 11  1  0
  6 12  1  0
 11 12  2  0
 12 13  1  0
  5 14  1  0
 14 15  1  0
 15 16  1  0
  5 17  1  0
 16 17  1  0
  2 18  1  0
 18 19  1  0
 19 20  2  0
 20 21  1  0
 21 22  2  0
 22 23  1  0
 19 24  1  0
 23 24  2  0
M  END
