pyridine_urea_14800
     RDKit          3D

 20 21  0  0  0  0  0  0  0  0999 V2000
   13.2940   -2.4510   24.4580 C   0  0  0  0  0  0  0  0  0  0  0  0
   13.7510   -2.5190   23.3180 O   0  0  0  0  0  0  0  0  0  0  0  0
   13.1890   -1.7410   22.3360 C   0  0  0  0  0  0  0  0  0  0  0  0
   12.3520   -0.7570   22.8030 C   0  0  0  0  0  0  0  0  0  0  0  0
   12.8980    0.5390   22.9900 C   0  0  0  0  0  0  0  0  0  0  0  0
   12.1330    1.5490   23.4500 C   0  0  0  0  0  0  0  0  0  0  0  0
   10.8670    1.2440   23.7120 C   0  0  0  0  0  0  0  0  0  0  0  0
   10.3840   -0.1590   23.4790 C   0  0  0  0  0  0  0  0  0  0  0  0
   11.0420   -1.3120   23.0050 C   0  0  0  0  0  0  0  0  0  0  0  0
    9.7320   -1.6380   23.2650 C   0  0  0  0  0  0  0  0  0  0  0  0
    8.8220   -1.5910   22.2030 N   0  0  0  0  0  0  0  0  0  0  0  0
    8.3020   -0.4020   21.5170 C   0  0  0  0  0  0  0  0  0  0  0  0
    8.9130    0.6560   21.4230 O   0  0  0  0  0  0  0  0  0  0  0  0
    7.0410   -0.6880   21.0270 N   0  0  0  0  0  0  0  0  0  0  0  0
    6.3630    0.0310   20.0370 C   0  0  0  0  0  0  0  0  0  0  0  0
    5.1090    0.8090   20.2360 C   0  0  0  0  0  0  0  0  0  0  0  0
    4.5940    1.4660   19.1200 C   0  0  0  0  0  0  0  0  0  0  0  0
    5.2490    1.3730   17.9060 C   0  0  0  0  0  0  0  0  0  0  0  0
    6.3770    0.6760   17.7020 N   0  0  0  0  0  0  0  0  0  0  0  0
    6.9010    0.0260   18.7600 C   0  0  0  0  0  0  0  0  0  0  0  0
  1  2  1  0
  2  3  1  0
  3  4  1  0
  4  5  2  0
  5  6  1  0
  6  7  2  0
  7  8  1  0
  4  9  1  0
  8  9  2  0
  9 10  1  0
 10 11  1  0
 11 12  1  0
 12 13  2  0
 12 14  1  0
 14 15  1  0
 15 16  2  0
 16 17  1  0
 17 18  2  0
 18 19  1  0
 15 20  1  0
 19 20  2  0
M  END
