pyridine_urea_4344
     RDKit          3D

 24 26  0  0  0  0  0  0  0  0999 V2000
    8.6940    1.1960   21.0150 O   0  0  0  0  0  0  0  0  0  0  0  0
    8.3930    0.0670   21.4230 C   0  0  0  0  0  0  0  0  0  0  0  0
    9.1100   -0.6020   22.4050 N   0  0  0  0  0  0  0  0  0  0  0  0
    9.6910    0.2360   23.4640 C   0  0  0  0  0  0  0  0  0  0  0  0
   11.2400    0.4140   23.4390 C   0  0  0  0  0  0  0  0  0  0  0  0
   12.2890    0.7360   22.2740 C   0  0  0  0  0  0  0  0  0  0  0  0
   12.5270    0.4810   23.5460 C   0  0  0  0  0  0  0  0  0  0  0  0
   11.0670    0.4150   23.7100 C   0  0  0  0  0  0  0  0  0  0  0  0
   10.1560    0.7090   22.5500 C   0  0  0  0  0  0  0  0  0  0  0  0
   10.1670    2.1970   22.3440 N   0  0  0  0  0  0  0  0  0  0  0  0
    9.0550    3.0270   22.6270 C   0  0  0  0  0  0  0  0  0  0  0  0
    9.4110    4.2570   23.1630 C   0  0  0  0  0  0  0  0  0  0  0  0
   10.7930    4.2670   23.1300 C   0  0  0  0  0  0  0  0  0  0  0  0
   11.2560    2.9920   22.7960 C   0  0  0  0  0  0  0  0  0  0  0  0
   12.4580    2.8340   22.9430 O   0  0  0  0  0  0  0  0  0  0  0  0
   10.6270    0.1150   24.8730 C   0  0  0  0  0  0  0  0  0  0  0  0
   12.1600    0.2770   24.6780 C   0  0  0  0  0  0  0  0  0  0  0  0
    7.2870   -0.6010   20.9430 N   0  0  0  0  0  0  0  0  0  0  0  0
    6.5000    0.0190   20.0470 C   0  0  0  0  0  0  0  0  0  0  0  0
    5.2330    0.7570   20.3290 C   0  0  0  0  0  0  0  0  0  0  0  0
    4.5800    1.3560   19.2540 C   0  0  0  0  0  0  0  0  0  0  0  0
    5.1330    1.2360   17.9960 C   0  0  0  0  0  0  0  0  0  0  0  0
    6.2580    0.5760   17.6940 N   0  0  0  0  0  0  0  0  0  0  0  0
    6.8860   -0.0000   18.7290 C   0  0  0  0  0  0  0  0  0  0  0  0
  1  2  2  0
  2  3  1  0
  3  4  1  0
  4  5  1  0
  5  6  2  0
  6  7  1  0
  7  8  2  0
  8  9  1  0
  9 10  1  0
 10 11  1  0
 11 12  1  0
 12 13  1  0
 10 14  1  0
 13 14  1  0
 14 15  2  0
  8 16  1  0
  5 17  1  0
 16 17  2  0
  2 18  1  0
 18 19  1  0
 19 20  2  0
 20 21  1  0
 21 22  2  0
 22 23  1  0
 19 24  1  0
 23 24  2  0
M  END
