pyridine_urea_11172
     RDKit          3D

 18 18  0  0  0  0  0  0  0  0999 V2000
   13.4140   -2.5290   24.2410 C   0  0  0  0  0  0  0  0  0  0  0  0
   12.4950   -1.8020   24.0720 C   0  0  0  0  0  0  0  0  0  0  0  0
   11.1680   -1.2840   23.5460 C   0  0  0  0  0  0  0  0  0  0  0  0
   10.2180   -1.7520   24.5590 N   0  0  0  0  0  0  0  0  0  0  0  0
    9.1720   -2.5200   23.8690 C   0  0  0  0  0  0  0  0  0  0  0  0
    8.9350   -3.9230   23.8970 O   0  0  0  0  0  0  0  0  0  0  0  0
    8.3170   -1.7790   23.1130 C   0  0  2  0  0  0  0  0  0  0  0  0
    7.0840   -2.3890   22.4130 C   0  0  0  0  0  0  0  0  0  0  0  0
    8.9350   -1.0980   22.1370 N   0  0  0  0  0  0  0  0  0  0  0  0
    8.3520   -0.0220   21.4630 C   0  0  0  0  0  0  0  0  0  0  0  0
    9.0310    1.2270   21.2010 O   0  0  0  0  0  0  0  0  0  0  0  0
    7.0790   -0.3480   21.1010 N   0  0  0  0  0  0  0  0  0  0  0  0
    6.4670    0.2270   20.0120 C   0  0  0  0  0  0  0  0  0  0  0  0
    5.2420    1.0470   20.1970 C   0  0  0  0  0  0  0  0  0  0  0  0
    4.6310    1.6480   19.1270 C   0  0  0  0  0  0  0  0  0  0  0  0
    5.1210    1.5250   17.8370 C   0  0  0  0  0  0  0  0  0  0  0  0
    6.3280    0.7060   17.6220 N   0  0  0  0  0  0  0  0  0  0  0  0
    6.9150    0.1120   18.7220 C   0  0  0  0  0  0  0  0  0  0  0  0
  1  2  1  0
  2  3  1  0
  3  4  1  0
  4  5  1  0
  5  6  2  0
  5  7  1  0
  7  8  1  6
  7  9  1  0
  9 10  1  0
 10 11  2  0
 10 12  1  0
 12 13  1  0
 13 14  2  0
 14 15  1  0
 15 16  2  0
 16 17  1  0
 13 18  1  0
 17 18  2  0
M  END
