pyridine_urea_3669
     RDKit          3D

 15 16  0  0  0  0  0  0  0  0999 V2000
    8.9770    0.9470   21.5440 O   0  0  0  0  0  0  0  0  0  0  0  0
    8.5990   -0.2140   21.4660 C   0  0  0  0  0  0  0  0  0  0  0  0
    7.2830   -0.5920   21.2420 N   0  0  0  0  0  0  0  0  0  0  0  0
    6.5860    0.0370   20.1410 C   0  0  0  0  0  0  0  0  0  0  0  0
    5.3320    0.8390   20.4770 C   0  0  0  0  0  0  0  0  0  0  0  0
    4.5940    1.5230   19.3270 C   0  0  0  0  0  0  0  0  0  0  0  0
    5.2070    1.3250   17.9420 C   0  0  0  0  0  0  0  0  0  0  0  0
    6.3640    0.5510   17.7970 N   0  0  0  0  0  0  0  0  0  0  0  0
    7.0150   -0.0600   18.8330 C   0  0  0  0  0  0  0  0  0  0  0  0
    9.4340   -1.3120   21.5500 N   0  0  0  0  0  0  0  0  0  0  0  0
   10.6170   -1.3610   22.3370 C   0  0  0  0  0  0  0  0  0  0  0  0
   11.8650   -1.6500   21.8780 C   0  0  0  0  0  0  0  0  0  0  0  0
   12.8760   -1.6920   22.6250 N   0  0  0  0  0  0  0  0  0  0  0  0
   12.1780   -1.3310   24.0960 S   0  0  0  0  0  0  0  0  0  0  0  0
   10.4400   -1.0730   23.8580 C   0  0  0  0  0  0  0  0  0  0  0  0
  1  2  2  0
  2  3  1  0
  3  4  1  0
  4  5  2  0
  5  6  1  0
  6  7  2  0
  7  8  1  0
  4  9  1  0
  8  9  2  0
  2 10  1  0
 10 11  1  0
 11 12  1  0
 12 13  2  0
 13 14  1  0
 11 15  2  0
 14 15  1  0
M  END
