pyridine_urea_2419
     RDKit          3D

 25 27  0  0  0  0  0  0  0  0999 V2000
    8.7060    0.8700   24.3190 C   0  0  0  0  0  0  0  0  0  0  0  0
    9.9670    0.3420   23.6420 C   0  0  0  0  0  0  0  0  0  0  0  0
   11.0990    0.9910   23.9650 C   0  0  0  0  0  0  0  0  0  0  0  0
   12.2940    0.6530   23.4400 C   0  0  0  0  0  0  0  0  0  0  0  0
   13.2450    1.2490   23.6780 O   0  0  0  0  0  0  0  0  0  0  0  0
   13.4700    1.9840   22.5720 C   0  0  0  0  0  0  0  0  0  0  0  0
   12.8920    3.2500   22.6670 C   0  0  0  0  0  0  0  0  0  0  0  0
   13.4920    4.3160   22.0000 C   0  0  0  0  0  0  0  0  0  0  0  0
   12.9400    5.7150   22.0560 C   0  0  0  0  0  0  0  0  0  0  0  0
   11.7930    5.9160   22.7970 C   0  0  0  0  0  0  0  0  0  0  0  0
   11.2000    4.8400   23.4530 C   0  0  0  0  0  0  0  0  0  0  0  0
   11.7060    3.5240   23.4130 C   0  0  0  0  0  0  0  0  0  0  0  0
   12.4310   -0.4110   22.5570 C   0  0  0  0  0  0  0  0  0  0  0  0
   11.2850   -1.1090   22.1910 C   0  0  0  0  0  0  0  0  0  0  0  0
   10.0580   -0.7070   22.7300 C   0  0  0  0  0  0  0  0  0  0  0  0
    8.8530   -1.2840   22.3720 N   0  0  0  0  0  0  0  0  0  0  0  0
    8.1530   -0.4440   21.5230 C   0  0  0  0  0  0  0  0  0  0  0  0
    8.6140    0.7990   21.1700 O   0  0  0  0  0  0  0  0  0  0  0  0
    6.9590   -0.9100   21.0370 N   0  0  0  0  0  0  0  0  0  0  0  0
    6.3510   -0.1760   20.0060 C   0  0  0  0  0  0  0  0  0  0  0  0
    5.1290    0.4560   20.2300 C   0  0  0  0  0  0  0  0  0  0  0  0
    4.5490    1.1980   19.1980 C   0  0  0  0  0  0  0  0  0  0  0  0
    5.2130    1.2840   17.9700 C   0  0  0  0  0  0  0  0  0  0  0  0
    6.3860    0.6760   17.7420 N   0  0  0  0  0  0  0  0  0  0  0  0
    6.9240   -0.0350   18.7560 C   0  0  0  0  0  0  0  0  0  0  0  0
  1  2  1  0
  2  3  2  0
  3  4  1  0
  4  5  1  0
  5  6  1  0
  6  7  1  0
  7  8  2  0
  8  9  1  0
  9 10  2  0
 10 11  1  0
  7 12  1  0
 11 12  2  0
  4 13  2  0
 13 14  1  0
  2 15  1  0
 14 15  2  0
 15 16  1  0
 16 17  1  0
 17 18  2  0
 17 19  1  0
 19 20  1  0
 20 21  2  0
 21 22  1  0
 22 23  2  0
 23 24  1  0
 20 25  1  0
 24 25  2  0
M  END
