pyridine_urea_13533
     RDKit          3D

 21 22  0  0  0  0  0  0  0  0999 V2000
    8.1920   -4.0130   23.3890 C   0  0  0  0  0  0  0  0  0  0  0  0
    7.3880   -3.1820   24.1080 N   0  0  0  0  0  0  0  0  0  0  0  0
    6.2020   -3.6670   24.7570 N   0  0  0  0  0  0  0  0  0  0  0  0
    5.6880   -2.5450   25.3660 C   0  0  0  0  0  0  0  0  0  0  0  0
    4.4490   -2.2830   26.2380 C   0  0  0  0  0  0  0  0  0  0  0  0
    3.3290   -2.2150   25.4680 F   0  0  0  0  0  0  0  0  0  0  0  0
    4.2470   -3.3230   27.1070 F   0  0  0  0  0  0  0  0  0  0  0  0
    4.4980   -1.1440   26.9820 F   0  0  0  0  0  0  0  0  0  0  0  0
    6.4670   -1.4480   25.1270 N   0  0  0  0  0  0  0  0  0  0  0  0
    7.5190   -1.8400   24.3510 C   0  0  0  0  0  0  0  0  0  0  0  0
    8.7070   -1.1030   23.7660 C   0  0  0  0  0  0  0  0  0  0  0  0
    8.9080   -1.2940   22.4620 N   0  0  0  0  0  0  0  0  0  0  0  0
    8.3770   -0.3180   21.5930 C   0  0  0  0  0  0  0  0  0  0  0  0
    8.9430    0.7490   21.3760 O   0  0  0  0  0  0  0  0  0  0  0  0
    7.1070   -0.7590   21.0420 N   0  0  0  0  0  0  0  0  0  0  0  0
    6.4790   -0.0580   20.0300 C   0  0  0  0  0  0  0  0  0  0  0  0
    5.3050    0.6460   20.2810 C   0  0  0  0  0  0  0  0  0  0  0  0
    4.7070    1.3430   19.2410 C   0  0  0  0  0  0  0  0  0  0  0  0
    5.2150    1.3820   17.9450 C   0  0  0  0  0  0  0  0  0  0  0  0
    6.3580    0.6760   17.7460 N   0  0  0  0  0  0  0  0  0  0  0  0
    6.9130    0.0190   18.7380 C   0  0  0  0  0  0  0  0  0  0  0  0
  1  2  1  0
  2  3  1  0
  3  4  2  0
  4  5  1  0
  5  6  1  0
  5  7  1  0
  5  8  1  0
  4  9  1  0
  2 10  1  0
  9 10  2  0
 10 11  1  0
 11 12  1  0
 12 13  1  0
 13 14  2  0
 13 15  1  0
 15 16  1  0
 16 17  2  0
 17 18  1  0
 18 19  2  0
 19 20  1  0
 16 21  1  0
 20 21  2  0
M  END
