pyridine_urea_2402
     RDKit          3D

 25 26  0  0  0  0  0  0  0  0999 V2000
    6.8790   -1.4440   25.2880 C   0  0  0  0  0  0  0  0  0  0  0  0
    6.3620   -2.8170   24.8640 C   0  0  0  0  0  0  0  0  0  0  0  0
    6.7710   -3.0650   23.5110 O   0  0  0  0  0  0  0  0  0  0  0  0
    7.9010   -3.8150   23.3480 C   0  0  0  0  0  0  0  0  0  0  0  0
    9.0560   -3.1260   23.7360 C   0  0  0  0  0  0  0  0  0  0  0  0
    9.7780   -2.4700   22.7590 C   0  0  0  0  0  0  0  0  0  0  0  0
   11.2370   -2.6760   22.8550 N   0  0  0  0  0  0  0  0  0  0  0  0
   12.1910   -2.1700   21.9940 C   0  0  0  0  0  0  0  0  0  0  0  0
   12.4440   -2.5730   20.8700 O   0  0  0  0  0  0  0  0  0  0  0  0
   12.8860   -1.0900   22.4960 C   0  0  0  0  0  0  0  0  0  0  0  0
   13.0320    0.3900   22.9890 C   0  0  0  0  0  0  0  0  0  0  0  0
   11.9840    1.4190   23.0670 C   0  0  0  0  0  0  0  0  0  0  0  0
   10.6140    1.2200   22.7010 C   0  0  0  0  0  0  0  0  0  0  0  0
   10.4970   -0.0210   22.2680 C   0  0  0  0  0  0  0  0  0  0  0  0
    9.3770   -0.6180   21.7720 N   0  0  0  0  0  0  0  0  0  0  0  0
    8.3600    0.2150   21.2900 C   0  0  0  0  0  0  0  0  0  0  0  0
    8.5230    1.4120   21.0410 O   0  0  0  0  0  0  0  0  0  0  0  0
    7.2010   -0.4410   21.0850 N   0  0  0  0  0  0  0  0  0  0  0  0
    6.4810    0.1400   20.1060 C   0  0  0  0  0  0  0  0  0  0  0  0
    5.2950    0.8750   20.2990 C   0  0  0  0  0  0  0  0  0  0  0  0
    4.6480    1.4560   19.1980 C   0  0  0  0  0  0  0  0  0  0  0  0
    5.1750    1.3040   17.9360 C   0  0  0  0  0  0  0  0  0  0  0  0
    6.3040    0.5940   17.7300 N   0  0  0  0  0  0  0  0  0  0  0  0
    6.9550    0.0110   18.8080 C   0  0  0  0  0  0  0  0  0  0  0  0
   11.7220   -0.4930   22.4100 C   0  0  0  0  0  0  0  0  0  0  0  0
  1  2  1  0
  2  3  1  0
  3  4  1  0
  4  5  1  0
  5  6  1  0
  6  7  1  0
  7  8  1  0
  8  9  2  0
  8 10  1  0
 10 11  2  0
 11 12  1  0
 12 13  2  0
 13 14  1  0
 14 15  1  0
 15 16  1  0
 16 17  2  0
 16 18  1  0
 18 19  1  0
 19 20  2  0
 20 21  1  0
 21 22  2  0
 22 23  1  0
 19 24  1  0
 23 24  2  0
 10 25  1  0
 14 25  2  0
M  END
