pyridine_urea_124
     RDKit          3D

 19 20  0  0  0  0  0  0  0  0999 V2000
   12.8370   -2.8960   24.7800 C   0  0  0  0  0  0  0  0  0  0  0  0
   13.5180   -1.7230   24.6580 N   0  0  0  0  0  0  0  0  0  0  0  0
   12.9630   -0.6520   23.8490 C   0  0  1  0  0  0  0  0  0  0  0  0
   12.7550   -1.0830   22.4100 C   0  0  0  0  0  0  0  0  0  0  0  0
   11.3410   -1.4500   22.1680 C   0  0  0  0  0  0  0  0  0  0  0  0
   10.3850   -0.5920   22.6600 C   0  0  1  0  0  0  0  0  0  0  0  0
   10.3800    0.9390   22.5680 C   0  0  0  0  0  0  0  0  0  0  0  0
    9.1040   -0.8710   22.3730 N   0  0  0  0  0  0  0  0  0  0  0  0
    8.3720   -0.0470   21.4990 C   0  0  0  0  0  0  0  0  0  0  0  0
    8.8030    1.2690   21.0990 O   0  0  0  0  0  0  0  0  0  0  0  0
    7.2110   -0.6190   21.0730 N   0  0  0  0  0  0  0  0  0  0  0  0
    6.5360    0.0120   20.0390 C   0  0  0  0  0  0  0  0  0  0  0  0
    5.2900    0.7970   20.2930 C   0  0  0  0  0  0  0  0  0  0  0  0
    4.6410    1.4490   19.2700 C   0  0  0  0  0  0  0  0  0  0  0  0
    5.1020    1.4150   17.9610 C   0  0  0  0  0  0  0  0  0  0  0  0
    6.3230    0.6360   17.6760 N   0  0  0  0  0  0  0  0  0  0  0  0
    6.9480   -0.0080   18.7300 C   0  0  0  0  0  0  0  0  0  0  0  0
   10.4950   -0.7350   24.0810 C   0  0  0  0  0  0  0  0  0  0  0  0
   11.7420   -0.0810   24.5620 C   0  0  0  0  0  0  0  0  0  0  0  0
  1  2  1  0
  3  2  1  1
  3  4  1  0
  4  5  1  0
  5  6  1  0
  6  7  1  1
  6  8  1  0
  8  9  1  0
  9 10  2  0
  9 11  1  0
 11 12  1  0
 12 13  2  0
 13 14  1  0
 14 15  2  0
 15 16  1  0
 12 17  1  0
 16 17  2  0
  6 18  1  0
  3 19  1  0
 18 19  1  0
M  END
