pyridine_urea_8761
     RDKit          3D

 21 23  0  0  0  0  0  0  0  0999 V2000
    8.9190    0.7530   21.3920 O   0  0  0  0  0  0  0  0  0  0  0  0
    8.7060   -0.4530   21.3600 C   0  0  0  0  0  0  0  0  0  0  0  0
    9.2410   -1.4070   22.1900 N   0  0  0  0  0  0  0  0  0  0  0  0
   10.4890   -1.3330   22.8280 C   0  0  0  0  0  0  0  0  0  0  0  0
   11.5430   -1.3590   21.9340 C   0  0  0  0  0  0  0  0  0  0  0  0
   12.8330   -1.2750   22.3110 C   0  0  0  0  0  0  0  0  0  0  0  0
   12.9650   -1.1830   23.6210 C   0  0  0  0  0  0  0  0  0  0  0  0
   11.9230   -1.1830   24.4470 N   0  0  0  0  0  0  0  0  0  0  0  0
   10.5530   -1.2450   24.2300 C   0  0  0  0  0  0  0  0  0  0  0  0
    7.8600   -0.9940   20.4190 N   0  0  0  0  0  0  0  0  0  0  0  0
    6.7320   -0.1950   20.0540 C   0  0  0  0  0  0  0  0  0  0  0  0
    5.5430   -0.0620   20.9740 C   0  0  0  0  0  0  0  0  0  0  0  0
    4.4910    0.7170   20.6420 C   0  0  0  0  0  0  0  0  0  0  0  0
    4.4650    1.3970   19.4840 C   0  0  0  0  0  0  0  0  0  0  0  0
    3.3940    2.1740   19.2820 N   0  0  0  0  0  0  0  0  0  0  0  0
    3.3370    3.1690   18.3860 C   0  0  0  0  0  0  0  0  0  0  0  0
    2.1000    3.7910   18.4430 C   0  0  0  0  0  0  0  0  0  0  0  0
    1.4100    3.1270   19.4140 C   0  0  0  0  0  0  0  0  0  0  0  0
    2.1790    2.1470   19.9290 N   0  0  0  0  0  0  0  0  0  0  0  0
    5.4860    1.3380   18.5400 N   0  0  0  0  0  0  0  0  0  0  0  0
    6.6070    0.5780   18.7830 C   0  0  0  0  0  0  0  0  0  0  0  0
  1  2  2  0
  2  3  1  0
  3  4  1  0
  4  5  2  0
  5  6  1  0
  6  7  2  0
  7  8  1  0
  4  9  1  0
  8  9  2  0
  2 10  1  0
 10 11  1  0
 11 12  2  0
 12 13  1  0
 13 14  2  0
 14 15  1  0
 15 16  1  0
 16 17  2  0
 17 18  1  0
 15 19  1  0
 18 19  2  0
 14 20  1  0
 11 21  1  0
 20 21  2  0
M  END
