pyridine_urea_14671
     RDKit          3D

 20 21  0  0  0  0  0  0  0  0999 V2000
    9.1850   -5.9110   27.1410 C   0  0  0  0  0  0  0  0  0  0  0  0
    8.9620   -4.4660   26.7640 C   0  0  0  0  0  0  0  0  0  0  0  0
    7.6660   -3.9790   26.8780 C   0  0  0  0  0  0  0  0  0  0  0  0
    9.4640   -4.1640   25.3330 C   0  0  0  0  0  0  0  0  0  0  0  0
    8.4080   -4.2420   24.3190 N   0  0  0  0  0  0  0  0  0  0  0  0
    7.3460   -5.1440   24.4740 N   0  0  0  0  0  0  0  0  0  0  0  0
    6.4800   -4.9730   23.3090 C   0  0  0  0  0  0  0  0  0  0  0  0
    7.0180   -4.0130   22.5180 C   0  0  0  0  0  0  0  0  0  0  0  0
    8.3070   -3.4860   23.1300 C   0  0  0  0  0  0  0  0  0  0  0  0
    9.2410   -2.5170   22.7270 C   0  0  0  0  0  0  0  0  0  0  0  0
    8.7990   -1.2150   22.7450 N   0  0  0  0  0  0  0  0  0  0  0  0
    8.3880   -0.3550   21.7040 C   0  0  0  0  0  0  0  0  0  0  0  0
    9.0140    0.6570   21.4090 O   0  0  0  0  0  0  0  0  0  0  0  0
    7.1610   -0.8120   21.0800 N   0  0  0  0  0  0  0  0  0  0  0  0
    6.4850   -0.0770   20.0700 C   0  0  0  0  0  0  0  0  0  0  0  0
    5.3150    0.6540   20.3260 C   0  0  0  0  0  0  0  0  0  0  0  0
    4.6430    1.4230   19.2210 C   0  0  0  0  0  0  0  0  0  0  0  0
    5.2110    1.3920   17.9400 C   0  0  0  0  0  0  0  0  0  0  0  0
    6.3620    0.6530   17.7340 N   0  0  0  0  0  0  0  0  0  0  0  0
    6.9600   -0.0530   18.7790 C   0  0  0  0  0  0  0  0  0  0  0  0
  1  2  1  0
  2  3  1  0
  2  4  1  0
  4  5  1  0
  5  6  1  0
  6  7  2  0
  7  8  1  0
  5  9  1  0
  8  9  2  0
  9 10  1  0
 10 11  1  0
 11 12  1  0
 12 13  2  0
 12 14  1  0
 14 15  1  0
 15 16  2  0
 16 17  1  0
 17 18  2  0
 18 19  1  0
 15 20  1  0
 19 20  2  0
M  END
