pyridine_urea_258
     RDKit          3D

 28 30  0  0  0  0  0  0  0  0999 V2000
   12.0660    0.3540   23.1490 C   0  0  0  0  0  0  0  0  0  0  0  0
   10.8920    0.1930   23.4400 C   0  0  0  0  0  0  0  0  0  0  0  0
    9.4560    0.4900   23.6220 C   0  0  0  0  0  0  0  0  0  0  0  0
    8.8810    1.7090   23.2830 C   0  0  1  0  0  0  0  0  0  0  0  0
    9.8110    2.6590   22.9510 C   0  0  0  0  0  0  0  0  0  0  0  0
    8.0610    1.3050   22.1620 N   0  0  0  0  0  0  0  0  0  0  0  0
    8.3130    0.1280   21.4940 C   0  0  0  0  0  0  0  0  0  0  0  0
    9.4370   -0.2900   21.3750 O   0  0  0  0  0  0  0  0  0  0  0  0
    7.1600   -0.4410   21.0120 N   0  0  0  0  0  0  0  0  0  0  0  0
    6.3570    0.1980   20.0730 C   0  0  0  0  0  0  0  0  0  0  0  0
    5.2040    0.8430   20.4120 C   0  0  0  0  0  0  0  0  0  0  0  0
    4.6430    1.4250   19.1420 C   0  0  0  0  0  0  0  0  0  0  0  0
    5.2010    1.3120   17.9010 C   0  0  0  0  0  0  0  0  0  0  0  0
    6.3110    0.6610   17.6620 N   0  0  0  0  0  0  0  0  0  0  0  0
    6.8400    0.1300   18.7650 C   0  0  0  0  0  0  0  0  0  0  0  0
    8.7690   -0.7240   24.1940 C   0  0  0  0  0  0  0  0  0  0  0  0
    9.6420   -1.6840   24.3300 N   0  0  0  0  0  0  0  0  0  0  0  0
   10.7680   -1.0920   23.8830 N   0  0  0  0  0  0  0  0  0  0  0  0
   11.7740   -1.7400   23.8230 C   0  0  0  0  0  0  0  0  0  0  0  0
   12.5440   -2.1160   24.9400 C   0  0  0  0  0  0  0  0  0  0  0  0
   13.7190   -2.8550   24.6600 C   0  0  0  0  0  0  0  0  0  0  0  0
   13.9580   -3.1080   23.3320 C   0  0  0  0  0  0  0  0  0  0  0  0
   13.1410   -2.7000   22.2980 C   0  0  0  0  0  0  0  0  0  0  0  0
   13.2950   -2.8890   20.9790 C   0  0  0  0  0  0  0  0  0  0  0  0
   13.8070   -1.7380   20.4980 F   0  0  0  0  0  0  0  0  0  0  0  0
   12.0750   -3.0360   20.4600 F   0  0  0  0  0  0  0  0  0  0  0  0
   14.0040   -3.9620   20.5670 F   0  0  0  0  0  0  0  0  0  0  0  0
   12.0680   -2.0280   22.5710 C   0  0  0  0  0  0  0  0  0  0  0  0
  1  2  1  0
  2  3  2  0
  3  4  1  0
  4  5  1  6
  4  6  1  0
  6  7  1  0
  7  8  2  0
  7  9  1  0
  9 10  1  0
 10 11  2  0
 11 12  1  0
 12 13  2  0
 13 14  1  0
 10 15  1  0
 14 15  2  0
  3 16  1  0
 16 17  2  0
  2 18  1  0
 17 18  1  0
 18 19  1  0
 19 20  2  0
 20 21  1  0
 21 22  2  0
 22 23  1  0
 23 24  1  0
 24 25  1  0
 24 26  1  0
 24 27  1  0
 19 28  1  0
 23 28  2  0
M  END
