pyridine_urea_10674
     RDKit          3D

 21 22  0  0  0  0  0  0  0  0999 V2000
    7.6550   -0.1350   27.1450 C   0  0  0  0  0  0  0  0  0  0  0  0
    8.4700    0.0120   25.9870 O   0  0  0  0  0  0  0  0  0  0  0  0
    9.8020   -0.1150   26.2540 C   0  0  0  0  0  0  0  0  0  0  0  0
   10.2010    0.0130   27.4070 O   0  0  0  0  0  0  0  0  0  0  0  0
   10.6030   -0.4520   24.9570 C   0  0  0  0  0  0  0  0  0  0  0  0
    9.6490   -0.5420   23.8460 C   0  0  0  0  0  0  0  0  0  0  0  0
   10.0730   -0.8680   22.5440 C   0  0  0  0  0  0  0  0  0  0  0  0
    9.2980   -0.9990   21.3690 N   0  0  0  0  0  0  0  0  0  0  0  0
    8.3990    0.0140   21.1890 C   0  0  0  0  0  0  0  0  0  0  0  0
    8.8260    1.4130   21.1280 O   0  0  0  0  0  0  0  0  0  0  0  0
    7.0400   -0.4410   21.0490 N   0  0  0  0  0  0  0  0  0  0  0  0
    6.3970    0.1280   20.0080 C   0  0  0  0  0  0  0  0  0  0  0  0
    5.2140    0.8350   20.2150 C   0  0  0  0  0  0  0  0  0  0  0  0
    4.5710    1.4420   19.1610 C   0  0  0  0  0  0  0  0  0  0  0  0
    5.1210    1.3380   17.9050 C   0  0  0  0  0  0  0  0  0  0  0  0
    6.2530    0.6560   17.6650 N   0  0  0  0  0  0  0  0  0  0  0  0
    6.8650    0.0660   18.7150 C   0  0  0  0  0  0  0  0  0  0  0  0
   11.4190   -1.1160   22.2460 C   0  0  0  0  0  0  0  0  0  0  0  0
   12.3740   -0.9940   23.4300 C   0  0  0  0  0  0  0  0  0  0  0  0
   12.1790   -0.6850   24.8220 C   0  0  0  0  0  0  0  0  0  0  0  0
   13.1450   -0.6400   25.7460 F   0  0  0  0  0  0  0  0  0  0  0  0
  1  2  1  0
  2  3  1  0
  3  4  2  0
  3  5  1  0
  5  6  2  0
  6  7  1  0
  7  8  1  0
  8  9  1  0
  9 10  2  0
  9 11  1  0
 11 12  1  0
 12 13  2  0
 13 14  1  0
 14 15  2  0
 15 16  1  0
 12 17  1  0
 16 17  2  0
  7 18  2  0
 18 19  1  0
  5 20  1  0
 19 20  2  0
 20 21  1  0
M  END
