pyridine_urea_1062
     RDKit          3D

 22 24  0  0  0  0  0  0  0  0999 V2000
    8.7910    1.0860   21.4630 O   0  0  0  0  0  0  0  0  0  0  0  0
    8.4960   -0.0950   21.3640 C   0  0  0  0  0  0  0  0  0  0  0  0
    7.1260   -0.5400   21.1300 N   0  0  0  0  0  0  0  0  0  0  0  0
    6.4540    0.0870   20.0890 C   0  0  0  0  0  0  0  0  0  0  0  0
    5.2830    0.8110   20.3280 C   0  0  0  0  0  0  0  0  0  0  0  0
    4.6500    1.4330   19.2500 C   0  0  0  0  0  0  0  0  0  0  0  0
    5.2070    1.3120   17.9740 C   0  0  0  0  0  0  0  0  0  0  0  0
    6.3250    0.6150   17.7340 N   0  0  0  0  0  0  0  0  0  0  0  0
    6.9250    0.0160   18.7920 C   0  0  0  0  0  0  0  0  0  0  0  0
    9.3550   -1.1590   21.4060 N   0  0  0  0  0  0  0  0  0  0  0  0
   10.2410   -1.4380   22.5210 C   0  0  2  0  0  0  0  0  0  0  0  0
    9.6740   -0.9200   23.8480 C   0  0  0  0  0  0  0  0  0  0  0  0
    8.2870   -0.8990   23.8370 C   0  0  0  0  0  0  0  0  0  0  0  0
    7.5730   -0.4940   24.9110 C   0  0  0  0  0  0  0  0  0  0  0  0
    8.3000   -0.1250   25.9790 C   0  0  0  0  0  0  0  0  0  0  0  0
    9.6780   -0.1770   25.9090 C   0  0  0  0  0  0  0  0  0  0  0  0
   10.6020   -0.5600   24.8840 C   0  0  0  0  0  0  0  0  0  0  0  0
   11.6060   -1.2430   22.4230 C   0  0  0  0  0  0  0  0  0  0  0  0
   12.0820    0.0010   22.8070 C   0  0  0  0  0  0  0  0  0  0  0  0
   12.8580   -0.1580   23.8950 C   0  0  0  0  0  0  0  0  0  0  0  0
   12.8520   -1.5050   24.2250 C   0  0  0  0  0  0  0  0  0  0  0  0
   12.1690   -2.2480   23.2480 C   0  0  0  0  0  0  0  0  0  0  0  0
  1  2  2  0
  2  3  1  0
  3  4  1  0
  4  5  2  0
  5  6  1  0
  6  7  2  0
  7  8  1  0
  4  9  1  0
  8  9  2  0
  2 10  1  0
 11 10  1  6
 11 12  1  0
 12 13  2  0
 13 14  1  0
 14 15  2  0
 15 16  1  0
 12 17  1  0
 16 17  2  0
 11 18  1  0
 18 19  1  0
 19 20  1  0
 20 21  1  0
 18 22  1  0
 21 22  1  0
M  END
