pyridine_urea_8891
     RDKit          3D

 20 20  0  0  0  0  0  0  0  0999 V2000
   13.6800   -3.8260   20.4410 C   0  0  0  0  0  0  0  0  0  0  0  0
   12.4610   -3.1670   20.6590 O   0  0  0  0  0  0  0  0  0  0  0  0
   12.6850   -1.9500   21.1280 C   0  0  0  0  0  0  0  0  0  0  0  0
   13.5340   -1.2190   20.6460 O   0  0  0  0  0  0  0  0  0  0  0  0
   11.8690   -1.5740   22.3510 C   0  0  2  0  0  0  0  0  0  0  0  0
   10.6480   -0.8690   22.3110 C   0  0  0  0  0  0  0  0  0  0  0  0
    9.4380   -1.3430   21.6640 N   0  0  0  0  0  0  0  0  0  0  0  0
    8.5310   -0.3460   21.3450 C   0  0  0  0  0  0  0  0  0  0  0  0
    8.8490    0.8340   21.4030 O   0  0  0  0  0  0  0  0  0  0  0  0
    7.2930   -0.7970   20.9510 N   0  0  0  0  0  0  0  0  0  0  0  0
    6.4940   -0.0760   20.0410 C   0  0  0  0  0  0  0  0  0  0  0  0
    5.3340    0.6430   20.3540 C   0  0  0  0  0  0  0  0  0  0  0  0
    4.6590    1.3230   19.3360 C   0  0  0  0  0  0  0  0  0  0  0  0
    5.1770    1.2450   18.0650 C   0  0  0  0  0  0  0  0  0  0  0  0
    6.2700    0.5660   17.7210 N   0  0  0  0  0  0  0  0  0  0  0  0
    6.9010   -0.0770   18.7180 C   0  0  0  0  0  0  0  0  0  0  0  0
   12.8540   -0.8090   23.1490 C   0  0  0  0  0  0  0  0  0  0  0  0
   11.9790    0.1360   23.8370 C   0  0  0  0  0  0  0  0  0  0  0  0
   11.9920    1.4910   23.6420 C   0  0  0  0  0  0  0  0  0  0  0  0
   11.9740   -0.4190   25.2230 C   0  0  0  0  0  0  0  0  0  0  0  0
  1  2  1  0
  2  3  1  0
  3  4  2  0
  3  5  1  0
  5  6  1  6
  6  7  1  0
  7  8  1  0
  8  9  2  0
  8 10  1  0
 10 11  1  0
 11 12  2  0
 12 13  1  0
 13 14  2  0
 14 15  1  0
 11 16  1  0
 15 16  2  0
  5 17  1  0
 17 18  1  0
 18 19  1  0
 18 20  1  0
M  END
