pyridine_urea_11456
     RDKit          3D

 17 19  0  0  0  0  0  0  0  0999 V2000
    8.9510    0.8300   21.3500 O   0  0  0  0  0  0  0  0  0  0  0  0
    8.4620   -0.2700   21.5720 C   0  0  0  0  0  0  0  0  0  0  0  0
    9.0200   -1.1760   22.4670 N   0  0  0  0  0  0  0  0  0  0  0  0
   10.2140   -1.9680   22.1510 C   0  0  0  0  0  0  0  0  0  0  0  0
   11.5050   -1.1560   22.0940 C   0  0  2  0  0  0  0  0  0  0  0  0
   11.2560    0.2270   22.4380 C   0  0  0  0  0  0  0  0  0  0  0  0
   11.6190    0.2080   23.6210 C   0  0  0  0  0  0  0  0  0  0  0  0
   12.7040   -0.7530   23.9620 C   0  0  0  0  0  0  0  0  0  0  0  0
   12.6950   -1.8420   22.9720 C   0  0  2  0  0  0  0  0  0  0  0  0
   12.8980   -1.6280   21.7960 C   0  0  0  0  0  0  0  0  0  0  0  0
    7.3000   -0.7480   21.0050 N   0  0  0  0  0  0  0  0  0  0  0  0
    6.5090   -0.0400   20.0800 C   0  0  0  0  0  0  0  0  0  0  0  0
    5.3460    0.6780   20.3720 C   0  0  0  0  0  0  0  0  0  0  0  0
    4.7120    1.3260   19.3170 C   0  0  0  0  0  0  0  0  0  0  0  0
    5.1960    1.2680   18.0390 C   0  0  0  0  0  0  0  0  0  0  0  0
    6.2980    0.5850   17.7250 N   0  0  0  0  0  0  0  0  0  0  0  0
    6.9220   -0.0480   18.7490 C   0  0  0  0  0  0  0  0  0  0  0  0
  1  2  2  0
  2  3  1  0
  3  4  1  0
  5  4  1  6
  5  6  1  0
  6  7  1  0
  7  8  1  0
  5  9  1  0
  9  8  1  1
  5 10  1  0
  9 10  1  0
  2 11  1  0
 11 12  1  0
 12 13  2  0
 13 14  1  0
 14 15  2  0
 15 16  1  0
 12 17  1  0
 16 17  2  0
M  END
