pyridine_urea_3630
     RDKit          3D

 17 18  0  0  0  0  0  0  0  0999 V2000
   12.9220    1.0240   23.0580 C   0  0  0  0  0  0  0  0  0  0  0  0
   12.4550   -0.2900   23.6630 C   0  0  1  0  0  0  0  0  0  0  0  0
   10.9350   -0.3070   23.6460 C   0  0  0  0  0  0  0  0  0  0  0  0
   10.5120   -0.9820   22.4040 C   0  0  2  0  0  0  0  0  0  0  0  0
    9.0410   -1.0190   22.3840 N   0  0  0  0  0  0  0  0  0  0  0  0
    8.3880   -0.1290   21.5560 C   0  0  0  0  0  0  0  0  0  0  0  0
    8.8200    0.9920   21.3350 O   0  0  0  0  0  0  0  0  0  0  0  0
    7.1950   -0.6660   21.0200 N   0  0  0  0  0  0  0  0  0  0  0  0
    6.4470    0.0000   20.0730 C   0  0  0  0  0  0  0  0  0  0  0  0
    5.1420    0.7530   20.3500 C   0  0  0  0  0  0  0  0  0  0  0  0
    4.5750    1.3640   19.2260 C   0  0  0  0  0  0  0  0  0  0  0  0
    5.1810    1.2690   17.9820 C   0  0  0  0  0  0  0  0  0  0  0  0
    6.3210    0.6020   17.7460 N   0  0  0  0  0  0  0  0  0  0  0  0
    6.9190   -0.0100   18.7760 C   0  0  0  0  0  0  0  0  0  0  0  0
   11.1320   -2.3410   22.2180 C   0  0  0  0  0  0  0  0  0  0  0  0
   12.0900   -1.3330   22.0740 C   0  0  0  0  0  0  0  0  0  0  0  0
   12.7890   -1.2690   23.0590 O   0  0  0  0  0  0  0  0  0  0  0  0
  2  1  1  6
  2  3  1  0
  3  4  1  0
  4  5  1  1
  5  6  1  0
  6  7  2  0
  6  8  1  0
  8  9  1  0
  9 10  2  0
 10 11  1  0
 11 12  2  0
 12 13  1  0
  9 14  1  0
 13 14  2  0
  4 15  1  0
 15 16  1  0
  2 17  1  0
 16 17  1  0
M  END
