pyridine_urea_4335
     RDKit          3D

 24 25  0  0  0  0  0  0  0  0999 V2000
   11.8580    0.4740   22.9700 C   0  0  0  0  0  0  0  0  0  0  0  0
   13.0480   -0.3480   23.4690 C   0  0  0  0  0  0  0  0  0  0  0  0
   12.8000   -0.9670   24.8390 C   0  0  0  0  0  0  0  0  0  0  0  0
   13.4640   -1.4630   22.5320 C   0  0  0  0  0  0  0  0  0  0  0  0
   12.5920   -2.5910   22.4970 N   0  0  0  0  0  0  0  0  0  0  0  0
   11.3200   -2.3550   22.2460 C   0  0  0  0  0  0  0  0  0  0  0  0
   10.6170   -2.7390   21.3590 O   0  0  0  0  0  0  0  0  0  0  0  0
   10.5540   -1.4890   23.1560 C   0  0  0  0  0  0  0  0  0  0  0  0
   10.8820   -1.3140   24.6450 C   0  0  0  0  0  0  0  0  0  0  0  0
    9.9190   -0.4660   25.2910 C   0  0  0  0  0  0  0  0  0  0  0  0
    9.7810   -0.0170   26.9620 Cl  0  0  0  0  0  0  0  0  0  0  0  0
    8.8890    0.1200   24.6320 C   0  0  0  0  0  0  0  0  0  0  0  0
    8.7070   -0.0690   23.3500 C   0  0  0  0  0  0  0  0  0  0  0  0
    9.5050   -0.8550   22.6320 C   0  0  0  0  0  0  0  0  0  0  0  0
    9.0880   -0.9310   21.3080 N   0  0  0  0  0  0  0  0  0  0  0  0
    8.1070    0.0320   20.9910 C   0  0  0  0  0  0  0  0  0  0  0  0
    8.3210    1.2390   20.8000 O   0  0  0  0  0  0  0  0  0  0  0  0
    6.8600   -0.4300   20.9230 N   0  0  0  0  0  0  0  0  0  0  0  0
    6.2180    0.2100   19.9710 C   0  0  0  0  0  0  0  0  0  0  0  0
    5.0390    0.9120   20.0970 C   0  0  0  0  0  0  0  0  0  0  0  0
    4.4420    1.6020   18.9460 C   0  0  0  0  0  0  0  0  0  0  0  0
    5.1480    1.4880   17.7640 C   0  0  0  0  0  0  0  0  0  0  0  0
    6.2970    0.7950   17.6300 N   0  0  0  0  0  0  0  0  0  0  0  0
    6.7970    0.1820   18.7180 C   0  0  0  0  0  0  0  0  0  0  0  0
  1  2  1  0
  2  3  1  0
  2  4  1  0
  4  5  1  0
  5  6  1  0
  6  7  2  0
  6  8  1  0
  8  9  2  0
  9 10  1  0
 10 11  1  0
 10 12  2  0
 12 13  1  0
  8 14  1  0
 13 14  2  0
 14 15  1  0
 15 16  1  0
 16 17  2  0
 16 18  1  0
 18 19  1  0
 19 20  2  0
 20 21  1  0
 21 22  2  0
 22 23  1  0
 19 24  1  0
 23 24  2  0
M  END
