pyridine_urea_3928
     RDKit          3D

 22 23  0  0  0  0  0  0  0  0999 V2000
   13.3160   -2.6560   24.7480 C   0  0  0  0  0  0  0  0  0  0  0  0
   13.9170   -2.2030   23.5320 O   0  0  0  0  0  0  0  0  0  0  0  0
   13.3930   -1.0000   23.1260 C   0  0  0  0  0  0  0  0  0  0  0  0
   13.9270   -0.1260   22.4820 O   0  0  0  0  0  0  0  0  0  0  0  0
   12.1410   -0.8500   23.5050 C   0  0  0  0  0  0  0  0  0  0  0  0
   11.6600   -0.4170   24.7320 C   0  0  0  0  0  0  0  0  0  0  0  0
   10.2780   -0.3300   24.9700 C   0  0  0  0  0  0  0  0  0  0  0  0
    9.5240    0.1430   26.4300 Cl  0  0  0  0  0  0  0  0  0  0  0  0
    9.4130   -0.6610   23.9610 C   0  0  0  0  0  0  0  0  0  0  0  0
    9.8440   -1.0890   22.7450 C   0  0  0  0  0  0  0  0  0  0  0  0
    8.8630   -1.3970   21.7860 N   0  0  0  0  0  0  0  0  0  0  0  0
    8.2060   -0.3000   21.3600 C   0  0  0  0  0  0  0  0  0  0  0  0
    8.7320    0.8040   21.3030 O   0  0  0  0  0  0  0  0  0  0  0  0
    6.8540   -0.5840   20.9840 N   0  0  0  0  0  0  0  0  0  0  0  0
    6.2790    0.0590   19.9610 C   0  0  0  0  0  0  0  0  0  0  0  0
    5.0850    0.7470   20.1700 C   0  0  0  0  0  0  0  0  0  0  0  0
    4.5170    1.4310   19.0980 C   0  0  0  0  0  0  0  0  0  0  0  0
    5.1630    1.3980   17.8720 C   0  0  0  0  0  0  0  0  0  0  0  0
    6.3050    0.7310   17.6600 N   0  0  0  0  0  0  0  0  0  0  0  0
    6.8340    0.0800   18.7000 C   0  0  0  0  0  0  0  0  0  0  0  0
   11.1540   -1.2190   22.4430 C   0  0  0  0  0  0  0  0  0  0  0  0
   11.5090   -1.6760   21.2020 O   0  0  0  0  0  0  0  0  0  0  0  0
  1  2  1  0
  2  3  1  0
  3  4  2  0
  3  5  1  0
  5  6  2  0
  6  7  1  0
  7  8  1  0
  7  9  2  0
  9 10  1  0
 10 11  1  0
 11 12  1  0
 12 13  2  0
 12 14  1  0
 14 15  1  0
 15 16  2  0
 16 17  1  0
 17 18  2  0
 18 19  1  0
 15 20  1  0
 19 20  2  0
  5 21  1  0
 10 21  2  0
 21 22  1  0
M  END
