pyridine_urea_14132
     RDKit          3D

 23 24  0  0  0  0  0  0  0  0999 V2000
    8.6040    0.0060   26.5220 C   0  0  0  0  0  0  0  0  0  0  0  0
   10.0230   -0.0810   26.5650 O   0  0  0  0  0  0  0  0  0  0  0  0
   10.6110   -0.2390   25.2730 C   0  0  0  0  0  0  0  0  0  0  0  0
   12.1200   -0.3680   25.1310 C   0  0  0  0  0  0  0  0  0  0  0  0
   12.7370   -0.5400   23.8560 C   0  0  0  0  0  0  0  0  0  0  0  0
   12.0460   -0.6070   22.7190 C   0  0  0  0  0  0  0  0  0  0  0  0
   13.1250   -0.8220   21.8340 N   0  0  0  0  0  0  0  0  0  0  0  0
   13.0480   -2.4510   21.8940 S   0  0  0  0  0  0  0  0  0  0  0  0
   11.2790   -2.4890   22.1460 C   0  0  0  0  0  0  0  0  0  0  0  0
   13.4060   -2.9010   20.5930 O   0  0  0  0  0  0  0  0  0  0  0  0
   13.6840   -2.9050   23.1140 O   0  0  0  0  0  0  0  0  0  0  0  0
   10.6230   -0.4990   22.7260 C   0  0  0  0  0  0  0  0  0  0  0  0
    9.8200   -0.5970   21.5170 N   0  0  0  0  0  0  0  0  0  0  0  0
    8.6360    0.2520   21.2890 C   0  0  0  0  0  0  0  0  0  0  0  0
    8.7300    1.6670   21.1670 O   0  0  0  0  0  0  0  0  0  0  0  0
    7.4790   -0.4360   21.1420 N   0  0  0  0  0  0  0  0  0  0  0  0
    6.7320    0.0690   20.1210 C   0  0  0  0  0  0  0  0  0  0  0  0
    5.5870    0.8370   20.3870 C   0  0  0  0  0  0  0  0  0  0  0  0
    4.7810    1.4100   19.3970 C   0  0  0  0  0  0  0  0  0  0  0  0
    5.1320    1.2090   18.0890 C   0  0  0  0  0  0  0  0  0  0  0  0
    6.2250    0.4650   17.7720 N   0  0  0  0  0  0  0  0  0  0  0  0
    7.0220   -0.1060   18.7740 C   0  0  0  0  0  0  0  0  0  0  0  0
    9.8030   -0.2960   24.0110 C   0  0  0  0  0  0  0  0  0  0  0  0
  1  2  1  0
  2  3  1  0
  3  4  2  0
  4  5  1  0
  5  6  2  0
  6  7  1  0
  8  7  1  0
  8  9  1  0
  8 10  2  0
  8 11  2  0
  6 12  1  0
 12 13  1  0
 13 14  1  0
 14 15  2  0
 14 16  1  0
 16 17  1  0
 17 18  2  0
 18 19  1  0
 19 20  2  0
 20 21  1  0
 17 22  1  0
 21 22  2  0
  3 23  1  0
 12 23  2  0
M  END
