pyridine_urea_13321
     RDKit          3D

 23 25  0  0  0  0  0  0  0  0999 V2000
    8.0110   -0.3640   26.3320 C   0  0  0  0  0  0  0  0  0  0  0  0
    8.7800    0.0550   27.4720 O   0  0  0  0  0  0  0  0  0  0  0  0
   10.1630    0.0340   27.3660 C   0  0  0  0  0  0  0  0  0  0  0  0
   10.8150    0.2980   28.3650 O   0  0  0  0  0  0  0  0  0  0  0  0
   10.8240   -0.2700   26.1500 C   0  0  0  0  0  0  0  0  0  0  0  0
   10.3120   -0.6510   25.0290 C   0  0  0  0  0  0  0  0  0  0  0  0
   11.4660   -0.6880   24.5230 C   0  0  0  0  0  0  0  0  0  0  0  0
   10.4260   -1.1790   23.3160 S   0  0  0  0  0  0  0  0  0  0  0  0
   11.3470   -1.4800   22.0040 C   0  0  0  0  0  0  0  0  0  0  0  0
   10.0280   -1.7470   21.6700 C   0  0  0  0  0  0  0  0  0  0  0  0
    9.6340   -0.6890   20.8260 N   0  0  0  0  0  0  0  0  0  0  0  0
    8.6220    0.1980   21.0610 C   0  0  0  0  0  0  0  0  0  0  0  0
    8.8940    1.5830   21.2810 O   0  0  0  0  0  0  0  0  0  0  0  0
    7.3750   -0.3550   20.9360 N   0  0  0  0  0  0  0  0  0  0  0  0
    6.4940    0.1560   19.9790 C   0  0  0  0  0  0  0  0  0  0  0  0
    5.2370    0.6860   20.2350 C   0  0  0  0  0  0  0  0  0  0  0  0
    4.4920    1.1640   19.1610 C   0  0  0  0  0  0  0  0  0  0  0  0
    5.0260    1.0950   17.8740 C   0  0  0  0  0  0  0  0  0  0  0  0
    6.2360    0.5810   17.6140 N   0  0  0  0  0  0  0  0  0  0  0  0
    6.9370    0.1300   18.6690 C   0  0  0  0  0  0  0  0  0  0  0  0
   12.5160   -1.1420   22.6430 C   0  0  0  0  0  0  0  0  0  0  0  0
   12.7060   -0.7280   23.9810 C   0  0  0  0  0  0  0  0  0  0  0  0
   12.6060   -0.2270   25.7280 S   0  0  0  0  0  0  0  0  0  0  0  0
  1  2  1  0
  2  3  1  0
  3  4  2  0
  3  5  1  0
  5  6  2  0
  6  7  1  0
  7  8  1  0
  8  9  1  0
  9 10  1  0
 10 11  1  0
 11 12  1  0
 12 13  2  0
 12 14  1  0
 14 15  1  0
 15 16  2  0
 16 17  1  0
 17 18  2  0
 18 19  1  0
 15 20  1  0
 19 20  2  0
  9 21  2  0
  7 22  2  0
 21 22  1  0
  5 23  1  0
 22 23  1  0
M  END
