pyridine_urea_5926
     RDKit          3D

 27 29  0  0  0  0  0  0  0  0999 V2000
    8.6270    1.1050   20.9210 O   0  0  0  0  0  0  0  0  0  0  0  0
    8.2350   -0.0190   21.2750 C   0  0  0  0  0  0  0  0  0  0  0  0
    8.9700   -0.8110   22.1870 N   0  0  0  0  0  0  0  0  0  0  0  0
    9.5750   -0.0050   23.1040 C   0  0  0  0  0  0  0  0  0  0  0  0
    8.9610    1.2520   23.2740 C   0  0  0  0  0  0  0  0  0  0  0  0
    9.8310    2.3020   22.9630 C   0  0  0  0  0  0  0  0  0  0  0  0
   10.9300    2.1030   23.7950 N   0  0  0  0  0  0  0  0  0  0  0  0
   10.7390    0.8900   24.3460 C   0  0  0  0  0  0  0  0  0  0  0  0
    9.8450    0.7940   25.4050 N   0  0  0  0  0  0  0  0  0  0  0  0
    9.5450   -0.3810   26.0970 C   0  0  0  0  0  0  0  0  0  0  0  0
   10.2030   -1.4870   25.6470 N   0  0  0  0  0  0  0  0  0  0  0  0
   11.1130   -1.4670   24.5620 C   0  0  0  0  0  0  0  0  0  0  0  0
   11.7360   -2.7730   24.2040 C   0  0  0  0  0  0  0  0  0  0  0  0
   12.5720   -2.7390   23.1240 C   0  0  0  0  0  0  0  0  0  0  0  0
   12.8250   -1.6070   22.4150 C   0  0  0  0  0  0  0  0  0  0  0  0
   13.5960   -1.7270   21.3490 N   0  0  0  0  0  0  0  0  0  0  0  0
   13.8080   -0.7400   20.6910 O   0  0  0  0  0  0  0  0  0  0  0  0
   13.5170   -2.8480   20.8230 O   0  0  0  0  0  0  0  0  0  0  0  0
   12.2870   -0.3820   22.7710 C   0  0  0  0  0  0  0  0  0  0  0  0
   11.4290   -0.3370   23.8460 C   0  0  0  0  0  0  0  0  0  0  0  0
    7.0710   -0.6180   20.8750 N   0  0  0  0  0  0  0  0  0  0  0  0
    6.2660    0.1020   19.8980 C   0  0  0  0  0  0  0  0  0  0  0  0
    5.0500    0.7290   20.1200 C   0  0  0  0  0  0  0  0  0  0  0  0
    4.4560    1.3950   19.0560 C   0  0  0  0  0  0  0  0  0  0  0  0
    5.1060    1.3980   17.8290 C   0  0  0  0  0  0  0  0  0  0  0  0
    6.2730    0.7870   17.6070 N   0  0  0  0  0  0  0  0  0  0  0  0
    6.8130    0.1580   18.6460 C   0  0  0  0  0  0  0  0  0  0  0  0
  1  2  2  0
  2  3  1  0
  3  4  1  0
  4  5  1  0
  5  6  1  0
  6  7  1  0
  7  8  1  0
  8  9  2  0
  9 10  1  0
 10 11  2  0
 11 12  1  0
 12 13  1  0
 13 14  2  0
 14 15  1  0
 15 16  1  0
 16 17  2  0
 16 18  1  0
 15 19  2  0
  8 20  1  0
 12 20  2  0
 19 20  1  0
  2 21  1  0
 21 22  1  0
 22 23  2  0
 23 24  1  0
 24 25  2  0
 25 26  1  0
 22 27  1  0
 26 27  2  0
M  CHG  2  16   1  18  -1
M  END
