pyridine_urea_13356
     RDKit          3D

 22 22  0  0  0  0  0  0  0  0999 V2000
   12.9110   -1.8450   21.1250 C   0  0  0  0  0  0  0  0  0  0  0  0
   13.2820   -1.2800   22.3710 O   0  0  0  0  0  0  0  0  0  0  0  0
   12.6990   -0.0910   22.7500 C   0  0  0  0  0  0  0  0  0  0  0  0
   13.3910    0.9000   22.8700 O   0  0  0  0  0  0  0  0  0  0  0  0
   11.3210    0.0140   22.9820 C   0  0  2  0  0  0  0  0  0  0  0  0
   11.0150    0.9430   24.0540 N   0  0  0  0  0  0  0  0  0  0  0  0
    9.7740    1.5430   24.0130 C   0  0  0  0  0  0  0  0  0  0  0  0
    9.5280    2.7460   24.0040 O   0  0  0  0  0  0  0  0  0  0  0  0
    8.6430    0.7380   23.9540 C   0  0  0  0  0  0  0  0  0  0  0  0
    8.5340   -0.1530   22.9340 N   0  0  0  0  0  0  0  0  0  0  0  0
    8.2660    0.2950   21.6810 C   0  0  0  0  0  0  0  0  0  0  0  0
    8.8190    1.2810   21.1680 O   0  0  0  0  0  0  0  0  0  0  0  0
    7.2380   -0.5420   21.0750 N   0  0  0  0  0  0  0  0  0  0  0  0
    6.5310    0.0710   19.9890 C   0  0  0  0  0  0  0  0  0  0  0  0
    5.3040    0.9140   20.3530 C   0  0  0  0  0  0  0  0  0  0  0  0
    4.6680    1.5040   19.2780 C   0  0  0  0  0  0  0  0  0  0  0  0
    5.1140    1.3370   17.9940 C   0  0  0  0  0  0  0  0  0  0  0  0
    6.1770    0.5960   17.6490 N   0  0  0  0  0  0  0  0  0  0  0  0
    6.8520   -0.0140   18.6510 C   0  0  0  0  0  0  0  0  0  0  0  0
   10.5490   -1.2600   23.3000 C   0  0  0  0  0  0  0  0  0  0  0  0
   11.8630   -1.3820   23.7780 C   0  0  0  0  0  0  0  0  0  0  0  0
   10.3310   -1.8990   22.1010 C   0  0  0  0  0  0  0  0  0  0  0  0
  1  2  1  0
  2  3  1  0
  3  4  2  0
  3  5  1  0
  5  6  1  1
  6  7  1  0
  7  8  2  0
  7  9  1  0
  9 10  1  0
 10 11  1  0
 11 12  2  0
 11 13  1  0
 13 14  1  0
 14 15  2  0
 15 16  1  0
 16 17  2  0
 17 18  1  0
 14 19  1  0
 18 19  2  0
  5 20  1  0
 20 21  1  0
 20 22  1  0
M  END
