pyridine_urea_4382
     RDKit          3D

 23 25  0  0  0  0  0  0  0  0999 V2000
    7.8790   -2.4000   27.5820 C   0  0  0  0  0  0  0  0  0  0  0  0
    8.5820   -1.6080   26.4710 C   0  0  0  0  0  0  0  0  0  0  0  0
    9.1860   -0.2870   26.7680 C   0  0  0  0  0  0  0  0  0  0  0  0
    9.7360    0.1330   25.4820 C   0  0  0  0  0  0  0  0  0  0  0  0
    9.4240   -0.9790   24.4990 C   0  0  0  0  0  0  0  0  0  0  0  0
    9.7750   -0.9990   23.0480 C   0  0  1  0  0  0  0  0  0  0  0  0
    8.5680   -0.3160   22.6430 N   0  0  0  0  0  0  0  0  0  0  0  0
    8.3050    0.2330   21.4430 C   0  0  0  0  0  0  0  0  0  0  0  0
    8.8640    1.2500   21.0270 O   0  0  0  0  0  0  0  0  0  0  0  0
    7.2580   -0.5530   20.8240 N   0  0  0  0  0  0  0  0  0  0  0  0
    6.4600    0.1230   19.9230 C   0  0  0  0  0  0  0  0  0  0  0  0
    5.2870    0.8100   20.1920 C   0  0  0  0  0  0  0  0  0  0  0  0
    4.5950    1.4620   19.1990 C   0  0  0  0  0  0  0  0  0  0  0  0
    5.1210    1.4010   17.9190 C   0  0  0  0  0  0  0  0  0  0  0  0
    6.2490    0.7350   17.6190 N   0  0  0  0  0  0  0  0  0  0  0  0
    6.8820    0.1180   18.6270 C   0  0  0  0  0  0  0  0  0  0  0  0
   11.0300   -0.1560   22.9590 C   0  0  2  0  0  0  0  0  0  0  0  0
   11.0910    1.2040   22.6810 C   0  0  0  0  0  0  0  0  0  0  0  0
   12.2310   -0.9840   22.4850 C   0  0  0  0  0  0  0  0  0  0  0  0
   13.1350   -0.2570   23.1990 C   0  0  0  0  0  0  0  0  0  0  0  0
   12.4560    0.3730   24.2060 C   0  0  0  0  0  0  0  0  0  0  0  0
   11.3770   -0.1430   24.2480 O   0  0  0  0  0  0  0  0  0  0  0  0
    8.7850   -1.9110   25.1150 O   0  0  0  0  0  0  0  0  0  0  0  0
  1  2  1  0
  2  3  2  0
  3  4  1  0
  4  5  2  0
  5  6  1  0
  6  7  1  6
  7  8  1  0
  8  9  2  0
  8 10  1  0
 10 11  1  0
 11 12  2  0
 12 13  1  0
 13 14  2  0
 14 15  1  0
 11 16  1  0
 15 16  2  0
  6 17  1  0
 17 18  1  6
 17 19  1  0
 19 20  1  0
 20 21  1  0
 17 22  1  0
 21 22  1  0
  2 23  1  0
  5 23  1  0
M  END
