pyridine_urea_8440
     RDKit          3D

 22 23  0  0  0  0  0  0  0  0999 V2000
    9.4900   -0.2730   26.0750 C   0  0  0  0  0  0  0  0  0  0  0  0
    9.3050    0.8420   25.0840 C   0  0  0  0  0  0  0  0  0  0  0  0
    8.0160    1.1450   24.6450 C   0  0  0  0  0  0  0  0  0  0  0  0
   10.1830    0.5780   23.8300 C   0  0  2  0  0  0  0  0  0  0  0  0
    9.8440   -0.6720   23.3810 C   0  0  0  0  0  0  0  0  0  0  0  0
    8.7870   -0.8360   22.4880 N   0  0  0  0  0  0  0  0  0  0  0  0
    8.3590    0.0190   21.5000 C   0  0  0  0  0  0  0  0  0  0  0  0
    8.9130    1.0960   21.2220 O   0  0  0  0  0  0  0  0  0  0  0  0
    7.2300   -0.5280   20.9310 N   0  0  0  0  0  0  0  0  0  0  0  0
    6.4580    0.1280   19.9840 C   0  0  0  0  0  0  0  0  0  0  0  0
    5.1650    0.8960   20.2400 C   0  0  0  0  0  0  0  0  0  0  0  0
    4.5530    1.5040   19.1480 C   0  0  0  0  0  0  0  0  0  0  0  0
    5.1450    1.3770   17.9050 C   0  0  0  0  0  0  0  0  0  0  0  0
    6.2780    0.6960   17.6640 N   0  0  0  0  0  0  0  0  0  0  0  0
    6.8960    0.0970   18.6890 C   0  0  0  0  0  0  0  0  0  0  0  0
   11.5590    0.7440   24.0330 C   0  0  0  0  0  0  0  0  0  0  0  0
   12.2390    0.0110   23.0970 C   0  0  0  0  0  0  0  0  0  0  0  0
   13.3780   -0.0620   22.4150 C   0  0  0  0  0  0  0  0  0  0  0  0
   13.4030   -1.2550   21.4590 C   0  0  0  0  0  0  0  0  0  0  0  0
   12.4380   -2.3720   21.1190 C   0  0  0  0  0  0  0  0  0  0  0  0
   11.3340   -1.9620   22.0520 C   0  0  0  0  0  0  0  0  0  0  0  0
   12.0680   -1.0090   22.3940 C   0  0  0  0  0  0  0  0  0  0  0  0
  1  2  1  0
  2  3  1  0
  2  4  1  0
  4  5  1  1
  5  6  1  0
  6  7  1  0
  7  8  2  0
  7  9  1  0
  9 10  1  0
 10 11  2  0
 11 12  1  0
 12 13  2  0
 13 14  1  0
 10 15  1  0
 14 15  2  0
  4 16  1  0
 16 17  1  0
 17 18  2  0
 18 19  1  0
 19 20  2  0
 20 21  1  0
 17 22  1  0
 21 22  2  0
M  END
