pyridine_urea_2963
     RDKit          3D

 21 23  0  0  0  0  0  0  0  0999 V2000
   13.2130   -2.6240   22.0300 C   0  0  0  0  0  0  0  0  0  0  0  0
   13.1040   -1.4940   22.9760 C   0  0  0  0  0  0  0  0  0  0  0  0
   13.5350   -0.1750   22.3250 C   0  0  0  0  0  0  0  0  0  0  0  0
   13.2770   -1.7930   24.4650 C   0  0  0  0  0  0  0  0  0  0  0  0
   12.5840   -0.5810   25.0410 C   0  0  0  0  0  0  0  0  0  0  0  0
   11.4820   -0.5200   24.2720 C   0  0  0  0  0  0  0  0  0  0  0  0
   10.0860   -0.0360   24.3690 C   0  0  0  0  0  0  0  0  0  0  0  0
    9.3380   -0.2900   23.0890 C   0  0  0  0  0  0  0  0  0  0  0  0
    8.0100    0.1250   23.0040 N   0  0  0  0  0  0  0  0  0  0  0  0
    7.8910    0.4790   21.6970 C   0  0  0  0  0  0  0  0  0  0  0  0
    8.5790    1.3860   21.1940 O   0  0  0  0  0  0  0  0  0  0  0  0
    6.9530   -0.3140   21.0450 N   0  0  0  0  0  0  0  0  0  0  0  0
    6.3720    0.2240   19.9630 C   0  0  0  0  0  0  0  0  0  0  0  0
    5.0780    1.0000   20.1720 C   0  0  0  0  0  0  0  0  0  0  0  0
    4.4640    1.6360   18.9430 C   0  0  0  0  0  0  0  0  0  0  0  0
    5.1120    1.4710   17.7350 C   0  0  0  0  0  0  0  0  0  0  0  0
    6.2630    0.7480   17.6290 N   0  0  0  0  0  0  0  0  0  0  0  0
    6.8820    0.1360   18.6960 C   0  0  0  0  0  0  0  0  0  0  0  0
    9.9120   -0.8970   22.0030 C   0  0  0  0  0  0  0  0  0  0  0  0
   11.1640   -1.2970   21.9930 C   0  0  0  0  0  0  0  0  0  0  0  0
   11.8910   -1.0920   23.1110 C   0  0  0  0  0  0  0  0  0  0  0  0
  2  1  1  0
  2  3  1  0
  2  4  1  0
  4  5  1  0
  5  6  1  0
  6  7  2  0
  7  8  1  0
  8  9  1  0
  9 10  1  0
 10 11  2  0
 10 12  1  0
 12 13  1  0
 13 14  2  0
 14 15  1  0
 15 16  2  0
 16 17  1  0
 13 18  1  0
 17 18  2  0
  8 19  2  0
 19 20  1  0
  2 21  1  0
  6 21  1  0
 20 21  2  0
M  END
