pyridine_urea_5367
     RDKit          3D

 18 18  0  0  0  0  0  0  0  0999 V2000
    7.3470    0.7750   26.1370 C   0  0  0  0  0  0  0  0  0  0  0  0
    7.7400   -0.9360   26.4350 S   0  0  0  0  0  0  0  0  0  0  0  0
    8.3350   -1.1280   28.1000 C   0  0  0  0  0  0  0  0  0  0  0  0
    6.6480   -1.8460   26.1530 O   0  0  0  0  0  0  0  0  0  0  0  0
    9.0640   -1.3200   25.4450 N   0  0  0  0  0  0  0  0  0  0  0  0
    9.0760   -0.8760   24.0270 C   0  0  0  0  0  0  0  0  0  0  0  0
    8.3350    0.2810   23.6290 O   0  0  0  0  0  0  0  0  0  0  0  0
    9.8060   -1.5520   23.0280 C   0  0  0  0  0  0  0  0  0  0  0  0
    9.1540   -1.3960   21.7670 N   0  0  0  0  0  0  0  0  0  0  0  0
    8.4580   -0.2830   21.4300 C   0  0  0  0  0  0  0  0  0  0  0  0
    8.9660    0.8280   21.4100 O   0  0  0  0  0  0  0  0  0  0  0  0
    7.1660   -0.5860   21.0940 N   0  0  0  0  0  0  0  0  0  0  0  0
    6.5180    0.0520   20.0470 C   0  0  0  0  0  0  0  0  0  0  0  0
    5.2550    0.8480   20.3070 C   0  0  0  0  0  0  0  0  0  0  0  0
    4.5020    1.5930   19.2220 C   0  0  0  0  0  0  0  0  0  0  0  0
    5.1080    1.4960   17.8250 C   0  0  0  0  0  0  0  0  0  0  0  0
    6.3320    0.6820   17.7030 N   0  0  0  0  0  0  0  0  0  0  0  0
    6.9530    0.0240   18.7550 C   0  0  0  0  0  0  0  0  0  0  0  0
  2  1  1  0
  2  3  1  0
  2  4  2  0
  2  5  2  0
  5  6  1  0
  6  7  2  0
  6  8  1  0
  8  9  1  0
  9 10  1  0
 10 11  2  0
 10 12  1  0
 12 13  1  0
 13 14  2  0
 14 15  1  0
 15 16  2  0
 16 17  1  0
 13 18  1  0
 17 18  2  0
M  END
