pyridine_urea_10749
     RDKit          3D

 20 21  0  0  0  0  0  0  0  0999 V2000
   12.6380   -2.7220   21.0970 C   0  0  0  0  0  0  0  0  0  0  0  0
   11.3900   -2.5700   21.7830 O   0  0  0  0  0  0  0  0  0  0  0  0
   11.1770   -1.3050   22.2090 C   0  0  1  0  0  0  0  0  0  0  0  0
   10.2070   -1.0900   23.1800 C   0  0  0  0  0  0  0  0  0  0  0  0
    8.8960   -1.2760   22.5200 N   0  0  0  0  0  0  0  0  0  0  0  0
    8.3190   -0.4050   21.6630 C   0  0  0  0  0  0  0  0  0  0  0  0
    8.8820    0.8820   21.3260 O   0  0  0  0  0  0  0  0  0  0  0  0
    7.0470   -0.8070   21.0870 N   0  0  0  0  0  0  0  0  0  0  0  0
    6.4640   -0.1070   20.0620 C   0  0  0  0  0  0  0  0  0  0  0  0
    5.2000    0.6740   20.3700 C   0  0  0  0  0  0  0  0  0  0  0  0
    4.5340    1.4650   19.2460 C   0  0  0  0  0  0  0  0  0  0  0  0
    5.2140    1.3980   17.8950 C   0  0  0  0  0  0  0  0  0  0  0  0
    6.3470    0.6580   17.7410 N   0  0  0  0  0  0  0  0  0  0  0  0
    6.9480   -0.0660   18.7690 C   0  0  0  0  0  0  0  0  0  0  0  0
   12.5830   -0.8120   22.6090 C   0  0  0  0  0  0  0  0  0  0  0  0
   12.6250    0.4960   23.0400 C   0  0  0  0  0  0  0  0  0  0  0  0
   11.9480    0.5430   24.2110 C   0  0  0  0  0  0  0  0  0  0  0  0
   12.6490   -0.0160   25.0420 O   0  0  0  0  0  0  0  0  0  0  0  0
   12.6830   -1.4280   24.8810 C   0  0  0  0  0  0  0  0  0  0  0  0
   13.0100   -1.7320   23.5660 C   0  0  0  0  0  0  0  0  0  0  0  0
  1  2  1  0
  2  3  1  0
  3  4  1  1
  4  5  1  0
  5  6  1  0
  6  7  2  0
  6  8  1  0
  8  9  1  0
  9 10  2  0
 10 11  1  0
 11 12  2  0
 12 13  1  0
  9 14  1  0
 13 14  2  0
  3 15  1  0
 15 16  1  0
 16 17  1  0
 17 18  1  0
 18 19  1  0
 15 20  1  0
 19 20  1  0
M  END
