pyridine_urea_14619
     RDKit          3D

 21 22  0  0  0  0  0  0  0  0999 V2000
   13.0080   -2.4710   23.8060 N   0  0  0  0  0  0  0  0  0  0  0  0
   13.3060   -2.6400   22.4820 C   0  0  0  0  0  0  0  0  0  0  0  0
   13.6970   -3.6440   22.0200 O   0  0  0  0  0  0  0  0  0  0  0  0
   13.1890   -1.5270   21.5390 C   0  0  0  0  0  0  0  0  0  0  0  0
   13.5080   -0.4770   22.0100 O   0  0  0  0  0  0  0  0  0  0  0  0
   12.4570    0.0340   22.6340 C   0  0  0  0  0  0  0  0  0  0  0  0
   12.4100    1.1680   23.4130 C   0  0  0  0  0  0  0  0  0  0  0  0
   11.2100    1.5240   23.9620 C   0  0  0  0  0  0  0  0  0  0  0  0
   10.0540    0.8190   23.7710 C   0  0  0  0  0  0  0  0  0  0  0  0
   10.1180   -0.4270   22.8950 C   0  0  0  0  0  0  0  0  0  0  0  0
    8.8900   -1.1850   22.6270 N   0  0  0  0  0  0  0  0  0  0  0  0
    8.2610   -0.3400   21.6250 C   0  0  0  0  0  0  0  0  0  0  0  0
    8.7330    0.7500   21.3330 O   0  0  0  0  0  0  0  0  0  0  0  0
    7.1290   -0.7850   21.0190 N   0  0  0  0  0  0  0  0  0  0  0  0
    6.3940   -0.0740   20.0630 C   0  0  0  0  0  0  0  0  0  0  0  0
    5.1880    0.6080   20.3000 C   0  0  0  0  0  0  0  0  0  0  0  0
    4.5470    1.3100   19.2630 C   0  0  0  0  0  0  0  0  0  0  0  0
    5.1610    1.3240   17.9160 C   0  0  0  0  0  0  0  0  0  0  0  0
    6.3530    0.6230   17.7460 N   0  0  0  0  0  0  0  0  0  0  0  0
    6.9250   -0.0400   18.7830 C   0  0  0  0  0  0  0  0  0  0  0  0
   11.3400   -0.7800   22.3610 C   0  0  0  0  0  0  0  0  0  0  0  0
  1  2  1  0
  2  3  2  0
  2  4  1  0
  4  5  1  0
  5  6  1  0
  6  7  2  0
  7  8  1  0
  8  9  2  0
  9 10  1  0
 10 11  1  0
 11 12  1  0
 12 13  2  0
 12 14  1  0
 14 15  1  0
 15 16  2  0
 16 17  1  0
 17 18  2  0
 18 19  1  0
 15 20  1  0
 19 20  2  0
  6 21  1  0
 10 21  2  0
M  END
