pyridine_urea_3012
     RDKit          3D

 21 23  0  0  0  0  0  0  0  0999 V2000
   10.5970    0.9200   24.1260 C   0  0  0  0  0  0  0  0  0  0  0  0
   11.7270    0.4920   23.4240 N   0  0  0  0  0  0  0  0  0  0  0  0
   12.7780    1.4800   23.4260 N   0  0  0  0  0  0  0  0  0  0  0  0
   13.6930    0.8970   22.7470 C   0  0  0  0  0  0  0  0  0  0  0  0
   12.9160   -0.2800   22.5270 C   0  0  0  0  0  0  0  0  0  0  0  0
   12.2560    0.6600   23.3070 C   0  0  0  0  0  0  0  0  0  0  0  0
   10.8540    0.6670   23.9570 C   0  0  0  0  0  0  0  0  0  0  0  0
    9.7930   -0.2730   23.9490 C   0  0  0  0  0  0  0  0  0  0  0  0
    8.9580   -1.4910   23.6900 C   0  0  0  0  0  0  0  0  0  0  0  0
    8.6350   -1.6100   22.3500 N   0  0  0  0  0  0  0  0  0  0  0  0
    8.1690   -0.5670   21.5220 C   0  0  0  0  0  0  0  0  0  0  0  0
    8.7170    0.5070   21.3200 O   0  0  0  0  0  0  0  0  0  0  0  0
    6.9850   -0.9580   20.9870 N   0  0  0  0  0  0  0  0  0  0  0  0
    6.3440   -0.1440   20.0430 C   0  0  0  0  0  0  0  0  0  0  0  0
    5.0770    0.6640   20.3010 C   0  0  0  0  0  0  0  0  0  0  0  0
    4.4680    1.5060   19.1950 C   0  0  0  0  0  0  0  0  0  0  0  0
    5.2730    1.4050   17.9160 C   0  0  0  0  0  0  0  0  0  0  0  0
    6.3910    0.6770   17.7280 N   0  0  0  0  0  0  0  0  0  0  0  0
    6.8700   -0.0500   18.7660 C   0  0  0  0  0  0  0  0  0  0  0  0
   10.5670   -1.1360   23.1670 C   0  0  0  0  0  0  0  0  0  0  0  0
   11.8030   -0.9030   22.7240 C   0  0  0  0  0  0  0  0  0  0  0  0
  1  2  1  0
  2  3  1  0
  3  4  2  0
  4  5  1  0
  5  6  1  0
  6  7  2  0
  7  8  1  0
  8  9  1  0
  9 10  1  0
 10 11  1  0
 11 12  2  0
 11 13  1  0
 13 14  1  0
 14 15  2  0
 15 16  1  0
 16 17  2  0
 17 18  1  0
 14 19  1  0
 18 19  2  0
  8 20  2  0
  2 21  1  0
  5 21  2  0
 20 21  1  0
M  END
