pyridine_urea_12747
     RDKit          3D

 20 21  0  0  0  0  0  0  0  0999 V2000
   13.7610   -2.5710   25.0040 C   0  0  0  0  0  0  0  0  0  0  0  0
   13.7900   -1.4100   24.1940 O   0  0  0  0  0  0  0  0  0  0  0  0
   12.5610   -1.0560   23.8460 C   0  0  0  0  0  0  0  0  0  0  0  0
   11.6970   -0.4040   24.8630 C   0  0  0  0  0  0  0  0  0  0  0  0
   10.4170   -0.0520   24.5600 C   0  0  0  0  0  0  0  0  0  0  0  0
    9.9310   -0.3140   23.3010 C   0  0  0  0  0  0  0  0  0  0  0  0
    8.5730    0.0440   22.9870 N   0  0  0  0  0  0  0  0  0  0  0  0
    8.3330    0.4480   21.6930 C   0  0  0  0  0  0  0  0  0  0  0  0
    8.9560    1.3780   21.1760 O   0  0  0  0  0  0  0  0  0  0  0  0
    7.3350   -0.2990   21.1080 N   0  0  0  0  0  0  0  0  0  0  0  0
    6.5640    0.2400   20.0830 C   0  0  0  0  0  0  0  0  0  0  0  0
    5.4060    1.0040   20.2440 C   0  0  0  0  0  0  0  0  0  0  0  0
    4.6970    1.5380   19.1960 C   0  0  0  0  0  0  0  0  0  0  0  0
    5.1180    1.3360   17.9000 C   0  0  0  0  0  0  0  0  0  0  0  0
    6.2410    0.5790   17.6950 N   0  0  0  0  0  0  0  0  0  0  0  0
    6.9580    0.0350   18.7680 C   0  0  0  0  0  0  0  0  0  0  0  0
   10.7550   -0.9170   22.3840 C   0  0  0  0  0  0  0  0  0  0  0  0
   10.1280   -1.0990   21.2530 F   0  0  0  0  0  0  0  0  0  0  0  0
   12.0520   -1.2950   22.6060 C   0  0  0  0  0  0  0  0  0  0  0  0
   13.0290   -2.1280   21.2500 Br  0  0  0  0  0  0  0  0  0  0  0  0
  1  2  1  0
  2  3  1  0
  3  4  2  0
  4  5  1  0
  5  6  2  0
  6  7  1  0
  7  8  1  0
  8  9  2  0
  8 10  1  0
 10 11  1  0
 11 12  2  0
 12 13  1  0
 13 14  2  0
 14 15  1  0
 11 16  1  0
 15 16  2  0
  6 17  1  0
 17 18  1  0
  3 19  1  0
 17 19  2  0
 19 20  1  0
M  END
