pyridine_urea_1178
     RDKit          3D

 21 22  0  0  0  0  0  0  0  0999 V2000
   13.3800   -2.8000   24.5940 C   0  0  0  0  0  0  0  0  0  0  0  0
   13.5210   -1.3950   24.5530 O   0  0  0  0  0  0  0  0  0  0  0  0
   12.4250   -0.6630   24.2500 C   0  0  0  0  0  0  0  0  0  0  0  0
   12.1680    0.1130   22.9770 C   0  0  0  0  0  0  0  0  0  0  0  0
   11.0170    0.9320   22.5960 C   0  0  0  0  0  0  0  0  0  0  0  0
   10.0950    0.8340   23.7800 C   0  0  0  0  0  0  0  0  0  0  0  0
    8.6180    1.7180   23.6620 Cl  0  0  0  0  0  0  0  0  0  0  0  0
   10.2360    0.1300   25.0020 C   0  0  0  0  0  0  0  0  0  0  0  0
   11.3780   -0.4760   24.9960 C   0  0  0  0  0  0  0  0  0  0  0  0
   11.1390    0.1840   23.8040 C   0  0  0  0  0  0  0  0  0  0  0  0
   10.5820   -0.7010   22.8290 C   0  0  0  0  0  0  0  0  0  0  0  0
    9.1180   -0.6820   22.6270 N   0  0  0  0  0  0  0  0  0  0  0  0
    8.5440    0.0630   21.5940 C   0  0  0  0  0  0  0  0  0  0  0  0
    9.0270    1.2950   21.1910 O   0  0  0  0  0  0  0  0  0  0  0  0
    7.4310   -0.5550   21.0580 N   0  0  0  0  0  0  0  0  0  0  0  0
    6.6710    0.0290   20.0310 C   0  0  0  0  0  0  0  0  0  0  0  0
    5.4250    0.7970   20.3460 C   0  0  0  0  0  0  0  0  0  0  0  0
    4.6520    1.4060   19.3790 C   0  0  0  0  0  0  0  0  0  0  0  0
    5.1440    1.2400   18.0540 C   0  0  0  0  0  0  0  0  0  0  0  0
    6.2550    0.5510   17.7280 N   0  0  0  0  0  0  0  0  0  0  0  0
    6.9910   -0.0380   18.7030 C   0  0  0  0  0  0  0  0  0  0  0  0
  1  2  1  0
  2  3  1  0
  3  4  2  0
  4  5  1  0
  5  6  2  0
  6  7  1  0
  6  8  1  0
  3  9  1  0
  8  9  2  0
  9 10  1  0
 10 11  1  0
 11 12  1  0
 12 13  1  0
 13 14  2  0
 13 15  1  0
 15 16  1  0
 16 17  2  0
 17 18  1  0
 18 19  2  0
 19 20  1  0
 16 21  1  0
 20 21  2  0
M  END
