pyridine_urea_3812
     RDKit          3D

 22 24  0  0  0  0  0  0  0  0999 V2000
   12.8960    4.3870   22.5950 C   0  0  0  0  0  0  0  0  0  0  0  0
   11.9000    3.2200   22.6890 C   0  0  0  0  0  0  0  0  0  0  0  0
   10.4360    3.4560   22.6720 C   0  0  0  0  0  0  0  0  0  0  0  0
    9.8660    2.2730   22.7590 N   0  0  0  0  0  0  0  0  0  0  0  0
   10.8380    1.3140   22.8290 C   0  0  0  0  0  0  0  0  0  0  0  0
   10.5650   -0.1970   22.9300 C   0  0  0  0  0  0  0  0  0  0  0  0
    9.2330   -0.5290   22.5520 N   0  0  0  0  0  0  0  0  0  0  0  0
    8.5430    0.1680   21.5590 C   0  0  0  0  0  0  0  0  0  0  0  0
    8.9090    1.2860   21.1880 O   0  0  0  0  0  0  0  0  0  0  0  0
    7.4270   -0.5010   21.0640 N   0  0  0  0  0  0  0  0  0  0  0  0
    6.5830    0.0960   20.1030 C   0  0  0  0  0  0  0  0  0  0  0  0
    5.4060    0.7970   20.3480 C   0  0  0  0  0  0  0  0  0  0  0  0
    4.6840    1.3540   19.3140 C   0  0  0  0  0  0  0  0  0  0  0  0
    5.1280    1.2170   18.0260 C   0  0  0  0  0  0  0  0  0  0  0  0
    6.2520    0.5400   17.7350 N   0  0  0  0  0  0  0  0  0  0  0  0
    6.9480   -0.0020   18.7670 C   0  0  0  0  0  0  0  0  0  0  0  0
   11.6250   -0.8530   22.3150 C   0  0  0  0  0  0  0  0  0  0  0  0
   12.2700   -1.9080   23.1290 C   0  0  0  0  0  0  0  0  0  0  0  0
   12.9130   -1.3450   24.1750 O   0  0  0  0  0  0  0  0  0  0  0  0
   12.1770   -0.2720   24.7430 C   0  0  0  0  0  0  0  0  0  0  0  0
   10.7240   -0.4620   24.4510 C   0  0  0  0  0  0  0  0  0  0  0  0
   12.0940    1.8360   22.7970 N   0  0  0  0  0  0  0  0  0  0  0  0
  1  2  1  0
  2  3  2  0
  3  4  1  0
  4  5  1  0
  5  6  1  0
  6  7  1  0
  7  8  1  0
  8  9  2  0
  8 10  1  0
 10 11  1  0
 11 12  2  0
 12 13  1  0
 13 14  2  0
 14 15  1  0
 11 16  1  0
 15 16  2  0
  6 17  1  0
 17 18  1  0
 18 19  1  0
 19 20  1  0
  6 21  1  0
 20 21  1  0
  2 22  1  0
  5 22  2  0
M  END
