pyridine_urea_13059
     RDKit          3D

 18 19  0  0  0  0  0  0  0  0999 V2000
    8.7120    0.4510   21.0750 O   0  0  0  0  0  0  0  0  0  0  0  0
    8.0290   -0.5070   21.3930 C   0  0  0  0  0  0  0  0  0  0  0  0
    8.4030   -1.5250   22.2060 N   0  0  0  0  0  0  0  0  0  0  0  0
    9.6790   -1.6740   22.7180 C   0  0  0  0  0  0  0  0  0  0  0  0
   10.1040   -0.6650   23.5440 C   0  0  0  0  0  0  0  0  0  0  0  0
   11.4420   -0.5720   23.4410 C   0  0  0  0  0  0  0  0  0  0  0  0
   12.7090   -0.0870   23.2330 C   0  0  0  0  0  0  0  0  0  0  0  0
   13.4830    1.1620   22.8470 C   0  0  0  0  0  0  0  0  0  0  0  0
   12.0290    2.0430   22.7140 S   0  0  0  0  0  0  0  0  0  0  0  0
   10.8030    0.8020   23.0950 C   0  0  0  0  0  0  0  0  0  0  0  0
    8.9830    1.3370   23.0530 Br  0  0  0  0  0  0  0  0  0  0  0  0
    6.7530   -0.7040   20.9700 N   0  0  0  0  0  0  0  0  0  0  0  0
    6.2260   -0.0100   19.9270 C   0  0  0  0  0  0  0  0  0  0  0  0
    5.0370    0.6920   20.1180 C   0  0  0  0  0  0  0  0  0  0  0  0
    4.5090    1.4120   19.0570 C   0  0  0  0  0  0  0  0  0  0  0  0
    5.1850    1.4060   17.8460 C   0  0  0  0  0  0  0  0  0  0  0  0
    6.3270    0.7300   17.6530 N   0  0  0  0  0  0  0  0  0  0  0  0
    6.8210    0.0380   18.6890 C   0  0  0  0  0  0  0  0  0  0  0  0
  1  2  2  0
  2  3  1  0
  3  4  1  0
  4  5  1  0
  5  6  1  0
  6  7  1  0
  7  8  2  0
  8  9  1  0
  6 10  2  0
  9 10  1  0
 10 11  1  0
  2 12  1  0
 12 13  1  0
 13 14  2  0
 14 15  1  0
 15 16  2  0
 16 17  1  0
 13 18  1  0
 17 18  2  0
M  END
