pyridine_urea_1622
     RDKit          3D

 19 20  0  0  0  0  0  0  0  0999 V2000
   12.7500    2.4650   22.8790 C   0  0  0  0  0  0  0  0  0  0  0  0
   13.5270    0.8210   22.9310 S   0  0  0  0  0  0  0  0  0  0  0  0
   12.0380   -0.0190   22.8430 C   0  0  0  0  0  0  0  0  0  0  0  0
   11.0800    0.6860   23.4410 C   0  0  0  0  0  0  0  0  0  0  0  0
    9.8170    0.2660   23.4390 C   0  0  0  0  0  0  0  0  0  0  0  0
    9.5720   -0.9300   22.7870 C   0  0  0  0  0  0  0  0  0  0  0  0
    8.1860   -1.1310   22.8320 N   0  0  0  0  0  0  0  0  0  0  0  0
    7.7990   -0.3380   21.7840 C   0  0  0  0  0  0  0  0  0  0  0  0
    8.4440    0.6720   21.4730 O   0  0  0  0  0  0  0  0  0  0  0  0
    6.6370   -0.7830   21.0660 N   0  0  0  0  0  0  0  0  0  0  0  0
    6.1790   -0.1100   20.0010 C   0  0  0  0  0  0  0  0  0  0  0  0
    4.8810    0.6850   20.1380 C   0  0  0  0  0  0  0  0  0  0  0  0
    4.4270    1.3890   19.0500 C   0  0  0  0  0  0  0  0  0  0  0  0
    5.1710    1.3450   17.8760 C   0  0  0  0  0  0  0  0  0  0  0  0
    6.3190    0.6480   17.7230 N   0  0  0  0  0  0  0  0  0  0  0  0
    6.8050   -0.0620   18.7670 C   0  0  0  0  0  0  0  0  0  0  0  0
   10.5380   -1.7260   22.1820 C   0  0  0  0  0  0  0  0  0  0  0  0
   11.7800   -1.2110   22.2420 C   0  0  0  0  0  0  0  0  0  0  0  0
   13.0370   -2.2950   21.3870 Br  0  0  0  0  0  0  0  0  0  0  0  0
  1  2  1  0
  2  3  1  0
  3  4  2  0
  4  5  1  0
  5  6  2  0
  6  7  1  0
  7  8  1  0
  8  9  2  0
  8 10  1  0
 10 11  1  0
 11 12  2  0
 12 13  1  0
 13 14  2  0
 14 15  1  0
 11 16  1  0
 15 16  2  0
  6 17  1  0
  3 18  1  0
 17 18  2  0
 18 19  1  0
M  END
