pyridine_urea_14625
     RDKit          3D

 23 24  0  0  0  0  0  0  0  0999 V2000
   11.7940    7.2470   24.3980 C   0  0  0  0  0  0  0  0  0  0  0  0
   10.7450    6.5660   23.7940 N   0  0  0  0  0  0  0  0  0  0  0  0
    9.7470    7.0660   22.9200 C   0  0  0  0  0  0  0  0  0  0  0  0
   11.0230    5.1410   23.6720 C   0  0  0  0  0  0  0  0  0  0  0  0
   12.1350    4.8840   22.8740 C   0  0  0  0  0  0  0  0  0  0  0  0
   12.4140    3.5500   22.6660 C   0  0  0  0  0  0  0  0  0  0  0  0
   11.9590    2.7130   23.4420 O   0  0  0  0  0  0  0  0  0  0  0  0
   11.8830    1.3830   23.0880 C   0  0  0  0  0  0  0  0  0  0  0  0
   13.0420    0.4240   22.8940 C   0  0  0  0  0  0  0  0  0  0  0  0
   12.8340   -0.8830   22.5400 C   0  0  0  0  0  0  0  0  0  0  0  0
   11.5430   -1.3650   22.3440 C   0  0  0  0  0  0  0  0  0  0  0  0
   10.4410   -0.5100   22.5140 C   0  0  0  0  0  0  0  0  0  0  0  0
    9.1620   -0.9780   22.3050 N   0  0  0  0  0  0  0  0  0  0  0  0
    8.2700   -0.2160   21.5210 C   0  0  0  0  0  0  0  0  0  0  0  0
    8.5500    0.9290   21.1930 O   0  0  0  0  0  0  0  0  0  0  0  0
    7.1310   -0.8360   21.1670 N   0  0  0  0  0  0  0  0  0  0  0  0
    6.4990   -0.1400   20.0350 C   0  0  0  0  0  0  0  0  0  0  0  0
    5.3240    0.5940   20.3100 C   0  0  0  0  0  0  0  0  0  0  0  0
    4.6590    1.3060   19.3010 C   0  0  0  0  0  0  0  0  0  0  0  0
    5.1520    1.2990   18.0080 C   0  0  0  0  0  0  0  0  0  0  0  0
    6.2900    0.5810   17.7400 N   0  0  0  0  0  0  0  0  0  0  0  0
    6.9600   -0.1350   18.7340 C   0  0  0  0  0  0  0  0  0  0  0  0
   10.6280    0.8350   22.8840 C   0  0  0  0  0  0  0  0  0  0  0  0
  1  2  1  0
  2  3  1  0
  2  4  1  0
  4  5  1  0
  5  6  1  0
  6  7  1  0
  7  8  1  0
  8  9  2  0
  9 10  1  0
 10 11  2  0
 11 12  1  0
 12 13  1  0
 13 14  1  0
 14 15  2  0
 14 16  1  0
 16 17  1  0
 17 18  2  0
 18 19  1  0
 19 20  2  0
 20 21  1  0
 17 22  1  0
 21 22  2  0
  8 23  1  0
 12 23  2  0
M  END
