pyridine_urea_4071
     RDKit          3D

 26 27  0  0  0  0  0  0  0  0999 V2000
   14.7250   -4.9130   20.5380 C   0  0  0  0  0  0  0  0  0  0  0  0
   13.4210   -4.1190   20.4760 C   0  0  0  0  0  0  0  0  0  0  0  0
   13.1580   -2.7880   20.8630 C   0  0  0  0  0  0  0  0  0  0  0  0
   12.6970   -2.3340   22.0950 C   0  0  0  0  0  0  0  0  0  0  0  0
   12.8810   -2.8080   23.4270 N   0  0  0  0  0  0  0  0  0  0  0  0
   13.9850   -3.0560   24.0100 C   0  0  0  0  0  0  0  0  0  0  0  0
   12.6520   -1.6420   24.4730 S   0  0  0  0  0  0  0  0  0  0  0  0
   13.5890   -1.8430   25.5510 O   0  0  0  0  0  0  0  0  0  0  0  0
   11.2290   -1.4950   24.6610 O   0  0  0  0  0  0  0  0  0  0  0  0
   13.2450   -0.7770   23.1590 C   0  0  0  0  0  0  0  0  0  0  0  0
   12.0310   -0.4290   22.8950 C   0  0  0  0  0  0  0  0  0  0  0  0
   11.6990    0.8850   23.2170 C   0  0  0  0  0  0  0  0  0  0  0  0
   10.4580    1.3780   23.0650 C   0  0  0  0  0  0  0  0  0  0  0  0
    9.5090    0.5670   22.5880 C   0  0  0  0  0  0  0  0  0  0  0  0
    9.8170   -0.7450   22.2480 C   0  0  0  0  0  0  0  0  0  0  0  0
    8.6890   -1.4060   21.7650 N   0  0  0  0  0  0  0  0  0  0  0  0
    7.8270   -0.5580   21.1140 C   0  0  0  0  0  0  0  0  0  0  0  0
    8.1820    0.7260   20.8200 O   0  0  0  0  0  0  0  0  0  0  0  0
    6.6420   -1.0400   20.8050 N   0  0  0  0  0  0  0  0  0  0  0  0
    6.1070   -0.2160   19.9100 C   0  0  0  0  0  0  0  0  0  0  0  0
    4.8840    0.6270   20.0840 C   0  0  0  0  0  0  0  0  0  0  0  0
    4.4290    1.5220   18.9550 C   0  0  0  0  0  0  0  0  0  0  0  0
    5.1580    1.5370   17.7870 C   0  0  0  0  0  0  0  0  0  0  0  0
    6.2810    0.7400   17.6600 N   0  0  0  0  0  0  0  0  0  0  0  0
    6.7490   -0.1080   18.6790 C   0  0  0  0  0  0  0  0  0  0  0  0
   11.0840   -1.2700   22.3870 C   0  0  0  0  0  0  0  0  0  0  0  0
  1  2  1  0
  2  3  1  0
  3  4  1  0
  4  5  1  0
  5  6  1  0
  7  5  1  0
  7  8  2  0
  7  9  2  0
  7 10  1  0
 10 11  1  0
 11 12  2  0
 12 13  1  0
 13 14  2  0
 14 15  1  0
 15 16  1  0
 16 17  1  0
 17 18  2  0
 17 19  1  0
 19 20  1  0
 20 21  2  0
 21 22  1  0
 22 23  2  0
 23 24  1  0
 20 25  1  0
 24 25  2  0
 11 26  1  0
 15 26  2  0
M  END
