pyridine_urea_2795
     RDKit          3D

 22 24  0  0  0  0  0  0  0  0999 V2000
   12.5430   -2.5350   20.9410 C   0  0  0  0  0  0  0  0  0  0  0  0
   12.1080   -1.7600   22.1380 C   0  0  0  0  0  0  0  0  0  0  0  0
   10.8860   -0.7390   22.1240 C   0  0  0  0  0  0  0  0  0  0  0  0
   10.0980    0.1330   22.8030 C   0  0  1  0  0  0  0  0  0  0  0  0
   10.7540    1.5070   22.9440 C   0  0  0  0  0  0  0  0  0  0  0  0
    8.7760   -0.0550   22.5570 N   0  0  0  0  0  0  0  0  0  0  0  0
    8.1570    0.3970   21.4480 C   0  0  0  0  0  0  0  0  0  0  0  0
    8.6040    1.4370   20.9620 O   0  0  0  0  0  0  0  0  0  0  0  0
    7.0880   -0.3740   21.0170 N   0  0  0  0  0  0  0  0  0  0  0  0
    6.4030    0.2070   19.9000 C   0  0  0  0  0  0  0  0  0  0  0  0
    5.1140    0.9220   20.3090 C   0  0  0  0  0  0  0  0  0  0  0  0
    4.4280    1.5800   19.1130 C   0  0  0  0  0  0  0  0  0  0  0  0
    5.0830    1.4460   17.7510 C   0  0  0  0  0  0  0  0  0  0  0  0
    6.2340    0.7470   17.5850 N   0  0  0  0  0  0  0  0  0  0  0  0
    6.8750    0.1460   18.6260 C   0  0  0  0  0  0  0  0  0  0  0  0
   11.0470   -0.3520   23.5250 O   0  0  0  0  0  0  0  0  0  0  0  0
   12.0490   -0.9830   24.1500 C   0  0  0  0  0  0  0  0  0  0  0  0
   12.4140   -0.8410   25.3690 C   0  0  0  0  0  0  0  0  0  0  0  0
   13.4300   -1.6470   25.7290 C   0  0  0  0  0  0  0  0  0  0  0  0
   14.0230   -2.4950   24.9810 C   0  0  0  0  0  0  0  0  0  0  0  0
   13.7040   -2.6640   23.6970 C   0  0  0  0  0  0  0  0  0  0  0  0
   12.6810   -1.8780   23.2650 C   0  0  0  0  0  0  0  0  0  0  0  0
  1  2  1  0
  2  3  2  0
  3  4  1  0
  4  5  1  6
  4  6  1  0
  6  7  1  0
  7  8  2  0
  7  9  1  0
  9 10  1  0
 10 11  2  0
 11 12  1  0
 12 13  2  0
 13 14  1  0
 10 15  1  0
 14 15  2  0
  3 16  1  0
 16 17  1  0
 17 18  1  0
 18 19  2  0
 19 20  1  0
 20 21  2  0
  2 22  1  0
 17 22  2  0
 21 22  1  0
M  END
