pyridine_urea_13446
     RDKit          3D

 19 20  0  0  0  0  0  0  0  0999 V2000
    8.7160    1.1970   21.0720 O   0  0  0  0  0  0  0  0  0  0  0  0
    8.2900    0.0700   21.3680 C   0  0  0  0  0  0  0  0  0  0  0  0
    8.9330   -0.8090   22.1680 N   0  0  0  0  0  0  0  0  0  0  0  0
   10.2120   -0.5630   22.6310 C   0  0  0  0  0  0  0  0  0  0  0  0
   11.3970   -1.4270   22.2100 C   0  0  2  0  0  0  0  0  0  0  0  0
   11.2060   -2.7760   22.9140 C   0  0  0  0  0  0  0  0  0  0  0  0
   10.8080   -2.5560   24.2950 C   0  0  0  0  0  0  0  0  0  0  0  0
   11.3440   -1.3520   24.4700 C   0  0  0  0  0  0  0  0  0  0  0  0
   11.9840   -0.2410   24.8580 C   0  0  0  0  0  0  0  0  0  0  0  0
   11.8540    0.8280   23.9840 C   0  0  0  0  0  0  0  0  0  0  0  0
   12.7040    0.5780   22.9210 C   0  0  0  0  0  0  0  0  0  0  0  0
   12.7850   -0.7630   22.5340 C   0  0  0  0  0  0  0  0  0  0  0  0
    7.1120   -0.4770   20.9450 N   0  0  0  0  0  0  0  0  0  0  0  0
    6.3330    0.1700   20.0050 C   0  0  0  0  0  0  0  0  0  0  0  0
    5.1030    0.8280   20.3090 C   0  0  0  0  0  0  0  0  0  0  0  0
    4.5090    1.4700   19.0510 C   0  0  0  0  0  0  0  0  0  0  0  0
    5.1620    1.3580   17.8500 C   0  0  0  0  0  0  0  0  0  0  0  0
    6.3060    0.7100   17.6580 N   0  0  0  0  0  0  0  0  0  0  0  0
    6.8480    0.1430   18.7270 C   0  0  0  0  0  0  0  0  0  0  0  0
  1  2  2  0
  2  3  1  0
  3  4  1  0
  5  4  1  1
  5  6  1  0
  6  7  1  0
  7  8  1  0
  8  9  2  0
  9 10  1  0
 10 11  1  0
  5 12  1  0
 11 12  1  0
  2 13  1  0
 13 14  1  0
 14 15  2  0
 15 16  1  0
 16 17  2  0
 17 18  1  0
 14 19  1  0
 18 19  2  0
M  END
