pyridine_urea_3911
     RDKit          3D

 26 28  0  0  0  0  0  0  0  0999 V2000
   13.4480    0.3030   23.0000 C   0  0  0  0  0  0  0  0  0  0  0  0
   13.3030   -1.1620   22.8150 C   0  0  0  0  0  0  0  0  0  0  0  0
   13.3400   -1.8390   21.5930 C   0  0  0  0  0  0  0  0  0  0  0  0
   12.9180   -2.1300   23.9600 C   0  0  0  0  0  0  0  0  0  0  0  0
   11.5780   -2.4710   23.8200 C   0  0  0  0  0  0  0  0  0  0  0  0
   10.9070   -3.3180   24.6770 C   0  0  0  0  0  0  0  0  0  0  0  0
   11.5720   -3.8750   25.7280 C   0  0  0  0  0  0  0  0  0  0  0  0
   10.9390   -4.6190   26.4550 O   0  0  0  0  0  0  0  0  0  0  0  0
   13.0700   -3.5220   25.9120 C   0  0  0  0  0  0  0  0  0  0  0  0
   13.6620   -2.6570   25.0130 C   0  0  0  0  0  0  0  0  0  0  0  0
   11.9310   -0.8370   22.8810 C   0  0  0  0  0  0  0  0  0  0  0  0
   11.4850   -0.0460   23.9410 C   0  0  0  0  0  0  0  0  0  0  0  0
   10.1570    0.2310   23.9830 C   0  0  0  0  0  0  0  0  0  0  0  0
    9.3940   -0.2940   22.9720 C   0  0  0  0  0  0  0  0  0  0  0  0
    8.0860   -0.0470   22.9250 N   0  0  0  0  0  0  0  0  0  0  0  0
    7.7700    0.4110   21.6640 C   0  0  0  0  0  0  0  0  0  0  0  0
    8.4970    1.4890   21.0560 O   0  0  0  0  0  0  0  0  0  0  0  0
    6.7570   -0.2970   21.0950 N   0  0  0  0  0  0  0  0  0  0  0  0
    6.2300    0.2540   19.9110 C   0  0  0  0  0  0  0  0  0  0  0  0
    5.0590    0.9500   20.0610 C   0  0  0  0  0  0  0  0  0  0  0  0
    4.4710    1.5640   18.9790 C   0  0  0  0  0  0  0  0  0  0  0  0
    5.1340    1.4310   17.7610 C   0  0  0  0  0  0  0  0  0  0  0  0
    6.2840    0.7350   17.6020 N   0  0  0  0  0  0  0  0  0  0  0  0
    6.8120    0.1550   18.6830 C   0  0  0  0  0  0  0  0  0  0  0  0
    9.8790   -1.0630   21.9530 C   0  0  0  0  0  0  0  0  0  0  0  0
   11.1610   -1.3340   21.9150 C   0  0  0  0  0  0  0  0  0  0  0  0
  2  1  1  0
  2  3  1  0
  2  4  1  0
  4  5  2  0
  5  6  1  0
  6  7  2  0
  7  8  1  0
  7  9  1  0
  4 10  1  0
  9 10  2  0
  2 11  1  0
 11 12  2  0
 12 13  1  0
 13 14  2  0
 14 15  1  0
 15 16  1  0
 16 17  2  0
 16 18  1  0
 18 19  1  0
 19 20  2  0
 20 21  1  0
 21 22  2  0
 22 23  1  0
 19 24  1  0
 23 24  2  0
 14 25  1  0
 11 26  1  0
 25 26  2  0
M  END
