pyridine_urea_11337
     RDKit          3D

 21 23  0  0  0  0  0  0  0  0999 V2000
   13.1680   -0.9430   22.1150 C   0  0  0  0  0  0  0  0  0  0  0  0
   12.0040   -0.8230   22.2290 C   0  0  0  0  0  0  0  0  0  0  0  0
   10.5420   -0.5700   21.9620 C   0  0  0  0  0  0  0  0  0  0  0  0
    9.4430   -0.6850   22.9080 C   0  0  0  0  0  0  0  0  0  0  0  0
    8.1210   -0.4390   22.5280 N   0  0  0  0  0  0  0  0  0  0  0  0
    7.8980    0.1560   21.3620 C   0  0  0  0  0  0  0  0  0  0  0  0
    8.6170    1.3600   20.9280 O   0  0  0  0  0  0  0  0  0  0  0  0
    6.9420   -0.5510   20.7610 N   0  0  0  0  0  0  0  0  0  0  0  0
    6.3470    0.1110   19.7920 C   0  0  0  0  0  0  0  0  0  0  0  0
    5.0620    0.7910   20.0590 C   0  0  0  0  0  0  0  0  0  0  0  0
    4.3660    1.5080   19.1520 C   0  0  0  0  0  0  0  0  0  0  0  0
    5.1510    1.4700   17.8610 C   0  0  0  0  0  0  0  0  0  0  0  0
    6.3120    0.8610   17.5860 N   0  0  0  0  0  0  0  0  0  0  0  0
    6.8820    0.1900   18.5660 C   0  0  0  0  0  0  0  0  0  0  0  0
    9.5550   -1.0650   24.3120 C   0  0  0  0  0  0  0  0  0  0  0  0
    8.0900   -1.1680   25.2490 Cl  0  0  0  0  0  0  0  0  0  0  0  0
   10.8610   -1.3030   24.6440 C   0  0  0  0  0  0  0  0  0  0  0  0
   11.8990   -1.1690   23.6120 C   0  0  0  0  0  0  0  0  0  0  0  0
   12.8660   -1.5970   24.5880 C   0  0  0  0  0  0  0  0  0  0  0  0
   12.9410   -2.8390   25.1150 C   0  0  0  0  0  0  0  0  0  0  0  0
   13.5480   -2.8390   23.8330 C   0  0  0  0  0  0  0  0  0  0  0  0
  1  2  1  0
  2  3  2  0
  3  4  1  0
  4  5  1  0
  5  6  1  0
  6  7  2  0
  6  8  1  0
  8  9  1  0
  9 10  2  0
 10 11  1  0
 11 12  2  0
 12 13  1  0
  9 14  1  0
 13 14  2  0
  4 15  2  0
 15 16  1  0
 15 17  1  0
  2 18  1  0
 17 18  2  0
 18 19  1  0
 19 20  1  0
 19 21  1  0
 20 21  1  0
M  END
