pyridine_urea_4059
     RDKit          3D

 26 29  0  0  0  0  0  0  0  0999 V2000
    7.5760    1.5440   21.3810 O   0  0  0  0  0  0  0  0  0  0  0  0
    8.4320    0.7030   21.3080 C   0  0  0  0  0  0  0  0  0  0  0  0
    9.1300   -0.4220   21.1200 N   0  0  0  0  0  0  0  0  0  0  0  0
   10.1230   -0.5650   21.9870 C   0  0  0  0  0  0  0  0  0  0  0  0
    9.9380    0.3400   23.0070 C   0  0  0  0  0  0  0  0  0  0  0  0
   10.7480    0.3310   24.0350 C   0  0  0  0  0  0  0  0  0  0  0  0
   11.7090   -0.5950   24.0070 C   0  0  0  0  0  0  0  0  0  0  0  0
   12.3860   -0.7470   25.0470 C   0  0  0  0  0  0  0  0  0  0  0  0
   10.9430   -0.9430   25.5110 N   0  0  0  0  0  0  0  0  0  0  0  0
    9.9800   -0.0670   26.0410 C   0  0  0  0  0  0  0  0  0  0  0  0
    8.5120   -0.4240   25.8410 C   0  0  0  0  0  0  0  0  0  0  0  0
    8.5500   -1.2040   24.7550 C   0  0  0  0  0  0  0  0  0  0  0  0
    7.5370   -1.6540   23.9530 C   0  0  0  0  0  0  0  0  0  0  0  0
    7.8420   -2.4430   22.8880 C   0  0  0  0  0  0  0  0  0  0  0  0
    9.1530   -2.7920   22.6190 C   0  0  0  0  0  0  0  0  0  0  0  0
   10.2740   -2.4040   23.3710 C   0  0  0  0  0  0  0  0  0  0  0  0
   10.0140   -1.5130   24.5650 C   0  0  0  0  0  0  0  0  0  0  0  0
   12.0170   -1.5580   22.9020 C   0  0  0  0  0  0  0  0  0  0  0  0
   11.1560   -1.5060   21.8620 C   0  0  0  0  0  0  0  0  0  0  0  0
    7.4400   -0.1280   20.8920 N   0  0  0  0  0  0  0  0  0  0  0  0
    6.6270    0.2860   19.9420 C   0  0  0  0  0  0  0  0  0  0  0  0
    5.4440    0.9280   20.2850 C   0  0  0  0  0  0  0  0  0  0  0  0
    4.6260    1.3950   19.2670 C   0  0  0  0  0  0  0  0  0  0  0  0
    5.0440    1.1880   17.9630 C   0  0  0  0  0  0  0  0  0  0  0  0
    6.1650    0.5590   17.6290 N   0  0  0  0  0  0  0  0  0  0  0  0
    6.9280    0.1220   18.6300 C   0  0  0  0  0  0  0  0  0  0  0  0
  1  2  2  0
  2  3  1  0
  3  4  1  0
  4  5  2  0
  5  6  1  0
  6  7  2  0
  7  8  1  0
  8  9  1  0
  9 10  1  0
 10 11  1  0
 11 12  1  0
 12 13  1  0
 13 14  2  0
 14 15  1  0
 15 16  2  0
  9 17  1  0
 12 17  2  0
 16 17  1  0
  7 18  1  0
  4 19  1  0
 18 19  2  0
  2 20  1  0
 20 21  1  0
 21 22  2  0
 22 23  1  0
 23 24  2  0
 24 25  1  0
 21 26  1  0
 25 26  2  0
M  END
