pyridine_urea_10591
     RDKit          3D

 21 23  0  0  0  0  0  0  0  0999 V2000
    8.9110    1.2330   21.2050 O   0  0  0  0  0  0  0  0  0  0  0  0
    8.4680    0.1240   21.5300 C   0  0  0  0  0  0  0  0  0  0  0  0
    9.0430   -0.7210   22.4400 N   0  0  0  0  0  0  0  0  0  0  0  0
   10.4170   -0.8200   22.6860 C   0  0  0  0  0  0  0  0  0  0  0  0
   11.1660    0.2630   23.4690 C   0  0  0  0  0  0  0  0  0  0  0  0
   10.1860    1.6630   24.0060 S   0  0  0  0  0  0  0  0  0  0  0  0
   10.9780    3.1430   23.3480 C   0  0  0  0  0  0  0  0  0  0  0  0
   12.3300    3.1640   22.6850 C   0  0  0  0  0  0  0  0  0  0  0  0
   12.9120    4.3220   22.1930 C   0  0  0  0  0  0  0  0  0  0  0  0
   12.2220    5.5200   22.3160 C   0  0  0  0  0  0  0  0  0  0  0  0
   10.9610    5.5450   22.9270 C   0  0  0  0  0  0  0  0  0  0  0  0
   10.3490    4.3970   23.4300 C   0  0  0  0  0  0  0  0  0  0  0  0
   12.3550   -0.2160   24.2410 C   0  0  0  0  0  0  0  0  0  0  0  0
   12.7430    0.4610   23.1080 C   0  0  0  0  0  0  0  0  0  0  0  0
    7.3180   -0.4430   21.0480 N   0  0  0  0  0  0  0  0  0  0  0  0
    6.5860    0.1270   20.0110 C   0  0  0  0  0  0  0  0  0  0  0  0
    5.3070    0.8960   20.3060 C   0  0  0  0  0  0  0  0  0  0  0  0
    4.6350    1.4600   19.2460 C   0  0  0  0  0  0  0  0  0  0  0  0
    5.1380    1.3150   17.9590 C   0  0  0  0  0  0  0  0  0  0  0  0
    6.2620    0.6280   17.6780 N   0  0  0  0  0  0  0  0  0  0  0  0
    6.9500    0.0560   18.6930 C   0  0  0  0  0  0  0  0  0  0  0  0
  1  2  2  0
  2  3  1  0
  3  4  1  0
  4  5  1  0
  5  6  1  0
  6  7  1  0
  7  8  2  0
  8  9  1  0
  9 10  2  0
 10 11  1  0
  7 12  1  0
 11 12  2  0
  5 13  1  0
  5 14  1  0
 13 14  1  0
  2 15  1  0
 15 16  1  0
 16 17  2  0
 17 18  1  0
 18 19  2  0
 19 20  1  0
 16 21  1  0
 20 21  2  0
M  END
