pyridine_urea_452
     RDKit          3D

 25 27  0  0  0  0  0  0  0  0999 V2000
   10.7170   -0.3500   24.8200 C   0  0  0  0  0  0  0  0  0  0  0  0
   10.6080   -0.2760   23.2770 C   0  0  2  0  0  0  0  0  0  0  0  0
    9.3590   -0.8290   22.6020 N   0  0  0  0  0  0  0  0  0  0  0  0
    8.6280   -0.0490   21.5610 C   0  0  0  0  0  0  0  0  0  0  0  0
    9.1460    1.2560   21.2060 O   0  0  0  0  0  0  0  0  0  0  0  0
    7.4700   -0.6170   21.0300 N   0  0  0  0  0  0  0  0  0  0  0  0
    6.6590    0.0480   20.0130 C   0  0  0  0  0  0  0  0  0  0  0  0
    5.5110    0.7540   20.3930 C   0  0  0  0  0  0  0  0  0  0  0  0
    4.7480    1.4020   19.4220 C   0  0  0  0  0  0  0  0  0  0  0  0
    5.1640    1.3380   17.9630 C   0  0  0  0  0  0  0  0  0  0  0  0
    6.2840    0.6310   17.6470 N   0  0  0  0  0  0  0  0  0  0  0  0
    7.0150   -0.0050   18.6650 C   0  0  0  0  0  0  0  0  0  0  0  0
   11.8690   -0.7730   22.6380 C   0  0  0  0  0  0  0  0  0  0  0  0
   11.9630   -1.9540   22.0280 C   0  0  0  0  0  0  0  0  0  0  0  0
   12.8540   -1.0180   22.1670 C   0  0  0  0  0  0  0  0  0  0  0  0
   11.6130   -0.3340   23.0680 C   0  0  0  0  0  0  0  0  0  0  0  0
   10.2870   -0.9220   23.4150 N   0  0  0  0  0  0  0  0  0  0  0  0
   10.1290   -2.3270   23.5860 C   0  0  0  0  0  0  0  0  0  0  0  0
    9.3230   -2.6730   24.6800 C   0  0  0  0  0  0  0  0  0  0  0  0
    8.1470   -1.9430   24.8020 C   0  0  0  0  0  0  0  0  0  0  0  0
    8.4000   -0.5820   24.9370 C   0  0  0  0  0  0  0  0  0  0  0  0
    9.1900   -0.0880   23.8850 C   0  0  0  0  0  0  0  0  0  0  0  0
    8.8350    1.0140   23.4730 O   0  0  0  0  0  0  0  0  0  0  0  0
   12.2240    0.8720   23.3770 C   0  0  0  0  0  0  0  0  0  0  0  0
   13.0150    0.1710   22.7050 C   0  0  0  0  0  0  0  0  0  0  0  0
  2  1  1  1
  2  3  1  0
  3  4  1  0
  4  5  2  0
  4  6  1  0
  6  7  1  0
  7  8  2  0
  8  9  1  0
  9 10  2  0
 10 11  1  0
  7 12  1  0
 11 12  2  0
  2 13  1  0
 13 14  2  0
 14 15  1  0
 15 16  2  0
 16 17  1  0
 17 18  1  0
 18 19  1  0
 19 20  1  0
 20 21  1  0
 17 22  1  0
 21 22  1  0
 22 23  2  0
 16 24  1  0
 13 25  1  0
 24 25  2  0
M  END
