pyridine_urea_9326
     RDKit          3D

 17 18  0  0  0  0  0  0  0  0999 V2000
    8.8760    0.8410   21.3700 O   0  0  0  0  0  0  0  0  0  0  0  0
    8.3330   -0.2340   21.5980 C   0  0  0  0  0  0  0  0  0  0  0  0
    8.7930   -1.1880   22.4640 N   0  0  0  0  0  0  0  0  0  0  0  0
   10.0860   -1.2600   23.0040 C   0  0  0  0  0  0  0  0  0  0  0  0
   11.1090   -0.8580   22.1620 C   0  0  0  0  0  0  0  0  0  0  0  0
   12.4010   -0.8270   22.6450 C   0  0  1  0  0  0  0  0  0  0  0  0
   12.7680    0.1090   23.3270 C   0  0  0  0  0  0  0  0  0  0  0  0
   12.5920   -1.1610   24.0450 C   0  0  0  0  0  0  0  0  0  0  0  0
   13.6820   -1.7910   24.5030 F   0  0  0  0  0  0  0  0  0  0  0  0
   11.5170   -1.3820   24.8160 F   0  0  0  0  0  0  0  0  0  0  0  0
    7.1550   -0.6550   21.0330 N   0  0  0  0  0  0  0  0  0  0  0  0
    6.5160   -0.0220   20.0220 C   0  0  0  0  0  0  0  0  0  0  0  0
    5.2250    0.7630   20.3070 C   0  0  0  0  0  0  0  0  0  0  0  0
    4.6190    1.4030   19.2430 C   0  0  0  0  0  0  0  0  0  0  0  0
    5.1900    1.3160   17.9770 C   0  0  0  0  0  0  0  0  0  0  0  0
    6.3160    0.6260   17.7140 N   0  0  0  0  0  0  0  0  0  0  0  0
    6.9470   -0.0190   18.7150 C   0  0  0  0  0  0  0  0  0  0  0  0
  1  2  2  0
  2  3  1  0
  3  4  1  0
  4  5  1  0
  6  5  1  1
  6  7  1  0
  6  8  1  0
  7  8  1  0
  8  9  1  0
  8 10  1  0
  2 11  1  0
 11 12  1  0
 12 13  2  0
 13 14  1  0
 14 15  2  0
 15 16  1  0
 12 17  1  0
 16 17  2  0
M  END
