pyridine_urea_6852
     RDKit          3D

 21 23  0  0  0  0  0  0  0  0999 V2000
    8.5850    0.4350   21.0910 O   0  0  0  0  0  0  0  0  0  0  0  0
    8.0590   -0.5640   21.5510 C   0  0  0  0  0  0  0  0  0  0  0  0
    6.8880   -1.0290   21.0560 N   0  0  0  0  0  0  0  0  0  0  0  0
    6.2300   -0.2330   20.1000 C   0  0  0  0  0  0  0  0  0  0  0  0
    4.9320    0.5370   20.3660 C   0  0  0  0  0  0  0  0  0  0  0  0
    4.4250    1.3460   19.1760 C   0  0  0  0  0  0  0  0  0  0  0  0
    5.2270    1.3040   17.9110 C   0  0  0  0  0  0  0  0  0  0  0  0
    6.3570    0.5890   17.7790 N   0  0  0  0  0  0  0  0  0  0  0  0
    6.8140   -0.1330   18.8360 C   0  0  0  0  0  0  0  0  0  0  0  0
    8.6520   -1.2320   22.6100 N   0  0  0  0  0  0  0  0  0  0  0  0
    9.8890   -0.5650   22.7670 C   0  0  0  0  0  0  0  0  0  0  0  0
   11.1210   -1.1700   23.0090 C   0  0  0  0  0  0  0  0  0  0  0  0
   12.2550   -0.3720   23.0730 C   0  0  0  0  0  0  0  0  0  0  0  0
   12.1190    1.0050   22.8820 C   0  0  0  0  0  0  0  0  0  0  0  0
   10.8600    1.5410   22.6590 C   0  0  0  0  0  0  0  0  0  0  0  0
    9.7140    0.7980   22.6070 C   0  0  0  0  0  0  0  0  0  0  0  0
   10.9260    3.1080   22.4160 C   0  0  0  0  0  0  0  0  0  0  0  0
   12.1360    3.7510   22.3510 C   0  0  0  0  0  0  0  0  0  0  0  0
   13.1220    3.1760   23.0170 N   0  0  0  0  0  0  0  0  0  0  0  0
   13.2160    1.7450   22.8870 C   0  0  0  0  0  0  0  0  0  0  0  0
   14.3630    0.9440   22.6640 O   0  0  0  0  0  0  0  0  0  0  0  0
  1  2  2  0
  2  3  1  0
  3  4  1  0
  4  5  2  0
  5  6  1  0
  6  7  2  0
  7  8  1  0
  4  9  1  0
  8  9  2  0
  2 10  1  0
 10 11  1  0
 11 12  2  0
 12 13  1  0
 13 14  2  0
 14 15  1  0
 11 16  1  0
 15 16  2  0
 15 17  1  0
 17 18  1  0
 18 19  1  0
 14 20  1  0
 19 20  1  0
 20 21  2  0
M  END
