pyridine_urea_9740
     RDKit          3D

 28 30  0  0  0  0  0  0  0  0999 V2000
    8.1710    0.7300   21.2420 O   0  0  0  0  0  0  0  0  0  0  0  0
    7.7290   -0.3910   21.4800 C   0  0  0  0  0  0  0  0  0  0  0  0
    6.5680   -0.8700   20.9830 N   0  0  0  0  0  0  0  0  0  0  0  0
    6.0980   -0.0790   19.9080 C   0  0  0  0  0  0  0  0  0  0  0  0
    4.8460    0.7370   20.1690 C   0  0  0  0  0  0  0  0  0  0  0  0
    4.3390    1.6010   19.0300 C   0  0  0  0  0  0  0  0  0  0  0  0
    5.1640    1.5410   17.7460 C   0  0  0  0  0  0  0  0  0  0  0  0
    6.3010    0.7260   17.6660 N   0  0  0  0  0  0  0  0  0  0  0  0
    6.7440   -0.0430   18.6970 C   0  0  0  0  0  0  0  0  0  0  0  0
    8.3630   -1.2980   22.2500 N   0  0  0  0  0  0  0  0  0  0  0  0
    9.6940   -1.0580   22.1290 C   0  0  1  0  0  0  0  0  0  0  0  0
   10.1590    0.0130   22.7310 C   0  0  0  0  0  0  0  0  0  0  0  0
   10.9370    1.0840   23.3130 C   0  0  0  0  0  0  0  0  0  0  0  0
   12.2480    0.8010   23.0520 C   0  0  0  0  0  0  0  0  0  0  0  0
   12.9190   -0.1300   22.4360 C   0  0  0  0  0  0  0  0  0  0  0  0
   14.1390    0.0470   22.4300 F   0  0  0  0  0  0  0  0  0  0  0  0
   12.3510   -1.1190   21.8900 C   0  0  0  0  0  0  0  0  0  0  0  0
   10.9540   -1.0030   22.0640 C   0  0  0  0  0  0  0  0  0  0  0  0
   10.7210   -1.9460   22.7380 C   0  0  0  0  0  0  0  0  0  0  0  0
   10.9220   -0.4670   23.2230 C   0  0  0  0  0  0  0  0  0  0  0  0
   11.7290    0.4140   24.0590 C   0  0  0  0  0  0  0  0  0  0  0  0
   12.6080   -0.4680   24.5680 C   0  0  0  0  0  0  0  0  0  0  0  0
   12.6780   -1.7330   24.3330 C   0  0  0  0  0  0  0  0  0  0  0  0
   13.5010   -2.6390   24.7740 C   0  0  0  0  0  0  0  0  0  0  0  0
   14.3160   -2.4610   25.8150 F   0  0  0  0  0  0  0  0  0  0  0  0
   14.1780   -3.1130   23.7160 F   0  0  0  0  0  0  0  0  0  0  0  0
   12.6810   -3.5880   25.1120 F   0  0  0  0  0  0  0  0  0  0  0  0
   11.7460   -2.4430   23.4360 C   0  0  0  0  0  0  0  0  0  0  0  0
  1  2  2  0
  2  3  1  0
  3  4  1  0
  4  5  2  0
  5  6  1  0
  6  7  2  0
  7  8  1  0
  4  9  1  0
  8  9  2  0
  2 10  1  0
 11 10  1  1
 11 12  1  0
 12 13  2  0
 13 14  1  0
 14 15  2  0
 15 16  1  0
 15 17  1  0
 12 18  1  0
 17 18  2  0
 11 19  1  0
 19 20  2  0
 20 21  1  0
 21 22  2  0
 22 23  1  0
 23 24  1  0
 24 25  1  0
 24 26  1  0
 24 27  1  0
 19 28  1  0
 23 28  2  0
M  END
