pyridine_urea_14835
     RDKit          3D

 20 21  0  0  0  0  0  0  0  0999 V2000
   11.9630    2.4510   23.1440 C   0  0  0  0  0  0  0  0  0  0  0  0
   12.2200    0.9630   22.9650 C   0  0  0  0  0  0  0  0  0  0  0  0
   12.9700    0.0480   22.7670 C   0  0  0  0  0  0  0  0  0  0  0  0
   11.7720   -0.9170   22.8200 C   0  0  0  0  0  0  0  0  0  0  0  0
   10.3950   -0.5600   23.0160 C   0  0  1  0  0  0  0  0  0  0  0  0
   10.1320    0.7830   23.3620 C   0  0  0  0  0  0  0  0  0  0  0  0
    9.5980   -0.8610   21.8490 N   0  0  0  0  0  0  0  0  0  0  0  0
    8.6500    0.0800   21.4530 C   0  0  0  0  0  0  0  0  0  0  0  0
    8.8700    1.2760   21.2140 O   0  0  0  0  0  0  0  0  0  0  0  0
    7.2840   -0.4980   21.2880 N   0  0  0  0  0  0  0  0  0  0  0  0
    6.5980    0.0870   20.1350 C   0  0  0  0  0  0  0  0  0  0  0  0
    5.4580    0.8630   20.3990 C   0  0  0  0  0  0  0  0  0  0  0  0
    4.7530    1.4630   19.3500 C   0  0  0  0  0  0  0  0  0  0  0  0
    5.1900    1.2880   18.0440 C   0  0  0  0  0  0  0  0  0  0  0  0
    6.2610    0.5590   17.7110 N   0  0  0  0  0  0  0  0  0  0  0  0
    6.9800   -0.0620   18.8200 C   0  0  0  0  0  0  0  0  0  0  0  0
   11.9840   -2.2010   22.6700 C   0  0  0  0  0  0  0  0  0  0  0  0
   12.8790   -1.2400   22.6510 C   0  0  0  0  0  0  0  0  0  0  0  0
   11.6560   -0.2760   22.9440 C   0  0  0  0  0  0  0  0  0  0  0  0
   10.3530   -0.5030   23.1390 F   0  0  0  0  0  0  0  0  0  0  0  0
  1  2  1  0
  2  3  2  0
  3  4  1  0
  4  5  1  0
  5  6  1  6
  5  7  1  0
  7  8  1  0
  8  9  2  0
  8 10  1  0
 10 11  1  0
 11 12  2  0
 12 13  1  0
 13 14  2  0
 14 15  1  0
 11 16  1  0
 15 16  2  0
  4 17  2  0
 17 18  1  0
  2 19  1  0
 18 19  2  0
 19 20  1  0
M  END
