pyridine_urea_11769
     RDKit          3D

 25 27  0  0  0  0  0  0  0  0999 V2000
    8.0550    4.6460   22.3310 C   0  0  0  0  0  0  0  0  0  0  0  0
    8.8510    4.3990   23.4920 O   0  0  0  0  0  0  0  0  0  0  0  0
    9.8780    3.5030   23.2550 C   0  0  0  0  0  0  0  0  0  0  0  0
   11.1680    3.9610   23.0060 C   0  0  0  0  0  0  0  0  0  0  0  0
   12.2400    3.1250   22.7670 C   0  0  0  0  0  0  0  0  0  0  0  0
   11.9500    1.7730   22.7880 C   0  0  0  0  0  0  0  0  0  0  0  0
   10.6760    1.2160   23.0240 C   0  0  0  0  0  0  0  0  0  0  0  0
   10.4850   -0.1910   23.0300 C   0  0  0  0  0  0  0  0  0  0  0  0
    9.0920   -0.5010   22.7110 N   0  0  0  0  0  0  0  0  0  0  0  0
    8.5160    0.1570   21.6400 C   0  0  0  0  0  0  0  0  0  0  0  0
    9.0320    1.4130   21.1690 O   0  0  0  0  0  0  0  0  0  0  0  0
    7.3550   -0.5130   21.0720 N   0  0  0  0  0  0  0  0  0  0  0  0
    6.6210    0.0430   20.0700 C   0  0  0  0  0  0  0  0  0  0  0  0
    5.4650    0.7660   20.3780 C   0  0  0  0  0  0  0  0  0  0  0  0
    4.7190    1.3580   19.3640 C   0  0  0  0  0  0  0  0  0  0  0  0
    5.1480    1.2140   18.0600 C   0  0  0  0  0  0  0  0  0  0  0  0
    6.2460    0.5220   17.7310 N   0  0  0  0  0  0  0  0  0  0  0  0
    6.9530   -0.0470   18.7330 C   0  0  0  0  0  0  0  0  0  0  0  0
   11.2810   -1.0520   22.2570 C   0  0  0  0  0  0  0  0  0  0  0  0
   12.7490   -0.6540   22.4530 C   0  0  0  0  0  0  0  0  0  0  0  0
   13.0540   -0.6920   23.8350 O   0  0  0  0  0  0  0  0  0  0  0  0
   12.0430   -0.1300   24.6660 C   0  0  0  0  0  0  0  0  0  0  0  0
   10.7960   -0.6350   24.3000 C   0  0  0  0  0  0  0  0  0  0  0  0
    9.6170    2.1130   23.2690 C   0  0  0  0  0  0  0  0  0  0  0  0
    8.3520    1.7030   23.5200 F   0  0  0  0  0  0  0  0  0  0  0  0
  1  2  1  0
  2  3  1  0
  3  4  2  0
  4  5  1  0
  5  6  2  0
  6  7  1  0
  7  8  1  0
  8  9  1  0
  9 10  1  0
 10 11  2  0
 10 12  1  0
 12 13  1  0
 13 14  2  0
 14 15  1  0
 15 16  2  0
 16 17  1  0
 13 18  1  0
 17 18  2  0
  8 19  1  0
 19 20  1  0
 20 21  1  0
 21 22  1  0
  8 23  1  0
 22 23  1  0
  3 24  1  0
  7 24  2  0
 24 25  1  0
M  END
