pyridine_urea_11013
     RDKit          3D

 19 21  0  0  0  0  0  0  0  0999 V2000
    8.6460    0.7450   21.2370 O   0  0  0  0  0  0  0  0  0  0  0  0
    8.1510   -0.3750   21.3130 C   0  0  0  0  0  0  0  0  0  0  0  0
    6.7540   -0.6400   21.0650 N   0  0  0  0  0  0  0  0  0  0  0  0
    6.2170    0.0500   20.0080 C   0  0  0  0  0  0  0  0  0  0  0  0
    5.0480    0.7810   20.1760 C   0  0  0  0  0  0  0  0  0  0  0  0
    4.5410    1.4720   19.0820 C   0  0  0  0  0  0  0  0  0  0  0  0
    5.2220    1.4070   17.8640 C   0  0  0  0  0  0  0  0  0  0  0  0
    6.3500    0.6980   17.6980 N   0  0  0  0  0  0  0  0  0  0  0  0
    6.8260    0.0300   18.7720 C   0  0  0  0  0  0  0  0  0  0  0  0
    8.7750   -1.5310   21.6340 N   0  0  0  0  0  0  0  0  0  0  0  0
   10.0320   -1.3980   22.2750 C   0  0  0  0  0  0  0  0  0  0  0  0
   11.3210   -1.9720   21.5980 C   0  0  0  0  0  0  0  0  0  0  0  0
   12.5370   -1.8450   22.2020 C   0  0  0  0  0  0  0  0  0  0  0  0
   12.4540   -1.2260   23.3730 C   0  0  0  0  0  0  0  0  0  0  0  0
   11.3510   -0.8040   23.8340 C   0  0  0  0  0  0  0  0  0  0  0  0
   10.0960   -0.7670   23.4900 C   0  0  0  0  0  0  0  0  0  0  0  0
   11.1510   -0.1580   25.0720 C   0  0  0  0  0  0  0  0  0  0  0  0
   12.5080   -0.3680   25.3320 N   0  0  0  0  0  0  0  0  0  0  0  0
   13.2690   -0.8940   24.2970 C   0  0  0  0  0  0  0  0  0  0  0  0
  1  2  2  0
  2  3  1  0
  3  4  1  0
  4  5  2  0
  5  6  1  0
  6  7  2  0
  7  8  1  0
  4  9  1  0
  8  9  2  0
  2 10  1  0
 10 11  1  0
 11 12  2  0
 12 13  1  0
 13 14  2  0
 14 15  1  0
 11 16  1  0
 15 16  2  0
 15 17  1  0
 17 18  1  0
 14 19  1  0
 18 19  1  0
M  END
