pyridine_urea_8333
     RDKit          3D

 22 24  0  0  0  0  0  0  0  0999 V2000
    8.5840    0.7810   21.1340 O   0  0  0  0  0  0  0  0  0  0  0  0
    8.4000   -0.4310   21.0920 C   0  0  0  0  0  0  0  0  0  0  0  0
    7.1490   -0.9480   20.8680 N   0  0  0  0  0  0  0  0  0  0  0  0
    6.4200   -0.1530   19.9170 C   0  0  0  0  0  0  0  0  0  0  0  0
    5.0760    0.5470   20.3030 C   0  0  0  0  0  0  0  0  0  0  0  0
    4.4610    1.3030   19.3120 C   0  0  0  0  0  0  0  0  0  0  0  0
    5.1640    1.3740   17.9510 C   0  0  0  0  0  0  0  0  0  0  0  0
    6.3240    0.7400   17.6820 N   0  0  0  0  0  0  0  0  0  0  0  0
    6.9050    0.0100   18.6510 C   0  0  0  0  0  0  0  0  0  0  0  0
    9.3860   -1.3690   21.2570 N   0  0  0  0  0  0  0  0  0  0  0  0
   10.0910   -0.9920   22.4210 C   0  0  0  0  0  0  0  0  0  0  0  0
   11.5730   -1.1500   22.3690 C   0  0  0  0  0  0  0  0  0  0  0  0
   12.2530   -0.7110   23.6140 C   0  0  0  0  0  0  0  0  0  0  0  0
   11.3890   -0.1590   24.7690 C   0  0  0  0  0  0  0  0  0  0  0  0
   10.0240    0.2490   25.4380 C   0  0  0  0  0  0  0  0  0  0  0  0
    8.9000    0.8850   24.6320 C   0  0  0  0  0  0  0  0  0  0  0  0
    7.8120    1.1510   25.4430 C   0  0  0  0  0  0  0  0  0  0  0  0
    8.0420    0.7670   26.7690 C   0  0  0  0  0  0  0  0  0  0  0  0
    6.8620    0.9790   28.0020 Cl  0  0  0  0  0  0  0  0  0  0  0  0
    9.6350    0.0400   27.1120 S   0  0  0  0  0  0  0  0  0  0  0  0
   10.0860   -0.2350   24.3060 N   0  0  0  0  0  0  0  0  0  0  0  0
    9.2120   -0.5480   23.3450 C   0  0  0  0  0  0  0  0  0  0  0  0
  1  2  2  0
  2  3  1  0
  3  4  1  0
  4  5  2  0
  5  6  1  0
  6  7  2  0
  7  8  1  0
  4  9  1  0
  8  9  2  0
  2 10  1  0
 10 11  1  0
 11 12  2  0
 12 13  1  0
 13 14  2  0
 14 15  1  0
 15 16  2  0
 16 17  1  0
 17 18  2  0
 18 19  1  0
 15 20  1  0
 18 20  1  0
 14 21  1  0
 11 22  1  0
 21 22  2  0
M  END
