pyridine_urea_6841
     RDKit          3D

 21 22  0  0  0  0  0  0  0  0999 V2000
    9.8660   -1.7240   23.9750 C   0  0  0  0  0  0  0  0  0  0  0  0
   10.4550   -1.2870   22.6450 C   0  0  1  0  0  0  0  0  0  0  0  0
    9.4130   -1.2540   21.6040 N   0  0  0  0  0  0  0  0  0  0  0  0
    8.5500   -0.1950   21.4240 C   0  0  0  0  0  0  0  0  0  0  0  0
    8.8960    0.9720   21.4960 O   0  0  0  0  0  0  0  0  0  0  0  0
    7.2780   -0.6070   21.0980 N   0  0  0  0  0  0  0  0  0  0  0  0
    6.5840    0.0120   20.0540 C   0  0  0  0  0  0  0  0  0  0  0  0
    5.3260    0.7830   20.3150 C   0  0  0  0  0  0  0  0  0  0  0  0
    4.6460    1.4220   19.2870 C   0  0  0  0  0  0  0  0  0  0  0  0
    5.1120    1.3720   17.9690 C   0  0  0  0  0  0  0  0  0  0  0  0
    6.3220    0.6130   17.7470 N   0  0  0  0  0  0  0  0  0  0  0  0
    6.9850   -0.0170   18.7530 C   0  0  0  0  0  0  0  0  0  0  0  0
   11.2840    0.0170   22.7830 C   0  0  0  0  0  0  0  0  0  0  0  0
   12.2190   -0.9580   22.6090 C   0  0  0  0  0  0  0  0  0  0  0  0
   13.5180   -1.2970   22.5010 F   0  0  0  0  0  0  0  0  0  0  0  0
   12.5880    0.2990   22.7670 C   0  0  0  0  0  0  0  0  0  0  0  0
   11.5030    1.2520   22.9610 C   0  0  0  0  0  0  0  0  0  0  0  0
   10.1610    1.0900   23.0300 F   0  0  0  0  0  0  0  0  0  0  0  0
   12.3960    2.3300   23.0410 C   0  0  0  0  0  0  0  0  0  0  0  0
   12.6520    0.9420   22.8390 C   0  0  0  0  0  0  0  0  0  0  0  0
   13.8920    0.4760   22.7020 F   0  0  0  0  0  0  0  0  0  0  0  0
  2  1  1  1
  2  3  1  0
  3  4  1  0
  4  5  2  0
  4  6  1  0
  6  7  1  0
  7  8  2  0
  8  9  1  0
  9 10  2  0
 10 11  1  0
  7 12  1  0
 11 12  2  0
  2 13  1  0
 13 14  2  0
 14 15  1  0
 14 16  1  0
 16 17  2  0
 17 18  1  0
 17 19  1  0
 13 20  1  0
 19 20  2  0
 20 21  1  0
M  END
