pyridine_urea_6688
     RDKit          3D

 22 23  0  0  0  0  0  0  0  0999 V2000
    8.6370    0.8430   21.2080 O   0  0  0  0  0  0  0  0  0  0  0  0
    8.2290   -0.2660   21.5260 C   0  0  0  0  0  0  0  0  0  0  0  0
    7.1030   -0.8350   21.0020 N   0  0  0  0  0  0  0  0  0  0  0  0
    6.3560   -0.1090   20.0700 C   0  0  0  0  0  0  0  0  0  0  0  0
    5.0320    0.6130   20.3710 C   0  0  0  0  0  0  0  0  0  0  0  0
    4.4380    1.3580   19.1770 C   0  0  0  0  0  0  0  0  0  0  0  0
    5.1860    1.3030   17.8870 C   0  0  0  0  0  0  0  0  0  0  0  0
    6.3380    0.6310   17.7360 N   0  0  0  0  0  0  0  0  0  0  0  0
    6.8690   -0.0300   18.7840 C   0  0  0  0  0  0  0  0  0  0  0  0
    8.9130   -1.0180   22.4440 N   0  0  0  0  0  0  0  0  0  0  0  0
   10.2670   -0.5880   22.5560 C   0  0  0  0  0  0  0  0  0  0  0  0
   11.3230   -1.4640   22.3450 C   0  0  0  0  0  0  0  0  0  0  0  0
   12.6070   -0.9890   22.4350 C   0  0  0  0  0  0  0  0  0  0  0  0
   12.7900    0.3420   22.7290 C   0  0  0  0  0  0  0  0  0  0  0  0
   14.0190    0.7670   22.7840 F   0  0  0  0  0  0  0  0  0  0  0  0
   11.7550    1.2350   22.9500 C   0  0  0  0  0  0  0  0  0  0  0  0
   10.4290    0.7640   22.8680 C   0  0  0  0  0  0  0  0  0  0  0  0
    9.3730    1.7080   23.0970 O   0  0  0  0  0  0  0  0  0  0  0  0
    9.7760    3.1080   23.0650 C   0  0  0  0  0  0  0  0  0  0  0  0
    9.0870    3.6610   24.1410 C   0  0  0  0  0  0  0  0  0  0  0  0
    9.7670    4.4410   24.9970 F   0  0  0  0  0  0  0  0  0  0  0  0
    8.0270    4.4130   23.7420 F   0  0  0  0  0  0  0  0  0  0  0  0
  1  2  2  0
  2  3  1  0
  3  4  1  0
  4  5  2  0
  5  6  1  0
  6  7  2  0
  7  8  1  0
  4  9  1  0
  8  9  2  0
  2 10  1  0
 10 11  1  0
 11 12  2  0
 12 13  1  0
 13 14  2  0
 14 15  1  0
 14 16  1  0
 11 17  1  0
 16 17  2  0
 17 18  1  0
 18 19  1  0
 19 20  1  0
 20 21  1  0
 20 22  1  0
M  END
