pyridine_urea_12060
     RDKit          3D

 24 26  0  0  0  0  0  0  0  0999 V2000
   12.5630   -1.7010   24.9360 C   0  0  0  0  0  0  0  0  0  0  0  0
   12.5500   -2.0330   23.6110 N   0  0  0  0  0  0  0  0  0  0  0  0
   13.4400   -2.8250   22.8870 C   0  0  0  0  0  0  0  0  0  0  0  0
   13.0810   -2.9210   21.5500 C   0  0  0  0  0  0  0  0  0  0  0  0
   11.9530   -2.2140   21.3520 N   0  0  0  0  0  0  0  0  0  0  0  0
   11.6330   -1.6410   22.6570 C   0  0  0  0  0  0  0  0  0  0  0  0
   10.6010   -0.8140   22.9880 C   0  0  2  0  0  0  0  0  0  0  0  0
    9.6790   -0.9710   21.9430 N   0  0  0  0  0  0  0  0  0  0  0  0
    8.7410   -0.0350   21.5900 C   0  0  0  0  0  0  0  0  0  0  0  0
    8.9300    1.1740   21.6060 O   0  0  0  0  0  0  0  0  0  0  0  0
    7.5400   -0.6250   21.1770 N   0  0  0  0  0  0  0  0  0  0  0  0
    6.8020   -0.0360   20.1560 C   0  0  0  0  0  0  0  0  0  0  0  0
    5.5790    0.8250   20.4450 C   0  0  0  0  0  0  0  0  0  0  0  0
    4.8230    1.4350   19.4410 C   0  0  0  0  0  0  0  0  0  0  0  0
    5.1840    1.2690   18.1060 C   0  0  0  0  0  0  0  0  0  0  0  0
    6.2880    0.4860   17.8050 N   0  0  0  0  0  0  0  0  0  0  0  0
    7.0430   -0.1280   18.7920 C   0  0  0  0  0  0  0  0  0  0  0  0
   11.2620    0.5890   23.1490 C   0  0  0  0  0  0  0  0  0  0  0  0
    9.9930    0.7600   23.6230 C   0  0  0  0  0  0  0  0  0  0  0  0
   10.8910    1.6430   23.5540 C   0  0  0  0  0  0  0  0  0  0  0  0
   12.1400    1.1630   23.0680 C   0  0  0  0  0  0  0  0  0  0  0  0
   12.8590   -0.4890   22.5200 Br  0  0  0  0  0  0  0  0  0  0  0  0
   12.7740    2.1790   23.0870 C   0  0  0  0  0  0  0  0  0  0  0  0
   11.3840    2.1160   23.5010 C   0  0  0  0  0  0  0  0  0  0  0  0
  1  2  1  0
  2  3  1  0
  3  4  2  0
  4  5  1  0
  2  6  1  0
  5  6  2  0
  6  7  1  0
  7  8  1  6
  8  9  1  0
  9 10  2  0
  9 11  1  0
 11 12  1  0
 12 13  2  0
 13 14  1  0
 14 15  2  0
 15 16  1  0
 12 17  1  0
 16 17  2  0
  7 18  1  0
 18 19  2  0
 19 20  1  0
 20 21  2  0
 21 22  1  0
 21 23  1  0
 18 24  1  0
 23 24  2  0
M  END
