pyridine_urea_583
     RDKit          3D

 24 26  0  0  0  0  0  0  0  0999 V2000
    8.7970   -5.8090   27.7450 C   0  0  0  0  0  0  0  0  0  0  0  0
    7.6680   -6.1320   28.1170 O   0  0  0  0  0  0  0  0  0  0  0  0
    6.6620   -5.8640   27.2320 C   0  0  0  0  0  0  0  0  0  0  0  0
    5.5460   -6.3810   27.2440 O   0  0  0  0  0  0  0  0  0  0  0  0
    7.0460   -4.9240   26.3000 C   0  0  0  0  0  0  0  0  0  0  0  0
    8.1480   -5.0530   25.4240 C   0  0  0  0  0  0  0  0  0  0  0  0
    8.4310   -4.0280   24.5440 C   0  0  0  0  0  0  0  0  0  0  0  0
    7.6090   -2.9190   24.5680 C   0  0  0  0  0  0  0  0  0  0  0  0
    7.7370   -1.7770   23.7540 N   0  0  0  0  0  0  0  0  0  0  0  0
    6.7610   -0.8950   24.0540 C   0  0  0  0  0  0  0  0  0  0  0  0
    6.7320    0.2940   23.3590 C   0  0  0  0  0  0  0  0  0  0  0  0
    8.0910    0.5740   22.9040 N   0  0  0  0  0  0  0  0  0  0  0  0
    8.4150   -0.1760   21.6820 C   0  0  0  0  0  0  0  0  0  0  0  0
    9.6910   -0.3570   21.2780 O   0  0  0  0  0  0  0  0  0  0  0  0
    7.2790   -0.6410   21.0440 N   0  0  0  0  0  0  0  0  0  0  0  0
    6.5100    0.0420   20.0870 C   0  0  0  0  0  0  0  0  0  0  0  0
    5.3520    0.7840   20.3500 C   0  0  0  0  0  0  0  0  0  0  0  0
    4.6610    1.4580   19.2270 C   0  0  0  0  0  0  0  0  0  0  0  0
    5.1810    1.3330   17.9510 C   0  0  0  0  0  0  0  0  0  0  0  0
    6.2870    0.6190   17.6770 N   0  0  0  0  0  0  0  0  0  0  0  0
    6.9260   -0.0140   18.7600 C   0  0  0  0  0  0  0  0  0  0  0  0
    5.9690   -1.4040   25.0480 N   0  0  0  0  0  0  0  0  0  0  0  0
    6.5080   -2.6530   25.3540 C   0  0  0  0  0  0  0  0  0  0  0  0
    6.1790   -3.6400   26.2520 C   0  0  0  0  0  0  0  0  0  0  0  0
  1  2  1  0
  2  3  1  0
  3  4  2  0
  3  5  1  0
  5  6  2  0
  6  7  1  0
  7  8  2  0
  8  9  1  0
  9 10  1  0
 10 11  1  0
 11 12  1  0
 12 13  1  0
 13 14  2  0
 13 15  1  0
 15 16  1  0
 16 17  2  0
 17 18  1  0
 18 19  2  0
 19 20  1  0
 16 21  1  0
 20 21  2  0
 10 22  2  0
  8 23  1  0
 22 23  1  0
  5 24  1  0
 23 24  2  0
M  END
