pyridine_urea_10323
     RDKit          3D

 22 24  0  0  0  0  0  0  0  0999 V2000
    8.9770    1.3210   21.1750 O   0  0  0  0  0  0  0  0  0  0  0  0
    8.3760    0.3810   21.7040 C   0  0  0  0  0  0  0  0  0  0  0  0
    8.6100   -0.1050   22.9790 N   0  0  0  0  0  0  0  0  0  0  0  0
    9.7820   -0.0440   23.7870 C   0  0  0  0  0  0  0  0  0  0  0  0
   10.7650    1.1670   23.8640 C   0  0  0  0  0  0  0  0  0  0  0  0
   12.1750    1.0750   23.2040 C   0  0  0  0  0  0  0  0  0  0  0  0
   13.1210    0.0580   23.7990 C   0  0  0  0  0  0  0  0  0  0  0  0
   12.1660   -0.6860   23.2830 C   0  0  0  0  0  0  0  0  0  0  0  0
   11.1180   -0.1520   22.6150 C   0  0  0  0  0  0  0  0  0  0  0  0
   10.9730   -1.5110   22.6810 C   0  0  0  0  0  0  0  0  0  0  0  0
    9.4550   -2.2950   21.9330 Br  0  0  0  0  0  0  0  0  0  0  0  0
   12.0210   -2.1840   23.3420 C   0  0  0  0  0  0  0  0  0  0  0  0
   13.1150   -1.4940   23.9050 C   0  0  0  0  0  0  0  0  0  0  0  0
   10.1500    2.5770   24.0790 C   0  0  0  0  0  0  0  0  0  0  0  0
   10.4400    2.4290   22.7920 C   0  0  0  0  0  0  0  0  0  0  0  0
    7.3480   -0.3240   21.1130 N   0  0  0  0  0  0  0  0  0  0  0  0
    6.6190    0.1790   20.0640 C   0  0  0  0  0  0  0  0  0  0  0  0
    5.4760    0.9140   20.3350 C   0  0  0  0  0  0  0  0  0  0  0  0
    4.7200    1.4600   19.3040 C   0  0  0  0  0  0  0  0  0  0  0  0
    5.1510    1.2440   18.0090 C   0  0  0  0  0  0  0  0  0  0  0  0
    6.2430    0.5320   17.7140 N   0  0  0  0  0  0  0  0  0  0  0  0
    6.9560    0.0110   18.7370 C   0  0  0  0  0  0  0  0  0  0  0  0
  1  2  2  0
  2  3  1  0
  3  4  1  0
  5  4  1  0
  5  6  1  0
  6  7  1  0
  7  8  2  0
  8  9  1  0
  9 10  2  0
 10 11  1  0
 10 12  1  0
  7 13  1  0
 12 13  2  0
  5 14  1  0
  5 15  1  0
 14 15  1  0
  2 16  1  0
 16 17  1  0
 17 18  2  0
 18 19  1  0
 19 20  2  0
 20 21  1  0
 17 22  1  0
 21 22  2  0
M  END
