pyridine_urea_8515
     RDKit          3D

 22 23  0  0  0  0  0  0  0  0999 V2000
    8.9640    1.1140   21.2670 O   0  0  0  0  0  0  0  0  0  0  0  0
    8.4470    0.0210   21.5320 C   0  0  0  0  0  0  0  0  0  0  0  0
    8.9570   -0.9270   22.3800 N   0  0  0  0  0  0  0  0  0  0  0  0
   10.3240   -1.1850   22.5680 C   0  0  0  0  0  0  0  0  0  0  0  0
   10.9200   -0.4980   23.6120 C   0  0  0  0  0  0  0  0  0  0  0  0
   12.2930   -0.3370   23.4880 C   0  0  0  0  0  0  0  0  0  0  0  0
   12.6800    0.9270   23.1170 C   0  0  0  0  0  0  0  0  0  0  0  0
   11.8730    1.6110   22.5200 O   0  0  0  0  0  0  0  0  0  0  0  0
   11.7420    2.9730   22.9320 C   0  0  0  0  0  0  0  0  0  0  0  0
   12.8350    3.8140   22.7660 C   0  0  0  0  0  0  0  0  0  0  0  0
   12.6870    5.2650   23.2320 C   0  0  0  0  0  0  0  0  0  0  0  0
   11.4720    5.6600   23.7970 C   0  0  0  0  0  0  0  0  0  0  0  0
   11.3290    7.2920   24.3380 Cl  0  0  0  0  0  0  0  0  0  0  0  0
   10.4360    4.7490   23.9120 C   0  0  0  0  0  0  0  0  0  0  0  0
   10.5430    3.4230   23.4920 C   0  0  0  0  0  0  0  0  0  0  0  0
    7.2560   -0.4140   21.0200 N   0  0  0  0  0  0  0  0  0  0  0  0
    6.5170    0.1610   19.9940 C   0  0  0  0  0  0  0  0  0  0  0  0
    5.3520    0.8700   20.2980 C   0  0  0  0  0  0  0  0  0  0  0  0
    4.6490    1.4540   19.2590 C   0  0  0  0  0  0  0  0  0  0  0  0
    5.1210    1.3170   17.9630 C   0  0  0  0  0  0  0  0  0  0  0  0
    6.2250    0.6310   17.6610 N   0  0  0  0  0  0  0  0  0  0  0  0
    6.8940    0.0710   18.6800 C   0  0  0  0  0  0  0  0  0  0  0  0
  1  2  2  0
  2  3  1  0
  3  4  1  0
  4  5  1  0
  5  6  1  0
  6  7  1  0
  7  8  1  0
  8  9  1  0
  9 10  2  0
 10 11  1  0
 11 12  2  0
 12 13  1  0
 12 14  1  0
  9 15  1  0
 14 15  2  0
  2 16  1  0
 16 17  1  0
 17 18  2  0
 18 19  1  0
 19 20  2  0
 20 21  1  0
 17 22  1  0
 21 22  2  0
M  END
