pyridine_urea_14749
     RDKit          3D

 20 21  0  0  0  0  0  0  0  0999 V2000
   13.6350   -2.6350   24.3250 C   0  0  0  0  0  0  0  0  0  0  0  0
   13.2050   -1.6580   23.4500 N   0  0  0  0  0  0  0  0  0  0  0  0
   12.6980   -1.9170   22.1850 C   0  0  0  0  0  0  0  0  0  0  0  0
   11.3220   -1.9490   22.0720 C   0  0  0  0  0  0  0  0  0  0  0  0
   10.6110   -2.1950   23.2460 N   0  0  0  0  0  0  0  0  0  0  0  0
    9.2220   -2.6650   23.2590 C   0  0  0  0  0  0  0  0  0  0  0  0
    8.7440   -3.8140   23.3280 O   0  0  0  0  0  0  0  0  0  0  0  0
    8.2460   -1.6980   23.1860 C   0  0  0  0  0  0  0  0  0  0  0  0
    8.8270   -0.4900   22.5740 N   0  0  0  0  0  0  0  0  0  0  0  0
    8.2520    0.1060   21.4670 C   0  0  0  0  0  0  0  0  0  0  0  0
    8.6880    1.1880   21.0240 O   0  0  0  0  0  0  0  0  0  0  0  0
    7.1900   -0.6400   21.0030 N   0  0  0  0  0  0  0  0  0  0  0  0
    6.5260    0.0450   19.9780 C   0  0  0  0  0  0  0  0  0  0  0  0
    5.3560    0.7620   20.2500 C   0  0  0  0  0  0  0  0  0  0  0  0
    4.7080    1.4390   19.2100 C   0  0  0  0  0  0  0  0  0  0  0  0
    5.2670    1.3760   17.9470 C   0  0  0  0  0  0  0  0  0  0  0  0
    6.3760    0.6980   17.6620 N   0  0  0  0  0  0  0  0  0  0  0  0
    6.9770    0.0540   18.6810 C   0  0  0  0  0  0  0  0  0  0  0  0
   11.2790   -1.7270   24.4900 C   0  0  0  0  0  0  0  0  0  0  0  0
   12.3050   -0.8700   24.0810 C   0  0  0  0  0  0  0  0  0  0  0  0
  1  2  1  0
  2  3  1  0
  3  4  1  0
  4  5  1  0
  5  6  1  0
  6  7  2  0
  6  8  1  0
  8  9  1  0
  9 10  1  0
 10 11  2  0
 10 12  1  0
 12 13  1  0
 13 14  2  0
 14 15  1  0
 15 16  2  0
 16 17  1  0
 13 18  1  0
 17 18  2  0
  5 19  1  0
  2 20  1  0
 19 20  1  0
M  END
