pyridine_urea_4286
     RDKit          3D

 24 26  0  0  0  0  0  0  0  0999 V2000
    9.0500    1.0920   21.2210 O   0  0  0  0  0  0  0  0  0  0  0  0
    8.4480    0.1050   21.6740 C   0  0  0  0  0  0  0  0  0  0  0  0
    9.0820   -0.8780   22.4010 N   0  0  0  0  0  0  0  0  0  0  0  0
   10.4850   -0.6240   22.5660 C   0  0  0  0  0  0  0  0  0  0  0  0
   10.8240    0.8200   22.8950 C   0  0  0  0  0  0  0  0  0  0  0  0
   12.2940    1.1750   23.0630 C   0  0  0  0  0  0  0  0  0  0  0  0
   13.2660    0.0220   22.8910 C   0  0  0  0  0  0  0  0  0  0  0  0
   12.8110   -1.2720   22.5920 N   0  0  0  0  0  0  0  0  0  0  0  0
   11.4840   -1.5760   22.4340 C   0  0  0  0  0  0  0  0  0  0  0  0
    7.0900   -0.0940   21.5160 N   0  0  0  0  0  0  0  0  0  0  0  0
    6.4560    0.8920   20.7430 C   0  0  2  0  0  0  0  0  0  0  0  0
    5.0730    0.9910   20.6390 C   0  0  0  0  0  0  0  0  0  0  0  0
    4.5390    1.6340   19.4960 C   0  0  0  0  0  0  0  0  0  0  0  0
    5.4790    1.9790   18.4980 C   0  0  0  0  0  0  0  0  0  0  0  0
    6.6140    1.1940   18.3420 N   0  0  0  0  0  0  0  0  0  0  0  0
    7.2360    0.8280   17.1390 C   0  0  0  0  0  0  0  0  0  0  0  0
    7.2190    1.6510   16.0230 C   0  0  0  0  0  0  0  0  0  0  0  0
    7.8590    1.3600   14.8810 N   0  0  0  0  0  0  0  0  0  0  0  0
    8.1690    0.1680   14.7850 C   0  0  0  0  0  0  0  0  0  0  0  0
    7.6810   -0.1870   13.4250 C   0  0  0  0  0  0  0  0  0  0  0  0
    6.7480    0.1460   12.3920 O   0  0  0  0  0  0  0  0  0  0  0  0
    6.7710    1.4200   12.5410 C   0  0  0  0  0  0  0  0  0  0  0  0
    7.4870    0.9180   13.5580 C   0  0  0  0  0  0  0  0  0  0  0  0
    7.1380    0.6390   19.4100 C   0  0  0  0  0  0  0  0  0  0  0  0
  1  2  2  0
  2  3  1  0
  3  4  1  0
  4  5  2  0
  5  6  1  0
  6  7  2  0
  7  8  1  0
  4  9  1  0
  8  9  2  0
  2 10  1  0
 11 10  1  1
 11 12  1  0
 12 13  1  0
 13 14  1  0
 14 15  1  0
 15 16  1  0
 16 17  1  0
 17 18  1  0
 18 19  1  0
 19 20  1  0
 20 21  1  0
 21 22  1  0
 18 23  1  0
 22 23  1  0
 11 24  1  0
 15 24  1  0
M  END
