pyridine_urea_962
     RDKit          3D

 22 24  0  0  0  0  0  0  0  0999 V2000
    8.9900    1.3000   21.2910 O   0  0  0  0  0  0  0  0  0  0  0  0
    8.0420    0.6350   21.7280 C   0  0  0  0  0  0  0  0  0  0  0  0
    7.5430    0.7050   23.0840 N   0  0  0  0  0  0  0  0  0  0  0  0
    6.7360   -0.3490   23.4950 C   0  0  0  0  0  0  0  0  0  0  0  0
    7.5600   -1.4160   23.6090 C   0  0  0  0  0  0  0  0  0  0  0  0
    7.3350   -2.7610   23.8660 N   0  0  0  0  0  0  0  0  0  0  0  0
    8.5850   -3.3430   23.8580 N   0  0  0  0  0  0  0  0  0  0  0  0
    9.4810   -2.1930   23.5760 C   0  0  0  0  0  0  0  0  0  0  0  0
   10.8350   -2.3180   23.4880 C   0  0  0  0  0  0  0  0  0  0  0  0
   11.5800   -2.3060   24.7670 C   0  0  0  0  0  0  0  0  0  0  0  0
   13.0560   -2.4680   24.7040 C   0  0  0  0  0  0  0  0  0  0  0  0
   13.6060   -2.6120   23.3210 C   0  0  0  0  0  0  0  0  0  0  0  0
   12.8330   -2.5830   22.1800 C   0  0  0  0  0  0  0  0  0  0  0  0
   11.4620   -2.4410   22.2570 C   0  0  0  0  0  0  0  0  0  0  0  0
    8.8130   -1.1180   23.4450 N   0  0  0  0  0  0  0  0  0  0  0  0
    7.3460   -0.1820   20.9240 N   0  0  0  0  0  0  0  0  0  0  0  0
    6.5250    0.3200   19.9220 C   0  0  0  0  0  0  0  0  0  0  0  0
    5.3510    0.9810   20.2040 C   0  0  0  0  0  0  0  0  0  0  0  0
    4.6350    1.4770   19.1550 C   0  0  0  0  0  0  0  0  0  0  0  0
    5.0920    1.3050   17.8680 C   0  0  0  0  0  0  0  0  0  0  0  0
    6.2130    0.6530   17.5860 N   0  0  0  0  0  0  0  0  0  0  0  0
    6.9050    0.1730   18.6230 C   0  0  0  0  0  0  0  0  0  0  0  0
  1  2  2  0
  2  3  1  0
  3  4  1  0
  4  5  1  0
  5  6  2  0
  6  7  1  0
  7  8  2  0
  8  9  1  0
  9 10  2  0
 10 11  1  0
 11 12  2  0
 12 13  1  0
  9 14  1  0
 13 14  2  0
  5 15  1  0
  8 15  1  0
  2 16  1  0
 16 17  1  0
 17 18  2  0
 18 19  1  0
 19 20  2  0
 20 21  1  0
 17 22  1  0
 21 22  2  0
M  END
