pyridine_urea_1660
     RDKit          3D

 19 21  0  0  0  0  0  0  0  0999 V2000
    8.5860    0.7900   21.5140 O   0  0  0  0  0  0  0  0  0  0  0  0
    8.1430   -0.3500   21.5830 C   0  0  0  0  0  0  0  0  0  0  0  0
    6.9500   -0.7450   21.0710 N   0  0  0  0  0  0  0  0  0  0  0  0
    6.3480   -0.0650   20.0070 C   0  0  0  0  0  0  0  0  0  0  0  0
    5.1520    0.6240   20.2210 C   0  0  0  0  0  0  0  0  0  0  0  0
    4.5590    1.3200   19.1690 C   0  0  0  0  0  0  0  0  0  0  0  0
    5.1850    1.3030   17.9410 C   0  0  0  0  0  0  0  0  0  0  0  0
    6.3310    0.6420   17.7180 N   0  0  0  0  0  0  0  0  0  0  0  0
    6.8830   -0.0240   18.7440 C   0  0  0  0  0  0  0  0  0  0  0  0
    8.8710   -1.3370   22.1840 N   0  0  0  0  0  0  0  0  0  0  0  0
   10.2570   -0.9570   22.1670 C   0  0  0  0  0  0  0  0  0  0  0  0
   10.6990   -0.3290   23.4020 C   0  0  0  0  0  0  0  0  0  0  0  0
   12.0060   -0.6600   23.2430 N   0  0  0  0  0  0  0  0  0  0  0  0
   12.7190    0.3550   22.7680 C   0  0  0  0  0  0  0  0  0  0  0  0
   13.6400    0.0640   22.0490 O   0  0  0  0  0  0  0  0  0  0  0  0
   12.4150    1.6690   23.1620 C   0  0  0  0  0  0  0  0  0  0  0  0
   12.1860    2.7340   22.5440 C   0  0  0  0  0  0  0  0  0  0  0  0
   10.9340    2.0300   22.8690 C   0  0  0  0  0  0  0  0  0  0  0  0
   11.5420   -1.5880   22.2750 C   0  0  0  0  0  0  0  0  0  0  0  0
  1  2  2  0
  2  3  1  0
  3  4  1  0
  4  5  2  0
  5  6  1  0
  6  7  2  0
  7  8  1  0
  4  9  1  0
  8  9  2  0
  2 10  1  0
 10 11  1  0
 11 12  1  0
 12 13  1  0
 13 14  1  0
 14 15  2  0
 14 16  1  0
 16 17  1  0
 16 18  1  0
 17 18  1  0
 11 19  1  0
 13 19  1  0
M  END
