pyridine_urea_2323
     RDKit          3D

 25 27  0  0  0  0  0  0  0  0999 V2000
   12.9450   -2.2050   23.6990 C   0  0  0  0  0  0  0  0  0  0  0  0
   12.4030   -1.1280   22.7580 C   0  0  0  0  0  0  0  0  0  0  0  0
   12.8850    0.1540   23.0760 C   0  0  0  0  0  0  0  0  0  0  0  0
   10.8520   -1.1410   22.8280 C   0  0  0  0  0  0  0  0  0  0  0  0
   10.9190    0.1700   22.8390 C   0  0  0  0  0  0  0  0  0  0  0  0
    9.4710   -0.1550   22.7650 N   0  0  0  0  0  0  0  0  0  0  0  0
    8.7090    0.3410   21.6520 C   0  0  0  0  0  0  0  0  0  0  0  0
    9.0270    1.4490   21.1830 O   0  0  0  0  0  0  0  0  0  0  0  0
    7.5860   -0.4770   21.1240 N   0  0  0  0  0  0  0  0  0  0  0  0
    6.7260    0.0720   20.1770 C   0  0  0  0  0  0  0  0  0  0  0  0
    5.4540    0.8700   20.4780 C   0  0  0  0  0  0  0  0  0  0  0  0
    4.7110    1.3740   19.4010 C   0  0  0  0  0  0  0  0  0  0  0  0
    5.1730    1.1200   18.1190 C   0  0  0  0  0  0  0  0  0  0  0  0
    6.2760    0.4190   17.8040 N   0  0  0  0  0  0  0  0  0  0  0  0
    7.0170   -0.0850   18.8260 C   0  0  0  0  0  0  0  0  0  0  0  0
   10.1180    1.3290   22.8690 C   0  0  0  0  0  0  0  0  0  0  0  0
    8.9780    0.6630   22.9100 N   0  0  0  0  0  0  0  0  0  0  0  0
    9.4030   -0.7310   22.8960 N   0  0  0  0  0  0  0  0  0  0  0  0
    8.2690   -1.6040   22.9790 C   0  0  0  0  0  0  0  0  0  0  0  0
    7.0380   -1.0720   23.3650 C   0  0  0  0  0  0  0  0  0  0  0  0
    5.9360   -1.9220   23.4460 C   0  0  0  0  0  0  0  0  0  0  0  0
    6.0760   -3.2760   23.1480 C   0  0  0  0  0  0  0  0  0  0  0  0
    4.7150   -4.3220   23.2460 Cl  0  0  0  0  0  0  0  0  0  0  0  0
    7.3240   -3.7810   22.7690 C   0  0  0  0  0  0  0  0  0  0  0  0
    8.4370   -2.9370   22.6820 C   0  0  0  0  0  0  0  0  0  0  0  0
  1  2  1  0
  2  3  1  0
  2  4  1  0
  4  5  2  0
  5  6  1  0
  6  7  1  0
  7  8  2  0
  7  9  1  0
  9 10  1  0
 10 11  2  0
 11 12  1  0
 12 13  2  0
 13 14  1  0
 10 15  1  0
 14 15  2  0
  5 16  1  0
 16 17  2  0
  4 18  1  0
 17 18  1  0
 18 19  1  0
 19 20  2  0
 20 21  1  0
 21 22  2  0
 22 23  1  0
 22 24  1  0
 19 25  1  0
 24 25  2  0
M  END
