pyridine_urea_437
     RDKit          3D

 25 27  0  0  0  0  0  0  0  0999 V2000
   13.9560   -3.5920   20.4130 C   0  0  0  0  0  0  0  0  0  0  0  0
   13.1140   -2.7880   21.3720 C   0  0  0  0  0  0  0  0  0  0  0  0
   11.9670   -2.5320   20.8540 C   0  0  0  0  0  0  0  0  0  0  0  0
   11.0050   -1.7940   21.4160 C   0  0  0  0  0  0  0  0  0  0  0  0
   11.2760   -1.3090   22.5320 C   0  0  0  0  0  0  0  0  0  0  0  0
   10.4420   -0.4720   23.0710 N   0  0  0  0  0  0  0  0  0  0  0  0
    8.9210   -0.2020   23.3230 N   0  0  0  0  0  0  0  0  0  0  0  0
    8.7720    1.0630   24.1320 C   0  0  0  0  0  0  0  0  0  0  0  0
    9.7990    0.4370   23.6390 C   0  0  0  0  0  0  0  0  0  0  0  0
    9.1760   -0.6070   22.9060 N   0  0  0  0  0  0  0  0  0  0  0  0
    8.4310   -0.1550   21.7320 C   0  0  0  0  0  0  0  0  0  0  0  0
    8.6850    0.9080   21.1690 O   0  0  0  0  0  0  0  0  0  0  0  0
    7.3690   -0.8470   21.1950 N   0  0  0  0  0  0  0  0  0  0  0  0
    6.6060   -0.1650   20.2660 C   0  0  0  0  0  0  0  0  0  0  0  0
    5.4340    0.5500   20.5570 C   0  0  0  0  0  0  0  0  0  0  0  0
    4.7460    1.2070   19.5370 C   0  0  0  0  0  0  0  0  0  0  0  0
    5.2910    1.1220   18.1710 C   0  0  0  0  0  0  0  0  0  0  0  0
    6.4130    0.4390   17.8720 N   0  0  0  0  0  0  0  0  0  0  0  0
    7.0170   -0.1740   18.9190 C   0  0  0  0  0  0  0  0  0  0  0  0
   11.0170    0.4690   23.5690 C   0  0  0  0  0  0  0  0  0  0  0  0
   12.2560    0.9510   23.7730 C   0  0  0  0  0  0  0  0  0  0  0  0
   13.2300    0.3330   23.0100 C   0  0  0  0  0  0  0  0  0  0  0  0
   12.2100    2.3330   23.1880 C   0  0  0  0  0  0  0  0  0  0  0  0
   12.4700   -1.5700   23.2100 C   0  0  0  0  0  0  0  0  0  0  0  0
   13.4460   -2.3470   22.6370 C   0  0  0  0  0  0  0  0  0  0  0  0
  1  2  1  0
  2  3  2  0
  3  4  1  0
  4  5  2  0
  5  6  1  0
  6  7  1  0
  7  8  2  0
  8  9  1  0
  9 10  1  0
 10 11  1  0
 11 12  2  0
 11 13  1  0
 13 14  1  0
 14 15  2  0
 15 16  1  0
 16 17  2  0
 17 18  1  0
 14 19  1  0
 18 19  2  0
  6 20  1  0
  9 20  2  0
 20 21  1  0
 21 22  1  0
 21 23  1  0
  5 24  1  0
  2 25  1  0
 24 25  2  0
M  END
