pyridine_urea_4644
     RDKit          3D

 22 23  0  0  0  0  0  0  0  0999 V2000
   10.6960    0.9430   23.4100 C   0  0  0  0  0  0  0  0  0  0  0  0
   11.3010   -0.2470   22.7380 C   0  0  2  0  0  0  0  0  0  0  0  0
   10.1900   -1.0210   22.0430 C   0  0  0  0  0  0  0  0  0  0  0  0
    8.9120   -0.5320   22.4540 N   0  0  0  0  0  0  0  0  0  0  0  0
    8.3110    0.2690   21.5400 C   0  0  0  0  0  0  0  0  0  0  0  0
    8.8030    1.3390   21.1600 O   0  0  0  0  0  0  0  0  0  0  0  0
    7.1270   -0.2750   21.1180 N   0  0  0  0  0  0  0  0  0  0  0  0
    6.4480    0.2400   20.0310 C   0  0  0  0  0  0  0  0  0  0  0  0
    5.2800    0.9710   20.2580 C   0  0  0  0  0  0  0  0  0  0  0  0
    4.6090    1.5150   19.1790 C   0  0  0  0  0  0  0  0  0  0  0  0
    5.1210    1.3110   17.9110 C   0  0  0  0  0  0  0  0  0  0  0  0
    6.2320    0.6040   17.6690 N   0  0  0  0  0  0  0  0  0  0  0  0
    6.8660    0.0860   18.7300 C   0  0  0  0  0  0  0  0  0  0  0  0
   11.9870   -1.0660   23.5400 C   0  0  0  0  0  0  0  0  0  0  0  0
   12.8340    0.0840   23.1770 C   0  0  0  0  0  0  0  0  0  0  0  0
   13.0530   -0.9930   23.9280 C   0  0  0  0  0  0  0  0  0  0  0  0
   11.9030   -1.7740   23.9260 C   0  0  0  0  0  0  0  0  0  0  0  0
   12.2060   -2.7710   24.6700 C   0  0  0  0  0  0  0  0  0  0  0  0
   13.0880   -1.7060   24.4030 C   0  0  0  0  0  0  0  0  0  0  0  0
   13.7350   -2.6250   25.2460 N   0  0  0  0  0  0  0  0  0  0  0  0
   13.1420   -3.6730   25.3150 O   0  0  0  0  0  0  0  0  0  0  0  0
   14.4290   -2.2070   26.1620 O   0  0  0  0  0  0  0  0  0  0  0  0
  2  1  1  1
  2  3  1  0
  3  4  1  0
  4  5  1  0
  5  6  2  0
  5  7  1  0
  7  8  1  0
  8  9  2  0
  9 10  1  0
 10 11  2  0
 11 12  1  0
  8 13  1  0
 12 13  2  0
  2 14  1  0
 14 15  2  0
 15 16  1  0
 16 17  2  0
 17 18  1  0
 14 19  1  0
 18 19  2  0
 19 20  1  0
 20 21  2  0
 20 22  1  0
M  CHG  2  20   1  22  -1
M  END
