pyridine_urea_2946
     RDKit          3D

 22 24  0  0  0  0  0  0  0  0999 V2000
   13.5860   -3.0520   20.6690 C   0  0  0  0  0  0  0  0  0  0  0  0
   13.3410   -2.4610   21.9880 C   0  0  0  0  0  0  0  0  0  0  0  0
   13.7990   -2.9420   23.3120 N   0  0  0  0  0  0  0  0  0  0  0  0
   13.2950   -1.9520   24.1640 O   0  0  0  0  0  0  0  0  0  0  0  0
   12.7130   -1.2100   23.2160 C   0  0  0  0  0  0  0  0  0  0  0  0
   12.0090   -0.1560   23.1950 C   0  0  0  0  0  0  0  0  0  0  0  0
   12.5550    1.2630   23.2140 C   0  0  0  0  0  0  0  0  0  0  0  0
   11.6260    2.2700   23.1370 C   0  0  0  0  0  0  0  0  0  0  0  0
   10.1630    1.8630   23.0340 C   0  0  0  0  0  0  0  0  0  0  0  0
    9.7590    0.4100   23.0120 C   0  0  0  0  0  0  0  0  0  0  0  0
    8.3890    0.1220   22.8700 N   0  0  0  0  0  0  0  0  0  0  0  0
    8.0750    0.4050   21.5860 C   0  0  0  0  0  0  0  0  0  0  0  0
    8.6440    1.3190   20.9780 O   0  0  0  0  0  0  0  0  0  0  0  0
    7.0980   -0.3850   21.0600 N   0  0  0  0  0  0  0  0  0  0  0  0
    6.3500    0.1900   20.0570 C   0  0  0  0  0  0  0  0  0  0  0  0
    5.0190    0.8870   20.2520 C   0  0  0  0  0  0  0  0  0  0  0  0
    4.4610    1.4600   18.9830 C   0  0  0  0  0  0  0  0  0  0  0  0
    5.1480    1.3220   17.8050 C   0  0  0  0  0  0  0  0  0  0  0  0
    6.3180    0.6840   17.6640 N   0  0  0  0  0  0  0  0  0  0  0  0
    6.8640    0.1510   18.7710 C   0  0  0  0  0  0  0  0  0  0  0  0
   10.7040   -0.5120   23.0980 C   0  0  0  0  0  0  0  0  0  0  0  0
   12.6980   -1.4330   21.9460 N   0  0  0  0  0  0  0  0  0  0  0  0
  1  2  1  0
  2  3  2  0
  3  4  1  0
  4  5  1  0
  5  6  1  0
  6  7  2  0
  7  8  1  0
  8  9  2  0
  9 10  1  0
 10 11  1  0
 11 12  1  0
 12 13  2  0
 12 14  1  0
 14 15  1  0
 15 16  2  0
 16 17  1  0
 17 18  2  0
 18 19  1  0
 15 20  1  0
 19 20  2  0
  6 21  1  0
 10 21  2  0
  2 22  1  0
  5 22  2  0
M  END
