pyridine_urea_591
     RDKit          3D

 24 25  0  0  0  0  0  0  0  0999 V2000
   10.5260   -0.0210   25.1610 C   0  0  0  0  0  0  0  0  0  0  0  0
   10.8700    1.0660   24.1510 C   0  0  2  0  0  0  0  0  0  0  0  0
   10.0340    1.0420   23.1060 C   0  0  0  0  0  0  0  0  0  0  0  0
    9.8210   -0.2230   22.6180 C   0  0  0  0  0  0  0  0  0  0  0  0
    8.4180   -0.5120   22.5720 N   0  0  0  0  0  0  0  0  0  0  0  0
    7.8340   -0.0050   21.4510 C   0  0  0  0  0  0  0  0  0  0  0  0
    8.2520    1.0450   20.9580 O   0  0  0  0  0  0  0  0  0  0  0  0
    6.8110   -0.7080   20.9610 N   0  0  0  0  0  0  0  0  0  0  0  0
    6.2850   -0.0380   19.9480 C   0  0  0  0  0  0  0  0  0  0  0  0
    4.9850    0.7740   20.1170 C   0  0  0  0  0  0  0  0  0  0  0  0
    4.4770    1.4850   19.0310 C   0  0  0  0  0  0  0  0  0  0  0  0
    5.1670    1.4360   17.8190 C   0  0  0  0  0  0  0  0  0  0  0  0
    6.3150    0.7070   17.6790 N   0  0  0  0  0  0  0  0  0  0  0  0
    6.8780   -0.0250   18.7140 C   0  0  0  0  0  0  0  0  0  0  0  0
   12.2800    0.9870   23.5760 C   0  0  0  0  0  0  0  0  0  0  0  0
   13.4010    0.4380   22.8150 C   0  0  0  0  0  0  0  0  0  0  0  0
   13.2410   -0.7940   22.1180 C   0  0  0  0  0  0  0  0  0  0  0  0
   12.0210   -1.5050   22.1340 C   0  0  0  0  0  0  0  0  0  0  0  0
   10.8750   -1.0670   22.8230 C   0  0  0  0  0  0  0  0  0  0  0  0
   10.3730   -2.2200   22.2930 C   0  0  0  0  0  0  0  0  0  0  0  0
   11.3700   -2.7400   21.5690 F   0  0  0  0  0  0  0  0  0  0  0  0
    9.3210   -2.0840   21.4400 F   0  0  0  0  0  0  0  0  0  0  0  0
    9.9310   -3.1270   23.2080 F   0  0  0  0  0  0  0  0  0  0  0  0
   12.0660   -0.1940   22.9250 C   0  0  0  0  0  0  0  0  0  0  0  0
  2  1  1  1
  2  3  1  0
  3  4  1  0
  4  5  1  0
  5  6  1  0
  6  7  2  0
  6  8  1  0
  8  9  1  0
  9 10  2  0
 10 11  1  0
 11 12  2  0
 12 13  1  0
  9 14  1  0
 13 14  2  0
  2 15  1  0
 15 16  2  0
 16 17  1  0
 17 18  2  0
 18 19  1  0
 19 20  1  0
 20 21  1  0
 20 22  1  0
 20 23  1  0
 15 24  1  0
 19 24  2  0
M  END
