pyridine_urea_9204
     RDKit          3D

 18 18  0  0  0  0  0  0  0  0999 V2000
    9.4400   -4.8350   26.6840 C   0  0  0  0  0  0  0  0  0  0  0  0
   10.2140   -4.0340   25.6700 C   0  0  0  0  0  0  0  0  0  0  0  0
    9.4090   -3.0170   24.9880 N   0  0  0  0  0  0  0  0  0  0  0  0
   10.0050   -2.1390   24.0960 C   0  0  0  0  0  0  0  0  0  0  0  0
   11.0570   -1.5740   24.3580 O   0  0  0  0  0  0  0  0  0  0  0  0
    9.3730   -1.9330   22.8590 C   0  0  0  0  0  0  0  0  0  0  0  0
   10.3040   -2.1240   21.8720 C   0  0  0  0  0  0  0  0  0  0  0  0
    8.2630   -2.7840   22.7100 C   0  0  0  0  0  0  0  0  0  0  0  0
    8.8240   -0.6410   22.8640 N   0  0  0  0  0  0  0  0  0  0  0  0
    8.3620   -0.0640   21.6840 C   0  0  0  0  0  0  0  0  0  0  0  0
    8.9780    1.1450   21.1990 O   0  0  0  0  0  0  0  0  0  0  0  0
    7.3130   -0.7010   21.0940 N   0  0  0  0  0  0  0  0  0  0  0  0
    6.6350   -0.0590   20.1000 C   0  0  0  0  0  0  0  0  0  0  0  0
    5.5080    0.6870   20.4280 C   0  0  0  0  0  0  0  0  0  0  0  0
    4.7930    1.3560   19.4280 C   0  0  0  0  0  0  0  0  0  0  0  0
    5.2380    1.2570   18.1210 C   0  0  0  0  0  0  0  0  0  0  0  0
    6.3180    0.5440   17.7730 N   0  0  0  0  0  0  0  0  0  0  0  0
    6.9870   -0.0970   18.7610 C   0  0  0  0  0  0  0  0  0  0  0  0
  1  2  1  0
  2  3  1  0
  3  4  1  0
  4  5  2  0
  6  4  1  0
  6  7  1  0
  6  8  1  0
  6  9  1  0
  9 10  1  0
 10 11  2  0
 10 12  1  0
 12 13  1  0
 13 14  2  0
 14 15  1  0
 15 16  2  0
 16 17  1  0
 13 18  1  0
 17 18  2  0
M  END
