pyridine_urea_4295
     RDKit          3D

 24 25  0  0  0  0  0  0  0  0999 V2000
   13.2830   -2.5900   25.2130 C   0  0  0  0  0  0  0  0  0  0  0  0
   13.3180   -2.5880   23.7000 C   0  0  0  0  0  0  0  0  0  0  0  0
   12.8710   -1.3030   23.2910 O   0  0  0  0  0  0  0  0  0  0  0  0
   11.7840   -1.4190   22.3870 C   0  0  0  0  0  0  0  0  0  0  0  0
   12.0230   -1.8970   21.1320 O   0  0  0  0  0  0  0  0  0  0  0  0
   10.3760   -1.0620   22.8730 C   0  0  2  0  0  0  0  0  0  0  0  0
    9.6110   -0.7250   21.6300 N   0  0  0  0  0  0  0  0  0  0  0  0
    8.6550    0.2510   21.4210 C   0  0  0  0  0  0  0  0  0  0  0  0
    8.9230    1.4520   21.4080 O   0  0  0  0  0  0  0  0  0  0  0  0
    7.3840   -0.3180   21.1470 N   0  0  0  0  0  0  0  0  0  0  0  0
    6.5690    0.2020   20.1540 C   0  0  0  0  0  0  0  0  0  0  0  0
    5.2690    0.9710   20.4110 C   0  0  0  0  0  0  0  0  0  0  0  0
    4.6170    1.4320   19.2650 C   0  0  0  0  0  0  0  0  0  0  0  0
    5.1530    1.1820   18.0100 C   0  0  0  0  0  0  0  0  0  0  0  0
    6.2810    0.5020   17.7780 N   0  0  0  0  0  0  0  0  0  0  0  0
    6.9600    0.0280   18.8390 C   0  0  0  0  0  0  0  0  0  0  0  0
   10.1100   -0.2730   24.2010 C   0  0  1  0  0  0  0  0  0  0  0  0
   10.7120   -0.7460   25.1500 O   0  0  0  0  0  0  0  0  0  0  0  0
   10.8400    0.7640   23.5930 C   0  0  0  0  0  0  0  0  0  0  0  0
   10.7010    2.0550   23.0750 C   0  0  0  0  0  0  0  0  0  0  0  0
   12.1020    2.2580   22.7020 C   0  0  0  0  0  0  0  0  0  0  0  0
   13.2010    1.2880   22.8800 N   0  0  0  0  0  0  0  0  0  0  0  0
   12.9740    0.0160   23.4780 C   0  0  0  0  0  0  0  0  0  0  0  0
   12.1130    0.8850   23.2800 C   0  0  0  0  0  0  0  0  0  0  0  0
  1  2  1  0
  2  3  1  0
  3  4  1  0
  4  5  2  0
  4  6  1  0
  6  7  1  6
  7  8  1  0
  8  9  2  0
  8 10  1  0
 10 11  1  0
 11 12  2  0
 12 13  1  0
 13 14  2  0
 14 15  1  0
 11 16  1  0
 15 16  2  0
  6 17  1  0
 17 18  1  1
 17 19  1  0
 19 20  2  0
 20 21  1  0
 21 22  2  0
 22 23  1  0
 19 24  1  0
 23 24  2  0
M  END
