pyridine_urea_10470
     RDKit          3D

 22 23  0  0  0  0  0  0  0  0999 V2000
    8.9660   -0.5520   27.1990 C   0  0  0  0  0  0  0  0  0  0  0  0
    9.5580   -0.9450   25.8350 C   0  0  0  0  0  0  0  0  0  0  0  0
    9.1670   -0.0380   24.8060 O   0  0  0  0  0  0  0  0  0  0  0  0
   10.1880    0.5210   24.0950 C   0  0  0  0  0  0  0  0  0  0  0  0
   10.9500    1.3580   24.5460 O   0  0  0  0  0  0  0  0  0  0  0  0
   10.2530    0.0140   22.6560 C   0  0  2  0  0  0  0  0  0  0  0  0
    9.0370   -0.6590   22.2540 N   0  0  0  0  0  0  0  0  0  0  0  0
    8.2610    0.0680   21.3890 C   0  0  0  0  0  0  0  0  0  0  0  0
    8.6100    1.1870   20.9890 O   0  0  0  0  0  0  0  0  0  0  0  0
    7.1250   -0.5830   21.0680 N   0  0  0  0  0  0  0  0  0  0  0  0
    6.4260    0.0510   20.1140 C   0  0  0  0  0  0  0  0  0  0  0  0
    5.2490    0.7670   20.3250 C   0  0  0  0  0  0  0  0  0  0  0  0
    4.6350    1.3920   19.2340 C   0  0  0  0  0  0  0  0  0  0  0  0
    5.1710    1.3120   17.9620 C   0  0  0  0  0  0  0  0  0  0  0  0
    6.2930    0.6330   17.6890 N   0  0  0  0  0  0  0  0  0  0  0  0
    6.9180    0.0140   18.7110 C   0  0  0  0  0  0  0  0  0  0  0  0
   11.5540   -0.8260   22.5460 C   0  0  0  0  0  0  0  0  0  0  0  0
   11.5000   -2.1050   22.1840 C   0  0  0  0  0  0  0  0  0  0  0  0
   12.7070   -1.1950   22.5430 C   0  0  0  0  0  0  0  0  0  0  0  0
   11.7020   -0.1230   22.7640 C   0  0  0  0  0  0  0  0  0  0  0  0
   12.7820    0.7020   23.0740 C   0  0  0  0  0  0  0  0  0  0  0  0
   13.0810   -0.5150   22.7650 C   0  0  0  0  0  0  0  0  0  0  0  0
  1  2  1  0
  2  3  1  0
  3  4  1  0
  4  5  2  0
  4  6  1  0
  6  7  1  1
  7  8  1  0
  8  9  2  0
  8 10  1  0
 10 11  1  0
 11 12  2  0
 12 13  1  0
 13 14  2  0
 14 15  1  0
 11 16  1  0
 15 16  2  0
  6 17  1  0
 17 18  2  0
 18 19  1  0
 19 20  2  0
 20 21  1  0
 17 22  1  0
 21 22  2  0
M  END
