pyridine_urea_10820
     RDKit          3D

 20 22  0  0  0  0  0  0  0  0999 V2000
    8.6890    1.1730   21.1130 O   0  0  0  0  0  0  0  0  0  0  0  0
    7.9920    0.2900   21.6440 C   0  0  0  0  0  0  0  0  0  0  0  0
    8.0670   -0.0470   23.0190 N   0  0  0  0  0  0  0  0  0  0  0  0
    9.2880   -0.4620   23.3760 C   0  0  0  0  0  0  0  0  0  0  0  0
   10.2830    0.4800   23.2840 C   0  0  0  0  0  0  0  0  0  0  0  0
   11.5680    1.1480   23.0490 C   0  0  0  0  0  0  0  0  0  0  0  0
   12.7810    0.6700   22.5970 C   0  0  0  0  0  0  0  0  0  0  0  0
   12.8160   -0.6990   22.2510 C   0  0  0  0  0  0  0  0  0  0  0  0
   13.6780   -1.5250   21.7780 N   0  0  0  0  0  0  0  0  0  0  0  0
   13.1630   -2.8200   21.6210 N   0  0  0  0  0  0  0  0  0  0  0  0
   11.8610   -2.7960   22.0340 N   0  0  0  0  0  0  0  0  0  0  0  0
   11.7240   -1.4650   22.3970 C   0  0  0  0  0  0  0  0  0  0  0  0
   10.5120   -0.8610   22.9100 C   0  0  0  0  0  0  0  0  0  0  0  0
    7.0890   -0.4130   20.9560 N   0  0  0  0  0  0  0  0  0  0  0  0
    6.4500    0.1830   19.8550 C   0  0  0  0  0  0  0  0  0  0  0  0
    5.3110    0.9290   20.1570 C   0  0  0  0  0  0  0  0  0  0  0  0
    4.6300    1.5820   19.1310 C   0  0  0  0  0  0  0  0  0  0  0  0
    5.1060    1.4680   17.8390 C   0  0  0  0  0  0  0  0  0  0  0  0
    6.1920    0.7470   17.4910 N   0  0  0  0  0  0  0  0  0  0  0  0
    6.8810    0.0810   18.5870 C   0  0  0  0  0  0  0  0  0  0  0  0
  1  2  2  0
  2  3  1  0
  3  4  1  0
  4  5  1  0
  5  6  2  0
  6  7  1  0
  7  8  2  0
  8  9  1  0
  9 10  1  0
 10 11  2  0
  8 12  1  0
 11 12  1  0
  5 13  1  0
 12 13  2  0
  2 14  1  0
 14 15  1  0
 15 16  2  0
 16 17  1  0
 17 18  2  0
 18 19  1  0
 15 20  1  0
 19 20  2  0
M  END
