pyridine_urea_3850
     RDKit          3D

 21 23  0  0  0  0  0  0  0  0999 V2000
    8.9390    1.3810   21.1510 O   0  0  0  0  0  0  0  0  0  0  0  0
    8.5650    0.2660   21.5090 C   0  0  0  0  0  0  0  0  0  0  0  0
    7.4400   -0.3890   21.0580 N   0  0  0  0  0  0  0  0  0  0  0  0
    6.6530    0.1500   20.0350 C   0  0  0  0  0  0  0  0  0  0  0  0
    5.4950    0.8690   20.3550 C   0  0  0  0  0  0  0  0  0  0  0  0
    4.7200    1.4280   19.3370 C   0  0  0  0  0  0  0  0  0  0  0  0
    5.1380    1.2430   18.0400 C   0  0  0  0  0  0  0  0  0  0  0  0
    6.2330    0.5540   17.7060 N   0  0  0  0  0  0  0  0  0  0  0  0
    6.9620    0.0230   18.7050 C   0  0  0  0  0  0  0  0  0  0  0  0
    9.2840   -0.4640   22.4200 N   0  0  0  0  0  0  0  0  0  0  0  0
   10.5140    0.0830   23.0190 C   0  0  2  0  0  0  0  0  0  0  0  0
   10.5010    1.6360   23.0410 C   0  0  0  0  0  0  0  0  0  0  0  0
    9.4200    2.4870   23.1840 C   0  0  0  0  0  0  0  0  0  0  0  0
    9.5430    3.8780   23.1970 C   0  0  0  0  0  0  0  0  0  0  0  0
   10.7960    4.4690   23.0610 C   0  0  0  0  0  0  0  0  0  0  0  0
   11.9320    3.6840   22.9120 C   0  0  0  0  0  0  0  0  0  0  0  0
   11.8960    2.3020   22.8930 C   0  0  0  0  0  0  0  0  0  0  0  0
   11.7870   -0.4770   22.7590 C   0  0  0  0  0  0  0  0  0  0  0  0
   12.0100   -0.6660   24.1870 C   0  0  2  0  0  0  0  0  0  0  0  0
   12.4810   -1.7650   24.4890 O   0  0  0  0  0  0  0  0  0  0  0  0
   10.6930   -0.4790   24.5380 C   0  0  0  0  0  0  0  0  0  0  0  0
  1  2  2  0
  2  3  1  0
  3  4  1  0
  4  5  2  0
  5  6  1  0
  6  7  2  0
  7  8  1  0
  4  9  1  0
  8  9  2  0
  2 10  1  0
 11 10  1  6
 11 12  1  0
 12 13  2  0
 13 14  1  0
 14 15  2  0
 15 16  1  0
 12 17  1  0
 16 17  2  0
 11 18  1  0
 18 19  1  0
 19 20  1  6
 11 21  1  0
 19 21  1  0
M  END
