pyridine_urea_12434
     RDKit          3D

 22 23  0  0  0  0  0  0  0  0999 V2000
    8.9730    1.3380   21.0810 O   0  0  0  0  0  0  0  0  0  0  0  0
    8.3620    0.3570   21.5070 C   0  0  0  0  0  0  0  0  0  0  0  0
    8.5350   -0.1100   22.7600 N   0  0  0  0  0  0  0  0  0  0  0  0
    7.5690    0.3380   23.7460 C   0  0  0  0  0  0  0  0  0  0  0  0
    7.7900   -0.4320   25.0620 C   0  0  0  0  0  0  0  0  0  0  0  0
    9.0020   -0.1550   25.6820 C   0  0  0  0  0  0  0  0  0  0  0  0
   10.2500   -0.6860   24.9530 C   0  0  0  0  0  0  0  0  0  0  0  0
   10.1420   -1.6750   24.0340 N   0  0  0  0  0  0  0  0  0  0  0  0
   11.2110   -2.4920   23.8320 C   0  0  0  0  0  0  0  0  0  0  0  0
   12.6510   -1.9840   23.9840 C   0  0  0  0  0  0  0  0  0  0  0  0
   13.4830   -2.3240   22.9990 F   0  0  0  0  0  0  0  0  0  0  0  0
   12.6160   -0.6360   23.9520 F   0  0  0  0  0  0  0  0  0  0  0  0
   13.2890   -2.3320   25.1070 F   0  0  0  0  0  0  0  0  0  0  0  0
    8.9500   -2.3850   23.8330 C   0  0  0  0  0  0  0  0  0  0  0  0
    7.7650   -1.8940   24.6730 C   0  0  0  0  0  0  0  0  0  0  0  0
    7.4160   -0.3900   20.8680 N   0  0  0  0  0  0  0  0  0  0  0  0
    6.5600    0.2070   19.9680 C   0  0  0  0  0  0  0  0  0  0  0  0
    5.2730    0.9300   20.2980 C   0  0  0  0  0  0  0  0  0  0  0  0
    4.5500    1.5260   19.1240 C   0  0  0  0  0  0  0  0  0  0  0  0
    5.0960    1.3720   17.8700 C   0  0  0  0  0  0  0  0  0  0  0  0
    6.2380    0.7030   17.6270 N   0  0  0  0  0  0  0  0  0  0  0  0
    6.9220    0.1520   18.6460 C   0  0  0  0  0  0  0  0  0  0  0  0
  1  2  2  0
  2  3  1  0
  3  4  1  0
  4  5  1  0
  5  6  1  0
  6  7  1  0
  7  8  1  0
  8  9  1  0
  9 10  1  0
 10 11  1  0
 10 12  1  0
 10 13  1  0
  8 14  1  0
  5 15  1  0
 14 15  1  0
  2 16  1  0
 16 17  1  0
 17 18  2  0
 18 19  1  0
 19 20  2  0
 20 21  1  0
 17 22  1  0
 21 22  2  0
M  END
