pyridine_urea_9570
     RDKit          3D

 23 25  0  0  0  0  0  0  0  0999 V2000
    9.1910    0.2010   25.1330 C   0  0  0  0  0  0  0  0  0  0  0  0
   10.4490    0.4500   24.2760 C   0  0  0  0  0  0  0  0  0  0  0  0
   10.7710    1.9670   24.1200 C   0  0  0  0  0  0  0  0  0  0  0  0
   11.9970    2.3720   23.3250 C   0  0  0  0  0  0  0  0  0  0  0  0
   12.7140    1.1800   22.7940 C   0  0  0  0  0  0  0  0  0  0  0  0
   12.4410   -0.3900   22.8570 C   0  0  0  0  0  0  0  0  0  0  0  0
   11.2000   -0.9310   23.5600 C   0  0  0  0  0  0  0  0  0  0  0  0
   10.1980   -0.0610   23.0790 C   0  0  0  0  0  0  0  0  0  0  0  0
    9.1830   -0.7190   22.2930 N   0  0  0  0  0  0  0  0  0  0  0  0
    8.4300   -0.0000   21.4220 C   0  0  0  0  0  0  0  0  0  0  0  0
    8.7890    1.1420   21.1000 O   0  0  0  0  0  0  0  0  0  0  0  0
    7.2840   -0.5850   20.9640 N   0  0  0  0  0  0  0  0  0  0  0  0
    6.4610    0.0710   20.0410 C   0  0  0  0  0  0  0  0  0  0  0  0
    5.2700    0.7430   20.3330 C   0  0  0  0  0  0  0  0  0  0  0  0
    4.5710    1.3710   19.3060 C   0  0  0  0  0  0  0  0  0  0  0  0
    5.1500    1.2840   17.9450 C   0  0  0  0  0  0  0  0  0  0  0  0
    6.2840    0.6270   17.6880 N   0  0  0  0  0  0  0  0  0  0  0  0
    6.8980    0.0460   18.7300 C   0  0  0  0  0  0  0  0  0  0  0  0
   13.3760   -1.1950   22.2130 C   0  0  0  0  0  0  0  0  0  0  0  0
   12.8310   -2.4400   22.4580 C   0  0  0  0  0  0  0  0  0  0  0  0
   13.1420    0.0360   22.4550 O   0  0  0  0  0  0  0  0  0  0  0  0
   11.8540    0.5740   23.3350 C   0  0  0  0  0  0  0  0  0  0  0  0
   11.2460   -0.5970   23.6850 C   0  0  0  0  0  0  0  0  0  0  0  0
  1  2  1  0
  2  3  2  0
  3  4  1  0
  4  5  2  0
  5  6  1  0
  6  7  1  0
  7  8  1  0
  8  9  1  0
  9 10  1  0
 10 11  2  0
 10 12  1  0
 12 13  1  0
 13 14  2  0
 14 15  1  0
 15 16  2  0
 16 17  1  0
 13 18  1  0
 17 18  2  0
  6 19  2  0
 19 20  1  0
 19 21  1  0
  5 22  1  0
 21 22  1  0
  2 23  1  0
 22 23  2  0
M  END
