pyridine_urea_1206
     RDKit          3D

 21 22  0  0  0  0  0  0  0  0999 V2000
   10.4170    4.6180   22.9030 N   0  0  0  0  0  0  0  0  0  0  0  0
   11.3080    3.8860   23.0310 C   0  0  0  0  0  0  0  0  0  0  0  0
   10.7800    3.0580   24.0460 O   0  0  0  0  0  0  0  0  0  0  0  0
   12.7140    3.2870   22.7620 C   0  0  0  0  0  0  0  0  0  0  0  0
   12.9390    1.7680   23.1560 C   0  0  0  0  0  0  0  0  0  0  0  0
   12.0550    0.8370   22.9050 C   0  0  0  0  0  0  0  0  0  0  0  0
   10.8090    1.2460   23.1760 C   0  0  0  0  0  0  0  0  0  0  0  0
    9.7660    0.4600   22.9430 C   0  0  0  0  0  0  0  0  0  0  0  0
    9.9890   -0.7800   22.4180 C   0  0  0  0  0  0  0  0  0  0  0  0
    8.8670   -1.4420   22.1520 N   0  0  0  0  0  0  0  0  0  0  0  0
    8.0050   -0.6760   21.3990 C   0  0  0  0  0  0  0  0  0  0  0  0
    8.3710    0.6650   21.0500 O   0  0  0  0  0  0  0  0  0  0  0  0
    6.8370   -1.1560   20.9850 N   0  0  0  0  0  0  0  0  0  0  0  0
    6.2930   -0.3520   20.0220 C   0  0  0  0  0  0  0  0  0  0  0  0
    5.1090    0.3460   20.3030 C   0  0  0  0  0  0  0  0  0  0  0  0
    4.5470    1.1800   19.3220 C   0  0  0  0  0  0  0  0  0  0  0  0
    5.2470    1.2880   18.0080 C   0  0  0  0  0  0  0  0  0  0  0  0
    6.3750    0.6080   17.7720 N   0  0  0  0  0  0  0  0  0  0  0  0
    6.8630   -0.1830   18.7650 C   0  0  0  0  0  0  0  0  0  0  0  0
   11.2850   -1.2690   22.1560 C   0  0  0  0  0  0  0  0  0  0  0  0
   12.3560   -0.4390   22.4090 C   0  0  0  0  0  0  0  0  0  0  0  0
  1  2  1  0
  2  3  2  0
  2  4  1  0
  4  5  1  0
  5  6  1  0
  6  7  2  0
  7  8  1  0
  8  9  2  0
  9 10  1  0
 10 11  1  0
 11 12  2  0
 11 13  1  0
 13 14  1  0
 14 15  2  0
 15 16  1  0
 16 17  2  0
 17 18  1  0
 14 19  1  0
 18 19  2  0
  9 20  1  0
  6 21  1  0
 20 21  2  0
M  END
