pyridine_urea_8756
     RDKit          3D

 21 23  0  0  0  0  0  0  0  0999 V2000
   13.7350   -2.2020   25.6030 C   0  0  0  0  0  0  0  0  0  0  0  0
   12.9230   -1.3760   24.6650 C   0  0  0  0  0  0  0  0  0  0  0  0
   12.4590   -0.1680   24.2650 C   0  0  0  0  0  0  0  0  0  0  0  0
   11.5350   -0.2070   22.9960 C   0  0  0  0  0  0  0  0  0  0  0  0
   11.8570    0.7040   23.5940 C   0  0  0  0  0  0  0  0  0  0  0  0
   12.6240   -0.1800   24.4820 C   0  0  0  0  0  0  0  0  0  0  0  0
   12.2610   -1.5660   23.7330 C   0  0  0  0  0  0  0  0  0  0  0  0
   11.3850   -1.2450   22.5990 C   0  0  0  0  0  0  0  0  0  0  0  0
   10.3790   -0.2900   22.6460 C   0  0  0  0  0  0  0  0  0  0  0  0
    9.3450   -0.6650   21.7070 N   0  0  0  0  0  0  0  0  0  0  0  0
    8.4320    0.2510   21.3040 C   0  0  0  0  0  0  0  0  0  0  0  0
    8.7170    1.4380   21.1370 O   0  0  0  0  0  0  0  0  0  0  0  0
    7.1950   -0.2900   21.0700 N   0  0  0  0  0  0  0  0  0  0  0  0
    6.4630    0.2240   20.0140 C   0  0  0  0  0  0  0  0  0  0  0  0
    5.2810    0.9160   20.2760 C   0  0  0  0  0  0  0  0  0  0  0  0
    4.5740    1.4620   19.2050 C   0  0  0  0  0  0  0  0  0  0  0  0
    5.0900    1.2840   17.9320 C   0  0  0  0  0  0  0  0  0  0  0  0
    6.2140    0.6120   17.6520 N   0  0  0  0  0  0  0  0  0  0  0  0
    6.8610    0.1030   18.7030 C   0  0  0  0  0  0  0  0  0  0  0  0
   11.9870   -2.0000   21.4600 C   0  0  0  0  0  0  0  0  0  0  0  0
   10.8030   -2.5430   22.1490 C   0  0  0  0  0  0  0  0  0  0  0  0
  1  2  1  0
  2  3  2  0
  3  4  1  0
  4  5  2  0
  5  6  1  0
  2  7  1  0
  6  7  2  0
  7  8  1  0
  8  9  1  0
  9 10  1  0
 10 11  1  0
 11 12  2  0
 11 13  1  0
 13 14  1  0
 14 15  2  0
 15 16  1  0
 16 17  2  0
 17 18  1  0
 14 19  1  0
 18 19  2  0
  8 20  1  0
  8 21  1  0
 20 21  1  0
M  END
