pyridine_urea_6413
     RDKit          3D

 23 25  0  0  0  0  0  0  0  0999 V2000
   11.0350   -1.0740   22.2350 C   0  0  0  0  0  0  0  0  0  0  0  0
   10.1490   -1.0350   23.0380 C   0  0  2  0  0  0  0  0  0  0  0  0
    8.8560   -1.1960   22.3870 N   0  0  0  0  0  0  0  0  0  0  0  0
    8.3620   -0.1650   21.4940 C   0  0  0  0  0  0  0  0  0  0  0  0
    9.0410    1.0740   21.1930 O   0  0  0  0  0  0  0  0  0  0  0  0
    7.0870   -0.5790   20.9860 N   0  0  0  0  0  0  0  0  0  0  0  0
    6.5080    0.0280   19.9550 C   0  0  0  0  0  0  0  0  0  0  0  0
    5.3730    0.7320   20.2600 C   0  0  0  0  0  0  0  0  0  0  0  0
    4.5860    1.5110   19.2100 C   0  0  0  0  0  0  0  0  0  0  0  0
    5.1220    1.4660   17.8400 C   0  0  0  0  0  0  0  0  0  0  0  0
    6.2680    0.7120   17.6650 N   0  0  0  0  0  0  0  0  0  0  0  0
    6.9530    0.0080   18.6640 C   0  0  0  0  0  0  0  0  0  0  0  0
    9.9510    0.2050   23.9950 C   0  0  0  0  0  0  0  0  0  0  0  0
   11.0710    0.9390   23.6190 C   0  0  0  0  0  0  0  0  0  0  0  0
   11.4320    2.0610   23.5020 C   0  0  0  0  0  0  0  0  0  0  0  0
   12.7490    1.5770   23.0360 C   0  0  0  0  0  0  0  0  0  0  0  0
   13.5360    0.0620   22.7530 C   0  0  0  0  0  0  0  0  0  0  0  0
   12.1730   -0.3540   23.2380 C   0  0  0  0  0  0  0  0  0  0  0  0
   12.3640    0.9020   23.1780 C   0  0  0  0  0  0  0  0  0  0  0  0
    9.7630   -0.2930   25.2520 C   0  0  0  0  0  0  0  0  0  0  0  0
    8.4100   -0.5110   25.4680 C   0  0  0  0  0  0  0  0  0  0  0  0
    7.7420    0.3910   24.6690 C   0  0  0  0  0  0  0  0  0  0  0  0
    8.6510    1.0810   23.8700 C   0  0  0  0  0  0  0  0  0  0  0  0
  2  1  1  6
  2  3  1  0
  3  4  1  0
  4  5  2  0
  4  6  1  0
  6  7  1  0
  7  8  2  0
  8  9  1  0
  9 10  2  0
 10 11  1  0
  7 12  1  0
 11 12  2  0
  2 13  1  0
 13 14  1  0
 14 15  2  0
 15 16  1  0
 16 17  2  0
 17 18  1  0
 14 19  1  0
 18 19  2  0
 13 20  1  0
 20 21  1  0
 21 22  1  0
 13 23  1  0
 22 23  1  0
M  END
