pyridine_urea_8088
     RDKit          3D

 24 26  0  0  0  0  0  0  0  0999 V2000
    8.8460   -0.9760   20.7900 O   0  0  0  0  0  0  0  0  0  0  0  0
    8.0060   -0.4210   21.4250 C   0  0  0  0  0  0  0  0  0  0  0  0
    8.3380    0.3130   22.5120 N   0  0  0  0  0  0  0  0  0  0  0  0
    9.7160    0.7040   22.4650 C   0  0  0  0  0  0  0  0  0  0  0  0
   10.6210   -0.4870   22.8440 C   0  0  2  0  0  0  0  0  0  0  0  0
   11.8910   -0.3270   23.3070 C   0  0  0  0  0  0  0  0  0  0  0  0
   13.1110   -0.2740   22.6650 C   0  0  0  0  0  0  0  0  0  0  0  0
   12.8910   -0.1930   24.0750 C   0  0  0  0  0  0  0  0  0  0  0  0
   11.2600   -0.3160   23.7780 C   0  0  0  0  0  0  0  0  0  0  0  0
   10.9470   -0.2600   25.3020 C   0  0  0  0  0  0  0  0  0  0  0  0
    9.2330   -0.3710   25.2320 Cl  0  0  0  0  0  0  0  0  0  0  0  0
   12.1690   -0.2150   24.6310 C   0  0  0  0  0  0  0  0  0  0  0  0
   10.4970   -1.6920   22.0380 N   0  0  0  0  0  0  0  0  0  0  0  0
   11.5510   -2.4040   22.5330 C   0  0  0  0  0  0  0  0  0  0  0  0
   11.1940   -2.8780   23.9400 C   0  0  0  0  0  0  0  0  0  0  0  0
    9.6810   -2.9390   23.7880 C   0  0  0  0  0  0  0  0  0  0  0  0
    9.3320   -2.4910   22.5120 C   0  0  0  0  0  0  0  0  0  0  0  0
    6.6860   -0.4060   21.1340 N   0  0  0  0  0  0  0  0  0  0  0  0
    6.1660    0.2030   20.0100 C   0  0  0  0  0  0  0  0  0  0  0  0
    4.9840    0.9220   20.1340 C   0  0  0  0  0  0  0  0  0  0  0  0
    4.4710    1.5490   19.0180 C   0  0  0  0  0  0  0  0  0  0  0  0
    5.1740    1.4240   17.8180 C   0  0  0  0  0  0  0  0  0  0  0  0
    6.3090    0.7330   17.6710 N   0  0  0  0  0  0  0  0  0  0  0  0
    6.7780    0.1360   18.7730 C   0  0  0  0  0  0  0  0  0  0  0  0
  1  2  2  0
  2  3  1  0
  3  4  1  0
  5  4  1  6
  5  6  1  0
  6  7  2  0
  7  8  1  0
  8  9  2  0
  9 10  1  0
 10 11  1  0
  6 12  1  0
 10 12  2  0
  5 13  1  0
 13 14  1  0
 14 15  1  0
 15 16  1  0
 13 17  1  0
 16 17  1  0
  2 18  1  0
 18 19  1  0
 19 20  2  0
 20 21  1  0
 21 22  2  0
 22 23  1  0
 19 24  1  0
 23 24  2  0
M  END
