pyridine_urea_13656
     RDKit          3D

 26 28  0  0  0  0  0  0  0  0999 V2000
    9.1110    1.2110   21.2210 O   0  0  0  0  0  0  0  0  0  0  0  0
    8.5140    0.2210   21.6520 C   0  0  0  0  0  0  0  0  0  0  0  0
    7.4940   -0.4600   21.0100 N   0  0  0  0  0  0  0  0  0  0  0  0
    6.6200    0.1400   20.0980 C   0  0  0  0  0  0  0  0  0  0  0  0
    5.3280    0.8800   20.4890 C   0  0  0  0  0  0  0  0  0  0  0  0
    4.5640    1.4680   19.3060 C   0  0  0  0  0  0  0  0  0  0  0  0
    5.1460    1.2610   17.9490 C   0  0  0  0  0  0  0  0  0  0  0  0
    6.2760    0.5880   17.7210 N   0  0  0  0  0  0  0  0  0  0  0  0
    6.9570    0.0630   18.7580 C   0  0  0  0  0  0  0  0  0  0  0  0
    8.7660   -0.3200   22.8950 N   0  0  0  0  0  0  0  0  0  0  0  0
    9.9850   -0.9790   23.3200 C   0  0  0  0  0  0  0  0  0  0  0  0
    9.4630   -2.2140   23.7410 C   0  0  0  0  0  0  0  0  0  0  0  0
    8.6960   -2.9410   22.8170 C   0  0  0  0  0  0  0  0  0  0  0  0
    8.0900   -4.1730   23.0850 C   0  0  0  0  0  0  0  0  0  0  0  0
    8.2080   -4.7920   24.3390 C   0  0  0  0  0  0  0  0  0  0  0  0
    8.9690   -4.1010   25.2960 C   0  0  0  0  0  0  0  0  0  0  0  0
    9.0600   -4.8070   26.6420 C   0  0  0  0  0  0  0  0  0  0  0  0
   10.2560   -4.9440   27.2030 F   0  0  0  0  0  0  0  0  0  0  0  0
    8.5680   -6.0570   26.5090 F   0  0  0  0  0  0  0  0  0  0  0  0
    8.2760   -4.1710   27.5400 F   0  0  0  0  0  0  0  0  0  0  0  0
    9.6360   -2.7670   25.0190 C   0  0  0  0  0  0  0  0  0  0  0  0
   10.8800   -1.0670   22.2410 C   0  0  0  0  0  0  0  0  0  0  0  0
   12.1960   -1.2440   22.7260 C   0  0  0  0  0  0  0  0  0  0  0  0
   12.7710   -0.0510   23.0980 C   0  0  0  0  0  0  0  0  0  0  0  0
   11.6540    0.7470   23.7180 C   0  0  0  0  0  0  0  0  0  0  0  0
   10.6910   -0.2760   24.3140 C   0  0  0  0  0  0  0  0  0  0  0  0
  1  2  2  0
  2  3  1  0
  3  4  1  0
  4  5  2  0
  5  6  1  0
  6  7  2  0
  7  8  1  0
  4  9  1  0
  8  9  2  0
  2 10  1  0
 11 10  1  0
 11 12  1  0
 12 13  2  0
 13 14  1  0
 14 15  2  0
 15 16  1  0
 16 17  1  0
 17 18  1  0
 17 19  1  0
 17 20  1  0
 12 21  1  0
 16 21  2  0
 11 22  1  0
 22 23  1  0
 23 24  1  0
 24 25  1  0
 11 26  1  0
 25 26  1  0
M  END
