pyridine_urea_115
     RDKit          3D

 22 24  0  0  0  0  0  0  0  0999 V2000
   13.5970    0.8800   22.1700 C   0  0  0  0  0  0  0  0  0  0  0  0
   12.6140    0.5070   23.0410 N   0  0  0  0  0  0  0  0  0  0  0  0
   11.3490    1.1730   22.8860 C   0  0  0  0  0  0  0  0  0  0  0  0
   10.0930    0.3450   23.0600 C   0  0  0  0  0  0  0  0  0  0  0  0
   10.1600   -1.0690   23.3620 N   0  0  0  0  0  0  0  0  0  0  0  0
    9.3460   -2.1310   23.4670 C   0  0  0  0  0  0  0  0  0  0  0  0
    8.0290   -1.8390   23.2130 C   0  0  0  0  0  0  0  0  0  0  0  0
    7.9640   -0.5220   22.9080 N   0  0  0  0  0  0  0  0  0  0  0  0
    7.9800   -0.1660   21.6530 C   0  0  0  0  0  0  0  0  0  0  0  0
    8.8210    0.5790   21.1790 O   0  0  0  0  0  0  0  0  0  0  0  0
    6.9260   -0.7060   20.9700 N   0  0  0  0  0  0  0  0  0  0  0  0
    6.2110    0.0260   20.0180 C   0  0  0  0  0  0  0  0  0  0  0  0
    5.0240    0.5890   20.3270 C   0  0  0  0  0  0  0  0  0  0  0  0
    4.5810    1.2940   19.0820 C   0  0  0  0  0  0  0  0  0  0  0  0
    5.2520    1.3480   17.8880 C   0  0  0  0  0  0  0  0  0  0  0  0
    6.3920    0.7980   17.6070 N   0  0  0  0  0  0  0  0  0  0  0  0
    6.8060    0.1360   18.7660 C   0  0  0  0  0  0  0  0  0  0  0  0
    9.9660   -3.2420   23.7920 N   0  0  0  0  0  0  0  0  0  0  0  0
   11.3060   -2.8970   23.9070 N   0  0  0  0  0  0  0  0  0  0  0  0
   11.4200   -1.6030   23.6450 C   0  0  0  0  0  0  0  0  0  0  0  0
   12.6510   -0.7470   23.6280 C   0  0  0  0  0  0  0  0  0  0  0  0
   13.7400   -1.4190   24.2780 O   0  0  0  0  0  0  0  0  0  0  0  0
  1  2  1  0
  2  3  1  0
  3  4  2  0
  4  5  1  0
  5  6  1  0
  6  7  1  0
  7  8  1  0
  8  9  1  0
  9 10  2  0
  9 11  1  0
 11 12  1  0
 12 13  2  0
 13 14  1  0
 14 15  2  0
 15 16  1  0
 12 17  1  0
 16 17  2  0
  6 18  2  0
 18 19  1  0
  5 20  1  0
 19 20  2  0
  2 21  1  0
 20 21  1  0
 21 22  2  0
M  END
