pyridine_urea_9195
     RDKit          3D

 18 18  0  0  0  0  0  0  0  0999 V2000
   13.1630   -2.0400   21.0740 C   0  0  0  0  0  0  0  0  0  0  0  0
   12.7300   -1.5800   22.4210 C   0  0  0  0  0  0  0  0  0  0  0  0
   12.9700   -0.3270   22.9350 C   0  0  0  0  0  0  0  0  0  0  0  0
   12.0230    0.2770   23.7070 C   0  0  0  0  0  0  0  0  0  0  0  0
   11.9790   -0.3440   24.9440 C   0  0  0  0  0  0  0  0  0  0  0  0
   12.0580    1.6600   23.5170 C   0  0  0  0  0  0  0  0  0  0  0  0
   10.5770    0.0090   23.3890 C   0  0  0  0  0  0  0  0  0  0  0  0
   10.2360   -1.3200   22.7150 C   0  0  0  0  0  0  0  0  0  0  0  0
    8.9040   -1.3250   22.1810 N   0  0  0  0  0  0  0  0  0  0  0  0
    8.2490   -0.3780   21.4780 C   0  0  0  0  0  0  0  0  0  0  0  0
    8.7980    0.7140   21.3530 O   0  0  0  0  0  0  0  0  0  0  0  0
    7.0370   -0.7250   20.9810 N   0  0  0  0  0  0  0  0  0  0  0  0
    6.3400   -0.0010   20.0090 C   0  0  0  0  0  0  0  0  0  0  0  0
    5.1510    0.6950   20.2100 C   0  0  0  0  0  0  0  0  0  0  0  0
    4.5730    1.3840   19.1450 C   0  0  0  0  0  0  0  0  0  0  0  0
    5.2090    1.3500   17.9220 C   0  0  0  0  0  0  0  0  0  0  0  0
    6.3520    0.6820   17.7060 N   0  0  0  0  0  0  0  0  0  0  0  0
    6.8820    0.0280   18.7470 C   0  0  0  0  0  0  0  0  0  0  0  0
  1  2  2  3
  2  3  1  0
  4  3  1  0
  4  5  1  0
  4  6  1  0
  4  7  1  0
  7  8  1  0
  8  9  1  0
  9 10  1  0
 10 11  2  0
 10 12  1  0
 12 13  1  0
 13 14  2  0
 14 15  1  0
 15 16  2  0
 16 17  1  0
 13 18  1  0
 17 18  2  0
M  END
