pyridine_urea_134
     RDKit          3D

 22 24  0  0  0  0  0  0  0  0999 V2000
    9.0320    1.2540   21.2570 O   0  0  0  0  0  0  0  0  0  0  0  0
    8.5750    0.1390   21.5420 C   0  0  0  0  0  0  0  0  0  0  0  0
    9.1430   -0.6810   22.5120 N   0  0  0  0  0  0  0  0  0  0  0  0
    8.8900   -2.1150   22.5390 C   0  0  0  0  0  0  0  0  0  0  0  0
    7.4090   -2.4440   22.7280 C   0  0  0  0  0  0  0  0  0  0  0  0
    7.1290   -3.1980   23.9250 N   0  0  0  0  0  0  0  0  0  0  0  0
    6.6210   -2.6460   25.1430 C   0  0  0  0  0  0  0  0  0  0  0  0
    5.7350   -3.6070   25.5910 C   0  0  0  0  0  0  0  0  0  0  0  0
    5.6470   -4.7480   24.6590 C   0  0  0  0  0  0  0  0  0  0  0  0
    4.7930   -5.9570   24.7620 C   0  0  0  0  0  0  0  0  0  0  0  0
    3.6360   -6.1960   26.2350 Br  0  0  0  0  0  0  0  0  0  0  0  0
    4.8160   -6.9310   23.8070 C   0  0  0  0  0  0  0  0  0  0  0  0
    5.8250   -6.5350   22.7340 C   0  0  0  0  0  0  0  0  0  0  0  0
    6.5920   -5.4000   22.6870 C   0  0  0  0  0  0  0  0  0  0  0  0
    6.5030   -4.4690   23.6740 C   0  0  0  0  0  0  0  0  0  0  0  0
    7.4450   -0.3910   20.9390 N   0  0  0  0  0  0  0  0  0  0  0  0
    6.5880    0.1790   20.0250 C   0  0  0  0  0  0  0  0  0  0  0  0
    5.3370    0.8370   20.6650 C   0  0  0  0  0  0  0  0  0  0  0  0
    4.6990    1.3550   19.3780 C   0  0  0  0  0  0  0  0  0  0  0  0
    5.2010    1.2130   17.9910 C   0  0  0  0  0  0  0  0  0  0  0  0
    6.2880    0.6040   17.6610 N   0  0  0  0  0  0  0  0  0  0  0  0
    6.9350    0.1140   18.6920 C   0  0  0  0  0  0  0  0  0  0  0  0
  1  2  2  0
  2  3  1  0
  3  4  1  0
  4  5  1  0
  5  6  1  0
  6  7  1  0
  7  8  1  0
  8  9  1  0
  9 10  1  0
 10 11  1  0
 10 12  2  0
 12 13  1  0
 13 14  2  0
  6 15  1  0
  9 15  2  0
 14 15  1  0
  2 16  1  0
 16 17  1  0
 17 18  2  0
 18 19  1  0
 19 20  2  0
 20 21  1  0
 17 22  1  0
 21 22  2  0
M  END
