pyridine_urea_10912
     RDKit          3D

 19 20  0  0  0  0  0  0  0  0999 V2000
    8.9720    1.1470   21.2830 O   0  0  0  0  0  0  0  0  0  0  0  0
    8.5910   -0.0020   21.5570 C   0  0  0  0  0  0  0  0  0  0  0  0
    9.3060   -0.8480   22.4880 N   0  0  0  0  0  0  0  0  0  0  0  0
   10.6090   -0.4480   22.6130 C   0  0  0  0  0  0  0  0  0  0  0  0
   11.6590   -1.3410   22.4830 C   0  0  0  0  0  0  0  0  0  0  0  0
   12.9490   -0.8490   22.6080 C   0  0  0  0  0  0  0  0  0  0  0  0
   13.1350    0.5140   22.8530 C   0  0  0  0  0  0  0  0  0  0  0  0
   12.1400    1.3920   22.9800 N   0  0  0  0  0  0  0  0  0  0  0  0
   10.8880    0.8830   22.8610 C   0  0  0  0  0  0  0  0  0  0  0  0
    7.4970   -0.6300   21.0610 N   0  0  0  0  0  0  0  0  0  0  0  0
    6.8010    0.1230   20.0610 C   0  0  2  0  0  0  0  0  0  0  0  0
    5.5370    0.7290   20.6810 C   0  0  0  0  0  0  0  0  0  0  0  0
    4.3730    0.6110   19.9460 C   0  0  0  0  0  0  0  0  0  0  0  0
    4.5810   -0.0670   18.7520 C   0  0  0  0  0  0  0  0  0  0  0  0
    5.7550    0.0710   18.1510 N   0  0  0  0  0  0  0  0  0  0  0  0
    6.0060    1.3480   17.6510 C   0  0  0  0  0  0  0  0  0  0  0  0
    4.8900    2.0560   18.0670 C   0  0  0  0  0  0  0  0  0  0  0  0
    4.9230    2.6960   19.1090 O   0  0  0  0  0  0  0  0  0  0  0  0
    6.7050   -0.5350   18.8430 C   0  0  0  0  0  0  0  0  0  0  0  0
  1  2  2  0
  2  3  1  0
  3  4  1  0
  4  5  2  0
  5  6  1  0
  6  7  2  0
  7  8  1  0
  4  9  1  0
  8  9  2  0
  2 10  1  0
 11 10  1  1
 11 12  1  0
 12 13  1  0
 13 14  1  0
 14 15  1  0
 15 16  1  0
 16 17  1  0
 17 18  1  0
 11 19  1  0
 15 19  1  0
M  END
