pyridine_urea_9292
     RDKit          3D

 18 18  0  0  0  0  0  0  0  0999 V2000
   11.6680   -1.7500   21.7670 C   0  0  0  0  0  0  0  0  0  0  0  0
   10.5980   -0.8830   22.3300 C   0  0  2  0  0  0  0  0  0  0  0  0
   10.6000   -0.7370   23.6780 C   0  0  0  0  0  0  0  0  0  0  0  0
   11.7430   -1.1650   24.3570 C   0  0  0  0  0  0  0  0  0  0  0  0
   12.4290   -2.6820   23.9570 S   0  0  0  0  0  0  0  0  0  0  0  0
   13.5090   -2.6830   25.2500 C   0  0  0  0  0  0  0  0  0  0  0  0
   11.3570   -3.6250   24.1740 O   0  0  0  0  0  0  0  0  0  0  0  0
   13.2110   -2.5580   22.7530 O   0  0  0  0  0  0  0  0  0  0  0  0
    9.2810   -1.3130   21.8980 N   0  0  0  0  0  0  0  0  0  0  0  0
    8.5490   -0.2210   21.5140 C   0  0  0  0  0  0  0  0  0  0  0  0
    8.9880    0.9200   21.5610 O   0  0  0  0  0  0  0  0  0  0  0  0
    7.2230   -0.5890   21.0430 N   0  0  0  0  0  0  0  0  0  0  0  0
    6.5520    0.0130   20.0370 C   0  0  0  0  0  0  0  0  0  0  0  0
    5.2730    0.8080   20.3000 C   0  0  0  0  0  0  0  0  0  0  0  0
    4.6020    1.4350   19.2790 C   0  0  0  0  0  0  0  0  0  0  0  0
    5.1390    1.3150   17.9980 C   0  0  0  0  0  0  0  0  0  0  0  0
    6.2620    0.6150   17.7180 N   0  0  0  0  0  0  0  0  0  0  0  0
    6.9370   -0.0130   18.7120 C   0  0  0  0  0  0  0  0  0  0  0  0
  2  1  1  1
  2  3  1  0
  3  4  1  0
  5  4  1  0
  5  6  1  0
  5  7  2  0
  5  8  2  0
  2  9  1  0
  9 10  1  0
 10 11  2  0
 10 12  1  0
 12 13  1  0
 13 14  2  0
 14 15  1  0
 15 16  2  0
 16 17  1  0
 13 18  1  0
 17 18  2  0
M  END
