pyridine_urea_13378
     RDKit          3D

 20 21  0  0  0  0  0  0  0  0999 V2000
   12.8530   -0.6830   25.3280 C   0  0  0  0  0  0  0  0  0  0  0  0
   12.3370    0.4640   24.6720 O   0  0  0  0  0  0  0  0  0  0  0  0
   11.7940   -0.2750   23.7800 C   0  0  0  0  0  0  0  0  0  0  0  0
   12.8420   -0.8600   22.8900 C   0  0  0  0  0  0  0  0  0  0  0  0
   12.3640   -1.7860   21.8960 C   0  0  0  0  0  0  0  0  0  0  0  0
   13.1160   -2.5600   20.9090 C   0  0  0  0  0  0  0  0  0  0  0  0
   10.9060   -1.9520   21.9370 C   0  0  0  0  0  0  0  0  0  0  0  0
   10.0440   -1.3360   22.8120 C   0  0  0  0  0  0  0  0  0  0  0  0
   10.2300   -0.4110   23.8920 C   0  0  0  0  0  0  0  0  0  0  0  0
    8.9220   -0.7550   23.7050 C   0  0  0  0  0  0  0  0  0  0  0  0
    8.2160    0.3010   23.0510 N   0  0  0  0  0  0  0  0  0  0  0  0
    8.2460    0.4750   21.6900 C   0  0  0  0  0  0  0  0  0  0  0  0
    9.0860    1.4670   21.1510 O   0  0  0  0  0  0  0  0  0  0  0  0
    7.3690   -0.3440   21.0240 N   0  0  0  0  0  0  0  0  0  0  0  0
    6.5260    0.2120   20.0680 C   0  0  0  0  0  0  0  0  0  0  0  0
    5.3130    0.8860   20.3810 C   0  0  0  0  0  0  0  0  0  0  0  0
    4.6140    1.4240   19.1510 C   0  0  0  0  0  0  0  0  0  0  0  0
    5.1350    1.2490   17.9050 C   0  0  0  0  0  0  0  0  0  0  0  0
    6.2690    0.5940   17.6730 N   0  0  0  0  0  0  0  0  0  0  0  0
    6.9220    0.1010   18.7410 C   0  0  0  0  0  0  0  0  0  0  0  0
  1  2  1  0
  2  3  1  0
  3  4  2  0
  4  5  1  0
  5  6  1  0
  5  7  2  0
  7  8  1  0
  3  9  1  0
  8  9  2  0
  9 10  1  0
 10 11  1  0
 11 12  1  0
 12 13  2  0
 12 14  1  0
 14 15  1  0
 15 16  2  0
 16 17  1  0
 17 18  2  0
 18 19  1  0
 15 20  1  0
 19 20  2  0
M  END
