pyridine_urea_9104
     RDKit          3D

 19 20  0  0  0  0  0  0  0  0999 V2000
    8.8840    1.1950   21.2140 O   0  0  0  0  0  0  0  0  0  0  0  0
    8.1860    0.2630   21.6490 C   0  0  0  0  0  0  0  0  0  0  0  0
    8.3070   -0.2360   22.9080 N   0  0  0  0  0  0  0  0  0  0  0  0
    9.5360   -0.8470   23.2840 C   0  0  0  0  0  0  0  0  0  0  0  0
   10.6590    0.1700   23.1790 C   0  0  0  0  0  0  0  0  0  0  0  0
   11.8150    0.8990   23.0360 C   0  0  0  0  0  0  0  0  0  0  0  0
   13.0070    0.4300   22.7500 C   0  0  0  0  0  0  0  0  0  0  0  0
   13.2120   -0.8680   22.5510 C   0  0  0  0  0  0  0  0  0  0  0  0
   12.3520   -1.9190   22.5980 C   0  0  0  0  0  0  0  0  0  0  0  0
   11.2410   -2.6790   22.7320 F   0  0  0  0  0  0  0  0  0  0  0  0
   11.1740   -1.1790   22.9210 C   0  0  0  0  0  0  0  0  0  0  0  0
    9.9010   -2.3440   23.0500 Cl  0  0  0  0  0  0  0  0  0  0  0  0
    7.1900   -0.4010   20.9940 N   0  0  0  0  0  0  0  0  0  0  0  0
    6.4930    0.1770   19.9770 C   0  0  0  0  0  0  0  0  0  0  0  0
    5.3200    0.8730   20.2870 C   0  0  0  0  0  0  0  0  0  0  0  0
    4.6100    1.4880   19.2540 C   0  0  0  0  0  0  0  0  0  0  0  0
    5.1560    1.3610   17.8760 C   0  0  0  0  0  0  0  0  0  0  0  0
    6.2740    0.6750   17.6250 N   0  0  0  0  0  0  0  0  0  0  0  0
    6.9060    0.1070   18.6670 C   0  0  0  0  0  0  0  0  0  0  0  0
  1  2  2  0
  2  3  1  0
  3  4  1  0
  4  5  1  0
  5  6  2  0
  6  7  1  0
  7  8  2  0
  8  9  1  0
  9 10  1  0
  5 11  1  0
  9 11  2  0
 11 12  1  0
  2 13  1  0
 13 14  1  0
 14 15  2  0
 15 16  1  0
 16 17  2  0
 17 18  1  0
 14 19  1  0
 18 19  2  0
M  END
