pyridine_urea_15287
     RDKit          3D

 16 16  0  0  0  0  0  0  0  0999 V2000
   13.7450   -2.7870   25.6010 C   0  0  0  0  0  0  0  0  0  0  0  0
   13.6940   -2.8070   24.0710 C   0  0  0  0  0  0  0  0  0  0  0  0
   12.8850   -1.6190   23.6320 C   0  0  0  0  0  0  0  0  0  0  0  0
   11.4340   -1.7010   24.5080 S   0  0  0  0  0  0  0  0  0  0  0  0
   10.8740   -0.3790   23.5790 C   0  0  0  0  0  0  0  0  0  0  0  0
   10.2470   -1.0570   22.3860 C   0  0  0  0  0  0  0  0  0  0  0  0
    8.8370   -0.8010   22.4330 N   0  0  0  0  0  0  0  0  0  0  0  0
    8.3290    0.0750   21.5110 C   0  0  0  0  0  0  0  0  0  0  0  0
    8.8810    1.1500   21.2240 O   0  0  0  0  0  0  0  0  0  0  0  0
    7.1610   -0.4280   21.0100 N   0  0  0  0  0  0  0  0  0  0  0  0
    6.4730    0.1680   19.9650 C   0  0  0  0  0  0  0  0  0  0  0  0
    5.3100    0.8870   20.2390 C   0  0  0  0  0  0  0  0  0  0  0  0
    4.6320    1.4980   19.1910 C   0  0  0  0  0  0  0  0  0  0  0  0
    5.1460    1.3650   17.9220 C   0  0  0  0  0  0  0  0  0  0  0  0
    6.2530    0.6690   17.6460 N   0  0  0  0  0  0  0  0  0  0  0  0
    6.8950    0.0840   18.6690 C   0  0  0  0  0  0  0  0  0  0  0  0
  1  2  3  0
  2  3  1  0
  3  4  1  0
  4  5  1  0
  5  6  1  0
  6  7  1  0
  7  8  1  0
  8  9  2  0
  8 10  1  0
 10 11  1  0
 11 12  2  0
 12 13  1  0
 13 14  2  0
 14 15  1  0
 11 16  1  0
 15 16  2  0
M  END
