pyridine_urea_2566
     RDKit          3D

 23 25  0  0  0  0  0  0  0  0999 V2000
    8.9720    1.1900   21.2140 O   0  0  0  0  0  0  0  0  0  0  0  0
    8.3380    0.2150   21.6310 C   0  0  0  0  0  0  0  0  0  0  0  0
    7.2850   -0.4110   21.0200 N   0  0  0  0  0  0  0  0  0  0  0  0
    6.5560    0.1590   19.9820 C   0  0  0  0  0  0  0  0  0  0  0  0
    5.3910    0.8660   20.2780 C   0  0  0  0  0  0  0  0  0  0  0  0
    4.6650    1.4610   19.2470 C   0  0  0  0  0  0  0  0  0  0  0  0
    5.1440    1.3160   17.9630 C   0  0  0  0  0  0  0  0  0  0  0  0
    6.2510    0.6350   17.6590 N   0  0  0  0  0  0  0  0  0  0  0  0
    6.9320    0.0710   18.6700 C   0  0  0  0  0  0  0  0  0  0  0  0
    8.5960   -0.3980   22.8330 N   0  0  0  0  0  0  0  0  0  0  0  0
    9.9230   -0.3040   23.4600 C   0  0  2  0  0  0  0  0  0  0  0  0
   10.2810    1.1710   23.6600 C   0  0  0  0  0  0  0  0  0  0  0  0
   11.4750    1.6940   23.1100 C   0  0  0  0  0  0  0  0  0  0  0  0
   12.2240    0.8620   22.3220 O   0  0  0  0  0  0  0  0  0  0  0  0
   12.2330   -0.4680   22.7770 C   0  0  0  0  0  0  0  0  0  0  0  0
   13.2160   -1.2520   22.2760 C   0  0  0  0  0  0  0  0  0  0  0  0
   12.9770   -2.5510   22.6830 C   0  0  0  0  0  0  0  0  0  0  0  0
   12.7480   -2.7100   24.4980 S   0  0  0  0  0  0  0  0  0  0  0  0
   11.6050   -3.5620   24.7150 O   0  0  0  0  0  0  0  0  0  0  0  0
   14.0110   -2.9820   25.1440 O   0  0  0  0  0  0  0  0  0  0  0  0
   12.2480   -1.0180   24.9740 C   0  0  0  0  0  0  0  0  0  0  0  0
   12.5830   -0.0760   24.0400 C   0  0  0  0  0  0  0  0  0  0  0  0
   11.0130   -1.1260   22.7500 C   0  0  0  0  0  0  0  0  0  0  0  0
  1  2  2  0
  2  3  1  0
  3  4  1  0
  4  5  2  0
  5  6  1  0
  6  7  2  0
  7  8  1  0
  4  9  1  0
  8  9  2  0
  2 10  1  0
 11 10  1  6
 11 12  1  0
 12 13  1  0
 13 14  1  0
 15 14  1  0
 15 16  1  0
 16 17  1  0
 18 17  1  0
 18 19  2  0
 18 20  2  0
 18 21  1  0
 15 22  1  0
 21 22  1  0
 11 23  1  0
 15 23  1  0
M  END
