pyridine_urea_4078
     RDKit          3D

 26 28  0  0  0  0  0  0  0  0999 V2000
    5.8060   -5.5280   21.6600 C   0  0  0  0  0  0  0  0  0  0  0  0
    5.5710   -4.2370   22.0940 N   0  0  0  0  0  0  0  0  0  0  0  0
    5.3670   -3.0990   21.2840 C   0  0  0  0  0  0  0  0  0  0  0  0
    5.8400   -4.0790   23.4440 C   0  0  0  0  0  0  0  0  0  0  0  0
    7.0080   -3.3770   23.7830 C   0  0  0  0  0  0  0  0  0  0  0  0
    8.1450   -3.9820   23.3160 C   0  0  0  0  0  0  0  0  0  0  0  0
    9.3810   -3.3080   23.2440 C   0  0  0  0  0  0  0  0  0  0  0  0
    9.3950   -1.9510   23.6530 N   0  0  0  0  0  0  0  0  0  0  0  0
   10.4040   -1.0370   23.4430 C   0  0  0  0  0  0  0  0  0  0  0  0
   11.8970   -1.2770   23.6980 C   0  0  0  0  0  0  0  0  0  0  0  0
   12.8260   -0.2940   23.4780 C   0  0  0  0  0  0  0  0  0  0  0  0
   12.3930    0.9450   23.0150 C   0  0  0  0  0  0  0  0  0  0  0  0
   11.0310    1.1820   22.7660 C   0  0  0  0  0  0  0  0  0  0  0  0
   10.0950    0.1930   22.9800 C   0  0  0  0  0  0  0  0  0  0  0  0
    8.7750    0.2180   22.7960 N   0  0  0  0  0  0  0  0  0  0  0  0
    8.3630    0.5720   21.5670 C   0  0  0  0  0  0  0  0  0  0  0  0
    8.8000    1.5560   20.9820 O   0  0  0  0  0  0  0  0  0  0  0  0
    7.4250   -0.2820   21.0860 N   0  0  0  0  0  0  0  0  0  0  0  0
    6.7140    0.2030   20.0560 C   0  0  0  0  0  0  0  0  0  0  0  0
    5.4790    1.0500   20.3220 C   0  0  0  0  0  0  0  0  0  0  0  0
    4.7370    1.5820   19.2730 C   0  0  0  0  0  0  0  0  0  0  0  0
    5.1470    1.3250   17.9690 C   0  0  0  0  0  0  0  0  0  0  0  0
    6.2170    0.5790   17.6470 N   0  0  0  0  0  0  0  0  0  0  0  0
    7.0090    0.0080   18.7370 C   0  0  0  0  0  0  0  0  0  0  0  0
    8.0890   -1.4650   24.2150 C   0  0  0  0  0  0  0  0  0  0  0  0
    6.9870   -2.0060   23.5540 C   0  0  0  0  0  0  0  0  0  0  0  0
  1  2  1  0
  2  3  1  0
  2  4  1  0
  4  5  1  0
  5  6  1  0
  6  7  1  0
  7  8  1  0
  8  9  1  0
  9 10  2  0
 10 11  1  0
 11 12  2  0
 12 13  1  0
  9 14  1  0
 13 14  2  0
 14 15  1  0
 15 16  1  0
 16 17  2  0
 16 18  1  0
 18 19  1  0
 19 20  2  0
 20 21  1  0
 21 22  2  0
 22 23  1  0
 19 24  1  0
 23 24  2  0
  8 25  1  0
  5 26  1  0
 25 26  1  0
M  END
