pyridine_urea_7079
     RDKit          3D

 19 21  0  0  0  0  0  0  0  0999 V2000
    8.9560    1.2560   21.2050 O   0  0  0  0  0  0  0  0  0  0  0  0
    8.4210    0.2430   21.6780 C   0  0  0  0  0  0  0  0  0  0  0  0
    7.4000   -0.4580   21.0450 N   0  0  0  0  0  0  0  0  0  0  0  0
    6.5610    0.1360   20.0820 C   0  0  0  0  0  0  0  0  0  0  0  0
    5.3890    0.8430   20.3510 C   0  0  0  0  0  0  0  0  0  0  0  0
    4.6610    1.4030   19.2950 C   0  0  0  0  0  0  0  0  0  0  0  0
    5.1390    1.2350   18.0120 C   0  0  0  0  0  0  0  0  0  0  0  0
    6.2530    0.5540   17.7240 N   0  0  0  0  0  0  0  0  0  0  0  0
    6.9290    0.0260   18.7560 C   0  0  0  0  0  0  0  0  0  0  0  0
    8.7430   -0.3160   22.9230 N   0  0  0  0  0  0  0  0  0  0  0  0
    9.7630   -1.2480   23.2410 C   0  0  1  0  0  0  0  0  0  0  0  0
   10.0090   -2.2050   22.3460 C   0  0  0  0  0  0  0  0  0  0  0  0
   11.1780   -1.6340   22.1200 C   0  0  0  0  0  0  0  0  0  0  0  0
   11.0550   -0.6490   23.1300 C   0  0  0  0  0  0  0  0  0  0  0  0
   12.0390   -0.8650   24.0110 C   0  0  0  0  0  0  0  0  0  0  0  0
   13.2380   -1.0420   23.2720 C   0  0  0  0  0  0  0  0  0  0  0  0
   13.3740    0.0720   22.4490 C   0  0  0  0  0  0  0  0  0  0  0  0
   12.4330    1.0950   22.7170 C   0  0  0  0  0  0  0  0  0  0  0  0
   11.1140    0.6470   22.7120 C   0  0  0  0  0  0  0  0  0  0  0  0
  1  2  2  0
  2  3  1  0
  3  4  1  0
  4  5  2  0
  5  6  1  0
  6  7  2  0
  7  8  1  0
  4  9  1  0
  8  9  2  0
  2 10  1  0
 11 10  1  6
 11 12  1  0
 12 13  1  0
 11 14  1  0
 14 13  1  0
 14 15  1  0
 15 16  1  0
 16 17  1  0
 17 18  1  0
 14 19  1  0
 18 19  1  0
M  END
