pyridine_urea_12884
     RDKit          3D

 19 20  0  0  0  0  0  0  0  0999 V2000
    7.8300   -4.4790   23.4180 C   0  0  0  0  0  0  0  0  0  0  0  0
    8.3140   -3.0100   23.3500 C   0  0  0  0  0  0  0  0  0  0  0  0
    7.6430   -2.2280   24.4950 C   0  0  0  0  0  0  0  0  0  0  0  0
    9.7740   -2.7690   23.3970 N   0  0  0  0  0  0  0  0  0  0  0  0
   10.5570   -3.3560   24.3050 N   0  0  0  0  0  0  0  0  0  0  0  0
   11.8860   -2.9500   24.1540 C   0  0  0  0  0  0  0  0  0  0  0  0
   11.8610   -2.0940   23.0990 N   0  0  0  0  0  0  0  0  0  0  0  0
   10.5550   -1.9980   22.6470 C   0  0  0  0  0  0  0  0  0  0  0  0
    9.9360   -1.3280   21.6640 C   0  0  0  0  0  0  0  0  0  0  0  0
    9.0960   -0.4680   22.2740 N   0  0  0  0  0  0  0  0  0  0  0  0
    8.3830    0.4010   21.5130 C   0  0  0  0  0  0  0  0  0  0  0  0
    8.8220    1.5100   21.2070 O   0  0  0  0  0  0  0  0  0  0  0  0
    7.1880   -0.1530   21.1430 N   0  0  0  0  0  0  0  0  0  0  0  0
    6.4890    0.3240   20.0470 C   0  0  0  0  0  0  0  0  0  0  0  0
    5.3320    1.0470   20.2770 C   0  0  0  0  0  0  0  0  0  0  0  0
    4.6250    1.5600   19.1960 C   0  0  0  0  0  0  0  0  0  0  0  0
    5.1280    1.3120   17.9200 C   0  0  0  0  0  0  0  0  0  0  0  0
    6.2310    0.6090   17.6700 N   0  0  0  0  0  0  0  0  0  0  0  0
    6.8890    0.1280   18.7370 C   0  0  0  0  0  0  0  0  0  0  0  0
  1  2  1  0
  2  3  1  0
  2  4  1  0
  4  5  1  0
  5  6  2  0
  6  7  1  0
  4  8  1  0
  7  8  2  0
  8  9  1  0
  9 10  1  0
 10 11  1  0
 11 12  2  0
 11 13  1  0
 13 14  1  0
 14 15  2  0
 15 16  1  0
 16 17  2  0
 17 18  1  0
 14 19  1  0
 18 19  2  0
M  END
