pyridine_urea_11041
     RDKit          3D

 19 20  0  0  0  0  0  0  0  0999 V2000
    8.7390    0.8790   21.2510 O   0  0  0  0  0  0  0  0  0  0  0  0
    8.3870   -0.2630   21.5150 C   0  0  0  0  0  0  0  0  0  0  0  0
    7.0870   -0.7670   21.1020 N   0  0  0  0  0  0  0  0  0  0  0  0
    6.4430   -0.0680   20.0790 C   0  0  0  0  0  0  0  0  0  0  0  0
    5.2650    0.6400   20.3300 C   0  0  0  0  0  0  0  0  0  0  0  0
    4.6580    1.3290   19.2750 C   0  0  0  0  0  0  0  0  0  0  0  0
    5.2470    1.2900   18.0090 C   0  0  0  0  0  0  0  0  0  0  0  0
    6.3740    0.6120   17.7620 N   0  0  0  0  0  0  0  0  0  0  0  0
    6.9480   -0.0540   18.7950 C   0  0  0  0  0  0  0  0  0  0  0  0
    9.1090   -1.2100   22.2100 N   0  0  0  0  0  0  0  0  0  0  0  0
   10.4870   -0.8910   22.5490 C   0  0  2  0  0  0  0  0  0  0  0  0
   11.5620   -1.7620   21.9060 C   0  0  0  0  0  0  0  0  0  0  0  0
   12.8740   -1.3020   22.0120 C   0  0  0  0  0  0  0  0  0  0  0  0
   13.5530   -1.5440   21.0250 O   0  0  0  0  0  0  0  0  0  0  0  0
   10.7830   -1.1300   23.8560 C   0  0  0  0  0  0  0  0  0  0  0  0
   11.5700   -0.1020   23.7480 C   0  0  0  0  0  0  0  0  0  0  0  0
   11.7910    0.6890   22.7340 C   0  0  0  0  0  0  0  0  0  0  0  0
   12.3700    0.7910   23.9310 C   0  0  0  0  0  0  0  0  0  0  0  0
   11.8470   -0.4660   25.0920 S   0  0  0  0  0  0  0  0  0  0  0  0
  1  2  2  0
  2  3  1  0
  3  4  1  0
  4  5  2  0
  5  6  1  0
  6  7  2  0
  7  8  1  0
  4  9  1  0
  8  9  2  0
  2 10  1  0
 10 11  1  0
 11 12  1  6
 12 13  1  0
 13 14  1  0
 11 15  1  0
 15 16  2  0
 16 17  1  0
 17 18  2  0
 15 19  1  0
 18 19  1  0
M  END
