pyridine_urea_7268
     RDKit          3D

 18 19  0  0  0  0  0  0  0  0999 V2000
    8.7090    0.7860   21.1560 O   0  0  0  0  0  0  0  0  0  0  0  0
    8.3010   -0.2970   21.5290 C   0  0  0  0  0  0  0  0  0  0  0  0
    7.1190   -0.8250   21.0920 N   0  0  0  0  0  0  0  0  0  0  0  0
    6.4440   -0.1480   20.0500 C   0  0  0  0  0  0  0  0  0  0  0  0
    5.2510    0.5290   20.3200 C   0  0  0  0  0  0  0  0  0  0  0  0
    4.5920    1.2170   19.2920 C   0  0  0  0  0  0  0  0  0  0  0  0
    5.1540    1.2020   18.0330 C   0  0  0  0  0  0  0  0  0  0  0  0
    6.2930    0.5540   17.7520 N   0  0  0  0  0  0  0  0  0  0  0  0
    6.9110   -0.1050   18.7550 C   0  0  0  0  0  0  0  0  0  0  0  0
    9.0480   -1.0440   22.4240 N   0  0  0  0  0  0  0  0  0  0  0  0
   10.3470   -0.3840   22.6360 C   0  0  0  0  0  0  0  0  0  0  0  0
   11.5540   -1.2980   22.7260 C   0  0  0  0  0  0  0  0  0  0  0  0
   12.8080   -0.6870   22.8950 C   0  0  0  0  0  0  0  0  0  0  0  0
   12.9040    0.7130   22.9640 C   0  0  0  0  0  0  0  0  0  0  0  0
   11.7720    1.5320   22.8760 C   0  0  0  0  0  0  0  0  0  0  0  0
   11.8750    3.6170   22.9110 I   0  0  0  0  0  0  0  0  0  0  0  0
   10.5210    0.9800   22.7290 C   0  0  0  0  0  0  0  0  0  0  0  0
    9.4670    1.8200   22.6570 F   0  0  0  0  0  0  0  0  0  0  0  0
  1  2  2  0
  2  3  1  0
  3  4  1  0
  4  5  2  0
  5  6  1  0
  6  7  2  0
  7  8  1  0
  4  9  1  0
  8  9  2  0
  2 10  1  0
 10 11  1  0
 11 12  2  0
 12 13  1  0
 13 14  2  0
 14 15  1  0
 15 16  1  0
 11 17  1  0
 15 17  2  0
 17 18  1  0
M  END
