pyridine_urea_13157
     RDKit          3D

 18 19  0  0  0  0  0  0  0  0999 V2000
    8.9150    0.8890   21.3550 O   0  0  0  0  0  0  0  0  0  0  0  0
    8.4400   -0.1950   21.6660 C   0  0  0  0  0  0  0  0  0  0  0  0
    7.2830   -0.7000   21.1180 N   0  0  0  0  0  0  0  0  0  0  0  0
    6.5620   -0.0610   20.0890 C   0  0  0  0  0  0  0  0  0  0  0  0
    5.3890    0.6490   20.3910 C   0  0  0  0  0  0  0  0  0  0  0  0
    4.6800    1.2980   19.3740 C   0  0  0  0  0  0  0  0  0  0  0  0
    5.1690    1.2140   18.0870 C   0  0  0  0  0  0  0  0  0  0  0  0
    6.2810    0.5360   17.7680 N   0  0  0  0  0  0  0  0  0  0  0  0
    6.9460   -0.0820   18.7660 C   0  0  0  0  0  0  0  0  0  0  0  0
    9.0410   -1.0130   22.6260 N   0  0  0  0  0  0  0  0  0  0  0  0
   10.4770   -0.8290   22.8510 C   0  0  0  0  0  0  0  0  0  0  0  0
   10.6230    0.6920   22.8210 C   0  0  0  0  0  0  0  0  0  0  0  0
    9.4800    1.2580   23.5250 O   0  0  0  0  0  0  0  0  0  0  0  0
   11.3820   -1.5870   21.9280 C   0  0  0  0  0  0  0  0  0  0  0  0
   12.7180   -1.3200   22.1150 C   0  0  0  0  0  0  0  0  0  0  0  0
   13.1900   -1.6140   23.3150 O   0  0  0  0  0  0  0  0  0  0  0  0
   12.3460   -1.1180   24.3500 C   0  0  0  0  0  0  0  0  0  0  0  0
   10.9720   -1.3520   24.0630 C   0  0  0  0  0  0  0  0  0  0  0  0
  1  2  2  0
  2  3  1  0
  3  4  1  0
  4  5  2  0
  5  6  1  0
  6  7  2  0
  7  8  1  0
  4  9  1  0
  8  9  2  0
  2 10  1  0
 11 10  1  0
 11 12  1  0
 12 13  1  0
 11 14  1  0
 14 15  1  0
 15 16  1  0
 16 17  1  0
 11 18  1  0
 17 18  1  0
M  END
