pyridine_urea_11804
     RDKit          3D

 25 27  0  0  0  0  0  0  0  0999 V2000
    8.4920    0.4080   21.1180 O   0  0  0  0  0  0  0  0  0  0  0  0
    7.9290   -0.6430   21.4090 C   0  0  0  0  0  0  0  0  0  0  0  0
    6.7300   -1.0100   20.9150 N   0  0  0  0  0  0  0  0  0  0  0  0
    6.1920   -0.2150   19.9100 C   0  0  0  0  0  0  0  0  0  0  0  0
    4.9990    0.4790   20.1260 C   0  0  0  0  0  0  0  0  0  0  0  0
    4.4770    1.2840   19.1180 C   0  0  0  0  0  0  0  0  0  0  0  0
    5.1720    1.3660   17.9240 C   0  0  0  0  0  0  0  0  0  0  0  0
    6.3190    0.7030   17.6990 N   0  0  0  0  0  0  0  0  0  0  0  0
    6.7970   -0.0660   18.6870 C   0  0  0  0  0  0  0  0  0  0  0  0
    8.5220   -1.4930   22.2890 N   0  0  0  0  0  0  0  0  0  0  0  0
    9.6060   -0.7140   22.7530 C   0  0  0  0  0  0  0  0  0  0  0  0
   11.0080   -1.0770   22.3320 C   0  0  0  0  0  0  0  0  0  0  0  0
   11.9640   -0.2180   22.7840 C   0  0  0  0  0  0  0  0  0  0  0  0
   11.6030    0.8890   23.5700 C   0  0  0  0  0  0  0  0  0  0  0  0
   12.5230    1.7190   23.9500 O   0  0  0  0  0  0  0  0  0  0  0  0
   13.1390    1.4630   22.8330 C   0  0  0  0  0  0  0  0  0  0  0  0
   13.1650    0.0930   22.9510 C   0  0  0  0  0  0  0  0  0  0  0  0
   12.9780   -0.3640   24.2670 C   0  0  0  0  0  0  0  0  0  0  0  0
   12.9890   -1.7810   24.5600 C   0  0  0  0  0  0  0  0  0  0  0  0
   13.1770   -2.6730   23.4240 C   0  0  0  0  0  0  0  0  0  0  0  0
   13.3370   -2.1510   22.1760 C   0  0  0  0  0  0  0  0  0  0  0  0
   13.3470   -0.7950   21.9090 N   0  0  0  0  0  0  0  0  0  0  0  0
   10.3190    1.1760   23.9480 C   0  0  0  0  0  0  0  0  0  0  0  0
   10.0100    2.2540   24.7020 F   0  0  0  0  0  0  0  0  0  0  0  0
    9.3200    0.3730   23.5420 C   0  0  0  0  0  0  0  0  0  0  0  0
  1  2  2  0
  2  3  1  0
  3  4  1  0
  4  5  2  0
  5  6  1  0
  6  7  2  0
  7  8  1  0
  4  9  1  0
  8  9  2  0
  2 10  1  0
 10 11  1  0
 11 12  2  0
 12 13  1  0
 13 14  2  0
 14 15  1  0
 15 16  1  0
 16 17  1  0
 17 18  2  0
 18 19  1  0
 19 20  2  0
 20 21  1  0
 17 22  1  0
 21 22  2  0
 14 23  1  0
 23 24  1  0
 11 25  1  0
 23 25  2  0
M  END
