pyridine_urea_1941
     RDKit          3D

 19 20  0  0  0  0  0  0  0  0999 V2000
   12.9570   -2.1660   21.4150 C   0  0  0  0  0  0  0  0  0  0  0  0
   13.2070   -0.9590   22.1470 O   0  0  0  0  0  0  0  0  0  0  0  0
   13.1260   -1.0620   23.5150 C   0  0  0  0  0  0  0  0  0  0  0  0
   13.4720   -2.2300   23.3690 O   0  0  0  0  0  0  0  0  0  0  0  0
   12.7290    0.3980   23.2470 C   0  0  0  0  0  0  0  0  0  0  0  0
   11.2290    0.5050   23.1520 C   0  0  1  0  0  0  0  0  0  0  0  0
   10.5840   -0.4350   22.2840 C   0  0  0  0  0  0  0  0  0  0  0  0
    9.7440   -1.0560   23.1640 C   0  0  2  0  0  0  0  0  0  0  0  0
    8.4840   -0.5760   22.9330 N   0  0  0  0  0  0  0  0  0  0  0  0
    8.3140    0.0490   21.7100 C   0  0  0  0  0  0  0  0  0  0  0  0
    9.0200    1.1600   21.2860 O   0  0  0  0  0  0  0  0  0  0  0  0
    7.3100   -0.5800   21.0160 N   0  0  0  0  0  0  0  0  0  0  0  0
    6.5780    0.0480   20.0050 C   0  0  0  0  0  0  0  0  0  0  0  0
    5.4280    0.7670   20.3300 C   0  0  0  0  0  0  0  0  0  0  0  0
    4.7130    1.4040   19.3290 C   0  0  0  0  0  0  0  0  0  0  0  0
    5.1660    1.3080   18.0140 C   0  0  0  0  0  0  0  0  0  0  0  0
    6.2610    0.6140   17.6830 N   0  0  0  0  0  0  0  0  0  0  0  0
    6.9370    0.0040   18.6800 C   0  0  0  0  0  0  0  0  0  0  0  0
   10.4530   -0.1310   24.2820 C   0  0  0  0  0  0  0  0  0  0  0  0
  1  2  1  0
  2  3  1  0
  3  4  2  0
  3  5  1  0
  6  5  1  1
  6  7  1  0
  7  8  1  0
  8  9  1  6
  9 10  1  0
 10 11  2  0
 10 12  1  0
 12 13  1  0
 13 14  2  0
 14 15  1  0
 15 16  2  0
 16 17  1  0
 13 18  1  0
 17 18  2  0
  6 19  1  0
  8 19  1  0
M  END
