pyridine_urea_371
     RDKit          3D

 26 28  0  0  0  0  0  0  0  0999 V2000
    8.6190    1.1700   21.1360 O   0  0  0  0  0  0  0  0  0  0  0  0
    8.1280    0.1370   21.6280 C   0  0  0  0  0  0  0  0  0  0  0  0
    7.1020   -0.5840   21.0770 N   0  0  0  0  0  0  0  0  0  0  0  0
    6.4430    0.0530   19.9810 C   0  0  0  0  0  0  0  0  0  0  0  0
    5.1940    0.8500   20.3390 C   0  0  0  0  0  0  0  0  0  0  0  0
    4.5490    1.5150   19.1780 C   0  0  0  0  0  0  0  0  0  0  0  0
    5.1180    1.3550   17.9310 C   0  0  0  0  0  0  0  0  0  0  0  0
    6.2180    0.6300   17.6730 N   0  0  0  0  0  0  0  0  0  0  0  0
    6.8490    0.0040   18.6800 C   0  0  0  0  0  0  0  0  0  0  0  0
    8.5650   -0.4050   22.8030 N   0  0  0  0  0  0  0  0  0  0  0  0
    9.9530   -0.0800   23.0820 C   0  0  0  0  0  0  0  0  0  0  0  0
   10.2570    1.1120   23.6190 C   0  0  0  0  0  0  0  0  0  0  0  0
   11.7540    1.1680   23.7560 C   0  0  0  0  0  0  0  0  0  0  0  0
   12.6840    0.2080   23.4240 C   0  0  0  0  0  0  0  0  0  0  0  0
   12.2610   -0.9650   22.9000 C   0  0  0  0  0  0  0  0  0  0  0  0
   13.0940   -1.9530   22.5450 C   0  0  0  0  0  0  0  0  0  0  0  0
   12.7200   -2.2230   20.8420 S   0  0  0  0  0  0  0  0  0  0  0  0
   13.3630   -1.0970   20.2550 O   0  0  0  0  0  0  0  0  0  0  0  0
   11.3430   -2.5970   20.8960 O   0  0  0  0  0  0  0  0  0  0  0  0
   13.6650   -3.5920   20.3450 C   0  0  0  0  0  0  0  0  0  0  0  0
   13.1900   -4.6690   20.6740 C   0  0  0  0  0  0  0  0  0  0  0  0
   13.9330   -5.8460   20.4750 C   0  0  0  0  0  0  0  0  0  0  0  0
   15.1710   -5.8860   19.9310 C   0  0  0  0  0  0  0  0  0  0  0  0
   15.6280   -4.7380   19.5110 C   0  0  0  0  0  0  0  0  0  0  0  0
   14.8060   -3.6550   19.7060 C   0  0  0  0  0  0  0  0  0  0  0  0
   10.9360   -1.1450   22.7130 C   0  0  0  0  0  0  0  0  0  0  0  0
  1  2  2  0
  2  3  1  0
  3  4  1  0
  4  5  2  0
  5  6  1  0
  6  7  2  0
  7  8  1  0
  4  9  1  0
  8  9  2  0
  2 10  1  0
 10 11  1  0
 11 12  2  0
 12 13  1  0
 13 14  2  0
 14 15  1  0
 15 16  1  0
 17 16  1  0
 17 18  2  0
 17 19  2  0
 17 20  1  0
 20 21  2  0
 21 22  1  0
 22 23  2  0
 23 24  1  0
 20 25  1  0
 24 25  2  0
 11 26  1  0
 15 26  2  0
M  END
