pyridine_urea_2252
     RDKit          3D

 26 28  0  0  0  0  0  0  0  0999 V2000
   12.3470    0.3480   24.7790 C   0  0  0  0  0  0  0  0  0  0  0  0
   10.9410   -0.0930   25.0360 C   0  0  0  0  0  0  0  0  0  0  0  0
   10.5710   -0.3860   23.8260 C   0  0  0  0  0  0  0  0  0  0  0  0
    9.4840   -0.8510   23.2540 C   0  0  0  0  0  0  0  0  0  0  0  0
    9.7340   -0.9740   21.9050 C   0  0  2  0  0  0  0  0  0  0  0  0
    8.7500   -1.3160   21.0130 N   0  0  0  0  0  0  0  0  0  0  0  0
    7.8940   -0.2880   21.0090 C   0  0  0  0  0  0  0  0  0  0  0  0
    8.2760    0.8680   21.1570 O   0  0  0  0  0  0  0  0  0  0  0  0
    6.5520   -0.7140   20.8080 N   0  0  0  0  0  0  0  0  0  0  0  0
    6.0360    0.0210   19.8230 C   0  0  0  0  0  0  0  0  0  0  0  0
    4.8340    0.6900   19.9970 C   0  0  0  0  0  0  0  0  0  0  0  0
    4.3710    1.4510   18.9490 C   0  0  0  0  0  0  0  0  0  0  0  0
    5.0850    1.5390   17.7690 C   0  0  0  0  0  0  0  0  0  0  0  0
    6.2450    0.8860   17.5910 N   0  0  0  0  0  0  0  0  0  0  0  0
    6.6890    0.1480   18.6200 C   0  0  0  0  0  0  0  0  0  0  0  0
   10.8600   -1.8110   21.5690 C   0  0  0  0  0  0  0  0  0  0  0  0
   11.7190   -0.7560   22.2270 C   0  0  0  0  0  0  0  0  0  0  0  0
   11.4090    0.4290   22.8270 C   0  0  0  0  0  0  0  0  0  0  0  0
   12.7450    0.1850   22.8230 C   0  0  0  0  0  0  0  0  0  0  0  0
   13.1730   -1.0130   22.2220 C   0  0  0  0  0  0  0  0  0  0  0  0
   12.3930   -2.0210   21.6000 C   0  0  0  0  0  0  0  0  0  0  0  0
   13.1730   -3.3660   20.9250 Cl  0  0  0  0  0  0  0  0  0  0  0  0
    8.2790   -1.1480   24.1210 C   0  0  0  0  0  0  0  0  0  0  0  0
    8.5330   -0.8550   25.6330 C   0  0  0  0  0  0  0  0  0  0  0  0
    9.7980   -0.3580   26.0930 C   0  0  0  0  0  0  0  0  0  0  0  0
    9.9090   -0.1660   27.4030 F   0  0  0  0  0  0  0  0  0  0  0  0
  1  2  1  0
  2  3  2  0
  3  4  1  0
  4  5  1  0
  5  6  1  6
  6  7  1  0
  7  8  2  0
  7  9  1  0
  9 10  1  0
 10 11  2  0
 11 12  1  0
 12 13  2  0
 13 14  1  0
 10 15  1  0
 14 15  2  0
  5 16  1  0
 16 17  2  0
 17 18  1  0
 18 19  2  0
 19 20  1  0
 16 21  1  0
 20 21  2  0
 21 22  1  0
  4 23  2  0
 23 24  1  0
  2 25  1  0
 24 25  2  0
 25 26  1  0
M  END
