pyridine_urea_1682
     RDKit          3D

 18 18  0  0  0  0  0  0  0  0999 V2000
    8.8950    1.1800   21.2170 O   0  0  0  0  0  0  0  0  0  0  0  0
    8.3590    0.1170   21.5720 C   0  0  0  0  0  0  0  0  0  0  0  0
    8.7740   -0.6720   22.6090 N   0  0  0  0  0  0  0  0  0  0  0  0
   10.0670   -0.7040   23.1440 C   0  0  0  0  0  0  0  0  0  0  0  0
   10.4910    0.4290   23.8340 C   0  0  0  0  0  0  0  0  0  0  0  0
   11.8510    0.5890   24.0410 C   0  0  0  0  0  0  0  0  0  0  0  0
   12.6970    0.2180   23.0250 C   0  0  0  0  0  0  0  0  0  0  0  0
   12.8470   -1.1390   22.7250 C   0  0  0  0  0  0  0  0  0  0  0  0
   11.6760   -1.7880   22.6120 F   0  0  0  0  0  0  0  0  0  0  0  0
   13.5340   -1.7870   23.6830 F   0  0  0  0  0  0  0  0  0  0  0  0
   13.5010   -1.3170   21.5650 F   0  0  0  0  0  0  0  0  0  0  0  0
    7.2450   -0.4470   21.0040 N   0  0  0  0  0  0  0  0  0  0  0  0
    6.5530    0.1230   20.0030 C   0  0  0  0  0  0  0  0  0  0  0  0
    5.2720    0.9120   20.3190 C   0  0  0  0  0  0  0  0  0  0  0  0
    4.6190    1.4890   19.2520 C   0  0  0  0  0  0  0  0  0  0  0  0
    5.1360    1.3340   17.9720 C   0  0  0  0  0  0  0  0  0  0  0  0
    6.2510    0.6380   17.6800 N   0  0  0  0  0  0  0  0  0  0  0  0
    6.9310    0.0510   18.6840 C   0  0  0  0  0  0  0  0  0  0  0  0
  1  2  2  0
  2  3  1  0
  3  4  1  0
  4  5  1  0
  5  6  1  0
  6  7  1  0
  7  8  1  0
  8  9  1  0
  8 10  1  0
  8 11  1  0
  2 12  1  0
 12 13  1  0
 13 14  2  0
 14 15  1  0
 15 16  2  0
 16 17  1  0
 13 18  1  0
 17 18  2  0
M  END
