pyridine_urea_2339
     RDKit          3D

 25 28  0  0  0  0  0  0  0  0999 V2000
   12.4630    8.7440   25.5440 C   0  0  0  0  0  0  0  0  0  0  0  0
   12.6020    7.4360   24.7690 C   0  0  0  0  0  0  0  0  0  0  0  0
   13.2590    7.3050   23.5660 C   0  0  0  0  0  0  0  0  0  0  0  0
   13.2990    6.0610   22.9690 C   0  0  0  0  0  0  0  0  0  0  0  0
   12.6160    5.1620   23.7770 C   0  0  0  0  0  0  0  0  0  0  0  0
   12.4060    3.8200   23.4870 C   0  0  0  0  0  0  0  0  0  0  0  0
   11.1550    3.4680   23.9100 N   0  0  0  0  0  0  0  0  0  0  0  0
   10.8440    2.2390   23.6130 C   0  0  0  0  0  0  0  0  0  0  0  0
    9.5120    1.7320   23.9660 C   0  0  0  0  0  0  0  0  0  0  0  0
    9.1810    0.5030   23.5470 C   0  0  0  0  0  0  0  0  0  0  0  0
   10.0780   -0.2450   22.8410 C   0  0  0  0  0  0  0  0  0  0  0  0
    9.4080   -1.3480   22.4410 N   0  0  0  0  0  0  0  0  0  0  0  0
    8.5090   -0.7400   21.5190 C   0  0  0  0  0  0  0  0  0  0  0  0
    8.7720    0.3660   21.0670 O   0  0  0  0  0  0  0  0  0  0  0  0
    7.3320   -1.3000   21.1520 N   0  0  0  0  0  0  0  0  0  0  0  0
    6.6700   -0.5270   20.2040 C   0  0  0  0  0  0  0  0  0  0  0  0
    5.4440    0.1010   20.5160 C   0  0  0  0  0  0  0  0  0  0  0  0
    4.7860    0.8850   19.5510 C   0  0  0  0  0  0  0  0  0  0  0  0
    5.3530    1.0370   18.2880 C   0  0  0  0  0  0  0  0  0  0  0  0
    6.5170    0.4510   17.9630 N   0  0  0  0  0  0  0  0  0  0  0  0
    7.1410   -0.3060   18.9060 C   0  0  0  0  0  0  0  0  0  0  0  0
   11.4080    0.1400   22.5500 C   0  0  0  0  0  0  0  0  0  0  0  0
   11.7860    1.4610   22.9380 C   0  0  0  0  0  0  0  0  0  0  0  0
   13.2040    2.4780   22.7640 S   0  0  0  0  0  0  0  0  0  0  0  0
   11.9960    5.9320   25.2090 S   0  0  0  0  0  0  0  0  0  0  0  0
  1  2  1  0
  2  3  2  0
  3  4  1  0
  4  5  2  0
  5  6  1  0
  6  7  2  0
  7  8  1  0
  8  9  2  0
  9 10  1  0
 10 11  2  0
 11 12  1  0
 12 13  1  0
 13 14  2  0
 13 15  1  0
 15 16  1  0
 16 17  2  0
 17 18  1  0
 18 19  2  0
 19 20  1  0
 16 21  1  0
 20 21  2  0
 11 22  1  0
  8 23  1  0
 22 23  2  0
  6 24  1  0
 23 24  1  0
  2 25  1  0
  5 25  1  0
M  END
