pyridine_urea_9606
     RDKit          3D

 18 19  0  0  0  0  0  0  0  0999 V2000
    8.5990    0.9760   21.2230 O   0  0  0  0  0  0  0  0  0  0  0  0
    8.2840   -0.1760   21.4870 C   0  0  0  0  0  0  0  0  0  0  0  0
    7.1050   -0.7490   21.0740 N   0  0  0  0  0  0  0  0  0  0  0  0
    6.4430   -0.0400   20.0150 C   0  0  0  0  0  0  0  0  0  0  0  0
    5.1610    0.7030   20.3600 C   0  0  0  0  0  0  0  0  0  0  0  0
    4.4720    1.4700   19.2310 C   0  0  0  0  0  0  0  0  0  0  0  0
    5.1670    1.4010   17.8730 C   0  0  0  0  0  0  0  0  0  0  0  0
    6.3440    0.6650   17.7270 N   0  0  0  0  0  0  0  0  0  0  0  0
    6.9460   -0.0210   18.7410 C   0  0  0  0  0  0  0  0  0  0  0  0
    9.0540   -1.0300   22.2260 N   0  0  0  0  0  0  0  0  0  0  0  0
   10.3270   -0.5860   22.6180 C   0  0  1  0  0  0  0  0  0  0  0  0
   10.4270   -0.1260   23.9170 C   0  0  0  0  0  0  0  0  0  0  0  0
   11.7050    0.1470   24.4030 C   0  0  0  0  0  0  0  0  0  0  0  0
   12.7890   -0.4150   23.7520 C   0  0  2  0  0  0  0  0  0  0  0  0
   13.1550    0.1740   22.5810 C   0  0  0  0  0  0  0  0  0  0  0  0
   13.5340   -0.7040   21.6300 F   0  0  0  0  0  0  0  0  0  0  0  0
   12.4620   -1.8430   23.3560 C   0  0  0  0  0  0  0  0  0  0  0  0
   11.3710   -1.6310   22.3910 C   0  0  0  0  0  0  0  0  0  0  0  0
  1  2  2  0
  2  3  1  0
  3  4  1  0
  4  5  2  0
  5  6  1  0
  6  7  2  0
  7  8  1  0
  4  9  1  0
  8  9  2  0
  2 10  1  0
 11 10  1  1
 11 12  1  0
 12 13  1  0
 13 14  1  0
 14 15  1  6
 15 16  1  0
 14 17  1  0
 11 18  1  0
 17 18  1  0
M  END
