pyridine_urea_9800
     RDKit          3D

 26 28  0  0  0  0  0  0  0  0999 V2000
   13.0720   -1.8910   20.8020 C   0  0  0  0  0  0  0  0  0  0  0  0
   12.3200   -2.2670   21.9900 C   0  0  0  0  0  0  0  0  0  0  0  0
   10.8080   -2.4560   21.9010 C   0  0  0  0  0  0  0  0  0  0  0  0
   10.0950   -2.8790   23.1320 C   0  0  0  0  0  0  0  0  0  0  0  0
   10.9710   -3.0550   24.3310 C   0  0  0  0  0  0  0  0  0  0  0  0
   12.4520   -2.7880   24.2320 C   0  0  0  0  0  0  0  0  0  0  0  0
   13.4270   -2.8550   25.3010 C   0  0  0  0  0  0  0  0  0  0  0  0
   13.9810   -1.8720   24.8470 O   0  0  0  0  0  0  0  0  0  0  0  0
   12.9650   -0.9720   24.3030 C   0  0  0  0  0  0  0  0  0  0  0  0
   13.0550    0.1220   23.5200 C   0  0  0  0  0  0  0  0  0  0  0  0
   11.9720    0.8570   23.1220 C   0  0  0  0  0  0  0  0  0  0  0  0
   10.5860    0.6820   23.3840 C   0  0  0  0  0  0  0  0  0  0  0  0
    9.3290    0.2840   23.7870 C   0  0  0  0  0  0  0  0  0  0  0  0
    8.8440   -0.5130   22.6650 N   0  0  0  0  0  0  0  0  0  0  0  0
    8.3720    0.1470   21.5690 C   0  0  0  0  0  0  0  0  0  0  0  0
    8.9300    1.3340   21.1350 O   0  0  0  0  0  0  0  0  0  0  0  0
    7.2960   -0.4940   21.0180 N   0  0  0  0  0  0  0  0  0  0  0  0
    6.5660    0.0970   19.9990 C   0  0  0  0  0  0  0  0  0  0  0  0
    5.3320    0.8740   20.3140 C   0  0  0  0  0  0  0  0  0  0  0  0
    4.6540    1.4630   19.2640 C   0  0  0  0  0  0  0  0  0  0  0  0
    5.1340    1.3140   17.9890 C   0  0  0  0  0  0  0  0  0  0  0  0
    6.2310    0.6160   17.6550 N   0  0  0  0  0  0  0  0  0  0  0  0
    6.9060    0.0330   18.6700 C   0  0  0  0  0  0  0  0  0  0  0  0
   10.6560   -0.4900   24.1990 C   0  0  0  0  0  0  0  0  0  0  0  0
   11.7040   -1.2540   24.6310 C   0  0  0  0  0  0  0  0  0  0  0  0
   13.0200   -2.4260   23.0820 C   0  0  0  0  0  0  0  0  0  0  0  0
  1  2  1  0
  2  3  2  0
  3  4  1  0
  4  5  2  0
  5  6  1  0
  6  7  1  0
  7  8  1  0
  8  9  1  0
  9 10  2  0
 10 11  1  0
 11 12  2  0
 12 13  1  0
 13 14  1  0
 14 15  1  0
 15 16  2  0
 15 17  1  0
 17 18  1  0
 18 19  2  0
 19 20  1  0
 20 21  2  0
 21 22  1  0
 18 23  1  0
 22 23  2  0
 12 24  1  0
  9 25  1  0
 24 25  2  0
  2 26  1  0
  6 26  2  0
M  END
