pyridine_urea_10890
     RDKit          3D

 20 21  0  0  0  0  0  0  0  0999 V2000
    6.1850   -6.5350   22.5150 C   0  0  0  0  0  0  0  0  0  0  0  0
    7.2500   -5.6190   23.0340 C   0  0  0  0  0  0  0  0  0  0  0  0
    6.8900   -4.5200   23.8160 C   0  0  0  0  0  0  0  0  0  0  0  0
    5.5300   -4.5570   24.4330 N   0  0  0  0  0  0  0  0  0  0  0  0
    5.4140   -3.4290   25.1220 C   0  0  0  0  0  0  0  0  0  0  0  0
    6.5940   -2.7350   24.9570 C   0  0  0  0  0  0  0  0  0  0  0  0
    7.5420   -3.3200   24.1850 N   0  0  0  0  0  0  0  0  0  0  0  0
    8.8110   -2.9910   23.7810 C   0  0  0  0  0  0  0  0  0  0  0  0
    8.8610   -2.0390   22.5910 C   0  0  2  0  0  0  0  0  0  0  0  0
   10.2840   -2.0720   22.0410 C   0  0  0  0  0  0  0  0  0  0  0  0
    8.6270   -0.7300   22.8040 N   0  0  0  0  0  0  0  0  0  0  0  0
    8.1790   -0.1370   21.6060 C   0  0  0  0  0  0  0  0  0  0  0  0
    8.7800    0.8490   21.2060 O   0  0  0  0  0  0  0  0  0  0  0  0
    7.1060   -0.7170   21.0150 N   0  0  0  0  0  0  0  0  0  0  0  0
    6.4810   -0.0290   20.0310 C   0  0  0  0  0  0  0  0  0  0  0  0
    5.3210    0.6980   20.3130 C   0  0  0  0  0  0  0  0  0  0  0  0
    4.7120    1.3890   19.2720 C   0  0  0  0  0  0  0  0  0  0  0  0
    5.2670    1.3350   18.0100 C   0  0  0  0  0  0  0  0  0  0  0  0
    6.3810    0.6310   17.7330 N   0  0  0  0  0  0  0  0  0  0  0  0
    6.9570   -0.0330   18.7470 C   0  0  0  0  0  0  0  0  0  0  0  0
  1  2  1  0
  2  3  1  0
  3  4  2  0
  4  5  1  0
  5  6  2  0
  3  7  1  0
  6  7  1  0
  7  8  1  0
  8  9  1  0
  9 10  1  1
  9 11  1  0
 11 12  1  0
 12 13  2  0
 12 14  1  0
 14 15  1  0
 15 16  2  0
 16 17  1  0
 17 18  2  0
 18 19  1  0
 15 20  1  0
 19 20  2  0
M  END
