pyridine_urea_2381
     RDKit          3D

 24 26  0  0  0  0  0  0  0  0999 V2000
    8.9290    1.3520   21.1630 O   0  0  0  0  0  0  0  0  0  0  0  0
    8.5200    0.2610   21.5540 C   0  0  0  0  0  0  0  0  0  0  0  0
    7.3970   -0.3800   21.0920 N   0  0  0  0  0  0  0  0  0  0  0  0
    6.6180    0.1440   20.0520 C   0  0  0  0  0  0  0  0  0  0  0  0
    5.4540    0.8530   20.3610 C   0  0  0  0  0  0  0  0  0  0  0  0
    4.6840    1.4030   19.3370 C   0  0  0  0  0  0  0  0  0  0  0  0
    5.1140    1.2210   18.0410 C   0  0  0  0  0  0  0  0  0  0  0  0
    6.2180    0.5380   17.7170 N   0  0  0  0  0  0  0  0  0  0  0  0
    6.9430    0.0140   18.7230 C   0  0  0  0  0  0  0  0  0  0  0  0
    9.1970   -0.4320   22.5290 N   0  0  0  0  0  0  0  0  0  0  0  0
   10.5290    0.0950   22.9020 C   0  0  0  0  0  0  0  0  0  0  0  0
   10.6630    1.6210   23.0580 C   0  0  0  0  0  0  0  0  0  0  0  0
    9.5480    2.4280   23.3820 C   0  0  0  0  0  0  0  0  0  0  0  0
    9.6940    3.8130   23.5180 C   0  0  0  0  0  0  0  0  0  0  0  0
   10.9250    4.4180   23.3400 C   0  0  0  0  0  0  0  0  0  0  0  0
   11.0100    5.8310   23.4950 O   0  0  0  0  0  0  0  0  0  0  0  0
    9.8230    6.4400   24.0170 C   0  0  0  0  0  0  0  0  0  0  0  0
   10.0280    7.7380   24.3270 F   0  0  0  0  0  0  0  0  0  0  0  0
    8.8440    6.3920   23.0860 F   0  0  0  0  0  0  0  0  0  0  0  0
    9.3740    5.8060   25.1180 F   0  0  0  0  0  0  0  0  0  0  0  0
   12.0440    3.6540   23.0200 C   0  0  0  0  0  0  0  0  0  0  0  0
   11.9080    2.2700   22.8850 C   0  0  0  0  0  0  0  0  0  0  0  0
   11.8610   -0.8150   22.8180 C   0  0  0  0  0  0  0  0  0  0  0  0
   11.2510   -0.7940   23.9460 C   0  0  0  0  0  0  0  0  0  0  0  0
  1  2  2  0
  2  3  1  0
  3  4  1  0
  4  5  2  0
  5  6  1  0
  6  7  2  0
  7  8  1  0
  4  9  1  0
  8  9  2  0
  2 10  1  0
 11 10  1  0
 11 12  1  0
 12 13  2  0
 13 14  1  0
 14 15  2  0
 15 16  1  0
 16 17  1  0
 17 18  1  0
 17 19  1  0
 17 20  1  0
 15 21  1  0
 12 22  1  0
 21 22  2  0
 11 23  1  0
 11 24  1  0
 23 24  1  0
M  END
