pyridine_urea_14765
     RDKit          3D

 20 21  0  0  0  0  0  0  0  0999 V2000
   13.3600   -2.8860   22.5680 N   0  0  0  0  0  0  0  0  0  0  0  0
   13.1880   -1.8350   21.7370 C   0  0  0  0  0  0  0  0  0  0  0  0
   13.7240   -1.7270   20.6540 O   0  0  0  0  0  0  0  0  0  0  0  0
   12.3490   -0.9620   22.3080 N   0  0  0  0  0  0  0  0  0  0  0  0
   12.8810    0.1780   22.6900 C   0  0  0  0  0  0  0  0  0  0  0  0
   12.4780    0.5220   23.9430 C   0  0  0  0  0  0  0  0  0  0  0  0
   11.1570    0.3360   24.2730 C   0  0  0  0  0  0  0  0  0  0  0  0
   10.3930   -0.2430   23.2950 C   0  0  2  0  0  0  0  0  0  0  0  0
    9.2250   -0.8430   23.6790 C   0  0  0  0  0  0  0  0  0  0  0  0
    8.0730   -0.2260   23.0500 N   0  0  0  0  0  0  0  0  0  0  0  0
    8.0580    0.1440   21.6900 C   0  0  0  0  0  0  0  0  0  0  0  0
    8.7910    1.2080   21.1660 O   0  0  0  0  0  0  0  0  0  0  0  0
    7.2430   -0.6130   20.9400 N   0  0  0  0  0  0  0  0  0  0  0  0
    6.5610    0.0320   19.9930 C   0  0  0  0  0  0  0  0  0  0  0  0
    5.3870    0.7550   20.2450 C   0  0  0  0  0  0  0  0  0  0  0  0
    4.6770    1.4440   19.2560 C   0  0  0  0  0  0  0  0  0  0  0  0
    5.1310    1.4360   17.9410 C   0  0  0  0  0  0  0  0  0  0  0  0
    6.3450    0.6780   17.6820 N   0  0  0  0  0  0  0  0  0  0  0  0
    6.9820    0.0280   18.6950 C   0  0  0  0  0  0  0  0  0  0  0  0
   10.9630   -1.2540   22.5460 C   0  0  0  0  0  0  0  0  0  0  0  0
  1  2  1  0
  2  3  2  0
  2  4  1  0
  4  5  1  0
  5  6  1  0
  6  7  1  0
  7  8  1  0
  8  9  1  1
  9 10  1  0
 10 11  1  0
 11 12  2  0
 11 13  1  0
 13 14  1  0
 14 15  2  0
 15 16  1  0
 16 17  2  0
 17 18  1  0
 14 19  1  0
 18 19  2  0
  4 20  1  0
  8 20  1  0
M  END
