pyridine_urea_3335
     RDKit          3D

 19 20  0  0  0  0  0  0  0  0999 V2000
   13.2130    0.2440   22.6450 N   0  0  0  0  0  0  0  0  0  0  0  0
   12.0150   -0.2410   23.0390 C   0  0  0  0  0  0  0  0  0  0  0  0
   11.5420    0.2700   24.3370 C   0  0  0  0  0  0  0  0  0  0  0  0
   10.3210   -0.1280   24.9060 C   0  0  0  0  0  0  0  0  0  0  0  0
    9.3540    0.2630   26.5100 Br  0  0  0  0  0  0  0  0  0  0  0  0
    9.6310   -0.9830   24.2020 C   0  0  0  0  0  0  0  0  0  0  0  0
   10.0630   -1.4450   23.0280 C   0  0  0  0  0  0  0  0  0  0  0  0
   11.3320   -1.1690   22.2100 C   0  0  0  0  0  0  0  0  0  0  0  0
   10.3950   -2.0360   21.7350 C   0  0  0  0  0  0  0  0  0  0  0  0
    9.2600   -1.4200   21.0410 N   0  0  0  0  0  0  0  0  0  0  0  0
    8.5140   -0.3050   21.3620 C   0  0  0  0  0  0  0  0  0  0  0  0
    9.0120    0.7640   21.6800 O   0  0  0  0  0  0  0  0  0  0  0  0
    7.1860   -0.5870   21.2150 N   0  0  0  0  0  0  0  0  0  0  0  0
    6.5010    0.0440   20.2110 C   0  0  0  0  0  0  0  0  0  0  0  0
    5.3420    0.7920   20.4000 C   0  0  0  0  0  0  0  0  0  0  0  0
    4.7190    1.4040   19.3020 C   0  0  0  0  0  0  0  0  0  0  0  0
    5.2840    1.2480   18.0410 C   0  0  0  0  0  0  0  0  0  0  0  0
    6.3980    0.5320   17.8280 N   0  0  0  0  0  0  0  0  0  0  0  0
    6.9730   -0.0530   18.9050 C   0  0  0  0  0  0  0  0  0  0  0  0
  1  2  1  0
  2  3  2  0
  3  4  1  0
  4  5  1  0
  4  6  2  0
  6  7  1  0
  2  8  1  0
  7  8  2  0
  8  9  1  0
  9 10  1  0
 10 11  1  0
 11 12  2  0
 11 13  1  0
 13 14  1  0
 14 15  2  0
 15 16  1  0
 16 17  2  0
 17 18  1  0
 14 19  1  0
 18 19  2  0
M  END
