pyridine_urea_12221
     RDKit          3D

 23 24  0  0  0  0  0  0  0  0999 V2000
   10.4380    1.9580   23.4280 C   0  0  0  0  0  0  0  0  0  0  0  0
   10.3410    0.7140   23.3850 O   0  0  0  0  0  0  0  0  0  0  0  0
   11.5260    0.1120   23.0930 C   0  0  0  0  0  0  0  0  0  0  0  0
   12.6450    0.7650   23.1270 C   0  0  0  0  0  0  0  0  0  0  0  0
   12.7710   -0.4210   22.7920 C   0  0  0  0  0  0  0  0  0  0  0  0
   13.8430   -1.1350   22.4520 F   0  0  0  0  0  0  0  0  0  0  0  0
   11.2820   -0.7490   22.9080 C   0  0  0  0  0  0  0  0  0  0  0  0
   10.2330    0.0820   23.2810 C   0  0  2  0  0  0  0  0  0  0  0  0
   10.0510    0.0850   24.6820 C   0  0  0  0  0  0  0  0  0  0  0  0
    9.0420   -0.5640   22.7320 N   0  0  0  0  0  0  0  0  0  0  0  0
    8.4850    0.1590   21.7020 C   0  0  0  0  0  0  0  0  0  0  0  0
    9.0240    1.4100   21.2060 O   0  0  0  0  0  0  0  0  0  0  0  0
    7.3350   -0.4070   21.2060 N   0  0  0  0  0  0  0  0  0  0  0  0
    6.6050    0.1350   20.1500 C   0  0  0  0  0  0  0  0  0  0  0  0
    5.4360    0.8720   20.3450 C   0  0  0  0  0  0  0  0  0  0  0  0
    4.7000    1.4420   19.3240 C   0  0  0  0  0  0  0  0  0  0  0  0
    5.1440    1.2730   18.0320 C   0  0  0  0  0  0  0  0  0  0  0  0
    6.2320    0.5880   17.6730 N   0  0  0  0  0  0  0  0  0  0  0  0
    6.9540    0.0270   18.6710 C   0  0  0  0  0  0  0  0  0  0  0  0
   10.9490   -1.9500   22.6340 C   0  0  0  0  0  0  0  0  0  0  0  0
   12.1280   -1.3340   22.6470 C   0  0  0  0  0  0  0  0  0  0  0  0
   12.3100   -2.5080   22.3210 O   0  0  0  0  0  0  0  0  0  0  0  0
   12.7960   -2.6030   21.0530 C   0  0  0  0  0  0  0  0  0  0  0  0
  1  2  1  0
  2  3  1  0
  3  4  2  0
  4  5  1  0
  5  6  1  0
  5  7  2  0
  7  8  1  0
  8  9  1  1
  8 10  1  0
 10 11  1  0
 11 12  2  0
 11 13  1  0
 13 14  1  0
 14 15  2  0
 15 16  1  0
 16 17  2  0
 17 18  1  0
 14 19  1  0
 18 19  2  0
  7 20  1  0
  3 21  1  0
 20 21  2  0
 21 22  1  0
 22 23  1  0
M  END
