pyridine_urea_9581
     RDKit          3D

 21 22  0  0  0  0  0  0  0  0999 V2000
    9.1220   -3.2110   23.1510 C   0  0  0  0  0  0  0  0  0  0  0  0
    9.8860   -3.0640   21.9580 O   0  0  0  0  0  0  0  0  0  0  0  0
   11.1300   -2.3720   22.1210 C   0  0  0  0  0  0  0  0  0  0  0  0
   12.2510   -2.8310   22.1320 O   0  0  0  0  0  0  0  0  0  0  0  0
   10.9370   -0.9230   22.3040 C   0  0  2  0  0  0  0  0  0  0  0  0
   12.3450   -0.3960   22.6200 C   0  0  0  0  0  0  0  0  0  0  0  0
   12.1840    0.9480   23.6840 S   0  0  0  0  0  0  0  0  0  0  0  0
   12.7060    0.4420   24.8970 O   0  0  0  0  0  0  0  0  0  0  0  0
   12.6040    2.1830   23.0560 O   0  0  0  0  0  0  0  0  0  0  0  0
   10.4530    0.8740   23.8220 C   0  0  0  0  0  0  0  0  0  0  0  0
   10.0230   -0.4740   23.3160 C   0  0  1  0  0  0  0  0  0  0  0  0
    8.6580   -0.3300   22.8100 N   0  0  0  0  0  0  0  0  0  0  0  0
    8.3580    0.2460   21.5920 C   0  0  0  0  0  0  0  0  0  0  0  0
    8.9460    1.2480   21.1680 O   0  0  0  0  0  0  0  0  0  0  0  0
    7.2700   -0.4990   20.9700 N   0  0  0  0  0  0  0  0  0  0  0  0
    6.4800    0.1510   20.0190 C   0  0  0  0  0  0  0  0  0  0  0  0
    5.3100    0.8680   20.3010 C   0  0  0  0  0  0  0  0  0  0  0  0
    4.6700    1.4600   19.2330 C   0  0  0  0  0  0  0  0  0  0  0  0
    5.1790    1.3310   17.9630 C   0  0  0  0  0  0  0  0  0  0  0  0
    6.2810    0.6470   17.6580 N   0  0  0  0  0  0  0  0  0  0  0  0
    6.9010    0.0760   18.7050 C   0  0  0  0  0  0  0  0  0  0  0  0
  1  2  1  0
  2  3  1  0
  3  4  2  0
  5  3  1  1
  5  6  1  0
  7  6  1  0
  7  8  2  0
  7  9  2  0
  7 10  1  0
  5 11  1  0
 10 11  1  0
 11 12  1  6
 12 13  1  0
 13 14  2  0
 13 15  1  0
 15 16  1  0
 16 17  2  0
 17 18  1  0
 18 19  2  0
 19 20  1  0
 16 21  1  0
 20 21  2  0
M  END
