pyridine_urea_4007
     RDKit          3D

 27 29  0  0  0  0  0  0  0  0999 V2000
   12.5750    4.8840   21.8480 C   0  0  0  0  0  0  0  0  0  0  0  0
   11.5580    4.5960   22.8060 O   0  0  0  0  0  0  0  0  0  0  0  0
   11.2330    5.6550   23.6240 C   0  0  0  0  0  0  0  0  0  0  0  0
   12.0910    6.7030   23.9300 C   0  0  0  0  0  0  0  0  0  0  0  0
   11.7440    7.7610   24.7670 C   0  0  0  0  0  0  0  0  0  0  0  0
   10.4600    7.7090   25.2860 C   0  0  0  0  0  0  0  0  0  0  0  0
    9.5680    6.6740   24.9960 C   0  0  0  0  0  0  0  0  0  0  0  0
    9.9270    5.6250   24.1610 C   0  0  0  0  0  0  0  0  0  0  0  0
    8.9420    4.5950   23.9060 N   0  0  0  0  0  0  0  0  0  0  0  0
    8.7850    3.5420   24.7560 C   0  0  0  0  0  0  0  0  0  0  0  0
    8.3770    2.4240   24.0340 C   0  0  0  0  0  0  0  0  0  0  0  0
    9.2310    1.9800   23.0580 N   0  0  0  0  0  0  0  0  0  0  0  0
   10.4640    1.2200   23.0120 C   0  0  0  0  0  0  0  0  0  0  0  0
   10.6430   -0.1270   23.4020 C   0  0  0  0  0  0  0  0  0  0  0  0
   10.0800   -1.0890   22.5630 C   0  0  0  0  0  0  0  0  0  0  0  0
    8.8080   -0.9450   22.1380 N   0  0  0  0  0  0  0  0  0  0  0  0
    8.6170    0.1940   21.4380 C   0  0  0  0  0  0  0  0  0  0  0  0
    8.1310    1.1800   20.6320 O   0  0  0  0  0  0  0  0  0  0  0  0
    7.5040   -0.5420   21.1160 N   0  0  0  0  0  0  0  0  0  0  0  0
    6.7600    0.0010   20.1120 C   0  0  0  0  0  0  0  0  0  0  0  0
    5.5130    0.8320   20.4270 C   0  0  0  0  0  0  0  0  0  0  0  0
    4.7530    1.4120   19.4130 C   0  0  0  0  0  0  0  0  0  0  0  0
    5.1380    1.2290   18.0870 C   0  0  0  0  0  0  0  0  0  0  0  0
    6.2130    0.5060   17.7140 N   0  0  0  0  0  0  0  0  0  0  0  0
    7.0270   -0.1170   18.7680 C   0  0  0  0  0  0  0  0  0  0  0  0
    9.3240    3.1590   22.1410 C   0  0  0  0  0  0  0  0  0  0  0  0
    8.5120    4.2320   22.5640 C   0  0  0  0  0  0  0  0  0  0  0  0
  1  2  1  0
  2  3  1  0
  3  4  2  0
  4  5  1  0
  5  6  2  0
  6  7  1  0
  3  8  1  0
  7  8  2  0
  8  9  1  0
  9 10  1  0
 10 11  1  0
 11 12  1  0
 12 13  1  0
 13 14  1  0
 14 15  1  0
 15 16  1  0
 16 17  1  0
 17 18  2  0
 17 19  1  0
 19 20  1  0
 20 21  2  0
 21 22  1  0
 22 23  2  0
 23 24  1  0
 20 25  1  0
 24 25  2  0
 12 26  1  0
  9 27  1  0
 26 27  1  0
M  END
