pyridine_urea_6102
     RDKit          3D

 25 26  0  0  0  0  0  0  0  0999 V2000
   10.9850   -2.5570   21.3300 C   0  0  0  0  0  0  0  0  0  0  0  0
   12.2440   -2.0330   20.6950 C   0  0  0  0  0  0  0  0  0  0  0  0
   13.3450   -2.7870   20.7640 C   0  0  0  0  0  0  0  0  0  0  0  0
   13.2690   -1.1170   21.4230 C   0  0  0  0  0  0  0  0  0  0  0  0
   11.5100   -1.6950   21.8480 C   0  0  0  0  0  0  0  0  0  0  0  0
   12.9950   -1.5330   21.8260 C   0  0  0  0  0  0  0  0  0  0  0  0
   12.0360   -1.3160   22.7660 C   0  0  0  0  0  0  0  0  0  0  0  0
   10.4750   -1.5480   22.5670 C   0  0  0  0  0  0  0  0  0  0  0  0
    9.4150   -1.8750   21.8950 C   0  0  2  0  0  0  0  0  0  0  0  0
    8.6710   -0.7200   22.1100 N   0  0  0  0  0  0  0  0  0  0  0  0
    8.1890    0.1860   21.2580 C   0  0  0  0  0  0  0  0  0  0  0  0
    8.7160    1.2740   20.9770 O   0  0  0  0  0  0  0  0  0  0  0  0
    7.0040   -0.3190   20.8060 N   0  0  0  0  0  0  0  0  0  0  0  0
    6.2890    0.3090   19.8720 C   0  0  0  0  0  0  0  0  0  0  0  0
    5.1040    0.9770   20.0800 C   0  0  0  0  0  0  0  0  0  0  0  0
    4.5350    1.5820   18.9910 C   0  0  0  0  0  0  0  0  0  0  0  0
    5.1360    1.5130   17.7490 C   0  0  0  0  0  0  0  0  0  0  0  0
    6.2790    0.8530   17.5470 N   0  0  0  0  0  0  0  0  0  0  0  0
    6.8190    0.2720   18.6170 C   0  0  0  0  0  0  0  0  0  0  0  0
    8.8150   -2.8850   22.6400 C   0  0  0  0  0  0  0  0  0  0  0  0
    9.6430   -3.4860   23.5010 F   0  0  0  0  0  0  0  0  0  0  0  0
    7.8760   -2.3870   23.4650 F   0  0  0  0  0  0  0  0  0  0  0  0
    8.1610   -3.8590   21.9920 F   0  0  0  0  0  0  0  0  0  0  0  0
   10.0830   -1.2770   23.5750 C   0  0  0  0  0  0  0  0  0  0  0  0
   11.5260   -1.2840   23.1310 C   0  0  0  0  0  0  0  0  0  0  0  0
  2  1  1  0
  2  3  1  0
  2  4  1  0
  2  5  1  0
  5  6  2  0
  6  7  1  0
  7  8  2  0
  8  9  1  0
  9 10  1  1
 10 11  1  0
 11 12  2  0
 11 13  1  0
 13 14  1  0
 14 15  2  0
 15 16  1  0
 16 17  2  0
 17 18  1  0
 14 19  1  0
 18 19  2  0
  9 20  1  0
 20 21  1  0
 20 22  1  0
 20 23  1  0
  8 24  1  0
  5 25  1  0
 24 25  2  0
M  END
