pyridine_urea_9079
     RDKit          3D

 19 20  0  0  0  0  0  0  0  0999 V2000
   10.9940    3.4530   22.2320 C   0  0  0  0  0  0  0  0  0  0  0  0
   11.6720    2.5250   23.2650 C   0  0  0  0  0  0  0  0  0  0  0  0
   11.3660    1.0410   23.0250 C   0  0  0  0  0  0  0  0  0  0  0  0
   10.1090    0.5750   22.9520 C   0  0  0  0  0  0  0  0  0  0  0  0
    9.8200   -0.7480   22.7130 C   0  0  0  0  0  0  0  0  0  0  0  0
    8.4310   -0.9970   22.6360 N   0  0  0  0  0  0  0  0  0  0  0  0
    7.9480   -0.2450   21.6010 C   0  0  0  0  0  0  0  0  0  0  0  0
    8.5740    0.9100   21.2250 O   0  0  0  0  0  0  0  0  0  0  0  0
    6.8340   -0.7560   21.0180 N   0  0  0  0  0  0  0  0  0  0  0  0
    6.2160   -0.0350   20.0030 C   0  0  0  0  0  0  0  0  0  0  0  0
    5.0160    0.6850   20.1390 C   0  0  0  0  0  0  0  0  0  0  0  0
    4.4960    1.3930   19.0580 C   0  0  0  0  0  0  0  0  0  0  0  0
    5.1590    1.3920   17.8400 C   0  0  0  0  0  0  0  0  0  0  0  0
    6.3210    0.6860   17.7020 N   0  0  0  0  0  0  0  0  0  0  0  0
    6.8460   -0.0210   18.7710 C   0  0  0  0  0  0  0  0  0  0  0  0
   10.8240   -1.6800   22.5490 C   0  0  0  0  0  0  0  0  0  0  0  0
   12.1220   -1.2850   22.6200 C   0  0  0  0  0  0  0  0  0  0  0  0
   12.3140    0.0880   22.8550 C   0  0  0  0  0  0  0  0  0  0  0  0
   13.5550    0.3370   22.8850 C   0  0  0  0  0  0  0  0  0  0  0  0
  1  2  1  0
  2  3  1  0
  3  4  2  0
  4  5  1  0
  5  6  1  0
  6  7  1  0
  7  8  2  0
  7  9  1  0
  9 10  1  0
 10 11  2  0
 11 12  1  0
 12 13  2  0
 13 14  1  0
 10 15  1  0
 14 15  2  0
  5 16  2  0
 16 17  1  0
  3 18  1  0
 17 18  2  0
 18 19  1  0
M  END
