pyridine_urea_4721
     RDKit          3D

 22 23  0  0  0  0  0  0  0  0999 V2000
    7.6230   -2.5950   28.3860 C   0  0  0  0  0  0  0  0  0  0  0  0
    7.4470   -4.0500   27.8720 C   0  0  0  0  0  0  0  0  0  0  0  0
    7.0350   -4.0080   26.3810 C   0  0  2  0  0  0  0  0  0  0  0  0
    6.4910   -5.1460   25.8100 C   0  0  0  0  0  0  0  0  0  0  0  0
    6.8060   -5.3990   24.4790 C   0  0  0  0  0  0  0  0  0  0  0  0
    6.9840   -4.3150   23.6280 C   0  0  0  0  0  0  0  0  0  0  0  0
    8.0310   -3.4100   24.1610 N   0  0  0  0  0  0  0  0  0  0  0  0
    8.0800   -2.0750   23.8100 C   0  0  0  0  0  0  0  0  0  0  0  0
    8.6130   -1.3810   24.9030 C   0  0  0  0  0  0  0  0  0  0  0  0
    6.8190   -1.6120   23.4660 C   0  0  0  0  0  0  0  0  0  0  0  0
    8.8740   -1.9650   22.6740 C   0  0  0  0  0  0  0  0  0  0  0  0
    9.1180   -0.6530   22.3920 N   0  0  0  0  0  0  0  0  0  0  0  0
    8.4320    0.1390   21.4450 C   0  0  0  0  0  0  0  0  0  0  0  0
    8.8370    1.2570   21.1030 O   0  0  0  0  0  0  0  0  0  0  0  0
    7.3130   -0.5020   21.0180 N   0  0  0  0  0  0  0  0  0  0  0  0
    6.6090    0.0960   20.0320 C   0  0  0  0  0  0  0  0  0  0  0  0
    5.4740    0.8190   20.3800 C   0  0  0  0  0  0  0  0  0  0  0  0
    4.7210    1.4700   19.3410 C   0  0  0  0  0  0  0  0  0  0  0  0
    5.1660    1.3430   18.0500 C   0  0  0  0  0  0  0  0  0  0  0  0
    6.2920    0.6120   17.7170 N   0  0  0  0  0  0  0  0  0  0  0  0
    6.9620    0.0220   18.7140 C   0  0  0  0  0  0  0  0  0  0  0  0
    8.3090   -3.6850   25.5830 C   0  0  0  0  0  0  0  0  0  0  0  0
  1  2  1  0
  3  2  1  1
  3  4  1  0
  4  5  1  0
  5  6  1  0
  6  7  1  0
  7  8  1  0
  8  9  1  0
  8 10  1  0
  8 11  1  0
 11 12  1  0
 12 13  1  0
 13 14  2  0
 13 15  1  0
 15 16  1  0
 16 17  2  0
 17 18  1  0
 18 19  2  0
 19 20  1  0
 16 21  1  0
 20 21  2  0
  3 22  1  0
  7 22  1  0
M  END
