pyridine_urea_7833
     RDKit          3D

 28 30  0  0  0  0  0  0  0  0999 V2000
   12.9460   -2.3330   21.0340 C   0  0  0  0  0  0  0  0  0  0  0  0
   12.0870   -1.7530   22.1210 C   0  0  1  0  0  0  0  0  0  0  0  0
   10.7270   -2.1970   22.1270 C   0  0  0  0  0  0  0  0  0  0  0  0
   10.1410   -2.7400   23.2980 C   0  0  0  0  0  0  0  0  0  0  0  0
    9.1020   -3.3990   23.2020 O   0  0  0  0  0  0  0  0  0  0  0  0
   12.7320   -1.9970   23.3750 N   0  0  0  0  0  0  0  0  0  0  0  0
   12.8760   -1.7420   24.6930 C   0  0  0  0  0  0  0  0  0  0  0  0
   13.8150   -2.6150   25.0610 C   0  0  0  0  0  0  0  0  0  0  0  0
   14.7190   -2.3750   26.0280 F   0  0  0  0  0  0  0  0  0  0  0  0
   14.2760   -3.0170   23.8660 F   0  0  0  0  0  0  0  0  0  0  0  0
   13.2910   -3.7210   25.5170 F   0  0  0  0  0  0  0  0  0  0  0  0
   12.2180   -0.8700   25.4300 N   0  0  0  0  0  0  0  0  0  0  0  0
   11.4030   -0.4710   24.5130 C   0  0  0  0  0  0  0  0  0  0  0  0
   10.2320    0.4560   24.4590 C   0  0  0  0  0  0  0  0  0  0  0  0
    9.6050    0.5350   23.2110 C   0  0  0  0  0  0  0  0  0  0  0  0
    8.5320    1.2170   22.9320 N   0  0  0  0  0  0  0  0  0  0  0  0
    8.2830    1.1180   21.6260 C   0  0  0  0  0  0  0  0  0  0  0  0
    8.8400    1.8380   20.8430 O   0  0  0  0  0  0  0  0  0  0  0  0
    7.3140    0.0910   21.2660 N   0  0  0  0  0  0  0  0  0  0  0  0
    6.5430    0.4320   20.1960 C   0  0  0  0  0  0  0  0  0  0  0  0
    5.3740    1.1600   20.2690 C   0  0  0  0  0  0  0  0  0  0  0  0
    4.6290    1.5120   19.1640 C   0  0  0  0  0  0  0  0  0  0  0  0
    5.1130    1.0960   17.9410 C   0  0  0  0  0  0  0  0  0  0  0  0
    6.2400    0.3730   17.8000 N   0  0  0  0  0  0  0  0  0  0  0  0
    6.9250    0.0550   18.9160 C   0  0  0  0  0  0  0  0  0  0  0  0
   10.0690   -0.1470   22.0920 C   0  0  0  0  0  0  0  0  0  0  0  0
   11.1400   -0.9570   22.1710 C   0  0  0  0  0  0  0  0  0  0  0  0
   11.7200   -1.0860   23.3700 C   0  0  0  0  0  0  0  0  0  0  0  0
  2  1  1  6
  2  3  1  0
  3  4  1  0
  4  5  1  0
  2  6  1  0
  6  7  1  0
  7  8  1  0
  8  9  1  0
  8 10  1  0
  8 11  1  0
  7 12  2  0
 12 13  1  0
 13 14  1  0
 14 15  2  0
 15 16  1  0
 16 17  1  0
 17 18  2  0
 17 19  1  0
 19 20  1  0
 20 21  2  0
 21 22  1  0
 22 23  2  0
 23 24  1  0
 20 25  1  0
 24 25  2  0
 15 26  1  0
 26 27  2  0
  6 28  1  0
 13 28  2  0
 27 28  1  0
M  END
