pyridine_urea_7036
     RDKit          3D

 20 22  0  0  0  0  0  0  0  0999 V2000
   12.9250    1.0920   22.9840 C   0  0  0  0  0  0  0  0  0  0  0  0
   13.1740   -0.3870   23.1840 C   0  0  1  0  0  0  0  0  0  0  0  0
   12.8030   -1.1010   24.3170 C   0  0  0  0  0  0  0  0  0  0  0  0
   13.3650   -2.1310   24.8970 C   0  0  0  0  0  0  0  0  0  0  0  0
   12.7330   -2.7190   23.9740 C   0  0  0  0  0  0  0  0  0  0  0  0
   12.4830   -1.1850   22.2850 N   0  0  0  0  0  0  0  0  0  0  0  0
   11.2080   -1.6900   21.7700 C   0  0  0  0  0  0  0  0  0  0  0  0
   10.0140   -1.1290   22.4490 C   0  0  0  0  0  0  0  0  0  0  0  0
    8.6480   -1.4710   22.1390 N   0  0  0  0  0  0  0  0  0  0  0  0
    8.0960   -0.3540   21.4460 C   0  0  0  0  0  0  0  0  0  0  0  0
    8.6810    0.7200   21.3030 O   0  0  0  0  0  0  0  0  0  0  0  0
    6.8630   -0.5970   20.9590 N   0  0  0  0  0  0  0  0  0  0  0  0
    6.2160    0.1130   19.9750 C   0  0  0  0  0  0  0  0  0  0  0  0
    5.0250    0.8320   20.1460 C   0  0  0  0  0  0  0  0  0  0  0  0
    4.4780    1.5270   19.0650 C   0  0  0  0  0  0  0  0  0  0  0  0
    5.1750    1.4820   17.7690 C   0  0  0  0  0  0  0  0  0  0  0  0
    6.3460    0.7530   17.6400 N   0  0  0  0  0  0  0  0  0  0  0  0
    6.8200    0.1030   18.7240 C   0  0  0  0  0  0  0  0  0  0  0  0
   10.4120   -0.2680   23.3660 C   0  0  0  0  0  0  0  0  0  0  0  0
   11.7510   -0.3270   23.2600 N   0  0  0  0  0  0  0  0  0  0  0  0
  2  1  1  1
  2  3  1  0
  3  4  1  0
  3  5  1  0
  4  5  1  0
  2  6  1  0
  6  7  1  0
  7  8  2  0
  8  9  1  0
  9 10  1  0
 10 11  2  0
 10 12  1  0
 12 13  1  0
 13 14  2  0
 14 15  1  0
 15 16  2  0
 16 17  1  0
 13 18  1  0
 17 18  2  0
  8 19  1  0
  6 20  1  0
 19 20  2  0
M  END
