pyridine_urea_3380
     RDKit          3D

 19 20  0  0  0  0  0  0  0  0999 V2000
   12.5900    1.7260   22.9050 C   0  0  0  0  0  0  0  0  0  0  0  0
   11.8570    0.3980   22.9170 C   0  0  0  0  0  0  0  0  0  0  0  0
   10.4680    0.2710   23.3610 C   0  0  0  0  0  0  0  0  0  0  0  0
    9.6670   -0.9640   23.4080 C   0  0  0  0  0  0  0  0  0  0  0  0
   10.2350   -2.1710   22.9970 C   0  0  0  0  0  0  0  0  0  0  0  0
   11.6210   -1.9510   22.5720 C   0  0  0  0  0  0  0  0  0  0  0  0
   10.8680   -0.8300   22.9720 C   0  0  1  0  0  0  0  0  0  0  0  0
   11.5350    0.5520   22.9080 C   0  0  0  0  0  0  0  0  0  0  0  0
    9.6330   -0.9550   22.1170 N   0  0  0  0  0  0  0  0  0  0  0  0
    8.8390    0.0570   21.5240 C   0  0  0  0  0  0  0  0  0  0  0  0
    9.2140    1.2220   21.3290 O   0  0  0  0  0  0  0  0  0  0  0  0
    7.5740   -0.4180   21.1660 N   0  0  0  0  0  0  0  0  0  0  0  0
    6.7690    0.1120   20.1300 C   0  0  0  0  0  0  0  0  0  0  0  0
    5.6390    0.8750   20.4670 C   0  0  0  0  0  0  0  0  0  0  0  0
    4.8400    1.4190   19.4500 C   0  0  0  0  0  0  0  0  0  0  0  0
    5.1870    1.1890   18.1320 C   0  0  0  0  0  0  0  0  0  0  0  0
    6.2550    0.4590   17.7800 N   0  0  0  0  0  0  0  0  0  0  0  0
    7.0160   -0.0630   18.7750 C   0  0  0  0  0  0  0  0  0  0  0  0
   12.5120   -0.7520   22.4910 C   0  0  0  0  0  0  0  0  0  0  0  0
  1  2  1  0
  2  3  2  0
  3  4  1  0
  4  5  2  0
  5  6  1  0
  6  7  1  0
  7  8  1  6
  7  9  1  0
  9 10  1  0
 10 11  2  0
 10 12  1  0
 12 13  1  0
 13 14  2  0
 14 15  1  0
 15 16  2  0
 16 17  1  0
 13 18  1  0
 17 18  2  0
  2 19  1  0
  6 19  2  0
M  END
