pyridine_urea_7401
     RDKit          3D

 17 17  0  0  0  0  0  0  0  0999 V2000
    5.5230   -5.6640   21.6850 N   0  0  0  0  0  0  0  0  0  0  0  0
    6.5440   -5.8500   22.5700 C   0  0  0  0  0  0  0  0  0  0  0  0
    6.7340   -4.7180   23.5740 C   0  0  0  0  0  0  0  0  0  0  0  0
    8.0740   -4.1380   23.4940 N   0  0  0  0  0  0  0  0  0  0  0  0
    8.2200   -2.7700   23.5750 C   0  0  0  0  0  0  0  0  0  0  0  0
    7.6540   -2.0410   24.3760 O   0  0  0  0  0  0  0  0  0  0  0  0
    9.0870   -2.1370   22.6800 C   0  0  0  0  0  0  0  0  0  0  0  0
    9.0260   -0.7470   22.6250 N   0  0  0  0  0  0  0  0  0  0  0  0
    8.5120    0.0650   21.5800 C   0  0  0  0  0  0  0  0  0  0  0  0
    9.0440    1.1410   21.2670 O   0  0  0  0  0  0  0  0  0  0  0  0
    7.3840   -0.4910   21.0210 N   0  0  0  0  0  0  0  0  0  0  0  0
    6.6070    0.1090   20.1600 C   0  0  0  0  0  0  0  0  0  0  0  0
    5.4580    0.8430   20.4680 C   0  0  0  0  0  0  0  0  0  0  0  0
    4.7170    1.4740   19.3040 C   0  0  0  0  0  0  0  0  0  0  0  0
    5.1310    1.3490   17.9890 C   0  0  0  0  0  0  0  0  0  0  0  0
    6.2570    0.6190   17.6710 N   0  0  0  0  0  0  0  0  0  0  0  0
    6.9530    0.0200   18.8180 C   0  0  0  0  0  0  0  0  0  0  0  0
  1  2  3  0
  2  3  1  0
  3  4  1  0
  4  5  1  0
  5  6  2  0
  5  7  1  0
  7  8  1  0
  8  9  1  0
  9 10  2  0
  9 11  1  0
 11 12  1  0
 12 13  2  0
 13 14  1  0
 14 15  2  0
 15 16  1  0
 12 17  1  0
 16 17  2  0
M  END
