pyridine_urea_3225
     RDKit          3D

 20 21  0  0  0  0  0  0  0  0999 V2000
    9.3790    0.6940   24.7130 C   0  0  0  0  0  0  0  0  0  0  0  0
   10.6950    0.7030   23.9870 C   0  0  0  0  0  0  0  0  0  0  0  0
   11.5540    1.6590   23.8600 C   0  0  0  0  0  0  0  0  0  0  0  0
   12.5460    1.1320   23.1380 C   0  0  0  0  0  0  0  0  0  0  0  0
   12.4170   -0.2100   22.7100 C   0  0  0  0  0  0  0  0  0  0  0  0
   11.8830   -1.6090   22.4750 C   0  0  2  0  0  0  0  0  0  0  0  0
   11.5400   -2.4310   23.5670 C   0  0  0  0  0  0  0  0  0  0  0  0
   12.1790   -2.3250   21.5320 O   0  0  0  0  0  0  0  0  0  0  0  0
   10.3870   -1.7440   22.7560 C   0  0  0  0  0  0  0  0  0  0  0  0
    9.4950   -1.3340   21.5800 N   0  0  0  0  0  0  0  0  0  0  0  0
    8.6400   -0.2480   21.4840 C   0  0  0  0  0  0  0  0  0  0  0  0
    9.0210    0.8980   21.6640 O   0  0  0  0  0  0  0  0  0  0  0  0
    7.3550   -0.6180   21.1240 N   0  0  0  0  0  0  0  0  0  0  0  0
    6.6190    0.0050   20.1010 C   0  0  0  0  0  0  0  0  0  0  0  0
    5.4640    0.7310   20.3980 C   0  0  0  0  0  0  0  0  0  0  0  0
    4.7640    1.3520   19.3730 C   0  0  0  0  0  0  0  0  0  0  0  0
    5.1710    1.2760   18.0600 C   0  0  0  0  0  0  0  0  0  0  0  0
    6.2740    0.5790   17.7390 N   0  0  0  0  0  0  0  0  0  0  0  0
    6.9620   -0.0330   18.7490 C   0  0  0  0  0  0  0  0  0  0  0  0
   11.2570   -0.3290   23.3010 O   0  0  0  0  0  0  0  0  0  0  0  0
  1  2  1  0
  2  3  2  0
  3  4  1  0
  4  5  2  0
  5  6  1  0
  6  7  1  1
  6  8  1  0
  6  9  1  0
  9 10  1  0
 10 11  1  0
 11 12  2  0
 11 13  1  0
 13 14  1  0
 14 15  2  0
 15 16  1  0
 16 17  2  0
 17 18  1  0
 14 19  1  0
 18 19  2  0
  2 20  1  0
  5 20  1  0
M  END
