pyridine_urea_13070
     RDKit          3D

 18 19  0  0  0  0  0  0  0  0999 V2000
   13.0290   -1.1970   24.7350 C   0  0  0  0  0  0  0  0  0  0  0  0
   12.5440   -0.6190   23.4660 C   0  0  2  0  0  0  0  0  0  0  0  0
   12.1170    0.6740   23.8760 O   0  0  0  0  0  0  0  0  0  0  0  0
   10.7880    0.6840   23.7700 C   0  0  2  0  0  0  0  0  0  0  0  0
   10.1210    0.2240   24.8890 C   0  0  0  0  0  0  0  0  0  0  0  0
   10.6280   -0.3190   22.6100 C   0  0  2  0  0  0  0  0  0  0  0  0
    9.2740   -0.6360   22.3920 N   0  0  0  0  0  0  0  0  0  0  0  0
    8.5190    0.1210   21.5040 C   0  0  0  0  0  0  0  0  0  0  0  0
    8.8360    1.2730   21.1720 O   0  0  0  0  0  0  0  0  0  0  0  0
    7.3850   -0.5270   21.0360 N   0  0  0  0  0  0  0  0  0  0  0  0
    6.5590    0.0790   20.0740 C   0  0  0  0  0  0  0  0  0  0  0  0
    5.2540    0.8320   20.3430 C   0  0  0  0  0  0  0  0  0  0  0  0
    4.5820    1.3900   19.2590 C   0  0  0  0  0  0  0  0  0  0  0  0
    5.1270    1.2330   18.0000 C   0  0  0  0  0  0  0  0  0  0  0  0
    6.2640    0.5680   17.7340 N   0  0  0  0  0  0  0  0  0  0  0  0
    6.9450    0.0130   18.7550 C   0  0  0  0  0  0  0  0  0  0  0  0
   11.5920   -1.3420   22.7600 C   0  0  1  0  0  0  0  0  0  0  0  0
   12.1230   -2.0040   21.6570 C   0  0  0  0  0  0  0  0  0  0  0  0
  2  1  1  1
  2  3  1  0
  3  4  1  0
  4  5  1  1
  4  6  1  0
  6  7  1  1
  7  8  1  0
  8  9  2  0
  8 10  1  0
 10 11  1  0
 11 12  2  0
 12 13  1  0
 13 14  2  0
 14 15  1  0
 11 16  1  0
 15 16  2  0
  2 17  1  0
  6 17  1  0
 17 18  1  6
M  END
