pyridine_urea_8708
     RDKit          3D

 21 23  0  0  0  0  0  0  0  0999 V2000
   14.6580   -2.6820   25.9290 C   0  0  0  0  0  0  0  0  0  0  0  0
   13.7420   -2.2360   24.8530 C   0  0  0  0  0  0  0  0  0  0  0  0
   13.1030   -1.4720   25.5700 C   0  0  0  0  0  0  0  0  0  0  0  0
   12.0450   -0.7930   25.2960 C   0  0  0  0  0  0  0  0  0  0  0  0
   11.5380   -0.8420   24.1770 C   0  0  0  0  0  0  0  0  0  0  0  0
   10.3270   -0.1080   23.9870 C   0  0  0  0  0  0  0  0  0  0  0  0
    9.8520   -0.2600   22.7860 C   0  0  0  0  0  0  0  0  0  0  0  0
    8.6490    0.4420   22.7180 N   0  0  0  0  0  0  0  0  0  0  0  0
    8.2720    0.7240   21.4750 C   0  0  0  0  0  0  0  0  0  0  0  0
    8.8130    1.6760   20.9350 O   0  0  0  0  0  0  0  0  0  0  0  0
    7.3040   -0.1120   20.9980 N   0  0  0  0  0  0  0  0  0  0  0  0
    6.4780    0.3680   20.0110 C   0  0  0  0  0  0  0  0  0  0  0  0
    5.2940    1.0380   20.2460 C   0  0  0  0  0  0  0  0  0  0  0  0
    4.5810    1.5030   19.1560 C   0  0  0  0  0  0  0  0  0  0  0  0
    5.0860    1.2740   17.8860 C   0  0  0  0  0  0  0  0  0  0  0  0
    6.2180    0.6130   17.6460 N   0  0  0  0  0  0  0  0  0  0  0  0
    6.8860    0.1750   18.7120 C   0  0  0  0  0  0  0  0  0  0  0  0
   10.4420   -1.0310   21.6930 C   0  0  0  0  0  0  0  0  0  0  0  0
   11.6550   -1.6840   22.0400 C   0  0  0  0  0  0  0  0  0  0  0  0
   12.2100   -1.6200   23.2820 C   0  0  0  0  0  0  0  0  0  0  0  0
   13.3960   -2.3850   23.5260 N   0  0  0  0  0  0  0  0  0  0  0  0
  1  2  1  0
  2  3  2  0
  3  4  1  0
  4  5  2  0
  5  6  1  0
  6  7  2  0
  7  8  1  0
  8  9  1  0
  9 10  2  0
  9 11  1  0
 11 12  1  0
 12 13  2  0
 13 14  1  0
 14 15  2  0
 15 16  1  0
 12 17  1  0
 16 17  2  0
  7 18  1  0
 18 19  2  0
  5 20  1  0
 19 20  1  0
  2 21  1  0
 20 21  2  0
M  END
