pyridine_urea_14023
     RDKit          3D

 23 24  0  0  0  0  0  0  0  0999 V2000
   10.4220   -2.9250   23.7490 C   0  0  0  0  0  0  0  0  0  0  0  0
    9.5020   -2.0220   23.1720 O   0  0  0  0  0  0  0  0  0  0  0  0
   10.1350   -1.2290   22.1770 C   0  0  0  0  0  0  0  0  0  0  0  0
   10.2420   -2.2460   21.5140 O   0  0  0  0  0  0  0  0  0  0  0  0
    9.7740   -0.3120   23.3360 C   0  0  1  0  0  0  0  0  0  0  0  0
   10.8270    0.7280   23.5540 C   0  0  0  0  0  0  0  0  0  0  0  0
   11.7440   -0.0650   24.1590 C   0  0  0  0  0  0  0  0  0  0  0  0
   12.6370   -0.6700   25.1550 C   0  0  0  0  0  0  0  0  0  0  0  0
   13.4350   -1.9070   24.5150 C   0  0  0  0  0  0  0  0  0  0  0  0
   13.4190   -2.4790   23.1210 C   0  0  0  0  0  0  0  0  0  0  0  0
   12.4520   -1.6050   22.3350 C   0  0  0  0  0  0  0  0  0  0  0  0
   12.2830   -1.0130   23.3740 C   0  0  0  0  0  0  0  0  0  0  0  0
   13.3660   -2.0260   24.5230 Br  0  0  0  0  0  0  0  0  0  0  0  0
    8.4290    0.1650   23.0280 N   0  0  0  0  0  0  0  0  0  0  0  0
    8.2550    0.5210   21.6210 C   0  0  0  0  0  0  0  0  0  0  0  0
    8.9910    1.5960   21.0550 O   0  0  0  0  0  0  0  0  0  0  0  0
    7.3090   -0.2590   20.9920 N   0  0  0  0  0  0  0  0  0  0  0  0
    6.4800    0.2800   20.0120 C   0  0  0  0  0  0  0  0  0  0  0  0
    5.2140    0.9450   20.6070 C   0  0  0  0  0  0  0  0  0  0  0  0
    4.6390    1.4130   19.2830 C   0  0  0  0  0  0  0  0  0  0  0  0
    5.1610    1.2550   17.9050 C   0  0  0  0  0  0  0  0  0  0  0  0
    6.2620    0.6350   17.6340 N   0  0  0  0  0  0  0  0  0  0  0  0
    6.8830    0.1700   18.6940 C   0  0  0  0  0  0  0  0  0  0  0  0
  1  2  1  0
  2  3  1  0
  3  4  2  0
  3  5  1  0
  5  6  1  6
  6  7  1  0
  7  8  2  0
  8  9  1  0
  9 10  2  0
 10 11  1  0
  7 12  1  0
 11 12  2  0
 12 13  1  0
  5 14  1  0
 14 15  1  0
 15 16  2  0
 15 17  1  0
 17 18  1  0
 18 19  2  0
 19 20  1  0
 20 21  2  0
 21 22  1  0
 18 23  1  0
 22 23  2  0
M  END
