pyridine_urea_4654
     RDKit          3D

 22 23  0  0  0  0  0  0  0  0999 V2000
   12.7200   -2.5100   20.8890 C   0  0  0  0  0  0  0  0  0  0  0  0
   13.6640   -1.7140   21.4730 O   0  0  0  0  0  0  0  0  0  0  0  0
   13.5990   -1.8710   22.7870 C   0  0  0  0  0  0  0  0  0  0  0  0
   13.7120   -2.9200   23.3930 O   0  0  0  0  0  0  0  0  0  0  0  0
   13.3500   -0.5630   23.4350 C   0  0  1  0  0  0  0  0  0  0  0  0
   13.3910    0.6630   22.8300 C   0  0  0  0  0  0  0  0  0  0  0  0
   11.9720   -0.5860   23.6560 C   0  0  0  0  0  0  0  0  0  0  0  0
   11.5630   -0.2440   24.8740 C   0  0  0  0  0  0  0  0  0  0  0  0
   10.2400   -0.2060   25.2060 C   0  0  0  0  0  0  0  0  0  0  0  0
    9.3100   -0.5470   24.2530 C   0  0  0  0  0  0  0  0  0  0  0  0
    9.7440   -0.9140   23.0080 C   0  0  0  0  0  0  0  0  0  0  0  0
    8.7500   -1.2700   22.0600 N   0  0  0  0  0  0  0  0  0  0  0  0
    8.1660   -0.2460   21.4060 C   0  0  0  0  0  0  0  0  0  0  0  0
    8.7330    0.8260   21.2270 O   0  0  0  0  0  0  0  0  0  0  0  0
    6.9180   -0.5900   21.0030 N   0  0  0  0  0  0  0  0  0  0  0  0
    6.3400    0.0660   19.9400 C   0  0  0  0  0  0  0  0  0  0  0  0
    5.0810    0.8390   20.1270 C   0  0  0  0  0  0  0  0  0  0  0  0
    4.4780    1.5230   19.0980 C   0  0  0  0  0  0  0  0  0  0  0  0
    5.1620    1.4250   17.8520 C   0  0  0  0  0  0  0  0  0  0  0  0
    6.3010    0.7260   17.6580 N   0  0  0  0  0  0  0  0  0  0  0  0
    6.8640    0.0650   18.6830 C   0  0  0  0  0  0  0  0  0  0  0  0
   11.0680   -0.9380   22.6790 C   0  0  0  0  0  0  0  0  0  0  0  0
  1  2  1  0
  2  3  1  0
  3  4  2  0
  3  5  1  0
  5  6  1  6
  5  7  1  0
  7  8  2  0
  8  9  1  0
  9 10  2  0
 10 11  1  0
 11 12  1  0
 12 13  1  0
 13 14  2  0
 13 15  1  0
 15 16  1  0
 16 17  2  0
 17 18  1  0
 18 19  2  0
 19 20  1  0
 16 21  1  0
 20 21  2  0
  7 22  1  0
 11 22  2  0
M  END
