pyridine_urea_6408
     RDKit          3D

 18 19  0  0  0  0  0  0  0  0999 V2000
   13.7680    0.2360   22.8010 C   0  0  0  0  0  0  0  0  0  0  0  0
   13.2210   -0.4980   23.5160 C   0  0  0  0  0  0  0  0  0  0  0  0
   12.8640   -1.3420   24.6490 C   0  0  0  0  0  0  0  0  0  0  0  0
   11.6450   -2.0420   24.5900 C   0  0  0  0  0  0  0  0  0  0  0  0
   10.8350   -1.8970   23.4440 N   0  0  0  0  0  0  0  0  0  0  0  0
   10.8750   -1.2170   22.2390 C   0  0  0  0  0  0  0  0  0  0  0  0
    9.6320   -2.0470   22.4290 C   0  0  0  0  0  0  0  0  0  0  0  0
    8.9350   -1.5360   21.3970 N   0  0  0  0  0  0  0  0  0  0  0  0
    8.3000   -0.3020   21.3890 C   0  0  0  0  0  0  0  0  0  0  0  0
    8.9620    0.9470   21.5750 O   0  0  0  0  0  0  0  0  0  0  0  0
    6.9750   -0.4800   21.1400 N   0  0  0  0  0  0  0  0  0  0  0  0
    6.3830    0.1380   20.0500 C   0  0  0  0  0  0  0  0  0  0  0  0
    5.1310    0.9260   20.2390 C   0  0  0  0  0  0  0  0  0  0  0  0
    4.5780    1.5500   19.1300 C   0  0  0  0  0  0  0  0  0  0  0  0
    5.1340    1.4760   17.8560 C   0  0  0  0  0  0  0  0  0  0  0  0
    6.3630    0.6880   17.6780 N   0  0  0  0  0  0  0  0  0  0  0  0
    6.9000    0.0720   18.7830 C   0  0  0  0  0  0  0  0  0  0  0  0
   12.1780   -0.5920   22.5150 C   0  0  0  0  0  0  0  0  0  0  0  0
  1  2  1  0
  2  3  2  0
  3  4  1  0
  4  5  2  0
  5  6  1  0
  6  7  1  0
  7  8  1  0
  8  9  1  0
  9 10  2  0
  9 11  1  0
 11 12  1  0
 12 13  2  0
 13 14  1  0
 14 15  2  0
 15 16  1  0
 12 17  1  0
 16 17  2  0
  2 18  1  0
  6 18  2  0
M  END
