pyridine_urea_14501
     RDKit          3D

 21 22  0  0  0  0  0  0  0  0999 V2000
   13.3750   -2.1040   20.8330 C   0  0  0  0  0  0  0  0  0  0  0  0
   13.3360   -1.3180   22.0430 C   0  0  0  0  0  0  0  0  0  0  0  0
   13.3180   -1.9370   23.2420 C   0  0  1  0  0  0  0  0  0  0  0  0
   13.0770   -1.4220   24.5240 C   0  0  0  0  0  0  0  0  0  0  0  0
   12.2190   -1.0540   23.5450 C   0  0  0  0  0  0  0  0  0  0  0  0
   12.3710    0.3760   23.7530 C   0  0  0  0  0  0  0  0  0  0  0  0
   11.1710    1.1870   24.0190 C   0  0  0  0  0  0  0  0  0  0  0  0
    9.7130    0.7330   24.1050 C   0  0  0  0  0  0  0  0  0  0  0  0
    8.5670   -0.0040   24.1090 C   0  0  0  0  0  0  0  0  0  0  0  0
    8.3650   -0.7000   22.8960 N   0  0  0  0  0  0  0  0  0  0  0  0
    8.2050   -0.1010   21.6640 C   0  0  0  0  0  0  0  0  0  0  0  0
    8.9060    0.8120   21.2410 O   0  0  0  0  0  0  0  0  0  0  0  0
    7.1280   -0.6490   20.9920 N   0  0  0  0  0  0  0  0  0  0  0  0
    6.4070    0.0280   20.0400 C   0  0  0  0  0  0  0  0  0  0  0  0
    5.2260    0.7280   20.2760 C   0  0  0  0  0  0  0  0  0  0  0  0
    4.6380    1.3680   19.2040 C   0  0  0  0  0  0  0  0  0  0  0  0
    5.2140    1.3050   17.9560 C   0  0  0  0  0  0  0  0  0  0  0  0
    6.3390    0.6360   17.6980 N   0  0  0  0  0  0  0  0  0  0  0  0
    6.9090    0.0110   18.7480 C   0  0  0  0  0  0  0  0  0  0  0  0
    9.8590   -0.6820   23.8670 C   0  0  0  0  0  0  0  0  0  0  0  0
   10.9570   -1.5000   23.6150 C   0  0  0  0  0  0  0  0  0  0  0  0
  1  2  1  0
  2  3  1  0
  3  4  1  1
  3  5  1  0
  5  6  2  0
  6  7  1  0
  7  8  2  0
  8  9  1  0
  9 10  1  0
 10 11  1  0
 11 12  2  0
 11 13  1  0
 13 14  1  0
 14 15  2  0
 15 16  1  0
 16 17  2  0
 17 18  1  0
 14 19  1  0
 18 19  2  0
  8 20  1  0
  5 21  1  0
 20 21  2  0
M  END
