pyridine_urea_4845
     RDKit          3D

 21 22  0  0  0  0  0  0  0  0999 V2000
    8.6750    1.2470   21.0340 O   0  0  0  0  0  0  0  0  0  0  0  0
    8.4670    0.0830   21.4020 C   0  0  0  0  0  0  0  0  0  0  0  0
    7.2910   -0.5560   21.0940 N   0  0  0  0  0  0  0  0  0  0  0  0
    6.6140    0.0260   19.9730 C   0  0  0  0  0  0  0  0  0  0  0  0
    5.3610    0.8590   20.2930 C   0  0  0  0  0  0  0  0  0  0  0  0
    4.6560    1.4840   19.2700 C   0  0  0  0  0  0  0  0  0  0  0  0
    5.1300    1.3230   17.9710 C   0  0  0  0  0  0  0  0  0  0  0  0
    6.2460    0.5630   17.7280 N   0  0  0  0  0  0  0  0  0  0  0  0
    6.9990   -0.0930   18.7030 C   0  0  0  0  0  0  0  0  0  0  0  0
    9.3280   -0.6890   22.1330 N   0  0  0  0  0  0  0  0  0  0  0  0
   10.2160   -1.3950   22.8720 C   0  0  1  0  0  0  0  0  0  0  0  0
   11.5120   -0.9510   22.7440 C   0  0  0  0  0  0  0  0  0  0  0  0
   12.6850   -0.1400   22.7000 C   0  0  0  0  0  0  0  0  0  0  0  0
   12.9150    1.2220   22.8960 C   0  0  0  0  0  0  0  0  0  0  0  0
   11.9210    2.0940   23.1960 C   0  0  0  0  0  0  0  0  0  0  0  0
   12.0940    3.4070   23.3710 F   0  0  0  0  0  0  0  0  0  0  0  0
   10.6420    1.4880   23.3030 C   0  0  0  0  0  0  0  0  0  0  0  0
   10.4380    0.1630   23.1110 C   0  0  0  0  0  0  0  0  0  0  0  0
   10.1900   -1.5550   24.2460 C   0  0  0  0  0  0  0  0  0  0  0  0
    8.8840   -1.6350   24.6090 F   0  0  0  0  0  0  0  0  0  0  0  0
   10.7040   -2.7780   24.4660 F   0  0  0  0  0  0  0  0  0  0  0  0
  1  2  2  0
  2  3  1  0
  3  4  1  0
  4  5  2  0
  5  6  1  0
  6  7  2  0
  7  8  1  0
  4  9  1  0
  8  9  2  0
  2 10  1  0
 11 10  1  1
 11 12  1  0
 12 13  2  0
 13 14  1  0
 14 15  2  0
 15 16  1  0
 15 17  1  0
 12 18  1  0
 17 18  2  0
 11 19  1  0
 19 20  1  0
 19 21  1  0
M  END
