pyridine_urea_12939
     RDKit          3D

 19 20  0  0  0  0  0  0  0  0999 V2000
    7.5790   -4.0940   23.6910 C   0  0  0  0  0  0  0  0  0  0  0  0
    7.5720   -2.5530   23.5450 C   0  0  0  0  0  0  0  0  0  0  0  0
    6.2830   -2.2260   22.7550 C   0  0  0  0  0  0  0  0  0  0  0  0
    8.7850   -2.1500   22.6570 C   0  0  0  0  0  0  0  0  0  0  0  0
    9.0300   -0.7180   22.5680 N   0  0  0  0  0  0  0  0  0  0  0  0
    8.5290    0.0710   21.5450 C   0  0  0  0  0  0  0  0  0  0  0  0
    9.0210    1.1640   21.2360 O   0  0  0  0  0  0  0  0  0  0  0  0
    7.4280   -0.5170   20.9580 N   0  0  0  0  0  0  0  0  0  0  0  0
    6.5890    0.1160   20.0310 C   0  0  0  0  0  0  0  0  0  0  0  0
    5.4280    0.8180   20.3370 C   0  0  0  0  0  0  0  0  0  0  0  0
    4.6940    1.4180   19.3090 C   0  0  0  0  0  0  0  0  0  0  0  0
    5.1570    1.2870   18.0160 C   0  0  0  0  0  0  0  0  0  0  0  0
    6.2660    0.6060   17.6990 N   0  0  0  0  0  0  0  0  0  0  0  0
    6.9470    0.0420   18.7070 C   0  0  0  0  0  0  0  0  0  0  0  0
    7.7670   -2.0650   24.7940 N   0  0  0  0  0  0  0  0  0  0  0  0
    7.8930   -2.8650   25.9990 C   0  0  0  0  0  0  0  0  0  0  0  0
    8.0810   -1.8710   27.0390 C   0  0  0  0  0  0  0  0  0  0  0  0
    8.0740   -0.6380   26.5340 C   0  0  0  0  0  0  0  0  0  0  0  0
    7.8880   -0.6970   25.1750 N   0  0  0  0  0  0  0  0  0  0  0  0
  2  1  1  0
  2  3  1  0
  2  4  1  0
  4  5  1  0
  5  6  1  0
  6  7  2  0
  6  8  1  0
  8  9  1  0
  9 10  2  0
 10 11  1  0
 11 12  2  0
 12 13  1  0
  9 14  1  0
 13 14  2  0
  2 15  1  0
 15 16  1  0
 16 17  2  0
 17 18  1  0
 15 19  1  0
 18 19  2  0
M  END
