pyridine_urea_11445
     RDKit          3D

 20 21  0  0  0  0  0  0  0  0999 V2000
   13.2720   -1.8740   24.9510 C   0  0  0  0  0  0  0  0  0  0  0  0
   13.3790   -0.4680   24.6680 O   0  0  0  0  0  0  0  0  0  0  0  0
   13.4120   -0.1600   23.3000 C   0  0  0  0  0  0  0  0  0  0  0  0
   13.8840    0.8060   22.7550 O   0  0  0  0  0  0  0  0  0  0  0  0
   12.7130   -1.2660   22.7080 C   0  0  2  0  0  0  0  0  0  0  0  0
   13.0760   -1.3270   21.3470 O   0  0  0  0  0  0  0  0  0  0  0  0
   12.4880   -2.4420   21.0680 C   0  0  0  0  0  0  0  0  0  0  0  0
   11.4410   -2.5700   21.9130 C   0  0  0  0  0  0  0  0  0  0  0  0
   11.1920   -1.5170   22.9030 C   0  0  2  0  0  0  0  0  0  0  0  0
   10.0970   -0.6330   22.5210 C   0  0  0  0  0  0  0  0  0  0  0  0
    9.0440   -1.2690   21.8060 N   0  0  0  0  0  0  0  0  0  0  0  0
    8.2000   -0.3340   21.2910 C   0  0  0  0  0  0  0  0  0  0  0  0
    8.6010    1.0290   21.1660 O   0  0  0  0  0  0  0  0  0  0  0  0
    6.9880   -0.8100   20.9100 N   0  0  0  0  0  0  0  0  0  0  0  0
    6.2750   -0.0690   19.9740 C   0  0  0  0  0  0  0  0  0  0  0  0
    5.0670    0.5910   20.1890 C   0  0  0  0  0  0  0  0  0  0  0  0
    4.5400    1.2960   19.1180 C   0  0  0  0  0  0  0  0  0  0  0  0
    5.1740    1.3410   17.9070 C   0  0  0  0  0  0  0  0  0  0  0  0
    6.3310    0.7070   17.6770 N   0  0  0  0  0  0  0  0  0  0  0  0
    6.8460    0.0230   18.7140 C   0  0  0  0  0  0  0  0  0  0  0  0
  1  2  1  0
  2  3  1  0
  3  4  2  0
  5  3  1  6
  5  6  1  0
  6  7  1  0
  7  8  1  0
  5  9  1  0
  8  9  1  0
  9 10  1  6
 10 11  1  0
 11 12  1  0
 12 13  2  0
 12 14  1  0
 14 15  1  0
 15 16  2  0
 16 17  1  0
 17 18  2  0
 18 19  1  0
 15 20  1  0
 19 20  2  0
M  END
