pyridine_urea_14393
     RDKit          3D

 22 24  0  0  0  0  0  0  0  0999 V2000
    8.8340    1.4610   21.1060 O   0  0  0  0  0  0  0  0  0  0  0  0
    8.5120    0.3580   21.5560 C   0  0  0  0  0  0  0  0  0  0  0  0
    9.2760   -0.2320   22.6360 N   0  0  0  0  0  0  0  0  0  0  0  0
   10.4260    0.5160   22.9040 C   0  0  0  0  0  0  0  0  0  0  0  0
   10.9350    0.5840   24.1930 C   0  0  0  0  0  0  0  0  0  0  0  0
   11.8670   -0.4300   24.3520 C   0  0  0  0  0  0  0  0  0  0  0  0
   12.6410   -0.7260   25.4590 C   0  0  0  0  0  0  0  0  0  0  0  0
   13.5940   -1.8920   25.5230 C   0  0  0  0  0  0  0  0  0  0  0  0
   13.7540   -2.7520   24.3450 C   0  0  0  0  0  0  0  0  0  0  0  0
   12.9310   -2.3120   23.2830 C   0  0  0  0  0  0  0  0  0  0  0  0
   12.8720   -2.9370   21.9600 C   0  0  0  0  0  0  0  0  0  0  0  0
   12.0350   -2.6610   20.7300 C   0  0  0  0  0  0  0  0  0  0  0  0
   11.3800   -1.6270   21.3750 C   0  0  0  0  0  0  0  0  0  0  0  0
   11.9780   -1.7380   22.3250 C   0  0  0  0  0  0  0  0  0  0  0  0
   12.1480   -1.3110   23.3980 C   0  0  0  0  0  0  0  0  0  0  0  0
    7.4200   -0.3750   21.1060 N   0  0  0  0  0  0  0  0  0  0  0  0
    6.6390    0.1340   20.0640 C   0  0  0  0  0  0  0  0  0  0  0  0
    5.4690    0.8380   20.3540 C   0  0  0  0  0  0  0  0  0  0  0  0
    4.6950    1.3790   19.3310 C   0  0  0  0  0  0  0  0  0  0  0  0
    5.1290    1.1900   18.0230 C   0  0  0  0  0  0  0  0  0  0  0  0
    6.2370    0.5100   17.7110 N   0  0  0  0  0  0  0  0  0  0  0  0
    6.9610   -0.0010   18.7320 C   0  0  0  0  0  0  0  0  0  0  0  0
  1  2  2  0
  2  3  1  0
  3  4  1  0
  4  5  1  0
  5  6  1  0
  6  7  2  0
  7  8  1  0
  8  9  2  0
  9 10  1  0
 10 11  1  0
 11 12  2  0
 12 13  1  0
 13 14  2  0
  6 15  1  0
 10 15  2  0
 14 15  1  0
  2 16  1  0
 16 17  1  0
 17 18  2  0
 18 19  1  0
 19 20  2  0
 20 21  1  0
 17 22  1  0
 21 22  2  0
M  END
