pyridine_urea_62
     RDKit          3D

 24 26  0  0  0  0  0  0  0  0999 V2000
    8.6490    2.0460   21.5390 C   0  0  0  0  0  0  0  0  0  0  0  0
    8.8980    0.7730   22.0150 N   0  0  0  0  0  0  0  0  0  0  0  0
   10.1900   -0.0410   21.8900 C   0  0  0  0  0  0  0  0  0  0  0  0
   10.0380   -1.2690   22.7730 C   0  0  0  0  0  0  0  0  0  0  0  0
    8.6610   -0.8950   22.9320 C   0  0  1  0  0  0  0  0  0  0  0  0
    7.5380   -1.5670   22.8780 N   0  0  0  0  0  0  0  0  0  0  0  0
    7.2830   -1.1400   21.6300 C   0  0  0  0  0  0  0  0  0  0  0  0
    8.3780   -0.5760   20.8560 O   0  0  0  0  0  0  0  0  0  0  0  0
    6.0710   -1.1860   21.0340 N   0  0  0  0  0  0  0  0  0  0  0  0
    5.8750   -0.3680   20.0230 C   0  0  0  0  0  0  0  0  0  0  0  0
    4.7700    0.6080   20.0530 C   0  0  0  0  0  0  0  0  0  0  0  0
    4.4100    1.5120   19.1120 C   0  0  0  0  0  0  0  0  0  0  0  0
    5.3680    1.3700   17.9430 C   0  0  0  0  0  0  0  0  0  0  0  0
    6.3970    0.4980   17.8690 N   0  0  0  0  0  0  0  0  0  0  0  0
    6.6410   -0.3440   18.8830 C   0  0  0  0  0  0  0  0  0  0  0  0
    8.7850    0.5210   23.4120 C   0  0  1  0  0  0  0  0  0  0  0  0
   10.0590    0.7720   23.3480 C   0  0  0  0  0  0  0  0  0  0  0  0
   10.3010    2.3090   23.0810 C   0  0  0  0  0  0  0  0  0  0  0  0
   11.7130    2.1410   22.9010 C   0  0  0  0  0  0  0  0  0  0  0  0
   12.3240    0.8620   23.0080 C   0  0  0  0  0  0  0  0  0  0  0  0
   13.8310    0.6570   22.7400 Cl  0  0  0  0  0  0  0  0  0  0  0  0
   11.8250   -0.2830   23.2910 C   0  0  0  0  0  0  0  0  0  0  0  0
   12.7560   -1.2690   23.3240 F   0  0  0  0  0  0  0  0  0  0  0  0
   10.5880   -0.5910   23.5230 C   0  0  0  0  0  0  0  0  0  0  0  0
  1  2  1  0
  2  3  1  0
  3  4  1  0
  4  5  1  0
  5  6  1  1
  6  7  1  0
  7  8  2  0
  7  9  1  0
  9 10  1  0
 10 11  2  0
 11 12  1  0
 12 13  2  0
 13 14  1  0
 10 15  1  0
 14 15  2  0
  2 16  1  0
  5 16  1  0
 16 17  1  1
 17 18  2  0
 18 19  1  0
 19 20  2  0
 20 21  1  0
 20 22  1  0
 22 23  1  0
 17 24  1  0
 22 24  2  0
M  END
