pyridine_urea_8763
     RDKit          3D

 20 21  0  0  0  0  0  0  0  0999 V2000
   11.4510    1.4810   23.4830 C   0  0  0  0  0  0  0  0  0  0  0  0
   11.8340    0.0950   23.0010 C   0  0  0  0  0  0  0  0  0  0  0  0
   13.0110    0.8340   23.0280 C   0  0  0  0  0  0  0  0  0  0  0  0
   12.9520   -0.3670   22.6730 C   0  0  0  0  0  0  0  0  0  0  0  0
   11.6010   -0.7900   22.7580 C   0  0  0  0  0  0  0  0  0  0  0  0
   10.3190   -0.0560   23.1760 C   0  0  2  0  0  0  0  0  0  0  0  0
    9.9770   -0.2890   24.5100 C   0  0  0  0  0  0  0  0  0  0  0  0
    9.0400    0.5960   24.9580 F   0  0  0  0  0  0  0  0  0  0  0  0
    9.2300   -0.6440   22.4200 N   0  0  0  0  0  0  0  0  0  0  0  0
    8.5450    0.1230   21.5000 C   0  0  0  0  0  0  0  0  0  0  0  0
    8.9650    1.2560   21.2140 O   0  0  0  0  0  0  0  0  0  0  0  0
    7.4110   -0.4820   20.9990 N   0  0  0  0  0  0  0  0  0  0  0  0
    6.5720    0.1270   20.0570 C   0  0  0  0  0  0  0  0  0  0  0  0
    5.4050    0.8220   20.3340 C   0  0  0  0  0  0  0  0  0  0  0  0
    4.6650    1.4040   19.3090 C   0  0  0  0  0  0  0  0  0  0  0  0
    5.1380    1.2610   18.0120 C   0  0  0  0  0  0  0  0  0  0  0  0
    6.2550    0.5890   17.7060 N   0  0  0  0  0  0  0  0  0  0  0  0
    6.9410    0.0390   18.7280 C   0  0  0  0  0  0  0  0  0  0  0  0
   11.6400   -1.9680   22.4000 C   0  0  0  0  0  0  0  0  0  0  0  0
   12.7710   -1.0760   22.4930 C   0  0  0  0  0  0  0  0  0  0  0  0
  1  2  1  0
  2  3  2  0
  3  4  1  0
  4  5  2  0
  5  6  1  0
  6  7  1  1
  7  8  1  0
  6  9  1  0
  9 10  1  0
 10 11  2  0
 10 12  1  0
 12 13  1  0
 13 14  2  0
 14 15  1  0
 15 16  2  0
 16 17  1  0
 13 18  1  0
 17 18  2  0
  5 19  1  0
  2 20  1  0
 19 20  2  0
M  END
