pyridine_urea_4882
     RDKit          3D

 21 22  0  0  0  0  0  0  0  0999 V2000
    9.4920    1.7010   23.8960 C   0  0  0  0  0  0  0  0  0  0  0  0
   10.1530    0.3530   24.2660 C   0  0  0  0  0  0  0  0  0  0  0  0
    9.5140   -0.2080   25.5560 C   0  0  0  0  0  0  0  0  0  0  0  0
    9.9950   -0.6670   23.1060 C   0  0  0  0  0  0  0  0  0  0  0  0
    8.6650   -0.7430   22.5690 N   0  0  0  0  0  0  0  0  0  0  0  0
    8.2890    0.0360   21.5100 C   0  0  0  0  0  0  0  0  0  0  0  0
    8.8670    1.0820   21.1800 O   0  0  0  0  0  0  0  0  0  0  0  0
    7.1870   -0.5230   20.9280 N   0  0  0  0  0  0  0  0  0  0  0  0
    6.4210    0.1360   19.9780 C   0  0  0  0  0  0  0  0  0  0  0  0
    5.2480    0.8370   20.2250 C   0  0  0  0  0  0  0  0  0  0  0  0
    4.5940    1.4670   19.1670 C   0  0  0  0  0  0  0  0  0  0  0  0
    5.1490    1.3650   17.9100 C   0  0  0  0  0  0  0  0  0  0  0  0
    6.2750    0.6850   17.6530 N   0  0  0  0  0  0  0  0  0  0  0  0
    6.8760    0.0920   18.6870 C   0  0  0  0  0  0  0  0  0  0  0  0
   11.6620    0.6340   24.4060 C   0  0  0  0  0  0  0  0  0  0  0  0
   12.3500    0.1410   23.2710 C   0  0  0  0  0  0  0  0  0  0  0  0
   12.9990   -0.4960   22.2320 C   0  0  0  0  0  0  0  0  0  0  0  0
   13.3860   -1.8100   21.7810 C   0  0  0  0  0  0  0  0  0  0  0  0
   12.9480   -2.5510   22.8150 C   0  0  0  0  0  0  0  0  0  0  0  0
   12.2710   -2.1430   24.0110 C   0  0  0  0  0  0  0  0  0  0  0  0
   12.0210   -0.8830   24.1530 C   0  0  0  0  0  0  0  0  0  0  0  0
  2  1  1  0
  2  3  1  0
  2  4  1  0
  4  5  1  0
  5  6  1  0
  6  7  2  0
  6  8  1  0
  8  9  1  0
  9 10  2  0
 10 11  1  0
 11 12  2  0
 12 13  1  0
  9 14  1  0
 13 14  2  0
  2 15  1  0
 15 16  1  0
 16 17  2  0
 17 18  1  0
 18 19  2  0
 19 20  1  0
 16 21  1  0
 20 21  2  0
M  END
