pyridine_urea_6026
     RDKit          3D

 25 27  0  0  0  0  0  0  0  0999 V2000
    8.9660    1.2030   21.1680 O   0  0  0  0  0  0  0  0  0  0  0  0
    8.4240    0.1990   21.6540 C   0  0  0  0  0  0  0  0  0  0  0  0
    7.3580   -0.5500   20.9900 N   0  0  0  0  0  0  0  0  0  0  0  0
    6.6000    0.0910   20.0240 C   0  0  0  0  0  0  0  0  0  0  0  0
    5.4550    0.8180   20.3640 C   0  0  0  0  0  0  0  0  0  0  0  0
    4.7410    1.4480   19.3410 C   0  0  0  0  0  0  0  0  0  0  0  0
    5.1950    1.3280   18.0260 C   0  0  0  0  0  0  0  0  0  0  0  0
    6.2870    0.6250   17.6950 N   0  0  0  0  0  0  0  0  0  0  0  0
    6.9640    0.0230   18.7010 C   0  0  0  0  0  0  0  0  0  0  0  0
    8.6860   -0.3730   22.8820 N   0  0  0  0  0  0  0  0  0  0  0  0
   10.0120   -0.7910   23.3340 C   0  0  0  0  0  0  0  0  0  0  0  0
    9.7750   -2.2490   23.7670 C   0  0  0  0  0  0  0  0  0  0  0  0
    9.0570   -2.3670   24.9580 C   0  0  0  0  0  0  0  0  0  0  0  0
    9.0280   -1.3170   25.8910 C   0  0  0  0  0  0  0  0  0  0  0  0
    8.3150   -1.4350   27.0850 C   0  0  0  0  0  0  0  0  0  0  0  0
    7.6220   -2.6050   27.3590 C   0  0  0  0  0  0  0  0  0  0  0  0
    6.9340   -2.7280   28.5020 F   0  0  0  0  0  0  0  0  0  0  0  0
    7.6390   -3.6500   26.4500 C   0  0  0  0  0  0  0  0  0  0  0  0
    8.3460   -3.5390   25.2600 C   0  0  0  0  0  0  0  0  0  0  0  0
    8.3360   -4.5770   24.3960 F   0  0  0  0  0  0  0  0  0  0  0  0
   10.8390   -0.8120   22.0870 C   0  0  0  0  0  0  0  0  0  0  0  0
   12.1710   -1.0840   22.4270 C   0  0  0  0  0  0  0  0  0  0  0  0
   12.7470   -0.0050   23.0810 C   0  0  0  0  0  0  0  0  0  0  0  0
   11.9360    0.5510   24.0520 C   0  0  0  0  0  0  0  0  0  0  0  0
   10.6350    0.0510   24.2840 C   0  0  0  0  0  0  0  0  0  0  0  0
  1  2  2  0
  2  3  1  0
  3  4  1  0
  4  5  2  0
  5  6  1  0
  6  7  2  0
  7  8  1  0
  4  9  1  0
  8  9  2  0
  2 10  1  0
 11 10  1  0
 11 12  1  0
 12 13  1  0
 13 14  2  0
 14 15  1  0
 15 16  2  0
 16 17  1  0
 16 18  1  0
 13 19  1  0
 18 19  2  0
 19 20  1  0
 11 21  1  0
 21 22  1  0
 22 23  1  0
 23 24  1  0
 11 25  1  0
 24 25  1  0
M  END
