pyridine_urea_6599
     RDKit          3D

 22 24  0  0  0  0  0  0  0  0999 V2000
    9.3350   -2.2230   23.8140 C   0  0  0  0  0  0  0  0  0  0  0  0
    9.1800   -0.7890   23.2930 C   0  0  1  0  0  0  0  0  0  0  0  0
    7.8740   -0.3090   23.0540 N   0  0  0  0  0  0  0  0  0  0  0  0
    7.7990    0.1090   21.7570 C   0  0  0  0  0  0  0  0  0  0  0  0
    8.5480    0.9620   21.2910 O   0  0  0  0  0  0  0  0  0  0  0  0
    6.8200   -0.5370   21.0760 N   0  0  0  0  0  0  0  0  0  0  0  0
    6.2990    0.0850   19.9640 C   0  0  0  0  0  0  0  0  0  0  0  0
    5.0480    0.8760   20.1020 C   0  0  0  0  0  0  0  0  0  0  0  0
    4.5040    1.5390   19.0280 C   0  0  0  0  0  0  0  0  0  0  0  0
    5.1150    1.4910   17.7690 C   0  0  0  0  0  0  0  0  0  0  0  0
    6.3240    0.7050   17.6640 N   0  0  0  0  0  0  0  0  0  0  0  0
    6.8590    0.0490   18.7250 C   0  0  0  0  0  0  0  0  0  0  0  0
   10.2510    0.2510   23.6220 C   0  0  0  0  0  0  0  0  0  0  0  0
   11.6190    0.5870   23.3410 C   0  0  0  0  0  0  0  0  0  0  0  0
   12.3730   -0.1530   22.5410 C   0  0  0  0  0  0  0  0  0  0  0  0
   13.5830   -0.2080   22.0290 C   0  0  0  0  0  0  0  0  0  0  0  0
   13.6110   -1.4290   21.0920 C   0  0  0  0  0  0  0  0  0  0  0  0
   12.5660   -2.2520   20.9430 C   0  0  0  0  0  0  0  0  0  0  0  0
   11.4200   -2.0300   21.5850 C   0  0  0  0  0  0  0  0  0  0  0  0
   10.3550   -2.7960   21.4690 F   0  0  0  0  0  0  0  0  0  0  0  0
   11.2510   -0.9970   22.3820 C   0  0  0  0  0  0  0  0  0  0  0  0
   10.3220   -0.7310   22.9240 O   0  0  0  0  0  0  0  0  0  0  0  0
  2  1  1  1
  2  3  1  0
  3  4  1  0
  4  5  2  0
  4  6  1  0
  6  7  1  0
  7  8  2  0
  8  9  1  0
  9 10  2  0
 10 11  1  0
  7 12  1  0
 11 12  2  0
  2 13  1  0
 13 14  2  0
 14 15  1  0
 15 16  2  0
 16 17  1  0
 17 18  2  0
 18 19  1  0
 19 20  1  0
 15 21  1  0
 19 21  2  0
 13 22  1  0
 21 22  1  0
M  END
