pyridine_urea_6679
     RDKit          3D

 22 23  0  0  0  0  0  0  0  0999 V2000
   13.0510    0.2450   22.8650 C   0  0  0  0  0  0  0  0  0  0  0  0
   12.1140    0.6030   24.0400 C   0  0  0  0  0  0  0  0  0  0  0  0
   12.1600   -0.5370   25.0800 C   0  0  0  0  0  0  0  0  0  0  0  0
   10.6510    0.9690   23.6750 C   0  0  0  0  0  0  0  0  0  0  0  0
    9.8210   -0.1820   23.2510 C   0  0  2  0  0  0  0  0  0  0  0  0
   10.3940   -0.8810   22.2530 C   0  0  0  0  0  0  0  0  0  0  0  0
   11.5270   -1.5230   22.5800 C   0  0  0  0  0  0  0  0  0  0  0  0
   12.0080   -1.4200   23.8860 C   0  0  0  0  0  0  0  0  0  0  0  0
   13.1450   -2.0850   24.2460 C   0  0  0  0  0  0  0  0  0  0  0  0
   13.7420   -2.8160   23.2740 C   0  0  0  0  0  0  0  0  0  0  0  0
   13.2780   -2.9210   21.9650 C   0  0  0  0  0  0  0  0  0  0  0  0
   12.1360   -2.2580   21.5910 C   0  0  0  0  0  0  0  0  0  0  0  0
    8.4530   -0.2460   22.8400 N   0  0  0  0  0  0  0  0  0  0  0  0
    8.1760    0.2840   21.6320 C   0  0  0  0  0  0  0  0  0  0  0  0
    8.7790    1.2400   21.1270 O   0  0  0  0  0  0  0  0  0  0  0  0
    7.0610   -0.4260   21.0330 N   0  0  0  0  0  0  0  0  0  0  0  0
    6.4340    0.1500   19.9820 C   0  0  0  0  0  0  0  0  0  0  0  0
    5.2700    0.8840   20.1990 C   0  0  0  0  0  0  0  0  0  0  0  0
    4.6410    1.4950   19.1420 C   0  0  0  0  0  0  0  0  0  0  0  0
    5.1690    1.3730   17.8910 C   0  0  0  0  0  0  0  0  0  0  0  0
    6.2790    0.6700   17.6260 N   0  0  0  0  0  0  0  0  0  0  0  0
    6.8840    0.0740   18.6810 C   0  0  0  0  0  0  0  0  0  0  0  0
  1  2  1  0
  2  3  1  0
  2  4  1  0
  5  4  1  6
  5  6  1  0
  6  7  1  0
  7  8  2  0
  8  9  1  0
  9 10  2  0
 10 11  1  0
  7 12  1  0
 11 12  2  0
  5 13  1  0
 13 14  1  0
 14 15  2  0
 14 16  1  0
 16 17  1  0
 17 18  2  0
 18 19  1  0
 19 20  2  0
 20 21  1  0
 17 22  1  0
 21 22  2  0
M  END
