pyridine_urea_14556
     RDKit          3D

 21 23  0  0  0  0  0  0  0  0999 V2000
    8.9320    0.6230   21.4410 O   0  0  0  0  0  0  0  0  0  0  0  0
    8.2790   -0.3910   21.6430 C   0  0  0  0  0  0  0  0  0  0  0  0
    8.6550   -1.4220   22.4730 N   0  0  0  0  0  0  0  0  0  0  0  0
    9.8510   -1.5370   23.1940 C   0  0  0  0  0  0  0  0  0  0  0  0
   11.0740   -1.4140   22.5750 C   0  0  0  0  0  0  0  0  0  0  0  0
   12.0920   -0.9990   23.4050 C   0  0  0  0  0  0  0  0  0  0  0  0
   12.7200    0.1920   23.1420 C   0  0  0  0  0  0  0  0  0  0  0  0
   11.4330    0.4940   23.4820 C   0  0  0  0  0  0  0  0  0  0  0  0
   10.2870    1.4030   23.7290 C   0  0  0  0  0  0  0  0  0  0  0  0
   10.6730    2.6490   23.5070 C   0  0  0  0  0  0  0  0  0  0  0  0
   12.0090    2.7760   23.1190 C   0  0  0  0  0  0  0  0  0  0  0  0
   12.9080    1.6390   22.9720 C   0  0  0  0  0  0  0  0  0  0  0  0
   13.2130   -2.1510   23.4850 C   0  0  0  0  0  0  0  0  0  0  0  0
   12.6890   -1.6750   24.5820 C   0  0  0  0  0  0  0  0  0  0  0  0
    7.0540   -0.6890   21.1040 N   0  0  0  0  0  0  0  0  0  0  0  0
    6.4320    0.0050   19.9960 C   0  0  0  0  0  0  0  0  0  0  0  0
    5.2630    0.7320   20.1990 C   0  0  0  0  0  0  0  0  0  0  0  0
    4.6150    1.4290   19.1900 C   0  0  0  0  0  0  0  0  0  0  0  0
    5.1940    1.3730   17.9330 C   0  0  0  0  0  0  0  0  0  0  0  0
    6.3230    0.6790   17.6850 N   0  0  0  0  0  0  0  0  0  0  0  0
    6.9110    0.0160   18.7060 C   0  0  0  0  0  0  0  0  0  0  0  0
  1  2  2  0
  2  3  1  0
  3  4  1  0
  4  5  1  0
  6  5  1  0
  6  7  1  0
  7  8  2  0
  8  9  1  0
  9 10  2  0
 10 11  1  0
  7 12  1  0
 11 12  2  0
  6 13  1  0
  6 14  1  0
 13 14  1  0
  2 15  1  0
 15 16  1  0
 16 17  2  0
 17 18  1  0
 18 19  2  0
 19 20  1  0
 16 21  1  0
 20 21  2  0
M  END
