pyridine_urea_5880
     RDKit          3D

 21 22  0  0  0  0  0  0  0  0999 V2000
   14.1410   -2.8100   25.8230 C   0  0  0  0  0  0  0  0  0  0  0  0
   13.6880   -1.6870   25.1650 O   0  0  0  0  0  0  0  0  0  0  0  0
   13.4070   -2.0690   23.9360 C   0  0  0  0  0  0  0  0  0  0  0  0
   14.0840   -2.7900   23.2570 O   0  0  0  0  0  0  0  0  0  0  0  0
   12.2440   -1.6230   23.5370 C   0  0  0  0  0  0  0  0  0  0  0  0
   11.3610   -1.4380   24.5690 C   0  0  0  0  0  0  0  0  0  0  0  0
   10.1050   -1.0150   24.3360 C   0  0  0  0  0  0  0  0  0  0  0  0
    9.7060   -0.7500   22.9750 C   0  0  0  0  0  0  0  0  0  0  0  0
    8.4170   -0.3080   22.6350 N   0  0  0  0  0  0  0  0  0  0  0  0
    8.0490    0.2020   21.4700 C   0  0  0  0  0  0  0  0  0  0  0  0
    8.6540    1.2050   21.0480 O   0  0  0  0  0  0  0  0  0  0  0  0
    6.9540   -0.5190   20.8790 N   0  0  0  0  0  0  0  0  0  0  0  0
    6.3470    0.1260   19.8690 C   0  0  0  0  0  0  0  0  0  0  0  0
    5.1590    0.7870   20.1100 C   0  0  0  0  0  0  0  0  0  0  0  0
    4.5470    1.4700   19.0640 C   0  0  0  0  0  0  0  0  0  0  0  0
    5.1560    1.4570   17.8210 C   0  0  0  0  0  0  0  0  0  0  0  0
    6.3060    0.8090   17.5860 N   0  0  0  0  0  0  0  0  0  0  0  0
    6.8670    0.1620   18.6110 C   0  0  0  0  0  0  0  0  0  0  0  0
   10.7210   -0.9730   21.9120 C   0  0  0  0  0  0  0  0  0  0  0  0
   11.9880   -1.4090   22.2030 C   0  0  0  0  0  0  0  0  0  0  0  0
   12.9270   -1.6330   21.2220 O   0  0  0  0  0  0  0  0  0  0  0  0
  1  2  1  0
  2  3  1  0
  3  4  2  0
  3  5  1  0
  5  6  2  0
  6  7  1  0
  7  8  2  0
  8  9  1  0
  9 10  1  0
 10 11  2  0
 10 12  1  0
 12 13  1  0
 13 14  2  0
 14 15  1  0
 15 16  2  0
 16 17  1  0
 13 18  1  0
 17 18  2  0
  8 19  1  0
  5 20  1  0
 19 20  2  0
 20 21  1  0
M  END
