pyridine_urea_2272
     RDKit          3D

 25 27  0  0  0  0  0  0  0  0999 V2000
    8.6390    1.5240   21.0310 O   0  0  0  0  0  0  0  0  0  0  0  0
    8.3660    0.3480   21.2440 C   0  0  0  0  0  0  0  0  0  0  0  0
    7.1440   -0.2300   21.0690 N   0  0  0  0  0  0  0  0  0  0  0  0
    6.3390    0.3000   20.0910 C   0  0  0  0  0  0  0  0  0  0  0  0
    4.9850    0.9630   20.3440 C   0  0  0  0  0  0  0  0  0  0  0  0
    4.3450    1.5060   19.0810 C   0  0  0  0  0  0  0  0  0  0  0  0
    5.0940    1.3270   17.8010 C   0  0  0  0  0  0  0  0  0  0  0  0
    6.2720    0.7100   17.6960 N   0  0  0  0  0  0  0  0  0  0  0  0
    6.8400    0.2290   18.8050 C   0  0  0  0  0  0  0  0  0  0  0  0
    9.2870   -0.5330   21.6350 N   0  0  0  0  0  0  0  0  0  0  0  0
   10.1470   -0.2590   22.7400 C   0  0  2  0  0  0  0  0  0  0  0  0
   10.6400    1.0430   22.8610 C   0  0  0  0  0  0  0  0  0  0  0  0
    9.6560    2.0070   22.8950 C   0  0  0  0  0  0  0  0  0  0  0  0
    9.9180    3.3090   22.9880 C   0  0  0  0  0  0  0  0  0  0  0  0
   11.2270    3.6490   23.0480 C   0  0  0  0  0  0  0  0  0  0  0  0
   12.2890    2.7060   23.0240 C   0  0  0  0  0  0  0  0  0  0  0  0
   12.0770    1.1410   22.9240 C   0  0  0  0  0  0  0  0  0  0  0  0
   11.2100   -1.0680   22.7800 C   0  0  0  0  0  0  0  0  0  0  0  0
   12.0230   -1.3180   23.7300 C   0  0  0  0  0  0  0  0  0  0  0  0
   12.0770   -0.8500   24.9040 C   0  0  0  0  0  0  0  0  0  0  0  0
   12.9750   -1.8610   24.5410 C   0  0  0  0  0  0  0  0  0  0  0  0
   14.0760   -2.5150   25.6630 Cl  0  0  0  0  0  0  0  0  0  0  0  0
   12.9080   -2.4060   23.0170 C   0  0  0  0  0  0  0  0  0  0  0  0
   13.8090   -3.3160   22.7270 F   0  0  0  0  0  0  0  0  0  0  0  0
   11.8480   -1.9010   21.9840 C   0  0  0  0  0  0  0  0  0  0  0  0
  1  2  2  0
  2  3  1  0
  3  4  1  0
  4  5  2  0
  5  6  1  0
  6  7  2  0
  7  8  1  0
  4  9  1  0
  8  9  2  0
  2 10  1  0
 11 10  1  6
 11 12  1  0
 12 13  2  0
 13 14  1  0
 14 15  2  0
 15 16  1  0
 12 17  1  0
 16 17  2  0
 11 18  1  0
 18 19  2  0
 19 20  1  0
 20 21  2  0
 21 22  1  0
 21 23  1  0
 23 24  1  0
 18 25  1  0
 23 25  2  0
M  END
