pyridine_urea_8252
     RDKit          3D

 23 25  0  0  0  0  0  0  0  0999 V2000
    8.5740   -1.4230   20.3600 O   0  0  0  0  0  0  0  0  0  0  0  0
    8.0470   -1.7180   21.3540 C   0  0  0  0  0  0  0  0  0  0  0  0
    8.6840   -2.5480   22.3880 N   0  0  0  0  0  0  0  0  0  0  0  0
    9.9770   -2.3920   23.2600 C   0  0  0  0  0  0  0  0  0  0  0  0
   11.5530   -2.4500   22.7460 C   0  0  0  0  0  0  0  0  0  0  0  0
   12.4070   -1.3150   22.8570 C   0  0  0  0  0  0  0  0  0  0  0  0
   13.0210   -0.8570   21.6840 N   0  0  0  0  0  0  0  0  0  0  0  0
   13.6350    0.3250   21.9790 C   0  0  0  0  0  0  0  0  0  0  0  0
   14.2300    1.2570   20.9970 C   0  0  0  0  0  0  0  0  0  0  0  0
   14.2760    2.7560   21.2410 C   0  0  0  0  0  0  0  0  0  0  0  0
   14.7160    3.7970   20.2490 C   0  0  0  0  0  0  0  0  0  0  0  0
   15.1990    3.3030   18.9320 C   0  0  0  0  0  0  0  0  0  0  0  0
   15.2050    1.8390   18.6510 C   0  0  0  0  0  0  0  0  0  0  0  0
   14.7230    0.7770   19.6510 C   0  0  0  0  0  0  0  0  0  0  0  0
   13.5020    0.5660   23.3180 N   0  0  0  0  0  0  0  0  0  0  0  0
   12.7300   -0.4960   23.9020 O   0  0  0  0  0  0  0  0  0  0  0  0
    6.7840   -1.1860   21.4690 N   0  0  0  0  0  0  0  0  0  0  0  0
    6.2480   -0.3770   20.4450 C   0  0  0  0  0  0  0  0  0  0  0  0
    5.1290    0.4570   20.5860 C   0  0  0  0  0  0  0  0  0  0  0  0
    4.6900    1.2120   19.4880 C   0  0  0  0  0  0  0  0  0  0  0  0
    5.3540    1.1360   18.2820 C   0  0  0  0  0  0  0  0  0  0  0  0
    6.4300    0.3670   18.0700 N   0  0  0  0  0  0  0  0  0  0  0  0
    6.8490   -0.3690   19.1510 C   0  0  0  0  0  0  0  0  0  0  0  0
  1  2  2  0
  2  3  1  0
  3  4  1  0
  4  5  1  0
  5  6  1  0
  6  7  2  0
  7  8  1  0
  8  9  1  0
  9 10  2  0
 10 11  1  0
 11 12  2  0
 12 13  1  0
  9 14  1  0
 13 14  2  0
  8 15  2  0
  6 16  1  0
 15 16  1  0
  2 17  1  0
 17 18  1  0
 18 19  2  0
 19 20  1  0
 20 21  2  0
 21 22  1  0
 18 23  1  0
 22 23  2  0
M  END
