pyridine_urea_6672
     RDKit          3D

 22 24  0  0  0  0  0  0  0  0999 V2000
    8.8720    0.7550   21.2670 O   0  0  0  0  0  0  0  0  0  0  0  0
    8.4030   -0.3710   21.3890 C   0  0  0  0  0  0  0  0  0  0  0  0
    7.1720   -0.7760   20.9490 N   0  0  0  0  0  0  0  0  0  0  0  0
    6.4050   -0.0390   20.0420 C   0  0  0  0  0  0  0  0  0  0  0  0
    5.0950    0.6850   20.3760 C   0  0  0  0  0  0  0  0  0  0  0  0
    4.4780    1.4280   19.1900 C   0  0  0  0  0  0  0  0  0  0  0  0
    5.2040    1.3640   17.8850 C   0  0  0  0  0  0  0  0  0  0  0  0
    6.3500    0.6880   17.7120 N   0  0  0  0  0  0  0  0  0  0  0  0
    6.8960    0.0280   18.7520 C   0  0  0  0  0  0  0  0  0  0  0  0
    9.0890   -1.3840   22.0070 N   0  0  0  0  0  0  0  0  0  0  0  0
   10.2770   -1.0710   22.7420 C   0  0  0  0  0  0  0  0  0  0  0  0
   11.5010   -1.1820   22.1010 C   0  0  0  0  0  0  0  0  0  0  0  0
   12.6690   -0.8800   22.7540 C   0  0  0  0  0  0  0  0  0  0  0  0
   12.5910   -0.4800   24.0660 C   0  0  0  0  0  0  0  0  0  0  0  0
   11.3340   -0.3870   24.7130 C   0  0  0  0  0  0  0  0  0  0  0  0
   10.1080   -0.6740   24.0660 C   0  0  0  0  0  0  0  0  0  0  0  0
    8.8930   -0.5810   24.6910 N   0  0  0  0  0  0  0  0  0  0  0  0
    7.8650   -0.0260   24.0330 C   0  0  0  0  0  0  0  0  0  0  0  0
    7.0890    0.6950   24.9120 C   0  0  0  0  0  0  0  0  0  0  0  0
    7.6840    0.6360   26.1280 N   0  0  0  0  0  0  0  0  0  0  0  0
    8.8950   -0.0050   26.0360 C   0  0  0  0  0  0  0  0  0  0  0  0
    9.8340   -0.0090   27.1320 O   0  0  0  0  0  0  0  0  0  0  0  0
  1  2  2  0
  2  3  1  0
  3  4  1  0
  4  5  2  0
  5  6  1  0
  6  7  2  0
  7  8  1  0
  4  9  1  0
  8  9  2  0
  2 10  1  0
 10 11  1  0
 11 12  2  0
 12 13  1  0
 13 14  2  0
 14 15  1  0
 11 16  1  0
 15 16  2  0
 16 17  1  0
 17 18  1  0
 18 19  1  0
 19 20  1  0
 17 21  1  0
 20 21  1  0
 21 22  2  0
M  END
