pyridine_urea_7049
     RDKit          3D

 20 21  0  0  0  0  0  0  0  0999 V2000
   10.7460   -2.2560   22.4190 C   0  0  0  0  0  0  0  0  0  0  0  0
   10.3220   -0.8180   22.6910 C   0  0  2  0  0  0  0  0  0  0  0  0
    9.6970   -0.4440   21.4540 N   0  0  0  0  0  0  0  0  0  0  0  0
    8.4890    0.3300   21.3520 C   0  0  0  0  0  0  0  0  0  0  0  0
    8.6910    1.7480   21.3040 O   0  0  0  0  0  0  0  0  0  0  0  0
    7.2800   -0.3100   21.1970 N   0  0  0  0  0  0  0  0  0  0  0  0
    6.5080    0.2240   20.1000 C   0  0  0  0  0  0  0  0  0  0  0  0
    5.3500    0.9530   20.3680 C   0  0  0  0  0  0  0  0  0  0  0  0
    4.6390    1.5000   19.3110 C   0  0  0  0  0  0  0  0  0  0  0  0
    5.1280    1.2980   17.8910 C   0  0  0  0  0  0  0  0  0  0  0  0
    6.2510    0.5680   17.6790 N   0  0  0  0  0  0  0  0  0  0  0  0
    6.9320    0.0350   18.7770 C   0  0  0  0  0  0  0  0  0  0  0  0
   11.5400    0.0070   23.0430 C   0  0  0  0  0  0  0  0  0  0  0  0
   11.8580    1.1990   22.7570 C   0  0  0  0  0  0  0  0  0  0  0  0
   12.6820    0.3300   23.5100 C   0  0  0  0  0  0  0  0  0  0  0  0
   11.4400   -0.6630   23.2550 C   0  0  0  0  0  0  0  0  0  0  0  0
   10.6790   -1.7970   23.3070 F   0  0  0  0  0  0  0  0  0  0  0  0
   12.1330   -1.6580   24.0180 C   0  0  0  0  0  0  0  0  0  0  0  0
   13.5390   -2.3420   25.0390 Br  0  0  0  0  0  0  0  0  0  0  0  0
   12.5940   -0.5170   23.8140 C   0  0  0  0  0  0  0  0  0  0  0  0
  2  1  1  6
  2  3  1  0
  3  4  1  0
  4  5  2  0
  4  6  1  0
  6  7  1  0
  7  8  2  0
  8  9  1  0
  9 10  2  0
 10 11  1  0
  7 12  1  0
 11 12  2  0
  2 13  1  0
 13 14  2  0
 14 15  1  0
 15 16  2  0
 16 17  1  0
 16 18  1  0
 18 19  1  0
 13 20  1  0
 18 20  2  0
M  END
