pyridine_urea_12226
     RDKit          3D

 22 24  0  0  0  0  0  0  0  0999 V2000
   11.3700    3.1050   23.2810 C   0  0  0  0  0  0  0  0  0  0  0  0
   11.4770    1.5890   23.2290 C   0  0  0  0  0  0  0  0  0  0  0  0
   10.4990    0.6540   23.3140 C   0  0  0  0  0  0  0  0  0  0  0  0
    9.8010   -0.5320   23.3560 C   0  0  0  0  0  0  0  0  0  0  0  0
    8.4780   -0.1060   22.8730 N   0  0  0  0  0  0  0  0  0  0  0  0
    8.2550    0.2620   21.5880 C   0  0  0  0  0  0  0  0  0  0  0  0
    8.8340    1.2480   21.1110 O   0  0  0  0  0  0  0  0  0  0  0  0
    7.3570   -0.5210   20.9490 N   0  0  0  0  0  0  0  0  0  0  0  0
    6.5610    0.1160   20.0690 C   0  0  0  0  0  0  0  0  0  0  0  0
    5.3970    0.8190   20.3840 C   0  0  0  0  0  0  0  0  0  0  0  0
    4.6890    1.4630   19.2180 C   0  0  0  0  0  0  0  0  0  0  0  0
    5.1770    1.3530   17.9330 C   0  0  0  0  0  0  0  0  0  0  0  0
    6.2940    0.6570   17.6840 N   0  0  0  0  0  0  0  0  0  0  0  0
    6.9410    0.0700   18.7270 C   0  0  0  0  0  0  0  0  0  0  0  0
   11.6400   -0.4520   23.1330 O   0  0  0  0  0  0  0  0  0  0  0  0
   13.1190   -0.3100   22.9560 C   0  0  0  0  0  0  0  0  0  0  0  0
   13.1880   -1.6650   22.8950 C   0  0  0  0  0  0  0  0  0  0  0  0
   12.0460   -2.2750   23.0160 C   0  0  0  0  0  0  0  0  0  0  0  0
   11.0510   -1.4080   23.1710 C   0  0  0  0  0  0  0  0  0  0  0  0
    9.3390   -2.2280   23.3500 Br  0  0  0  0  0  0  0  0  0  0  0  0
   11.3300    0.0380   23.1910 C   0  0  0  0  0  0  0  0  0  0  0  0
   12.5980    0.8060   23.0620 C   0  0  0  0  0  0  0  0  0  0  0  0
  1  2  1  0
  2  3  2  0
  3  4  1  0
  4  5  1  0
  5  6  1  0
  6  7  2  0
  6  8  1  0
  8  9  1  0
  9 10  2  0
 10 11  1  0
 11 12  2  0
 12 13  1  0
  9 14  1  0
 13 14  2  0
  3 15  1  0
 15 16  1  0
 16 17  1  0
 17 18  2  0
 18 19  1  0
 19 20  1  0
 19 21  2  0
  2 22  1  0
 16 22  2  0
 21 22  1  0
M  END
