pyridine_urea_10974
     RDKit          3D

 19 20  0  0  0  0  0  0  0  0999 V2000
    9.1780   -0.5530   23.7810 C   0  0  0  0  0  0  0  0  0  0  0  0
    9.7320   -1.5000   22.7210 C   0  0  1  0  0  0  0  0  0  0  0  0
    8.9840   -1.4020   21.5130 N   0  0  0  0  0  0  0  0  0  0  0  0
    8.2970   -0.2510   21.3380 C   0  0  0  0  0  0  0  0  0  0  0  0
    8.8190    0.8540   21.3790 O   0  0  0  0  0  0  0  0  0  0  0  0
    6.9850   -0.5190   21.0990 N   0  0  0  0  0  0  0  0  0  0  0  0
    6.3230    0.1520   19.9850 C   0  0  0  0  0  0  0  0  0  0  0  0
    5.1430    0.8380   20.2380 C   0  0  0  0  0  0  0  0  0  0  0  0
    4.4590    1.5540   19.1340 C   0  0  0  0  0  0  0  0  0  0  0  0
    5.1730    1.4420   17.8080 C   0  0  0  0  0  0  0  0  0  0  0  0
    6.3130    0.7460   17.6320 N   0  0  0  0  0  0  0  0  0  0  0  0
    6.8490    0.1290   18.7080 C   0  0  0  0  0  0  0  0  0  0  0  0
   11.1030   -1.0380   22.4420 C   0  0  0  0  0  0  0  0  0  0  0  0
   12.4230   -0.5730   22.5560 C   0  0  0  0  0  0  0  0  0  0  0  0
   13.1100   -0.2780   23.6730 C   0  0  0  0  0  0  0  0  0  0  0  0
   12.5770   -0.4300   24.8830 C   0  0  0  0  0  0  0  0  0  0  0  0
   11.3910   -0.8560   24.9920 N   0  0  0  0  0  0  0  0  0  0  0  0
   10.8030   -1.1040   23.8270 C   0  0  0  0  0  0  0  0  0  0  0  0
    9.5460   -1.5630   23.9440 F   0  0  0  0  0  0  0  0  0  0  0  0
  2  1  1  1
  2  3  1  0
  3  4  1  0
  4  5  2  0
  4  6  1  0
  6  7  1  0
  7  8  2  0
  8  9  1  0
  9 10  2  0
 10 11  1  0
  7 12  1  0
 11 12  2  0
  2 13  1  0
 13 14  2  0
 14 15  1  0
 15 16  2  0
 16 17  1  0
 13 18  1  0
 17 18  2  0
 18 19  1  0
M  END
