pyridine_urea_12967
     RDKit          3D

 19 19  0  0  0  0  0  0  0  0999 V2000
   12.8810   -0.6230   23.4160 C   0  0  0  0  0  0  0  0  0  0  0  0
   11.6460   -0.8340   22.5100 C   0  0  0  0  0  0  0  0  0  0  0  0
   11.9310   -2.0650   21.6250 C   0  0  0  0  0  0  0  0  0  0  0  0
   10.3120   -0.9890   23.2890 C   0  0  1  0  0  0  0  0  0  0  0  0
   10.0880    0.1030   24.1210 C   0  0  0  0  0  0  0  0  0  0  0  0
   10.6340    1.3350   23.7710 C   0  0  0  0  0  0  0  0  0  0  0  0
   10.5320    1.7420   22.5120 F   0  0  0  0  0  0  0  0  0  0  0  0
   11.9520    1.4110   24.0430 F   0  0  0  0  0  0  0  0  0  0  0  0
   10.0090    2.3160   24.4510 F   0  0  0  0  0  0  0  0  0  0  0  0
    9.1190   -1.2890   22.4540 N   0  0  0  0  0  0  0  0  0  0  0  0
    8.5870   -0.2910   21.6290 C   0  0  0  0  0  0  0  0  0  0  0  0
    9.1110    0.7930   21.4620 O   0  0  0  0  0  0  0  0  0  0  0  0
    7.4000   -0.6830   21.0420 N   0  0  0  0  0  0  0  0  0  0  0  0
    6.6090   -0.0250   20.1240 C   0  0  0  0  0  0  0  0  0  0  0  0
    5.4580    0.6960   20.4210 C   0  0  0  0  0  0  0  0  0  0  0  0
    4.7420    1.3330   19.4010 C   0  0  0  0  0  0  0  0  0  0  0  0
    5.2120    1.2290   18.0880 C   0  0  0  0  0  0  0  0  0  0  0  0
    6.3140    0.5360   17.7720 N   0  0  0  0  0  0  0  0  0  0  0  0
    6.9760   -0.0690   18.7840 C   0  0  0  0  0  0  0  0  0  0  0  0
  1  2  1  0
  2  3  1  0
  2  4  1  0
  4  5  1  6
  5  6  1  0
  6  7  1  0
  6  8  1  0
  6  9  1  0
  4 10  1  0
 10 11  1  0
 11 12  2  0
 11 13  1  0
 13 14  1  0
 14 15  2  0
 15 16  1  0
 16 17  2  0
 17 18  1  0
 14 19  1  0
 18 19  2  0
M  END
