pyridine_urea_9055
     RDKit          3D

 19 20  0  0  0  0  0  0  0  0999 V2000
   13.0770   -1.5750   25.0220 C   0  0  0  0  0  0  0  0  0  0  0  0
   12.0080   -0.7850   24.2180 C   0  0  0  0  0  0  0  0  0  0  0  0
   12.4780   -0.1030   23.0150 C   0  0  0  0  0  0  0  0  0  0  0  0
   11.3310    0.4030   22.6720 C   0  0  0  0  0  0  0  0  0  0  0  0
   11.1500   -0.6160   24.2820 Br  0  0  0  0  0  0  0  0  0  0  0  0
    9.9190    0.4970   23.0450 N   0  0  0  0  0  0  0  0  0  0  0  0
    9.3100   -0.1110   24.1950 C   0  0  0  0  0  0  0  0  0  0  0  0
   10.6230   -0.5960   24.4540 C   0  0  0  0  0  0  0  0  0  0  0  0
   10.5740    0.1160   23.2030 C   0  0  0  0  0  0  0  0  0  0  0  0
    9.5960   -0.4340   22.3060 N   0  0  0  0  0  0  0  0  0  0  0  0
    8.6630    0.2120   21.4790 C   0  0  0  0  0  0  0  0  0  0  0  0
    8.9240    1.3730   21.1310 O   0  0  0  0  0  0  0  0  0  0  0  0
    7.5340   -0.4760   21.1160 N   0  0  0  0  0  0  0  0  0  0  0  0
    6.7560    0.0800   20.1320 C   0  0  0  0  0  0  0  0  0  0  0  0
    5.6280    0.8230   20.5060 C   0  0  0  0  0  0  0  0  0  0  0  0
    4.8200    1.4140   19.5150 C   0  0  0  0  0  0  0  0  0  0  0  0
    5.2150    1.2160   18.0910 C   0  0  0  0  0  0  0  0  0  0  0  0
    6.2890    0.4990   17.7640 N   0  0  0  0  0  0  0  0  0  0  0  0
    7.0220   -0.0450   18.7720 C   0  0  0  0  0  0  0  0  0  0  0  0
  1  2  1  0
  2  3  2  0
  3  4  1  0
  4  5  1  0
  4  6  2  0
  6  7  1  0
  2  8  1  0
  7  8  2  0
  8  9  1  0
  9 10  1  0
 10 11  1  0
 11 12  2  0
 11 13  1  0
 13 14  1  0
 14 15  2  0
 15 16  1  0
 16 17  2  0
 17 18  1  0
 14 19  1  0
 18 19  2  0
M  END
