pyridine_urea_7724
     RDKit          3D

 20 22  0  0  0  0  0  0  0  0999 V2000
    8.9790    1.2640   21.2060 O   0  0  0  0  0  0  0  0  0  0  0  0
    8.5380    0.1740   21.5870 C   0  0  0  0  0  0  0  0  0  0  0  0
    9.0380   -0.5920   22.6220 N   0  0  0  0  0  0  0  0  0  0  0  0
    8.8720   -1.9800   22.7950 C   0  0  0  0  0  0  0  0  0  0  0  0
    7.9740   -2.3940   23.7860 C   0  0  2  0  0  0  0  0  0  0  0  0
    8.3370   -2.3490   25.1470 C   0  0  0  0  0  0  0  0  0  0  0  0
    8.1300   -3.7220   25.1690 C   0  0  0  0  0  0  0  0  0  0  0  0
    7.7630   -3.7430   23.8880 N   0  0  0  0  0  0  0  0  0  0  0  0
    6.6000   -4.3620   23.5870 C   0  0  0  0  0  0  0  0  0  0  0  0
    6.4050   -5.6110   24.1350 C   0  0  0  0  0  0  0  0  0  0  0  0
    5.8640   -6.4740   23.0160 C   0  0  0  0  0  0  0  0  0  0  0  0
    5.6650   -5.5990   21.9560 C   0  0  0  0  0  0  0  0  0  0  0  0
    6.3670   -4.4020   22.2050 C   0  0  0  0  0  0  0  0  0  0  0  0
    7.4260   -0.4230   21.0110 N   0  0  0  0  0  0  0  0  0  0  0  0
    6.6230    0.1590   20.0970 C   0  0  0  0  0  0  0  0  0  0  0  0
    5.4730    0.9070   20.3900 C   0  0  0  0  0  0  0  0  0  0  0  0
    4.7320    1.4780   19.3480 C   0  0  0  0  0  0  0  0  0  0  0  0
    5.1680    1.2780   18.0540 C   0  0  0  0  0  0  0  0  0  0  0  0
    6.2430    0.5720   17.6990 N   0  0  0  0  0  0  0  0  0  0  0  0
    6.9600    0.0160   18.7610 C   0  0  0  0  0  0  0  0  0  0  0  0
  1  2  2  0
  2  3  1  0
  3  4  1  0
  5  4  1  6
  5  6  1  0
  6  7  1  0
  5  8  1  0
  7  8  1  0
  8  9  1  0
  9 10  1  0
 10 11  1  0
 11 12  1  0
  9 13  1  0
 12 13  1  0
  2 14  1  0
 14 15  1  0
 15 16  2  0
 16 17  1  0
 17 18  2  0
 18 19  1  0
 15 20  1  0
 19 20  2  0
M  END
