pyridine_urea_1649
     RDKit          3D

 19 20  0  0  0  0  0  0  0  0999 V2000
   10.0650   -2.6580   23.2700 C   0  0  0  0  0  0  0  0  0  0  0  0
    8.7960   -1.9800   22.8350 C   0  0  2  0  0  0  0  0  0  0  0  0
    9.0440   -0.5570   22.6670 N   0  0  0  0  0  0  0  0  0  0  0  0
    8.5230    0.1640   21.6100 C   0  0  0  0  0  0  0  0  0  0  0  0
    9.0230    1.2340   21.2440 O   0  0  0  0  0  0  0  0  0  0  0  0
    7.4070   -0.4320   21.0630 N   0  0  0  0  0  0  0  0  0  0  0  0
    6.6420    0.1320   20.0370 C   0  0  0  0  0  0  0  0  0  0  0  0
    5.4990    0.8480   20.3560 C   0  0  0  0  0  0  0  0  0  0  0  0
    4.7430    1.4280   19.3360 C   0  0  0  0  0  0  0  0  0  0  0  0
    5.1630    1.2680   18.0300 C   0  0  0  0  0  0  0  0  0  0  0  0
    6.2560    0.5730   17.6990 N   0  0  0  0  0  0  0  0  0  0  0  0
    6.9670    0.0220   18.7050 C   0  0  0  0  0  0  0  0  0  0  0  0
    7.6400   -2.1680   23.8140 C   0  0  0  0  0  0  0  0  0  0  0  0
    7.0800   -1.2050   24.3300 O   0  0  0  0  0  0  0  0  0  0  0  0
    7.2920   -3.4670   24.0640 N   0  0  0  0  0  0  0  0  0  0  0  0
    6.1460   -3.6700   24.6920 C   0  0  0  0  0  0  0  0  0  0  0  0
    5.7000   -4.9110   24.3000 C   0  0  0  0  0  0  0  0  0  0  0  0
    6.6250   -5.3460   23.3410 C   0  0  0  0  0  0  0  0  0  0  0  0
    7.6730   -4.4270   23.1910 C   0  0  0  0  0  0  0  0  0  0  0  0
  2  1  1  1
  2  3  1  0
  3  4  1  0
  4  5  2  0
  4  6  1  0
  6  7  1  0
  7  8  2  0
  8  9  1  0
  9 10  2  0
 10 11  1  0
  7 12  1  0
 11 12  2  0
  2 13  1  0
 13 14  2  0
 13 15  1  0
 15 16  1  0
 16 17  1  0
 17 18  1  0
 15 19  1  0
 18 19  1  0
M  END
