pyridine_urea_28
     RDKit          3D

 19 20  0  0  0  0  0  0  0  0999 V2000
   12.3570    2.3700   22.8370 C   0  0  0  0  0  0  0  0  0  0  0  0
   12.6330    1.0540   22.3520 O   0  0  0  0  0  0  0  0  0  0  0  0
   12.2540    0.0460   23.2570 C   0  0  2  0  0  0  0  0  0  0  0  0
   11.3820   -1.0630   22.6030 C   0  0  0  0  0  0  0  0  0  0  0  0
    9.9800   -0.8870   22.9980 C   0  0  0  0  0  0  0  0  0  0  0  0
    9.0690   -1.1680   21.9100 N   0  0  0  0  0  0  0  0  0  0  0  0
    8.2730   -0.1900   21.3670 C   0  0  0  0  0  0  0  0  0  0  0  0
    8.6520    0.9600   21.2000 O   0  0  0  0  0  0  0  0  0  0  0  0
    7.0570   -0.6720   21.0500 N   0  0  0  0  0  0  0  0  0  0  0  0
    6.4520   -0.0380   20.0170 C   0  0  0  0  0  0  0  0  0  0  0  0
    5.2010    0.7130   20.2810 C   0  0  0  0  0  0  0  0  0  0  0  0
    4.4830    1.4070   19.3490 C   0  0  0  0  0  0  0  0  0  0  0  0
    5.2090    1.2610   18.0220 C   0  0  0  0  0  0  0  0  0  0  0  0
    6.3350    0.5860   17.7600 N   0  0  0  0  0  0  0  0  0  0  0  0
    6.9350   -0.0500   18.7510 C   0  0  0  0  0  0  0  0  0  0  0  0
    9.9940    0.5790   23.3460 C   0  0  0  0  0  0  0  0  0  0  0  0
   11.0940    0.6000   24.1550 C   0  0  1  0  0  0  0  0  0  0  0  0
   10.8280   -0.2560   25.2680 O   0  0  0  0  0  0  0  0  0  0  0  0
    9.5670   -0.0800   25.8920 C   0  0  0  0  0  0  0  0  0  0  0  0
  1  2  1  0
  3  2  1  6
  3  4  1  0
  4  5  1  0
  5  6  1  0
  6  7  1  0
  7  8  2  0
  7  9  1  0
  9 10  1  0
 10 11  2  0
 11 12  1  0
 12 13  2  0
 13 14  1  0
 10 15  1  0
 14 15  2  0
  5 16  1  0
  3 17  1  0
 16 17  1  0
 17 18  1  1
 18 19  1  0
M  END
