pyridine_urea_241
     RDKit          3D

 28 31  0  0  0  0  0  0  0  0999 V2000
    8.3130    1.3630   20.8980 O   0  0  0  0  0  0  0  0  0  0  0  0
    7.8050    0.2390   20.8060 C   0  0  0  0  0  0  0  0  0  0  0  0
    6.5070   -0.0820   20.9330 N   0  0  0  0  0  0  0  0  0  0  0  0
    5.9800    0.4960   19.8070 C   0  0  0  0  0  0  0  0  0  0  0  0
    4.7040    1.2610   19.9790 C   0  0  0  0  0  0  0  0  0  0  0  0
    4.2670    1.8760   18.7230 C   0  0  0  0  0  0  0  0  0  0  0  0
    5.0400    1.6840   17.5910 C   0  0  0  0  0  0  0  0  0  0  0  0
    6.1710    0.9620   17.5100 N   0  0  0  0  0  0  0  0  0  0  0  0
    6.6130    0.3910   18.6100 C   0  0  0  0  0  0  0  0  0  0  0  0
    8.4820   -0.8590   20.5520 N   0  0  0  0  0  0  0  0  0  0  0  0
    9.1000   -0.9970   21.7400 C   0  0  0  0  0  0  0  0  0  0  0  0
   10.3180   -1.3710   21.8500 C   0  0  0  0  0  0  0  0  0  0  0  0
   10.4740   -1.3630   23.2670 C   0  0  0  0  0  0  0  0  0  0  0  0
    9.5570   -1.0460   24.3840 C   0  0  0  0  0  0  0  0  0  0  0  0
    9.7580   -1.0930   25.7280 N   0  0  0  0  0  0  0  0  0  0  0  0
    8.7590   -1.0390   26.6540 C   0  0  0  0  0  0  0  0  0  0  0  0
    7.5230   -0.9050   26.2300 N   0  0  0  0  0  0  0  0  0  0  0  0
    6.6720   -0.5810   27.2280 C   0  0  0  0  0  0  0  0  0  0  0  0
    5.5110   -1.5980   27.4240 C   0  0  0  0  0  0  0  0  0  0  0  0
    4.8250   -0.8940   28.5870 C   0  0  0  0  0  0  0  0  0  0  0  0
    5.1930    0.3680   29.2800 C   0  0  0  0  0  0  0  0  0  0  0  0
    6.2700    1.1130   28.9400 C   0  0  0  0  0  0  0  0  0  0  0  0
    6.6180    2.2730   29.5700 O   0  0  0  0  0  0  0  0  0  0  0  0
    7.0230    0.6380   27.9000 C   0  0  0  0  0  0  0  0  0  0  0  0
    7.4090   -0.3150   25.0280 C   0  0  0  0  0  0  0  0  0  0  0  0
    6.5450    0.4930   24.6880 O   0  0  0  0  0  0  0  0  0  0  0  0
    8.3740   -0.6620   24.0800 C   0  0  0  0  0  0  0  0  0  0  0  0
    8.1110   -0.6250   22.8240 C   0  0  0  0  0  0  0  0  0  0  0  0
  1  2  2  0
  2  3  1  0
  3  4  1  0
  4  5  2  0
  5  6  1  0
  6  7  2  0
  7  8  1  0
  4  9  1  0
  8  9  2  0
  2 10  1  0
 10 11  1  0
 11 12  2  0
 12 13  1  0
 13 14  2  0
 14 15  1  0
 15 16  2  0
 16 17  1  0
 17 18  1  0
 18 19  2  0
 19 20  1  0
 20 21  2  0
 21 22  1  0
 22 23  1  0
 18 24  1  0
 22 24  2  0
 17 25  1  0
 25 26  2  0
 14 27  1  0
 25 27  1  0
 11 28  1  0
 27 28  2  0
M  END
