pyridine_urea_5446
     RDKit          3D

 18 18  0  0  0  0  0  0  0  0999 V2000
   12.9970    0.7670   22.8530 C   0  0  0  0  0  0  0  0  0  0  0  0
   12.8240   -0.6890   22.4580 C   0  0  0  0  0  0  0  0  0  0  0  0
   11.3870   -1.2940   22.4400 C   0  0  0  0  0  0  0  0  0  0  0  0
   10.3870   -0.4280   22.8610 C   0  0  1  0  0  0  0  0  0  0  0  0
    9.0540   -0.6030   22.4730 N   0  0  0  0  0  0  0  0  0  0  0  0
    8.3520    0.0250   21.4750 C   0  0  0  0  0  0  0  0  0  0  0  0
    8.7420    1.1510   21.1220 O   0  0  0  0  0  0  0  0  0  0  0  0
    7.2870   -0.6560   20.9900 N   0  0  0  0  0  0  0  0  0  0  0  0
    6.5620    0.0010   20.0660 C   0  0  0  0  0  0  0  0  0  0  0  0
    5.2770    0.8010   20.3410 C   0  0  0  0  0  0  0  0  0  0  0  0
    4.4920    1.5420   19.2590 C   0  0  0  0  0  0  0  0  0  0  0  0
    5.1910    1.3530   17.9240 C   0  0  0  0  0  0  0  0  0  0  0  0
    6.3290    0.6260   17.7440 N   0  0  0  0  0  0  0  0  0  0  0  0
    6.9970   -0.0340   18.7630 C   0  0  0  0  0  0  0  0  0  0  0  0
   10.6440   -0.3640   24.3590 C   0  0  0  0  0  0  0  0  0  0  0  0
   10.4750   -0.3060   25.5610 O   0  0  0  0  0  0  0  0  0  0  0  0
    9.2800   -0.3340   24.2400 O   0  0  0  0  0  0  0  0  0  0  0  0
    8.6210    0.2420   25.3810 C   0  0  0  0  0  0  0  0  0  0  0  0
  1  2  2  3
  2  3  1  0
  4  3  1  1
  4  5  1  0
  5  6  1  0
  6  7  2  0
  6  8  1  0
  8  9  1  0
  9 10  2  0
 10 11  1  0
 11 12  2  0
 12 13  1  0
  9 14  1  0
 13 14  2  0
  4 15  1  0
 15 16  2  0
 15 17  1  0
 17 18  1  0
M  END
