pyridine_urea_2769
     RDKit          3D

 22 23  0  0  0  0  0  0  0  0999 V2000
   13.3580   -2.7830   24.4340 C   0  0  0  0  0  0  0  0  0  0  0  0
   12.0970   -2.0320   24.0350 C   0  0  0  0  0  0  0  0  0  0  0  0
   10.8640   -2.9590   23.9530 C   0  0  0  0  0  0  0  0  0  0  0  0
   12.1970   -1.5650   22.7050 O   0  0  0  0  0  0  0  0  0  0  0  0
   11.7740   -0.3030   22.7190 C   0  0  0  0  0  0  0  0  0  0  0  0
   12.8260    0.8150   22.8500 C   0  0  0  0  0  0  0  0  0  0  0  0
   12.3820    2.1400   22.8830 C   0  0  0  0  0  0  0  0  0  0  0  0
   13.1070    3.4850   22.9510 C   0  0  0  0  0  0  0  0  0  0  0  0
   13.5980    4.5350   22.9850 N   0  0  0  0  0  0  0  0  0  0  0  0
   10.9130    2.4800   22.8310 C   0  0  0  0  0  0  0  0  0  0  0  0
    9.9060    1.4070   22.7010 C   0  0  0  0  0  0  0  0  0  0  0  0
   10.3820   -0.0120   22.6240 C   0  0  0  0  0  0  0  0  0  0  0  0
    9.2990   -0.8900   22.4340 N   0  0  0  0  0  0  0  0  0  0  0  0
    8.3520   -0.3120   21.5330 C   0  0  0  0  0  0  0  0  0  0  0  0
    8.4870    0.7970   21.0340 O   0  0  0  0  0  0  0  0  0  0  0  0
    7.2320   -0.9680   21.1790 N   0  0  0  0  0  0  0  0  0  0  0  0
    6.5740   -0.2920   20.1770 C   0  0  0  0  0  0  0  0  0  0  0  0
    5.4060    0.4330   20.4740 C   0  0  0  0  0  0  0  0  0  0  0  0
    4.7230    1.1470   19.4660 C   0  0  0  0  0  0  0  0  0  0  0  0
    5.1940    1.1460   18.1570 C   0  0  0  0  0  0  0  0  0  0  0  0
    6.2940    0.4790   17.7880 N   0  0  0  0  0  0  0  0  0  0  0  0
    6.9880   -0.2580   18.8550 C   0  0  0  0  0  0  0  0  0  0  0  0
  1  2  1  0
  2  3  1  0
  2  4  1  0
  4  5  1  0
  5  6  2  0
  6  7  1  0
  7  8  1  0
  8  9  3  0
  7 10  2  0
 10 11  1  0
  5 12  1  0
 11 12  2  0
 12 13  1  0
 13 14  1  0
 14 15  2  0
 14 16  1  0
 16 17  1  0
 17 18  2  0
 18 19  1  0
 19 20  2  0
 20 21  1  0
 17 22  1  0
 21 22  2  0
M  END
