pyridine_urea_11690
     RDKit          3D

 27 29  0  0  0  0  0  0  0  0999 V2000
    8.7080    0.5510   21.2600 O   0  0  0  0  0  0  0  0  0  0  0  0
    8.2010   -0.5380   21.5070 C   0  0  0  0  0  0  0  0  0  0  0  0
    7.0100   -0.9490   20.9840 N   0  0  0  0  0  0  0  0  0  0  0  0
    6.3850   -0.1980   19.9760 C   0  0  0  0  0  0  0  0  0  0  0  0
    5.1870    0.4710   20.2400 C   0  0  0  0  0  0  0  0  0  0  0  0
    4.5760    1.2300   19.2380 C   0  0  0  0  0  0  0  0  0  0  0  0
    5.1910    1.2920   18.0030 C   0  0  0  0  0  0  0  0  0  0  0  0
    6.3410    0.6530   17.7300 N   0  0  0  0  0  0  0  0  0  0  0  0
    6.9070   -0.0730   18.7110 C   0  0  0  0  0  0  0  0  0  0  0  0
    8.8230   -1.4200   22.3660 N   0  0  0  0  0  0  0  0  0  0  0  0
    9.8680   -0.7300   23.0870 C   0  0  1  0  0  0  0  0  0  0  0  0
   10.2750   -1.2920   24.3920 C   0  0  0  0  0  0  0  0  0  0  0  0
   10.8100   -0.2370   25.0700 C   0  0  0  0  0  0  0  0  0  0  0  0
   12.0860    0.0350   24.5850 C   0  0  0  0  0  0  0  0  0  0  0  0
   12.0670    1.2470   23.9420 C   0  0  0  0  0  0  0  0  0  0  0  0
   11.6920    1.0900   22.7010 C   0  0  0  0  0  0  0  0  0  0  0  0
   10.8700    0.0370   22.4650 C   0  0  1  0  0  0  0  0  0  0  0  0
   11.7910   -1.1900   22.5000 C   0  0  0  0  0  0  0  0  0  0  0  0
   11.7610   -1.8330   21.2380 C   0  0  0  0  0  0  0  0  0  0  0  0
   12.5000   -2.8770   20.8490 C   0  0  0  0  0  0  0  0  0  0  0  0
   13.3580   -3.3690   21.7480 C   0  0  0  0  0  0  0  0  0  0  0  0
   13.4330   -2.8510   23.0300 C   0  0  0  0  0  0  0  0  0  0  0  0
   12.6620   -1.7910   23.4280 C   0  0  0  0  0  0  0  0  0  0  0  0
   12.8490   -1.4390   24.7100 C   0  0  0  0  0  0  0  0  0  0  0  0
   11.7430   -1.8000   25.3710 F   0  0  0  0  0  0  0  0  0  0  0  0
   13.8340   -2.1380   25.3380 F   0  0  0  0  0  0  0  0  0  0  0  0
   12.9920   -0.1360   24.9120 F   0  0  0  0  0  0  0  0  0  0  0  0
  1  2  2  0
  2  3  1  0
  3  4  1  0
  4  5  2  0
  5  6  1  0
  6  7  2  0
  7  8  1  0
  4  9  1  0
  8  9  2  0
  2 10  1  0
 11 10  1  6
 11 12  1  0
 12 13  1  0
 13 14  1  0
 14 15  1  0
 15 16  1  0
 11 17  1  0
 16 17  1  0
 17 18  1  1
 18 19  2  0
 19 20  1  0
 20 21  2  0
 21 22  1  0
 18 23  1  0
 22 23  2  0
 23 24  1  0
 24 25  1  0
 24 26  1  0
 24 27  1  0
M  END
