pyridine_urea_12847
     RDKit          3D

 21 23  0  0  0  0  0  0  0  0999 V2000
    8.3370    0.8040   22.8770 O   0  0  0  0  0  0  0  0  0  0  0  0
    8.3070   -0.0710   22.0540 C   0  0  0  0  0  0  0  0  0  0  0  0
    9.1900   -1.0980   22.1280 N   0  0  0  0  0  0  0  0  0  0  0  0
   10.4960   -0.5810   22.4210 C   0  0  0  0  0  0  0  0  0  0  0  0
   11.6870   -1.5060   22.1710 C   0  0  0  0  0  0  0  0  0  0  0  0
   12.9730   -1.0540   22.4200 C   0  0  0  0  0  0  0  0  0  0  0  0
   13.1270    0.2460   22.8890 C   0  0  0  0  0  0  0  0  0  0  0  0
   12.0530    1.0440   23.1020 N   0  0  0  0  0  0  0  0  0  0  0  0
   10.7310    0.6630   22.8860 C   0  0  0  0  0  0  0  0  0  0  0  0
    7.4640   -0.0330   20.9990 N   0  0  0  0  0  0  0  0  0  0  0  0
    6.6600    0.2720   19.9720 C   0  0  0  0  0  0  0  0  0  0  0  0
    6.9620   -0.1030   18.6840 C   0  0  0  0  0  0  0  0  0  0  0  0
    6.1400    0.2750   17.7280 N   0  0  0  0  0  0  0  0  0  0  0  0
    5.0270    1.0160   18.0980 C   0  0  0  0  0  0  0  0  0  0  0  0
    4.6610    1.4010   19.3310 N   0  0  0  0  0  0  0  0  0  0  0  0
    5.5200    1.0040   20.2550 C   0  0  0  0  0  0  0  0  0  0  0  0
    5.1670    1.3950   21.4700 N   0  0  0  0  0  0  0  0  0  0  0  0
    4.1520    0.4810   22.0230 C   0  0  0  0  0  0  0  0  0  0  0  0
    2.9270    1.2960   21.8160 C   0  0  0  0  0  0  0  0  0  0  0  0
    3.2230    2.5300   21.2960 C   0  0  0  0  0  0  0  0  0  0  0  0
    4.6470    2.6760   21.4810 C   0  0  0  0  0  0  0  0  0  0  0  0
  1  2  2  0
  2  3  1  0
  3  4  1  0
  4  5  2  0
  5  6  1  0
  6  7  2  0
  7  8  1  0
  4  9  1  0
  8  9  2  0
  2 10  1  0
 10 11  1  0
 11 12  2  0
 12 13  1  0
 13 14  2  0
 14 15  1  0
 11 16  1  0
 15 16  2  0
 16 17  1  0
 17 18  1  0
 18 19  1  0
 19 20  1  0
 17 21  1  0
 20 21  1  0
M  END
