pyridine_urea_6917
     RDKit          3D

 21 22  0  0  0  0  0  0  0  0999 V2000
   12.1690    4.3320   22.3580 C   0  0  0  0  0  0  0  0  0  0  0  0
   10.8570    3.8870   22.2610 N   0  0  0  0  0  0  0  0  0  0  0  0
   10.3610    2.6920   22.8480 C   0  0  0  0  0  0  0  0  0  0  0  0
    9.0650    2.5600   23.4290 O   0  0  0  0  0  0  0  0  0  0  0  0
   11.1500    1.5430   22.8990 C   0  0  0  0  0  0  0  0  0  0  0  0
   12.4890    1.5950   22.8660 C   0  0  0  0  0  0  0  0  0  0  0  0
   13.1350    0.4460   22.9040 C   0  0  0  0  0  0  0  0  0  0  0  0
   12.6130   -0.8160   22.9850 C   0  0  0  0  0  0  0  0  0  0  0  0
   11.1370   -1.3100   23.0670 C   0  0  0  0  0  0  0  0  0  0  0  0
    9.7590   -1.3450   23.1230 C   0  0  0  0  0  0  0  0  0  0  0  0
    9.1630   -1.5690   21.8250 N   0  0  0  0  0  0  0  0  0  0  0  0
    8.3880   -0.3950   21.3830 C   0  0  0  0  0  0  0  0  0  0  0  0
    8.8780    0.9520   21.3060 O   0  0  0  0  0  0  0  0  0  0  0  0
    7.1090   -0.7430   21.0290 N   0  0  0  0  0  0  0  0  0  0  0  0
    6.3770   -0.0300   20.0750 C   0  0  0  0  0  0  0  0  0  0  0  0
    5.1880    0.6670   20.3030 C   0  0  0  0  0  0  0  0  0  0  0  0
    4.5350    1.3950   19.1830 C   0  0  0  0  0  0  0  0  0  0  0  0
    5.1690    1.3310   17.9460 C   0  0  0  0  0  0  0  0  0  0  0  0
    6.3050    0.6610   17.7090 N   0  0  0  0  0  0  0  0  0  0  0  0
    6.8910   -0.0120   18.7860 C   0  0  0  0  0  0  0  0  0  0  0  0
   10.5140    0.1570   23.0020 C   0  0  0  0  0  0  0  0  0  0  0  0
  1  2  1  0
  2  3  1  0
  3  4  2  0
  3  5  1  0
  5  6  2  0
  6  7  1  0
  7  8  2  0
  8  9  1  0
  9 10  1  0
 10 11  1  0
 11 12  1  0
 12 13  2  0
 12 14  1  0
 14 15  1  0
 15 16  2  0
 16 17  1  0
 17 18  2  0
 18 19  1  0
 15 20  1  0
 19 20  2  0
  5 21  1  0
  9 21  2  0
M  END
