pyridine_urea_8915
     RDKit          3D

 20 21  0  0  0  0  0  0  0  0999 V2000
    8.5950    1.3060   21.0160 O   0  0  0  0  0  0  0  0  0  0  0  0
    8.5610    0.1250   21.3830 C   0  0  0  0  0  0  0  0  0  0  0  0
    7.4490   -0.6270   21.0940 N   0  0  0  0  0  0  0  0  0  0  0  0
    6.7010   -0.0520   20.0030 C   0  0  0  0  0  0  0  0  0  0  0  0
    5.4460    0.7620   20.3720 C   0  0  0  0  0  0  0  0  0  0  0  0
    4.6850    1.3750   19.3770 C   0  0  0  0  0  0  0  0  0  0  0  0
    5.1000    1.2200   18.0610 C   0  0  0  0  0  0  0  0  0  0  0  0
    6.2160    0.4780   17.7730 N   0  0  0  0  0  0  0  0  0  0  0  0
    7.0260   -0.1640   18.7150 C   0  0  0  0  0  0  0  0  0  0  0  0
    9.6070   -0.4930   22.0420 N   0  0  0  0  0  0  0  0  0  0  0  0
   10.7700   -0.9370   22.6210 C   0  0  2  0  0  0  0  0  0  0  0  0
   11.5600   -1.8860   22.0180 C   0  0  0  0  0  0  0  0  0  0  0  0
   12.9160   -1.6060   22.1190 C   0  0  0  0  0  0  0  0  0  0  0  0
   13.4910   -2.1790   23.2590 O   0  0  0  0  0  0  0  0  0  0  0  0
   10.7010   -1.1220   23.9820 C   0  0  0  0  0  0  0  0  0  0  0  0
    9.5140   -0.6690   24.5290 C   0  0  0  0  0  0  0  0  0  0  0  0
    9.2230    0.7500   24.1420 C   0  0  0  0  0  0  0  0  0  0  0  0
   10.3590    1.3700   23.4620 O   0  0  0  0  0  0  0  0  0  0  0  0
   11.6790    0.8340   23.7420 C   0  0  0  0  0  0  0  0  0  0  0  0
   11.7530   -0.3830   24.4250 C   0  0  0  0  0  0  0  0  0  0  0  0
  1  2  2  0
  2  3  1  0
  3  4  1  0
  4  5  2  0
  5  6  1  0
  6  7  2  0
  7  8  1  0
  4  9  1  0
  8  9  2  0
  2 10  1  0
 10 11  1  0
 11 12  1  6
 12 13  1  0
 13 14  1  0
 11 15  1  0
 15 16  1  0
 16 17  1  0
 17 18  1  0
 18 19  1  0
 15 20  1  0
 19 20  1  0
M  END
