pyridine_urea_11991
     RDKit          3D

 24 26  0  0  0  0  0  0  0  0999 V2000
    9.0250    1.1130   21.2660 O   0  0  0  0  0  0  0  0  0  0  0  0
    8.4650    0.0480   21.5560 C   0  0  0  0  0  0  0  0  0  0  0  0
    8.8740   -0.8800   22.4960 N   0  0  0  0  0  0  0  0  0  0  0  0
    8.6500   -2.2840   22.4630 C   0  0  0  0  0  0  0  0  0  0  0  0
    7.3210   -2.7550   22.4140 C   0  0  0  0  0  0  0  0  0  0  0  0
    7.1400   -4.1190   22.5840 N   0  0  0  0  0  0  0  0  0  0  0  0
    6.1500   -4.9870   21.9550 C   0  0  0  0  0  0  0  0  0  0  0  0
    4.9620   -4.9950   22.6670 C   0  0  0  0  0  0  0  0  0  0  0  0
    5.0780   -5.4290   23.9460 N   0  0  0  0  0  0  0  0  0  0  0  0
    3.9240   -5.5290   24.6400 C   0  0  0  0  0  0  0  0  0  0  0  0
    3.8850   -6.2600   25.6180 O   0  0  0  0  0  0  0  0  0  0  0  0
    2.7860   -4.8100   24.2560 C   0  0  0  0  0  0  0  0  0  0  0  0
    2.3950   -3.7690   25.2170 C   0  0  0  0  0  0  0  0  0  0  0  0
    1.1580   -4.4220   25.2140 C   0  0  0  0  0  0  0  0  0  0  0  0
    1.4650   -5.5230   24.3080 C   0  0  0  0  0  0  0  0  0  0  0  0
    6.0960   -4.8930   24.6610 C   0  0  0  0  0  0  0  0  0  0  0  0
    7.1970   -4.4740   23.9250 C   0  0  0  0  0  0  0  0  0  0  0  0
    7.2850   -0.3930   20.9830 N   0  0  0  0  0  0  0  0  0  0  0  0
    6.4490    0.1950   20.0840 C   0  0  0  0  0  0  0  0  0  0  0  0
    5.2410    0.9040   20.3530 C   0  0  0  0  0  0  0  0  0  0  0  0
    4.5980    1.3990   19.2390 C   0  0  0  0  0  0  0  0  0  0  0  0
    5.3000    1.0740   18.1460 C   0  0  0  0  0  0  0  0  0  0  0  0
    6.1810    0.5820   17.6680 N   0  0  0  0  0  0  0  0  0  0  0  0
    6.8600    0.0690   18.7250 C   0  0  0  0  0  0  0  0  0  0  0  0
  1  2  2  0
  2  3  1  0
  3  4  1  0
  4  5  1  0
  5  6  1  0
  6  7  1  0
  7  8  1  0
  8  9  1  0
  9 10  1  0
 10 11  2  0
 10 12  1  0
 12 13  1  0
 13 14  1  0
 12 15  1  0
 14 15  1  0
  9 16  1  0
  6 17  1  0
 16 17  1  0
  2 18  1  0
 18 19  1  0
 19 20  2  0
 20 21  1  0
 21 22  2  0
 22 23  1  0
 19 24  1  0
 23 24  2  0
M  END
