pyridine_urea_748
     RDKit          3D

 23 24  0  0  0  0  0  0  0  0999 V2000
   10.4720   -0.8030   23.9370 C   0  0  0  0  0  0  0  0  0  0  0  0
   11.9520   -0.5530   23.7000 C   0  0  0  0  0  0  0  0  0  0  0  0
   12.8710   -1.3410   23.9320 C   0  0  0  0  0  0  0  0  0  0  0  0
   13.0580   -0.0230   23.3880 C   0  0  0  0  0  0  0  0  0  0  0  0
   11.5440    0.1130   23.4040 C   0  0  0  0  0  0  0  0  0  0  0  0
   10.2810    0.7140   23.2240 C   0  0  0  0  0  0  0  0  0  0  0  0
    9.4290   -0.2200   22.4440 N   0  0  0  0  0  0  0  0  0  0  0  0
    8.5370    0.2950   21.5330 C   0  0  0  0  0  0  0  0  0  0  0  0
    8.6370    1.4060   21.0140 O   0  0  0  0  0  0  0  0  0  0  0  0
    7.3960   -0.5910   21.2080 N   0  0  0  0  0  0  0  0  0  0  0  0
    6.6550    0.0120   20.1120 C   0  0  0  0  0  0  0  0  0  0  0  0
    5.5140    0.7610   20.3970 C   0  0  0  0  0  0  0  0  0  0  0  0
    4.7740    1.3730   19.4020 C   0  0  0  0  0  0  0  0  0  0  0  0
    5.1410    1.2710   18.0750 C   0  0  0  0  0  0  0  0  0  0  0  0
    6.2190    0.5670   17.6900 N   0  0  0  0  0  0  0  0  0  0  0  0
    6.9810   -0.0760   18.7730 C   0  0  0  0  0  0  0  0  0  0  0  0
   11.6980    1.4730   22.9080 C   0  0  0  0  0  0  0  0  0  0  0  0
   12.4890    2.3720   22.5550 O   0  0  0  0  0  0  0  0  0  0  0  0
   12.0380    3.7570   22.5740 C   0  0  0  0  0  0  0  0  0  0  0  0
   12.3350    4.3590   21.3600 C   0  0  0  0  0  0  0  0  0  0  0  0
   10.7750    3.9150   23.1620 C   0  0  0  0  0  0  0  0  0  0  0  0
   13.0040    4.7060   23.2770 C   0  0  0  0  0  0  0  0  0  0  0  0
   12.6510    0.6980   23.1500 C   0  0  0  0  0  0  0  0  0  0  0  0
  1  2  1  0
  2  3  2  0
  3  4  1  0
  4  5  2  0
  5  6  1  0
  6  7  1  0
  7  8  1  0
  8  9  2  0
  8 10  1  0
 10 11  1  0
 11 12  2  0
 12 13  1  0
 13 14  2  0
 14 15  1  0
 11 16  1  0
 15 16  2  0
  5 17  1  0
 17 18  1  0
 19 18  1  0
 19 20  1  0
 19 21  1  0
 19 22  1  0
  2 23  1  0
 17 23  2  0
M  END
