pyridine_urea_1212
     RDKit          3D

 21 21  0  0  0  0  0  0  0  0999 V2000
   12.9600   -1.7030   22.2170 C   0  0  0  0  0  0  0  0  0  0  0  0
   12.3810   -0.3060   22.5410 C   0  0  0  0  0  0  0  0  0  0  0  0
   12.6930    0.2030   23.9310 C   0  0  0  0  0  0  0  0  0  0  0  0
   10.8630   -0.2730   22.2720 C   0  0  0  0  0  0  0  0  0  0  0  0
   10.0590   -0.9350   23.1630 C   0  0  2  0  0  0  0  0  0  0  0  0
    8.8390   -1.2620   22.4480 N   0  0  0  0  0  0  0  0  0  0  0  0
    8.3050   -0.3210   21.5840 C   0  0  0  0  0  0  0  0  0  0  0  0
    8.8860    0.8970   21.3530 O   0  0  0  0  0  0  0  0  0  0  0  0
    7.1330   -0.7690   21.0200 N   0  0  0  0  0  0  0  0  0  0  0  0
    6.4290   -0.0540   20.0440 C   0  0  0  0  0  0  0  0  0  0  0  0
    5.2410    0.6740   20.2470 C   0  0  0  0  0  0  0  0  0  0  0  0
    4.6270    1.3650   19.2080 C   0  0  0  0  0  0  0  0  0  0  0  0
    5.1730    1.3560   17.9360 C   0  0  0  0  0  0  0  0  0  0  0  0
    6.3230    0.6470   17.7250 N   0  0  0  0  0  0  0  0  0  0  0  0
    6.9430   -0.0500   18.7610 C   0  0  0  0  0  0  0  0  0  0  0  0
    9.9390   -0.3390   24.4180 C   0  0  0  0  0  0  0  0  0  0  0  0
   10.2700    0.8330   24.5870 O   0  0  0  0  0  0  0  0  0  0  0  0
    9.4400   -1.0760   25.4460 N   0  0  0  0  0  0  0  0  0  0  0  0
    9.0240   -0.4150   26.5550 C   0  0  0  0  0  0  0  0  0  0  0  0
    8.2600   -1.1990   27.4700 C   0  0  0  0  0  0  0  0  0  0  0  0
    7.8510   -2.4520   26.9140 O   0  0  0  0  0  0  0  0  0  0  0  0
  1  2  1  0
  2  3  1  0
  2  4  1  0
  5  4  1  6
  5  6  1  0
  6  7  1  0
  7  8  2  0
  7  9  1  0
  9 10  1  0
 10 11  2  0
 11 12  1  0
 12 13  2  0
 13 14  1  0
 10 15  1  0
 14 15  2  0
  5 16  1  0
 16 17  2  0
 16 18  1  0
 18 19  1  0
 19 20  1  0
 20 21  1  0
M  END
