pyridine_urea_1945
     RDKit          3D

 17 19  0  0  0  0  0  0  0  0999 V2000
    9.0080    0.8260   21.4480 O   0  0  0  0  0  0  0  0  0  0  0  0
    8.5500   -0.3070   21.3840 C   0  0  0  0  0  0  0  0  0  0  0  0
    7.2540   -0.6390   21.0570 N   0  0  0  0  0  0  0  0  0  0  0  0
    6.4690    0.0380   20.1140 C   0  0  0  0  0  0  0  0  0  0  0  0
    5.1610    0.7750   20.4400 C   0  0  0  0  0  0  0  0  0  0  0  0
    4.5080    1.4510   19.2350 C   0  0  0  0  0  0  0  0  0  0  0  0
    5.1940    1.3230   17.9130 C   0  0  0  0  0  0  0  0  0  0  0  0
    6.3380    0.6430   17.7420 N   0  0  0  0  0  0  0  0  0  0  0  0
    6.9190    0.0410   18.8010 C   0  0  0  0  0  0  0  0  0  0  0  0
    9.2960   -1.4370   21.6080 N   0  0  0  0  0  0  0  0  0  0  0  0
   10.3710   -1.5460   22.5620 C   0  0  2  0  0  0  0  0  0  0  0  0
   10.4920   -0.6460   23.4230 C   0  0  0  0  0  0  0  0  0  0  0  0
   10.8010   -1.0720   24.6600 F   0  0  0  0  0  0  0  0  0  0  0  0
    9.7200    0.4710   23.4170 F   0  0  0  0  0  0  0  0  0  0  0  0
   11.6290   -0.4480   22.6210 C   0  0  0  0  0  0  0  0  0  0  0  0
   12.5790   -0.4410   23.4770 C   0  0  0  0  0  0  0  0  0  0  0  0
   13.1510   -0.8580   22.2610 C   0  0  0  0  0  0  0  0  0  0  0  0
  1  2  2  0
  2  3  1  0
  3  4  1  0
  4  5  2  0
  5  6  1  0
  6  7  2  0
  7  8  1  0
  4  9  1  0
  8  9  2  0
  2 10  1  0
 11 10  1  6
 11 12  1  0
 12 13  1  0
 12 14  1  0
 11 15  1  0
 12 15  1  0
 15 16  1  0
 15 17  1  0
 16 17  1  0
M  END
