pyridine_urea_8322
     RDKit          3D

 22 24  0  0  0  0  0  0  0  0999 V2000
    9.8560   -3.2320   23.7010 C   0  0  0  0  0  0  0  0  0  0  0  0
    9.6030   -1.8050   24.1000 C   0  0  1  0  0  0  0  0  0  0  0  0
   10.7880   -1.1450   24.6940 C   0  0  0  0  0  0  0  0  0  0  0  0
   11.9960   -1.4350   24.2630 C   0  0  0  0  0  0  0  0  0  0  0  0
   12.9570   -1.7370   23.3050 C   0  0  0  0  0  0  0  0  0  0  0  0
   12.2720   -1.7010   22.2550 C   0  0  0  0  0  0  0  0  0  0  0  0
   10.7210   -1.2430   22.2080 C   0  0  2  0  0  0  0  0  0  0  0  0
   10.8490    0.1900   22.8200 C   0  0  0  0  0  0  0  0  0  0  0  0
    9.5060   -1.1870   22.3240 N   0  0  0  0  0  0  0  0  0  0  0  0
    8.7240   -0.2410   21.6110 C   0  0  0  0  0  0  0  0  0  0  0  0
    9.0560    0.9340   21.4770 O   0  0  0  0  0  0  0  0  0  0  0  0
    7.5110   -0.7690   21.0790 N   0  0  0  0  0  0  0  0  0  0  0  0
    6.7530   -0.1260   20.1040 C   0  0  0  0  0  0  0  0  0  0  0  0
    5.5140    0.6920   20.5040 C   0  0  0  0  0  0  0  0  0  0  0  0
    4.7280    1.3890   19.3870 C   0  0  0  0  0  0  0  0  0  0  0  0
    5.1720    1.2540   18.0830 C   0  0  0  0  0  0  0  0  0  0  0  0
    6.2760    0.5090   17.7900 N   0  0  0  0  0  0  0  0  0  0  0  0
    7.0420   -0.1590   18.7500 C   0  0  0  0  0  0  0  0  0  0  0  0
   12.6920   -1.9740   21.1110 C   0  0  0  0  0  0  0  0  0  0  0  0
   11.4160   -1.6540   21.5590 C   0  0  0  0  0  0  0  0  0  0  0  0
   11.1050   -1.4180   23.0050 C   0  0  0  0  0  0  0  0  0  0  0  0
    9.8600   -1.1770   23.1550 O   0  0  0  0  0  0  0  0  0  0  0  0
  2  1  1  6
  2  3  1  0
  3  4  1  0
  4  5  2  0
  5  6  1  0
  6  7  1  0
  7  8  1  1
  7  9  1  0
  9 10  1  0
 10 11  2  0
 10 12  1  0
 12 13  1  0
 13 14  2  0
 14 15  1  0
 15 16  2  0
 16 17  1  0
 13 18  1  0
 17 18  2  0
  6 19  2  0
 19 20  1  0
  4 21  1  0
 20 21  2  0
  2 22  1  0
 21 22  1  0
M  END
