pyridine_urea_14239
     RDKit          3D

 22 23  0  0  0  0  0  0  0  0999 V2000
    8.8090    1.2450   21.1720 O   0  0  0  0  0  0  0  0  0  0  0  0
    8.3770    0.1250   21.4980 C   0  0  0  0  0  0  0  0  0  0  0  0
    9.0910   -0.7220   22.4360 N   0  0  0  0  0  0  0  0  0  0  0  0
   10.4830   -0.6370   22.3270 C   0  0  0  0  0  0  0  0  0  0  0  0
   11.3670   -0.6960   23.4540 C   0  0  0  0  0  0  0  0  0  0  0  0
   11.3070    0.5010   24.2050 C   0  0  0  0  0  0  0  0  0  0  0  0
   12.5400    0.6780   23.4640 C   0  0  0  0  0  0  0  0  0  0  0  0
   12.8240   -0.5150   22.6000 C   0  0  0  0  0  0  0  0  0  0  0  0
   11.6680   -1.4300   22.8700 C   0  0  0  0  0  0  0  0  0  0  0  0
   11.8120   -0.1320   23.5660 N   0  0  0  0  0  0  0  0  0  0  0  0
   12.5430   -0.2520   24.7760 O   0  0  0  0  0  0  0  0  0  0  0  0
   11.8990    0.8880   22.8360 O   0  0  0  0  0  0  0  0  0  0  0  0
   10.3780   -1.4790   23.7270 C   0  0  0  0  0  0  0  0  0  0  0  0
   10.1960   -0.3310   24.4950 C   0  0  0  0  0  0  0  0  0  0  0  0
    8.7440   -0.0050   25.6600 Br  0  0  0  0  0  0  0  0  0  0  0  0
    7.2150   -0.4520   21.0480 N   0  0  0  0  0  0  0  0  0  0  0  0
    6.4960    0.1270   20.0100 C   0  0  0  0  0  0  0  0  0  0  0  0
    5.3350    0.8440   20.3120 C   0  0  0  0  0  0  0  0  0  0  0  0
    4.6520    1.4310   19.2650 C   0  0  0  0  0  0  0  0  0  0  0  0
    5.1320    1.2880   17.9920 C   0  0  0  0  0  0  0  0  0  0  0  0
    6.2280    0.6040   17.6700 N   0  0  0  0  0  0  0  0  0  0  0  0
    6.8910    0.0330   18.6930 C   0  0  0  0  0  0  0  0  0  0  0  0
  1  2  2  0
  2  3  1  0
  3  4  1  0
  4  5  1  0
  5  6  1  0
  6  7  2  0
  7  8  1  0
  8  9  2  0
  9 10  1  0
 10 11  2  0
 10 12  1  0
  9 13  1  0
  6 14  1  0
 13 14  2  0
 14 15  1  0
  2 16  1  0
 16 17  1  0
 17 18  2  0
 18 19  1  0
 19 20  2  0
 20 21  1  0
 17 22  1  0
 21 22  2  0
M  CHG  2  10   1  12  -1
M  END
