pyridine_urea_8083
     RDKit          3D

 24 26  0  0  0  0  0  0  0  0999 V2000
    8.5770    0.9660   21.1950 O   0  0  0  0  0  0  0  0  0  0  0  0
    8.3080   -0.1710   21.5540 C   0  0  0  0  0  0  0  0  0  0  0  0
    7.1690   -0.8050   21.1050 N   0  0  0  0  0  0  0  0  0  0  0  0
    6.4650   -0.0930   20.0560 C   0  0  0  0  0  0  0  0  0  0  0  0
    5.1420    0.6730   20.3820 C   0  0  0  0  0  0  0  0  0  0  0  0
    4.5230    1.3490   19.3350 C   0  0  0  0  0  0  0  0  0  0  0  0
    5.2020    1.2760   17.9620 C   0  0  0  0  0  0  0  0  0  0  0  0
    6.3440    0.5940   17.7390 N   0  0  0  0  0  0  0  0  0  0  0  0
    6.9360   -0.0620   18.7610 C   0  0  0  0  0  0  0  0  0  0  0  0
    9.0620   -0.9310   22.4070 N   0  0  0  0  0  0  0  0  0  0  0  0
   10.4190   -0.4330   22.5690 C   0  0  0  0  0  0  0  0  0  0  0  0
   11.5260   -1.4430   22.3320 C   0  0  0  0  0  0  0  0  0  0  0  0
   12.9430   -0.9130   22.4930 C   0  0  0  0  0  0  0  0  0  0  0  0
   13.1200    0.5600   22.8620 C   0  0  0  0  0  0  0  0  0  0  0  0
   11.8990    1.4330   23.0590 C   0  0  0  0  0  0  0  0  0  0  0  0
   11.9310    2.6280   23.3580 O   0  0  0  0  0  0  0  0  0  0  0  0
   11.2230    3.6630   22.6450 C   0  0  0  0  0  0  0  0  0  0  0  0
   10.9740    4.7050   23.5520 C   0  0  0  0  0  0  0  0  0  0  0  0
   12.0800    5.5360   23.7250 C   0  0  0  0  0  0  0  0  0  0  0  0
   11.8320    6.4730   24.7270 C   0  0  0  0  0  0  0  0  0  0  0  0
   10.4590    6.3740   25.1390 O   0  0  0  0  0  0  0  0  0  0  0  0
    9.5400    6.3560   24.0400 C   0  0  0  0  0  0  0  0  0  0  0  0
    9.9410    5.4710   23.0220 C   0  0  0  0  0  0  0  0  0  0  0  0
   10.6260    0.9000   22.9090 C   0  0  0  0  0  0  0  0  0  0  0  0
  1  2  2  0
  2  3  1  0
  3  4  1  0
  4  5  2  0
  5  6  1  0
  6  7  2  0
  7  8  1  0
  4  9  1  0
  8  9  2  0
  2 10  1  0
 10 11  1  0
 11 12  2  0
 12 13  1  0
 13 14  2  0
 14 15  1  0
 15 16  1  0
 16 17  1  0
 17 18  1  0
 18 19  1  0
 19 20  1  0
 20 21  1  0
 21 22  1  0
 18 23  1  0
 22 23  1  0
 11 24  1  0
 15 24  2  0
M  END
