pyridine_urea_10314
     RDKit          3D

 22 24  0  0  0  0  0  0  0  0999 V2000
    9.0720    1.4300   20.9850 O   0  0  0  0  0  0  0  0  0  0  0  0
    8.5640    0.3270   21.3190 C   0  0  0  0  0  0  0  0  0  0  0  0
    7.4810   -0.2900   20.7240 N   0  0  0  0  0  0  0  0  0  0  0  0
    6.5840    0.3140   19.8490 C   0  0  0  0  0  0  0  0  0  0  0  0
    5.3930    0.9830   20.1970 C   0  0  0  0  0  0  0  0  0  0  0  0
    4.6170    1.5280   19.1880 C   0  0  0  0  0  0  0  0  0  0  0  0
    5.0650    1.3740   17.8850 C   0  0  0  0  0  0  0  0  0  0  0  0
    6.2030    0.7520   17.5050 N   0  0  0  0  0  0  0  0  0  0  0  0
    6.9230    0.2330   18.4970 C   0  0  0  0  0  0  0  0  0  0  0  0
    9.0330   -0.5260   22.3180 N   0  0  0  0  0  0  0  0  0  0  0  0
   10.3660   -0.8850   22.4690 C   0  0  1  0  0  0  0  0  0  0  0  0
   11.4250   -0.0280   22.4980 C   0  0  0  0  0  0  0  0  0  0  0  0
   12.4690   -0.8760   22.8640 C   0  0  0  0  0  0  0  0  0  0  0  0
   11.9710   -1.0060   24.0440 C   0  0  0  0  0  0  0  0  0  0  0  0
   12.3260   -1.6730   25.1890 C   0  0  0  0  0  0  0  0  0  0  0  0
   13.6260   -2.4410   24.9390 C   0  0  0  0  0  0  0  0  0  0  0  0
   14.5520   -3.4990   26.1990 Br  0  0  0  0  0  0  0  0  0  0  0  0
   14.0300   -2.2270   23.6220 C   0  0  0  0  0  0  0  0  0  0  0  0
   12.8900   -1.6340   24.0280 C   0  0  0  0  0  0  0  0  0  0  0  0
   11.7400   -1.0360   24.4370 N   0  0  0  0  0  0  0  0  0  0  0  0
   10.4280   -1.1930   23.9420 C   0  0  0  0  0  0  0  0  0  0  0  0
    9.2740   -1.5250   24.7290 O   0  0  0  0  0  0  0  0  0  0  0  0
  1  2  2  0
  2  3  1  0
  3  4  1  0
  4  5  2  0
  5  6  1  0
  6  7  2  0
  7  8  1  0
  4  9  1  0
  8  9  2  0
  2 10  1  0
 11 10  1  1
 11 12  1  0
 12 13  1  0
 13 14  2  0
 14 15  1  0
 15 16  2  0
 16 17  1  0
 16 18  1  0
 13 19  1  0
 18 19  2  0
 19 20  1  0
 11 21  1  0
 20 21  1  0
 21 22  2  0
M  END
