pyridine_urea_8901
     RDKit          3D

 20 22  0  0  0  0  0  0  0  0999 V2000
    8.3020    1.5080   20.8710 O   0  0  0  0  0  0  0  0  0  0  0  0
    8.2860    0.3170   21.1620 C   0  0  0  0  0  0  0  0  0  0  0  0
    7.1860   -0.4600   20.9910 N   0  0  0  0  0  0  0  0  0  0  0  0
    6.5090    0.1010   19.8910 C   0  0  0  0  0  0  0  0  0  0  0  0
    5.2440    0.9020   20.2050 C   0  0  0  0  0  0  0  0  0  0  0  0
    4.5550    1.5160   19.1710 C   0  0  0  0  0  0  0  0  0  0  0  0
    5.0670    1.3650   17.8860 C   0  0  0  0  0  0  0  0  0  0  0  0
    6.1950    0.6230   17.6610 N   0  0  0  0  0  0  0  0  0  0  0  0
    6.9300   -0.0170   18.6440 C   0  0  0  0  0  0  0  0  0  0  0  0
    9.3420   -0.3070   21.6490 N   0  0  0  0  0  0  0  0  0  0  0  0
   10.3820   -0.7530   22.2870 C   0  0  0  0  0  0  0  0  0  0  0  0
   11.4420   -1.5290   21.7300 C   0  0  0  0  0  0  0  0  0  0  0  0
   12.5060   -1.9510   22.4930 C   0  0  0  0  0  0  0  0  0  0  0  0
   12.4590   -1.5950   23.7880 C   0  0  0  0  0  0  0  0  0  0  0  0
   11.4760   -0.8840   24.2460 C   0  0  0  0  0  0  0  0  0  0  0  0
   10.3620   -0.3930   23.5670 C   0  0  0  0  0  0  0  0  0  0  0  0
   11.5430   -0.6170   25.4740 C   0  0  0  0  0  0  0  0  0  0  0  0
   10.5800   -0.3330   26.1990 O   0  0  0  0  0  0  0  0  0  0  0  0
   12.7840   -0.7590   25.6780 O   0  0  0  0  0  0  0  0  0  0  0  0
   13.2870   -1.8520   24.8160 C   0  0  0  0  0  0  0  0  0  0  0  0
  1  2  2  0
  2  3  1  0
  3  4  1  0
  4  5  2  0
  5  6  1  0
  6  7  2  0
  7  8  1  0
  4  9  1  0
  8  9  2  0
  2 10  1  0
 10 11  1  0
 11 12  2  0
 12 13  1  0
 13 14  2  0
 14 15  1  0
 11 16  1  0
 15 16  2  0
 15 17  1  0
 17 18  2  0
 17 19  1  0
 14 20  1  0
 19 20  1  0
M  END
