pyridine_urea_1590
     RDKit          3D

 19 20  0  0  0  0  0  0  0  0999 V2000
   12.9770   -2.4760   21.3680 C   0  0  0  0  0  0  0  0  0  0  0  0
   11.2910   -2.5650   22.0010 S   0  0  0  0  0  0  0  0  0  0  0  0
   11.2970   -0.8990   22.4590 C   0  0  0  0  0  0  0  0  0  0  0  0
   12.5390   -0.3930   22.5450 C   0  0  0  0  0  0  0  0  0  0  0  0
   12.7440    0.8800   22.8530 C   0  0  0  0  0  0  0  0  0  0  0  0
   13.9380    1.3120   22.8720 F   0  0  0  0  0  0  0  0  0  0  0  0
   11.6620    1.6560   23.1100 C   0  0  0  0  0  0  0  0  0  0  0  0
   10.3560    1.1800   23.0400 C   0  0  0  0  0  0  0  0  0  0  0  0
   10.1920   -0.1250   22.6970 C   0  0  0  0  0  0  0  0  0  0  0  0
    8.8480   -0.5740   22.5880 N   0  0  0  0  0  0  0  0  0  0  0  0
    8.2660    0.1170   21.5700 C   0  0  0  0  0  0  0  0  0  0  0  0
    8.7460    1.1940   21.1740 O   0  0  0  0  0  0  0  0  0  0  0  0
    7.0860   -0.5060   21.0410 N   0  0  0  0  0  0  0  0  0  0  0  0
    6.4330    0.0660   20.0180 C   0  0  0  0  0  0  0  0  0  0  0  0
    5.2530    0.7630   20.2620 C   0  0  0  0  0  0  0  0  0  0  0  0
    4.5870    1.3800   19.2150 C   0  0  0  0  0  0  0  0  0  0  0  0
    5.1260    1.2840   17.9450 C   0  0  0  0  0  0  0  0  0  0  0  0
    6.2550    0.6110   17.6830 N   0  0  0  0  0  0  0  0  0  0  0  0
    6.8800    0.0190   18.7180 C   0  0  0  0  0  0  0  0  0  0  0  0
  1  2  1  0
  2  3  1  0
  3  4  2  0
  4  5  1  0
  5  6  1  0
  5  7  2  0
  7  8  1  0
  3  9  1  0
  8  9  2  0
  9 10  1  0
 10 11  1  0
 11 12  2  0
 11 13  1  0
 13 14  1  0
 14 15  2  0
 15 16  1  0
 16 17  2  0
 17 18  1  0
 14 19  1  0
 18 19  2  0
M  END
