pyridine_urea_6099
     RDKit          3D

 25 27  0  0  0  0  0  0  0  0999 V2000
    8.5980    0.4080   21.2030 O   0  0  0  0  0  0  0  0  0  0  0  0
    8.0900   -0.6680   21.4970 C   0  0  0  0  0  0  0  0  0  0  0  0
    8.8040   -1.5850   22.3980 N   0  0  0  0  0  0  0  0  0  0  0  0
    9.9780   -0.9130   22.5320 C   0  0  0  0  0  0  0  0  0  0  0  0
    9.7670    0.3800   22.9710 C   0  0  0  0  0  0  0  0  0  0  0  0
   10.7570    1.2780   23.1100 C   0  0  0  0  0  0  0  0  0  0  0  0
   12.0480    0.9770   22.8270 C   0  0  0  0  0  0  0  0  0  0  0  0
   12.9450    2.0790   22.9760 C   0  0  0  0  0  0  0  0  0  0  0  0
   12.2780    3.3960   22.4650 C   0  0  0  0  0  0  0  0  0  0  0  0
   12.2970    3.9020   21.2020 O   0  0  0  0  0  0  0  0  0  0  0  0
   11.5890    4.1530   23.5000 N   0  0  0  0  0  0  0  0  0  0  0  0
   12.2340    5.3170   23.8840 C   0  0  0  0  0  0  0  0  0  0  0  0
   12.0790    6.3710   23.0090 C   0  0  0  0  0  0  0  0  0  0  0  0
   10.3440    6.6860   22.9430 S   0  0  0  0  0  0  0  0  0  0  0  0
    9.6450    5.2810   23.7630 C   0  0  0  0  0  0  0  0  0  0  0  0
   10.2110    4.0670   23.3460 C   0  0  0  0  0  0  0  0  0  0  0  0
   12.4360   -0.4220   22.3900 C   0  0  0  0  0  0  0  0  0  0  0  0
   11.4410   -1.3500   22.2390 C   0  0  0  0  0  0  0  0  0  0  0  0
    6.8800   -1.0510   21.0100 N   0  0  0  0  0  0  0  0  0  0  0  0
    6.3110   -0.2910   20.0350 C   0  0  0  0  0  0  0  0  0  0  0  0
    5.1150    0.3960   20.2740 C   0  0  0  0  0  0  0  0  0  0  0  0
    4.5770    1.1770   19.2440 C   0  0  0  0  0  0  0  0  0  0  0  0
    5.2150    1.2710   18.0070 C   0  0  0  0  0  0  0  0  0  0  0  0
    6.3600    0.6190   17.7540 N   0  0  0  0  0  0  0  0  0  0  0  0
    6.8520   -0.1270   18.7700 C   0  0  0  0  0  0  0  0  0  0  0  0
  1  2  2  0
  2  3  1  0
  3  4  1  0
  4  5  2  0
  5  6  1  0
  6  7  2  0
  7  8  1  0
  8  9  1  0
  9 10  2  0
  9 11  1  0
 11 12  1  0
 12 13  1  0
 13 14  1  0
 14 15  1  0
 11 16  1  0
 15 16  1  0
  7 17  1  0
  4 18  1  0
 17 18  2  0
  2 19  1  0
 19 20  1  0
 20 21  2  0
 21 22  1  0
 22 23  2  0
 23 24  1  0
 20 25  1  0
 24 25  2  0
M  END
