pyridine_urea_12559
     RDKit          3D

 21 23  0  0  0  0  0  0  0  0999 V2000
    8.6890    1.3300   21.0910 O   0  0  0  0  0  0  0  0  0  0  0  0
    7.9780    0.4300   21.5620 C   0  0  0  0  0  0  0  0  0  0  0  0
    7.9620    0.1520   22.8700 N   0  0  0  0  0  0  0  0  0  0  0  0
    9.0660   -0.6060   23.2430 C   0  0  0  0  0  0  0  0  0  0  0  0
   10.3760    0.1990   23.1880 C   0  0  0  0  0  0  0  0  0  0  0  0
   11.7980    0.5430   23.2260 C   0  0  0  0  0  0  0  0  0  0  0  0
   12.1590   -0.8190   23.5060 N   0  0  0  0  0  0  0  0  0  0  0  0
   13.3050   -1.3880   23.7010 C   0  0  2  0  0  0  0  0  0  0  0  0
   13.1610   -2.7280   23.3900 C   0  0  0  0  0  0  0  0  0  0  0  0
   11.9460   -3.0680   24.2380 C   0  0  0  0  0  0  0  0  0  0  0  0
   12.0420   -2.2480   25.2700 O   0  0  0  0  0  0  0  0  0  0  0  0
   13.3510   -1.7710   25.0820 C   0  0  0  0  0  0  0  0  0  0  0  0
   11.2820   -1.7390   23.6120 N   0  0  0  0  0  0  0  0  0  0  0  0
   10.2590   -1.1280   23.4250 N   0  0  0  0  0  0  0  0  0  0  0  0
    7.1420   -0.3740   20.8880 N   0  0  0  0  0  0  0  0  0  0  0  0
    6.4160    0.2340   19.8620 C   0  0  0  0  0  0  0  0  0  0  0  0
    5.1160    0.9230   20.2020 C   0  0  0  0  0  0  0  0  0  0  0  0
    4.3940    1.6020   19.0690 C   0  0  0  0  0  0  0  0  0  0  0  0
    5.1030    1.4830   17.7350 C   0  0  0  0  0  0  0  0  0  0  0  0
    6.2940    0.8020   17.5520 N   0  0  0  0  0  0  0  0  0  0  0  0
    6.8900    0.2180   18.5930 C   0  0  0  0  0  0  0  0  0  0  0  0
  1  2  2  0
  2  3  1  0
  3  4  1  0
  4  5  1  0
  5  6  2  0
  6  7  1  0
  8  7  1  1
  8  9  1  0
  9 10  1  0
 10 11  1  0
  8 12  1  0
 11 12  1  0
  7 13  1  0
  5 14  1  0
 13 14  2  0
  2 15  1  0
 15 16  1  0
 16 17  2  0
 17 18  1  0
 18 19  2  0
 19 20  1  0
 16 21  1  0
 20 21  2  0
M  END
