pyridine_urea_12653
     RDKit          3D

 21 22  0  0  0  0  0  0  0  0999 V2000
    8.7040    1.1280   21.1080 O   0  0  0  0  0  0  0  0  0  0  0  0
    8.1490    0.0630   21.4330 C   0  0  0  0  0  0  0  0  0  0  0  0
    8.7340   -0.8300   22.2520 N   0  0  0  0  0  0  0  0  0  0  0  0
   10.1510   -0.7880   22.1940 C   0  0  0  0  0  0  0  0  0  0  0  0
   10.6280    0.4400   22.9810 C   0  0  2  0  0  0  0  0  0  0  0  0
    9.8180    1.5720   22.5190 O   0  0  0  0  0  0  0  0  0  0  0  0
   11.9730    0.7950   22.9070 C   0  0  0  0  0  0  0  0  0  0  0  0
   13.1780    0.4750   23.0160 C   0  0  0  0  0  0  0  0  0  0  0  0
   12.4640   -0.6120   23.3010 C   0  0  0  0  0  0  0  0  0  0  0  0
   11.1340   -1.1260   23.4090 C   0  0  0  0  0  0  0  0  0  0  0  0
   10.0540   -2.4380   23.7500 Cl  0  0  0  0  0  0  0  0  0  0  0  0
   12.0280   -1.9090   23.6590 C   0  0  0  0  0  0  0  0  0  0  0  0
   13.6240   -2.4260   23.8560 Cl  0  0  0  0  0  0  0  0  0  0  0  0
   12.5600   -0.5730   23.3020 C   0  0  0  0  0  0  0  0  0  0  0  0
    6.9290   -0.3800   21.0380 N   0  0  0  0  0  0  0  0  0  0  0  0
    6.3510    0.1850   19.9560 C   0  0  0  0  0  0  0  0  0  0  0  0
    5.2040    0.9110   20.2670 C   0  0  0  0  0  0  0  0  0  0  0  0
    4.5710    1.5690   19.0950 C   0  0  0  0  0  0  0  0  0  0  0  0
    5.1150    1.4320   17.8420 C   0  0  0  0  0  0  0  0  0  0  0  0
    6.2220    0.7050   17.5890 N   0  0  0  0  0  0  0  0  0  0  0  0
    6.8340    0.0820   18.6790 C   0  0  0  0  0  0  0  0  0  0  0  0
  1  2  2  0
  2  3  1  0
  3  4  1  0
  4  5  1  0
  5  6  1  6
  5  7  1  0
  7  8  2  0
  8  9  1  0
  9 10  2  0
 10 11  1  0
 10 12  1  0
 12 13  1  0
  7 14  1  0
 12 14  2  0
  2 15  1  0
 15 16  1  0
 16 17  2  0
 17 18  1  0
 18 19  2  0
 19 20  1  0
 16 21  1  0
 20 21  2  0
M  END
