pyridine_urea_11365
     RDKit          3D

 24 26  0  0  0  0  0  0  0  0999 V2000
   13.2070    1.4220   22.4570 C   0  0  0  0  0  0  0  0  0  0  0  0
   14.1110    0.3340   22.4550 O   0  0  0  0  0  0  0  0  0  0  0  0
   13.5570   -0.9520   22.1710 C   0  0  0  0  0  0  0  0  0  0  0  0
   13.6280   -1.5410   21.1030 O   0  0  0  0  0  0  0  0  0  0  0  0
   12.8470   -1.4150   23.4030 C   0  0  0  0  0  0  0  0  0  0  0  0
   11.8870   -0.4300   23.5420 C   0  0  0  0  0  0  0  0  0  0  0  0
   11.9210    0.8110   23.9590 C   0  0  0  0  0  0  0  0  0  0  0  0
   10.6950    1.6720   24.0100 C   0  0  0  0  0  0  0  0  0  0  0  0
    9.4510    0.9910   23.5510 C   0  0  0  0  0  0  0  0  0  0  0  0
    9.4520   -0.3050   23.1160 C   0  0  0  0  0  0  0  0  0  0  0  0
    8.2190   -0.8270   22.6910 N   0  0  0  0  0  0  0  0  0  0  0  0
    7.8620   -0.2020   21.5540 C   0  0  0  0  0  0  0  0  0  0  0  0
    8.5180    0.7300   21.1100 O   0  0  0  0  0  0  0  0  0  0  0  0
    6.7320   -0.7070   21.0200 N   0  0  0  0  0  0  0  0  0  0  0  0
    6.1660    0.0310   19.9150 C   0  0  0  0  0  0  0  0  0  0  0  0
    4.9580    0.6720   20.1770 C   0  0  0  0  0  0  0  0  0  0  0  0
    4.4590    1.3840   19.1190 C   0  0  0  0  0  0  0  0  0  0  0  0
    5.1680    1.4510   17.8060 C   0  0  0  0  0  0  0  0  0  0  0  0
    6.3280    0.8180   17.5750 N   0  0  0  0  0  0  0  0  0  0  0  0
    6.8190    0.1160   18.6110 C   0  0  0  0  0  0  0  0  0  0  0  0
   10.7100   -1.1120   23.0820 C   0  0  0  0  0  0  0  0  0  0  0  0
   13.4040   -1.8500   24.8010 C   0  0  0  0  0  0  0  0  0  0  0  0
   12.7850   -2.9940   24.8250 C   0  0  0  0  0  0  0  0  0  0  0  0
   12.4530   -2.7760   23.5170 C   0  0  0  0  0  0  0  0  0  0  0  0
  1  2  1  0
  2  3  1  0
  3  4  2  0
  5  3  1  0
  5  6  1  0
  6  7  2  0
  7  8  1  0
  8  9  2  0
  9 10  1  0
 10 11  1  0
 11 12  1  0
 12 13  2  0
 12 14  1  0
 14 15  1  0
 15 16  2  0
 16 17  1  0
 17 18  2  0
 18 19  1  0
 15 20  1  0
 19 20  2  0
  6 21  1  0
 10 21  2  0
  5 22  1  0
 22 23  1  0
  5 24  1  0
 23 24  1  0
M  END
