pyridine_urea_4963
     RDKit          3D

 21 22  0  0  0  0  0  0  0  0999 V2000
    6.8060    1.0310   25.6160 C   0  0  0  0  0  0  0  0  0  0  0  0
    7.7160   -0.0110   26.3100 C   0  0  0  0  0  0  0  0  0  0  0  0
    9.0100   -0.2060   25.4910 C   0  0  0  0  0  0  0  0  0  0  0  0
    9.0740    0.7220   24.4100 O   0  0  0  0  0  0  0  0  0  0  0  0
   10.4030    1.2670   24.2460 C   0  0  0  0  0  0  0  0  0  0  0  0
   11.7780    1.0590   23.6580 N   0  0  0  0  0  0  0  0  0  0  0  0
   11.9600   -0.2370   22.8990 C   0  0  0  0  0  0  0  0  0  0  0  0
   13.1050    0.4410   22.8710 C   0  0  0  0  0  0  0  0  0  0  0  0
   12.0810    0.9610   23.5040 C   0  0  0  0  0  0  0  0  0  0  0  0
   10.8120    0.2900   23.5630 C   0  0  0  0  0  0  0  0  0  0  0  0
   10.3100   -0.9020   23.0700 C   0  0  0  0  0  0  0  0  0  0  0  0
    9.0040   -0.9110   22.5260 N   0  0  0  0  0  0  0  0  0  0  0  0
    8.4760   -0.0430   21.5770 C   0  0  0  0  0  0  0  0  0  0  0  0
    9.0380    1.1810   21.2410 O   0  0  0  0  0  0  0  0  0  0  0  0
    7.3050   -0.5670   21.0530 N   0  0  0  0  0  0  0  0  0  0  0  0
    6.6050    0.0360   20.0090 C   0  0  0  0  0  0  0  0  0  0  0  0
    5.3590    0.8200   20.2570 C   0  0  0  0  0  0  0  0  0  0  0  0
    4.6000    1.4640   19.3190 C   0  0  0  0  0  0  0  0  0  0  0  0
    5.1370    1.3110   18.0100 C   0  0  0  0  0  0  0  0  0  0  0  0
    6.2570    0.6090   17.7050 N   0  0  0  0  0  0  0  0  0  0  0  0
    6.9610   -0.0080   18.6900 C   0  0  0  0  0  0  0  0  0  0  0  0
  1  2  1  0
  2  3  1  0
  3  4  1  0
  4  5  1  0
  5  6  2  0
  6  7  1  0
  7  8  2  0
  8  9  1  0
  5 10  1  0
  9 10  2  0
 10 11  1  0
 11 12  1  0
 12 13  1  0
 13 14  2  0
 13 15  1  0
 15 16  1  0
 16 17  2  0
 17 18  1  0
 18 19  2  0
 19 20  1  0
 16 21  1  0
 20 21  2  0
M  END
