pyridine_urea_4891
     RDKit          3D

 21 23  0  0  0  0  0  0  0  0999 V2000
    8.9330    1.2800   21.2640 O   0  0  0  0  0  0  0  0  0  0  0  0
    8.3690    0.2460   21.6480 C   0  0  0  0  0  0  0  0  0  0  0  0
    8.7950   -0.4860   22.7340 N   0  0  0  0  0  0  0  0  0  0  0  0
    9.1200    0.0930   24.0300 C   0  0  0  0  0  0  0  0  0  0  0  0
    9.9440    1.4090   23.9850 C   0  0  0  0  0  0  0  0  0  0  0  0
   11.3090    1.2640   23.8390 C   0  0  0  0  0  0  0  0  0  0  0  0
   12.5520    0.7050   23.4220 C   0  0  0  0  0  0  0  0  0  0  0  0
   12.3670   -0.3720   22.7120 C   0  0  0  0  0  0  0  0  0  0  0  0
   13.1900   -1.2540   22.1050 C   0  0  0  0  0  0  0  0  0  0  0  0
   12.6470   -2.2840   21.4120 C   0  0  0  0  0  0  0  0  0  0  0  0
   11.2970   -2.3950   21.3560 C   0  0  0  0  0  0  0  0  0  0  0  0
   10.4490   -1.5340   21.9650 C   0  0  0  0  0  0  0  0  0  0  0  0
   11.0910   -0.5190   22.6420 C   0  0  0  0  0  0  0  0  0  0  0  0
   10.5700    0.3760   23.2610 O   0  0  0  0  0  0  0  0  0  0  0  0
    7.2530   -0.3360   21.0960 N   0  0  0  0  0  0  0  0  0  0  0  0
    6.5340    0.2040   20.0300 C   0  0  0  0  0  0  0  0  0  0  0  0
    5.3870    0.9320   20.3280 C   0  0  0  0  0  0  0  0  0  0  0  0
    4.6570    1.5060   19.2420 C   0  0  0  0  0  0  0  0  0  0  0  0
    5.1700    1.2750   18.0010 C   0  0  0  0  0  0  0  0  0  0  0  0
    6.2560    0.5770   17.6890 N   0  0  0  0  0  0  0  0  0  0  0  0
    6.9200    0.0490   18.7210 C   0  0  0  0  0  0  0  0  0  0  0  0
  1  2  2  0
  2  3  1  0
  3  4  1  0
  4  5  1  0
  5  6  1  0
  6  7  2  0
  7  8  1  0
  8  9  2  0
  9 10  1  0
 10 11  2  0
 11 12  1  0
  8 13  1  0
 12 13  2  0
  6 14  1  0
 13 14  1  0
  2 15  1  0
 15 16  1  0
 16 17  2  0
 17 18  1  0
 18 19  2  0
 19 20  1  0
 16 21  1  0
 20 21  2  0
M  END
