pyridine_urea_12584
     RDKit          3D

 21 23  0  0  0  0  0  0  0  0999 V2000
    8.8900    0.1000   21.4900 O   0  0  0  0  0  0  0  0  0  0  0  0
    7.7290   -0.1630   21.7580 C   0  0  0  0  0  0  0  0  0  0  0  0
    7.0870    0.1730   22.9530 N   0  0  0  0  0  0  0  0  0  0  0  0
    7.2120    1.5480   23.4660 C   0  0  0  0  0  0  0  0  0  0  0  0
    8.7120    1.7850   23.3120 C   0  0  0  0  0  0  0  0  0  0  0  0
    9.4680    3.1010   23.3800 N   0  0  0  0  0  0  0  0  0  0  0  0
   10.7000    2.7120   23.1530 O   0  0  0  0  0  0  0  0  0  0  0  0
   10.6390    1.3200   22.9800 C   0  0  0  0  0  0  0  0  0  0  0  0
   11.6280    0.2490   22.6820 C   0  0  0  0  0  0  0  0  0  0  0  0
   12.9480    0.1890   22.7930 C   0  0  0  0  0  0  0  0  0  0  0  0
   13.3480   -1.1710   22.3150 C   0  0  0  0  0  0  0  0  0  0  0  0
   12.2930   -2.1450   21.8310 C   0  0  0  0  0  0  0  0  0  0  0  0
   10.7960   -1.2270   22.0490 S   0  0  0  0  0  0  0  0  0  0  0  0
    9.5040    0.8130   23.0830 N   0  0  0  0  0  0  0  0  0  0  0  0
    6.8580   -0.7800   20.9240 N   0  0  0  0  0  0  0  0  0  0  0  0
    6.2050   -0.0320   19.9630 C   0  0  0  0  0  0  0  0  0  0  0  0
    4.9050    0.7210   20.2220 C   0  0  0  0  0  0  0  0  0  0  0  0
    4.3810    1.4950   19.0340 C   0  0  0  0  0  0  0  0  0  0  0  0
    5.1990    1.4190   17.7680 C   0  0  0  0  0  0  0  0  0  0  0  0
    6.3310    0.7110   17.6510 N   0  0  0  0  0  0  0  0  0  0  0  0
    6.7950    0.0270   18.7110 C   0  0  0  0  0  0  0  0  0  0  0  0
  1  2  2  0
  2  3  1  0
  3  4  1  0
  4  5  1  0
  5  6  2  0
  6  7  1  0
  7  8  1  0
  8  9  1  0
  9 10  2  0
 10 11  1  0
 11 12  2  0
  9 13  1  0
 12 13  1  0
  5 14  1  0
  8 14  2  0
  2 15  1  0
 15 16  1  0
 16 17  2  0
 17 18  1  0
 18 19  2  0
 19 20  1  0
 16 21  1  0
 20 21  2  0
M  END
