pyridine_urea_10645
     RDKit          3D

 21 22  0  0  0  0  0  0  0  0999 V2000
   10.2530   -2.2120   21.6740 C   0  0  0  0  0  0  0  0  0  0  0  0
   11.1690   -1.9670   22.7120 O   0  0  0  0  0  0  0  0  0  0  0  0
   12.2970   -1.2630   22.3780 C   0  0  0  0  0  0  0  0  0  0  0  0
   13.4330   -1.5540   21.5480 C   0  0  0  0  0  0  0  0  0  0  0  0
   12.8460   -0.4240   22.4710 C   0  0  0  0  0  0  0  0  0  0  0  0
   11.5420   -0.1850   23.3520 C   0  0  0  0  0  0  0  0  0  0  0  0
   10.5160    0.2460   24.1670 C   0  0  2  0  0  0  0  0  0  0  0  0
   10.7340   -0.0930   25.3230 O   0  0  0  0  0  0  0  0  0  0  0  0
    9.3950   -0.4890   23.7910 C   0  0  0  0  0  0  0  0  0  0  0  0
    8.3910    0.3360   23.1690 N   0  0  0  0  0  0  0  0  0  0  0  0
    8.3120    0.5000   21.8050 C   0  0  0  0  0  0  0  0  0  0  0  0
    9.0290    1.3330   21.2440 O   0  0  0  0  0  0  0  0  0  0  0  0
    7.3570   -0.2930   21.2230 N   0  0  0  0  0  0  0  0  0  0  0  0
    6.6220    0.1990   20.1570 C   0  0  0  0  0  0  0  0  0  0  0  0
    5.4470    0.9350   20.3280 C   0  0  0  0  0  0  0  0  0  0  0  0
    4.7230    1.4550   19.2630 C   0  0  0  0  0  0  0  0  0  0  0  0
    5.1450    1.2630   17.9560 C   0  0  0  0  0  0  0  0  0  0  0  0
    6.2350    0.5720   17.6430 N   0  0  0  0  0  0  0  0  0  0  0  0
    6.9460    0.0580   18.6750 C   0  0  0  0  0  0  0  0  0  0  0  0
   12.1180    1.0020   23.6210 C   0  0  0  0  0  0  0  0  0  0  0  0
   12.8030    0.1900   22.8070 C   0  0  0  0  0  0  0  0  0  0  0  0
  1  2  1  0
  2  3  1  0
  3  4  2  0
  4  5  1  0
  5  6  2  0
  6  7  1  0
  7  8  1  1
  7  9  1  0
  9 10  1  0
 10 11  1  0
 11 12  2  0
 11 13  1  0
 13 14  1  0
 14 15  2  0
 15 16  1  0
 16 17  2  0
 17 18  1  0
 14 19  1  0
 18 19  2  0
  6 20  1  0
  3 21  1  0
 20 21  2  0
M  END
