pyridine_urea_15211
     RDKit          3D

 17 18  0  0  0  0  0  0  0  0999 V2000
    9.0000    1.2550   21.2450 O   0  0  0  0  0  0  0  0  0  0  0  0
    8.6820    0.0770   21.4340 C   0  0  0  0  0  0  0  0  0  0  0  0
    9.5470   -0.8530   21.9910 N   0  0  0  0  0  0  0  0  0  0  0  0
   10.3290   -0.4730   23.1570 C   0  0  0  0  0  0  0  0  0  0  0  0
   11.8330   -0.1570   22.9360 C   0  0  0  0  0  0  0  0  0  0  0  0
   12.7580   -1.3280   22.7780 C   0  0  0  0  0  0  0  0  0  0  0  0
   12.8930    0.1110   22.7990 C   0  0  0  0  0  0  0  0  0  0  0  0
   11.4600    0.7810   23.0130 C   0  0  0  0  0  0  0  0  0  0  0  0
   11.7790    1.9990   22.9920 N   0  0  0  0  0  0  0  0  0  0  0  0
   12.7150    1.0940   22.8410 N   0  0  0  0  0  0  0  0  0  0  0  0
    7.4580   -0.4640   21.1050 N   0  0  0  0  0  0  0  0  0  0  0  0
    6.6700    0.0850   20.0820 C   0  0  0  0  0  0  0  0  0  0  0  0
    5.5170    0.8020   20.3870 C   0  0  0  0  0  0  0  0  0  0  0  0
    4.7520    1.3640   19.3870 C   0  0  0  0  0  0  0  0  0  0  0  0
    5.1210    1.2220   18.0780 C   0  0  0  0  0  0  0  0  0  0  0  0
    6.2210    0.5280   17.7320 N   0  0  0  0  0  0  0  0  0  0  0  0
    6.9640   -0.0210   18.7330 C   0  0  0  0  0  0  0  0  0  0  0  0
  1  2  2  0
  2  3  1  0
  3  4  1  0
  4  5  1  0
  5  6  2  0
  6  7  1  0
  7  8  2  0
  8  9  1  0
  5 10  1  0
  9 10  2  0
  2 11  1  0
 11 12  1  0
 12 13  2  0
 13 14  1  0
 14 15  2  0
 15 16  1  0
 12 17  1  0
 16 17  2  0
M  END
