pyridine_urea_6397
     RDKit          3D

 19 19  0  0  0  0  0  0  0  0999 V2000
   13.7940   -2.7570   25.7320 C   0  0  0  0  0  0  0  0  0  0  0  0
   12.9370   -2.1960   25.1450 C   0  0  0  0  0  0  0  0  0  0  0  0
   11.5810   -1.7660   24.6200 C   0  0  0  0  0  0  0  0  0  0  0  0
   13.4110   -2.7130   23.8180 C   0  0  0  0  0  0  0  0  0  0  0  0
   13.3940   -1.3830   23.2900 N   0  0  0  0  0  0  0  0  0  0  0  0
   12.7700   -1.3480   22.1080 C   0  0  0  0  0  0  0  0  0  0  0  0
   13.4590   -1.3600   20.8300 O   0  0  0  0  0  0  0  0  0  0  0  0
   11.2290   -1.3970   22.0620 C   0  0  0  0  0  0  0  0  0  0  0  0
   10.4890   -0.3420   22.7870 C   0  0  0  0  0  0  0  0  0  0  0  0
    9.0580   -0.5060   22.6090 N   0  0  0  0  0  0  0  0  0  0  0  0
    8.3750    0.2050   21.5200 C   0  0  0  0  0  0  0  0  0  0  0  0
    8.7780    1.3030   21.1160 O   0  0  0  0  0  0  0  0  0  0  0  0
    7.3000   -0.4930   21.0830 N   0  0  0  0  0  0  0  0  0  0  0  0
    6.6310    0.0720   20.0560 C   0  0  0  0  0  0  0  0  0  0  0  0
    5.4910    0.8440   20.3020 C   0  0  0  0  0  0  0  0  0  0  0  0
    4.7440    1.4760   19.3050 C   0  0  0  0  0  0  0  0  0  0  0  0
    5.1460    1.3410   17.9980 C   0  0  0  0  0  0  0  0  0  0  0  0
    6.2470    0.5900   17.7210 N   0  0  0  0  0  0  0  0  0  0  0  0
    6.9860   -0.0420   18.7260 C   0  0  0  0  0  0  0  0  0  0  0  0
  1  2  1  0
  2  3  1  0
  2  4  1  0
  4  5  1  0
  5  6  1  0
  6  7  2  0
  6  8  1  0
  8  9  1  0
  9 10  1  0
 10 11  1  0
 11 12  2  0
 11 13  1  0
 13 14  1  0
 14 15  2  0
 15 16  1  0
 16 17  2  0
 17 18  1  0
 14 19  1  0
 18 19  2  0
M  END
