pyridine_urea_7096
     RDKit          3D

 20 21  0  0  0  0  0  0  0  0999 V2000
   13.0160   -1.4470   24.5080 C   0  0  0  0  0  0  0  0  0  0  0  0
   12.6870   -0.9170   23.1190 C   0  0  1  0  0  0  0  0  0  0  0  0
   11.5880   -1.5000   22.4830 C   0  0  0  0  0  0  0  0  0  0  0  0
   10.3540   -0.8790   22.7280 C   0  0  0  0  0  0  0  0  0  0  0  0
    9.2290   -1.3600   21.9310 N   0  0  0  0  0  0  0  0  0  0  0  0
    8.3570   -0.4060   21.3930 C   0  0  0  0  0  0  0  0  0  0  0  0
    8.7180    0.7590   21.2300 O   0  0  0  0  0  0  0  0  0  0  0  0
    7.1220   -0.8480   21.0660 N   0  0  0  0  0  0  0  0  0  0  0  0
    6.5090   -0.1560   20.0730 C   0  0  0  0  0  0  0  0  0  0  0  0
    5.2130    0.6620   20.3160 C   0  0  0  0  0  0  0  0  0  0  0  0
    4.6180    1.3700   19.2590 C   0  0  0  0  0  0  0  0  0  0  0  0
    5.2160    1.3180   17.9970 C   0  0  0  0  0  0  0  0  0  0  0  0
    6.3570    0.5920   17.7860 N   0  0  0  0  0  0  0  0  0  0  0  0
    6.9990   -0.1360   18.7870 C   0  0  0  0  0  0  0  0  0  0  0  0
   12.3070    0.5320   23.2290 C   0  0  0  0  0  0  0  0  0  0  0  0
   12.6340    1.9620   23.0100 C   0  0  0  0  0  0  0  0  0  0  0  0
   11.5450    2.9330   23.4320 C   0  0  0  0  0  0  0  0  0  0  0  0
   10.2330    2.5120   24.0430 C   0  0  0  0  0  0  0  0  0  0  0  0
   10.1310    1.1510   24.1810 C   0  0  0  0  0  0  0  0  0  0  0  0
   11.2830    1.1350   23.6620 C   0  0  0  0  0  0  0  0  0  0  0  0
  2  1  1  1
  2  3  1  0
  3  4  1  0
  4  5  1  0
  5  6  1  0
  6  7  2  0
  6  8  1  0
  8  9  1  0
  9 10  2  0
 10 11  1  0
 11 12  2  0
 12 13  1  0
  9 14  1  0
 13 14  2  0
  2 15  1  0
 15 16  2  0
 16 17  1  0
 17 18  2  0
 18 19  1  0
 15 20  1  0
 19 20  2  0
M  END
