pyridine_urea_10432
     RDKit          3D

 22 24  0  0  0  0  0  0  0  0999 V2000
   13.4140   -3.2940   25.3580 C   0  0  0  0  0  0  0  0  0  0  0  0
   13.3020   -2.5630   24.0990 C   0  0  0  0  0  0  0  0  0  0  0  0
   13.7950   -3.0670   22.8580 N   0  0  0  0  0  0  0  0  0  0  0  0
   13.4080   -2.0640   21.9950 N   0  0  0  0  0  0  0  0  0  0  0  0
   12.8280   -1.3190   22.9450 C   0  0  0  0  0  0  0  0  0  0  0  0
   12.0940   -0.1190   22.9210 C   0  0  0  0  0  0  0  0  0  0  0  0
   12.5630    1.2560   23.0020 C   0  0  0  0  0  0  0  0  0  0  0  0
   11.6440    2.2590   23.0090 C   0  0  0  0  0  0  0  0  0  0  0  0
   10.2750    1.9220   22.9340 C   0  0  0  0  0  0  0  0  0  0  0  0
    9.7690    0.6060   22.8480 C   0  0  0  0  0  0  0  0  0  0  0  0
    8.5340    0.1500   22.7620 N   0  0  0  0  0  0  0  0  0  0  0  0
    8.1030    0.4390   21.5460 C   0  0  0  0  0  0  0  0  0  0  0  0
    8.5910    1.3900   20.9380 O   0  0  0  0  0  0  0  0  0  0  0  0
    7.1240   -0.3380   21.0410 N   0  0  0  0  0  0  0  0  0  0  0  0
    6.4350    0.1950   19.9700 C   0  0  0  0  0  0  0  0  0  0  0  0
    5.2510    0.8970   20.2520 C   0  0  0  0  0  0  0  0  0  0  0  0
    4.4730    1.5220   19.2350 C   0  0  0  0  0  0  0  0  0  0  0  0
    5.1280    1.2980   17.8750 C   0  0  0  0  0  0  0  0  0  0  0  0
    6.2460    0.6160   17.6430 N   0  0  0  0  0  0  0  0  0  0  0  0
    6.8740    0.0800   18.6860 C   0  0  0  0  0  0  0  0  0  0  0  0
   10.8020   -0.4370   22.8430 C   0  0  0  0  0  0  0  0  0  0  0  0
   12.7610   -1.5480   24.1060 O   0  0  0  0  0  0  0  0  0  0  0  0
  1  2  1  0
  2  3  2  0
  3  4  1  0
  4  5  2  0
  5  6  1  0
  6  7  2  0
  7  8  1  0
  8  9  2  0
  9 10  1  0
 10 11  1  0
 11 12  1  0
 12 13  2  0
 12 14  1  0
 14 15  1  0
 15 16  2  0
 16 17  1  0
 17 18  2  0
 18 19  1  0
 15 20  1  0
 19 20  2  0
  6 21  1  0
 10 21  2  0
  2 22  1  0
  5 22  1  0
M  END
