pyridine_urea_2486
     RDKit          3D

 24 25  0  0  0  0  0  0  0  0999 V2000
   11.9950    4.0250   20.7210 C   0  0  0  0  0  0  0  0  0  0  0  0
   12.6070    4.8380   21.8310 C   0  0  0  0  0  0  0  0  0  0  0  0
   13.7850    5.5010   21.4610 C   0  0  0  0  0  0  0  0  0  0  0  0
   11.6080    5.8950   22.2950 C   0  0  0  0  0  0  0  0  0  0  0  0
   12.7980    3.8930   22.9230 O   0  0  0  0  0  0  0  0  0  0  0  0
   13.2060    2.6100   22.7150 C   0  0  0  0  0  0  0  0  0  0  0  0
   14.2910    2.2380   22.3770 O   0  0  0  0  0  0  0  0  0  0  0  0
   12.1480    1.7190   22.9710 C   0  0  0  0  0  0  0  0  0  0  0  0
   11.0300    2.0470   23.7870 C   0  0  0  0  0  0  0  0  0  0  0  0
   10.4280    0.8020   23.6110 C   0  0  0  0  0  0  0  0  0  0  0  0
   10.9200   -0.1380   22.8670 C   0  0  0  0  0  0  0  0  0  0  0  0
   11.3880   -1.0270   22.1610 C   0  0  0  0  0  0  0  0  0  0  0  0
   10.2740   -1.8170   22.4700 C   0  0  0  0  0  0  0  0  0  0  0  0
    9.0480   -1.0360   22.4480 N   0  0  0  0  0  0  0  0  0  0  0  0
    8.6680   -0.3080   21.3460 C   0  0  0  0  0  0  0  0  0  0  0  0
    9.4050    0.5050   20.7930 O   0  0  0  0  0  0  0  0  0  0  0  0
    7.3790   -0.6010   20.9680 N   0  0  0  0  0  0  0  0  0  0  0  0
    6.6560    0.0120   19.9330 C   0  0  0  0  0  0  0  0  0  0  0  0
    5.4530    0.6460   20.2290 C   0  0  0  0  0  0  0  0  0  0  0  0
    4.6690    1.2760   19.2940 C   0  0  0  0  0  0  0  0  0  0  0  0
    5.1240    1.2660   17.9770 C   0  0  0  0  0  0  0  0  0  0  0  0
    6.2800    0.6730   17.6120 N   0  0  0  0  0  0  0  0  0  0  0  0
    7.0190    0.0630   18.5890 C   0  0  0  0  0  0  0  0  0  0  0  0
   12.2860    0.1980   22.1860 C   0  0  0  0  0  0  0  0  0  0  0  0
  1  2  1  0
  2  3  1  0
  2  4  1  0
  2  5  1  0
  5  6  1  0
  6  7  2  0
  6  8  1  0
  8  9  2  0
  9 10  1  0
 10 11  2  0
 11 12  1  0
 12 13  1  0
 13 14  1  0
 14 15  1  0
 15 16  2  0
 15 17  1  0
 17 18  1  0
 18 19  2  0
 19 20  1  0
 20 21  2  0
 21 22  1  0
 18 23  1  0
 22 23  2  0
  8 24  1  0
 12 24  2  0
M  END
