pyridine_urea_4840
     RDKit          3D

 21 22  0  0  0  0  0  0  0  0999 V2000
   11.4200    1.6450   23.6490 C   0  0  0  0  0  0  0  0  0  0  0  0
    9.9220    1.2630   23.8300 C   0  0  0  0  0  0  0  0  0  0  0  0
    9.6810   -0.2520   23.7360 C   0  0  1  0  0  0  0  0  0  0  0  0
    8.5670   -0.5510   22.8470 N   0  0  0  0  0  0  0  0  0  0  0  0
    8.3200    0.1360   21.6740 C   0  0  0  0  0  0  0  0  0  0  0  0
    8.9570    1.1240   21.2750 O   0  0  0  0  0  0  0  0  0  0  0  0
    7.2470   -0.4490   21.0410 N   0  0  0  0  0  0  0  0  0  0  0  0
    6.5330    0.1430   20.0020 C   0  0  0  0  0  0  0  0  0  0  0  0
    5.3820    0.8770   20.3000 C   0  0  0  0  0  0  0  0  0  0  0  0
    4.6770    1.4840   19.2650 C   0  0  0  0  0  0  0  0  0  0  0  0
    5.1470    1.3370   17.9710 C   0  0  0  0  0  0  0  0  0  0  0  0
    6.2400    0.6290   17.6650 N   0  0  0  0  0  0  0  0  0  0  0  0
    6.9040    0.0510   18.6840 C   0  0  0  0  0  0  0  0  0  0  0  0
   10.8680   -0.9560   23.2140 C   0  0  0  0  0  0  0  0  0  0  0  0
   10.5970   -1.6400   22.0650 C   0  0  0  0  0  0  0  0  0  0  0  0
   11.8470   -2.1070   21.4790 C   0  0  0  0  0  0  0  0  0  0  0  0
   13.0710   -1.7730   21.9230 C   0  0  0  0  0  0  0  0  0  0  0  0
   13.8080   -1.6590   20.8300 F   0  0  0  0  0  0  0  0  0  0  0  0
   13.5760   -2.8270   22.5680 F   0  0  0  0  0  0  0  0  0  0  0  0
   13.1580   -0.5710   22.7200 C   0  0  0  0  0  0  0  0  0  0  0  0
   11.9400   -0.1120   23.0390 C   0  0  0  0  0  0  0  0  0  0  0  0
  1  2  1  0
  3  2  1  6
  3  4  1  0
  4  5  1  0
  5  6  2  0
  5  7  1  0
  7  8  1  0
  8  9  2  0
  9 10  1  0
 10 11  2  0
 11 12  1  0
  8 13  1  0
 12 13  2  0
  3 14  1  0
 14 15  1  0
 15 16  1  0
 16 17  1  0
 17 18  1  0
 17 19  1  0
 17 20  1  0
 14 21  1  0
 20 21  1  0
M  END
