pyridine_urea_6513
     RDKit          3D

 22 23  0  0  0  0  0  0  0  0999 V2000
    8.8210    1.5470   21.1150 O   0  0  0  0  0  0  0  0  0  0  0  0
    8.7030    0.3760   21.4690 C   0  0  0  0  0  0  0  0  0  0  0  0
    9.5960   -0.2280   22.3320 N   0  0  0  0  0  0  0  0  0  0  0  0
   10.2900    0.5050   23.3320 C   0  0  0  0  0  0  0  0  0  0  0  0
   11.8270    0.7970   23.4680 C   0  0  0  0  0  0  0  0  0  0  0  0
   12.4860    0.8030   22.4290 O   0  0  0  0  0  0  0  0  0  0  0  0
   12.7930   -0.4490   22.1060 C   0  0  0  0  0  0  0  0  0  0  0  0
   12.3220   -1.5420   22.9980 C   0  0  0  0  0  0  0  0  0  0  0  0
   11.4400   -1.4300   24.4550 Cl  0  0  0  0  0  0  0  0  0  0  0  0
   12.6330   -2.8070   22.6180 C   0  0  0  0  0  0  0  0  0  0  0  0
   13.3400   -3.0460   21.4240 C   0  0  0  0  0  0  0  0  0  0  0  0
   14.0890   -4.4620   20.3490 Br  0  0  0  0  0  0  0  0  0  0  0  0
   13.6880   -2.0080   20.7820 C   0  0  0  0  0  0  0  0  0  0  0  0
   13.5330   -0.8240   20.9800 C   0  0  0  0  0  0  0  0  0  0  0  0
   14.3980   -0.1250   19.5900 Cl  0  0  0  0  0  0  0  0  0  0  0  0
    7.6490   -0.4180   21.0450 N   0  0  0  0  0  0  0  0  0  0  0  0
    6.7360    0.1030   20.1030 C   0  0  0  0  0  0  0  0  0  0  0  0
    5.5770    0.8610   20.4450 C   0  0  0  0  0  0  0  0  0  0  0  0
    4.6540    1.4260   19.4860 C   0  0  0  0  0  0  0  0  0  0  0  0
    5.1000    1.0950   18.0670 C   0  0  0  0  0  0  0  0  0  0  0  0
    6.1900    0.3660   17.7770 N   0  0  0  0  0  0  0  0  0  0  0  0
    7.0000   -0.1300   18.7720 C   0  0  0  0  0  0  0  0  0  0  0  0
  1  2  2  0
  2  3  1  0
  3  4  1  0
  4  5  1  0
  5  6  1  0
  6  7  1  0
  7  8  2  0
  8  9  1  0
  8 10  1  0
 10 11  2  0
 11 12  1  0
 11 13  1  0
  7 14  1  0
 13 14  2  0
 14 15  1  0
  2 16  1  0
 16 17  1  0
 17 18  2  0
 18 19  1  0
 19 20  2  0
 20 21  1  0
 17 22  1  0
 21 22  2  0
M  END
