pyridine_urea_12074
     RDKit          3D

 23 24  0  0  0  0  0  0  0  0999 V2000
   11.7960    3.9020   22.0460 C   0  0  0  0  0  0  0  0  0  0  0  0
   12.5160    3.2790   22.8240 O   0  0  0  0  0  0  0  0  0  0  0  0
   12.3050    1.9330   22.8990 C   0  0  0  0  0  0  0  0  0  0  0  0
   13.3140    0.9180   22.7780 C   0  0  0  0  0  0  0  0  0  0  0  0
   13.1500   -0.5600   22.8590 C   0  0  0  0  0  0  0  0  0  0  0  0
   11.8630   -1.1100   23.1110 C   0  0  0  0  0  0  0  0  0  0  0  0
   10.4680   -1.1680   23.3690 C   0  0  0  0  0  0  0  0  0  0  0  0
    9.5030   -0.2560   22.8700 C   0  0  1  0  0  0  0  0  0  0  0  0
    8.7980    0.8010   23.6950 C   0  0  0  0  0  0  0  0  0  0  0  0
    9.8970    0.1860   21.7050 C   0  0  0  0  0  0  0  0  0  0  0  0
    9.0910    1.2330   21.2540 O   0  0  0  0  0  0  0  0  0  0  0  0
    8.3930   -1.1620   22.5740 N   0  0  0  0  0  0  0  0  0  0  0  0
    7.9060   -0.9220   21.3300 C   0  0  0  0  0  0  0  0  0  0  0  0
    8.5570   -0.9750   20.3630 O   0  0  0  0  0  0  0  0  0  0  0  0
    6.5850   -0.6070   21.2660 N   0  0  0  0  0  0  0  0  0  0  0  0
    6.0660    0.0700   20.1950 C   0  0  0  0  0  0  0  0  0  0  0  0
    4.9100    0.8330   20.2360 C   0  0  0  0  0  0  0  0  0  0  0  0
    4.4940    1.4770   19.0760 C   0  0  0  0  0  0  0  0  0  0  0  0
    5.2010    1.3790   17.8890 C   0  0  0  0  0  0  0  0  0  0  0  0
    6.3240    0.6530   17.7830 N   0  0  0  0  0  0  0  0  0  0  0  0
    6.7300    0.0080   18.9620 C   0  0  0  0  0  0  0  0  0  0  0  0
   11.9620    0.1770   23.0280 C   0  0  0  0  0  0  0  0  0  0  0  0
   11.2220    1.2700   23.0870 C   0  0  0  0  0  0  0  0  0  0  0  0
  1  2  1  0
  2  3  1  0
  3  4  2  0
  4  5  1  0
  5  6  2  0
  6  7  1  0
  7  8  1  0
  8  9  1  1
  8 10  1  0
 10 11  1  0
  8 12  1  0
 12 13  1  0
 13 14  2  0
 13 15  1  0
 15 16  1  0
 16 17  2  0
 17 18  1  0
 18 19  2  0
 19 20  1  0
 16 21  1  0
 20 21  2  0
  6 22  1  0
  3 23  1  0
 22 23  2  0
M  END
