pyridine_urea_5070
     RDKit          3D

 20 21  0  0  0  0  0  0  0  0999 V2000
   12.9350   -2.2220   21.1470 C   0  0  0  0  0  0  0  0  0  0  0  0
   12.4640   -2.0520   22.4650 O   0  0  0  0  0  0  0  0  0  0  0  0
   13.1950   -1.2460   23.2770 C   0  0  0  0  0  0  0  0  0  0  0  0
   12.6360   -0.6500   24.3890 C   0  0  0  0  0  0  0  0  0  0  0  0
   13.0890   -1.0120   25.4550 O   0  0  0  0  0  0  0  0  0  0  0  0
   11.5890    0.2900   24.1320 N   0  0  0  0  0  0  0  0  0  0  0  0
   10.3160   -0.0070   24.4670 C   0  0  0  0  0  0  0  0  0  0  0  0
    9.9020    0.4050   23.2510 C   0  0  0  0  0  0  0  0  0  0  0  0
    9.2430    1.7790   23.3550 C   0  0  0  0  0  0  0  0  0  0  0  0
    9.1830   -0.4380   22.4770 N   0  0  0  0  0  0  0  0  0  0  0  0
    8.4420    0.1780   21.4430 C   0  0  0  0  0  0  0  0  0  0  0  0
    8.7520    1.3050   21.0440 O   0  0  0  0  0  0  0  0  0  0  0  0
    7.4030   -0.5680   21.0000 N   0  0  0  0  0  0  0  0  0  0  0  0
    6.6020    0.0570   20.0940 C   0  0  0  0  0  0  0  0  0  0  0  0
    5.4420    0.7850   20.3940 C   0  0  0  0  0  0  0  0  0  0  0  0
    4.7270    1.3860   19.3680 C   0  0  0  0  0  0  0  0  0  0  0  0
    5.1870    1.2450   18.0670 C   0  0  0  0  0  0  0  0  0  0  0  0
    6.2860    0.5510   17.7500 N   0  0  0  0  0  0  0  0  0  0  0  0
    6.9630   -0.0250   18.7630 C   0  0  0  0  0  0  0  0  0  0  0  0
   11.2150    0.5030   22.7110 C   0  0  0  0  0  0  0  0  0  0  0  0
  1  2  1  0
  2  3  1  0
  3  4  1  0
  4  5  2  0
  4  6  1  0
  6  7  1  0
  7  8  1  0
  8  9  1  0
  8 10  1  0
 10 11  1  0
 11 12  2  0
 11 13  1  0
 13 14  1  0
 14 15  2  0
 15 16  1  0
 16 17  2  0
 17 18  1  0
 14 19  1  0
 18 19  2  0
  6 20  1  0
  8 20  1  0
M  END
