pyridine_urea_14192
     RDKit          3D

 22 23  0  0  0  0  0  0  0  0999 V2000
   13.5530   -2.6060   23.1480 C   0  0  0  0  0  0  0  0  0  0  0  0
   13.0400   -1.8650   21.5760 S   0  0  0  0  0  0  0  0  0  0  0  0
   13.9670   -1.0710   20.8750 O   0  0  0  0  0  0  0  0  0  0  0  0
   12.1360   -2.6470   20.8540 O   0  0  0  0  0  0  0  0  0  0  0  0
   12.0830   -0.8170   22.5070 C   0  0  0  0  0  0  0  0  0  0  0  0
   12.4720    0.3830   22.9520 C   0  0  0  0  0  0  0  0  0  0  0  0
   11.5840    1.1160   23.7020 C   0  0  0  0  0  0  0  0  0  0  0  0
   10.2390    0.8260   24.1340 C   0  0  0  0  0  0  0  0  0  0  0  0
    8.9460    0.0860   24.3210 C   0  0  0  0  0  0  0  0  0  0  0  0
    8.0380    0.1610   23.1720 N   0  0  0  0  0  0  0  0  0  0  0  0
    8.2280    0.1520   21.8200 C   0  0  0  0  0  0  0  0  0  0  0  0
    9.1580    0.7940   21.3630 O   0  0  0  0  0  0  0  0  0  0  0  0
    7.2440   -0.6170   21.0680 N   0  0  0  0  0  0  0  0  0  0  0  0
    6.5650    0.0140   20.0450 C   0  0  0  0  0  0  0  0  0  0  0  0
    5.4220    0.7420   20.3320 C   0  0  0  0  0  0  0  0  0  0  0  0
    4.7160    1.4020   19.3210 C   0  0  0  0  0  0  0  0  0  0  0  0
    5.1960    1.3050   18.0260 C   0  0  0  0  0  0  0  0  0  0  0  0
    6.2950    0.6010   17.7180 N   0  0  0  0  0  0  0  0  0  0  0  0
    6.9500   -0.0250   18.7240 C   0  0  0  0  0  0  0  0  0  0  0  0
   10.0230   -0.5540   23.5300 C   0  0  0  0  0  0  0  0  0  0  0  0
   10.8680   -1.2420   22.8120 C   0  0  0  0  0  0  0  0  0  0  0  0
   10.2330   -2.7210   22.3340 Cl  0  0  0  0  0  0  0  0  0  0  0  0
  2  1  1  0
  2  3  2  0
  2  4  2  0
  2  5  1  0
  5  6  2  0
  6  7  1  0
  7  8  2  0
  8  9  1  0
  9 10  1  0
 10 11  1  0
 11 12  2  0
 11 13  1  0
 13 14  1  0
 14 15  2  0
 15 16  1  0
 16 17  2  0
 17 18  1  0
 14 19  1  0
 18 19  2  0
  8 20  1  0
  5 21  1  0
 20 21  2  0
 21 22  1  0
M  END
