pyridine_urea_4331
     RDKit          3D

 24 26  0  0  0  0  0  0  0  0999 V2000
   13.1050    0.1440   23.4000 C   0  0  0  0  0  0  0  0  0  0  0  0
   12.8560   -1.0380   22.4930 C   0  0  0  0  0  0  0  0  0  0  0  0
   11.4130   -1.5080   22.6370 C   0  0  1  0  0  0  0  0  0  0  0  0
   11.3300   -2.6120   23.6810 C   0  0  0  0  0  0  0  0  0  0  0  0
   10.3940   -0.4120   23.0700 C   0  0  2  0  0  0  0  0  0  0  0  0
    9.0740   -0.6540   22.5010 N   0  0  0  0  0  0  0  0  0  0  0  0
    8.5040    0.1420   21.5290 C   0  0  0  0  0  0  0  0  0  0  0  0
    8.9790    1.2230   21.1740 O   0  0  0  0  0  0  0  0  0  0  0  0
    7.3440   -0.4320   21.0500 N   0  0  0  0  0  0  0  0  0  0  0  0
    6.5910    0.1390   20.0210 C   0  0  0  0  0  0  0  0  0  0  0  0
    5.4280    0.8500   20.3260 C   0  0  0  0  0  0  0  0  0  0  0  0
    4.6870    1.4350   19.2990 C   0  0  0  0  0  0  0  0  0  0  0  0
    5.1430    1.2870   18.0090 C   0  0  0  0  0  0  0  0  0  0  0  0
    6.2470    0.6040   17.6930 N   0  0  0  0  0  0  0  0  0  0  0  0
    6.9430    0.0470   18.6990 C   0  0  0  0  0  0  0  0  0  0  0  0
   10.8070    0.9120   22.9350 C   0  0  0  0  0  0  0  0  0  0  0  0
    9.8110    1.8590   23.0400 N   0  0  0  0  0  0  0  0  0  0  0  0
   10.6130    3.0480   22.8760 C   0  0  0  0  0  0  0  0  0  0  0  0
   10.1640    4.3500   22.8950 C   0  0  0  0  0  0  0  0  0  0  0  0
   11.1120    5.4880   22.7140 C   0  0  0  0  0  0  0  0  0  0  0  0
   12.4680    5.1780   22.5240 C   0  0  0  0  0  0  0  0  0  0  0  0
   12.8870    3.8420   22.5120 C   0  0  0  0  0  0  0  0  0  0  0  0
   11.9510    2.8010   22.6890 C   0  0  0  0  0  0  0  0  0  0  0  0
   12.0720    1.4380   22.7260 N   0  0  0  0  0  0  0  0  0  0  0  0
  1  2  1  0
  2  3  1  0
  3  4  1  1
  3  5  1  0
  5  6  1  6
  6  7  1  0
  7  8  2  0
  7  9  1  0
  9 10  1  0
 10 11  2  0
 11 12  1  0
 12 13  2  0
 13 14  1  0
 10 15  1  0
 14 15  2  0
  5 16  1  0
 16 17  2  0
 17 18  1  0
 18 19  2  0
 19 20  1  0
 20 21  2  0
 21 22  1  0
 18 23  1  0
 22 23  2  0
 16 24  1  0
 23 24  1  0
M  END
