pyridine_urea_13626
     RDKit          3D

 27 30  0  0  0  0  0  0  0  0999 V2000
    8.6270   -0.7270   20.5520 O   0  0  0  0  0  0  0  0  0  0  0  0
    7.7950   -1.0110   21.3360 C   0  0  0  0  0  0  0  0  0  0  0  0
    6.4760   -1.0190   21.0710 N   0  0  0  0  0  0  0  0  0  0  0  0
    5.9660   -0.1710   20.0830 C   0  0  0  0  0  0  0  0  0  0  0  0
    4.7360    0.7140   20.2780 C   0  0  0  0  0  0  0  0  0  0  0  0
    4.3740    1.5550   19.0610 C   0  0  0  0  0  0  0  0  0  0  0  0
    5.2340    1.4310   17.8480 C   0  0  0  0  0  0  0  0  0  0  0  0
    6.3030    0.6190   17.7730 N   0  0  0  0  0  0  0  0  0  0  0  0
    6.6320   -0.1350   18.8510 C   0  0  0  0  0  0  0  0  0  0  0  0
    8.1900   -1.2900   22.5880 N   0  0  0  0  0  0  0  0  0  0  0  0
    9.3480   -0.5090   22.7410 C   0  0  0  0  0  0  0  0  0  0  0  0
   10.5600   -1.0370   23.0980 C   0  0  0  0  0  0  0  0  0  0  0  0
   11.7060   -0.2690   23.2320 C   0  0  0  0  0  0  0  0  0  0  0  0
   11.6030    1.0600   22.9810 C   0  0  0  0  0  0  0  0  0  0  0  0
   12.4780    1.9980   23.0040 N   0  0  0  0  0  0  0  0  0  0  0  0
   11.9550    3.2810   22.6630 C   0  0  0  0  0  0  0  0  0  0  0  0
   13.1550    3.8360   22.8000 C   0  0  0  0  0  0  0  0  0  0  0  0
   12.8570    2.2820   22.8280 C   0  0  0  0  0  0  0  0  0  0  0  0
   13.6440    1.1460   22.7150 C   0  0  0  0  0  0  0  0  0  0  0  0
   13.2790   -0.2080   22.7120 C   0  0  0  0  0  0  0  0  0  0  0  0
   11.9360   -0.5000   22.8410 C   0  0  0  0  0  0  0  0  0  0  0  0
   10.9770    0.4990   22.9800 C   0  0  0  0  0  0  0  0  0  0  0  0
   11.4860    1.9640   22.9690 C   0  0  0  0  0  0  0  0  0  0  0  0
   10.5080    2.9340   23.1080 F   0  0  0  0  0  0  0  0  0  0  0  0
   10.6320    3.2730   22.3930 N   0  0  0  0  0  0  0  0  0  0  0  0
   10.3750    1.7620   22.5910 C   0  0  0  0  0  0  0  0  0  0  0  0
    9.2630    0.9900   22.4730 C   0  0  0  0  0  0  0  0  0  0  0  0
  1  2  2  0
  2  3  1  0
  3  4  1  0
  4  5  2  0
  5  6  1  0
  6  7  2  0
  7  8  1  0
  4  9  1  0
  8  9  2  0
  2 10  1  0
 10 11  1  0
 11 12  2  0
 12 13  1  0
 13 14  2  0
 14 15  1  0
 15 16  1  0
 16 17  1  0
 17 18  1  0
 18 19  2  0
 19 20  1  0
 20 21  2  0
 21 22  1  0
 18 23  1  0
 22 23  2  0
 23 24  1  0
 16 25  2  0
 14 26  1  0
 25 26  1  0
 11 27  1  0
 26 27  2  0
M  END
