pyridine_urea_1094
     RDKit          3D

 21 22  0  0  0  0  0  0  0  0999 V2000
    8.5400    0.5980   21.0690 O   0  0  0  0  0  0  0  0  0  0  0  0
    7.8910   -0.4170   21.2720 C   0  0  0  0  0  0  0  0  0  0  0  0
    8.3790   -1.5870   21.9200 N   0  0  0  0  0  0  0  0  0  0  0  0
    9.6180   -1.4610   22.4680 C   0  0  0  0  0  0  0  0  0  0  0  0
    9.7480   -0.4700   23.4310 C   0  0  2  0  0  0  0  0  0  0  0  0
    9.6690    0.8740   23.0010 C   0  0  0  0  0  0  0  0  0  0  0  0
    8.5180    1.4110   23.6700 O   0  0  0  0  0  0  0  0  0  0  0  0
   10.9450    0.3290   23.1950 C   0  0  0  0  0  0  0  0  0  0  0  0
   12.3090    0.7550   22.8890 C   0  0  0  0  0  0  0  0  0  0  0  0
   13.4630   -0.0820   22.5380 C   0  0  0  0  0  0  0  0  0  0  0  0
   13.5820   -1.5880   22.4100 C   0  0  0  0  0  0  0  0  0  0  0  0
   12.3040   -1.8360   22.7460 C   0  0  0  0  0  0  0  0  0  0  0  0
   11.2310   -1.0490   23.0700 C   0  0  0  0  0  0  0  0  0  0  0  0
    9.9360   -2.1530   23.4120 Cl  0  0  0  0  0  0  0  0  0  0  0  0
    6.5960   -0.6060   20.9070 N   0  0  0  0  0  0  0  0  0  0  0  0
    6.0340    0.1130   19.9130 C   0  0  0  0  0  0  0  0  0  0  0  0
    4.8580    0.8300   20.0260 C   0  0  0  0  0  0  0  0  0  0  0  0
    4.4290    1.5250   18.9210 C   0  0  0  0  0  0  0  0  0  0  0  0
    5.1890    1.4650   17.7720 C   0  0  0  0  0  0  0  0  0  0  0  0
    6.3240    0.7780   17.6260 N   0  0  0  0  0  0  0  0  0  0  0  0
    6.7190    0.1140   18.7150 C   0  0  0  0  0  0  0  0  0  0  0  0
  1  2  2  0
  2  3  1  0
  3  4  1  0
  5  4  1  6
  5  6  1  0
  6  7  1  0
  5  8  1  0
  8  9  2  0
  9 10  1  0
 10 11  2  0
 11 12  1  0
  8 13  1  0
 12 13  2  0
 13 14  1  0
  2 15  1  0
 15 16  1  0
 16 17  2  0
 17 18  1  0
 18 19  2  0
 19 20  1  0
 16 21  1  0
 20 21  2  0
M  END
