pyridine_urea_8906
     RDKit          3D

 20 21  0  0  0  0  0  0  0  0999 V2000
    8.8420    1.2460   21.1810 O   0  0  0  0  0  0  0  0  0  0  0  0
    8.3220    0.1630   21.4900 C   0  0  0  0  0  0  0  0  0  0  0  0
    8.8380   -0.6380   22.4530 N   0  0  0  0  0  0  0  0  0  0  0  0
   10.2470   -0.8840   22.4210 C   0  0  0  0  0  0  0  0  0  0  0  0
   10.9790    0.0580   23.3910 C   0  0  0  0  0  0  0  0  0  0  0  0
   12.3300    0.3460   23.2070 C   0  0  0  0  0  0  0  0  0  0  0  0
   13.0170   -0.8450   23.2640 N   0  0  0  0  0  0  0  0  0  0  0  0
   13.2180   -1.6360   24.4230 C   0  0  0  0  0  0  0  0  0  0  0  0
   12.1250   -2.4310   24.6740 C   0  0  0  0  0  0  0  0  0  0  0  0
   11.3660   -2.6550   23.5580 C   0  0  0  0  0  0  0  0  0  0  0  0
   11.9870   -2.6400   22.3580 N   0  0  0  0  0  0  0  0  0  0  0  0
   12.8760   -1.6450   22.1680 C   0  0  0  0  0  0  0  0  0  0  0  0
   13.5880   -1.4600   20.9410 O   0  0  0  0  0  0  0  0  0  0  0  0
    7.1880   -0.3970   20.9610 N   0  0  0  0  0  0  0  0  0  0  0  0
    6.4400    0.2060   20.0010 C   0  0  0  0  0  0  0  0  0  0  0  0
    5.2570    0.8960   20.2820 C   0  0  0  0  0  0  0  0  0  0  0  0
    4.5700    1.5040   19.2290 C   0  0  0  0  0  0  0  0  0  0  0  0
    5.1490    1.3770   17.8580 C   0  0  0  0  0  0  0  0  0  0  0  0
    6.2760    0.6990   17.6250 N   0  0  0  0  0  0  0  0  0  0  0  0
    6.8890    0.1320   18.7030 C   0  0  0  0  0  0  0  0  0  0  0  0
  1  2  2  0
  2  3  1  0
  3  4  1  0
  4  5  1  0
  5  6  1  0
  6  7  1  0
  7  8  1  0
  8  9  1  0
  9 10  1  0
 10 11  1  0
  7 12  1  0
 11 12  1  0
 12 13  2  0
  2 14  1  0
 14 15  1  0
 15 16  2  0
 16 17  1  0
 17 18  2  0
 18 19  1  0
 15 20  1  0
 19 20  2  0
M  END
