pyridine_urea_14568
     RDKit          3D

 21 22  0  0  0  0  0  0  0  0999 V2000
   11.6940    2.2730   22.9600 C   0  0  0  0  0  0  0  0  0  0  0  0
   12.8790    1.3450   23.0710 C   0  0  0  0  0  0  0  0  0  0  0  0
   12.1250    0.3030   23.0860 C   0  0  0  0  0  0  0  0  0  0  0  0
   10.8360   -0.0100   23.0330 C   0  0  0  0  0  0  0  0  0  0  0  0
    9.5990    0.5710   22.9310 C   0  0  0  0  0  0  0  0  0  0  0  0
    8.5000   -0.2920   22.9580 N   0  0  0  0  0  0  0  0  0  0  0  0
    8.1430   -0.6100   21.5760 C   0  0  0  0  0  0  0  0  0  0  0  0
    8.9960   -0.8300   20.7910 O   0  0  0  0  0  0  0  0  0  0  0  0
    6.8090   -0.6010   21.3070 N   0  0  0  0  0  0  0  0  0  0  0  0
    6.2380    0.0460   20.2350 C   0  0  0  0  0  0  0  0  0  0  0  0
    5.0670    0.7970   20.2720 C   0  0  0  0  0  0  0  0  0  0  0  0
    4.5880    1.4180   19.1280 C   0  0  0  0  0  0  0  0  0  0  0  0
    5.2490    1.3130   17.9290 C   0  0  0  0  0  0  0  0  0  0  0  0
    6.3830    0.6150   17.7660 N   0  0  0  0  0  0  0  0  0  0  0  0
    6.8600   -0.0290   18.9840 C   0  0  0  0  0  0  0  0  0  0  0  0
   11.2270   -1.3190   23.1400 N   0  0  0  0  0  0  0  0  0  0  0  0
   12.6190   -1.1370   23.1970 C   0  0  0  0  0  0  0  0  0  0  0  0
   13.3850   -2.1930   23.2650 N   0  0  0  0  0  0  0  0  0  0  0  0
   13.2010   -2.7020   22.0620 C   0  0  0  0  0  0  0  0  0  0  0  0
   12.8810   -2.6640   24.5080 C   0  0  0  0  0  0  0  0  0  0  0  0
   13.4150    0.0860   23.1670 N   0  0  0  0  0  0  0  0  0  0  0  0
  1  2  1  0
  2  3  2  0
  3  4  1  0
  4  5  1  0
  5  6  1  0
  6  7  1  0
  7  8  2  0
  7  9  1  0
  9 10  1  0
 10 11  2  0
 11 12  1  0
 12 13  2  0
 13 14  1  0
 10 15  1  0
 14 15  2  0
  4 16  2  0
 16 17  1  0
 17 18  1  0
 18 19  1  0
 18 20  1  0
  2 21  1  0
 17 21  2  0
M  END
