pyridine_urea_9831
     RDKit          3D

 25 27  0  0  0  0  0  0  0  0999 V2000
    8.7130    0.7770   21.2980 O   0  0  0  0  0  0  0  0  0  0  0  0
    8.3920   -0.3820   21.5190 C   0  0  0  0  0  0  0  0  0  0  0  0
    7.1750   -0.8930   21.1180 N   0  0  0  0  0  0  0  0  0  0  0  0
    6.5020   -0.1530   20.0720 C   0  0  0  0  0  0  0  0  0  0  0  0
    5.2280    0.6060   20.4440 C   0  0  0  0  0  0  0  0  0  0  0  0
    4.5230    1.4000   19.3380 C   0  0  0  0  0  0  0  0  0  0  0  0
    5.1900    1.3390   17.9660 C   0  0  0  0  0  0  0  0  0  0  0  0
    6.3610    0.5910   17.7890 N   0  0  0  0  0  0  0  0  0  0  0  0
    6.9750   -0.1150   18.7830 C   0  0  0  0  0  0  0  0  0  0  0  0
    9.2080   -1.2890   22.1850 N   0  0  0  0  0  0  0  0  0  0  0  0
   10.5760   -0.9330   22.2660 C   0  0  2  0  0  0  0  0  0  0  0  0
   11.6560   -1.7430   21.9070 C   0  0  0  0  0  0  0  0  0  0  0  0
   12.7790   -1.1810   22.5240 C   0  0  0  0  0  0  0  0  0  0  0  0
   12.3430   -0.3990   23.5230 N   0  0  0  0  0  0  0  0  0  0  0  0
   12.7250    0.8890   23.3610 C   0  0  0  0  0  0  0  0  0  0  0  0
   11.7680    1.4700   22.5760 C   0  0  0  0  0  0  0  0  0  0  0  0
   10.7600    2.4070   22.8930 C   0  0  0  0  0  0  0  0  0  0  0  0
   11.2800    3.7890   23.1480 C   0  0  0  0  0  0  0  0  0  0  0  0
   10.8840    4.4980   24.2760 C   0  0  0  0  0  0  0  0  0  0  0  0
   11.3760    5.8730   24.5510 C   0  0  0  0  0  0  0  0  0  0  0  0
   12.2600    6.4510   23.6300 C   0  0  0  0  0  0  0  0  0  0  0  0
   12.6510    5.7290   22.5030 C   0  0  0  0  0  0  0  0  0  0  0  0
   12.1750    4.4210   22.2550 C   0  0  0  0  0  0  0  0  0  0  0  0
   11.0720   -0.8410   23.7080 C   0  0  0  0  0  0  0  0  0  0  0  0
   10.4120   -1.2370   24.8990 O   0  0  0  0  0  0  0  0  0  0  0  0
  1  2  2  0
  2  3  1  0
  3  4  1  0
  4  5  2  0
  5  6  1  0
  6  7  2  0
  7  8  1  0
  4  9  1  0
  8  9  2  0
  2 10  1  0
 11 10  1  1
 11 12  1  0
 12 13  1  0
 13 14  1  0
 14 15  1  0
 15 16  1  0
 16 17  1  0
 17 18  1  0
 18 19  2  0
 19 20  1  0
 20 21  2  0
 21 22  1  0
 18 23  1  0
 22 23  2  0
 11 24  1  0
 14 24  1  0
 24 25  2  0
M  END
