pyridine_urea_7689
     RDKit          3D

 22 24  0  0  0  0  0  0  0  0999 V2000
   12.6030   -1.8210   21.5830 C   0  0  0  0  0  0  0  0  0  0  0  0
   11.9250   -0.6340   22.2850 C   0  0  1  0  0  0  0  0  0  0  0  0
   10.5060   -0.6020   21.9630 C   0  0  0  0  0  0  0  0  0  0  0  0
    9.7440   -1.3170   22.7930 C   0  0  2  0  0  0  0  0  0  0  0  0
    8.5260   -0.5330   22.8750 N   0  0  0  0  0  0  0  0  0  0  0  0
    8.0560   -0.0180   21.6940 C   0  0  0  0  0  0  0  0  0  0  0  0
    8.5470    1.0030   21.2230 O   0  0  0  0  0  0  0  0  0  0  0  0
    7.0550   -0.7040   21.1010 N   0  0  0  0  0  0  0  0  0  0  0  0
    6.3780   -0.0210   20.1410 C   0  0  0  0  0  0  0  0  0  0  0  0
    5.1920    0.6900   20.3390 C   0  0  0  0  0  0  0  0  0  0  0  0
    4.5770    1.4080   19.1470 C   0  0  0  0  0  0  0  0  0  0  0  0
    5.2300    1.3210   17.9210 C   0  0  0  0  0  0  0  0  0  0  0  0
    6.3730    0.6220   17.7630 N   0  0  0  0  0  0  0  0  0  0  0  0
    6.8880   -0.0070   18.8480 C   0  0  0  0  0  0  0  0  0  0  0  0
   10.8440   -1.1210   23.6410 C   0  0  0  0  0  0  0  0  0  0  0  0
   11.8620   -0.3910   23.2240 C   0  0  0  0  0  0  0  0  0  0  0  0
   13.0280   -0.0500   23.7990 C   0  0  0  0  0  0  0  0  0  0  0  0
   12.8870   -0.8670   25.3560 S   0  0  0  0  0  0  0  0  0  0  0  0
   11.3470   -1.3980   24.8010 C   0  0  0  0  0  0  0  0  0  0  0  0
   12.4250   -0.4010   23.8850 S   0  0  0  0  0  0  0  0  0  0  0  0
   13.6850   -1.1090   24.0360 O   0  0  0  0  0  0  0  0  0  0  0  0
   12.1690    0.9780   24.2770 O   0  0  0  0  0  0  0  0  0  0  0  0
  2  1  1  1
  2  3  1  0
  3  4  1  0
  4  5  1  1
  5  6  1  0
  6  7  2  0
  6  8  1  0
  8  9  1  0
  9 10  2  0
 10 11  1  0
 11 12  2  0
 12 13  1  0
  9 14  1  0
 13 14  2  0
  4 15  1  0
 15 16  1  0
 16 17  2  0
 17 18  1  0
 15 19  2  0
 18 19  1  0
  2 20  1  0
 20 19  1  0
 20 21  2  0
 20 22  2  0
M  END
