pyridine_urea_3886
     RDKit          3D

 20 21  0  0  0  0  0  0  0  0999 V2000
   10.9210    3.3310   22.6570 C   0  0  0  0  0  0  0  0  0  0  0  0
   10.2380    2.0880   22.4770 O   0  0  0  0  0  0  0  0  0  0  0  0
    9.8880    1.4710   23.6630 C   0  0  0  0  0  0  0  0  0  0  0  0
    9.0160    1.9080   24.4030 O   0  0  0  0  0  0  0  0  0  0  0  0
   10.6110    0.3140   23.9720 C   0  0  2  0  0  0  0  0  0  0  0  0
   11.9580    0.5660   24.1320 C   0  0  0  0  0  0  0  0  0  0  0  0
   12.6490    0.4660   22.9640 C   0  0  0  0  0  0  0  0  0  0  0  0
   12.7330   -0.8250   22.4750 C   0  0  0  0  0  0  0  0  0  0  0  0
   11.4960   -1.4770   22.3500 C   0  0  0  0  0  0  0  0  0  0  0  0
   10.3200   -0.9510   23.2280 C   0  0  2  0  0  0  0  0  0  0  0  0
    9.0500   -1.0120   22.5020 N   0  0  0  0  0  0  0  0  0  0  0  0
    8.4330   -0.2040   21.5940 C   0  0  0  0  0  0  0  0  0  0  0  0
    8.8370    0.9000   21.2710 O   0  0  0  0  0  0  0  0  0  0  0  0
    7.2740   -0.6630   21.0290 N   0  0  0  0  0  0  0  0  0  0  0  0
    6.4940    0.0260   20.0780 C   0  0  0  0  0  0  0  0  0  0  0  0
    5.3330    0.7490   20.3270 C   0  0  0  0  0  0  0  0  0  0  0  0
    4.6860    1.3840   19.2870 C   0  0  0  0  0  0  0  0  0  0  0  0
    5.1890    1.2980   18.0180 C   0  0  0  0  0  0  0  0  0  0  0  0
    6.2970    0.6090   17.7140 N   0  0  0  0  0  0  0  0  0  0  0  0
    6.9140   -0.0060   18.7520 C   0  0  0  0  0  0  0  0  0  0  0  0
  1  2  1  0
  2  3  1  0
  3  4  2  0
  5  3  1  6
  5  6  1  0
  6  7  1  0
  7  8  1  0
  8  9  1  0
  5 10  1  0
  9 10  1  0
 10 11  1  6
 11 12  1  0
 12 13  2  0
 12 14  1  0
 14 15  1  0
 15 16  2  0
 16 17  1  0
 17 18  2  0
 18 19  1  0
 15 20  1  0
 19 20  2  0
M  END
