pyridine_urea_14509
     RDKit          3D

 23 24  0  0  0  0  0  0  0  0999 V2000
   14.9440   -5.0960   20.4700 C   0  0  0  0  0  0  0  0  0  0  0  0
   14.3370   -3.8410   20.0780 O   0  0  0  0  0  0  0  0  0  0  0  0
   13.2200   -3.3310   20.7000 C   0  0  0  0  0  0  0  0  0  0  0  0
   12.1200   -3.6150   20.3100 O   0  0  0  0  0  0  0  0  0  0  0  0
   13.4080   -2.4170   21.7340 C   0  0  0  0  0  0  0  0  0  0  0  0
   12.1420   -1.8380   22.0080 N   0  0  0  0  0  0  0  0  0  0  0  0
   11.0540   -2.4460   21.5140 N   0  0  0  0  0  0  0  0  0  0  0  0
   10.0340   -1.5700   22.0440 C   0  0  0  0  0  0  0  0  0  0  0  0
    8.7030   -1.8840   21.7630 C   0  0  0  0  0  0  0  0  0  0  0  0
   10.5780   -0.5270   22.7780 C   0  0  0  0  0  0  0  0  0  0  0  0
    9.7740    0.5230   23.4400 C   0  0  0  0  0  0  0  0  0  0  0  0
    8.4890    0.4880   23.0760 N   0  0  0  0  0  0  0  0  0  0  0  0
    8.2890    0.7100   21.7540 C   0  0  0  0  0  0  0  0  0  0  0  0
    8.9580    1.5440   21.1510 O   0  0  0  0  0  0  0  0  0  0  0  0
    7.3020   -0.0230   21.1560 N   0  0  0  0  0  0  0  0  0  0  0  0
    6.5080    0.4080   20.1020 C   0  0  0  0  0  0  0  0  0  0  0  0
    5.3390    1.1410   20.2680 C   0  0  0  0  0  0  0  0  0  0  0  0
    4.6260    1.5540   19.1550 C   0  0  0  0  0  0  0  0  0  0  0  0
    5.1220    1.2100   17.9220 C   0  0  0  0  0  0  0  0  0  0  0  0
    6.2320    0.4970   17.7270 N   0  0  0  0  0  0  0  0  0  0  0  0
    6.9060    0.1050   18.8160 C   0  0  0  0  0  0  0  0  0  0  0  0
   11.9520   -0.6870   22.7580 C   0  0  0  0  0  0  0  0  0  0  0  0
   12.8480    0.1700   23.3930 C   0  0  0  0  0  0  0  0  0  0  0  0
  1  2  1  0
  2  3  1  0
  3  4  2  0
  3  5  1  0
  5  6  1  0
  6  7  1  0
  7  8  2  0
  8  9  1  0
  8 10  1  0
 10 11  1  0
 11 12  1  0
 12 13  1  0
 13 14  2  0
 13 15  1  0
 15 16  1  0
 16 17  2  0
 17 18  1  0
 18 19  2  0
 19 20  1  0
 16 21  1  0
 20 21  2  0
  6 22  1  0
 10 22  2  0
 22 23  1  0
M  END
