pyridine_urea_2212
     RDKit          3D

 26 28  0  0  0  0  0  0  0  0999 V2000
    8.0610   -0.2530   25.7690 C   0  0  0  0  0  0  0  0  0  0  0  0
    8.6410   -0.9210   24.6430 O   0  0  0  0  0  0  0  0  0  0  0  0
    9.9410   -0.5560   24.3950 C   0  0  0  0  0  0  0  0  0  0  0  0
    9.8270    0.1330   25.4100 O   0  0  0  0  0  0  0  0  0  0  0  0
    9.6160   -1.5320   23.2410 C   0  0  2  0  0  0  0  0  0  0  0  0
   10.5800   -1.4600   22.0390 C   0  0  0  0  0  0  0  0  0  0  0  0
   12.0290   -1.3060   22.3800 C   0  0  2  0  0  0  0  0  0  0  0  0
   12.6210   -2.3450   22.9720 C   0  0  0  0  0  0  0  0  0  0  0  0
   12.6940   -1.9290   24.3380 C   0  0  0  0  0  0  0  0  0  0  0  0
   13.0250   -0.5380   24.6190 C   0  0  0  0  0  0  0  0  0  0  0  0
   12.0520    0.4830   24.4640 C   0  0  0  0  0  0  0  0  0  0  0  0
   10.9960    1.2930   23.9920 C   0  0  0  0  0  0  0  0  0  0  0  0
   10.1480    1.2610   22.9180 C   0  0  0  0  0  0  0  0  0  0  0  0
   10.2670    0.2650   22.0150 C   0  0  0  0  0  0  0  0  0  0  0  0
   11.3960   -0.6410   22.3740 C   0  0  0  0  0  0  0  0  0  0  0  0
   12.2370   -0.5980   23.4630 C   0  0  0  0  0  0  0  0  0  0  0  0
    8.2250   -1.2860   22.7210 N   0  0  0  0  0  0  0  0  0  0  0  0
    7.9410   -0.4150   21.6860 C   0  0  0  0  0  0  0  0  0  0  0  0
    8.6070    0.5620   21.3660 O   0  0  0  0  0  0  0  0  0  0  0  0
    6.7900   -0.7980   21.0730 N   0  0  0  0  0  0  0  0  0  0  0  0
    6.2700   -0.0870   20.0590 C   0  0  0  0  0  0  0  0  0  0  0  0
    5.0830    0.5820   20.3010 C   0  0  0  0  0  0  0  0  0  0  0  0
    4.4900    1.4020   19.1580 C   0  0  0  0  0  0  0  0  0  0  0  0
    5.2210    1.4420   17.8380 C   0  0  0  0  0  0  0  0  0  0  0  0
    6.3640    0.7900   17.6130 N   0  0  0  0  0  0  0  0  0  0  0  0
    6.8510    0.0760   18.6490 C   0  0  0  0  0  0  0  0  0  0  0  0
  1  2  1  0
  2  3  1  0
  3  4  2  0
  3  5  1  0
  5  6  1  6
  7  6  1  1
  7  8  1  0
  8  9  1  0
  9 10  1  0
 10 11  1  0
 11 12  2  0
 12 13  1  0
 13 14  2  0
 14 15  1  0
  7 16  1  0
 11 16  1  0
 15 16  2  0
  5 17  1  0
 17 18  1  0
 18 19  2  0
 18 20  1  0
 20 21  1  0
 21 22  2  0
 22 23  1  0
 23 24  2  0
 24 25  1  0
 21 26  1  0
 25 26  2  0
M  END
