pyridine_urea_1105
     RDKit          3D

 21 23  0  0  0  0  0  0  0  0999 V2000
    8.6940    0.7050   21.2410 O   0  0  0  0  0  0  0  0  0  0  0  0
    8.2070   -0.3730   21.5670 C   0  0  0  0  0  0  0  0  0  0  0  0
    6.9280   -0.8320   21.0510 N   0  0  0  0  0  0  0  0  0  0  0  0
    6.3420   -0.0950   20.0300 C   0  0  0  0  0  0  0  0  0  0  0  0
    5.1680    0.6260   20.2620 C   0  0  0  0  0  0  0  0  0  0  0  0
    4.6120    1.3580   19.2090 C   0  0  0  0  0  0  0  0  0  0  0  0
    5.2460    1.3470   17.9640 C   0  0  0  0  0  0  0  0  0  0  0  0
    6.3740    0.6520   17.7340 N   0  0  0  0  0  0  0  0  0  0  0  0
    6.8970   -0.0530   18.7680 C   0  0  0  0  0  0  0  0  0  0  0  0
    8.7400   -1.3000   22.4330 N   0  0  0  0  0  0  0  0  0  0  0  0
   10.0690   -1.0590   22.9430 C   0  0  2  0  0  0  0  0  0  0  0  0
   10.1070    0.3690   23.4310 C   0  0  0  0  0  0  0  0  0  0  0  0
   10.9890    0.6050   24.4320 C   0  0  0  0  0  0  0  0  0  0  0  0
   12.3430    0.5820   24.0750 C   0  0  0  0  0  0  0  0  0  0  0  0
   12.6400    0.2910   22.7780 C   0  0  0  0  0  0  0  0  0  0  0  0
   12.2910   -0.9950   22.4070 N   0  0  0  0  0  0  0  0  0  0  0  0
   13.0050   -2.1590   22.6290 C   0  0  0  0  0  0  0  0  0  0  0  0
   13.7770   -2.4600   23.5200 O   0  0  0  0  0  0  0  0  0  0  0  0
   12.5660   -2.8900   21.6190 N   0  0  0  0  0  0  0  0  0  0  0  0
   11.2410   -2.6720   21.4980 N   0  0  0  0  0  0  0  0  0  0  0  0
   11.0490   -1.2970   22.0110 C   0  0  1  0  0  0  0  0  0  0  0  0
  1  2  2  0
  2  3  1  0
  3  4  1  0
  4  5  2  0
  5  6  1  0
  6  7  2  0
  7  8  1  0
  4  9  1  0
  8  9  2  0
  2 10  1  0
 11 10  1  6
 11 12  1  0
 12 13  1  0
 13 14  1  0
 14 15  1  0
 15 16  1  0
 16 17  1  0
 17 18  2  0
 17 19  1  0
 19 20  1  0
 11 21  1  0
 16 21  1  0
 21 20  1  1
M  END
