pyridine_urea_8338
     RDKit          3D

 22 23  0  0  0  0  0  0  0  0999 V2000
   13.2900   -2.2130   22.7520 C   0  0  0  0  0  0  0  0  0  0  0  0
   13.0880   -1.3880   23.9170 O   0  0  0  0  0  0  0  0  0  0  0  0
   11.8630   -0.6970   23.7200 C   0  0  0  0  0  0  0  0  0  0  0  0
   11.6910   -1.9120   24.4720 C   0  0  0  0  0  0  0  0  0  0  0  0
   12.7350   -1.1630   23.9160 C   0  0  0  0  0  0  0  0  0  0  0  0
   13.4710   -2.7350   24.8040 Br  0  0  0  0  0  0  0  0  0  0  0  0
   11.3900   -0.1850   23.4770 C   0  0  0  0  0  0  0  0  0  0  0  0
   10.3830    0.6490   23.0880 C   0  0  0  0  0  0  0  0  0  0  0  0
    9.1690   -0.2200   23.1010 C   0  0  0  0  0  0  0  0  0  0  0  0
    8.3790   -0.8470   22.6120 N   0  0  0  0  0  0  0  0  0  0  0  0
    8.0230   -0.0700   21.4640 C   0  0  0  0  0  0  0  0  0  0  0  0
    8.7010    1.1500   21.0660 O   0  0  0  0  0  0  0  0  0  0  0  0
    6.9050   -0.7180   20.8650 N   0  0  0  0  0  0  0  0  0  0  0  0
    6.3400   -0.0200   19.8710 C   0  0  0  0  0  0  0  0  0  0  0  0
    5.0510    0.7170   20.1910 C   0  0  0  0  0  0  0  0  0  0  0  0
    4.3700    1.5460   19.1100 C   0  0  0  0  0  0  0  0  0  0  0  0
    5.1310    1.5110   17.7900 C   0  0  0  0  0  0  0  0  0  0  0  0
    6.2990    0.7900   17.6280 N   0  0  0  0  0  0  0  0  0  0  0  0
    6.8900    0.0450   18.6300 C   0  0  0  0  0  0  0  0  0  0  0  0
   12.0070    0.9550   22.7330 C   0  0  0  0  0  0  0  0  0  0  0  0
   12.7250    0.1330   23.1050 C   0  0  0  0  0  0  0  0  0  0  0  0
   14.0980    0.1980   22.8600 O   0  0  0  0  0  0  0  0  0  0  0  0
  1  2  1  0
  2  3  1  0
  3  4  2  0
  4  5  1  0
  5  6  1  0
  5  7  2  0
  7  8  1  0
  8  9  1  0
  9 10  1  0
 10 11  1  0
 11 12  2  0
 11 13  1  0
 13 14  1  0
 14 15  2  0
 15 16  1  0
 16 17  2  0
 17 18  1  0
 14 19  1  0
 18 19  2  0
  7 20  1  0
  3 21  1  0
 20 21  2  0
 21 22  1  0
M  END
