pyridine_urea_6170
     RDKit          3D

 24 26  0  0  0  0  0  0  0  0999 V2000
    8.7970    1.4710   21.2070 O   0  0  0  0  0  0  0  0  0  0  0  0
    8.5160    0.2780   21.3410 C   0  0  0  0  0  0  0  0  0  0  0  0
    7.2430   -0.2220   21.2340 N   0  0  0  0  0  0  0  0  0  0  0  0
    6.5310    0.2460   20.0830 C   0  0  0  0  0  0  0  0  0  0  0  0
    5.2700    1.0370   20.3770 C   0  0  0  0  0  0  0  0  0  0  0  0
    4.5690    1.5390   19.1720 C   0  0  0  0  0  0  0  0  0  0  0  0
    5.1090    1.2500   17.9350 C   0  0  0  0  0  0  0  0  0  0  0  0
    6.2220    0.5350   17.7200 N   0  0  0  0  0  0  0  0  0  0  0  0
    6.9040    0.0490   18.7740 C   0  0  0  0  0  0  0  0  0  0  0  0
    9.4510   -0.6840   21.5500 N   0  0  0  0  0  0  0  0  0  0  0  0
    9.7200   -1.2720   22.8590 C   0  0  0  0  0  0  0  0  0  0  0  0
    8.7430   -2.0480   23.3900 C   0  0  0  0  0  0  0  0  0  0  0  0
    8.6060   -3.2080   22.4870 C   0  0  0  0  0  0  0  0  0  0  0  0
    7.6550   -4.2230   22.7610 C   0  0  0  0  0  0  0  0  0  0  0  0
    6.8070   -4.1680   23.8940 C   0  0  0  0  0  0  0  0  0  0  0  0
    6.8970   -3.0950   24.7710 C   0  0  0  0  0  0  0  0  0  0  0  0
    6.0100   -3.0930   25.9150 O   0  0  0  0  0  0  0  0  0  0  0  0
    4.7040   -3.4470   25.7170 C   0  0  0  0  0  0  0  0  0  0  0  0
    3.9540   -3.1180   26.7940 F   0  0  0  0  0  0  0  0  0  0  0  0
    4.6400   -4.7850   25.5460 F   0  0  0  0  0  0  0  0  0  0  0  0
    4.1410   -2.8610   24.6270 F   0  0  0  0  0  0  0  0  0  0  0  0
    7.8460   -1.9480   24.6180 C   0  0  0  0  0  0  0  0  0  0  0  0
   11.1750   -1.7320   22.8850 C   0  0  0  0  0  0  0  0  0  0  0  0
   11.0540   -0.7690   23.7380 C   0  0  0  0  0  0  0  0  0  0  0  0
  1  2  2  0
  2  3  1  0
  3  4  1  0
  4  5  2  0
  5  6  1  0
  6  7  2  0
  7  8  1  0
  4  9  1  0
  8  9  2  0
  2 10  1  0
 11 10  1  0
 11 12  1  0
 12 13  2  0
 13 14  1  0
 14 15  2  0
 15 16  1  0
 16 17  1  0
 17 18  1  0
 18 19  1  0
 18 20  1  0
 18 21  1  0
 12 22  1  0
 16 22  2  0
 11 23  1  0
 11 24  1  0
 23 24  1  0
M  END
