pyridine_urea_8541
     RDKit          3D

 21 22  0  0  0  0  0  0  0  0999 V2000
   13.0610   -2.3300   21.2210 C   0  0  0  0  0  0  0  0  0  0  0  0
   13.0560   -2.5760   22.7180 C   0  0  0  0  0  0  0  0  0  0  0  0
   13.1260   -1.5080   23.6160 C   0  0  0  0  0  0  0  0  0  0  0  0
   13.1240   -0.2010   23.0850 C   0  0  0  0  0  0  0  0  0  0  0  0
   12.4240    0.7670   23.7390 C   0  0  0  0  0  0  0  0  0  0  0  0
   11.0750    1.3800   24.0200 C   0  0  0  0  0  0  0  0  0  0  0  0
    9.9970    0.7650   23.3790 C   0  0  0  0  0  0  0  0  0  0  0  0
   10.2770   -0.4470   22.4610 C   0  0  0  0  0  0  0  0  0  0  0  0
    9.1440   -1.0940   21.7390 N   0  0  0  0  0  0  0  0  0  0  0  0
    8.2000   -0.1970   21.3640 C   0  0  0  0  0  0  0  0  0  0  0  0
    8.4560    1.0030   21.3470 O   0  0  0  0  0  0  0  0  0  0  0  0
    7.0080   -0.7300   20.9870 N   0  0  0  0  0  0  0  0  0  0  0  0
    6.3570   -0.0440   19.9720 C   0  0  0  0  0  0  0  0  0  0  0  0
    5.1550    0.6140   20.2000 C   0  0  0  0  0  0  0  0  0  0  0  0
    4.5630    1.3070   19.1540 C   0  0  0  0  0  0  0  0  0  0  0  0
    5.1390    1.3590   17.8990 C   0  0  0  0  0  0  0  0  0  0  0  0
    6.2960    0.7190   17.6640 N   0  0  0  0  0  0  0  0  0  0  0  0
    6.8700    0.0420   18.6880 C   0  0  0  0  0  0  0  0  0  0  0  0
   11.7080   -0.9600   22.2700 C   0  0  0  0  0  0  0  0  0  0  0  0
   12.9400   -0.5220   22.7870 C   0  0  0  0  0  0  0  0  0  0  0  0
   11.4980    0.0800   23.0620 N   0  0  0  0  0  0  0  0  0  0  0  0
  1  2  1  0
  2  3  1  0
  3  4  1  0
  4  5  1  0
  5  6  2  0
  6  7  1  0
  7  8  2  0
  8  9  1  0
  9 10  1  0
 10 11  2  0
 10 12  1  0
 12 13  1  0
 13 14  2  0
 14 15  1  0
 15 16  2  0
 16 17  1  0
 13 18  1  0
 17 18  2  0
  8 19  1  0
 19 20  1  0
  5 21  1  0
 19 21  2  0
M  END
