pyridine_urea_5241
     RDKit          3D

 19 20  0  0  0  0  0  0  0  0999 V2000
   10.2820    1.0870   23.0960 C   0  0  0  0  0  0  0  0  0  0  0  0
   10.0250   -0.3490   23.3540 C   0  0  1  0  0  0  0  0  0  0  0  0
    9.1660   -0.9420   22.3490 N   0  0  0  0  0  0  0  0  0  0  0  0
    8.4680    0.0400   21.4890 C   0  0  0  0  0  0  0  0  0  0  0  0
    8.9760    1.1590   21.2100 O   0  0  0  0  0  0  0  0  0  0  0  0
    7.2570   -0.4470   21.0770 N   0  0  0  0  0  0  0  0  0  0  0  0
    6.5390    0.1390   20.0440 C   0  0  0  0  0  0  0  0  0  0  0  0
    5.3830    0.8310   20.3310 C   0  0  0  0  0  0  0  0  0  0  0  0
    4.6230    1.4870   19.2010 C   0  0  0  0  0  0  0  0  0  0  0  0
    5.1410    1.3540   17.9260 C   0  0  0  0  0  0  0  0  0  0  0  0
    6.2660    0.6600   17.6870 N   0  0  0  0  0  0  0  0  0  0  0  0
    6.9260    0.0770   18.7200 C   0  0  0  0  0  0  0  0  0  0  0  0
   11.3760   -1.0870   23.4680 C   0  0  0  0  0  0  0  0  0  0  0  0
   11.4870   -1.1570   22.1460 C   0  0  0  0  0  0  0  0  0  0  0  0
   12.6980   -1.8280   21.9290 C   0  0  0  0  0  0  0  0  0  0  0  0
   13.3920   -2.2170   23.0800 N   0  0  0  0  0  0  0  0  0  0  0  0
   12.6800   -1.8180   24.1990 C   0  0  0  0  0  0  0  0  0  0  0  0
   13.7800   -2.4770   25.3220 Cl  0  0  0  0  0  0  0  0  0  0  0  0
   12.4760   -1.6860   22.8910 C   0  0  0  0  0  0  0  0  0  0  0  0
  2  1  1  6
  2  3  1  0
  3  4  1  0
  4  5  2  0
  4  6  1  0
  6  7  1  0
  7  8  2  0
  8  9  1  0
  9 10  2  0
 10 11  1  0
  7 12  1  0
 11 12  2  0
  2 13  1  0
 13 14  2  0
 14 15  1  0
 15 16  2  0
 16 17  1  0
 17 18  1  0
 13 19  1  0
 17 19  2  0
M  END
