pyridine_urea_4258
     RDKit          3D

 24 26  0  0  0  0  0  0  0  0999 V2000
    8.5780    0.5500   21.1970 O   0  0  0  0  0  0  0  0  0  0  0  0
    8.0870   -0.5050   21.5820 C   0  0  0  0  0  0  0  0  0  0  0  0
    6.9310   -1.0130   21.0570 N   0  0  0  0  0  0  0  0  0  0  0  0
    6.3500   -0.2130   20.0100 C   0  0  0  0  0  0  0  0  0  0  0  0
    5.0750    0.5610   20.3440 C   0  0  0  0  0  0  0  0  0  0  0  0
    4.4640    1.4180   19.2360 C   0  0  0  0  0  0  0  0  0  0  0  0
    5.2070    1.4050   17.9040 C   0  0  0  0  0  0  0  0  0  0  0  0
    6.3690    0.6340   17.7570 N   0  0  0  0  0  0  0  0  0  0  0  0
    6.9060   -0.1310   18.7570 C   0  0  0  0  0  0  0  0  0  0  0  0
    8.6640   -1.2660   22.5830 N   0  0  0  0  0  0  0  0  0  0  0  0
    9.9980   -0.9090   22.7360 C   0  0  0  0  0  0  0  0  0  0  0  0
   11.0610   -1.4470   22.0270 C   0  0  0  0  0  0  0  0  0  0  0  0
   12.3700   -1.0280   22.1770 C   0  0  0  0  0  0  0  0  0  0  0  0
   12.6220   -0.0220   23.0730 C   0  0  0  0  0  0  0  0  0  0  0  0
   13.8740    0.3220   23.1070 F   0  0  0  0  0  0  0  0  0  0  0  0
   11.6630    0.5730   23.8540 C   0  0  0  0  0  0  0  0  0  0  0  0
   10.4070    0.0790   23.6290 C   0  0  0  0  0  0  0  0  0  0  0  0
    8.9580    0.2020   24.0470 C   0  0  0  0  0  0  0  0  0  0  0  0
    8.6050    0.9940   25.0910 N   0  0  0  0  0  0  0  0  0  0  0  0
    7.5610    1.8180   24.8980 C   0  0  0  0  0  0  0  0  0  0  0  0
    6.7280    2.0560   26.0890 C   0  0  0  0  0  0  0  0  0  0  0  0
    7.3320    1.1850   27.4550 S   0  0  0  0  0  0  0  0  0  0  0  0
    8.7480    0.6010   26.5250 C   0  0  0  0  0  0  0  0  0  0  0  0
    9.7630   -0.0770   27.1130 O   0  0  0  0  0  0  0  0  0  0  0  0
  1  2  2  0
  2  3  1  0
  3  4  1  0
  4  5  2  0
  5  6  1  0
  6  7  2  0
  7  8  1  0
  4  9  1  0
  8  9  2  0
  2 10  1  0
 10 11  1  0
 11 12  2  0
 12 13  1  0
 13 14  2  0
 14 15  1  0
 14 16  1  0
 11 17  1  0
 16 17  2  0
 17 18  1  0
 18 19  1  0
 19 20  1  0
 20 21  2  0
 21 22  1  0
 19 23  1  0
 22 23  1  0
 23 24  2  0
M  END
