pyridine_urea_5150
     RDKit          3D

 20 21  0  0  0  0  0  0  0  0999 V2000
    8.5610   -1.2670   26.8520 C   0  0  0  0  0  0  0  0  0  0  0  0
    9.2810   -0.2540   26.0180 C   0  0  0  0  0  0  0  0  0  0  0  0
    8.6750    0.9900   25.8720 C   0  0  0  0  0  0  0  0  0  0  0  0
    9.5190   -0.8310   24.5900 C   0  0  0  0  0  0  0  0  0  0  0  0
   10.3320   -0.0420   23.7720 C   0  0  1  0  0  0  0  0  0  0  0  0
   11.7110    0.3820   24.2660 C   0  0  0  0  0  0  0  0  0  0  0  0
   12.8350    0.0530   23.5160 C   0  0  0  0  0  0  0  0  0  0  0  0
   12.7220   -1.0410   22.4620 C   0  0  0  0  0  0  0  0  0  0  0  0
   11.4230   -1.4490   22.1840 C   0  0  0  0  0  0  0  0  0  0  0  0
   10.4400   -0.5200   22.4770 C   0  0  1  0  0  0  0  0  0  0  0  0
    9.1450   -0.9620   22.0390 N   0  0  0  0  0  0  0  0  0  0  0  0
    8.3980   -0.0150   21.3850 C   0  0  0  0  0  0  0  0  0  0  0  0
    8.8310    1.1230   21.1480 O   0  0  0  0  0  0  0  0  0  0  0  0
    7.1610   -0.4910   21.0320 N   0  0  0  0  0  0  0  0  0  0  0  0
    6.4600    0.1130   19.9970 C   0  0  0  0  0  0  0  0  0  0  0  0
    5.2910    0.8310   20.2900 C   0  0  0  0  0  0  0  0  0  0  0  0
    4.6240    1.4460   19.2440 C   0  0  0  0  0  0  0  0  0  0  0  0
    5.1520    1.3130   17.9760 C   0  0  0  0  0  0  0  0  0  0  0  0
    6.2510    0.6310   17.6620 N   0  0  0  0  0  0  0  0  0  0  0  0
    6.8800    0.0450   18.6880 C   0  0  0  0  0  0  0  0  0  0  0  0
  1  2  1  0
  2  3  1  0
  2  4  1  0
  5  4  1  1
  5  6  1  0
  6  7  1  0
  7  8  1  0
  8  9  1  0
  5 10  1  0
  9 10  1  0
 10 11  1  1
 11 12  1  0
 12 13  2  0
 12 14  1  0
 14 15  1  0
 15 16  2  0
 16 17  1  0
 17 18  2  0
 18 19  1  0
 15 20  1  0
 19 20  2  0
M  END
