pyridine_urea_10240
     RDKit          3D

 23 25  0  0  0  0  0  0  0  0999 V2000
    8.5440    1.3590   20.9770 O   0  0  0  0  0  0  0  0  0  0  0  0
    8.0750    0.3500   21.5120 C   0  0  0  0  0  0  0  0  0  0  0  0
    7.0470   -0.4030   21.0140 N   0  0  0  0  0  0  0  0  0  0  0  0
    6.3090    0.1870   20.0030 C   0  0  0  0  0  0  0  0  0  0  0  0
    5.0980    0.8360   20.1650 C   0  0  0  0  0  0  0  0  0  0  0  0
    4.4920    1.4170   19.0570 C   0  0  0  0  0  0  0  0  0  0  0  0
    5.1310    1.3180   17.8400 C   0  0  0  0  0  0  0  0  0  0  0  0
    6.2960    0.6820   17.6640 N   0  0  0  0  0  0  0  0  0  0  0  0
    6.8520    0.1340   18.7440 C   0  0  0  0  0  0  0  0  0  0  0  0
    8.5740   -0.1150   22.6810 N   0  0  0  0  0  0  0  0  0  0  0  0
    9.9030    0.1720   22.8480 C   0  0  0  0  0  0  0  0  0  0  0  0
   10.5110    1.2720   23.4480 C   0  0  0  0  0  0  0  0  0  0  0  0
   11.9030    1.4100   23.5010 C   0  0  0  0  0  0  0  0  0  0  0  0
   12.7490    0.4560   22.9720 C   0  0  0  0  0  0  0  0  0  0  0  0
   12.1740   -0.6460   22.3800 C   0  0  0  0  0  0  0  0  0  0  0  0
   12.8380   -1.7680   21.7950 C   0  0  0  0  0  0  0  0  0  0  0  0
   12.7620   -2.7010   22.8270 N   0  0  0  0  0  0  0  0  0  0  0  0
   13.6760   -2.6510   23.8050 C   0  0  0  0  0  0  0  0  0  0  0  0
   13.1180   -2.5190   25.0360 C   0  0  0  0  0  0  0  0  0  0  0  0
   12.3100   -1.0180   25.0560 S   0  0  0  0  0  0  0  0  0  0  0  0
   11.0980   -1.5660   23.9060 C   0  0  0  0  0  0  0  0  0  0  0  0
   11.4420   -2.8230   23.4030 C   0  0  0  0  0  0  0  0  0  0  0  0
   10.8390   -0.8240   22.2900 C   0  0  0  0  0  0  0  0  0  0  0  0
  1  2  2  0
  2  3  1  0
  3  4  1  0
  4  5  2  0
  5  6  1  0
  6  7  2  0
  7  8  1  0
  4  9  1  0
  8  9  2  0
  2 10  1  0
 10 11  1  0
 11 12  2  0
 12 13  1  0
 13 14  2  0
 14 15  1  0
 15 16  1  0
 16 17  1  0
 17 18  1  0
 18 19  1  0
 19 20  1  0
 20 21  1  0
 17 22  1  0
 21 22  1  0
 11 23  1  0
 15 23  2  0
M  END
