pyridine_urea_6342
     RDKit          3D

 23 25  0  0  0  0  0  0  0  0999 V2000
    9.0120    0.7000   21.2600 O   0  0  0  0  0  0  0  0  0  0  0  0
    8.2920   -0.2210   21.6110 C   0  0  0  0  0  0  0  0  0  0  0  0
    8.4720   -0.9390   22.7650 N   0  0  0  0  0  0  0  0  0  0  0  0
    7.5240   -0.6840   23.8390 C   0  0  0  0  0  0  0  0  0  0  0  0
    7.5630    0.7790   24.3050 C   0  0  0  0  0  0  0  0  0  0  0  0
    6.7550    1.2570   25.3310 N   0  0  0  0  0  0  0  0  0  0  0  0
    7.1010    2.5300   25.4180 C   0  0  0  0  0  0  0  0  0  0  0  0
    8.0990    2.6880   24.4170 C   0  0  0  0  0  0  0  0  0  0  0  0
    8.9520    3.8880   23.9360 C   0  0  0  0  0  0  0  0  0  0  0  0
   10.3190    3.6500   23.4050 C   0  0  0  0  0  0  0  0  0  0  0  0
   11.1620    4.6120   22.9510 C   0  0  0  0  0  0  0  0  0  0  0  0
   10.5080    5.9840   23.0580 C   0  0  0  0  0  0  0  0  0  0  0  0
    9.2260    6.2190   23.5550 C   0  0  0  0  0  0  0  0  0  0  0  0
    8.5310    7.9710   23.6350 Br  0  0  0  0  0  0  0  0  0  0  0  0
    8.4460    5.1700   23.9950 C   0  0  0  0  0  0  0  0  0  0  0  0
    8.3270    1.5970   23.7860 O   0  0  0  0  0  0  0  0  0  0  0  0
    7.1800   -0.6490   20.9190 N   0  0  0  0  0  0  0  0  0  0  0  0
    6.4290    0.0330   19.9950 C   0  0  0  0  0  0  0  0  0  0  0  0
    5.1610    0.7030   20.5970 C   0  0  0  0  0  0  0  0  0  0  0  0
    4.6500    1.3310   19.3100 C   0  0  0  0  0  0  0  0  0  0  0  0
    5.2360    1.2720   17.9550 C   0  0  0  0  0  0  0  0  0  0  0  0
    6.3210    0.6420   17.6420 N   0  0  0  0  0  0  0  0  0  0  0  0
    6.8770    0.0450   18.6830 C   0  0  0  0  0  0  0  0  0  0  0  0
  1  2  2  0
  2  3  1  0
  3  4  1  0
  4  5  1  0
  5  6  2  0
  6  7  1  0
  7  8  2  0
  8  9  1  0
  9 10  2  0
 10 11  1  0
 11 12  2  0
 12 13  1  0
 13 14  1  0
  9 15  1  0
 13 15  2  0
  5 16  1  0
  8 16  1  0
  2 17  1  0
 17 18  1  0
 18 19  2  0
 19 20  1  0
 20 21  2  0
 21 22  1  0
 18 23  1  0
 22 23  2  0
M  END
