pyridine_urea_14887
     RDKit          3D

 20 21  0  0  0  0  0  0  0  0999 V2000
   13.0330   -2.2800   21.1620 C   0  0  0  0  0  0  0  0  0  0  0  0
   13.1220   -2.5700   22.6470 C   0  0  0  0  0  0  0  0  0  0  0  0
   13.3820   -1.5280   23.5070 C   0  0  0  0  0  0  0  0  0  0  0  0
   12.1690   -0.9510   23.9920 N   0  0  0  0  0  0  0  0  0  0  0  0
   11.8330    0.1480   23.0730 C   0  0  0  0  0  0  0  0  0  0  0  0
   10.5400   -0.1210   22.6670 C   0  0  2  0  0  0  0  0  0  0  0  0
    9.5220    0.8090   22.8620 C   0  0  0  0  0  0  0  0  0  0  0  0
    8.3230    0.2130   22.6460 N   0  0  0  0  0  0  0  0  0  0  0  0
    8.0880   -0.4820   21.5070 C   0  0  0  0  0  0  0  0  0  0  0  0
    8.9770   -0.9380   20.8590 O   0  0  0  0  0  0  0  0  0  0  0  0
    6.7620   -0.5660   21.1830 N   0  0  0  0  0  0  0  0  0  0  0  0
    6.2440    0.0740   20.0590 C   0  0  0  0  0  0  0  0  0  0  0  0
    5.0620    0.7940   20.1830 C   0  0  0  0  0  0  0  0  0  0  0  0
    4.5630    1.4340   19.0790 C   0  0  0  0  0  0  0  0  0  0  0  0
    5.1960    1.3860   17.8550 C   0  0  0  0  0  0  0  0  0  0  0  0
    6.3380    0.6920   17.7060 N   0  0  0  0  0  0  0  0  0  0  0  0
    6.8350    0.0540   18.7970 C   0  0  0  0  0  0  0  0  0  0  0  0
   10.1090   -1.3030   23.2690 C   0  0  0  0  0  0  0  0  0  0  0  0
   11.1320   -1.8490   24.0160 C   0  0  0  0  0  0  0  0  0  0  0  0
   11.0950   -2.9500   24.5490 O   0  0  0  0  0  0  0  0  0  0  0  0
  1  2  1  0
  2  3  1  0
  3  4  1  0
  4  5  1  0
  5  6  1  0
  6  7  1  1
  7  8  1  0
  8  9  1  0
  9 10  2  0
  9 11  1  0
 11 12  1  0
 12 13  2  0
 13 14  1  0
 14 15  2  0
 15 16  1  0
 12 17  1  0
 16 17  2  0
  6 18  1  0
  4 19  1  0
 18 19  1  0
 19 20  2  0
M  END
