pyridine_urea_11816
     RDKit          3D

 25 27  0  0  0  0  0  0  0  0999 V2000
   13.8230    5.2340   21.3700 C   0  0  0  0  0  0  0  0  0  0  0  0
   13.0420    6.3430   21.7540 O   0  0  0  0  0  0  0  0  0  0  0  0
   12.2430    5.5020   22.3750 C   0  0  0  0  0  0  0  0  0  0  0  0
   10.9610    5.7930   22.7860 C   0  0  0  0  0  0  0  0  0  0  0  0
   10.1750    4.8520   23.4160 C   0  0  0  0  0  0  0  0  0  0  0  0
   10.7780    3.6160   23.5910 C   0  0  0  0  0  0  0  0  0  0  0  0
   12.0980    3.2690   23.1920 C   0  0  0  0  0  0  0  0  0  0  0  0
   12.7350    2.0020   23.3720 N   0  0  0  0  0  0  0  0  0  0  0  0
   11.9880    0.9280   23.2170 C   0  0  0  0  0  0  0  0  0  0  0  0
   12.1970   -0.4990   23.6970 C   0  0  0  0  0  0  0  0  0  0  0  0
   11.1770   -1.4090   23.3720 C   0  0  0  0  0  0  0  0  0  0  0  0
   10.0570   -0.9520   22.6350 C   0  0  0  0  0  0  0  0  0  0  0  0
    8.9430   -1.5820   22.1790 N   0  0  0  0  0  0  0  0  0  0  0  0
    8.0980   -0.7270   21.4010 C   0  0  0  0  0  0  0  0  0  0  0  0
    8.4530    0.5390   21.0730 O   0  0  0  0  0  0  0  0  0  0  0  0
    6.9190   -1.2120   21.0000 N   0  0  0  0  0  0  0  0  0  0  0  0
    6.3390   -0.3950   20.0720 C   0  0  0  0  0  0  0  0  0  0  0  0
    5.1600    0.2750   20.4230 C   0  0  0  0  0  0  0  0  0  0  0  0
    4.5730    1.1610   19.3650 C   0  0  0  0  0  0  0  0  0  0  0  0
    5.2790    1.2620   18.0400 C   0  0  0  0  0  0  0  0  0  0  0  0
    6.3980    0.5910   17.7800 N   0  0  0  0  0  0  0  0  0  0  0  0
    6.8780   -0.1990   18.7880 C   0  0  0  0  0  0  0  0  0  0  0  0
    9.9950    0.3440   22.2690 C   0  0  0  0  0  0  0  0  0  0  0  0
   10.9110    1.2340   22.5500 C   0  0  0  0  0  0  0  0  0  0  0  0
   12.7970    4.2430   22.5870 C   0  0  0  0  0  0  0  0  0  0  0  0
  1  2  1  0
  2  3  1  0
  3  4  2  0
  4  5  1  0
  5  6  2  0
  6  7  1  0
  7  8  1  0
  8  9  1  0
  9 10  2  0
 10 11  1  0
 11 12  2  0
 12 13  1  0
 13 14  1  0
 14 15  2  0
 14 16  1  0
 16 17  1  0
 17 18  2  0
 18 19  1  0
 19 20  2  0
 20 21  1  0
 17 22  1  0
 21 22  2  0
 12 23  1  0
  9 24  1  0
 23 24  2  0
  3 25  1  0
  7 25  2  0
M  END
