pyridine_urea_9961
     RDKit          3D

 24 26  0  0  0  0  0  0  0  0999 V2000
    9.6970    1.0000   21.9880 C   0  0  0  0  0  0  0  0  0  0  0  0
   10.0440   -0.3390   22.6700 C   0  0  0  0  0  0  0  0  0  0  0  0
    9.5440   -0.5830   23.9250 C   0  0  0  0  0  0  0  0  0  0  0  0
    9.3430   -1.4010   21.9470 N   0  0  0  0  0  0  0  0  0  0  0  0
    8.3640   -0.8020   21.0230 C   0  0  0  0  0  0  0  0  0  0  0  0
    8.7240   -0.9830   19.9190 O   0  0  0  0  0  0  0  0  0  0  0  0
    7.1810   -0.1810   21.3650 N   0  0  0  0  0  0  0  0  0  0  0  0
    6.4910    0.3080   20.2080 C   0  0  0  0  0  0  0  0  0  0  0  0
    5.2210    0.9000   20.3300 C   0  0  0  0  0  0  0  0  0  0  0  0
    4.5170    1.3950   19.0530 C   0  0  0  0  0  0  0  0  0  0  0  0
    5.0700    1.2830   17.7820 C   0  0  0  0  0  0  0  0  0  0  0  0
    6.3020    0.7040   17.7630 N   0  0  0  0  0  0  0  0  0  0  0  0
    7.0250    0.2080   18.8810 C   0  0  0  0  0  0  0  0  0  0  0  0
   11.5820   -0.6510   22.6410 C   0  0  0  0  0  0  0  0  0  0  0  0
   12.1560   -1.6560   22.1510 C   0  0  0  0  0  0  0  0  0  0  0  0
   13.0630   -0.5850   22.8070 C   0  0  0  0  0  0  0  0  0  0  0  0
   11.8050    0.2720   23.2270 C   0  0  0  0  0  0  0  0  0  0  0  0
   10.6850    1.0370   23.6010 C   0  0  0  0  0  0  0  0  0  0  0  0
    9.5880    1.6090   24.3310 C   0  0  0  0  0  0  0  0  0  0  0  0
    9.3480    1.1670   25.5610 C   0  0  0  0  0  0  0  0  0  0  0  0
   10.1800    0.2800   25.9150 N   0  0  0  0  0  0  0  0  0  0  0  0
   10.9410    0.2700   24.6830 O   0  0  0  0  0  0  0  0  0  0  0  0
   12.6710    1.1610   23.7260 C   0  0  0  0  0  0  0  0  0  0  0  0
   12.9390    0.0430   23.1270 C   0  0  0  0  0  0  0  0  0  0  0  0
  1  2  1  0
  2  3  1  0
  2  4  1  0
  4  5  1  0
  5  6  2  0
  5  7  1  0
  7  8  1  0
  8  9  2  0
  9 10  1  0
 10 11  2  0
 11 12  1  0
  8 13  1  0
 12 13  2  0
  2 14  1  0
 14 15  2  0
 15 16  1  0
 16 17  2  0
 17 18  1  0
 18 19  2  0
 19 20  1  0
 20 21  2  0
 18 22  1  0
 21 22  1  0
 17 23  1  0
 14 24  1  0
 23 24  2  0
M  END
