pyridine_urea_1969
     RDKit          3D

 21 23  0  0  0  0  0  0  0  0999 V2000
   13.3040   -3.3430   25.5250 C   0  0  0  0  0  0  0  0  0  0  0  0
   13.6550   -1.9460   25.2430 C   0  0  0  0  0  0  0  0  0  0  0  0
   13.2020   -1.7220   23.8320 C   0  0  0  0  0  0  0  0  0  0  0  0
   12.0140   -0.9630   23.6950 C   0  0  0  0  0  0  0  0  0  0  0  0
   11.3230   -0.2760   24.7780 C   0  0  0  0  0  0  0  0  0  0  0  0
   10.1450    0.3320   24.5380 C   0  0  0  0  0  0  0  0  0  0  0  0
    9.6780    0.2410   23.2400 C   0  0  0  0  0  0  0  0  0  0  0  0
    8.4380    0.8180   22.9630 N   0  0  0  0  0  0  0  0  0  0  0  0
    8.2210    0.8670   21.6430 C   0  0  0  0  0  0  0  0  0  0  0  0
    8.8470    1.6610   20.9620 O   0  0  0  0  0  0  0  0  0  0  0  0
    7.2740   -0.0210   21.2240 N   0  0  0  0  0  0  0  0  0  0  0  0
    6.5500    0.3620   20.1280 C   0  0  0  0  0  0  0  0  0  0  0  0
    5.3710    1.0840   20.2530 C   0  0  0  0  0  0  0  0  0  0  0  0
    4.6290    1.5250   19.1600 C   0  0  0  0  0  0  0  0  0  0  0  0
    5.0920    1.2250   17.8740 C   0  0  0  0  0  0  0  0  0  0  0  0
    6.1910    0.5280   17.6340 N   0  0  0  0  0  0  0  0  0  0  0  0
    6.9000    0.1040   18.6820 C   0  0  0  0  0  0  0  0  0  0  0  0
   10.3310   -0.3820   22.1940 C   0  0  0  0  0  0  0  0  0  0  0  0
   11.5050   -0.9760   22.4430 C   0  0  0  0  0  0  0  0  0  0  0  0
   13.6050   -2.7010   22.7020 C   0  0  0  0  0  0  0  0  0  0  0  0
   12.6430   -2.7910   23.4410 C   0  0  0  0  0  0  0  0  0  0  0  0
  1  2  1  0
  3  2  1  0
  3  4  1  0
  4  5  2  0
  5  6  1  0
  6  7  2  0
  7  8  1  0
  8  9  1  0
  9 10  2  0
  9 11  1  0
 11 12  1  0
 12 13  2  0
 13 14  1  0
 14 15  2  0
 15 16  1  0
 12 17  1  0
 16 17  2  0
  7 18  1  0
  4 19  1  0
 18 19  2  0
  3 20  1  0
  3 21  1  0
 20 21  1  0
M  END
