pyridine_urea_1199
     RDKit          3D

 21 23  0  0  0  0  0  0  0  0999 V2000
    8.5590    1.3940   20.9710 O   0  0  0  0  0  0  0  0  0  0  0  0
    8.3160    0.2200   21.2630 C   0  0  0  0  0  0  0  0  0  0  0  0
    7.0960   -0.3480   21.0600 N   0  0  0  0  0  0  0  0  0  0  0  0
    6.4780    0.1930   19.9110 C   0  0  0  0  0  0  0  0  0  0  0  0
    5.2200    1.0300   20.1670 C   0  0  0  0  0  0  0  0  0  0  0  0
    4.5700    1.6260   19.1020 C   0  0  0  0  0  0  0  0  0  0  0  0
    5.1040    1.4320   17.8350 C   0  0  0  0  0  0  0  0  0  0  0  0
    6.2260    0.6640   17.6580 N   0  0  0  0  0  0  0  0  0  0  0  0
    6.9270    0.0330   18.6730 C   0  0  0  0  0  0  0  0  0  0  0  0
    9.1630   -0.6550   21.8050 N   0  0  0  0  0  0  0  0  0  0  0  0
    9.9860   -1.4850   22.4040 C   0  0  1  0  0  0  0  0  0  0  0  0
   11.1820   -1.7970   21.8250 C   0  0  0  0  0  0  0  0  0  0  0  0
   12.2430   -1.5170   22.6190 C   0  0  0  0  0  0  0  0  0  0  0  0
   13.3230   -1.1390   22.0490 C   0  0  0  0  0  0  0  0  0  0  0  0
   12.9570   -0.0260   22.6510 C   0  0  0  0  0  0  0  0  0  0  0  0
   10.2570   -1.1120   23.6260 C   0  0  0  0  0  0  0  0  0  0  0  0
    9.6590   -0.8260   24.7610 C   0  0  0  0  0  0  0  0  0  0  0  0
   10.7790   -0.4990   25.7380 C   0  0  0  0  0  0  0  0  0  0  0  0
   12.2830   -0.5000   25.4210 C   0  0  0  0  0  0  0  0  0  0  0  0
   12.5520   -0.8320   24.0650 C   0  0  0  0  0  0  0  0  0  0  0  0
   11.3270   -0.8860   24.1640 C   0  0  0  0  0  0  0  0  0  0  0  0
  1  2  2  0
  2  3  1  0
  3  4  1  0
  4  5  2  0
  5  6  1  0
  6  7  2  0
  7  8  1  0
  4  9  1  0
  8  9  2  0
  2 10  1  0
 10 11  1  0
 11 12  1  6
 12 13  1  0
 13 14  1  0
 13 15  1  0
 14 15  1  0
 11 16  1  0
 16 17  2  0
 17 18  1  0
 18 19  2  0
 19 20  1  0
 16 21  1  0
 20 21  2  0
M  END
