pyridine_urea_7910
     RDKit          3D

 25 27  0  0  0  0  0  0  0  0999 V2000
   10.6760    0.7920   23.8930 C   0  0  0  0  0  0  0  0  0  0  0  0
   11.8740    0.0870   23.2380 C   0  0  0  0  0  0  0  0  0  0  0  0
   12.9760    0.7320   23.0910 C   0  0  0  0  0  0  0  0  0  0  0  0
   12.6690   -0.5640   22.7520 C   0  0  0  0  0  0  0  0  0  0  0  0
   11.2260   -0.9090   23.0700 C   0  0  0  0  0  0  0  0  0  0  0  0
   10.2400   -0.0940   23.6030 C   0  0  0  0  0  0  0  0  0  0  0  0
    9.0650   -0.3240   22.7590 N   0  0  0  0  0  0  0  0  0  0  0  0
    8.7420    0.5240   21.7430 C   0  0  0  0  0  0  0  0  0  0  0  0
    9.3390    1.5410   21.4320 O   0  0  0  0  0  0  0  0  0  0  0  0
    7.6900    0.2700   21.0200 N   0  0  0  0  0  0  0  0  0  0  0  0
    6.7580    0.4180   20.0500 C   0  0  0  0  0  0  0  0  0  0  0  0
    5.5480    1.0530   20.3570 C   0  0  0  0  0  0  0  0  0  0  0  0
    4.6430    1.2230   19.3440 C   0  0  0  0  0  0  0  0  0  0  0  0
    4.9390    0.7800   18.0910 C   0  0  0  0  0  0  0  0  0  0  0  0
    6.0690    0.1660   17.7540 N   0  0  0  0  0  0  0  0  0  0  0  0
    6.9560   -0.0060   18.7480 C   0  0  0  0  0  0  0  0  0  0  0  0
   10.9510   -2.2000   22.7540 C   0  0  0  0  0  0  0  0  0  0  0  0
    9.6350   -2.1840   23.1840 O   0  0  0  0  0  0  0  0  0  0  0  0
    8.7410   -2.5910   22.1440 C   0  0  0  0  0  0  0  0  0  0  0  0
    7.7720   -3.5100   22.6010 C   0  0  1  0  0  0  0  0  0  0  0  0
    7.8210   -3.8120   23.9470 C   0  0  0  0  0  0  0  0  0  0  0  0
    6.5440   -3.6900   24.4830 C   0  0  0  0  0  0  0  0  0  0  0  0
    5.7110   -3.2390   23.7090 O   0  0  0  0  0  0  0  0  0  0  0  0
    6.3650   -2.8970   22.4770 C   0  0  0  0  0  0  0  0  0  0  0  0
   12.0440   -1.4530   22.6500 C   0  0  0  0  0  0  0  0  0  0  0  0
  1  2  1  0
  2  3  2  0
  3  4  1  0
  4  5  2  0
  5  6  1  0
  6  7  1  0
  7  8  1  0
  8  9  2  0
  8 10  1  0
 10 11  1  0
 11 12  2  0
 12 13  1  0
 13 14  2  0
 14 15  1  0
 11 16  1  0
 15 16  2  0
  5 17  1  0
 17 18  1  0
 18 19  1  0
 20 19  1  1
 20 21  1  0
 21 22  1  0
 22 23  1  0
 20 24  1  0
 23 24  1  0
  2 25  1  0
 17 25  2  0
M  END
