pyridine_urea_10003
     RDKit          3D

 24 26  0  0  0  0  0  0  0  0999 V2000
   10.5200    0.7190   24.4200 C   0  0  0  0  0  0  0  0  0  0  0  0
   10.4260    0.2560   22.9620 C   0  0  2  0  0  0  0  0  0  0  0  0
    9.1760   -0.4630   22.6190 N   0  0  0  0  0  0  0  0  0  0  0  0
    8.4140    0.1270   21.5290 C   0  0  0  0  0  0  0  0  0  0  0  0
    8.8800    1.4210   21.0890 O   0  0  0  0  0  0  0  0  0  0  0  0
    7.3200   -0.5540   21.0400 N   0  0  0  0  0  0  0  0  0  0  0  0
    6.5460    0.0960   20.0100 C   0  0  0  0  0  0  0  0  0  0  0  0
    5.3990    0.8120   20.3570 C   0  0  0  0  0  0  0  0  0  0  0  0
    4.6770    1.4590   19.3600 C   0  0  0  0  0  0  0  0  0  0  0  0
    5.1450    1.3780   17.9190 C   0  0  0  0  0  0  0  0  0  0  0  0
    6.2620    0.6550   17.6390 N   0  0  0  0  0  0  0  0  0  0  0  0
    6.9500    0.0230   18.6800 C   0  0  0  0  0  0  0  0  0  0  0  0
   11.5240   -0.6470   22.5990 C   0  0  0  0  0  0  0  0  0  0  0  0
   11.2780   -1.7350   22.1280 C   0  0  0  0  0  0  0  0  0  0  0  0
   12.4670   -1.7400   22.1450 C   0  0  0  0  0  0  0  0  0  0  0  0
   11.8430   -0.2050   22.8100 C   0  0  0  0  0  0  0  0  0  0  0  0
   10.5710    0.4040   23.0680 C   0  0  0  0  0  0  0  0  0  0  0  0
    9.3280   -0.2840   23.1200 C   0  0  0  0  0  0  0  0  0  0  0  0
    8.1250    0.4210   23.4050 C   0  0  0  0  0  0  0  0  0  0  0  0
    8.1390    1.8020   23.6310 C   0  0  0  0  0  0  0  0  0  0  0  0
    9.3390    2.4880   23.5780 C   0  0  0  0  0  0  0  0  0  0  0  0
   10.5080    1.8110   23.3070 C   0  0  0  0  0  0  0  0  0  0  0  0
   12.8900    0.5750   23.1540 C   0  0  0  0  0  0  0  0  0  0  0  0
   13.0790   -0.4970   22.6950 C   0  0  0  0  0  0  0  0  0  0  0  0
  2  1  1  1
  2  3  1  0
  3  4  1  0
  4  5  2  0
  4  6  1  0
  6  7  1  0
  7  8  2  0
  8  9  1  0
  9 10  2  0
 10 11  1  0
  7 12  1  0
 11 12  2  0
  2 13  1  0
 13 14  2  0
 14 15  1  0
 15 16  2  0
 16 17  1  0
 17 18  2  0
 18 19  1  0
 19 20  2  0
 20 21  1  0
 17 22  1  0
 21 22  2  0
 16 23  1  0
 13 24  1  0
 23 24  2  0
M  END
