pyridine_urea_14937
     RDKit          3D

 19 21  0  0  0  0  0  0  0  0999 V2000
    8.6060    1.3430   21.0330 O   0  0  0  0  0  0  0  0  0  0  0  0
    8.3960    0.1620   21.3240 C   0  0  0  0  0  0  0  0  0  0  0  0
    7.2140   -0.4960   21.0760 N   0  0  0  0  0  0  0  0  0  0  0  0
    6.4940    0.1250   20.0140 C   0  0  0  0  0  0  0  0  0  0  0  0
    5.2150    0.8680   20.3640 C   0  0  0  0  0  0  0  0  0  0  0  0
    4.4780    1.5520   19.2220 C   0  0  0  0  0  0  0  0  0  0  0  0
    5.1270    1.4050   17.8450 C   0  0  0  0  0  0  0  0  0  0  0  0
    6.3050    0.6740   17.6960 N   0  0  0  0  0  0  0  0  0  0  0  0
    6.9500    0.0640   18.7240 C   0  0  0  0  0  0  0  0  0  0  0  0
    9.3200   -0.6420   21.9100 N   0  0  0  0  0  0  0  0  0  0  0  0
    9.6630   -0.4130   23.2400 C   0  0  2  0  0  0  0  0  0  0  0  0
   10.5760    0.4910   23.6760 C   0  0  0  0  0  0  0  0  0  0  0  0
   11.4430   -0.3380   24.3870 C   0  0  2  0  0  0  0  0  0  0  0  0
   12.7260   -0.4960   23.9680 C   0  0  0  0  0  0  0  0  0  0  0  0
   13.1150   -1.8130   24.2610 C   0  0  0  0  0  0  0  0  0  0  0  0
   13.0930   -2.5000   23.0770 C   0  0  0  0  0  0  0  0  0  0  0  0
   12.9190   -1.4970   22.0100 C   0  0  0  0  0  0  0  0  0  0  0  0
   12.8560   -0.2250   22.5890 C   0  0  0  0  0  0  0  0  0  0  0  0
   10.6020   -1.5010   23.6950 C   0  0  0  0  0  0  0  0  0  0  0  0
  1  2  2  0
  2  3  1  0
  3  4  1  0
  4  5  2  0
  5  6  1  0
  6  7  2  0
  7  8  1  0
  4  9  1  0
  8  9  2  0
  2 10  1  0
 11 10  1  6
 11 12  1  0
 12 13  1  0
 13 14  1  6
 14 15  1  0
 15 16  1  0
 16 17  1  0
 14 18  1  0
 17 18  1  0
 11 19  1  0
 13 19  1  0
M  END
