pyridine_urea_11964
     RDKit          3D

 24 26  0  0  0  0  0  0  0  0999 V2000
    8.7990    1.4760   21.2660 O   0  0  0  0  0  0  0  0  0  0  0  0
    8.5640    0.2730   21.2430 C   0  0  0  0  0  0  0  0  0  0  0  0
    7.3320   -0.2950   21.0480 N   0  0  0  0  0  0  0  0  0  0  0  0
    6.5550    0.2110   20.0170 C   0  0  0  0  0  0  0  0  0  0  0  0
    5.3760    0.8950   20.3100 C   0  0  0  0  0  0  0  0  0  0  0  0
    4.6230    1.4290   19.2690 C   0  0  0  0  0  0  0  0  0  0  0  0
    5.0870    1.2490   17.9850 C   0  0  0  0  0  0  0  0  0  0  0  0
    6.2050    0.5860   17.6820 N   0  0  0  0  0  0  0  0  0  0  0  0
    6.9110    0.0820   18.7000 C   0  0  0  0  0  0  0  0  0  0  0  0
    9.5720   -0.6450   21.3400 N   0  0  0  0  0  0  0  0  0  0  0  0
   10.4640   -0.6230   22.4770 C   0  0  2  0  0  0  0  0  0  0  0  0
   10.8390    0.7340   23.0240 C   0  0  0  0  0  0  0  0  0  0  0  0
   12.0980    0.4630   23.5760 C   0  0  0  0  0  0  0  0  0  0  0  0
   12.1070   -0.9000   23.6430 N   0  0  0  0  0  0  0  0  0  0  0  0
   10.8650   -1.1760   24.1270 C   0  0  0  0  0  0  0  0  0  0  0  0
   10.2070   -0.2800   24.9540 C   0  0  0  0  0  0  0  0  0  0  0  0
    8.9220   -0.5130   25.4070 C   0  0  0  0  0  0  0  0  0  0  0  0
    8.1920   -1.6420   25.0760 C   0  0  0  0  0  0  0  0  0  0  0  0
    6.5850   -1.8770   25.6630 Cl  0  0  0  0  0  0  0  0  0  0  0  0
    8.8100   -2.5840   24.2540 C   0  0  0  0  0  0  0  0  0  0  0  0
    7.9450   -4.0100   23.8150 Cl  0  0  0  0  0  0  0  0  0  0  0  0
   10.1350   -2.3600   23.7840 C   0  0  0  0  0  0  0  0  0  0  0  0
   11.8380   -1.2630   22.3760 C   0  0  0  0  0  0  0  0  0  0  0  0
   12.3990   -1.8550   21.4660 O   0  0  0  0  0  0  0  0  0  0  0  0
  1  2  2  0
  2  3  1  0
  3  4  1  0
  4  5  2  0
  5  6  1  0
  6  7  2  0
  7  8  1  0
  4  9  1  0
  8  9  2  0
  2 10  1  0
 11 10  1  6
 11 12  1  0
 12 13  1  0
 13 14  1  0
 14 15  1  0
 15 16  2  0
 16 17  1  0
 17 18  2  0
 18 19  1  0
 18 20  1  0
 20 21  1  0
 15 22  1  0
 20 22  2  0
 11 23  1  0
 14 23  1  0
 23 24  2  0
M  END
