pyridine_urea_7961
     RDKit          3D

 25 27  0  0  0  0  0  0  0  0999 V2000
    8.7300    0.9260   21.3660 O   0  0  0  0  0  0  0  0  0  0  0  0
    8.3440   -0.2270   21.4850 C   0  0  0  0  0  0  0  0  0  0  0  0
    9.0650   -1.2720   22.0040 N   0  0  0  0  0  0  0  0  0  0  0  0
   10.3910   -1.5120   21.6150 C   0  0  0  0  0  0  0  0  0  0  0  0
   11.4310   -1.2510   22.4570 C   0  0  0  0  0  0  0  0  0  0  0  0
   10.1330   -1.1180   22.9650 C   0  0  0  0  0  0  0  0  0  0  0  0
    9.6640   -0.7750   24.1740 C   0  0  0  0  0  0  0  0  0  0  0  0
   10.4320   -0.4850   25.1900 C   0  0  0  0  0  0  0  0  0  0  0  0
    9.4560   -0.1980   26.3150 N   0  0  0  0  0  0  0  0  0  0  0  0
    9.5220    0.3060   27.5780 C   0  0  0  0  0  0  0  0  0  0  0  0
    8.4670   -0.0780   28.5980 C   0  0  0  0  0  0  0  0  0  0  0  0
    7.1790   -0.1910   28.0620 C   0  0  0  0  0  0  0  0  0  0  0  0
    6.3000   -1.0400   28.6800 O   0  0  0  0  0  0  0  0  0  0  0  0
    7.2020   -0.6100   26.7210 C   0  0  0  0  0  0  0  0  0  0  0  0
    8.1430    0.0830   25.9310 C   0  0  0  0  0  0  0  0  0  0  0  0
   11.8000   -0.5580   24.8860 C   0  0  0  0  0  0  0  0  0  0  0  0
   12.7770   -0.3330   25.7360 F   0  0  0  0  0  0  0  0  0  0  0  0
   12.1640   -0.9110   23.6010 C   0  0  0  0  0  0  0  0  0  0  0  0
    7.0960   -0.6050   21.0620 N   0  0  0  0  0  0  0  0  0  0  0  0
    6.3760    0.0570   20.0620 C   0  0  0  0  0  0  0  0  0  0  0  0
    5.1750    0.7430   20.2520 C   0  0  0  0  0  0  0  0  0  0  0  0
    4.5740    1.3750   19.1690 C   0  0  0  0  0  0  0  0  0  0  0  0
    5.1910    1.3020   17.9360 C   0  0  0  0  0  0  0  0  0  0  0  0
    6.3430    0.6420   17.7260 N   0  0  0  0  0  0  0  0  0  0  0  0
    6.9000    0.0380   18.7880 C   0  0  0  0  0  0  0  0  0  0  0  0
  1  2  2  0
  2  3  1  0
  3  4  1  0
  4  5  1  0
  5  6  2  0
  6  7  1  0
  7  8  2  0
  8  9  1  0
  9 10  1  0
 10 11  1  0
 11 12  1  0
 12 13  1  0
 12 14  1  0
  9 15  1  0
 14 15  1  0
  8 16  1  0
 16 17  1  0
  5 18  1  0
 16 18  2  0
  2 19  1  0
 19 20  1  0
 20 21  2  0
 21 22  1  0
 22 23  2  0
 23 24  1  0
 20 25  1  0
 24 25  2  0
M  END
