pyridine_urea_1631
     RDKit          3D

 19 20  0  0  0  0  0  0  0  0999 V2000
   10.4670   -0.2730   25.5980 C   0  0  0  0  0  0  0  0  0  0  0  0
   11.7560   -0.1390   25.1090 N   0  0  0  0  0  0  0  0  0  0  0  0
   12.8760   -0.8710   25.4570 C   0  0  0  0  0  0  0  0  0  0  0  0
   11.7020   -0.5800   23.9490 C   0  0  0  0  0  0  0  0  0  0  0  0
   12.8470   -0.8940   23.3050 C   0  0  0  0  0  0  0  0  0  0  0  0
   12.8070   -1.4380   22.1090 C   0  0  0  0  0  0  0  0  0  0  0  0
   11.6270   -1.7050   21.4700 C   0  0  0  0  0  0  0  0  0  0  0  0
   10.3850   -1.3680   22.0640 C   0  0  0  0  0  0  0  0  0  0  0  0
    9.1240   -1.5350   21.5620 N   0  0  0  0  0  0  0  0  0  0  0  0
    8.2660   -0.3880   21.2410 C   0  0  0  0  0  0  0  0  0  0  0  0
    8.6450    0.7760   21.2080 O   0  0  0  0  0  0  0  0  0  0  0  0
    7.0060   -0.7890   20.9890 N   0  0  0  0  0  0  0  0  0  0  0  0
    6.3490   -0.0670   20.0480 C   0  0  0  0  0  0  0  0  0  0  0  0
    5.1650    0.6500   20.2520 C   0  0  0  0  0  0  0  0  0  0  0  0
    4.6030    1.3570   19.1900 C   0  0  0  0  0  0  0  0  0  0  0  0
    5.2340    1.3310   17.9580 C   0  0  0  0  0  0  0  0  0  0  0  0
    6.3690    0.6460   17.7410 N   0  0  0  0  0  0  0  0  0  0  0  0
    6.8930   -0.0320   18.7790 C   0  0  0  0  0  0  0  0  0  0  0  0
   10.3850   -0.8070   23.3020 C   0  0  0  0  0  0  0  0  0  0  0  0
  1  2  1  0
  2  3  1  0
  2  4  1  0
  4  5  2  0
  5  6  1  0
  6  7  2  0
  7  8  1  0
  8  9  1  0
  9 10  1  0
 10 11  2  0
 10 12  1  0
 12 13  1  0
 13 14  2  0
 14 15  1  0
 15 16  2  0
 16 17  1  0
 13 18  1  0
 17 18  2  0
  4 19  1  0
  8 19  2  0
M  END
