pyridine_urea_11242
     RDKit          3D

 16 17  0  0  0  0  0  0  0  0999 V2000
   13.1640   -2.2030   25.0170 C   0  0  0  0  0  0  0  0  0  0  0  0
   12.1770   -2.0070   24.3750 C   0  0  0  0  0  0  0  0  0  0  0  0
   10.9650   -2.2210   23.4490 C   0  0  0  0  0  0  0  0  0  0  0  0
   10.0710   -1.0200   23.2950 C   0  0  0  0  0  0  0  0  0  0  0  0
    9.0960   -1.1730   22.2030 N   0  0  0  0  0  0  0  0  0  0  0  0
    8.5090   -0.1590   21.4370 C   0  0  0  0  0  0  0  0  0  0  0  0
    9.1880    1.0830   21.0430 O   0  0  0  0  0  0  0  0  0  0  0  0
    7.2280   -0.4990   21.1050 N   0  0  0  0  0  0  0  0  0  0  0  0
    6.6410    0.0770   20.0110 C   0  0  0  0  0  0  0  0  0  0  0  0
    5.3320    0.7660   20.1990 C   0  0  0  0  0  0  0  0  0  0  0  0
    4.6020    1.3840   19.2270 C   0  0  0  0  0  0  0  0  0  0  0  0
    5.3590    1.2620   17.9130 C   0  0  0  0  0  0  0  0  0  0  0  0
    6.5370    0.6480   17.7120 N   0  0  0  0  0  0  0  0  0  0  0  0
    7.1580    0.0660   18.7400 C   0  0  0  0  0  0  0  0  0  0  0  0
   10.9200    0.4130   23.3490 C   0  0  0  0  0  0  0  0  0  0  0  0
   11.2390   -0.4370   22.4970 C   0  0  0  0  0  0  0  0  0  0  0  0
  1  2  2  3
  2  3  1  0
  3  4  1  0
  4  5  1  0
  5  6  1  0
  6  7  2  0
  6  8  1  0
  8  9  1  0
  9 10  2  0
 10 11  1  0
 11 12  2  0
 12 13  1  0
  9 14  1  0
 13 14  2  0
  4 15  1  0
  4 16  1  0
 15 16  1  0
M  END
