pyridine_urea_3932
     RDKit          3D

 28 30  0  0  0  0  0  0  0  0999 V2000
    8.2670   -2.2160   20.2030 O   0  0  0  0  0  0  0  0  0  0  0  0
    8.6150   -1.1280   20.6180 C   0  0  0  0  0  0  0  0  0  0  0  0
    7.6930   -0.1230   20.9190 N   0  0  0  0  0  0  0  0  0  0  0  0
    6.8000    0.3300   19.9400 C   0  0  0  0  0  0  0  0  0  0  0  0
    5.4860    0.7280   20.2720 C   0  0  0  0  0  0  0  0  0  0  0  0
    4.6020    1.1650   19.2670 C   0  0  0  0  0  0  0  0  0  0  0  0
    5.0610    1.2020   17.9560 C   0  0  0  0  0  0  0  0  0  0  0  0
    6.3370    0.8280   17.5990 N   0  0  0  0  0  0  0  0  0  0  0  0
    7.1610    0.3980   18.5790 C   0  0  0  0  0  0  0  0  0  0  0  0
    9.9680   -0.8810   20.7510 N   0  0  0  0  0  0  0  0  0  0  0  0
   10.5340   -0.0200   21.7540 C   0  0  0  0  0  0  0  0  0  0  0  0
   11.8470   -0.3180   22.3860 C   0  0  0  0  0  0  0  0  0  0  0  0
   12.2810    0.5460   23.3670 C   0  0  0  0  0  0  0  0  0  0  0  0
   11.5460    1.8040   23.8860 C   0  0  0  0  0  0  0  0  0  0  0  0
   10.9680    2.7910   24.2930 O   0  0  0  0  0  0  0  0  0  0  0  0
    9.6200    2.5130   24.5990 C   0  0  0  0  0  0  0  0  0  0  0  0
    9.3280    1.1670   24.7610 C   0  0  0  0  0  0  0  0  0  0  0  0
   10.4350    0.3810   24.7750 C   0  0  0  0  0  0  0  0  0  0  0  0
   10.1250   -0.7290   23.9060 O   0  0  0  0  0  0  0  0  0  0  0  0
   11.1430   -1.3260   23.1950 C   0  0  0  0  0  0  0  0  0  0  0  0
   10.9580   -1.6520   21.7030 C   0  0  0  0  0  0  0  0  0  0  0  0
   12.0150   -2.2650   21.0400 C   0  0  0  0  0  0  0  0  0  0  0  0
   13.2250   -2.5850   21.6540 C   0  0  0  0  0  0  0  0  0  0  0  0
   13.4110   -2.2990   23.0170 C   0  0  0  0  0  0  0  0  0  0  0  0
   12.3960   -1.6910   23.7690 C   0  0  0  0  0  0  0  0  0  0  0  0
   10.3700    1.8780   23.1210 C   0  0  0  0  0  0  0  0  0  0  0  0
    9.2460    3.2060   23.3330 Cl  0  0  0  0  0  0  0  0  0  0  0  0
    9.8830    1.0500   22.1600 C   0  0  0  0  0  0  0  0  0  0  0  0
  1  2  2  0
  2  3  1  0
  3  4  1  0
  4  5  2  0
  5  6  1  0
  6  7  2  0
  7  8  1  0
  4  9  1  0
  8  9  2  0
  2 10  1  0
 10 11  1  0
 11 12  2  0
 12 13  1  0
 13 14  2  0
 14 15  1  0
 15 16  1  0
 16 17  1  0
 17 18  1  0
 18 19  1  0
 19 20  1  0
 20 21  2  0
 21 22  1  0
 22 23  2  0
 23 24  1  0
 20 25  1  0
 24 25  2  0
 14 26  1  0
 26 27  1  0
 11 28  1  0
 26 28  2  0
M  END
