pyridine_urea_936
     RDKit          3D

 22 24  0  0  0  0  0  0  0  0999 V2000
   13.3090   -1.8770   22.0550 C   0  0  0  0  0  0  0  0  0  0  0  0
   12.5740   -0.6820   22.5200 C   0  0  0  0  0  0  0  0  0  0  0  0
   11.2640   -0.6280   22.8030 C   0  0  0  0  0  0  0  0  0  0  0  0
   10.0210   -0.1440   23.1830 C   0  0  2  0  0  0  0  0  0  0  0  0
    9.9130   -0.2370   24.5930 C   0  0  0  0  0  0  0  0  0  0  0  0
    8.9820   -0.5810   22.4970 N   0  0  0  0  0  0  0  0  0  0  0  0
    8.3800    0.1140   21.4790 C   0  0  0  0  0  0  0  0  0  0  0  0
    8.7880    1.2240   21.1110 O   0  0  0  0  0  0  0  0  0  0  0  0
    7.2910   -0.5460   20.9650 N   0  0  0  0  0  0  0  0  0  0  0  0
    6.4860    0.0840   20.0220 C   0  0  0  0  0  0  0  0  0  0  0  0
    5.1790    0.8190   20.2860 C   0  0  0  0  0  0  0  0  0  0  0  0
    4.5470    1.4000   19.2020 C   0  0  0  0  0  0  0  0  0  0  0  0
    5.1300    1.2850   17.9380 C   0  0  0  0  0  0  0  0  0  0  0  0
    6.2750    0.6330   17.6820 N   0  0  0  0  0  0  0  0  0  0  0  0
    6.8970    0.0660   18.7170 C   0  0  0  0  0  0  0  0  0  0  0  0
   11.3340    0.7050   23.1110 O   0  0  0  0  0  0  0  0  0  0  0  0
   12.4820    1.6350   23.1080 C   0  0  0  0  0  0  0  0  0  0  0  0
   11.6180    2.6140   23.5070 C   0  0  0  0  0  0  0  0  0  0  0  0
   10.4040    2.1530   23.6250 C   0  0  0  0  0  0  0  0  0  0  0  0
   10.3570    0.8390   23.3170 C   0  0  0  0  0  0  0  0  0  0  0  0
   11.5460    0.1100   22.9150 C   0  0  0  0  0  0  0  0  0  0  0  0
   12.9510    0.4860   22.7400 C   0  0  0  0  0  0  0  0  0  0  0  0
  1  2  1  0
  2  3  2  0
  3  4  1  0
  4  5  1  1
  4  6  1  0
  6  7  1  0
  7  8  2  0
  7  9  1  0
  9 10  1  0
 10 11  2  0
 11 12  1  0
 12 13  2  0
 13 14  1  0
 10 15  1  0
 14 15  2  0
  3 16  1  0
 16 17  1  0
 17 18  1  0
 18 19  2  0
 19 20  1  0
 20 21  2  0
  2 22  1  0
 17 22  2  0
 21 22  1  0
M  END
