pyridine_urea_12618
     RDKit          3D

 21 22  0  0  0  0  0  0  0  0999 V2000
    9.4680    1.3430   23.4070 C   0  0  0  0  0  0  0  0  0  0  0  0
   10.6730    0.3810   23.6970 C   0  0  0  0  0  0  0  0  0  0  0  0
   10.4830   -0.2280   25.1260 C   0  0  0  0  0  0  0  0  0  0  0  0
   10.6500   -0.7110   22.5750 C   0  0  0  0  0  0  0  0  0  0  0  0
    9.3210   -1.0000   21.9960 N   0  0  0  0  0  0  0  0  0  0  0  0
    8.5630   -0.0340   21.3500 C   0  0  0  0  0  0  0  0  0  0  0  0
    8.9620    1.1180   21.1380 O   0  0  0  0  0  0  0  0  0  0  0  0
    7.3300   -0.5230   20.9770 N   0  0  0  0  0  0  0  0  0  0  0  0
    6.5120    0.1160   20.0400 C   0  0  0  0  0  0  0  0  0  0  0  0
    5.3420    0.8150   20.3200 C   0  0  0  0  0  0  0  0  0  0  0  0
    4.6390    1.4210   19.2760 C   0  0  0  0  0  0  0  0  0  0  0  0
    5.1400    1.3000   17.9960 C   0  0  0  0  0  0  0  0  0  0  0  0
    6.2580    0.6240   17.6990 N   0  0  0  0  0  0  0  0  0  0  0  0
    6.9090    0.0540   18.7230 C   0  0  0  0  0  0  0  0  0  0  0  0
   11.7630    1.5100   23.7280 C   0  0  0  0  0  0  0  0  0  0  0  0
   12.4900    0.4810   23.1440 C   0  0  0  0  0  0  0  0  0  0  0  0
   11.9100   -0.7050   22.9240 C   0  0  0  0  0  0  0  0  0  0  0  0
   10.4610   -1.0320   23.2880 C   0  0  0  0  0  0  0  0  0  0  0  0
    9.9250    0.2410   23.9010 C   0  0  0  0  0  0  0  0  0  0  0  0
    8.2460    0.1210   24.4280 Cl  0  0  0  0  0  0  0  0  0  0  0  0
   10.5700    1.6390   24.1600 C   0  0  0  0  0  0  0  0  0  0  0  0
  2  1  1  0
  2  3  1  0
  2  4  1  0
  4  5  1  0
  5  6  1  0
  6  7  2  0
  6  8  1  0
  8  9  1  0
  9 10  2  0
 10 11  1  0
 11 12  2  0
 12 13  1  0
  9 14  1  0
 13 14  2  0
  2 15  1  0
 15 16  2  0
 16 17  1  0
 17 18  2  0
 18 19  1  0
 19 20  1  0
 15 21  1  0
 19 21  2  0
M  END
