pyridine_urea_7055
     RDKit          3D

 20 21  0  0  0  0  0  0  0  0999 V2000
    7.3240    1.2440   26.7490 C   0  0  0  0  0  0  0  0  0  0  0  0
    8.1360    0.0210   26.3650 C   0  0  0  0  0  0  0  0  0  0  0  0
    9.3030    0.3940   25.5640 N   0  0  0  0  0  0  0  0  0  0  0  0
    9.1940    0.3140   24.1080 C   0  0  0  0  0  0  0  0  0  0  0  0
   10.4050   -0.0650   23.5310 C   0  0  0  0  0  0  0  0  0  0  0  0
   11.6200    0.4500   23.9140 C   0  0  0  0  0  0  0  0  0  0  0  0
   12.7900    0.0340   23.3320 C   0  0  0  0  0  0  0  0  0  0  0  0
   12.7950   -1.0170   22.2430 C   0  0  0  0  0  0  0  0  0  0  0  0
   11.5520   -1.5130   21.8650 C   0  0  0  0  0  0  0  0  0  0  0  0
   10.3940   -1.0170   22.5090 C   0  0  0  0  0  0  0  0  0  0  0  0
    9.1200   -1.5240   22.0630 N   0  0  0  0  0  0  0  0  0  0  0  0
    8.3110   -0.5280   21.4560 C   0  0  0  0  0  0  0  0  0  0  0  0
    8.7190    0.6090   21.2670 O   0  0  0  0  0  0  0  0  0  0  0  0
    7.0790   -0.9620   21.1190 N   0  0  0  0  0  0  0  0  0  0  0  0
    6.4800   -0.2000   20.0280 C   0  0  0  0  0  0  0  0  0  0  0  0
    5.2300    0.5900   20.2720 C   0  0  0  0  0  0  0  0  0  0  0  0
    4.6260    1.3470   19.2480 C   0  0  0  0  0  0  0  0  0  0  0  0
    5.2270    1.3390   17.9920 C   0  0  0  0  0  0  0  0  0  0  0  0
    6.3590    0.6140   17.7820 N   0  0  0  0  0  0  0  0  0  0  0  0
    7.0030   -0.1550   18.7510 C   0  0  0  0  0  0  0  0  0  0  0  0
  1  2  1  0
  2  3  1  0
  3  4  1  0
  4  5  1  0
  5  6  2  0
  6  7  1  0
  7  8  2  0
  8  9  1  0
  5 10  1  0
  9 10  2  0
 10 11  1  0
 11 12  1  0
 12 13  2  0
 12 14  1  0
 14 15  1  0
 15 16  2  0
 16 17  1  0
 17 18  2  0
 18 19  1  0
 15 20  1  0
 19 20  2  0
M  END
