pyridine_urea_5985
     RDKit          3D

 26 28  0  0  0  0  0  0  0  0999 V2000
    8.1450    1.1930   20.6660 O   0  0  0  0  0  0  0  0  0  0  0  0
    8.4670    0.3550   21.5030 C   0  0  0  0  0  0  0  0  0  0  0  0
    7.3010   -0.4290   21.0850 N   0  0  0  0  0  0  0  0  0  0  0  0
    6.5490    0.1410   20.0700 C   0  0  0  0  0  0  0  0  0  0  0  0
    5.3910    0.8640   20.3650 C   0  0  0  0  0  0  0  0  0  0  0  0
    4.6780    1.4370   19.3110 C   0  0  0  0  0  0  0  0  0  0  0  0
    5.1480    1.2650   18.0100 C   0  0  0  0  0  0  0  0  0  0  0  0
    6.2490    0.5650   17.7130 N   0  0  0  0  0  0  0  0  0  0  0  0
    6.9260    0.0170   18.7490 C   0  0  0  0  0  0  0  0  0  0  0  0
    8.5560   -0.7340   22.3220 N   0  0  0  0  0  0  0  0  0  0  0  0
    9.7450   -0.6960   23.1440 C   0  0  0  0  0  0  0  0  0  0  0  0
   10.8880   -0.2610   22.2200 C   0  0  0  0  0  0  0  0  0  0  0  0
   11.9460    0.5140   22.7030 C   0  0  0  0  0  0  0  0  0  0  0  0
   11.7620    0.7900   23.9500 N   0  0  0  0  0  0  0  0  0  0  0  0
   11.8640   -0.6450   24.7660 S   0  0  0  0  0  0  0  0  0  0  0  0
   12.9710   -0.5380   25.6700 O   0  0  0  0  0  0  0  0  0  0  0  0
   10.5800   -1.1470   25.2000 O   0  0  0  0  0  0  0  0  0  0  0  0
   12.4580   -1.6440   23.4560 C   0  0  0  0  0  0  0  0  0  0  0  0
   12.0220   -1.7040   22.1010 C   0  0  0  0  0  0  0  0  0  0  0  0
   12.6480   -2.5720   21.1670 C   0  0  0  0  0  0  0  0  0  0  0  0
   13.7010   -3.3760   21.6180 C   0  0  0  0  0  0  0  0  0  0  0  0
   15.1550   -5.0600   20.5720 I   0  0  0  0  0  0  0  0  0  0  0  0
   13.9850   -3.1700   22.9900 C   0  0  0  0  0  0  0  0  0  0  0  0
   13.4410   -2.3870   23.8830 C   0  0  0  0  0  0  0  0  0  0  0  0
   10.4910    1.3940   23.9660 C   0  0  0  0  0  0  0  0  0  0  0  0
    9.5720    0.3880   24.2260 C   0  0  0  0  0  0  0  0  0  0  0  0
  1  2  2  0
  2  3  1  0
  3  4  1  0
  4  5  2  0
  5  6  1  0
  6  7  2  0
  7  8  1  0
  4  9  1  0
  8  9  2  0
  2 10  1  0
 10 11  1  0
 11 12  1  0
 12 13  1  0
 13 14  1  0
 14 15  1  0
 15 16  2  0
 15 17  2  0
 15 18  1  0
 18 19  2  0
 19 20  1  0
 20 21  2  0
 21 22  1  0
 21 23  1  0
 18 24  1  0
 23 24  2  0
 14 25  1  0
 11 26  1  0
 25 26  1  0
M  END
