pyridine_urea_1153
     RDKit          3D

 21 23  0  0  0  0  0  0  0  0999 V2000
    8.4610    1.3590   20.7710 O   0  0  0  0  0  0  0  0  0  0  0  0
    8.4230    0.1880   21.1230 C   0  0  0  0  0  0  0  0  0  0  0  0
    7.4400   -0.6440   20.7190 N   0  0  0  0  0  0  0  0  0  0  0  0
    6.5090    0.0010   19.8610 C   0  0  0  0  0  0  0  0  0  0  0  0
    5.1740    0.6260   20.2220 C   0  0  0  0  0  0  0  0  0  0  0  0
    4.4560    1.2280   19.0940 C   0  0  0  0  0  0  0  0  0  0  0  0
    4.9680    1.2360   17.6920 C   0  0  0  0  0  0  0  0  0  0  0  0
    6.1820    0.6420   17.4260 N   0  0  0  0  0  0  0  0  0  0  0  0
    6.3460    0.3140   18.6830 C   0  0  0  0  0  0  0  0  0  0  0  0
    9.3340   -0.3880   21.9240 N   0  0  0  0  0  0  0  0  0  0  0  0
   10.3200   -0.7880   22.7170 C   0  0  1  0  0  0  0  0  0  0  0  0
   11.6590   -0.2850   22.3370 C   0  0  0  0  0  0  0  0  0  0  0  0
   12.6450   -0.0340   23.4660 O   0  0  0  0  0  0  0  0  0  0  0  0
   12.3360   -1.0560   24.2330 C   0  0  0  0  0  0  0  0  0  0  0  0
   11.6520   -1.9210   24.9690 C   0  0  0  0  0  0  0  0  0  0  0  0
   13.0920   -2.4940   25.0370 C   0  0  0  0  0  0  0  0  0  0  0  0
   12.3530   -3.3600   25.7500 F   0  0  0  0  0  0  0  0  0  0  0  0
   13.5900   -1.3030   24.1630 C   0  0  0  0  0  0  0  0  0  0  0  0
   12.5850   -0.6340   23.9340 C   0  0  0  0  0  0  0  0  0  0  0  0
   11.5360    0.0650   23.6940 C   0  0  0  0  0  0  0  0  0  0  0  0
   10.3150   -0.2020   24.0080 C   0  0  0  0  0  0  0  0  0  0  0  0
  1  2  2  0
  2  3  1  0
  3  4  1  0
  4  5  2  0
  5  6  1  0
  6  7  2  0
  7  8  1  0
  4  9  1  0
  8  9  2  0
  2 10  1  0
 11 10  1  6
 11 12  1  0
 12 13  1  0
 13 14  1  0
 14 15  2  0
 15 16  1  0
 16 17  1  0
 16 18  2  0
 18 19  1  0
 14 20  1  0
 19 20  2  0
 11 21  1  0
 20 21  1  0
M  END
