pyridine_urea_11138
     RDKit          3D

 18 18  0  0  0  0  0  0  0  0999 V2000
   12.8350   -0.0710   22.6210 C   0  0  0  0  0  0  0  0  0  0  0  0
   11.6560   -0.2520   22.8160 C   0  0  2  0  0  0  0  0  0  0  0  0
   10.1510    0.0320   22.9610 C   0  0  0  0  0  0  0  0  0  0  0  0
    9.3720   -0.8750   22.0930 N   0  0  0  0  0  0  0  0  0  0  0  0
    8.3900   -0.0010   21.3960 C   0  0  0  0  0  0  0  0  0  0  0  0
    8.6860    1.3540   21.0230 O   0  0  0  0  0  0  0  0  0  0  0  0
    7.1960   -0.6630   21.1680 N   0  0  0  0  0  0  0  0  0  0  0  0
    6.6620   -0.0940   20.0990 C   0  0  0  0  0  0  0  0  0  0  0  0
    5.4070    0.7200   20.4330 C   0  0  0  0  0  0  0  0  0  0  0  0
    4.7160    1.4100   19.3260 C   0  0  0  0  0  0  0  0  0  0  0  0
    5.2410    1.2770   18.0970 C   0  0  0  0  0  0  0  0  0  0  0  0
    6.3550    0.5510   17.8050 N   0  0  0  0  0  0  0  0  0  0  0  0
    7.0360   -0.1140   18.7800 C   0  0  0  0  0  0  0  0  0  0  0  0
   11.8130   -0.6280   23.9710 O   0  0  0  0  0  0  0  0  0  0  0  0
   12.1360   -1.9920   24.1790 C   0  0  0  0  0  0  0  0  0  0  0  0
   13.2110   -2.5120   23.4670 C   0  0  0  0  0  0  0  0  0  0  0  0
   13.3060   -2.4520   25.0010 C   0  0  0  0  0  0  0  0  0  0  0  0
   10.9310   -2.9450   24.2000 C   0  0  0  0  0  0  0  0  0  0  0  0
  2  1  1  1
  2  3  1  0
  3  4  1  0
  4  5  1  0
  5  6  2  0
  5  7  1  0
  7  8  1  0
  8  9  2  0
  9 10  1  0
 10 11  2  0
 11 12  1  0
  8 13  1  0
 12 13  2  0
  2 14  1  0
 15 14  1  0
 15 16  1  0
 15 17  1  0
 15 18  1  0
M  END
