pyridine_urea_9082
     RDKit          3D

 19 20  0  0  0  0  0  0  0  0999 V2000
   10.5890   -2.4920   21.8350 C   0  0  0  0  0  0  0  0  0  0  0  0
   12.1160   -2.2930   21.8240 C   0  0  0  0  0  0  0  0  0  0  0  0
   12.1660   -0.9980   22.3810 N   0  0  0  0  0  0  0  0  0  0  0  0
   13.3520   -0.1400   22.4300 N   0  0  0  0  0  0  0  0  0  0  0  0
   13.0870    1.2650   23.1060 C   0  0  0  0  0  0  0  0  0  0  0  0
   12.3380    0.3330   22.9100 C   0  0  0  0  0  0  0  0  0  0  0  0
   11.2460   -0.2710   22.9490 C   0  0  0  0  0  0  0  0  0  0  0  0
    9.8990   -0.4100   23.2610 C   0  0  1  0  0  0  0  0  0  0  0  0
    9.3800    0.8170   23.5640 C   0  0  0  0  0  0  0  0  0  0  0  0
    9.0590   -0.8200   22.2910 N   0  0  0  0  0  0  0  0  0  0  0  0
    8.3600    0.0110   21.4510 C   0  0  0  0  0  0  0  0  0  0  0  0
    8.7650    1.1340   21.0940 O   0  0  0  0  0  0  0  0  0  0  0  0
    7.2280   -0.5980   21.1210 N   0  0  0  0  0  0  0  0  0  0  0  0
    6.5270    0.0710   20.1280 C   0  0  0  0  0  0  0  0  0  0  0  0
    5.3740    0.8230   20.4170 C   0  0  0  0  0  0  0  0  0  0  0  0
    4.7250    1.4710   19.3550 C   0  0  0  0  0  0  0  0  0  0  0  0
    5.2810    1.3340   17.9860 C   0  0  0  0  0  0  0  0  0  0  0  0
    6.3750    0.6160   17.7190 N   0  0  0  0  0  0  0  0  0  0  0  0
    6.9690   -0.0020   18.8060 C   0  0  0  0  0  0  0  0  0  0  0  0
  1  2  1  0
  2  3  1  0
  3  4  1  0
  4  5  2  0
  5  6  1  0
  3  7  1  0
  6  7  2  0
  7  8  1  0
  8  9  1  6
  8 10  1  0
 10 11  1  0
 11 12  2  0
 11 13  1  0
 13 14  1  0
 14 15  2  0
 15 16  1  0
 16 17  2  0
 17 18  1  0
 14 19  1  0
 18 19  2  0
M  END
