pyridine_urea_1120
     RDKit          3D

 21 22  0  0  0  0  0  0  0  0999 V2000
    8.7410    0.6800   21.3040 O   0  0  0  0  0  0  0  0  0  0  0  0
    8.1410   -0.3590   21.5460 C   0  0  0  0  0  0  0  0  0  0  0  0
    8.5550   -1.3540   22.5250 N   0  0  0  0  0  0  0  0  0  0  0  0
    9.7020   -1.1410   23.2750 C   0  0  0  0  0  0  0  0  0  0  0  0
   10.3790    0.0370   23.0070 C   0  0  1  0  0  0  0  0  0  0  0  0
   11.0410    0.6420   24.0790 C   0  0  0  0  0  0  0  0  0  0  0  0
    9.9750    0.7440   25.0500 O   0  0  0  0  0  0  0  0  0  0  0  0
   11.9010    0.0850   22.8480 C   0  0  0  0  0  0  0  0  0  0  0  0
   12.6310    1.3390   23.2420 C   0  0  0  0  0  0  0  0  0  0  0  0
   13.0300    0.0830   22.6960 C   0  0  0  0  0  0  0  0  0  0  0  0
   11.6810   -0.6930   22.5470 C   0  0  0  0  0  0  0  0  0  0  0  0
   11.9020   -1.8500   22.0570 C   0  0  0  0  0  0  0  0  0  0  0  0
   10.5970   -2.1310   22.0940 F   0  0  0  0  0  0  0  0  0  0  0  0
   12.9320   -0.9630   22.3010 C   0  0  0  0  0  0  0  0  0  0  0  0
    6.9630   -0.7480   20.9410 N   0  0  0  0  0  0  0  0  0  0  0  0
    6.3000   -0.0200   19.9890 C   0  0  0  0  0  0  0  0  0  0  0  0
    5.1120    0.6730   20.1930 C   0  0  0  0  0  0  0  0  0  0  0  0
    4.5720    1.3730   19.1290 C   0  0  0  0  0  0  0  0  0  0  0  0
    5.2400    1.3490   17.9210 C   0  0  0  0  0  0  0  0  0  0  0  0
    6.3790    0.6920   17.6900 N   0  0  0  0  0  0  0  0  0  0  0  0
    6.8790    0.0210   18.7360 C   0  0  0  0  0  0  0  0  0  0  0  0
  1  2  2  0
  2  3  1  0
  3  4  1  0
  5  4  1  1
  5  6  1  0
  6  7  1  0
  5  8  1  0
  8  9  2  0
  9 10  1  0
 10 11  2  0
 11 12  1  0
 12 13  1  0
  8 14  1  0
 12 14  2  0
  2 15  1  0
 15 16  1  0
 16 17  2  0
 17 18  1  0
 18 19  2  0
 19 20  1  0
 16 21  1  0
 20 21  2  0
M  END
