pyridine_urea_13860
     RDKit          3D

 24 26  0  0  0  0  0  0  0  0999 V2000
   10.7130    4.3770   23.8840 N   0  0  0  0  0  0  0  0  0  0  0  0
   10.6550    3.2970   23.4810 C   0  0  0  0  0  0  0  0  0  0  0  0
   10.5430    2.1540   23.1600 C   0  0  0  0  0  0  0  0  0  0  0  0
    9.7090    0.9280   22.8490 C   0  0  0  0  0  0  0  0  0  0  0  0
   10.1730   -0.4170   22.4590 C   0  0  0  0  0  0  0  0  0  0  0  0
    9.2370   -1.3770   22.1820 N   0  0  0  0  0  0  0  0  0  0  0  0
    8.3570   -0.6430   21.4750 C   0  0  0  0  0  0  0  0  0  0  0  0
    8.7520    0.7180   21.1420 O   0  0  0  0  0  0  0  0  0  0  0  0
    7.1140   -1.0570   21.0440 N   0  0  0  0  0  0  0  0  0  0  0  0
    6.5300   -0.3230   20.1110 C   0  0  0  0  0  0  0  0  0  0  0  0
    5.2920    0.4790   20.3450 C   0  0  0  0  0  0  0  0  0  0  0  0
    4.5980    1.2680   19.4720 C   0  0  0  0  0  0  0  0  0  0  0  0
    5.3310    1.2000   18.1420 C   0  0  0  0  0  0  0  0  0  0  0  0
    6.4480    0.4960   17.8730 N   0  0  0  0  0  0  0  0  0  0  0  0
    7.0160   -0.2400   18.8340 C   0  0  0  0  0  0  0  0  0  0  0  0
   11.6820   -0.7230   22.3540 C   0  0  0  0  0  0  0  0  0  0  0  0
   12.4460    0.4030   22.6290 C   0  0  0  0  0  0  0  0  0  0  0  0
   11.9930    1.8000   23.0010 C   0  0  0  0  0  0  0  0  0  0  0  0
   13.0450    2.7800   23.1970 O   0  0  0  0  0  0  0  0  0  0  0  0
   13.0780    4.0320   22.4390 C   0  0  0  0  0  0  0  0  0  0  0  0
   13.3440    5.1680   23.3370 C   0  0  0  0  0  0  0  0  0  0  0  0
   12.2950    6.0600   23.3050 C   0  0  0  0  0  0  0  0  0  0  0  0
   11.4540    5.6040   22.3080 C   0  0  0  0  0  0  0  0  0  0  0  0
   11.9330    4.3850   21.7590 C   0  0  0  0  0  0  0  0  0  0  0  0
  1  2  3  0
  2  3  1  0
  3  4  2  0
  4  5  1  0
  5  6  1  0
  6  7  1  0
  7  8  2  0
  7  9  1  0
  9 10  1  0
 10 11  2  0
 11 12  1  0
 12 13  2  0
 13 14  1  0
 10 15  1  0
 14 15  2  0
  5 16  2  0
 16 17  1  0
  3 18  1  0
 17 18  2  0
 18 19  1  0
 19 20  1  0
 20 21  1  0
 21 22  1  0
 22 23  1  0
 20 24  1  0
 23 24  1  0
M  END
