pyridine_urea_6212
     RDKit          3D

 24 26  0  0  0  0  0  0  0  0999 V2000
    7.2770    1.1450   25.9290 C   0  0  0  0  0  0  0  0  0  0  0  0
    7.9020    0.0060   26.3900 N   0  0  0  0  0  0  0  0  0  0  0  0
    8.1370   -0.1260   27.8190 C   0  0  0  0  0  0  0  0  0  0  0  0
    9.0750   -0.2230   25.5630 C   0  0  0  0  0  0  0  0  0  0  0  0
    9.0190   -0.3520   24.1450 C   0  0  0  0  0  0  0  0  0  0  0  0
   10.1740   -0.5480   23.4700 C   0  0  0  0  0  0  0  0  0  0  0  0
   10.4920   -0.7230   22.0270 C   0  0  0  0  0  0  0  0  0  0  0  0
    9.2870   -0.9940   21.4870 N   0  0  0  0  0  0  0  0  0  0  0  0
    8.3850    0.0380   21.2830 C   0  0  0  0  0  0  0  0  0  0  0  0
    8.7990    1.4130   21.2110 O   0  0  0  0  0  0  0  0  0  0  0  0
    7.1060   -0.3870   21.0930 N   0  0  0  0  0  0  0  0  0  0  0  0
    6.4340    0.1830   20.0350 C   0  0  0  0  0  0  0  0  0  0  0  0
    5.1670    0.9440   20.2500 C   0  0  0  0  0  0  0  0  0  0  0  0
    4.5800    1.5210   19.1420 C   0  0  0  0  0  0  0  0  0  0  0  0
    5.0770    1.4510   17.8440 C   0  0  0  0  0  0  0  0  0  0  0  0
    6.3150    0.6840   17.6450 N   0  0  0  0  0  0  0  0  0  0  0  0
    6.8940    0.1100   18.7460 C   0  0  0  0  0  0  0  0  0  0  0  0
   11.4240   -0.6130   24.2330 C   0  0  0  0  0  0  0  0  0  0  0  0
   12.8260   -0.8140   23.5740 C   0  0  0  0  0  0  0  0  0  0  0  0
   12.4960   -0.8870   22.2390 C   0  0  0  0  0  0  0  0  0  0  0  0
   11.7310   -0.7110   23.4250 C   0  0  0  0  0  0  0  0  0  0  0  0
   12.6650   -0.7260   24.6220 C   0  0  0  0  0  0  0  0  0  0  0  0
   11.6010   -0.5290   25.4880 C   0  0  0  0  0  0  0  0  0  0  0  0
   10.3500   -0.3350   26.0540 N   0  0  0  0  0  0  0  0  0  0  0  0
  1  2  1  0
  2  3  1  0
  2  4  1  0
  4  5  2  0
  5  6  1  0
  6  7  1  0
  7  8  1  0
  8  9  1  0
  9 10  2  0
  9 11  1  0
 11 12  1  0
 12 13  2  0
 13 14  1  0
 14 15  2  0
 15 16  1  0
 12 17  1  0
 16 17  2  0
  6 18  2  0
 18 19  1  0
 19 20  2  0
 20 21  1  0
 21 22  2  0
 18 23  1  0
 22 23  1  0
  4 24  1  0
 23 24  2  0
M  END
