pyridine_urea_7815
     RDKit          3D

 29 31  0  0  0  0  0  0  0  0999 V2000
    8.7900    0.6020   21.3230 O   0  0  0  0  0  0  0  0  0  0  0  0
    8.3340   -0.5250   21.4520 C   0  0  0  0  0  0  0  0  0  0  0  0
    7.0970   -0.9060   21.0020 N   0  0  0  0  0  0  0  0  0  0  0  0
    6.4380   -0.1690   20.0030 C   0  0  0  0  0  0  0  0  0  0  0  0
    5.2430    0.5060   20.2870 C   0  0  0  0  0  0  0  0  0  0  0  0
    4.6060    1.2480   19.2870 C   0  0  0  0  0  0  0  0  0  0  0  0
    5.1880    1.2900   18.0350 C   0  0  0  0  0  0  0  0  0  0  0  0
    6.3290    0.6480   17.7450 N   0  0  0  0  0  0  0  0  0  0  0  0
    6.9230   -0.0620   18.7230 C   0  0  0  0  0  0  0  0  0  0  0  0
    9.0670   -1.5140   22.0830 N   0  0  0  0  0  0  0  0  0  0  0  0
   10.3250   -0.9690   22.5930 C   0  0  0  0  0  0  0  0  0  0  0  0
   11.5670   -1.4840   21.8950 C   0  0  0  0  0  0  0  0  0  0  0  0
   12.7940   -0.9750   22.3040 C   0  0  0  0  0  0  0  0  0  0  0  0
   12.8320   -0.0250   23.3200 C   0  0  0  0  0  0  0  0  0  0  0  0
   11.6720    0.4220   23.9550 C   0  0  0  0  0  0  0  0  0  0  0  0
   10.4110   -0.0530   23.6040 C   0  0  0  0  0  0  0  0  0  0  0  0
    9.2410    0.3770   24.2410 C   0  0  0  0  0  0  0  0  0  0  0  0
    8.3150    1.1060   23.5390 O   0  0  0  0  0  0  0  0  0  0  0  0
    9.0230    0.0470   25.5560 N   0  0  0  0  0  0  0  0  0  0  0  0
    8.3770    0.7280   26.5640 C   0  0  0  0  0  0  0  0  0  0  0  0
    7.3750    1.6490   26.2460 C   0  0  0  0  0  0  0  0  0  0  0  0
    6.7160    2.3510   27.2560 C   0  0  0  0  0  0  0  0  0  0  0  0
    7.0510    2.1390   28.5930 C   0  0  0  0  0  0  0  0  0  0  0  0
    8.0510    1.2210   28.9210 C   0  0  0  0  0  0  0  0  0  0  0  0
    8.4320    0.9680   30.2520 C   0  0  0  0  0  0  0  0  0  0  0  0
    9.7230    0.6600   30.4500 F   0  0  0  0  0  0  0  0  0  0  0  0
    7.7370   -0.0790   30.7610 F   0  0  0  0  0  0  0  0  0  0  0  0
    8.1460    2.0250   31.0430 F   0  0  0  0  0  0  0  0  0  0  0  0
    8.7220    0.5070   27.9030 C   0  0  0  0  0  0  0  0  0  0  0  0
  1  2  2  0
  2  3  1  0
  3  4  1  0
  4  5  2  0
  5  6  1  0
  6  7  2  0
  7  8  1  0
  4  9  1  0
  8  9  2  0
  2 10  1  0
 10 11  1  0
 11 12  2  0
 12 13  1  0
 13 14  2  0
 14 15  1  0
 11 16  1  0
 15 16  2  0
 16 17  1  0
 17 18  2  0
 17 19  1  0
 19 20  1  0
 20 21  2  0
 21 22  1  0
 22 23  2  0
 23 24  1  0
 24 25  1  0
 25 26  1  0
 25 27  1  0
 25 28  1  0
 20 29  1  0
 24 29  2  0
M  END
