pyridine_urea_7135
     RDKit          3D

 19 20  0  0  0  0  0  0  0  0999 V2000
    4.0800    2.6630   18.7070 C   0  0  0  0  0  0  0  0  0  0  0  0
    5.0830    2.1030   18.2770 O   0  0  0  0  0  0  0  0  0  0  0  0
    5.0140    0.7510   18.1390 C   0  0  0  0  0  0  0  0  0  0  0  0
    4.3070    0.2060   17.3800 O   0  0  0  0  0  0  0  0  0  0  0  0
    5.7830   -0.1160   18.9360 N   0  0  0  0  0  0  0  0  0  0  0  0
    5.3310   -0.1210   20.2880 C   0  0  0  0  0  0  0  0  0  0  0  0
    6.6270    0.1950   20.4550 C   0  0  0  0  0  0  0  0  0  0  0  0
    6.8630    1.5100   20.8250 C   0  0  0  0  0  0  0  0  0  0  0  0
    7.3080   -0.5990   21.3410 N   0  0  0  0  0  0  0  0  0  0  0  0
    8.5430   -0.2020   21.6490 C   0  0  0  0  0  0  0  0  0  0  0  0
    8.9650    0.8850   21.2880 O   0  0  0  0  0  0  0  0  0  0  0  0
    9.2910   -1.1590   22.4340 N   0  0  0  0  0  0  0  0  0  0  0  0
   10.5730   -0.6570   22.5950 C   0  0  0  0  0  0  0  0  0  0  0  0
   11.6820   -1.4790   22.3820 C   0  0  0  0  0  0  0  0  0  0  0  0
   12.9790   -0.9640   22.5290 C   0  0  0  0  0  0  0  0  0  0  0  0
   13.1540    0.3630   22.8780 C   0  0  0  0  0  0  0  0  0  0  0  0
   12.0570    1.1650   23.0850 N   0  0  0  0  0  0  0  0  0  0  0  0
   10.8100    0.6540   22.9470 C   0  0  0  0  0  0  0  0  0  0  0  0
    7.1370    0.0870   19.0960 C   0  0  0  0  0  0  0  0  0  0  0  0
  1  2  1  0
  2  3  1  0
  3  4  2  0
  3  5  1  0
  5  6  1  0
  6  7  1  0
  7  8  1  0
  7  9  1  0
  9 10  1  0
 10 11  2  0
 10 12  1  0
 12 13  1  0
 13 14  2  0
 14 15  1  0
 15 16  2  0
 16 17  1  0
 13 18  1  0
 17 18  2  0
  5 19  1  0
  7 19  1  0
M  END
