pyridine_urea_6538
     RDKit          3D

 22 24  0  0  0  0  0  0  0  0999 V2000
    8.6530    0.9180   21.1030 O   0  0  0  0  0  0  0  0  0  0  0  0
    8.4160   -0.2710   21.2510 C   0  0  0  0  0  0  0  0  0  0  0  0
    7.2770   -0.8580   20.7860 N   0  0  0  0  0  0  0  0  0  0  0  0
    6.4140   -0.0860   20.0060 C   0  0  0  0  0  0  0  0  0  0  0  0
    5.0580    0.4610   20.4580 C   0  0  0  0  0  0  0  0  0  0  0  0
    4.3360    1.2980   19.4050 C   0  0  0  0  0  0  0  0  0  0  0  0
    5.0230    1.4830   18.0930 C   0  0  0  0  0  0  0  0  0  0  0  0
    6.2110    0.9550   17.8010 N   0  0  0  0  0  0  0  0  0  0  0  0
    6.8490    0.2090   18.7220 C   0  0  0  0  0  0  0  0  0  0  0  0
    9.2850   -1.1100   21.8990 N   0  0  0  0  0  0  0  0  0  0  0  0
   10.2900   -0.4870   22.7230 C   0  0  0  0  0  0  0  0  0  0  0  0
   10.1260    0.9040   22.7610 C   0  0  0  0  0  0  0  0  0  0  0  0
    8.8930    1.3870   23.1890 C   0  0  0  0  0  0  0  0  0  0  0  0
    8.6750    2.7550   23.2860 C   0  0  0  0  0  0  0  0  0  0  0  0
    7.4600    3.3370   23.7010 C   0  0  0  0  0  0  0  0  0  0  0  0
    6.2870    2.6120   24.0740 C   0  0  0  0  0  0  0  0  0  0  0  0
    4.8170    3.3620   24.5750 Cl  0  0  0  0  0  0  0  0  0  0  0  0
    6.5000    1.0930   23.9770 C   0  0  0  0  0  0  0  0  0  0  0  0
    7.6860    0.5040   23.5730 C   0  0  0  0  0  0  0  0  0  0  0  0
   10.5910   -1.1740   23.9300 C   0  0  0  0  0  0  0  0  0  0  0  0
   11.8910   -1.3620   23.6010 C   0  0  0  0  0  0  0  0  0  0  0  0
   11.8050   -0.8500   22.3700 C   0  0  0  0  0  0  0  0  0  0  0  0
  1  2  2  0
  2  3  1  0
  3  4  1  0
  4  5  2  0
  5  6  1  0
  6  7  2  0
  7  8  1  0
  4  9  1  0
  8  9  2  0
  2 10  1  0
 11 10  1  0
 11 12  1  0
 12 13  1  0
 13 14  2  0
 14 15  1  0
 15 16  2  0
 16 17  1  0
 16 18  1  0
 13 19  1  0
 18 19  2  0
 11 20  1  0
 20 21  1  0
 11 22  1  0
 21 22  1  0
M  END
