pyridine_urea_7011
     RDKit          3D

 20 21  0  0  0  0  0  0  0  0999 V2000
   12.3960    2.9340   22.6800 C   0  0  0  0  0  0  0  0  0  0  0  0
   12.2850    1.4230   22.8680 C   0  0  0  0  0  0  0  0  0  0  0  0
   13.1930    0.4220   22.7900 C   0  0  0  0  0  0  0  0  0  0  0  0
   12.0040   -0.5020   23.1320 C   0  0  0  0  0  0  0  0  0  0  0  0
   11.4430   -1.7030   23.3750 F   0  0  0  0  0  0  0  0  0  0  0  0
   13.0600   -1.2360   22.9810 C   0  0  0  0  0  0  0  0  0  0  0  0
   12.8860    0.0890   22.8860 C   0  0  0  0  0  0  0  0  0  0  0  0
   11.3580    0.6440   23.1560 C   0  0  0  0  0  0  0  0  0  0  0  0
   10.8060   -0.6030   23.4280 C   0  0  0  0  0  0  0  0  0  0  0  0
   10.2990   -1.3000   22.3540 C   0  0  0  0  0  0  0  0  0  0  0  0
    8.9430   -1.1350   22.1100 N   0  0  0  0  0  0  0  0  0  0  0  0
    8.3300   -0.0200   21.3980 C   0  0  0  0  0  0  0  0  0  0  0  0
    8.8860    1.0640   21.1640 O   0  0  0  0  0  0  0  0  0  0  0  0
    7.0510   -0.3810   21.0410 N   0  0  0  0  0  0  0  0  0  0  0  0
    6.3360    0.2310   20.0220 C   0  0  0  0  0  0  0  0  0  0  0  0
    5.0630    0.9700   20.1880 C   0  0  0  0  0  0  0  0  0  0  0  0
    4.5030    1.5400   19.0460 C   0  0  0  0  0  0  0  0  0  0  0  0
    5.1630    1.3830   17.8350 C   0  0  0  0  0  0  0  0  0  0  0  0
    6.3090    0.7060   17.6690 N   0  0  0  0  0  0  0  0  0  0  0  0
    6.8630    0.1500   18.7510 C   0  0  0  0  0  0  0  0  0  0  0  0
  1  2  1  0
  2  3  2  0
  3  4  1  0
  4  5  1  0
  4  6  2  0
  6  7  1  0
  2  8  1  0
  7  8  2  0
  8  9  1  0
  9 10  1  0
 10 11  1  0
 11 12  1  0
 12 13  2  0
 12 14  1  0
 14 15  1  0
 15 16  2  0
 16 17  1  0
 17 18  2  0
 18 19  1  0
 15 20  1  0
 19 20  2  0
M  END
