pyridine_urea_13085
     RDKit          3D

 18 18  0  0  0  0  0  0  0  0999 V2000
   13.1680   -0.6190   22.8910 C   0  0  0  0  0  0  0  0  0  0  0  0
   11.8650   -1.0330   22.8860 N   0  0  0  0  0  0  0  0  0  0  0  0
   11.2600   -1.8940   21.9530 C   0  0  0  0  0  0  0  0  0  0  0  0
   10.9850    0.0590   23.3860 C   0  0  0  0  0  0  0  0  0  0  0  0
    9.6240   -0.2130   23.5790 C   0  0  2  0  0  0  0  0  0  0  0  0
    9.2290   -1.0280   24.6270 C   0  0  0  0  0  0  0  0  0  0  0  0
    9.4740   -0.5520   26.0550 C   0  0  0  0  0  0  0  0  0  0  0  0
    8.9240    0.4140   26.5660 O   0  0  0  0  0  0  0  0  0  0  0  0
    9.0130   -0.7370   22.3630 N   0  0  0  0  0  0  0  0  0  0  0  0
    8.3490    0.0710   21.4190 C   0  0  0  0  0  0  0  0  0  0  0  0
    8.7700    1.1890   21.0970 O   0  0  0  0  0  0  0  0  0  0  0  0
    7.2370   -0.5600   20.9860 N   0  0  0  0  0  0  0  0  0  0  0  0
    6.5060    0.0840   20.0490 C   0  0  0  0  0  0  0  0  0  0  0  0
    5.3450    0.8080   20.2730 C   0  0  0  0  0  0  0  0  0  0  0  0
    4.6750    1.4400   19.2540 C   0  0  0  0  0  0  0  0  0  0  0  0
    5.1770    1.3520   17.9660 C   0  0  0  0  0  0  0  0  0  0  0  0
    6.3010    0.6510   17.6990 N   0  0  0  0  0  0  0  0  0  0  0  0
    6.9320    0.0390   18.7350 C   0  0  0  0  0  0  0  0  0  0  0  0
  1  2  1  0
  2  3  1  0
  2  4  1  0
  5  4  1  6
  5  6  1  0
  6  7  1  0
  7  8  1  0
  5  9  1  0
  9 10  1  0
 10 11  2  0
 10 12  1  0
 12 13  1  0
 13 14  2  0
 14 15  1  0
 15 16  2  0
 16 17  1  0
 13 18  1  0
 17 18  2  0
M  END
