pyridine_urea_13231
     RDKit          3D

 17 17  0  0  0  0  0  0  0  0999 V2000
   11.5860   -2.0800   21.5980 C   0  0  0  0  0  0  0  0  0  0  0  0
   12.4450   -1.6970   22.7510 C   0  0  0  0  0  0  0  0  0  0  0  0
   13.1250   -0.4890   22.7300 C   0  0  0  0  0  0  0  0  0  0  0  0
   12.4660    0.6860   23.0150 C   0  0  0  0  0  0  0  0  0  0  0  0
   11.7140    0.7390   24.1510 C   0  0  0  0  0  0  0  0  0  0  0  0
   10.3350    0.1170   24.1270 C   0  0  0  0  0  0  0  0  0  0  0  0
   10.0430   -0.7190   23.0580 C   0  0  0  0  0  0  0  0  0  0  0  0
    8.6570   -0.5910   22.7210 N   0  0  0  0  0  0  0  0  0  0  0  0
    8.3230    0.0920   21.5800 C   0  0  0  0  0  0  0  0  0  0  0  0
    8.9560    1.1000   21.2250 O   0  0  0  0  0  0  0  0  0  0  0  0
    7.2380   -0.4860   20.9740 N   0  0  0  0  0  0  0  0  0  0  0  0
    6.4690    0.1520   20.0080 C   0  0  0  0  0  0  0  0  0  0  0  0
    5.3000    0.8510   20.2350 C   0  0  0  0  0  0  0  0  0  0  0  0
    4.6210    1.4630   19.1940 C   0  0  0  0  0  0  0  0  0  0  0  0
    5.1630    1.3470   17.9150 C   0  0  0  0  0  0  0  0  0  0  0  0
    6.2910    0.6650   17.6670 N   0  0  0  0  0  0  0  0  0  0  0  0
    6.9110    0.0890   18.7090 C   0  0  0  0  0  0  0  0  0  0  0  0
  1  2  1  0
  2  3  1  0
  3  4  1  0
  4  5  1  0
  5  6  1  0
  6  7  1  0
  7  8  1  0
  8  9  1  0
  9 10  2  0
  9 11  1  0
 11 12  1  0
 12 13  2  0
 13 14  1  0
 14 15  2  0
 15 16  1  0
 12 17  1  0
 16 17  2  0
M  END
