pyridine_urea_2471
     RDKit          3D

 24 26  0  0  0  0  0  0  0  0999 V2000
    8.7030    0.6220   21.0410 O   0  0  0  0  0  0  0  0  0  0  0  0
    8.1900   -0.3110   21.5950 C   0  0  0  0  0  0  0  0  0  0  0  0
    6.9970   -0.8150   21.1650 N   0  0  0  0  0  0  0  0  0  0  0  0
    6.3770   -0.1400   20.0920 C   0  0  0  0  0  0  0  0  0  0  0  0
    5.1820    0.5570   20.3080 C   0  0  0  0  0  0  0  0  0  0  0  0
    4.5720    1.2460   19.2520 C   0  0  0  0  0  0  0  0  0  0  0  0
    5.1820    1.2150   18.0130 C   0  0  0  0  0  0  0  0  0  0  0  0
    6.3240    0.5520   17.7780 N   0  0  0  0  0  0  0  0  0  0  0  0
    6.8930   -0.1090   18.8100 C   0  0  0  0  0  0  0  0  0  0  0  0
    8.7920   -0.8860   22.6990 N   0  0  0  0  0  0  0  0  0  0  0  0
   10.1460   -0.3580   23.0000 C   0  0  0  0  0  0  0  0  0  0  0  0
   10.1470    1.0350   22.3730 C   0  0  0  0  0  0  0  0  0  0  0  0
    9.1890    2.0410   22.6910 C   0  0  0  0  0  0  0  0  0  0  0  0
    8.1690    2.3970   21.7870 C   0  0  0  0  0  0  0  0  0  0  0  0
    7.2400    3.3900   22.0890 C   0  0  0  0  0  0  0  0  0  0  0  0
    7.3170    4.0490   23.3040 C   0  0  0  0  0  0  0  0  0  0  0  0
    6.4120    5.0120   23.5910 F   0  0  0  0  0  0  0  0  0  0  0  0
    8.3220    3.7100   24.2040 C   0  0  0  0  0  0  0  0  0  0  0  0
    9.2530    2.7110   23.9080 C   0  0  0  0  0  0  0  0  0  0  0  0
   11.2860   -1.2700   22.3920 C   0  0  0  0  0  0  0  0  0  0  0  0
   12.5720   -0.7820   22.7050 C   0  0  0  0  0  0  0  0  0  0  0  0
   12.4870    0.3370   23.1610 O   0  0  0  0  0  0  0  0  0  0  0  0
   11.8100    0.3860   24.3310 C   0  0  0  0  0  0  0  0  0  0  0  0
   10.6320   -0.3430   24.2910 C   0  0  0  0  0  0  0  0  0  0  0  0
  1  2  2  0
  2  3  1  0
  3  4  1  0
  4  5  2  0
  5  6  1  0
  6  7  2  0
  7  8  1  0
  4  9  1  0
  8  9  2  0
  2 10  1  0
 11 10  1  0
 11 12  1  0
 12 13  1  0
 13 14  2  0
 14 15  1  0
 15 16  2  0
 16 17  1  0
 16 18  1  0
 13 19  1  0
 18 19  2  0
 11 20  1  0
 20 21  1  0
 21 22  1  0
 22 23  1  0
 11 24  1  0
 23 24  1  0
M  END
