pyridine_urea_11775
     RDKit          3D

 25 27  0  0  0  0  0  0  0  0999 V2000
    8.7150    1.5660   20.9810 O   0  0  0  0  0  0  0  0  0  0  0  0
    8.0110    0.7120   21.5100 C   0  0  0  0  0  0  0  0  0  0  0  0
    7.1140   -0.1260   20.9370 N   0  0  0  0  0  0  0  0  0  0  0  0
    6.4290    0.3640   19.8740 C   0  0  0  0  0  0  0  0  0  0  0  0
    5.2630    1.0750   20.1160 C   0  0  0  0  0  0  0  0  0  0  0  0
    4.5810    1.6140   19.0430 C   0  0  0  0  0  0  0  0  0  0  0  0
    5.1090    1.4040   17.7950 C   0  0  0  0  0  0  0  0  0  0  0  0
    6.2200    0.7050   17.5510 N   0  0  0  0  0  0  0  0  0  0  0  0
    6.8580    0.1980   18.6030 C   0  0  0  0  0  0  0  0  0  0  0  0
    8.0560    0.5120   22.8170 N   0  0  0  0  0  0  0  0  0  0  0  0
    9.2040   -0.1880   23.1740 C   0  0  1  0  0  0  0  0  0  0  0  0
    9.0900   -0.4540   24.6310 C   0  0  0  0  0  0  0  0  0  0  0  0
    9.9730   -0.0540   25.5480 C   0  0  0  0  0  0  0  0  0  0  0  0
    9.7170   -0.3640   26.8720 C   0  0  0  0  0  0  0  0  0  0  0  0
    8.6040   -1.0710   27.2950 C   0  0  0  0  0  0  0  0  0  0  0  0
    7.6640   -1.5180   26.3920 C   0  0  0  0  0  0  0  0  0  0  0  0
    7.8240   -1.2550   25.0450 C   0  0  0  0  0  0  0  0  0  0  0  0
    9.5040   -1.2410   22.4030 C   0  0  2  0  0  0  0  0  0  0  0  0
    9.0760   -2.4400   23.0440 O   0  0  0  0  0  0  0  0  0  0  0  0
   10.9480   -1.1920   22.3680 C   0  0  0  0  0  0  0  0  0  0  0  0
   11.4920   -2.1690   21.6260 C   0  0  0  0  0  0  0  0  0  0  0  0
   12.8000   -2.2110   21.5440 C   0  0  0  0  0  0  0  0  0  0  0  0
   13.4980   -1.2760   22.2080 C   0  0  0  0  0  0  0  0  0  0  0  0
   12.9910   -0.2610   22.9650 C   0  0  0  0  0  0  0  0  0  0  0  0
   11.6630   -0.2040   23.0600 C   0  0  0  0  0  0  0  0  0  0  0  0
  1  2  2  0
  2  3  1  0
  3  4  1  0
  4  5  2  0
  5  6  1  0
  6  7  2  0
  7  8  1  0
  4  9  1  0
  8  9  2  0
  2 10  1  0
 11 10  1  6
 11 12  1  0
 12 13  2  0
 13 14  1  0
 14 15  2  0
 15 16  1  0
 12 17  1  0
 16 17  2  0
 11 18  1  0
 18 19  1  1
 18 20  1  0
 20 21  2  0
 21 22  1  0
 22 23  2  0
 23 24  1  0
 20 25  1  0
 24 25  2  0
M  END
