pyridine_urea_14664
     RDKit          3D

 21 22  0  0  0  0  0  0  0  0999 V2000
    8.9690    1.0930   21.8140 O   0  0  0  0  0  0  0  0  0  0  0  0
    8.8010   -0.0830   21.5490 C   0  0  0  0  0  0  0  0  0  0  0  0
    9.8110   -1.0530   21.6360 N   0  0  0  0  0  0  0  0  0  0  0  0
   10.9340   -1.0640   22.5410 C   0  0  0  0  0  0  0  0  0  0  0  0
   12.3250   -0.8980   22.2090 C   0  0  0  0  0  0  0  0  0  0  0  0
   12.8860   -1.4460   21.0170 N   0  0  0  0  0  0  0  0  0  0  0  0
   12.7260   -3.1320   20.9690 S   0  0  0  0  0  0  0  0  0  0  0  0
   11.6500   -3.4340   20.1260 O   0  0  0  0  0  0  0  0  0  0  0  0
   12.7160   -3.2540   22.4010 O   0  0  0  0  0  0  0  0  0  0  0  0
   14.1550   -4.1170   20.3780 C   0  0  0  0  0  0  0  0  0  0  0  0
   15.0000   -3.5820   19.5110 C   0  0  0  0  0  0  0  0  0  0  0  0
   16.0940   -4.2420   19.1510 C   0  0  0  0  0  0  0  0  0  0  0  0
   16.1530   -5.4560   19.8020 C   0  0  0  0  0  0  0  0  0  0  0  0
   14.8450   -5.6890   20.7130 S   0  0  0  0  0  0  0  0  0  0  0  0
    7.5690   -0.5870   21.1000 N   0  0  0  0  0  0  0  0  0  0  0  0
    6.7480    0.0020   20.1010 C   0  0  0  0  0  0  0  0  0  0  0  0
    5.6400    0.7720   20.4860 C   0  0  0  0  0  0  0  0  0  0  0  0
    4.8370    1.3670   19.5090 C   0  0  0  0  0  0  0  0  0  0  0  0
    5.1610    1.1810   18.1720 C   0  0  0  0  0  0  0  0  0  0  0  0
    6.2070    0.4460   17.7800 N   0  0  0  0  0  0  0  0  0  0  0  0
    6.9700   -0.1250   18.7410 C   0  0  0  0  0  0  0  0  0  0  0  0
  1  2  2  0
  2  3  1  0
  3  4  1  0
  4  5  1  0
  5  6  1  0
  7  6  1  0
  7  8  2  0
  7  9  2  0
  7 10  1  0
 10 11  2  0
 11 12  1  0
 12 13  2  0
 10 14  1  0
 13 14  1  0
  2 15  1  0
 15 16  1  0
 16 17  2  0
 17 18  1  0
 18 19  2  0
 19 20  1  0
 16 21  1  0
 20 21  2  0
M  END
