pyridine_urea_15272
     RDKit          3D

 17 18  0  0  0  0  0  0  0  0999 V2000
    8.9180    0.8310   21.3360 O   0  0  0  0  0  0  0  0  0  0  0  0
    8.4870   -0.2730   21.6370 C   0  0  0  0  0  0  0  0  0  0  0  0
    7.3130   -0.8070   21.1140 N   0  0  0  0  0  0  0  0  0  0  0  0
    6.5980   -0.0870   20.0780 C   0  0  0  0  0  0  0  0  0  0  0  0
    5.3380    0.6850   20.4700 C   0  0  0  0  0  0  0  0  0  0  0  0
    4.5940    1.4480   19.3650 C   0  0  0  0  0  0  0  0  0  0  0  0
    5.2120    1.3520   17.9700 C   0  0  0  0  0  0  0  0  0  0  0  0
    6.3740    0.5980   17.7780 N   0  0  0  0  0  0  0  0  0  0  0  0
    7.0220   -0.0840   18.7700 C   0  0  0  0  0  0  0  0  0  0  0  0
    9.0940   -1.1390   22.5440 N   0  0  0  0  0  0  0  0  0  0  0  0
   10.4630   -1.0720   22.9520 C   0  0  1  0  0  0  0  0  0  0  0  0
   11.4560   -1.6640   22.1470 C   0  0  0  0  0  0  0  0  0  0  0  0
   12.7970   -1.4450   22.5140 C   0  0  0  0  0  0  0  0  0  0  0  0
   13.4200   -1.2080   21.4840 O   0  0  0  0  0  0  0  0  0  0  0  0
   10.8160    0.3910   23.2370 C   0  0  0  0  0  0  0  0  0  0  0  0
   12.0080    0.1170   22.9110 C   0  0  0  0  0  0  0  0  0  0  0  0
   12.0640    0.8740   24.0890 C   0  0  0  0  0  0  0  0  0  0  0  0
  1  2  2  0
  2  3  1  0
  3  4  1  0
  4  5  2  0
  5  6  1  0
  6  7  2  0
  7  8  1  0
  4  9  1  0
  8  9  2  0
  2 10  1  0
 10 11  1  0
 11 12  1  6
 12 13  1  0
 13 14  1  0
 11 15  1  0
 15 16  1  0
 15 17  1  0
 16 17  1  0
M  END
