pyridine_urea_4140
     RDKit          3D

 25 26  0  0  0  0  0  0  0  0999 V2000
   15.6790    2.1510   17.8870 C   0  0  0  0  0  0  0  0  0  0  0  0
   15.2020    3.2570   18.5860 C   0  0  0  0  0  0  0  0  0  0  0  0
   14.6920    2.7120   19.5810 C   0  0  0  0  0  0  0  0  0  0  0  0
   15.0050    1.3410   19.8550 C   0  0  0  0  0  0  0  0  0  0  0  0
   14.3880    0.3100   19.3750 O   0  0  0  0  0  0  0  0  0  0  0  0
   13.9660   -0.7280   20.3440 C   0  0  0  0  0  0  0  0  0  0  0  0
   12.9670   -1.6290   20.6610 C   0  0  0  0  0  0  0  0  0  0  0  0
   13.5010   -2.6500   20.8290 O   0  0  0  0  0  0  0  0  0  0  0  0
   13.3200   -2.5800   22.1810 C   0  0  0  0  0  0  0  0  0  0  0  0
   12.3150   -1.5810   22.5470 C   0  0  0  0  0  0  0  0  0  0  0  0
   12.7960   -0.5510   23.2170 C   0  0  0  0  0  0  0  0  0  0  0  0
   11.9770    0.3750   23.6240 C   0  0  0  0  0  0  0  0  0  0  0  0
   10.6110    0.2950   23.3580 C   0  0  0  0  0  0  0  0  0  0  0  0
   10.1280   -0.7740   22.6600 C   0  0  0  0  0  0  0  0  0  0  0  0
    8.7770   -0.8930   22.3720 N   0  0  0  0  0  0  0  0  0  0  0  0
    8.1600   -0.0710   21.4840 C   0  0  0  0  0  0  0  0  0  0  0  0
    8.5930    1.2470   21.1580 O   0  0  0  0  0  0  0  0  0  0  0  0
    7.0320   -0.6710   20.9350 N   0  0  0  0  0  0  0  0  0  0  0  0
    6.3390    0.0090   19.9840 C   0  0  0  0  0  0  0  0  0  0  0  0
    5.0340    0.7510   20.1480 C   0  0  0  0  0  0  0  0  0  0  0  0
    4.4840    1.4110   19.0770 C   0  0  0  0  0  0  0  0  0  0  0  0
    5.1410    1.3830   17.8570 C   0  0  0  0  0  0  0  0  0  0  0  0
    6.3090    0.7190   17.6730 N   0  0  0  0  0  0  0  0  0  0  0  0
    6.8680    0.0600   18.7160 C   0  0  0  0  0  0  0  0  0  0  0  0
   10.9950   -1.7460   22.2350 C   0  0  0  0  0  0  0  0  0  0  0  0
  1  2  1  0
  2  3  1  0
  3  4  1  0
  4  5  1  0
  5  6  1  0
  6  7  1  0
  7  8  1  0
  8  9  1  0
  9 10  1  0
 10 11  2  0
 11 12  1  0
 12 13  2  0
 13 14  1  0
 14 15  1  0
 15 16  1  0
 16 17  2  0
 16 18  1  0
 18 19  1  0
 19 20  2  0
 20 21  1  0
 21 22  2  0
 22 23  1  0
 19 24  1  0
 23 24  2  0
 10 25  1  0
 14 25  2  0
M  END
