pyridine_urea_6268
     RDKit          3D

 24 26  0  0  0  0  0  0  0  0999 V2000
    8.7380    0.8110   21.2420 O   0  0  0  0  0  0  0  0  0  0  0  0
    8.3400   -0.3350   21.3890 C   0  0  0  0  0  0  0  0  0  0  0  0
    9.0910   -1.3360   21.9570 N   0  0  0  0  0  0  0  0  0  0  0  0
   10.4060   -0.9960   22.4570 C   0  0  0  0  0  0  0  0  0  0  0  0
   10.3860   -0.7090   23.9440 C   0  0  1  0  0  0  0  0  0  0  0  0
   10.7890   -1.6980   24.5330 O   0  0  0  0  0  0  0  0  0  0  0  0
   10.9570    0.6150   24.2070 C   0  0  0  0  0  0  0  0  0  0  0  0
   10.7120    1.6010   23.2980 N   0  0  0  0  0  0  0  0  0  0  0  0
    9.8470    2.3270   24.0120 C   0  0  0  0  0  0  0  0  0  0  0  0
    9.5910    3.6860   23.3250 C   0  0  0  0  0  0  0  0  0  0  0  0
   10.8130    4.4610   23.1490 C   0  0  0  0  0  0  0  0  0  0  0  0
   10.8000    5.8360   23.1540 C   0  0  0  0  0  0  0  0  0  0  0  0
   12.2180    6.3810   22.9440 C   0  0  0  0  0  0  0  0  0  0  0  0
   13.3660    5.6370   22.7610 C   0  0  0  0  0  0  0  0  0  0  0  0
   13.2610    4.2960   22.7750 C   0  0  0  0  0  0  0  0  0  0  0  0
   12.0810    3.6930   22.9610 C   0  0  0  0  0  0  0  0  0  0  0  0
   11.9780    2.1940   22.9990 C   0  0  0  0  0  0  0  0  0  0  0  0
    7.0910   -0.7340   20.9800 N   0  0  0  0  0  0  0  0  0  0  0  0
    6.4010   -0.0450   20.0420 C   0  0  0  0  0  0  0  0  0  0  0  0
    5.1060    0.6870   20.2240 C   0  0  0  0  0  0  0  0  0  0  0  0
    4.5340    1.3630   19.1470 C   0  0  0  0  0  0  0  0  0  0  0  0
    5.2130    1.3200   17.9340 C   0  0  0  0  0  0  0  0  0  0  0  0
    6.3760    0.6680   17.7280 N   0  0  0  0  0  0  0  0  0  0  0  0
    6.9310    0.0110   18.7690 C   0  0  0  0  0  0  0  0  0  0  0  0
  1  2  2  0
  2  3  1  0
  3  4  1  0
  4  5  1  0
  5  6  1  1
  5  7  1  0
  7  8  1  0
  8  9  1  0
  9 10  1  0
 10 11  1  0
 11 12  2  0
 12 13  1  0
 13 14  2  0
 14 15  1  0
 11 16  1  0
 15 16  2  0
  8 17  1  0
 16 17  1  0
  2 18  1  0
 18 19  1  0
 19 20  2  0
 20 21  1  0
 21 22  2  0
 22 23  1  0
 19 24  1  0
 23 24  2  0
M  END
