pyridine_urea_5797
     RDKit          3D

 21 22  0  0  0  0  0  0  0  0999 V2000
   13.2150    4.8180   23.3610 C   0  0  0  0  0  0  0  0  0  0  0  0
   12.3640    3.8320   22.6210 C   0  0  0  0  0  0  0  0  0  0  0  0
   11.0060    3.8480   22.9120 C   0  0  0  0  0  0  0  0  0  0  0  0
   12.4690    4.4820   21.2520 C   0  0  0  0  0  0  0  0  0  0  0  0
   12.8800    2.6550   22.5060 O   0  0  0  0  0  0  0  0  0  0  0  0
   12.2160    1.5280   22.9990 C   0  0  1  0  0  0  0  0  0  0  0  0
   10.7380    1.7700   23.0270 C   0  0  0  0  0  0  0  0  0  0  0  0
   10.0080    0.5260   23.3820 C   0  0  0  0  0  0  0  0  0  0  0  0
   10.2280   -0.4360   22.3310 C   0  0  2  0  0  0  0  0  0  0  0  0
    9.0110   -1.2290   22.3330 N   0  0  0  0  0  0  0  0  0  0  0  0
    8.1740   -0.9390   21.2700 C   0  0  0  0  0  0  0  0  0  0  0  0
    8.4530   -1.1830   20.1780 O   0  0  0  0  0  0  0  0  0  0  0  0
    6.9820   -0.3200   21.4580 N   0  0  0  0  0  0  0  0  0  0  0  0
    6.3570    0.2200   20.2970 C   0  0  0  0  0  0  0  0  0  0  0  0
    5.1810    0.9540   20.4150 C   0  0  0  0  0  0  0  0  0  0  0  0
    4.5670    1.4950   19.2940 C   0  0  0  0  0  0  0  0  0  0  0  0
    5.1500    1.2910   18.0570 C   0  0  0  0  0  0  0  0  0  0  0  0
    6.2780    0.5880   17.8870 N   0  0  0  0  0  0  0  0  0  0  0  0
    6.8530    0.0680   18.9950 C   0  0  0  0  0  0  0  0  0  0  0  0
   11.5730   -0.8550   22.4010 C   0  0  0  0  0  0  0  0  0  0  0  0
   12.5800    0.1570   22.6900 C   0  0  0  0  0  0  0  0  0  0  0  0
  1  2  1  0
  2  3  1  0
  2  4  1  0
  2  5  1  0
  6  5  1  6
  6  7  1  0
  7  8  1  0
  8  9  1  0
  9 10  1  1
 10 11  1  0
 11 12  2  0
 11 13  1  0
 13 14  1  0
 14 15  2  0
 15 16  1  0
 16 17  2  0
 17 18  1  0
 14 19  1  0
 18 19  2  0
  9 20  1  0
  6 21  1  0
 20 21  1  0
M  END
