pyridine_urea_3261
     RDKit          3D

 20 22  0  0  0  0  0  0  0  0999 V2000
    8.7070    0.9060   21.3490 O   0  0  0  0  0  0  0  0  0  0  0  0
    8.5140   -0.2780   21.5910 C   0  0  0  0  0  0  0  0  0  0  0  0
    9.3110   -1.0550   22.3730 N   0  0  0  0  0  0  0  0  0  0  0  0
   10.6290   -0.6550   22.5280 C   0  0  0  0  0  0  0  0  0  0  0  0
   10.8090    0.6760   22.8810 C   0  0  0  0  0  0  0  0  0  0  0  0
   12.0860    1.1820   23.0360 C   0  0  0  0  0  0  0  0  0  0  0  0
   13.1400    0.3420   22.8420 C   0  0  0  0  0  0  0  0  0  0  0  0
   13.0160   -0.9530   22.5080 N   0  0  0  0  0  0  0  0  0  0  0  0
   11.7630   -1.4300   22.3540 C   0  0  0  0  0  0  0  0  0  0  0  0
    7.4380   -0.9190   21.0560 N   0  0  0  0  0  0  0  0  0  0  0  0
    6.6090    0.0010   20.3270 C   0  0  0  0  0  0  0  0  0  0  0  0
    6.9360    0.2010   18.8620 C   0  0  0  0  0  0  0  0  0  0  0  0
    5.6200    0.1550   18.4820 N   0  0  0  0  0  0  0  0  0  0  0  0
    4.9430    1.3650   18.1270 C   0  0  0  0  0  0  0  0  0  0  0  0
    4.0280    2.4190   18.4990 C   0  0  0  0  0  0  0  0  0  0  0  0
    3.3060    2.5340   19.8070 C   0  0  0  0  0  0  0  0  0  0  0  0
    3.4580    1.5610   20.8690 C   0  0  0  0  0  0  0  0  0  0  0  0
    4.3010    0.6870   20.3720 C   0  0  0  0  0  0  0  0  0  0  0  0
    4.4130    1.3170   19.2670 N   0  0  0  0  0  0  0  0  0  0  0  0
    5.4160   -0.5200   19.6940 C   0  0  0  0  0  0  0  0  0  0  0  0
  1  2  2  0
  2  3  1  0
  3  4  1  0
  4  5  2  0
  5  6  1  0
  6  7  2  0
  7  8  1  0
  4  9  1  0
  8  9  2  0
  2 10  1  0
 10 11  1  0
 11 12  1  0
 12 13  1  0
 13 14  1  0
 14 15  2  0
 15 16  1  0
 16 17  2  0
 17 18  1  0
 14 19  1  0
 18 19  2  0
 11 20  1  0
 13 20  1  0
M  END
