pyridine_urea_3321
     RDKit          3D

 19 20  0  0  0  0  0  0  0  0999 V2000
   13.1930   -2.0390   24.2880 C   0  0  0  0  0  0  0  0  0  0  0  0
   12.7980   -0.7400   23.6310 C   0  0  0  0  0  0  0  0  0  0  0  0
   13.2280   -0.2000   22.4520 C   0  0  0  0  0  0  0  0  0  0  0  0
   11.7620    0.1480   24.3270 C   0  0  1  0  0  0  0  0  0  0  0  0
   12.2220    1.2920   24.2590 O   0  0  0  0  0  0  0  0  0  0  0  0
   11.4260    2.0640   23.3940 C   0  0  0  0  0  0  0  0  0  0  0  0
   10.1780    1.3130   23.1070 C   0  0  0  0  0  0  0  0  0  0  0  0
   10.2980    0.0880   23.7660 C   0  0  1  0  0  0  0  0  0  0  0  0
   10.2220   -1.1620   22.8820 C   0  0  0  0  0  0  0  0  0  0  0  0
    8.8020   -1.2070   22.3770 N   0  0  0  0  0  0  0  0  0  0  0  0
    8.2440   -0.2800   21.5360 C   0  0  0  0  0  0  0  0  0  0  0  0
    8.7870    0.7840   21.2820 O   0  0  0  0  0  0  0  0  0  0  0  0
    7.0330   -0.6930   21.0470 N   0  0  0  0  0  0  0  0  0  0  0  0
    6.3990   -0.0110   20.0090 C   0  0  0  0  0  0  0  0  0  0  0  0
    5.2080    0.6810   20.2640 C   0  0  0  0  0  0  0  0  0  0  0  0
    4.6330    1.3540   19.1890 C   0  0  0  0  0  0  0  0  0  0  0  0
    5.2040    1.3410   17.9360 C   0  0  0  0  0  0  0  0  0  0  0  0
    6.3340    0.6820   17.6730 N   0  0  0  0  0  0  0  0  0  0  0  0
    6.9010    0.0230   18.7110 C   0  0  0  0  0  0  0  0  0  0  0  0
  1  2  2  3
  2  3  1  0
  4  2  1  6
  4  5  1  0
  5  6  1  0
  6  7  1  0
  4  8  1  0
  7  8  1  0
  8  9  1  6
  9 10  1  0
 10 11  1  0
 11 12  2  0
 11 13  1  0
 13 14  1  0
 14 15  2  0
 15 16  1  0
 16 17  2  0
 17 18  1  0
 14 19  1  0
 18 19  2  0
M  END
