pyridine_urea_6884
     RDKit          3D

 20 20  0  0  0  0  0  0  0  0999 V2000
   10.3760   -1.7480   21.7540 C   0  0  0  0  0  0  0  0  0  0  0  0
   10.0340   -1.1760   23.1010 C   0  0  0  0  0  0  0  0  0  0  0  0
   10.1960   -2.0270   24.1880 C   0  0  0  0  0  0  0  0  0  0  0  0
    8.6520   -0.6950   23.0720 N   0  0  0  0  0  0  0  0  0  0  0  0
    8.2110   -0.2380   21.7450 C   0  0  0  0  0  0  0  0  0  0  0  0
    8.8850    0.7180   21.3160 O   0  0  0  0  0  0  0  0  0  0  0  0
    7.1290   -0.8380   21.1210 N   0  0  0  0  0  0  0  0  0  0  0  0
    6.4750   -0.0950   20.0510 C   0  0  0  0  0  0  0  0  0  0  0  0
    5.3070    0.6430   20.2930 C   0  0  0  0  0  0  0  0  0  0  0  0
    4.6670    1.4190   19.1320 C   0  0  0  0  0  0  0  0  0  0  0  0
    5.2010    1.4200   17.8590 C   0  0  0  0  0  0  0  0  0  0  0  0
    6.3320    0.6670   17.7390 N   0  0  0  0  0  0  0  0  0  0  0  0
    6.9780   -0.0740   18.7410 C   0  0  0  0  0  0  0  0  0  0  0  0
   10.8880    0.0770   23.3610 C   0  0  0  0  0  0  0  0  0  0  0  0
   11.8290    0.8560   23.2880 O   0  0  0  0  0  0  0  0  0  0  0  0
   11.5930   -0.7020   22.4680 N   0  0  0  0  0  0  0  0  0  0  0  0
   13.1410   -1.1810   22.6450 S   0  0  0  0  0  0  0  0  0  0  0  0
   13.1760   -2.0740   24.1970 C   0  0  0  0  0  0  0  0  0  0  0  0
   13.8160    0.0780   22.8230 O   0  0  0  0  0  0  0  0  0  0  0  0
   13.4310   -2.0510   21.5330 O   0  0  0  0  0  0  0  0  0  0  0  0
  1  2  1  0
  2  3  1  0
  2  4  1  0
  4  5  1  0
  5  6  2  0
  5  7  1  0
  7  8  1  0
  8  9  2  0
  9 10  1  0
 10 11  2  0
 11 12  1  0
  8 13  1  0
 12 13  2  0
  2 14  1  0
 14 15  2  0
 14 16  1  0
 17 16  1  0
 17 18  1  0
 17 19  2  0
 17 20  2  0
M  END
