pyridine_urea_9256
     RDKit          3D

 18 18  0  0  0  0  0  0  0  0999 V2000
    9.3820   -0.2610   26.5860 C   0  0  0  0  0  0  0  0  0  0  0  0
   10.4090   -0.4800   25.6250 O   0  0  0  0  0  0  0  0  0  0  0  0
   10.1910    0.1530   24.4140 C   0  0  0  0  0  0  0  0  0  0  0  0
    9.9790    1.3550   24.3170 O   0  0  0  0  0  0  0  0  0  0  0  0
   10.2380   -0.6900   23.3020 C   0  0  1  0  0  0  0  0  0  0  0  0
    8.9980   -0.7630   22.6080 N   0  0  0  0  0  0  0  0  0  0  0  0
    8.4920    0.0700   21.6130 C   0  0  0  0  0  0  0  0  0  0  0  0
    9.0680    1.2680   21.2610 O   0  0  0  0  0  0  0  0  0  0  0  0
    7.3330   -0.4740   21.0730 N   0  0  0  0  0  0  0  0  0  0  0  0
    6.5930    0.1190   20.0420 C   0  0  0  0  0  0  0  0  0  0  0  0
    5.4350    0.8390   20.3610 C   0  0  0  0  0  0  0  0  0  0  0  0
    4.6700    1.4650   19.4020 C   0  0  0  0  0  0  0  0  0  0  0  0
    5.1710    1.3180   17.9780 C   0  0  0  0  0  0  0  0  0  0  0  0
    6.2690    0.6220   17.6720 N   0  0  0  0  0  0  0  0  0  0  0  0
    6.9480    0.0430   18.7000 C   0  0  0  0  0  0  0  0  0  0  0  0
   11.3690   -0.4520   22.5240 C   0  0  1  0  0  0  0  0  0  0  0  0
   12.5960   -0.1790   23.1340 C   0  0  0  0  0  0  0  0  0  0  0  0
   11.6250   -1.4950   21.9290 O   0  0  0  0  0  0  0  0  0  0  0  0
  1  2  1  0
  2  3  1  0
  3  4  2  0
  3  5  1  0
  5  6  1  6
  6  7  1  0
  7  8  2  0
  7  9  1  0
  9 10  1  0
 10 11  2  0
 11 12  1  0
 12 13  2  0
 13 14  1  0
 10 15  1  0
 14 15  2  0
  5 16  1  0
 16 17  1  1
 16 18  1  0
M  END
