pyridine_urea_5063
     RDKit          3D

 20 21  0  0  0  0  0  0  0  0999 V2000
    5.2550   -0.1310   17.7390 C   0  0  0  0  0  0  0  0  0  0  0  0
    6.1440    1.0710   17.5260 C   0  0  0  0  0  0  0  0  0  0  0  0
    7.2730    0.7360   18.3440 O   0  0  0  0  0  0  0  0  0  0  0  0
    6.3680    0.8720   19.2110 C   0  0  0  0  0  0  0  0  0  0  0  0
    5.3660    1.6440   18.5400 N   0  0  0  0  0  0  0  0  0  0  0  0
    4.2300    1.9920   19.1380 C   0  0  0  0  0  0  0  0  0  0  0  0
    3.9660    1.6300   20.4200 C   0  0  0  0  0  0  0  0  0  0  0  0
    2.6310    2.1030   20.9890 C   0  0  0  0  0  0  0  0  0  0  0  0
    4.9110    0.8530   21.1600 C   0  0  0  0  0  0  0  0  0  0  0  0
    6.2290    0.4380   20.4890 C   0  0  0  0  0  0  0  0  0  0  0  0
    7.1480   -0.3100   21.1770 N   0  0  0  0  0  0  0  0  0  0  0  0
    8.4240    0.1390   21.5270 C   0  0  0  0  0  0  0  0  0  0  0  0
    8.8280    1.2360   21.1230 O   0  0  0  0  0  0  0  0  0  0  0  0
    9.1730   -0.6870   22.3090 N   0  0  0  0  0  0  0  0  0  0  0  0
   10.5300   -0.4500   22.4950 C   0  0  0  0  0  0  0  0  0  0  0  0
   11.5770   -1.3570   22.3990 C   0  0  0  0  0  0  0  0  0  0  0  0
   12.8810   -0.9050   22.6010 C   0  0  0  0  0  0  0  0  0  0  0  0
   13.1020    0.4370   22.8880 C   0  0  0  0  0  0  0  0  0  0  0  0
   12.1300    1.3410   22.9910 N   0  0  0  0  0  0  0  0  0  0  0  0
   10.8510    0.8670   22.7950 C   0  0  0  0  0  0  0  0  0  0  0  0
  1  2  1  0
  2  3  1  0
  3  4  1  0
  4  5  2  0
  5  6  1  0
  6  7  2  0
  7  8  1  0
  7  9  1  0
  4 10  1  0
  9 10  2  0
 10 11  1  0
 11 12  1  0
 12 13  2  0
 12 14  1  0
 14 15  1  0
 15 16  2  0
 16 17  1  0
 17 18  2  0
 18 19  1  0
 15 20  1  0
 19 20  2  0
M  END
