pyridine_urea_2923
     RDKit          3D

 22 23  0  0  0  0  0  0  0  0999 V2000
   13.2600   -1.7600   21.0390 C   0  0  0  0  0  0  0  0  0  0  0  0
   13.1190   -0.9210   22.3030 C   0  0  0  0  0  0  0  0  0  0  0  0
   12.9200   -1.9850   23.6930 S   0  0  0  0  0  0  0  0  0  0  0  0
   13.8160   -3.0900   23.5110 O   0  0  0  0  0  0  0  0  0  0  0  0
   12.9240   -1.2290   24.9050 O   0  0  0  0  0  0  0  0  0  0  0  0
   11.3820   -2.5430   23.2640 N   0  0  0  0  0  0  0  0  0  0  0  0
   10.7890   -1.8410   22.1190 C   0  0  0  0  0  0  0  0  0  0  0  0
    9.5450   -2.2880   21.7340 C   0  0  0  0  0  0  0  0  0  0  0  0
    8.6230   -2.5180   22.9140 C   0  0  0  0  0  0  0  0  0  0  0  0
    8.0290   -1.3790   23.4100 C   0  0  0  0  0  0  0  0  0  0  0  0
    8.5620   -0.1420   23.0730 N   0  0  0  0  0  0  0  0  0  0  0  0
    8.3970    0.4840   21.7410 C   0  0  0  0  0  0  0  0  0  0  0  0
    9.0140    1.4550   21.2850 O   0  0  0  0  0  0  0  0  0  0  0  0
    7.4030   -0.2190   21.0790 N   0  0  0  0  0  0  0  0  0  0  0  0
    6.6430    0.2990   20.0400 C   0  0  0  0  0  0  0  0  0  0  0  0
    5.4140    1.1150   20.3940 C   0  0  0  0  0  0  0  0  0  0  0  0
    4.6360    1.6790   19.2370 C   0  0  0  0  0  0  0  0  0  0  0  0
    5.1540    1.3750   17.8580 C   0  0  0  0  0  0  0  0  0  0  0  0
    6.2490    0.6290   17.6480 N   0  0  0  0  0  0  0  0  0  0  0  0
    6.9440    0.1240   18.7020 C   0  0  0  0  0  0  0  0  0  0  0  0
    9.2450   -3.2410   23.8920 C   0  0  0  0  0  0  0  0  0  0  0  0
   10.5480   -2.8640   24.2870 C   0  0  0  0  0  0  0  0  0  0  0  0
  1  2  1  0
  3  2  1  0
  3  4  2  0
  3  5  2  0
  3  6  1  0
  6  7  1  0
  7  8  1  0
  8  9  1  0
  9 10  1  0
 10 11  1  0
 11 12  1  0
 12 13  2  0
 12 14  1  0
 14 15  1  0
 15 16  2  0
 16 17  1  0
 17 18  2  0
 18 19  1  0
 15 20  1  0
 19 20  2  0
  9 21  1  0
  6 22  1  0
 21 22  1  0
M  END
