pyridine_urea_3492
     RDKit          3D

 18 20  0  0  0  0  0  0  0  0999 V2000
    8.7260    1.4970   21.1260 O   0  0  0  0  0  0  0  0  0  0  0  0
    8.6190    0.2880   21.3250 C   0  0  0  0  0  0  0  0  0  0  0  0
    7.4340   -0.4060   21.1420 N   0  0  0  0  0  0  0  0  0  0  0  0
    6.6420    0.1490   20.0830 C   0  0  0  0  0  0  0  0  0  0  0  0
    5.3880    0.9270   20.4640 C   0  0  0  0  0  0  0  0  0  0  0  0
    4.5740    1.5420   19.3320 C   0  0  0  0  0  0  0  0  0  0  0  0
    5.1240    1.2990   17.9270 C   0  0  0  0  0  0  0  0  0  0  0  0
    6.2830    0.5510   17.7460 N   0  0  0  0  0  0  0  0  0  0  0  0
    6.9990    0.0040   18.7640 C   0  0  0  0  0  0  0  0  0  0  0  0
    9.6800   -0.5030   21.6980 N   0  0  0  0  0  0  0  0  0  0  0  0
    9.6090   -1.1270   22.9370 C   0  0  1  0  0  0  0  0  0  0  0  0
   10.4750   -1.7710   23.5370 C   0  0  0  0  0  0  0  0  0  0  0  0
   10.4310   -0.4370   24.1480 C   0  0  1  0  0  0  0  0  0  0  0  0
   11.7370    0.0240   24.1190 C   0  0  0  0  0  0  0  0  0  0  0  0
   12.5160   -0.9900   24.6890 C   0  0  0  0  0  0  0  0  0  0  0  0
   13.0690   -1.6850   23.6410 C   0  0  0  0  0  0  0  0  0  0  0  0
   12.8730   -0.8240   22.4560 C   0  0  0  0  0  0  0  0  0  0  0  0
   12.1970    0.3390   22.8360 C   0  0  0  0  0  0  0  0  0  0  0  0
  1  2  2  0
  2  3  1  0
  3  4  1  0
  4  5  2  0
  5  6  1  0
  6  7  2  0
  7  8  1  0
  4  9  1  0
  8  9  2  0
  2 10  1  0
 11 10  1  6
 11 12  1  0
 11 13  1  0
 12 13  1  0
 13 14  1  6
 14 15  1  0
 15 16  1  0
 16 17  1  0
 14 18  1  0
 17 18  1  0
M  END
