pyridine_urea_6187
     RDKit          3D

 24 26  0  0  0  0  0  0  0  0999 V2000
   12.3400    4.3480   20.7530 C   0  0  0  0  0  0  0  0  0  0  0  0
   12.4310    4.0540   21.8060 C   0  0  1  0  0  0  0  0  0  0  0  0
   13.0260    3.5920   23.0250 C   0  0  0  0  0  0  0  0  0  0  0  0
   11.8430    3.1450   23.7120 N   0  0  0  0  0  0  0  0  0  0  0  0
   11.5490    1.7700   23.3090 C   0  0  0  0  0  0  0  0  0  0  0  0
   10.2660    1.7090   23.3780 C   0  0  0  0  0  0  0  0  0  0  0  0
    9.4550    0.5890   23.0380 C   0  0  0  0  0  0  0  0  0  0  0  0
   10.0780   -0.6020   22.5660 C   0  0  0  0  0  0  0  0  0  0  0  0
    9.0660   -1.5410   22.2130 N   0  0  0  0  0  0  0  0  0  0  0  0
    8.1420   -0.6910   21.4050 C   0  0  0  0  0  0  0  0  0  0  0  0
    8.5250    0.6340   21.0650 O   0  0  0  0  0  0  0  0  0  0  0  0
    6.9610   -1.1930   21.0270 N   0  0  0  0  0  0  0  0  0  0  0  0
    6.4070   -0.4110   20.0460 C   0  0  0  0  0  0  0  0  0  0  0  0
    5.2200    0.3060   20.2820 C   0  0  0  0  0  0  0  0  0  0  0  0
    4.6150    1.1300   19.3120 C   0  0  0  0  0  0  0  0  0  0  0  0
    5.2080    1.2470   18.0740 C   0  0  0  0  0  0  0  0  0  0  0  0
    6.3570    0.5640   17.8160 N   0  0  0  0  0  0  0  0  0  0  0  0
    6.9540   -0.2560   18.7800 C   0  0  0  0  0  0  0  0  0  0  0  0
   11.6710   -0.7080   22.4640 C   0  0  0  0  0  0  0  0  0  0  0  0
   12.4630    0.5970   22.8730 C   0  0  0  0  0  0  0  0  0  0  0  0
   10.8620    4.1520   23.8360 C   0  0  0  0  0  0  0  0  0  0  0  0
   10.7690    4.8060   22.6560 C   0  0  1  0  0  0  0  0  0  0  0  0
   10.1110    6.0320   22.7450 C   0  0  0  0  0  0  0  0  0  0  0  0
   11.8780    5.0350   22.2500 O   0  0  0  0  0  0  0  0  0  0  0  0
  2  1  1  6
  2  3  1  0
  3  4  1  0
  4  5  1  0
  5  6  2  0
  6  7  1  0
  7  8  2  0
  8  9  1  0
  9 10  1  0
 10 11  2  0
 10 12  1  0
 12 13  1  0
 13 14  2  0
 14 15  1  0
 15 16  2  0
 16 17  1  0
 13 18  1  0
 17 18  2  0
  8 19  1  0
  5 20  1  0
 19 20  2  0
  4 21  1  0
 21 22  1  0
 22 23  1  1
  2 24  1  0
 22 24  1  0
M  END
