pyridine_urea_14088
     RDKit          3D

 23 25  0  0  0  0  0  0  0  0999 V2000
   12.1640   -2.2360   21.1020 C   0  0  0  0  0  0  0  0  0  0  0  0
   13.2470   -1.3560   21.2510 O   0  0  0  0  0  0  0  0  0  0  0  0
   13.4460   -1.3550   22.6280 C   0  0  0  0  0  0  0  0  0  0  0  0
   11.9680   -1.4690   22.1360 C   0  0  0  0  0  0  0  0  0  0  0  0
   12.3960   -1.4430   23.3900 C   0  0  0  0  0  0  0  0  0  0  0  0
   11.1380   -1.5420   23.7720 C   0  0  0  0  0  0  0  0  0  0  0  0
    9.6490   -1.6500   23.4680 C   0  0  0  0  0  0  0  0  0  0  0  0
    9.1090   -1.8450   22.1590 C   0  0  0  0  0  0  0  0  0  0  0  0
    9.4220   -0.7030   21.4010 N   0  0  0  0  0  0  0  0  0  0  0  0
    8.5180    0.3030   21.2610 C   0  0  0  0  0  0  0  0  0  0  0  0
    8.8430    1.4880   21.2460 O   0  0  0  0  0  0  0  0  0  0  0  0
    7.2480   -0.1810   21.0860 N   0  0  0  0  0  0  0  0  0  0  0  0
    6.4460    0.3250   20.0750 C   0  0  0  0  0  0  0  0  0  0  0  0
    5.2620    1.0160   20.2560 C   0  0  0  0  0  0  0  0  0  0  0  0
    4.5600    1.5070   19.1680 C   0  0  0  0  0  0  0  0  0  0  0  0
    5.0980    1.2730   17.9230 C   0  0  0  0  0  0  0  0  0  0  0  0
    6.2320    0.5970   17.7010 N   0  0  0  0  0  0  0  0  0  0  0  0
    6.8780    0.1380   18.7780 C   0  0  0  0  0  0  0  0  0  0  0  0
    8.9280   -0.9360   24.6670 C   0  0  0  0  0  0  0  0  0  0  0  0
    7.9780   -2.0440   24.7780 C   0  0  0  0  0  0  0  0  0  0  0  0
    8.7420   -2.8590   23.9610 C   0  0  0  0  0  0  0  0  0  0  0  0
   11.8100   -1.5180   24.7560 C   0  0  0  0  0  0  0  0  0  0  0  0
   13.1060   -1.4040   24.1230 C   0  0  0  0  0  0  0  0  0  0  0  0
  1  2  1  0
  2  3  1  0
  3  4  2  0
  4  5  1  0
  5  6  2  0
  6  7  1  0
  7  8  1  0
  8  9  1  0
  9 10  1  0
 10 11  2  0
 10 12  1  0
 12 13  1  0
 13 14  2  0
 14 15  1  0
 15 16  2  0
 16 17  1  0
 13 18  1  0
 17 18  2  0
  7 19  1  0
 19 20  1  0
  7 21  1  0
 20 21  1  0
  6 22  1  0
  3 23  1  0
 22 23  2  0
M  END
