pyridine_urea_12353
     RDKit          3D

 22 24  0  0  0  0  0  0  0  0999 V2000
    8.9160    0.5460   21.3900 O   0  0  0  0  0  0  0  0  0  0  0  0
    8.2280   -0.4080   21.7250 C   0  0  0  0  0  0  0  0  0  0  0  0
    8.5120   -1.2400   22.8190 N   0  0  0  0  0  0  0  0  0  0  0  0
    9.8830   -1.4730   23.3340 C   0  0  0  0  0  0  0  0  0  0  0  0
   10.9970   -0.6090   22.6280 C   0  0  1  0  0  0  0  0  0  0  0  0
   10.7430    0.7310   22.9200 C   0  0  0  0  0  0  0  0  0  0  0  0
   12.3830    1.0830   23.6550 S   0  0  0  0  0  0  0  0  0  0  0  0
   12.4980    0.4590   24.9240 O   0  0  0  0  0  0  0  0  0  0  0  0
   12.8610    2.3580   23.1830 O   0  0  0  0  0  0  0  0  0  0  0  0
   13.0340   -0.1990   22.7090 C   0  0  0  0  0  0  0  0  0  0  0  0
   12.5360   -1.2960   22.0120 C   0  0  0  0  0  0  0  0  0  0  0  0
   11.0620   -1.8860   21.7850 C   0  0  0  0  0  0  0  0  0  0  0  0
   10.0890   -0.9140   22.6130 C   0  0  0  0  0  0  0  0  0  0  0  0
   10.5520    0.2850   23.4250 C   0  0  0  0  0  0  0  0  0  0  0  0
   11.9470    0.2820   23.2210 C   0  0  0  0  0  0  0  0  0  0  0  0
    7.0680   -0.7980   21.1030 N   0  0  0  0  0  0  0  0  0  0  0  0
    6.4600   -0.1010   20.0430 C   0  0  0  0  0  0  0  0  0  0  0  0
    5.1740    0.6760   20.2910 C   0  0  0  0  0  0  0  0  0  0  0  0
    4.6000    1.3640   19.2240 C   0  0  0  0  0  0  0  0  0  0  0  0
    5.2270    1.3110   17.9830 C   0  0  0  0  0  0  0  0  0  0  0  0
    6.3630    0.6230   17.7500 N   0  0  0  0  0  0  0  0  0  0  0  0
    6.9460   -0.0590   18.7620 C   0  0  0  0  0  0  0  0  0  0  0  0
  1  2  2  0
  2  3  1  0
  3  4  1  0
  5  4  1  1
  5  6  1  0
  7  6  1  0
  7  8  2  0
  7  9  2  0
  7 10  1  0
 10 11  1  0
 11 12  2  0
 12 13  1  0
 13 14  2  0
  5 15  1  0
 10 15  2  0
 14 15  1  0
  2 16  1  0
 16 17  1  0
 17 18  2  0
 18 19  1  0
 19 20  2  0
 20 21  1  0
 17 22  1  0
 21 22  2  0
M  END
