pyridine_urea_10683
     RDKit          3D

 21 22  0  0  0  0  0  0  0  0999 V2000
    7.4290    0.7980   23.9620 C   0  0  0  0  0  0  0  0  0  0  0  0
    7.8270    0.2300   25.1460 N   0  0  0  0  0  0  0  0  0  0  0  0
    7.3990    0.7470   26.3850 C   0  0  0  0  0  0  0  0  0  0  0  0
    8.6200   -0.8980   25.2590 C   0  0  0  0  0  0  0  0  0  0  0  0
    9.7850   -1.0760   24.2500 C   0  0  0  0  0  0  0  0  0  0  0  0
   11.1320   -1.4480   24.6650 C   0  0  0  0  0  0  0  0  0  0  0  0
   12.1970   -1.6320   23.8560 C   0  0  0  0  0  0  0  0  0  0  0  0
   13.6030   -2.1100   24.6720 Cl  0  0  0  0  0  0  0  0  0  0  0  0
   12.0630   -1.4500   22.4840 C   0  0  0  0  0  0  0  0  0  0  0  0
   10.7780   -1.0990   22.0090 C   0  0  0  0  0  0  0  0  0  0  0  0
    9.7210   -0.9380   22.9030 C   0  0  0  0  0  0  0  0  0  0  0  0
    8.5250   -0.6310   22.4060 N   0  0  0  0  0  0  0  0  0  0  0  0
    8.1890    0.1190   21.3130 C   0  0  0  0  0  0  0  0  0  0  0  0
    8.7310    1.1900   21.0060 O   0  0  0  0  0  0  0  0  0  0  0  0
    7.1900   -0.5560   20.7390 N   0  0  0  0  0  0  0  0  0  0  0  0
    6.4290    0.1400   19.9130 C   0  0  0  0  0  0  0  0  0  0  0  0
    5.2260    0.8140   20.2590 C   0  0  0  0  0  0  0  0  0  0  0  0
    4.5970    1.5360   19.0790 C   0  0  0  0  0  0  0  0  0  0  0  0
    5.1520    1.5210   17.8280 C   0  0  0  0  0  0  0  0  0  0  0  0
    6.2760    0.8710   17.5310 N   0  0  0  0  0  0  0  0  0  0  0  0
    6.8890    0.1850   18.6240 C   0  0  0  0  0  0  0  0  0  0  0  0
  1  2  1  0
  2  3  1  0
  2  4  1  0
  4  5  1  0
  5  6  2  0
  6  7  1  0
  7  8  1  0
  7  9  2  0
  9 10  1  0
  5 11  1  0
 10 11  2  0
 11 12  1  0
 12 13  1  0
 13 14  2  0
 13 15  1  0
 15 16  1  0
 16 17  2  0
 17 18  1  0
 18 19  2  0
 19 20  1  0
 16 21  1  0
 20 21  2  0
M  END
