pyridine_urea_3272
     RDKit          3D

 20 21  0  0  0  0  0  0  0  0999 V2000
    8.8030    0.7880   21.4660 O   0  0  0  0  0  0  0  0  0  0  0  0
    8.3950   -0.3600   21.3530 C   0  0  0  0  0  0  0  0  0  0  0  0
    9.1370   -1.5070   21.4690 N   0  0  0  0  0  0  0  0  0  0  0  0
    9.8960   -1.9300   22.5840 C   0  0  0  0  0  0  0  0  0  0  0  0
   11.2430   -1.5930   22.5480 C   0  0  0  0  0  0  0  0  0  0  0  0
   12.5820   -0.9470   22.6200 C   0  0  0  0  0  0  0  0  0  0  0  0
   13.0450    0.3600   23.0230 C   0  0  0  0  0  0  0  0  0  0  0  0
   12.0900    1.4020   23.4970 C   0  0  0  0  0  0  0  0  0  0  0  0
   10.9880    0.7540   23.4000 C   0  0  0  0  0  0  0  0  0  0  0  0
   12.1870    0.0540   23.0560 N   0  0  0  0  0  0  0  0  0  0  0  0
   12.5570   -0.7470   23.9630 O   0  0  0  0  0  0  0  0  0  0  0  0
   13.1650    0.7310   22.3920 O   0  0  0  0  0  0  0  0  0  0  0  0
   10.4230   -0.5290   23.0200 C   0  0  0  0  0  0  0  0  0  0  0  0
    7.0780   -0.6260   21.0470 N   0  0  0  0  0  0  0  0  0  0  0  0
    6.3840    0.0340   20.0940 C   0  0  0  0  0  0  0  0  0  0  0  0
    5.2060    0.7390   20.2970 C   0  0  0  0  0  0  0  0  0  0  0  0
    4.6070    1.3850   19.2130 C   0  0  0  0  0  0  0  0  0  0  0  0
    5.2090    1.3050   17.9600 C   0  0  0  0  0  0  0  0  0  0  0  0
    6.3440    0.6250   17.7450 N   0  0  0  0  0  0  0  0  0  0  0  0
    6.8940    0.0110   18.8070 C   0  0  0  0  0  0  0  0  0  0  0  0
  1  2  2  0
  2  3  1  0
  3  4  1  0
  4  5  1  0
  5  6  2  0
  6  7  1  0
  7  8  2  0
  8  9  1  0
  9 10  1  0
 10 11  2  0
 10 12  1  0
  5 13  1  0
  9 13  2  0
  2 14  1  0
 14 15  1  0
 15 16  2  0
 16 17  1  0
 17 18  2  0
 18 19  1  0
 15 20  1  0
 19 20  2  0
M  CHG  2  10   1  12  -1
M  END
