pyridine_urea_5366
     RDKit          3D

 19 20  0  0  0  0  0  0  0  0999 V2000
    9.0040    1.2850   21.1960 O   0  0  0  0  0  0  0  0  0  0  0  0
    8.4000    0.3030   21.6430 C   0  0  0  0  0  0  0  0  0  0  0  0
    8.6740   -0.2210   22.8910 N   0  0  0  0  0  0  0  0  0  0  0  0
    8.1550   -1.5200   23.2580 C   0  0  0  0  0  0  0  0  0  0  0  0
    8.9720   -2.6690   22.5980 C   0  0  0  0  0  0  0  0  0  0  0  0
   10.4420   -2.5700   22.8770 N   0  0  0  0  0  0  0  0  0  0  0  0
   10.8360   -2.7390   24.2840 C   0  0  0  0  0  0  0  0  0  0  0  0
   12.3210   -2.5230   24.5400 C   0  0  0  0  0  0  0  0  0  0  0  0
   12.6860   -1.4010   23.8460 C   0  0  0  0  0  0  0  0  0  0  0  0
   13.8420   -1.2840   24.1100 O   0  0  0  0  0  0  0  0  0  0  0  0
   12.6260   -1.5730   22.3470 C   0  0  0  0  0  0  0  0  0  0  0  0
   11.2590   -2.0240   21.8790 C   0  0  0  0  0  0  0  0  0  0  0  0
    7.3850   -0.3880   21.0150 N   0  0  0  0  0  0  0  0  0  0  0  0
    6.5850    0.1750   20.1000 C   0  0  0  0  0  0  0  0  0  0  0  0
    5.2940    0.9110   20.3950 C   0  0  0  0  0  0  0  0  0  0  0  0
    4.5440    1.5050   19.2370 C   0  0  0  0  0  0  0  0  0  0  0  0
    5.1550    1.3100   17.8670 C   0  0  0  0  0  0  0  0  0  0  0  0
    6.3030    0.6270   17.7120 N   0  0  0  0  0  0  0  0  0  0  0  0
    6.9570    0.0990   18.7630 C   0  0  0  0  0  0  0  0  0  0  0  0
  1  2  2  0
  2  3  1  0
  3  4  1  0
  4  5  1  0
  5  6  1  0
  6  7  1  0
  7  8  1  0
  8  9  1  0
  9 10  1  0
  9 11  1  0
  6 12  1  0
 11 12  1  0
  2 13  1  0
 13 14  1  0
 14 15  2  0
 15 16  1  0
 16 17  2  0
 17 18  1  0
 14 19  1  0
 18 19  2  0
M  END
