pyridine_urea_8059
     RDKit          3D

 24 26  0  0  0  0  0  0  0  0999 V2000
    7.9030   -3.5530   24.1330 C   0  0  0  0  0  0  0  0  0  0  0  0
    8.7400   -2.6240   23.2590 C   0  0  1  0  0  0  0  0  0  0  0  0
    8.1450   -1.2780   23.1440 N   0  0  0  0  0  0  0  0  0  0  0  0
    8.1700   -0.6600   21.7860 C   0  0  0  0  0  0  0  0  0  0  0  0
    9.0150    0.1500   21.4070 O   0  0  0  0  0  0  0  0  0  0  0  0
    6.9900   -1.1750   21.0070 N   0  0  0  0  0  0  0  0  0  0  0  0
    6.3720   -0.3130   19.9900 C   0  0  0  0  0  0  0  0  0  0  0  0
    5.1420    0.5480   20.3450 C   0  0  0  0  0  0  0  0  0  0  0  0
    4.5790    1.3490   19.3610 C   0  0  0  0  0  0  0  0  0  0  0  0
    5.1690    1.3720   17.9670 C   0  0  0  0  0  0  0  0  0  0  0  0
    6.2660    0.5870   17.7010 N   0  0  0  0  0  0  0  0  0  0  0  0
    6.8500   -0.2380   18.6840 C   0  0  0  0  0  0  0  0  0  0  0  0
   10.0840   -2.3430   23.8870 C   0  0  0  0  0  0  0  0  0  0  0  0
   10.6310   -1.0100   23.6030 N   0  0  0  0  0  0  0  0  0  0  0  0
   11.8190   -1.0930   24.2660 C   0  0  0  0  0  0  0  0  0  0  0  0
   11.9960   -2.4210   24.9440 C   0  0  0  0  0  0  0  0  0  0  0  0
   13.3750   -2.2930   25.5660 C   0  0  0  0  0  0  0  0  0  0  0  0
   14.0630   -1.5760   26.3290 C   0  0  0  0  0  0  0  0  0  0  0  0
   15.5920   -1.3880   26.7810 C   0  0  0  0  0  0  0  0  0  0  0  0
   16.3810   -1.8580   26.2690 C   0  0  0  0  0  0  0  0  0  0  0  0
   18.6530   -1.7730   25.9150 Br  0  0  0  0  0  0  0  0  0  0  0  0
   15.5530   -2.4490   25.7640 C   0  0  0  0  0  0  0  0  0  0  0  0
   14.2520   -3.0040   25.2670 C   0  0  0  0  0  0  0  0  0  0  0  0
   10.8960   -3.1570   24.6890 N   0  0  0  0  0  0  0  0  0  0  0  0
  2  1  1  1
  2  3  1  0
  3  4  1  0
  4  5  2  0
  4  6  1  0
  6  7  1  0
  7  8  2  0
  8  9  1  0
  9 10  2  0
 10 11  1  0
  7 12  1  0
 11 12  2  0
  2 13  1  0
 13 14  2  0
 14 15  1  0
 15 16  2  0
 16 17  1  0
 17 18  2  0
 18 19  1  0
 19 20  2  0
 20 21  1  0
 20 22  1  0
 17 23  1  0
 22 23  2  0
 13 24  1  0
 16 24  1  0
M  END
