pyridine_urea_2510
     RDKit          3D

 24 26  0  0  0  0  0  0  0  0999 V2000
    9.9630   -0.2610   25.5930 C   0  0  0  0  0  0  0  0  0  0  0  0
   11.0430   -0.5960   24.8110 N   0  0  0  0  0  0  0  0  0  0  0  0
   12.2690   -1.1970   25.1100 C   0  0  0  0  0  0  0  0  0  0  0  0
   12.7060   -1.4000   23.8750 C   0  0  0  0  0  0  0  0  0  0  0  0
   13.1240   -0.3430   23.1610 C   0  0  0  0  0  0  0  0  0  0  0  0
   13.5070   -0.4660   21.9050 C   0  0  0  0  0  0  0  0  0  0  0  0
   13.5280   -1.6270   21.1940 C   0  0  0  0  0  0  0  0  0  0  0  0
   13.1370   -2.7810   21.8400 C   0  0  0  0  0  0  0  0  0  0  0  0
   12.7050   -2.6300   23.2930 C   0  0  0  0  0  0  0  0  0  0  0  0
   10.8300   -0.7420   23.4500 C   0  0  1  0  0  0  0  0  0  0  0  0
    9.5950   -1.2180   23.0150 C   0  0  0  0  0  0  0  0  0  0  0  0
    9.3170   -0.8190   21.7250 N   0  0  0  0  0  0  0  0  0  0  0  0
    8.4200    0.1260   21.3030 C   0  0  0  0  0  0  0  0  0  0  0  0
    8.6880    1.3150   21.0980 O   0  0  0  0  0  0  0  0  0  0  0  0
    7.1970   -0.4230   21.1120 N   0  0  0  0  0  0  0  0  0  0  0  0
    6.5340    0.1330   20.0810 C   0  0  0  0  0  0  0  0  0  0  0  0
    5.3860    0.8840   20.3130 C   0  0  0  0  0  0  0  0  0  0  0  0
    4.7050    1.4760   19.2780 C   0  0  0  0  0  0  0  0  0  0  0  0
    5.1460    1.3370   17.9820 C   0  0  0  0  0  0  0  0  0  0  0  0
    6.2440    0.6120   17.7030 N   0  0  0  0  0  0  0  0  0  0  0  0
    6.9090    0.0270   18.7430 C   0  0  0  0  0  0  0  0  0  0  0  0
   11.2330    0.4910   22.9460 C   0  0  0  0  0  0  0  0  0  0  0  0
   12.2560    1.0860   23.4320 C   0  0  0  0  0  0  0  0  0  0  0  0
   11.0890    1.8370   23.8010 C   0  0  0  0  0  0  0  0  0  0  0  0
  1  2  1  0
  2  3  1  0
  3  4  1  0
  4  5  2  0
  5  6  1  0
  6  7  2  0
  7  8  1  0
  4  9  1  0
  8  9  2  0
  2 10  1  0
 10 11  1  1
 11 12  1  0
 12 13  1  0
 13 14  2  0
 13 15  1  0
 15 16  1  0
 16 17  2  0
 17 18  1  0
 18 19  2  0
 19 20  1  0
 16 21  1  0
 20 21  2  0
 10 22  1  0
 22 23  1  0
 22 24  1  0
 23 24  1  0
M  END
