pyridine_urea_9801
     RDKit          3D

 25 27  0  0  0  0  0  0  0  0999 V2000
    9.0010    0.8470   21.3600 O   0  0  0  0  0  0  0  0  0  0  0  0
    8.5370   -0.2390   21.6750 C   0  0  0  0  0  0  0  0  0  0  0  0
    7.4040   -0.8020   21.0930 N   0  0  0  0  0  0  0  0  0  0  0  0
    6.6630   -0.0830   20.0750 C   0  0  0  0  0  0  0  0  0  0  0  0
    5.4250    0.7050   20.5110 C   0  0  0  0  0  0  0  0  0  0  0  0
    4.6480    1.4690   19.4310 C   0  0  0  0  0  0  0  0  0  0  0  0
    5.2080    1.3580   18.0120 C   0  0  0  0  0  0  0  0  0  0  0  0
    6.3550    0.5910   17.7790 N   0  0  0  0  0  0  0  0  0  0  0  0
    7.0370   -0.0900   18.7510 C   0  0  0  0  0  0  0  0  0  0  0  0
    9.0530   -1.0690   22.6740 N   0  0  0  0  0  0  0  0  0  0  0  0
   10.3560   -0.9940   23.2700 C   0  0  1  0  0  0  0  0  0  0  0  0
   11.4590   -1.1440   22.4460 C   0  0  0  0  0  0  0  0  0  0  0  0
   12.4400   -0.2890   22.8730 C   0  0  0  0  0  0  0  0  0  0  0  0
   11.9240    0.2370   24.0370 C   0  0  0  0  0  0  0  0  0  0  0  0
   10.5200    0.0730   24.2060 C   0  0  1  0  0  0  0  0  0  0  0  0
    9.7790    1.2360   23.9950 C   0  0  0  0  0  0  0  0  0  0  0  0
   10.3800    2.2870   23.1160 C   0  0  0  0  0  0  0  0  0  0  0  0
    9.6310    3.4340   22.9280 C   0  0  0  0  0  0  0  0  0  0  0  0
    8.2990    3.6470   23.5470 C   0  0  0  0  0  0  0  0  0  0  0  0
    7.7870    2.6350   24.3570 C   0  0  0  0  0  0  0  0  0  0  0  0
    8.4930    1.4540   24.5880 C   0  0  0  0  0  0  0  0  0  0  0  0
    7.8920    0.4940   25.4240 C   0  0  0  0  0  0  0  0  0  0  0  0
    8.6400   -0.0460   26.3950 F   0  0  0  0  0  0  0  0  0  0  0  0
    6.8220    1.0460   26.0430 F   0  0  0  0  0  0  0  0  0  0  0  0
    7.4030   -0.5380   24.7030 F   0  0  0  0  0  0  0  0  0  0  0  0
  1  2  2  0
  2  3  1  0
  3  4  1  0
  4  5  2  0
  5  6  1  0
  6  7  2  0
  7  8  1  0
  4  9  1  0
  8  9  2  0
  2 10  1  0
 11 10  1  6
 11 12  1  0
 12 13  1  0
 13 14  1  0
 11 15  1  0
 14 15  1  0
 15 16  1  6
 16 17  2  0
 17 18  1  0
 18 19  2  0
 19 20  1  0
 16 21  1  0
 20 21  2  0
 21 22  1  0
 22 23  1  0
 22 24  1  0
 22 25  1  0
M  END
