pyridine_urea_2990
     RDKit          3D

 21 22  0  0  0  0  0  0  0  0999 V2000
   12.6690   -1.1920   24.3230 C   0  0  0  0  0  0  0  0  0  0  0  0
   12.4740   -0.4350   23.0110 C   0  0  0  0  0  0  0  0  0  0  0  0
   13.3390    0.7900   22.8690 C   0  0  0  0  0  0  0  0  0  0  0  0
   12.6700   -1.4220   21.8630 C   0  0  0  0  0  0  0  0  0  0  0  0
   11.2540    0.4750   23.0180 C   0  0  0  0  0  0  0  0  0  0  0  0
   11.4250    1.8630   22.8310 C   0  0  0  0  0  0  0  0  0  0  0  0
   10.1210    2.6010   22.8790 C   0  0  0  0  0  0  0  0  0  0  0  0
    9.0040    2.6800   22.9870 N   0  0  0  0  0  0  0  0  0  0  0  0
    8.8190    1.2310   23.1740 C   0  0  0  0  0  0  0  0  0  0  0  0
    9.9280    0.1400   23.1880 C   0  0  0  0  0  0  0  0  0  0  0  0
    9.4370   -1.2660   23.3800 C   0  0  0  0  0  0  0  0  0  0  0  0
    8.6020   -1.6090   22.3170 N   0  0  0  0  0  0  0  0  0  0  0  0
    8.0670   -0.6440   21.4400 C   0  0  0  0  0  0  0  0  0  0  0  0
    8.6260    0.3900   21.1010 O   0  0  0  0  0  0  0  0  0  0  0  0
    6.8400   -1.0000   21.0280 N   0  0  0  0  0  0  0  0  0  0  0  0
    6.3330   -0.2440   20.0270 C   0  0  0  0  0  0  0  0  0  0  0  0
    5.1520    0.4710   20.2490 C   0  0  0  0  0  0  0  0  0  0  0  0
    4.6060    1.2660   19.2240 C   0  0  0  0  0  0  0  0  0  0  0  0
    5.2320    1.3540   17.9850 C   0  0  0  0  0  0  0  0  0  0  0  0
    6.3650    0.6950   17.7040 N   0  0  0  0  0  0  0  0  0  0  0  0
    6.9080   -0.1280   18.7840 C   0  0  0  0  0  0  0  0  0  0  0  0
  2  1  1  0
  2  3  1  0
  2  4  1  0
  2  5  1  0
  5  6  2  0
  6  7  1  0
  7  8  2  0
  8  9  1  0
  5 10  1  0
  9 10  2  0
 10 11  1  0
 11 12  1  0
 12 13  1  0
 13 14  2  0
 13 15  1  0
 15 16  1  0
 16 17  2  0
 17 18  1  0
 18 19  2  0
 19 20  1  0
 16 21  1  0
 20 21  2  0
M  END
