pyridine_urea_4856
     RDKit          3D

 21 22  0  0  0  0  0  0  0  0999 V2000
   13.2770   -1.8600   25.3620 C   0  0  0  0  0  0  0  0  0  0  0  0
   12.1380   -0.5250   25.0290 S   0  0  0  0  0  0  0  0  0  0  0  0
   10.9140   -0.5670   25.7880 O   0  0  0  0  0  0  0  0  0  0  0  0
   12.7670    0.6740   24.6300 O   0  0  0  0  0  0  0  0  0  0  0  0
   11.7130   -1.0780   23.4970 C   0  0  0  0  0  0  0  0  0  0  0  0
   13.0780   -1.1090   22.7650 C   0  0  0  0  0  0  0  0  0  0  0  0
   13.0610   -1.5420   21.5460 C   0  0  0  0  0  0  0  0  0  0  0  0
   11.7960   -1.8030   21.3930 C   0  0  0  0  0  0  0  0  0  0  0  0
   10.5530   -1.8220   21.8930 C   0  0  0  0  0  0  0  0  0  0  0  0
   10.3460   -1.3800   23.2250 C   0  0  0  0  0  0  0  0  0  0  0  0
    9.1400   -1.7250   22.7460 C   0  0  0  0  0  0  0  0  0  0  0  0
    8.3640   -0.5290   22.7670 N   0  0  0  0  0  0  0  0  0  0  0  0
    8.1720    0.1510   21.6120 C   0  0  0  0  0  0  0  0  0  0  0  0
    8.8710    1.1110   21.2430 O   0  0  0  0  0  0  0  0  0  0  0  0
    7.0730   -0.4110   20.9720 N   0  0  0  0  0  0  0  0  0  0  0  0
    6.4650    0.1700   19.9200 C   0  0  0  0  0  0  0  0  0  0  0  0
    5.3250    0.8910   20.2710 C   0  0  0  0  0  0  0  0  0  0  0  0
    4.6440    1.5660   19.1340 C   0  0  0  0  0  0  0  0  0  0  0  0
    5.1400    1.4540   17.8570 C   0  0  0  0  0  0  0  0  0  0  0  0
    6.2460    0.7290   17.5740 N   0  0  0  0  0  0  0  0  0  0  0  0
    6.8990    0.0900   18.6320 C   0  0  0  0  0  0  0  0  0  0  0  0
  2  1  1  0
  2  3  2  0
  2  4  2  0
  2  5  1  0
  5  6  2  0
  6  7  1  0
  7  8  2  0
  8  9  1  0
  5 10  1  0
  9 10  2  0
 10 11  1  0
 11 12  1  0
 12 13  1  0
 13 14  2  0
 13 15  1  0
 15 16  1  0
 16 17  2  0
 17 18  1  0
 18 19  2  0
 19 20  1  0
 16 21  1  0
 20 21  2  0
M  END
