pyridine_urea_7094
     RDKit          3D

 20 21  0  0  0  0  0  0  0  0999 V2000
    8.8530    1.2500   21.1350 O   0  0  0  0  0  0  0  0  0  0  0  0
    8.2980    0.2160   21.5320 C   0  0  0  0  0  0  0  0  0  0  0  0
    8.6330   -0.4480   22.6890 N   0  0  0  0  0  0  0  0  0  0  0  0
    9.6930   -1.3390   22.8770 C   0  0  0  0  0  0  0  0  0  0  0  0
    9.9690   -1.8350   24.1410 C   0  0  0  0  0  0  0  0  0  0  0  0
   11.3090   -1.9140   24.5200 C   0  0  0  0  0  0  0  0  0  0  0  0
   12.1780   -1.3640   23.6090 C   0  0  0  0  0  0  0  0  0  0  0  0
   12.4140   -2.1190   22.5440 N   0  0  0  0  0  0  0  0  0  0  0  0
   13.4470   -2.9380   22.4730 C   0  0  0  0  0  0  0  0  0  0  0  0
   13.4390   -3.6770   21.1660 C   0  0  0  0  0  0  0  0  0  0  0  0
   14.6570   -5.0040   20.4940 Br  0  0  0  0  0  0  0  0  0  0  0  0
   12.3260   -3.1790   20.5890 C   0  0  0  0  0  0  0  0  0  0  0  0
   11.6690   -2.2200   21.3800 N   0  0  0  0  0  0  0  0  0  0  0  0
    7.2630   -0.4570   20.9260 N   0  0  0  0  0  0  0  0  0  0  0  0
    6.4810    0.1720   20.0410 C   0  0  0  0  0  0  0  0  0  0  0  0
    5.3260    0.8920   20.3580 C   0  0  0  0  0  0  0  0  0  0  0  0
    4.6430    1.4970   19.3180 C   0  0  0  0  0  0  0  0  0  0  0  0
    5.1810    1.3320   17.9640 C   0  0  0  0  0  0  0  0  0  0  0  0
    6.2770    0.6400   17.6310 N   0  0  0  0  0  0  0  0  0  0  0  0
    6.8660    0.0960   18.7050 C   0  0  0  0  0  0  0  0  0  0  0  0
  1  2  2  0
  2  3  1  0
  3  4  1  0
  4  5  1  0
  5  6  1  0
  6  7  1  0
  7  8  1  0
  8  9  1  0
  9 10  2  0
 10 11  1  0
 10 12  1  0
  8 13  1  0
 12 13  2  0
  2 14  1  0
 14 15  1  0
 15 16  2  0
 16 17  1  0
 17 18  2  0
 18 19  1  0
 15 20  1  0
 19 20  2  0
M  END
