pyridine_urea_9608
     RDKit          3D

 19 20  0  0  0  0  0  0  0  0999 V2000
   13.6050   -2.5310   25.1640 C   0  0  0  0  0  0  0  0  0  0  0  0
   12.7140   -1.2810   25.0790 C   0  0  0  0  0  0  0  0  0  0  0  0
   12.8970   -0.6190   23.8200 O   0  0  0  0  0  0  0  0  0  0  0  0
   11.7270    0.0850   23.4320 C   0  0  2  0  0  0  0  0  0  0  0  0
   10.5850    0.1360   24.3540 C   0  0  0  0  0  0  0  0  0  0  0  0
    9.9980   -0.8300   23.3560 C   0  0  1  0  0  0  0  0  0  0  0  0
    8.6670   -0.4710   22.8880 N   0  0  0  0  0  0  0  0  0  0  0  0
    8.4140    0.1700   21.6800 C   0  0  0  0  0  0  0  0  0  0  0  0
    9.0480    1.1560   21.2740 O   0  0  0  0  0  0  0  0  0  0  0  0
    7.3530   -0.4390   21.0470 N   0  0  0  0  0  0  0  0  0  0  0  0
    6.6060    0.1350   20.0160 C   0  0  0  0  0  0  0  0  0  0  0  0
    5.4450    0.8530   20.3290 C   0  0  0  0  0  0  0  0  0  0  0  0
    4.7030    1.4450   19.3090 C   0  0  0  0  0  0  0  0  0  0  0  0
    5.1500    1.2950   18.0160 C   0  0  0  0  0  0  0  0  0  0  0  0
    6.2500    0.6050   17.6920 N   0  0  0  0  0  0  0  0  0  0  0  0
    6.9490    0.0420   18.6930 C   0  0  0  0  0  0  0  0  0  0  0  0
   10.9460   -0.6890   22.3240 C   0  0  2  0  0  0  0  0  0  0  0  0
   11.6830   -2.1040   21.6860 S   0  0  0  0  0  0  0  0  0  0  0  0
   13.1130   -2.4700   22.6920 C   0  0  0  0  0  0  0  0  0  0  0  0
  1  2  1  0
  2  3  1  0
  4  3  1  1
  4  5  1  0
  5  6  1  0
  6  7  1  6
  7  8  1  0
  8  9  2  0
  8 10  1  0
 10 11  1  0
 11 12  2  0
 12 13  1  0
 13 14  2  0
 14 15  1  0
 11 16  1  0
 15 16  2  0
  4 17  1  0
  6 17  1  0
 17 18  1  1
 18 19  1  0
M  END
