pyridine_urea_7149
     RDKit          3D

 20 21  0  0  0  0  0  0  0  0999 V2000
   13.2230   -2.5490   24.5540 C   0  0  0  0  0  0  0  0  0  0  0  0
   13.3820   -3.0690   23.4540 O   0  0  0  0  0  0  0  0  0  0  0  0
   13.1210   -2.3240   22.3350 C   0  0  0  0  0  0  0  0  0  0  0  0
   13.2580   -2.6970   21.1790 O   0  0  0  0  0  0  0  0  0  0  0  0
   12.6770   -1.0690   22.6170 C   0  0  0  0  0  0  0  0  0  0  0  0
   13.5660    0.1690   22.6420 O   0  0  0  0  0  0  0  0  0  0  0  0
   12.7860    1.3610   22.9800 C   0  0  0  0  0  0  0  0  0  0  0  0
   12.4520    0.2240   22.8640 C   0  0  0  0  0  0  0  0  0  0  0  0
   11.4800   -0.5530   22.9260 C   0  0  0  0  0  0  0  0  0  0  0  0
    9.9740   -0.6500   23.1980 C   0  0  0  0  0  0  0  0  0  0  0  0
    9.2050   -0.8910   22.0550 N   0  0  0  0  0  0  0  0  0  0  0  0
    8.3710    0.0080   21.4100 C   0  0  0  0  0  0  0  0  0  0  0  0
    8.7180    1.1550   21.0940 O   0  0  0  0  0  0  0  0  0  0  0  0
    7.0750   -0.6190   21.1790 N   0  0  0  0  0  0  0  0  0  0  0  0
    6.3990    0.0690   20.0630 C   0  0  0  0  0  0  0  0  0  0  0  0
    5.2290    0.7740   20.3310 C   0  0  0  0  0  0  0  0  0  0  0  0
    4.6030    1.4300   19.2790 C   0  0  0  0  0  0  0  0  0  0  0  0
    5.2220    1.3360   17.9400 C   0  0  0  0  0  0  0  0  0  0  0  0
    6.3500    0.6420   17.7130 N   0  0  0  0  0  0  0  0  0  0  0  0
    6.9100    0.0240   18.7730 C   0  0  0  0  0  0  0  0  0  0  0  0
  1  2  1  0
  2  3  1  0
  3  4  2  0
  3  5  1  0
  5  6  1  0
  6  7  1  0
  7  8  2  0
  5  9  2  0
  8  9  1  0
  9 10  1  0
 10 11  1  0
 11 12  1  0
 12 13  2  0
 12 14  1  0
 14 15  1  0
 15 16  2  0
 16 17  1  0
 17 18  2  0
 18 19  1  0
 15 20  1  0
 19 20  2  0
M  END
