pyridine_urea_8571
     RDKit          3D

 21 23  0  0  0  0  0  0  0  0999 V2000
   10.0330    0.7180   24.5220 C   0  0  0  0  0  0  0  0  0  0  0  0
    9.7300    0.4200   23.0880 C   0  0  2  0  0  0  0  0  0  0  0  0
    8.4110   -0.0860   22.9280 N   0  0  0  0  0  0  0  0  0  0  0  0
    8.0920    0.3070   21.5660 C   0  0  0  0  0  0  0  0  0  0  0  0
    8.7410    1.2540   21.0500 O   0  0  0  0  0  0  0  0  0  0  0  0
    7.0830   -0.4170   21.0170 N   0  0  0  0  0  0  0  0  0  0  0  0
    6.4100    0.1610   19.9710 C   0  0  0  0  0  0  0  0  0  0  0  0
    5.2390    0.8410   20.2190 C   0  0  0  0  0  0  0  0  0  0  0  0
    4.5330    1.5030   19.0680 C   0  0  0  0  0  0  0  0  0  0  0  0
    5.1140    1.3860   17.8210 C   0  0  0  0  0  0  0  0  0  0  0  0
    6.2510    0.6980   17.6240 N   0  0  0  0  0  0  0  0  0  0  0  0
    6.8630    0.1120   18.6740 C   0  0  0  0  0  0  0  0  0  0  0  0
   10.6430   -0.6410   22.5230 C   0  0  2  0  0  0  0  0  0  0  0  0
   10.0250   -1.7270   22.4870 O   0  0  0  0  0  0  0  0  0  0  0  0
    9.9980   -2.4650   23.6710 C   0  0  0  0  0  0  0  0  0  0  0  0
   11.2330   -3.0200   24.0480 C   0  0  0  0  0  0  0  0  0  0  0  0
   12.1260   -2.0450   24.0720 C   0  0  0  0  0  0  0  0  0  0  0  0
   13.5900   -2.0420   24.9250 S   0  0  0  0  0  0  0  0  0  0  0  0
   12.8210   -0.9690   23.9120 C   0  0  0  0  0  0  0  0  0  0  0  0
   12.8650    0.2020   23.3100 C   0  0  0  0  0  0  0  0  0  0  0  0
   11.8630   -0.7810   23.2610 C   0  0  0  0  0  0  0  0  0  0  0  0
  2  1  1  1
  2  3  1  0
  3  4  1  0
  4  5  2  0
  4  6  1  0
  6  7  1  0
  7  8  2  0
  8  9  1  0
  9 10  2  0
 10 11  1  0
  7 12  1  0
 11 12  2  0
  2 13  1  0
 13 14  1  1
 14 15  1  0
 15 16  1  0
 16 17  1  0
 17 18  1  0
 18 19  1  0
 19 20  2  0
 13 21  1  0
 17 21  2  0
 20 21  1  0
M  END
