pyridine_urea_12163
     RDKit          3D

 23 24  0  0  0  0  0  0  0  0999 V2000
   10.9230   -0.4310   25.0930 C   0  0  0  0  0  0  0  0  0  0  0  0
    9.5300   -0.5540   24.5150 C   0  0  0  0  0  0  0  0  0  0  0  0
    9.5610   -0.3100   23.1710 C   0  0  2  0  0  0  0  0  0  0  0  0
    8.7590   -0.9280   22.3360 N   0  0  0  0  0  0  0  0  0  0  0  0
    8.0840   -0.2310   21.4020 C   0  0  0  0  0  0  0  0  0  0  0  0
    8.4730    0.8660   21.0110 O   0  0  0  0  0  0  0  0  0  0  0  0
    6.8810   -0.9300   20.9750 N   0  0  0  0  0  0  0  0  0  0  0  0
    6.2910   -0.1480   19.9690 C   0  0  0  0  0  0  0  0  0  0  0  0
    5.1040    0.5260   20.2500 C   0  0  0  0  0  0  0  0  0  0  0  0
    4.5130    1.3070   19.2630 C   0  0  0  0  0  0  0  0  0  0  0  0
    5.2150    1.3770   17.9180 C   0  0  0  0  0  0  0  0  0  0  0  0
    6.3600    0.7030   17.6930 N   0  0  0  0  0  0  0  0  0  0  0  0
    6.8640   -0.0340   18.7080 C   0  0  0  0  0  0  0  0  0  0  0  0
   10.9180   -0.5950   22.7080 C   0  0  0  0  0  0  0  0  0  0  0  0
   11.6850   -1.5030   22.0520 C   0  0  0  0  0  0  0  0  0  0  0  0
   13.0960   -0.9450   22.0050 C   0  0  0  0  0  0  0  0  0  0  0  0
   13.5680    0.3770   22.5850 C   0  0  0  0  0  0  0  0  0  0  0  0
   12.5630    1.0330   23.1840 C   0  0  0  0  0  0  0  0  0  0  0  0
   11.9770    0.0210   22.7900 C   0  0  0  0  0  0  0  0  0  0  0  0
   12.9310   -0.7370   22.1850 O   0  0  0  0  0  0  0  0  0  0  0  0
   12.8150   -2.1440   22.4800 C   0  0  0  0  0  0  0  0  0  0  0  0
   13.2830   -2.8040   21.3900 F   0  0  0  0  0  0  0  0  0  0  0  0
   13.5670   -2.5040   23.5600 F   0  0  0  0  0  0  0  0  0  0  0  0
  1  2  1  0
  3  2  1  1
  3  4  1  0
  4  5  1  0
  5  6  2  0
  5  7  1  0
  7  8  1  0
  8  9  2  0
  9 10  1  0
 10 11  2  0
 11 12  1  0
  8 13  1  0
 12 13  2  0
  3 14  1  0
 14 15  2  0
 15 16  1  0
 16 17  2  0
 17 18  1  0
 14 19  1  0
 18 19  2  0
 19 20  1  0
 20 21  1  0
 21 22  1  0
 21 23  1  0
M  END
