pyridine_urea_2669
     RDKit          3D

 23 24  0  0  0  0  0  0  0  0999 V2000
   11.7090   -1.0330   24.1670 C   0  0  0  0  0  0  0  0  0  0  0  0
   11.5560   -0.5080   23.0220 O   0  0  0  0  0  0  0  0  0  0  0  0
   11.6240   -1.4660   22.0700 C   0  0  0  0  0  0  0  0  0  0  0  0
   10.4680   -0.9200   22.1600 C   0  0  0  0  0  0  0  0  0  0  0  0
   10.3170    0.1040   23.0860 C   0  0  0  0  0  0  0  0  0  0  0  0
   11.3120    0.6740   23.9960 C   0  0  0  0  0  0  0  0  0  0  0  0
   10.0510    1.2160   24.0650 C   0  0  1  0  0  0  0  0  0  0  0  0
    9.7270    2.1950   23.1170 C   0  0  0  0  0  0  0  0  0  0  0  0
    9.2130   -0.0970   23.9050 C   0  0  0  0  0  0  0  0  0  0  0  0
    8.0750   -0.1030   22.9980 N   0  0  0  0  0  0  0  0  0  0  0  0
    8.1230    0.2700   21.6780 C   0  0  0  0  0  0  0  0  0  0  0  0
    8.9430    1.2560   21.1710 O   0  0  0  0  0  0  0  0  0  0  0  0
    7.2120   -0.4580   20.9710 N   0  0  0  0  0  0  0  0  0  0  0  0
    6.4480    0.1610   19.9980 C   0  0  0  0  0  0  0  0  0  0  0  0
    5.2760    0.8780   20.2410 C   0  0  0  0  0  0  0  0  0  0  0  0
    4.6330    1.4670   19.1660 C   0  0  0  0  0  0  0  0  0  0  0  0
    5.1600    1.3300   17.9010 C   0  0  0  0  0  0  0  0  0  0  0  0
    6.2640    0.6480   17.6100 N   0  0  0  0  0  0  0  0  0  0  0  0
    6.9030    0.0610   18.7010 C   0  0  0  0  0  0  0  0  0  0  0  0
   12.5370   -0.1070   23.6910 C   0  0  0  0  0  0  0  0  0  0  0  0
   12.7980   -1.1550   22.8060 C   0  0  0  0  0  0  0  0  0  0  0  0
   13.8290   -1.6830   22.7180 O   0  0  0  0  0  0  0  0  0  0  0  0
   13.7930   -2.7230   23.6750 C   0  0  0  0  0  0  0  0  0  0  0  0
  1  2  1  0
  2  3  1  0
  3  4  2  0
  4  5  1  0
  5  6  2  0
  6  7  1  0
  7  8  1  6
  7  9  1  0
  9 10  1  0
 10 11  1  0
 11 12  2  0
 11 13  1  0
 13 14  1  0
 14 15  2  0
 15 16  1  0
 16 17  2  0
 17 18  1  0
 14 19  1  0
 18 19  2  0
  6 20  1  0
  3 21  1  0
 20 21  2  0
 21 22  1  0
 22 23  1  0
M  END
