pyridine_urea_1803
     RDKit          3D

 17 18  0  0  0  0  0  0  0  0999 V2000
    8.7910    1.1260   21.1920 O   0  0  0  0  0  0  0  0  0  0  0  0
    8.2250    0.0730   21.5460 C   0  0  0  0  0  0  0  0  0  0  0  0
    8.5700   -0.7580   22.5630 N   0  0  0  0  0  0  0  0  0  0  0  0
    9.8510   -1.2040   22.8380 C   0  0  0  0  0  0  0  0  0  0  0  0
   10.5300   -0.4040   23.7370 C   0  0  0  0  0  0  0  0  0  0  0  0
   11.7890    0.0240   23.3980 C   0  0  0  0  0  0  0  0  0  0  0  0
   13.0360   -0.0080   22.7360 C   0  0  0  0  0  0  0  0  0  0  0  0
   13.2750   -1.0390   21.8810 C   0  0  0  0  0  0  0  0  0  0  0  0
   12.2280   -1.7890   21.8960 C   0  0  0  0  0  0  0  0  0  0  0  0
   11.3740   -1.1960   22.7560 N   0  0  0  0  0  0  0  0  0  0  0  0
    7.1030   -0.4200   20.9510 N   0  0  0  0  0  0  0  0  0  0  0  0
    6.4590    0.1670   19.9450 C   0  0  0  0  0  0  0  0  0  0  0  0
    5.3100    0.8860   20.2220 C   0  0  0  0  0  0  0  0  0  0  0  0
    4.6350    1.5150   19.1830 C   0  0  0  0  0  0  0  0  0  0  0  0
    5.1480    1.3930   17.9070 C   0  0  0  0  0  0  0  0  0  0  0  0
    6.2500    0.6940   17.6210 N   0  0  0  0  0  0  0  0  0  0  0  0
    6.8810    0.0980   18.6440 C   0  0  0  0  0  0  0  0  0  0  0  0
  1  2  2  0
  2  3  1  0
  3  4  1  0
  4  5  1  0
  5  6  1  0
  6  7  2  0
  7  8  1  0
  8  9  2  0
  6 10  1  0
  9 10  1  0
  2 11  1  0
 11 12  1  0
 12 13  2  0
 13 14  1  0
 14 15  2  0
 15 16  1  0
 12 17  1  0
 16 17  2  0
M  END
