pyridine_urea_13122
     RDKit          3D

 21 23  0  0  0  0  0  0  0  0999 V2000
    8.5220    1.6430   20.8600 O   0  0  0  0  0  0  0  0  0  0  0  0
    8.2010    0.6140   21.4280 C   0  0  0  0  0  0  0  0  0  0  0  0
    8.8280    0.1980   22.5200 N   0  0  0  0  0  0  0  0  0  0  0  0
   10.1920    0.4050   22.5830 C   0  0  0  0  0  0  0  0  0  0  0  0
   10.8480   -0.6840   22.0930 C   0  0  0  0  0  0  0  0  0  0  0  0
   10.6420   -1.6130   23.0020 C   0  0  2  0  0  0  0  0  0  0  0  0
    9.7390   -1.0900   23.9590 C   0  0  0  0  0  0  0  0  0  0  0  0
   10.6090   -0.2410   24.9480 C   0  0  0  0  0  0  0  0  0  0  0  0
   11.7720   -0.9570   24.8050 C   0  0  0  0  0  0  0  0  0  0  0  0
   13.0660   -1.2050   25.4740 C   0  0  0  0  0  0  0  0  0  0  0  0
   13.8820   -2.1410   24.8340 C   0  0  0  0  0  0  0  0  0  0  0  0
   13.6150   -2.8040   23.6410 C   0  0  0  0  0  0  0  0  0  0  0  0
   12.4250   -2.5460   23.0320 C   0  0  0  0  0  0  0  0  0  0  0  0
   11.7100   -1.6640   23.7400 C   0  0  0  0  0  0  0  0  0  0  0  0
    7.1940   -0.2210   21.0340 N   0  0  0  0  0  0  0  0  0  0  0  0
    6.3970    0.2840   20.0300 C   0  0  0  0  0  0  0  0  0  0  0  0
    5.1970    0.9480   20.2280 C   0  0  0  0  0  0  0  0  0  0  0  0
    4.5230    1.4420   19.1260 C   0  0  0  0  0  0  0  0  0  0  0  0
    5.1060    1.2330   17.8920 C   0  0  0  0  0  0  0  0  0  0  0  0
    6.2440    0.5900   17.6520 N   0  0  0  0  0  0  0  0  0  0  0  0
    6.8630    0.1270   18.7390 C   0  0  0  0  0  0  0  0  0  0  0  0
  1  2  2  0
  2  3  1  0
  3  4  1  0
  4  5  1  0
  6  5  1  6
  6  7  1  0
  7  8  1  0
  8  9  1  0
  9 10  1  0
 10 11  2  0
 11 12  1  0
 12 13  2  0
  6 14  1  0
  9 14  2  0
 13 14  1  0
  2 15  1  0
 15 16  1  0
 16 17  2  0
 17 18  1  0
 18 19  2  0
 19 20  1  0
 16 21  1  0
 20 21  2  0
M  END
