pyridine_urea_11870
     RDKit          3D

 24 27  0  0  0  0  0  0  0  0999 V2000
    7.1690    0.1380   23.2540 O   0  0  0  0  0  0  0  0  0  0  0  0
    6.7710   -0.2180   22.1810 C   0  0  0  0  0  0  0  0  0  0  0  0
    6.5900   -0.8950   21.0260 N   0  0  0  0  0  0  0  0  0  0  0  0
    6.1820   -0.1620   19.9190 C   0  0  0  0  0  0  0  0  0  0  0  0
    5.0130    0.5850   20.0720 C   0  0  0  0  0  0  0  0  0  0  0  0
    4.5360    1.3630   19.0240 C   0  0  0  0  0  0  0  0  0  0  0  0
    5.2510    1.3640   17.8500 C   0  0  0  0  0  0  0  0  0  0  0  0
    6.3760    0.6490   17.6760 N   0  0  0  0  0  0  0  0  0  0  0  0
    6.8230   -0.0990   18.7080 C   0  0  0  0  0  0  0  0  0  0  0  0
    7.6540   -1.2290   22.3370 N   0  0  0  0  0  0  0  0  0  0  0  0
    8.9410   -0.6470   22.4370 C   0  0  0  0  0  0  0  0  0  0  0  0
   10.0010   -1.6260   22.0900 C   0  0  0  0  0  0  0  0  0  0  0  0
   11.2330   -1.1340   22.1330 C   0  0  0  0  0  0  0  0  0  0  0  0
   11.3880    0.1820   22.4780 C   0  0  0  0  0  0  0  0  0  0  0  0
   10.4140    1.1120   22.8130 C   0  0  0  0  0  0  0  0  0  0  0  0
    9.1620    0.6690   22.7930 C   0  0  0  0  0  0  0  0  0  0  0  0
   10.6740    2.4660   23.1380 C   0  0  0  0  0  0  0  0  0  0  0  0
   12.0140    2.7290   23.0270 C   0  0  0  0  0  0  0  0  0  0  0  0
   12.4850    1.4850   23.3460 C   0  0  0  0  0  0  0  0  0  0  0  0
   12.5720    1.0400   24.5890 O   0  0  0  0  0  0  0  0  0  0  0  0
   12.6280    0.6130   22.4830 N   0  0  0  0  0  0  0  0  0  0  0  0
   13.5400   -0.2500   22.7270 C   0  0  0  0  0  0  0  0  0  0  0  0
   13.4870   -1.4560   22.0390 C   0  0  0  0  0  0  0  0  0  0  0  0
   12.2550   -1.9620   21.8170 C   0  0  0  0  0  0  0  0  0  0  0  0
  1  2  2  0
  2  3  1  0
  3  4  1  0
  4  5  2  0
  5  6  1  0
  6  7  2  0
  7  8  1  0
  4  9  1  0
  8  9  2  0
  2 10  1  0
 10 11  1  0
 11 12  2  0
 12 13  1  0
 13 14  2  0
 14 15  1  0
 11 16  1  0
 15 16  2  0
 15 17  1  0
 17 18  1  0
 18 19  1  0
 19 20  2  0
 14 21  1  0
 19 21  1  0
 21 22  1  0
 22 23  1  0
 13 24  1  0
 23 24  1  0
M  END
