pyridine_urea_10372
     RDKit          3D

 23 24  0  0  0  0  0  0  0  0999 V2000
    9.5590    2.0540   23.9680 C   0  0  0  0  0  0  0  0  0  0  0  0
    8.9980    0.6220   23.9340 C   0  0  0  0  0  0  0  0  0  0  0  0
    8.7780    0.1360   25.3790 C   0  0  0  0  0  0  0  0  0  0  0  0
    7.7410    0.5730   23.2080 N   0  0  0  0  0  0  0  0  0  0  0  0
    8.0200    0.6360   21.8390 C   0  0  0  0  0  0  0  0  0  0  0  0
    8.8740    1.3930   21.3540 O   0  0  0  0  0  0  0  0  0  0  0  0
    7.2070   -0.2120   21.1320 N   0  0  0  0  0  0  0  0  0  0  0  0
    6.5100    0.2620   20.0330 C   0  0  0  0  0  0  0  0  0  0  0  0
    5.3520    0.9840   20.2790 C   0  0  0  0  0  0  0  0  0  0  0  0
    4.6510    1.4950   19.1900 C   0  0  0  0  0  0  0  0  0  0  0  0
    5.1430    1.2560   17.9130 C   0  0  0  0  0  0  0  0  0  0  0  0
    6.2490    0.5520   17.6730 N   0  0  0  0  0  0  0  0  0  0  0  0
    6.9090    0.0670   18.7330 C   0  0  0  0  0  0  0  0  0  0  0  0
    9.9200   -0.3100   23.2090 C   0  0  0  0  0  0  0  0  0  0  0  0
    9.3310   -1.4040   22.6750 N   0  0  0  0  0  0  0  0  0  0  0  0
    9.9490   -2.4230   21.9110 C   0  0  0  0  0  0  0  0  0  0  0  0
   11.3290   -2.2520   21.7110 C   0  0  0  0  0  0  0  0  0  0  0  0
   11.9380   -1.0330   22.3350 C   0  0  0  0  0  0  0  0  0  0  0  0
   13.2450   -0.9240   22.1270 C   0  0  0  0  0  0  0  0  0  0  0  0
   13.9420   -1.8110   22.8310 F   0  0  0  0  0  0  0  0  0  0  0  0
   13.6890   -1.1460   20.8880 F   0  0  0  0  0  0  0  0  0  0  0  0
   13.6770    0.2900   22.5290 F   0  0  0  0  0  0  0  0  0  0  0  0
   11.3210   -0.1010   23.0400 N   0  0  0  0  0  0  0  0  0  0  0  0
  1  2  1  0
  2  3  1  0
  2  4  1  0
  4  5  1  0
  5  6  2  0
  5  7  1  0
  7  8  1  0
  8  9  2  0
  9 10  1  0
 10 11  2  0
 11 12  1  0
  8 13  1  0
 12 13  2  0
  2 14  1  0
 14 15  2  0
 15 16  1  0
 16 17  2  0
 17 18  1  0
 18 19  1  0
 19 20  1  0
 19 21  1  0
 19 22  1  0
 14 23  1  0
 18 23  2  0
M  END
