pyridine_urea_12965
     RDKit          3D

 19 21  0  0  0  0  0  0  0  0999 V2000
   11.5400   -2.3690   21.8720 C   0  0  0  0  0  0  0  0  0  0  0  0
   11.5510   -1.1680   22.8190 C   0  0  2  0  0  0  0  0  0  0  0  0
   10.3330   -0.3160   22.4600 C   0  0  0  0  0  0  0  0  0  0  0  0
    9.2240   -1.0520   21.9170 N   0  0  0  0  0  0  0  0  0  0  0  0
    8.3320   -0.1720   21.3730 C   0  0  0  0  0  0  0  0  0  0  0  0
    8.6280    1.0090   21.2170 O   0  0  0  0  0  0  0  0  0  0  0  0
    7.1300   -0.7010   21.0070 N   0  0  0  0  0  0  0  0  0  0  0  0
    6.4310   -0.0440   19.9960 C   0  0  0  0  0  0  0  0  0  0  0  0
    5.2510    0.6450   20.3020 C   0  0  0  0  0  0  0  0  0  0  0  0
    4.5810    1.3190   19.2830 C   0  0  0  0  0  0  0  0  0  0  0  0
    5.1240    1.2670   18.0080 C   0  0  0  0  0  0  0  0  0  0  0  0
    6.2430    0.6070   17.6940 N   0  0  0  0  0  0  0  0  0  0  0  0
    6.8730   -0.0330   18.6940 C   0  0  0  0  0  0  0  0  0  0  0  0
   12.7630   -0.4750   22.6390 C   0  0  0  0  0  0  0  0  0  0  0  0
   12.6480    0.2230   23.8000 C   0  0  1  0  0  0  0  0  0  0  0  0
   11.2860    0.7050   24.1080 C   0  0  0  0  0  0  0  0  0  0  0  0
   10.5950   -0.3160   24.7060 C   0  0  0  0  0  0  0  0  0  0  0  0
   11.5130   -1.3120   24.2190 C   0  0  2  0  0  0  0  0  0  0  0  0
   12.7240   -0.8500   24.6530 C   0  0  0  0  0  0  0  0  0  0  0  0
  2  1  1  6
  2  3  1  0
  3  4  1  0
  4  5  1  0
  5  6  2  0
  5  7  1  0
  7  8  1  0
  8  9  2  0
  9 10  1  0
 10 11  2  0
 11 12  1  0
  8 13  1  0
 12 13  2  0
  2 14  1  0
 15 14  1  6
 15 16  1  0
 16 17  1  0
  2 18  1  0
 18 17  1  1
 15 19  1  0
 18 19  1  0
M  END
