pyridine_urea_1681
     RDKit          3D

 18 19  0  0  0  0  0  0  0  0999 V2000
   10.8320    1.0790   22.6500 C   0  0  0  0  0  0  0  0  0  0  0  0
   10.4590   -0.3500   22.8830 C   0  0  2  0  0  0  0  0  0  0  0  0
    9.0530   -0.5990   22.5950 N   0  0  0  0  0  0  0  0  0  0  0  0
    8.4480    0.1350   21.5950 C   0  0  0  0  0  0  0  0  0  0  0  0
    8.9090    1.2160   21.2010 O   0  0  0  0  0  0  0  0  0  0  0  0
    7.2980   -0.4420   21.1210 N   0  0  0  0  0  0  0  0  0  0  0  0
    6.5730    0.1140   20.0680 C   0  0  0  0  0  0  0  0  0  0  0  0
    5.4240    0.8370   20.3260 C   0  0  0  0  0  0  0  0  0  0  0  0
    4.7050    1.4160   19.3060 C   0  0  0  0  0  0  0  0  0  0  0  0
    5.1420    1.2690   18.0120 C   0  0  0  0  0  0  0  0  0  0  0  0
    6.2430    0.5710   17.6980 N   0  0  0  0  0  0  0  0  0  0  0  0
    6.9310    0.0090   18.7280 C   0  0  0  0  0  0  0  0  0  0  0  0
   10.7680   -0.5780   24.3120 C   0  0  0  0  0  0  0  0  0  0  0  0
   12.0520   -0.0930   24.5380 C   0  0  0  0  0  0  0  0  0  0  0  0
   12.9720   -0.4590   23.5450 C   0  0  2  0  0  0  0  0  0  0  0  0
   13.5020    0.5900   22.8880 O   0  0  0  0  0  0  0  0  0  0  0  0
   12.5590   -1.3120   22.5280 C   0  0  0  0  0  0  0  0  0  0  0  0
   11.2130   -1.3330   22.2620 C   0  0  0  0  0  0  0  0  0  0  0  0
  2  1  1  6
  2  3  1  0
  3  4  1  0
  4  5  2  0
  4  6  1  0
  6  7  1  0
  7  8  2  0
  8  9  1  0
  9 10  2  0
 10 11  1  0
  7 12  1  0
 11 12  2  0
  2 13  1  0
 13 14  1  0
 14 15  1  0
 15 16  1  6
 15 17  1  0
  2 18  1  0
 17 18  1  0
M  END
