pyridine_urea_5015
     RDKit          3D

 20 20  0  0  0  0  0  0  0  0999 V2000
    9.9030    6.1940   22.7390 C   0  0  0  0  0  0  0  0  0  0  0  0
   11.2660    5.2530   23.4030 S   0  0  0  0  0  0  0  0  0  0  0  0
   11.8640    6.1600   24.8820 C   0  0  0  0  0  0  0  0  0  0  0  0
   12.3130    5.0940   22.4100 O   0  0  0  0  0  0  0  0  0  0  0  0
   10.7190    3.7410   23.9710 N   0  0  0  0  0  0  0  0  0  0  0  0
   10.9010    2.5580   22.9840 S   0  0  0  0  0  0  0  0  0  0  0  0
   12.2730    2.2170   22.6200 O   0  0  0  0  0  0  0  0  0  0  0  0
    9.9560    2.6250   21.8850 O   0  0  0  0  0  0  0  0  0  0  0  0
   10.3790    1.0520   23.8370 C   0  0  0  0  0  0  0  0  0  0  0  0
   10.4280   -0.1200   23.0570 C   0  0  0  0  0  0  0  0  0  0  0  0
    9.1160   -0.5950   22.5800 N   0  0  0  0  0  0  0  0  0  0  0  0
    8.4910    0.0880   21.5610 C   0  0  0  0  0  0  0  0  0  0  0  0
    8.9170    1.1750   21.1720 O   0  0  0  0  0  0  0  0  0  0  0  0
    7.3760   -0.5530   21.0720 N   0  0  0  0  0  0  0  0  0  0  0  0
    6.6180    0.0480   20.0640 C   0  0  0  0  0  0  0  0  0  0  0  0
    5.4620    0.7510   20.3610 C   0  0  0  0  0  0  0  0  0  0  0  0
    4.6700    1.4190   19.2550 C   0  0  0  0  0  0  0  0  0  0  0  0
    5.1270    1.3080   17.9590 C   0  0  0  0  0  0  0  0  0  0  0  0
    6.2470    0.6090   17.6850 N   0  0  0  0  0  0  0  0  0  0  0  0
    6.9290    0.0230   18.7120 C   0  0  0  0  0  0  0  0  0  0  0  0
  2  1  1  0
  2  3  1  0
  2  4  2  0
  2  5  2  0
  6  5  1  0
  6  7  2  0
  6  8  2  0
  6  9  1  0
  9 10  1  0
 10 11  1  0
 11 12  1  0
 12 13  2  0
 12 14  1  0
 14 15  1  0
 15 16  2  0
 16 17  1  0
 17 18  2  0
 18 19  1  0
 15 20  1  0
 19 20  2  0
M  END
