pyridine_urea_9098
     RDKit          3D

 19 20  0  0  0  0  0  0  0  0999 V2000
    7.4360    2.2820   21.5330 C   0  0  0  0  0  0  0  0  0  0  0  0
    8.2640    1.8350   22.7620 C   0  0  0  0  0  0  0  0  0  0  0  0
    8.6130    0.3320   22.6360 C   0  0  1  0  0  0  0  0  0  0  0  0
    9.6180    0.1050   21.7260 C   0  0  0  0  0  0  0  0  0  0  0  0
   10.6920   -0.7490   21.9160 C   0  0  0  0  0  0  0  0  0  0  0  0
   10.7140   -1.5100   22.9740 C   0  0  0  0  0  0  0  0  0  0  0  0
    9.7510   -1.2910   23.9770 C   0  0  0  0  0  0  0  0  0  0  0  0
    8.6380   -0.5220   23.7480 C   0  0  2  0  0  0  0  0  0  0  0  0
    7.6580   -1.4180   23.7040 C   0  0  0  0  0  0  0  0  0  0  0  0
    7.8530   -2.0550   22.4270 N   0  0  0  0  0  0  0  0  0  0  0  0
    7.7760   -1.2560   21.3120 C   0  0  0  0  0  0  0  0  0  0  0  0
    8.7410   -0.7990   20.7530 O   0  0  0  0  0  0  0  0  0  0  0  0
    6.4800   -1.0510   20.9530 N   0  0  0  0  0  0  0  0  0  0  0  0
    6.0940   -0.2180   19.9050 C   0  0  0  0  0  0  0  0  0  0  0  0
    4.8800    0.6400   20.0580 C   0  0  0  0  0  0  0  0  0  0  0  0
    4.4360    1.4860   19.0700 C   0  0  0  0  0  0  0  0  0  0  0  0
    5.2420    1.4570   17.9000 C   0  0  0  0  0  0  0  0  0  0  0  0
    6.3450    0.7030   17.7040 N   0  0  0  0  0  0  0  0  0  0  0  0
    6.7510   -0.1130   18.7030 C   0  0  0  0  0  0  0  0  0  0  0  0
  1  2  1  0
  3  2  1  1
  3  4  1  0
  4  5  1  0
  5  6  1  0
  6  7  1  0
  3  8  1  0
  7  8  1  0
  8  9  1  6
  9 10  1  0
 10 11  1  0
 11 12  2  0
 11 13  1  0
 13 14  1  0
 14 15  2  0
 15 16  1  0
 16 17  2  0
 17 18  1  0
 14 19  1  0
 18 19  2  0
M  END
