pyridine_urea_9162
     RDKit          3D

 19 20  0  0  0  0  0  0  0  0999 V2000
    9.4280    1.5920   24.0740 C   0  0  0  0  0  0  0  0  0  0  0  0
   10.1410    0.2290   24.2460 C   0  0  0  0  0  0  0  0  0  0  0  0
    9.9560   -0.3030   25.6750 C   0  0  0  0  0  0  0  0  0  0  0  0
    9.5540   -0.8230   23.2790 C   0  0  0  0  0  0  0  0  0  0  0  0
    8.2710   -0.4590   22.7770 N   0  0  0  0  0  0  0  0  0  0  0  0
    8.1620    0.1370   21.5540 C   0  0  0  0  0  0  0  0  0  0  0  0
    8.8570    1.0950   21.1760 O   0  0  0  0  0  0  0  0  0  0  0  0
    7.1690   -0.4920   20.8700 N   0  0  0  0  0  0  0  0  0  0  0  0
    6.4030    0.1630   19.9290 C   0  0  0  0  0  0  0  0  0  0  0  0
    5.2140    0.8410   20.1690 C   0  0  0  0  0  0  0  0  0  0  0  0
    4.5690    1.4730   19.1090 C   0  0  0  0  0  0  0  0  0  0  0  0
    5.1440    1.3960   17.8580 C   0  0  0  0  0  0  0  0  0  0  0  0
    6.2830    0.7330   17.6130 N   0  0  0  0  0  0  0  0  0  0  0  0
    6.8760    0.1390   18.6470 C   0  0  0  0  0  0  0  0  0  0  0  0
   11.6050    0.4200   23.8110 C   0  0  0  0  0  0  0  0  0  0  0  0
   12.9490    0.1240   23.0270 C   0  0  0  0  0  0  0  0  0  0  0  0
   13.2580   -0.8560   22.1060 C   0  0  0  0  0  0  0  0  0  0  0  0
   12.0900   -1.3540   22.1730 C   0  0  0  0  0  0  0  0  0  0  0  0
   10.7180   -0.9720   23.0330 S   0  0  0  0  0  0  0  0  0  0  0  0
  2  1  1  0
  2  3  1  0
  2  4  1  0
  4  5  1  0
  5  6  1  0
  6  7  2  0
  6  8  1  0
  8  9  1  0
  9 10  2  0
 10 11  1  0
 11 12  2  0
 12 13  1  0
  9 14  1  0
 13 14  2  0
  2 15  1  0
 15 16  2  0
 16 17  1  0
 17 18  2  0
 15 19  1  0
 18 19  1  0
M  END
