pyridine_urea_12854
     RDKit          3D

 19 20  0  0  0  0  0  0  0  0999 V2000
   12.3980    1.8610   23.1180 C   0  0  0  0  0  0  0  0  0  0  0  0
   12.2520    0.6830   23.7970 N   0  0  0  0  0  0  0  0  0  0  0  0
   11.0380    0.4910   24.5370 C   0  0  0  0  0  0  0  0  0  0  0  0
   10.0480   -0.2370   23.6830 C   0  0  0  0  0  0  0  0  0  0  0  0
   10.5740   -0.6350   22.4900 C   0  0  2  0  0  0  0  0  0  0  0  0
    9.4480   -1.1450   21.9040 N   0  0  0  0  0  0  0  0  0  0  0  0
    8.4890   -0.2420   21.4070 C   0  0  0  0  0  0  0  0  0  0  0  0
    8.7230    0.9520   21.2760 O   0  0  0  0  0  0  0  0  0  0  0  0
    7.2840   -0.7910   21.0640 N   0  0  0  0  0  0  0  0  0  0  0  0
    6.5940   -0.1150   19.9960 C   0  0  0  0  0  0  0  0  0  0  0  0
    5.4500    0.6020   20.3570 C   0  0  0  0  0  0  0  0  0  0  0  0
    4.7080    1.3220   19.3980 C   0  0  0  0  0  0  0  0  0  0  0  0
    5.0900    1.3470   18.0570 C   0  0  0  0  0  0  0  0  0  0  0  0
    6.2650    0.5880   17.7260 N   0  0  0  0  0  0  0  0  0  0  0  0
    6.9690   -0.1060   18.6880 C   0  0  0  0  0  0  0  0  0  0  0  0
   11.7970   -1.3510   22.5750 C   0  0  0  0  0  0  0  0  0  0  0  0
   12.5130   -2.0160   21.4350 C   0  0  0  0  0  0  0  0  0  0  0  0
   11.6670   -2.3510   23.5520 C   0  0  0  0  0  0  0  0  0  0  0  0
   12.8520   -0.3650   23.1080 C   0  0  0  0  0  0  0  0  0  0  0  0
  1  2  1  0
  2  3  1  0
  3  4  1  0
  4  5  1  0
  5  6  1  1
  6  7  1  0
  7  8  2  0
  7  9  1  0
  9 10  1  0
 10 11  2  0
 11 12  1  0
 12 13  2  0
 13 14  1  0
 10 15  1  0
 14 15  2  0
  5 16  1  0
 16 17  1  0
 16 18  1  0
  2 19  1  0
 16 19  1  0
M  END
