pyridine_urea_11480
     RDKit          3D

 25 26  0  0  0  0  0  0  0  0999 V2000
   11.7170    1.7060   22.8170 C   0  0  0  0  0  0  0  0  0  0  0  0
   11.0040    0.4570   23.2600 C   0  0  0  0  0  0  0  0  0  0  0  0
    9.5970    0.3740   23.1240 N   0  0  0  0  0  0  0  0  0  0  0  0
    9.2430   -0.8680   23.5860 C   0  0  0  0  0  0  0  0  0  0  0  0
    7.9780   -1.3550   23.5820 C   0  0  1  0  0  0  0  0  0  0  0  0
    7.0270   -0.3780   23.8160 C   0  0  0  0  0  0  0  0  0  0  0  0
    8.0180   -1.8550   22.3090 N   0  0  0  0  0  0  0  0  0  0  0  0
    7.9040   -0.8110   21.4620 C   0  0  0  0  0  0  0  0  0  0  0  0
    8.7860    0.0130   21.2150 O   0  0  0  0  0  0  0  0  0  0  0  0
    6.6410   -0.8390   20.9550 N   0  0  0  0  0  0  0  0  0  0  0  0
    6.1520   -0.0420   19.8750 C   0  0  0  0  0  0  0  0  0  0  0  0
    4.8800    0.7610   20.0990 C   0  0  0  0  0  0  0  0  0  0  0  0
    4.4580    1.5120   19.0270 C   0  0  0  0  0  0  0  0  0  0  0  0
    5.2010    1.4900   17.8420 C   0  0  0  0  0  0  0  0  0  0  0  0
    6.3330    0.7690   17.6540 N   0  0  0  0  0  0  0  0  0  0  0  0
    6.7920    0.0150   18.6680 C   0  0  0  0  0  0  0  0  0  0  0  0
   10.4760   -1.8980   24.1910 S   0  0  0  0  0  0  0  0  0  0  0  0
   11.5830   -0.6590   23.8050 C   0  0  0  0  0  0  0  0  0  0  0  0
   12.8760   -0.8580   24.0280 C   0  0  0  0  0  0  0  0  0  0  0  0
   13.3740   -1.2660   25.2220 O   0  0  0  0  0  0  0  0  0  0  0  0
   13.4910   -0.6290   22.8040 O   0  0  0  0  0  0  0  0  0  0  0  0
   13.1490   -1.7320   22.1130 C   0  0  0  0  0  0  0  0  0  0  0  0
   13.4140   -2.9040   22.9950 C   0  0  0  0  0  0  0  0  0  0  0  0
   13.4560   -1.8400   20.7980 C   0  0  0  0  0  0  0  0  0  0  0  0
   11.6340   -1.8190   22.0630 C   0  0  0  0  0  0  0  0  0  0  0  0
  1  2  1  0
  2  3  1  0
  3  4  2  0
  4  5  1  0
  5  6  1  6
  5  7  1  0
  7  8  1  0
  8  9  2  0
  8 10  1  0
 10 11  1  0
 11 12  2  0
 12 13  1  0
 13 14  2  0
 14 15  1  0
 11 16  1  0
 15 16  2  0
  4 17  1  0
  2 18  2  0
 17 18  1  0
 18 19  1  0
 19 20  2  0
 19 21  1  0
 22 21  1  0
 22 23  1  0
 22 24  1  0
 22 25  1  0
M  END
