pyridine_urea_8153
     RDKit          3D

 24 26  0  0  0  0  0  0  0  0999 V2000
    8.2720    0.8300   20.8460 O   0  0  0  0  0  0  0  0  0  0  0  0
    7.7790   -0.2950   20.8260 C   0  0  0  0  0  0  0  0  0  0  0  0
    6.4580   -0.5150   20.8550 N   0  0  0  0  0  0  0  0  0  0  0  0
    5.9320    0.2200   19.7980 C   0  0  0  0  0  0  0  0  0  0  0  0
    4.6230    1.0100   19.9870 C   0  0  0  0  0  0  0  0  0  0  0  0
    4.2070    1.7230   18.8940 C   0  0  0  0  0  0  0  0  0  0  0  0
    5.0910    1.6400   17.6390 C   0  0  0  0  0  0  0  0  0  0  0  0
    6.2270    0.9150   17.5380 N   0  0  0  0  0  0  0  0  0  0  0  0
    6.6130    0.2320   18.6110 C   0  0  0  0  0  0  0  0  0  0  0  0
    8.4360   -1.4420   20.8050 N   0  0  0  0  0  0  0  0  0  0  0  0
    9.1010   -1.2640   21.9630 C   0  0  0  0  0  0  0  0  0  0  0  0
   10.2600   -0.4630   21.7380 C   0  0  0  0  0  0  0  0  0  0  0  0
   11.1270   -0.0810   22.8290 C   0  0  0  0  0  0  0  0  0  0  0  0
   10.5620   -0.6600   24.0530 C   0  0  0  0  0  0  0  0  0  0  0  0
    9.2660   -1.5420   24.0930 C   0  0  0  0  0  0  0  0  0  0  0  0
    8.6370   -2.2450   25.3370 C   0  0  0  0  0  0  0  0  0  0  0  0
    7.3320   -2.0360   25.6140 N   0  0  0  0  0  0  0  0  0  0  0  0
    6.4820   -2.1020   24.5600 C   0  0  0  0  0  0  0  0  0  0  0  0
    5.6550   -3.2030   24.3820 C   0  0  0  0  0  0  0  0  0  0  0  0
    5.7560   -4.1910   25.3340 C   0  0  0  0  0  0  0  0  0  0  0  0
    6.3120   -3.8800   26.5540 C   0  0  0  0  0  0  0  0  0  0  0  0
    6.7440   -2.5430   26.7570 C   0  0  0  0  0  0  0  0  0  0  0  0
    6.5710   -1.9830   27.8360 O   0  0  0  0  0  0  0  0  0  0  0  0
    8.6290   -1.7720   23.0290 C   0  0  0  0  0  0  0  0  0  0  0  0
  1  2  2  0
  2  3  1  0
  3  4  1  0
  4  5  2  0
  5  6  1  0
  6  7  2  0
  7  8  1  0
  4  9  1  0
  8  9  2  0
  2 10  1  0
 10 11  1  0
 11 12  2  0
 12 13  1  0
 13 14  2  0
 14 15  1  0
 15 16  1  0
 16 17  1  0
 17 18  1  0
 18 19  2  0
 19 20  1  0
 20 21  2  0
 17 22  1  0
 21 22  1  0
 22 23  2  0
 11 24  1  0
 15 24  2  0
M  END
