pyridine_urea_10755
     RDKit          3D

 20 21  0  0  0  0  0  0  0  0999 V2000
    9.9660    1.1080   24.2620 C   0  0  0  0  0  0  0  0  0  0  0  0
   10.8570   -0.0280   23.8310 C   0  0  0  0  0  0  0  0  0  0  0  0
   10.9240   -1.0090   24.8370 C   0  0  0  0  0  0  0  0  0  0  0  0
   10.0580   -0.6620   22.6620 C   0  0  0  0  0  0  0  0  0  0  0  0
    8.7480   -0.5590   22.7580 N   0  0  0  0  0  0  0  0  0  0  0  0
    8.3380    0.0880   21.6080 C   0  0  0  0  0  0  0  0  0  0  0  0
    8.8540    1.1340   21.1830 O   0  0  0  0  0  0  0  0  0  0  0  0
    7.2990   -0.5900   21.0700 N   0  0  0  0  0  0  0  0  0  0  0  0
    6.6290    0.0220   20.0630 C   0  0  0  0  0  0  0  0  0  0  0  0
    5.4090    0.8210   20.4400 C   0  0  0  0  0  0  0  0  0  0  0  0
    4.7010    1.4900   19.2990 C   0  0  0  0  0  0  0  0  0  0  0  0
    5.2050    1.3260   18.0320 C   0  0  0  0  0  0  0  0  0  0  0  0
    6.2680    0.6300   17.6430 N   0  0  0  0  0  0  0  0  0  0  0  0
    6.9470   -0.0080   18.7190 C   0  0  0  0  0  0  0  0  0  0  0  0
   12.1110    0.2280   23.2510 C   0  0  0  0  0  0  0  0  0  0  0  0
   12.7540    1.3510   23.1750 C   0  0  0  0  0  0  0  0  0  0  0  0
   12.9070    0.0620   22.8060 C   0  0  0  0  0  0  0  0  0  0  0  0
   11.7090   -0.7670   23.2180 C   0  0  0  0  0  0  0  0  0  0  0  0
   12.3870   -1.6320   22.6880 N   0  0  0  0  0  0  0  0  0  0  0  0
   13.1550   -0.6510   22.5220 C   0  0  0  0  0  0  0  0  0  0  0  0
  2  1  1  0
  2  3  1  0
  2  4  1  0
  4  5  1  0
  5  6  1  0
  6  7  2  0
  6  8  1  0
  8  9  1  0
  9 10  2  0
 10 11  1  0
 11 12  2  0
 12 13  1  0
  9 14  1  0
 13 14  2  0
  2 15  1  0
 15 16  2  0
 16 17  1  0
 17 18  2  0
 18 19  1  0
 15 20  1  0
 19 20  2  0
M  END
