pyridine_urea_14570
     RDKit          3D

 21 22  0  0  0  0  0  0  0  0999 V2000
   13.3010   -1.3100   21.8380 C   0  0  0  0  0  0  0  0  0  0  0  0
   13.0490   -0.4040   22.6240 O   0  0  0  0  0  0  0  0  0  0  0  0
   11.8530   -0.6170   23.2120 C   0  0  0  0  0  0  0  0  0  0  0  0
   11.6590   -0.0680   24.5480 C   0  0  0  0  0  0  0  0  0  0  0  0
   10.4350   -0.2670   25.2310 C   0  0  0  0  0  0  0  0  0  0  0  0
    9.8690    0.0620   26.4610 C   0  0  0  0  0  0  0  0  0  0  0  0
    8.4800    0.1650   26.6000 N   0  0  0  0  0  0  0  0  0  0  0  0
    9.8130   -0.9330   24.3810 C   0  0  0  0  0  0  0  0  0  0  0  0
    9.9020   -1.5070   23.0900 C   0  0  0  0  0  0  0  0  0  0  0  0
   11.0100   -1.4170   22.2820 C   0  0  0  0  0  0  0  0  0  0  0  0
    9.9700   -2.1100   21.7570 C   0  0  0  0  0  0  0  0  0  0  0  0
    9.0950   -1.2710   20.9820 N   0  0  0  0  0  0  0  0  0  0  0  0
    8.3810   -0.1630   21.4190 C   0  0  0  0  0  0  0  0  0  0  0  0
    8.9140    0.8740   21.7730 O   0  0  0  0  0  0  0  0  0  0  0  0
    7.0640   -0.4200   21.3320 N   0  0  0  0  0  0  0  0  0  0  0  0
    6.4600    0.1470   20.1350 C   0  0  0  0  0  0  0  0  0  0  0  0
    5.2150    0.9610   20.2960 C   0  0  0  0  0  0  0  0  0  0  0  0
    4.6230    1.5380   19.1450 C   0  0  0  0  0  0  0  0  0  0  0  0
    5.2040    1.3440   17.8870 C   0  0  0  0  0  0  0  0  0  0  0  0
    6.3280    0.5900   17.7950 N   0  0  0  0  0  0  0  0  0  0  0  0
    6.9620   -0.0100   18.8650 C   0  0  0  0  0  0  0  0  0  0  0  0
  1  2  1  0
  2  3  1  0
  3  4  2  0
  4  5  1  0
  5  6  1  0
  6  7  3  0
  5  8  2  0
  8  9  1  0
  3 10  1  0
  9 10  2  0
 10 11  1  0
 11 12  1  0
 12 13  1  0
 13 14  2  0
 13 15  1  0
 15 16  1  0
 16 17  2  0
 17 18  1  0
 18 19  2  0
 19 20  1  0
 16 21  1  0
 20 21  2  0
M  END
