pyridine_urea_11969
     RDKit          3D

 24 26  0  0  0  0  0  0  0  0999 V2000
    8.7350    1.6590   21.0400 O   0  0  0  0  0  0  0  0  0  0  0  0
    8.2350    0.6440   21.4980 C   0  0  0  0  0  0  0  0  0  0  0  0
    8.6270   -0.0070   22.5740 N   0  0  0  0  0  0  0  0  0  0  0  0
    9.1180   -1.2620   22.4500 C   0  0  0  0  0  0  0  0  0  0  0  0
   10.2080   -1.4520   23.2080 C   0  0  0  0  0  0  0  0  0  0  0  0
   10.1800   -1.0960   24.5070 N   0  0  0  0  0  0  0  0  0  0  0  0
   11.3800   -1.4380   25.0150 N   0  0  0  0  0  0  0  0  0  0  0  0
   12.0360   -1.9400   24.0660 C   0  0  0  0  0  0  0  0  0  0  0  0
   13.2660   -2.4570   24.1190 C   0  0  0  0  0  0  0  0  0  0  0  0
   13.7480   -3.0790   23.0010 C   0  0  0  0  0  0  0  0  0  0  0  0
   13.0400   -3.1720   21.7660 C   0  0  0  0  0  0  0  0  0  0  0  0
   13.4730   -3.9890   20.5430 C   0  0  0  0  0  0  0  0  0  0  0  0
   14.4270   -3.4280   19.9150 F   0  0  0  0  0  0  0  0  0  0  0  0
   12.4310   -4.2090   19.7060 F   0  0  0  0  0  0  0  0  0  0  0  0
   13.9920   -5.2210   20.7080 F   0  0  0  0  0  0  0  0  0  0  0  0
   11.8720   -2.5050   21.8020 C   0  0  0  0  0  0  0  0  0  0  0  0
   11.3850   -1.9800   22.9040 N   0  0  0  0  0  0  0  0  0  0  0  0
    7.1640   -0.0560   21.0000 N   0  0  0  0  0  0  0  0  0  0  0  0
    6.4210    0.4510   19.8930 C   0  0  0  0  0  0  0  0  0  0  0  0
    5.2940    1.1550   20.1980 C   0  0  0  0  0  0  0  0  0  0  0  0
    4.6180    1.6620   19.1260 C   0  0  0  0  0  0  0  0  0  0  0  0
    5.1200    1.4240   17.8460 C   0  0  0  0  0  0  0  0  0  0  0  0
    6.2440    0.7030   17.5430 N   0  0  0  0  0  0  0  0  0  0  0  0
    6.8270    0.2580   18.6100 C   0  0  0  0  0  0  0  0  0  0  0  0
  1  2  2  0
  2  3  1  0
  3  4  1  0
  4  5  1  0
  5  6  2  0
  6  7  1  0
  7  8  2  0
  8  9  1  0
  9 10  2  0
 10 11  1  0
 11 12  1  0
 12 13  1  0
 12 14  1  0
 12 15  1  0
 11 16  2  0
  5 17  1  0
  8 17  1  0
 16 17  1  0
  2 18  1  0
 18 19  1  0
 19 20  2  0
 20 21  1  0
 21 22  2  0
 22 23  1  0
 19 24  1  0
 23 24  2  0
M  END
