pyridine_urea_6346
     RDKit          3D

 23 25  0  0  0  0  0  0  0  0999 V2000
    8.6790    0.8240   21.1320 O   0  0  0  0  0  0  0  0  0  0  0  0
    8.3480   -0.2890   21.5120 C   0  0  0  0  0  0  0  0  0  0  0  0
    7.1490   -0.8400   21.1230 N   0  0  0  0  0  0  0  0  0  0  0  0
    6.4980   -0.1380   20.0280 C   0  0  0  0  0  0  0  0  0  0  0  0
    5.1900    0.5840   20.3500 C   0  0  0  0  0  0  0  0  0  0  0  0
    4.5730    1.3020   19.1950 C   0  0  0  0  0  0  0  0  0  0  0  0
    5.2100    1.2620   17.9680 C   0  0  0  0  0  0  0  0  0  0  0  0
    6.3630    0.6040   17.7380 N   0  0  0  0  0  0  0  0  0  0  0  0
    6.9700   -0.0670   18.7400 C   0  0  0  0  0  0  0  0  0  0  0  0
    9.1350   -1.0660   22.3440 N   0  0  0  0  0  0  0  0  0  0  0  0
   10.5070   -0.5460   22.5600 C   0  0  0  0  0  0  0  0  0  0  0  0
   11.6050   -1.3480   22.5240 C   0  0  0  0  0  0  0  0  0  0  0  0
   12.8460   -0.4960   22.7590 C   0  0  0  0  0  0  0  0  0  0  0  0
   12.9200    0.8720   22.9680 C   0  0  0  0  0  0  0  0  0  0  0  0
   11.7810    1.6280   22.9920 C   0  0  0  0  0  0  0  0  0  0  0  0
   11.7830    3.0240   23.1800 C   0  0  0  0  0  0  0  0  0  0  0  0
   10.4300    3.5710   23.7490 C   0  0  0  0  0  0  0  0  0  0  0  0
   10.7460    5.0450   23.8370 C   0  0  0  0  0  0  0  0  0  0  0  0
   11.8200    5.7440   23.5380 N   0  0  0  0  0  0  0  0  0  0  0  0
   12.8960    5.0090   23.0430 C   0  0  0  0  0  0  0  0  0  0  0  0
   13.0100    3.6550   22.8160 C   0  0  0  0  0  0  0  0  0  0  0  0
   10.5970    0.9610   22.8030 C   0  0  0  0  0  0  0  0  0  0  0  0
    9.4320    1.6580   22.8210 F   0  0  0  0  0  0  0  0  0  0  0  0
  1  2  2  0
  2  3  1  0
  3  4  1  0
  4  5  2  0
  5  6  1  0
  6  7  2  0
  7  8  1  0
  4  9  1  0
  8  9  2  0
  2 10  1  0
 10 11  1  0
 11 12  2  0
 12 13  1  0
 13 14  2  0
 14 15  1  0
 15 16  1  0
 16 17  2  0
 17 18  1  0
 18 19  2  0
 19 20  1  0
 16 21  1  0
 20 21  2  0
 11 22  1  0
 15 22  2  0
 22 23  1  0
M  END
