pyridine_urea_2701
     RDKit          3D

 23 25  0  0  0  0  0  0  0  0999 V2000
   12.6240   -2.4880   20.7860 C   0  0  0  0  0  0  0  0  0  0  0  0
   13.5170   -1.9070   21.6180 O   0  0  0  0  0  0  0  0  0  0  0  0
   13.4350   -2.6680   22.7730 C   0  0  0  0  0  0  0  0  0  0  0  0
   13.7600   -1.5930   23.7430 C   0  0  0  0  0  0  0  0  0  0  0  0
   12.6630   -1.1520   24.2670 N   0  0  0  0  0  0  0  0  0  0  0  0
   12.5850   -0.8950   25.5050 C   0  0  0  0  0  0  0  0  0  0  0  0
   11.1500   -0.4880   25.6430 C   0  0  0  0  0  0  0  0  0  0  0  0
   10.6440   -0.5390   24.4910 C   0  0  0  0  0  0  0  0  0  0  0  0
    9.3160   -0.2370   24.1300 C   0  0  0  0  0  0  0  0  0  0  0  0
    9.0720   -0.4270   22.7310 C   0  0  0  0  0  0  0  0  0  0  0  0
    7.7850   -0.1410   22.4500 N   0  0  0  0  0  0  0  0  0  0  0  0
    7.7770    0.3080   21.2350 C   0  0  0  0  0  0  0  0  0  0  0  0
    8.4490    1.2680   20.8370 O   0  0  0  0  0  0  0  0  0  0  0  0
    6.9210   -0.4600   20.5590 N   0  0  0  0  0  0  0  0  0  0  0  0
    6.1720    0.2240   19.6950 C   0  0  0  0  0  0  0  0  0  0  0  0
    4.8180    0.8230   19.9780 C   0  0  0  0  0  0  0  0  0  0  0  0
    4.2860    1.5730   18.7900 C   0  0  0  0  0  0  0  0  0  0  0  0
    5.0500    1.6230   17.6370 C   0  0  0  0  0  0  0  0  0  0  0  0
    6.2480    1.0400   17.4710 N   0  0  0  0  0  0  0  0  0  0  0  0
    6.7570    0.3750   18.4890 C   0  0  0  0  0  0  0  0  0  0  0  0
   10.0400   -0.8390   21.8420 C   0  0  0  0  0  0  0  0  0  0  0  0
   11.2930   -1.0960   22.2760 C   0  0  0  0  0  0  0  0  0  0  0  0
   11.5700   -0.9480   23.5960 C   0  0  0  0  0  0  0  0  0  0  0  0
  1  2  1  0
  2  3  1  0
  3  4  1  0
  4  5  1  0
  5  6  1  0
  6  7  2  0
  7  8  1  0
  8  9  1  0
  9 10  2  0
 10 11  1  0
 11 12  1  0
 12 13  2  0
 12 14  1  0
 14 15  1  0
 15 16  2  0
 16 17  1  0
 17 18  2  0
 18 19  1  0
 15 20  1  0
 19 20  2  0
 10 21  1  0
 21 22  2  0
  5 23  1  0
  8 23  2  0
 22 23  1  0
M  END
