pyridine_urea_698
     RDKit          3D

 24 26  0  0  0  0  0  0  0  0999 V2000
    8.6790    0.9310   21.1670 O   0  0  0  0  0  0  0  0  0  0  0  0
    8.3000   -0.1830   21.4860 C   0  0  0  0  0  0  0  0  0  0  0  0
    7.1350   -0.7430   21.0090 N   0  0  0  0  0  0  0  0  0  0  0  0
    6.3880   -0.0510   20.0470 C   0  0  0  0  0  0  0  0  0  0  0  0
    5.1830    0.6200   20.2620 C   0  0  0  0  0  0  0  0  0  0  0  0
    4.5610    1.2900   19.2010 C   0  0  0  0  0  0  0  0  0  0  0  0
    5.1750    1.2650   17.9640 C   0  0  0  0  0  0  0  0  0  0  0  0
    6.3280    0.6230   17.7310 N   0  0  0  0  0  0  0  0  0  0  0  0
    6.8980   -0.0140   18.7640 C   0  0  0  0  0  0  0  0  0  0  0  0
    9.0110   -0.9870   22.3480 N   0  0  0  0  0  0  0  0  0  0  0  0
   10.3290   -0.6430   22.6600 C   0  0  0  0  0  0  0  0  0  0  0  0
   11.3840   -1.3930   22.1420 C   0  0  0  0  0  0  0  0  0  0  0  0
   12.7050   -1.0400   22.4260 C   0  0  0  0  0  0  0  0  0  0  0  0
   12.9660    0.0560   23.2230 C   0  0  0  0  0  0  0  0  0  0  0  0
   11.9460    0.8140   23.7580 C   0  0  0  0  0  0  0  0  0  0  0  0
   10.5470    0.4760   23.4830 C   0  0  0  0  0  0  0  0  0  0  0  0
    9.6090    1.1200   23.9260 O   0  0  0  0  0  0  0  0  0  0  0  0
    9.6890    2.4960   23.8540 C   0  0  0  0  0  0  0  0  0  0  0  0
   10.7770    3.1320   23.2440 C   0  0  0  0  0  0  0  0  0  0  0  0
   10.8210    4.5210   23.1950 C   0  0  0  0  0  0  0  0  0  0  0  0
    9.7770    5.2540   23.7540 C   0  0  0  0  0  0  0  0  0  0  0  0
    9.8100    6.9870   23.7030 Cl  0  0  0  0  0  0  0  0  0  0  0  0
    8.6860    4.6330   24.3630 C   0  0  0  0  0  0  0  0  0  0  0  0
    8.6370    3.2510   24.4150 C   0  0  0  0  0  0  0  0  0  0  0  0
  1  2  2  0
  2  3  1  0
  3  4  1  0
  4  5  2  0
  5  6  1  0
  6  7  2  0
  7  8  1  0
  4  9  1  0
  8  9  2  0
  2 10  1  0
 10 11  1  0
 11 12  2  0
 12 13  1  0
 13 14  2  0
 14 15  1  0
 11 16  1  0
 15 16  2  0
 16 17  1  0
 17 18  1  0
 18 19  2  0
 19 20  1  0
 20 21  2  0
 21 22  1  0
 21 23  1  0
 18 24  1  0
 23 24  2  0
M  END
