pyridine_urea_639
     RDKit          3D

 24 26  0  0  0  0  0  0  0  0999 V2000
   12.3780    1.3290   23.5590 C   0  0  0  0  0  0  0  0  0  0  0  0
   13.0550    0.0560   23.1340 C   0  0  0  0  0  0  0  0  0  0  0  0
   12.0150   -0.4230   22.9880 C   0  0  0  0  0  0  0  0  0  0  0  0
   10.8010   -0.3650   23.0380 C   0  0  0  0  0  0  0  0  0  0  0  0
    9.7070    0.3600   23.3310 C   0  0  0  0  0  0  0  0  0  0  0  0
    8.5420   -0.2330   22.8850 N   0  0  0  0  0  0  0  0  0  0  0  0
    8.2310    0.2890   21.5560 C   0  0  0  0  0  0  0  0  0  0  0  0
    8.8380    1.2590   21.0880 O   0  0  0  0  0  0  0  0  0  0  0  0
    7.2160   -0.4070   20.9780 N   0  0  0  0  0  0  0  0  0  0  0  0
    6.4660    0.1810   20.0300 C   0  0  0  0  0  0  0  0  0  0  0  0
    5.2950    0.9100   20.2330 C   0  0  0  0  0  0  0  0  0  0  0  0
    4.6470    1.4890   19.1610 C   0  0  0  0  0  0  0  0  0  0  0  0
    5.1400    1.3540   17.8860 C   0  0  0  0  0  0  0  0  0  0  0  0
    6.2420    0.6640   17.5830 N   0  0  0  0  0  0  0  0  0  0  0  0
    6.8960    0.0740   18.7240 C   0  0  0  0  0  0  0  0  0  0  0  0
   11.0010   -1.5660   22.5890 C   0  0  0  0  0  0  0  0  0  0  0  0
   10.1110   -2.5610   22.2230 C   0  0  0  0  0  0  0  0  0  0  0  0
   12.5600   -1.4260   22.6340 N   0  0  0  0  0  0  0  0  0  0  0  0
   13.3420   -2.4750   22.2390 C   0  0  0  0  0  0  0  0  0  0  0  0
   14.1430   -3.3820   22.9170 C   0  0  0  0  0  0  0  0  0  0  0  0
   15.0400   -4.5260   21.9920 C   0  0  0  0  0  0  0  0  0  0  0  0
   15.0070   -4.6270   20.6370 C   0  0  0  0  0  0  0  0  0  0  0  0
   14.0940   -3.6100   20.2740 C   0  0  0  0  0  0  0  0  0  0  0  0
   13.3290   -2.6270   20.9260 C   0  0  0  0  0  0  0  0  0  0  0  0
  1  2  1  0
  2  3  2  0
  3  4  1  0
  4  5  1  0
  5  6  1  0
  6  7  1  0
  7  8  2  0
  7  9  1  0
  9 10  1  0
 10 11  2  0
 11 12  1  0
 12 13  2  0
 13 14  1  0
 10 15  1  0
 14 15  2  0
  4 16  2  0
 16 17  1  0
  2 18  1  0
 16 18  1  0
 18 19  1  0
 19 20  2  0
 20 21  1  0
 21 22  2  0
 22 23  1  0
 19 24  1  0
 23 24  2  0
M  END
