pyridine_urea_5768
     RDKit          3D

 25 27  0  0  0  0  0  0  0  0999 V2000
   12.4340   -2.7910   24.5660 C   0  0  0  0  0  0  0  0  0  0  0  0
   11.9340   -2.5850   23.1640 C   0  0  0  0  0  0  0  0  0  0  0  0
   10.8010   -3.0800   22.9950 O   0  0  0  0  0  0  0  0  0  0  0  0
    9.7270   -2.5680   23.6710 C   0  0  0  0  0  0  0  0  0  0  0  0
    8.5280   -3.3000   23.6430 C   0  0  0  0  0  0  0  0  0  0  0  0
    7.4210   -2.7800   24.3400 C   0  0  0  0  0  0  0  0  0  0  0  0
    7.4320   -1.4890   25.1170 C   0  0  0  0  0  0  0  0  0  0  0  0
    8.7360   -0.7050   25.1400 C   0  0  0  0  0  0  0  0  0  0  0  0
    9.8610   -1.3740   24.3430 C   0  0  0  0  0  0  0  0  0  0  0  0
   10.9210   -0.8190   24.2980 O   0  0  0  0  0  0  0  0  0  0  0  0
   11.1550   -0.5330   22.9720 C   0  0  2  0  0  0  0  0  0  0  0  0
   12.3740    0.0840   22.9720 C   0  0  0  0  0  0  0  0  0  0  0  0
   12.0400    1.2780   23.5610 C   0  0  0  0  0  0  0  0  0  0  0  0
   10.6420    1.3310   23.5870 C   0  0  0  0  0  0  0  0  0  0  0  0
   10.1940    0.4110   22.6510 C   0  0  2  0  0  0  0  0  0  0  0  0
    8.8090   -0.0060   22.8260 N   0  0  0  0  0  0  0  0  0  0  0  0
    8.1870   -0.4300   21.6540 C   0  0  0  0  0  0  0  0  0  0  0  0
    8.9120   -1.0590   20.7420 O   0  0  0  0  0  0  0  0  0  0  0  0
    6.8550   -0.1530   21.4930 N   0  0  0  0  0  0  0  0  0  0  0  0
    6.3160    0.3060   20.2730 C   0  0  0  0  0  0  0  0  0  0  0  0
    5.1410    1.0640   20.3250 C   0  0  0  0  0  0  0  0  0  0  0  0
    4.5910    1.5480   19.1330 C   0  0  0  0  0  0  0  0  0  0  0  0
    5.2450    1.2500   17.9430 C   0  0  0  0  0  0  0  0  0  0  0  0
    6.3620    0.5250   17.8450 N   0  0  0  0  0  0  0  0  0  0  0  0
    6.8730    0.0640   19.0130 C   0  0  0  0  0  0  0  0  0  0  0  0
  1  2  1  0
  2  3  1  0
  3  4  1  0
  4  5  2  0
  5  6  1  0
  6  7  2  0
  7  8  1  0
  4  9  1  0
  8  9  2  0
  9 10  1  0
 11 10  1  1
 11 12  1  0
 12 13  1  0
 13 14  1  0
 11 15  1  0
 14 15  1  0
 15 16  1  1
 16 17  1  0
 17 18  2  0
 17 19  1  0
 19 20  1  0
 20 21  2  0
 21 22  1  0
 22 23  2  0
 23 24  1  0
 20 25  1  0
 24 25  2  0
M  END
