pyridine_urea_4480
     RDKit          3D

 23 24  0  0  0  0  0  0  0  0999 V2000
   12.4000    1.5650   23.0380 C   0  0  0  0  0  0  0  0  0  0  0  0
   13.5190    0.7660   22.9550 N   0  0  0  0  0  0  0  0  0  0  0  0
   13.4390   -0.7560   22.7200 S   0  0  0  0  0  0  0  0  0  0  0  0
   13.7840   -1.3530   21.4430 O   0  0  0  0  0  0  0  0  0  0  0  0
   13.7920   -1.3880   23.9630 O   0  0  0  0  0  0  0  0  0  0  0  0
   11.7180   -0.9450   22.6870 C   0  0  0  0  0  0  0  0  0  0  0  0
   10.5290   -0.7320   23.6800 C   0  0  0  0  0  0  0  0  0  0  0  0
   10.7020   -0.2650   25.0640 C   0  0  0  0  0  0  0  0  0  0  0  0
   11.7820   -0.4890   24.0900 C   0  0  0  0  0  0  0  0  0  0  0  0
   10.5110   -0.9020   23.1550 C   0  0  0  0  0  0  0  0  0  0  0  0
    9.0880   -0.8440   23.6380 C   0  0  1  0  0  0  0  0  0  0  0  0
    8.6940    0.4870   23.6490 C   0  0  0  0  0  0  0  0  0  0  0  0
    8.3750   -1.5170   22.5530 N   0  0  0  0  0  0  0  0  0  0  0  0
    8.0410   -0.5470   21.5680 C   0  0  0  0  0  0  0  0  0  0  0  0
    8.6720    0.4660   21.2870 O   0  0  0  0  0  0  0  0  0  0  0  0
    6.8860   -0.9300   20.9910 N   0  0  0  0  0  0  0  0  0  0  0  0
    6.3040   -0.1420   20.0560 C   0  0  0  0  0  0  0  0  0  0  0  0
    5.1510    0.6180   20.2680 C   0  0  0  0  0  0  0  0  0  0  0  0
    4.6050    1.3950   19.2640 C   0  0  0  0  0  0  0  0  0  0  0  0
    5.3070    1.3760   17.9700 C   0  0  0  0  0  0  0  0  0  0  0  0
    6.4140    0.6540   17.7500 N   0  0  0  0  0  0  0  0  0  0  0  0
    6.8960   -0.0920   18.7840 C   0  0  0  0  0  0  0  0  0  0  0  0
   10.7890   -1.3840   21.7030 C   0  0  0  0  0  0  0  0  0  0  0  0
  1  2  1  0
  3  2  1  0
  3  4  2  0
  3  5  2  0
  3  6  1  0
  6  7  2  0
  7  8  1  0
  8  9  2  0
  9 10  1  0
 10 11  1  0
 11 12  1  6
 11 13  1  0
 13 14  1  0
 14 15  2  0
 14 16  1  0
 16 17  1  0
 17 18  2  0
 18 19  1  0
 19 20  2  0
 20 21  1  0
 17 22  1  0
 21 22  2  0
  6 23  1  0
 10 23  2  0
M  END
