pyridine_urea_5312
     RDKit          3D

 19 20  0  0  0  0  0  0  0  0999 V2000
   13.5220   -4.0950   20.4760 C   0  0  0  0  0  0  0  0  0  0  0  0
   13.1710   -3.0370   21.8390 S   0  0  0  0  0  0  0  0  0  0  0  0
   11.7520   -2.0980   21.3310 C   0  0  0  0  0  0  0  0  0  0  0  0
   11.6280   -1.0220   22.1610 C   0  0  0  0  0  0  0  0  0  0  0  0
   12.7980   -0.3960   22.5100 C   0  0  0  0  0  0  0  0  0  0  0  0
   12.7520    0.6960   23.3090 C   0  0  0  0  0  0  0  0  0  0  0  0
   11.4670    1.2660   23.8670 C   0  0  0  0  0  0  0  0  0  0  0  0
   10.2890    0.6670   23.5480 C   0  0  0  0  0  0  0  0  0  0  0  0
   10.4010   -0.5440   22.6310 C   0  0  0  0  0  0  0  0  0  0  0  0
    9.0540   -1.0990   22.2960 N   0  0  0  0  0  0  0  0  0  0  0  0
    8.2790   -0.2540   21.5420 C   0  0  0  0  0  0  0  0  0  0  0  0
    8.6380    0.9060   21.3450 O   0  0  0  0  0  0  0  0  0  0  0  0
    7.1190   -0.7720   21.0390 N   0  0  0  0  0  0  0  0  0  0  0  0
    6.4370   -0.1000   20.0180 C   0  0  0  0  0  0  0  0  0  0  0  0
    5.2520    0.5880   20.3030 C   0  0  0  0  0  0  0  0  0  0  0  0
    4.5980    1.2780   19.2680 C   0  0  0  0  0  0  0  0  0  0  0  0
    5.1480    1.2530   17.9960 C   0  0  0  0  0  0  0  0  0  0  0  0
    6.2750    0.5940   17.7120 N   0  0  0  0  0  0  0  0  0  0  0  0
    6.8930   -0.0670   18.7160 C   0  0  0  0  0  0  0  0  0  0  0  0
  1  2  1  0
  2  3  1  0
  3  4  1  0
  4  5  2  0
  5  6  1  0
  6  7  2  0
  7  8  1  0
  4  9  1  0
  8  9  2  0
  9 10  1  0
 10 11  1  0
 11 12  2  0
 11 13  1  0
 13 14  1  0
 14 15  2  0
 15 16  1  0
 16 17  2  0
 17 18  1  0
 14 19  1  0
 18 19  2  0
M  END
