pyridine_urea_5019
     RDKit          3D

 20 21  0  0  0  0  0  0  0  0999 V2000
   11.9800    4.3920   21.6560 C   0  0  0  0  0  0  0  0  0  0  0  0
   10.7950    3.3120   22.4540 S   0  0  0  0  0  0  0  0  0  0  0  0
    9.7260    2.8880   21.5450 O   0  0  0  0  0  0  0  0  0  0  0  0
   10.4500    3.9360   23.7210 O   0  0  0  0  0  0  0  0  0  0  0  0
   11.8510    1.8650   22.7910 C   0  0  0  0  0  0  0  0  0  0  0  0
   11.1930    0.6880   23.0920 C   0  0  0  0  0  0  0  0  0  0  0  0
   11.0580   -0.4200   22.2740 C   0  0  0  0  0  0  0  0  0  0  0  0
   10.2260   -1.3650   22.8160 C   0  0  0  0  0  0  0  0  0  0  0  0
    8.9270   -1.3920   22.2860 N   0  0  0  0  0  0  0  0  0  0  0  0
    8.3270   -0.3960   21.5340 C   0  0  0  0  0  0  0  0  0  0  0  0
    8.7420    0.7340   21.3140 O   0  0  0  0  0  0  0  0  0  0  0  0
    7.1130   -0.7870   21.0030 N   0  0  0  0  0  0  0  0  0  0  0  0
    6.4040   -0.0600   20.0330 C   0  0  0  0  0  0  0  0  0  0  0  0
    5.1000    0.7150   20.2470 C   0  0  0  0  0  0  0  0  0  0  0  0
    4.5500    1.3890   19.1590 C   0  0  0  0  0  0  0  0  0  0  0  0
    5.2030    1.3290   17.9430 C   0  0  0  0  0  0  0  0  0  0  0  0
    6.3510    0.6490   17.7330 N   0  0  0  0  0  0  0  0  0  0  0  0
    6.9140   -0.0190   18.7580 C   0  0  0  0  0  0  0  0  0  0  0  0
   10.7690    0.3580   24.6320 C   0  0  0  0  0  0  0  0  0  0  0  0
   12.0070    0.3380   24.1440 C   0  0  0  0  0  0  0  0  0  0  0  0
  2  1  1  0
  2  3  2  0
  2  4  2  0
  2  5  1  0
  6  5  1  0
  6  7  1  0
  7  8  1  0
  8  9  1  0
  9 10  1  0
 10 11  2  0
 10 12  1  0
 12 13  1  0
 13 14  2  0
 14 15  1  0
 15 16  2  0
 16 17  1  0
 13 18  1  0
 17 18  2  0
  6 19  1  0
  6 20  1  0
 19 20  1  0
M  END
