pyridine_urea_14916
     RDKit          3D

 19 19  0  0  0  0  0  0  0  0999 V2000
    9.4340    0.0100   25.6830 C   0  0  0  0  0  0  0  0  0  0  0  0
    8.7930    1.2310   25.0070 C   0  0  0  0  0  0  0  0  0  0  0  0
    9.4970    1.4850   23.7720 O   0  0  0  0  0  0  0  0  0  0  0  0
   10.7070    0.7520   23.5840 C   0  0  0  0  0  0  0  0  0  0  0  0
   11.9210    1.3590   23.7990 O   0  0  0  0  0  0  0  0  0  0  0  0
   10.5470   -0.7130   23.1580 C   0  0  1  0  0  0  0  0  0  0  0  0
    9.1630   -0.8000   22.5830 N   0  0  0  0  0  0  0  0  0  0  0  0
    8.6350    0.0370   21.5840 C   0  0  0  0  0  0  0  0  0  0  0  0
    9.1130    1.1410   21.2880 O   0  0  0  0  0  0  0  0  0  0  0  0
    7.4830   -0.5590   20.9960 N   0  0  0  0  0  0  0  0  0  0  0  0
    6.6450    0.0670   20.0780 C   0  0  0  0  0  0  0  0  0  0  0  0
    5.3700    0.8440   20.4310 C   0  0  0  0  0  0  0  0  0  0  0  0
    4.6930    1.4040   19.3420 C   0  0  0  0  0  0  0  0  0  0  0  0
    5.1780    1.2390   18.0550 C   0  0  0  0  0  0  0  0  0  0  0  0
    6.2870    0.5550   17.7440 N   0  0  0  0  0  0  0  0  0  0  0  0
    6.9850   -0.0090   18.7470 C   0  0  0  0  0  0  0  0  0  0  0  0
   11.5210   -1.4440   22.2030 C   0  0  0  0  0  0  0  0  0  0  0  0
   12.2100   -0.3750   22.7790 C   0  0  0  0  0  0  0  0  0  0  0  0
   12.9890   -1.6090   22.5260 C   0  0  0  0  0  0  0  0  0  0  0  0
  1  2  1  0
  2  3  1  0
  3  4  1  0
  4  5  2  0
  4  6  1  0
  6  7  1  6
  7  8  1  0
  8  9  2  0
  8 10  1  0
 10 11  1  0
 11 12  2  0
 12 13  1  0
 13 14  2  0
 14 15  1  0
 11 16  1  0
 15 16  2  0
  6 17  1  0
 17 18  1  0
 17 19  1  0
M  END
