pyridine_urea_8695
     RDKit          3D

 21 22  0  0  0  0  0  0  0  0999 V2000
   12.5200    3.7980   22.3500 C   0  0  0  0  0  0  0  0  0  0  0  0
   13.1850    2.8640   23.2030 O   0  0  0  0  0  0  0  0  0  0  0  0
   13.2480    1.5250   22.9080 C   0  0  0  0  0  0  0  0  0  0  0  0
   14.2790    0.9420   22.7060 O   0  0  0  0  0  0  0  0  0  0  0  0
   12.1660    0.7990   22.7930 C   0  0  0  0  0  0  0  0  0  0  0  0
   10.9700    1.4180   23.0450 C   0  0  0  0  0  0  0  0  0  0  0  0
    9.8260    0.7380   22.9080 C   0  0  0  0  0  0  0  0  0  0  0  0
    9.9400   -0.6760   22.4570 C   0  0  0  0  0  0  0  0  0  0  0  0
    8.7020   -1.3180   22.2690 N   0  0  0  0  0  0  0  0  0  0  0  0
    7.9960   -0.4670   21.4570 C   0  0  0  0  0  0  0  0  0  0  0  0
    8.4380    0.6360   21.1530 O   0  0  0  0  0  0  0  0  0  0  0  0
    6.7390   -0.9620   20.9900 N   0  0  0  0  0  0  0  0  0  0  0  0
    6.2210   -0.2050   19.9750 C   0  0  0  0  0  0  0  0  0  0  0  0
    5.0330    0.5000   20.1830 C   0  0  0  0  0  0  0  0  0  0  0  0
    4.5170    1.2760   19.1550 C   0  0  0  0  0  0  0  0  0  0  0  0
    5.2060    1.3260   17.9510 C   0  0  0  0  0  0  0  0  0  0  0  0
    6.3440    0.6550   17.7310 N   0  0  0  0  0  0  0  0  0  0  0  0
    6.8280   -0.0940   18.7410 C   0  0  0  0  0  0  0  0  0  0  0  0
   11.2860   -1.2460   22.2200 C   0  0  0  0  0  0  0  0  0  0  0  0
   11.4320   -2.5680   21.7740 O   0  0  0  0  0  0  0  0  0  0  0  0
   12.4370   -0.5290   22.3940 C   0  0  0  0  0  0  0  0  0  0  0  0
  1  2  1  0
  2  3  1  0
  3  4  2  0
  3  5  1  0
  5  6  2  0
  6  7  1  0
  7  8  2  0
  8  9  1  0
  9 10  1  0
 10 11  2  0
 10 12  1  0
 12 13  1  0
 13 14  2  0
 14 15  1  0
 15 16  2  0
 16 17  1  0
 13 18  1  0
 17 18  2  0
  8 19  1  0
 19 20  1  0
  5 21  1  0
 19 21  2  0
M  END
