pyridine_urea_14473
     RDKit          3D

 21 22  0  0  0  0  0  0  0  0999 V2000
   11.2340    1.7540   23.0540 C   0  0  0  0  0  0  0  0  0  0  0  0
   10.8600    0.4310   23.6530 C   0  0  0  0  0  0  0  0  0  0  0  0
    9.8110    0.3610   24.5810 C   0  0  0  0  0  0  0  0  0  0  0  0
   10.2100   -0.3270   22.4830 C   0  0  0  0  0  0  0  0  0  0  0  0
    8.9160   -0.5460   22.6100 N   0  0  0  0  0  0  0  0  0  0  0  0
    8.3620    0.1320   21.5520 C   0  0  0  0  0  0  0  0  0  0  0  0
    8.7910    1.2230   21.1410 O   0  0  0  0  0  0  0  0  0  0  0  0
    7.3000   -0.5520   21.0790 N   0  0  0  0  0  0  0  0  0  0  0  0
    6.6260    0.0430   20.0680 C   0  0  0  0  0  0  0  0  0  0  0  0
    5.4040    0.8410   20.4390 C   0  0  0  0  0  0  0  0  0  0  0  0
    4.6930    1.4950   19.2930 C   0  0  0  0  0  0  0  0  0  0  0  0
    5.1960    1.3190   18.0270 C   0  0  0  0  0  0  0  0  0  0  0  0
    6.2580    0.6230   17.6420 N   0  0  0  0  0  0  0  0  0  0  0  0
    6.9420   -0.0020   18.7220 C   0  0  0  0  0  0  0  0  0  0  0  0
   11.8510   -0.4220   23.9820 C   0  0  0  0  0  0  0  0  0  0  0  0
   12.6310   -0.8780   24.9600 C   0  0  0  0  0  0  0  0  0  0  0  0
   13.5120   -1.9370   24.3700 C   0  0  0  0  0  0  0  0  0  0  0  0
   13.5630   -2.4070   22.9630 N   0  0  0  0  0  0  0  0  0  0  0  0
   12.6640   -1.7140   22.2320 C   0  0  0  0  0  0  0  0  0  0  0  0
   12.5320   -1.2550   23.3790 C   0  0  0  0  0  0  0  0  0  0  0  0
   13.4390   -1.9270   24.1110 F   0  0  0  0  0  0  0  0  0  0  0  0
  2  1  1  0
  2  3  1  0
  2  4  1  0
  4  5  1  0
  5  6  1  0
  6  7  2  0
  6  8  1  0
  8  9  1  0
  9 10  2  0
 10 11  1  0
 11 12  2  0
 12 13  1  0
  9 14  1  0
 13 14  2  0
  2 15  1  0
 15 16  2  0
 16 17  1  0
 17 18  2  0
 18 19  1  0
 15 20  1  0
 19 20  2  0
 20 21  1  0
M  END
