pyridine_urea_3510
     RDKit          3D

 18 19  0  0  0  0  0  0  0  0999 V2000
   10.7100   -1.8480   21.6420 C   0  0  0  0  0  0  0  0  0  0  0  0
   10.4510   -0.5670   22.3980 C   0  0  1  0  0  0  0  0  0  0  0  0
    9.0410   -0.3980   22.6560 N   0  0  0  0  0  0  0  0  0  0  0  0
    8.4250    0.2850   21.6370 C   0  0  0  0  0  0  0  0  0  0  0  0
    8.8580    1.3690   21.2280 O   0  0  0  0  0  0  0  0  0  0  0  0
    7.3190   -0.3650   21.1480 N   0  0  0  0  0  0  0  0  0  0  0  0
    6.5760    0.1550   20.0920 C   0  0  0  0  0  0  0  0  0  0  0  0
    5.2930    0.9050   20.4180 C   0  0  0  0  0  0  0  0  0  0  0  0
    4.4940    1.5030   19.2790 C   0  0  0  0  0  0  0  0  0  0  0  0
    5.1270    1.2510   17.9220 C   0  0  0  0  0  0  0  0  0  0  0  0
    6.2610    0.5630   17.7250 N   0  0  0  0  0  0  0  0  0  0  0  0
    6.9400    0.0440   18.7690 C   0  0  0  0  0  0  0  0  0  0  0  0
   11.3530   -0.7930   23.5300 C   0  0  0  0  0  0  0  0  0  0  0  0
   11.5750   -0.0430   24.5820 C   0  0  0  0  0  0  0  0  0  0  0  0
   12.4270   -0.4600   25.4370 N   0  0  0  0  0  0  0  0  0  0  0  0
   12.8010   -1.6250   24.8740 N   0  0  0  0  0  0  0  0  0  0  0  0
   13.7200   -2.3810   25.5140 C   0  0  0  0  0  0  0  0  0  0  0  0
   12.2840   -2.0570   23.6820 C   0  0  0  0  0  0  0  0  0  0  0  0
  2  1  1  6
  2  3  1  0
  3  4  1  0
  4  5  2  0
  4  6  1  0
  6  7  1  0
  7  8  2  0
  8  9  1  0
  9 10  2  0
 10 11  1  0
  7 12  1  0
 11 12  2  0
  2 13  1  0
 13 14  1  0
 14 15  2  0
 15 16  1  0
 16 17  1  0
 13 18  2  0
 16 18  1  0
M  END
