pyridine_urea_14008
     RDKit          3D

 23 24  0  0  0  0  0  0  0  0999 V2000
    6.6920   -1.6790   25.8520 C   0  0  0  0  0  0  0  0  0  0  0  0
    7.3330   -0.7280   25.4910 C   0  0  0  0  0  0  0  0  0  0  0  0
    8.2600    0.4880   25.4760 C   0  0  0  0  0  0  0  0  0  0  0  0
    6.1250   -0.0410   24.8440 C   0  0  0  0  0  0  0  0  0  0  0  0
    8.0200   -1.5180   24.4760 O   0  0  0  0  0  0  0  0  0  0  0  0
    9.0640   -2.3550   24.7730 C   0  0  0  0  0  0  0  0  0  0  0  0
    8.9360   -3.4190   25.3650 O   0  0  0  0  0  0  0  0  0  0  0  0
   10.4280   -1.8000   24.2710 C   0  0  0  0  0  0  0  0  0  0  0  0
   10.3860   -0.9110   23.0750 C   0  0  0  0  0  0  0  0  0  0  0  0
    9.0530   -0.9670   22.4690 N   0  0  0  0  0  0  0  0  0  0  0  0
    8.5480   -0.0650   21.5360 C   0  0  0  0  0  0  0  0  0  0  0  0
    9.1410    1.2350   21.2330 O   0  0  0  0  0  0  0  0  0  0  0  0
    7.3950   -0.5730   20.9660 N   0  0  0  0  0  0  0  0  0  0  0  0
    6.5720    0.0880   20.0390 C   0  0  0  0  0  0  0  0  0  0  0  0
    5.3960    0.7870   20.3370 C   0  0  0  0  0  0  0  0  0  0  0  0
    4.7260    1.3840   19.2800 C   0  0  0  0  0  0  0  0  0  0  0  0
    5.1830    1.2980   17.9970 C   0  0  0  0  0  0  0  0  0  0  0  0
    6.2920    0.6260   17.6770 N   0  0  0  0  0  0  0  0  0  0  0  0
    6.9500    0.0430   18.7050 C   0  0  0  0  0  0  0  0  0  0  0  0
   11.6540   -1.4120   22.2770 C   0  0  0  0  0  0  0  0  0  0  0  0
   12.6290   -0.3880   22.8380 C   0  0  0  0  0  0  0  0  0  0  0  0
   12.0540    0.5000   23.7440 C   0  0  0  0  0  0  0  0  0  0  0  0
   10.6820    0.4840   23.6210 C   0  0  0  0  0  0  0  0  0  0  0  0
  1  2  1  0
  2  3  1  0
  2  4  1  0
  2  5  1  0
  5  6  1  0
  6  7  2  0
  6  8  1  0
  8  9  1  0
  9 10  1  0
 10 11  1  0
 11 12  2  0
 11 13  1  0
 13 14  1  0
 14 15  2  0
 15 16  1  0
 16 17  2  0
 17 18  1  0
 14 19  1  0
 18 19  2  0
  9 20  1  0
 20 21  1  0
 21 22  1  0
  9 23  1  0
 22 23  1  0
M  END
