pyridine_urea_8516
     RDKit          3D

 22 24  0  0  0  0  0  0  0  0999 V2000
   15.1200   -5.0200   21.1140 C   0  0  0  0  0  0  0  0  0  0  0  0
   14.1320   -3.7490   21.5810 C   0  0  0  0  0  0  0  0  0  0  0  0
   13.5810   -3.2180   20.5680 C   0  0  0  0  0  0  0  0  0  0  0  0
   12.8590   -2.2550   20.9550 C   0  0  0  0  0  0  0  0  0  0  0  0
   12.9460   -2.1440   22.2290 N   0  0  0  0  0  0  0  0  0  0  0  0
   12.2590   -1.1840   22.7480 C   0  0  0  0  0  0  0  0  0  0  0  0
   12.7350    0.0170   23.5180 C   0  0  0  0  0  0  0  0  0  0  0  0
   11.7140    0.8520   23.8940 C   0  0  0  0  0  0  0  0  0  0  0  0
   10.2580    0.5450   23.5400 C   0  0  0  0  0  0  0  0  0  0  0  0
    9.9660   -0.5900   22.8270 C   0  0  0  0  0  0  0  0  0  0  0  0
    8.6640   -0.8070   22.5230 N   0  0  0  0  0  0  0  0  0  0  0  0
    8.0520   -0.1230   21.4710 C   0  0  0  0  0  0  0  0  0  0  0  0
    8.5170    0.9520   21.1170 O   0  0  0  0  0  0  0  0  0  0  0  0
    6.9820   -0.7610   20.9720 N   0  0  0  0  0  0  0  0  0  0  0  0
    6.3220   -0.0440   20.0440 C   0  0  0  0  0  0  0  0  0  0  0  0
    5.1260    0.6620   20.2480 C   0  0  0  0  0  0  0  0  0  0  0  0
    4.5870    1.3630   19.1630 C   0  0  0  0  0  0  0  0  0  0  0  0
    5.2340    1.3420   17.9410 C   0  0  0  0  0  0  0  0  0  0  0  0
    6.3770    0.6740   17.7080 N   0  0  0  0  0  0  0  0  0  0  0  0
    6.8620    0.0140   18.7690 C   0  0  0  0  0  0  0  0  0  0  0  0
   10.9530   -1.4510   22.4320 C   0  0  0  0  0  0  0  0  0  0  0  0
   13.7630   -3.0990   22.8080 N   0  0  0  0  0  0  0  0  0  0  0  0
  1  2  1  0
  2  3  1  0
  3  4  2  0
  4  5  1  0
  5  6  1  0
  6  7  2  0
  7  8  1  0
  8  9  2  0
  9 10  1  0
 10 11  1  0
 11 12  1  0
 12 13  2  0
 12 14  1  0
 14 15  1  0
 15 16  2  0
 16 17  1  0
 17 18  2  0
 18 19  1  0
 15 20  1  0
 19 20  2  0
  6 21  1  0
 10 21  2  0
  2 22  2  0
  5 22  1  0
M  END
