pyridine_urea_6696
     RDKit          3D

 22 23  0  0  0  0  0  0  0  0999 V2000
   15.6200    3.2040   19.3340 C   0  0  0  0  0  0  0  0  0  0  0  0
   14.7530    2.2390   20.1080 C   0  0  0  0  0  0  0  0  0  0  0  0
   14.9350    0.8570   19.4860 C   0  0  0  0  0  0  0  0  0  0  0  0
   14.0430   -0.4350   19.8370 N   0  0  0  0  0  0  0  0  0  0  0  0
   13.5750   -1.3240   20.9350 C   0  0  0  0  0  0  0  0  0  0  0  0
   13.6360   -2.5310   20.8960 O   0  0  0  0  0  0  0  0  0  0  0  0
   12.7130   -0.9300   22.1670 C   0  0  0  0  0  0  0  0  0  0  0  0
   13.0790   -0.4390   23.3860 C   0  0  0  0  0  0  0  0  0  0  0  0
   12.0960   -0.1440   24.3510 C   0  0  0  0  0  0  0  0  0  0  0  0
   10.7010   -0.3130   24.1570 C   0  0  0  0  0  0  0  0  0  0  0  0
   10.1500   -0.8130   22.9700 C   0  0  0  0  0  0  0  0  0  0  0  0
    8.8250   -1.0030   22.6660 N   0  0  0  0  0  0  0  0  0  0  0  0
    8.1850   -0.2590   21.6460 C   0  0  0  0  0  0  0  0  0  0  0  0
    8.6490    1.0110   21.2740 O   0  0  0  0  0  0  0  0  0  0  0  0
    7.1190   -0.8820   21.1050 N   0  0  0  0  0  0  0  0  0  0  0  0
    6.4320   -0.1560   20.1770 C   0  0  0  0  0  0  0  0  0  0  0  0
    5.2350    0.5780   20.4460 C   0  0  0  0  0  0  0  0  0  0  0  0
    4.6680    1.3140   19.2300 C   0  0  0  0  0  0  0  0  0  0  0  0
    5.2570    1.2730   17.9960 C   0  0  0  0  0  0  0  0  0  0  0  0
    6.3760    0.5840   17.7520 N   0  0  0  0  0  0  0  0  0  0  0  0
    6.9400   -0.1310   18.8790 C   0  0  0  0  0  0  0  0  0  0  0  0
   11.2630   -1.1330   21.9670 C   0  0  0  0  0  0  0  0  0  0  0  0
  1  2  1  0
  2  3  1  0
  3  4  1  0
  4  5  1  0
  5  6  2  0
  5  7  1  0
  7  8  2  0
  8  9  1  0
  9 10  2  0
 10 11  1  0
 11 12  1  0
 12 13  1  0
 13 14  2  0
 13 15  1  0
 15 16  1  0
 16 17  2  0
 17 18  1  0
 18 19  2  0
 19 20  1  0
 16 21  1  0
 20 21  2  0
  7 22  1  0
 11 22  2  0
M  END
