pyridine_urea_405
     RDKit          3D

 26 27  0  0  0  0  0  0  0  0999 V2000
    8.6250    0.8740   21.2970 O   0  0  0  0  0  0  0  0  0  0  0  0
    8.1740   -0.2430   21.5180 C   0  0  0  0  0  0  0  0  0  0  0  0
    8.7430   -1.1570   22.3690 N   0  0  0  0  0  0  0  0  0  0  0  0
    9.7640   -0.8010   23.2520 C   0  0  0  0  0  0  0  0  0  0  0  0
   10.1470    0.5240   23.3240 C   0  0  0  0  0  0  0  0  0  0  0  0
   11.1920    0.7850   24.1640 C   0  0  0  0  0  0  0  0  0  0  0  0
   12.4270    0.7010   23.6000 C   0  0  0  0  0  0  0  0  0  0  0  0
   12.6130   -0.1240   22.5360 C   0  0  0  0  0  0  0  0  0  0  0  0
   12.9090   -1.3690   22.9080 N   0  0  0  0  0  0  0  0  0  0  0  0
   12.3880   -2.4200   22.2540 C   0  0  0  0  0  0  0  0  0  0  0  0
   11.1860   -2.4290   21.5930 O   0  0  0  0  0  0  0  0  0  0  0  0
   13.1350   -3.3460   22.3180 O   0  0  0  0  0  0  0  0  0  0  0  0
   13.1140   -3.9650   21.0440 C   0  0  0  0  0  0  0  0  0  0  0  0
   14.2760   -4.6490   20.8160 C   0  0  0  0  0  0  0  0  0  0  0  0
   15.2680   -5.6630   20.8730 C   0  0  0  0  0  0  0  0  0  0  0  0
   16.4370   -5.4680   20.1650 C   0  0  0  0  0  0  0  0  0  0  0  0
   16.5390   -4.4700   19.5720 C   0  0  0  0  0  0  0  0  0  0  0  0
   15.7260   -3.9530   19.6800 C   0  0  0  0  0  0  0  0  0  0  0  0
   14.5840   -3.8770   20.2110 C   0  0  0  0  0  0  0  0  0  0  0  0
    7.0170   -0.7260   20.9510 N   0  0  0  0  0  0  0  0  0  0  0  0
    6.3780   -0.0660   19.9740 C   0  0  0  0  0  0  0  0  0  0  0  0
    5.2750    0.7180   20.2920 C   0  0  0  0  0  0  0  0  0  0  0  0
    4.6110    1.4250   19.3030 C   0  0  0  0  0  0  0  0  0  0  0  0
    5.0790    1.3210   18.0170 C   0  0  0  0  0  0  0  0  0  0  0  0
    6.1330    0.5680   17.6700 N   0  0  0  0  0  0  0  0  0  0  0  0
    6.7570   -0.1070   18.6530 C   0  0  0  0  0  0  0  0  0  0  0  0
  1  2  2  0
  2  3  1  0
  3  4  1  0
  4  5  1  0
  5  6  1  0
  6  7  1  0
  7  8  1  0
  8  9  1  0
  9 10  1  0
 10 11  2  0
 10 12  1  0
 12 13  1  0
 13 14  1  0
 14 15  2  0
 15 16  1  0
 16 17  2  0
 17 18  1  0
 14 19  1  0
 18 19  2  0
  2 20  1  0
 20 21  1  0
 21 22  2  0
 22 23  1  0
 23 24  2  0
 24 25  1  0
 21 26  1  0
 25 26  2  0
M  END
