pyridine_urea_9144
     RDKit          3D

 19 21  0  0  0  0  0  0  0  0999 V2000
    8.6010    1.3110   20.9100 O   0  0  0  0  0  0  0  0  0  0  0  0
    8.4960    0.2050   21.4470 C   0  0  0  0  0  0  0  0  0  0  0  0
    7.4500   -0.6090   21.1050 N   0  0  0  0  0  0  0  0  0  0  0  0
    6.7050   -0.0500   20.0020 C   0  0  0  0  0  0  0  0  0  0  0  0
    5.4450    0.7580   20.3640 C   0  0  0  0  0  0  0  0  0  0  0  0
    4.6820    1.3610   19.3640 C   0  0  0  0  0  0  0  0  0  0  0  0
    5.1070    1.2030   18.0490 C   0  0  0  0  0  0  0  0  0  0  0  0
    6.2270    0.4700   17.7670 N   0  0  0  0  0  0  0  0  0  0  0  0
    7.0380   -0.1670   18.7150 C   0  0  0  0  0  0  0  0  0  0  0  0
    9.3700   -0.2370   22.4020 N   0  0  0  0  0  0  0  0  0  0  0  0
   10.3100   -0.3920   23.3620 C   0  0  0  0  0  0  0  0  0  0  0  0
   11.3870   -1.2340   23.2340 C   0  0  0  0  0  0  0  0  0  0  0  0
   11.8310   -1.6790   22.0340 C   0  0  0  0  0  0  0  0  0  0  0  0
   12.9330   -2.4890   21.9190 C   0  0  0  0  0  0  0  0  0  0  0  0
   13.6740   -2.9260   22.9590 N   0  0  0  0  0  0  0  0  0  0  0  0
   13.2580   -2.5130   24.2690 C   0  0  0  0  0  0  0  0  0  0  0  0
   12.0600   -1.6260   24.3850 C   0  0  0  0  0  0  0  0  0  0  0  0
   10.1920    0.4890   24.5790 C   0  0  0  0  0  0  0  0  0  0  0  0
   11.1260    0.6920   23.7670 C   0  0  0  0  0  0  0  0  0  0  0  0
  1  2  2  0
  2  3  1  0
  3  4  1  0
  4  5  2  0
  5  6  1  0
  6  7  2  0
  7  8  1  0
  4  9  1  0
  8  9  2  0
  2 10  1  0
 11 10  1  0
 11 12  1  0
 12 13  2  0
 13 14  1  0
 14 15  2  0
 15 16  1  0
 12 17  1  0
 16 17  2  0
 11 18  1  0
 11 19  1  0
 18 19  1  0
M  END
