pyridine_urea_5524
     RDKit          3D

 17 18  0  0  0  0  0  0  0  0999 V2000
   12.8190    0.7410   23.2450 C   0  0  0  0  0  0  0  0  0  0  0  0
   11.3490    0.4780   22.9470 C   0  0  0  0  0  0  0  0  0  0  0  0
   10.2920    1.2310   22.9890 N   0  0  0  0  0  0  0  0  0  0  0  0
   10.3230   -0.1480   22.6180 N   0  0  0  0  0  0  0  0  0  0  0  0
   11.9440   -0.4310   22.7790 C   0  0  0  0  0  0  0  0  0  0  0  0
   11.6240   -1.7370   22.3610 C   0  0  0  0  0  0  0  0  0  0  0  0
   10.5810   -0.8020   22.4720 C   0  0  0  0  0  0  0  0  0  0  0  0
    9.2240   -0.9590   22.2240 N   0  0  0  0  0  0  0  0  0  0  0  0
    8.4980   -0.0100   21.4740 C   0  0  0  0  0  0  0  0  0  0  0  0
    8.9590    1.1130   21.2020 O   0  0  0  0  0  0  0  0  0  0  0  0
    7.2710   -0.4870   21.1020 N   0  0  0  0  0  0  0  0  0  0  0  0
    6.5550    0.0890   20.0070 C   0  0  0  0  0  0  0  0  0  0  0  0
    5.3120    0.8950   20.4110 C   0  0  0  0  0  0  0  0  0  0  0  0
    4.5610    1.5440   19.2740 C   0  0  0  0  0  0  0  0  0  0  0  0
    5.1420    1.3040   17.9150 C   0  0  0  0  0  0  0  0  0  0  0  0
    6.2240    0.5720   17.6990 N   0  0  0  0  0  0  0  0  0  0  0  0
    7.0000   -0.0820   18.6970 C   0  0  0  0  0  0  0  0  0  0  0  0
  1  2  1  0
  2  3  2  0
  3  4  1  0
  4  5  2  0
  5  6  1  0
  2  7  1  0
  6  7  2  0
  7  8  1  0
  8  9  1  0
  9 10  2  0
  9 11  1  0
 11 12  1  0
 12 13  2  0
 13 14  1  0
 14 15  2  0
 15 16  1  0
 12 17  1  0
 16 17  2  0
M  END
