pyridine_urea_7117
     RDKit          3D

 19 20  0  0  0  0  0  0  0  0999 V2000
   13.2360    0.5530   22.8540 C   0  0  0  0  0  0  0  0  0  0  0  0
   13.1970   -0.9560   22.7730 C   0  0  0  0  0  0  0  0  0  0  0  0
   13.2550   -1.6050   21.5390 C   0  0  0  0  0  0  0  0  0  0  0  0
   11.9210   -1.3200   23.2220 N   0  0  0  0  0  0  0  0  0  0  0  0
   11.5890   -2.5870   23.7890 C   0  0  0  0  0  0  0  0  0  0  0  0
   10.2700   -2.6410   24.0840 N   0  0  0  0  0  0  0  0  0  0  0  0
    9.8240   -1.3000   23.6560 C   0  0  0  0  0  0  0  0  0  0  0  0
    8.5520   -0.8310   23.7090 C   0  0  0  0  0  0  0  0  0  0  0  0
    8.4130    0.4400   23.0410 N   0  0  0  0  0  0  0  0  0  0  0  0
    8.2420    0.5080   21.6460 C   0  0  0  0  0  0  0  0  0  0  0  0
    8.8460    1.3840   21.0330 O   0  0  0  0  0  0  0  0  0  0  0  0
    7.3920   -0.3680   21.0750 N   0  0  0  0  0  0  0  0  0  0  0  0
    6.6550    0.1690   20.0970 C   0  0  0  0  0  0  0  0  0  0  0  0
    5.5100    0.9460   20.3690 C   0  0  0  0  0  0  0  0  0  0  0  0
    4.7760    1.5170   19.3270 C   0  0  0  0  0  0  0  0  0  0  0  0
    5.1270    1.3530   17.9980 C   0  0  0  0  0  0  0  0  0  0  0  0
    6.2920    0.5460   17.7060 N   0  0  0  0  0  0  0  0  0  0  0  0
    6.9690    0.0120   18.7660 C   0  0  0  0  0  0  0  0  0  0  0  0
   10.8530   -0.5110   23.1480 C   0  0  0  0  0  0  0  0  0  0  0  0
  1  2  1  0
  2  3  1  0
  2  4  1  0
  4  5  1  0
  5  6  2  0
  6  7  1  0
  7  8  1  0
  8  9  1  0
  9 10  1  0
 10 11  2  0
 10 12  1  0
 12 13  1  0
 13 14  2  0
 14 15  1  0
 15 16  2  0
 16 17  1  0
 13 18  1  0
 17 18  2  0
  4 19  1  0
  7 19  2  0
M  END
