pyridine_urea_8726
     RDKit          3D

 21 22  0  0  0  0  0  0  0  0999 V2000
    8.7750    1.0310   21.1680 O   0  0  0  0  0  0  0  0  0  0  0  0
    8.0700    0.0700   21.5340 C   0  0  0  0  0  0  0  0  0  0  0  0
    8.1300   -0.5820   22.7230 N   0  0  0  0  0  0  0  0  0  0  0  0
    9.2870   -0.9530   23.3640 C   0  0  0  0  0  0  0  0  0  0  0  0
   10.3070   -0.0650   23.2130 C   0  0  0  0  0  0  0  0  0  0  0  0
   11.5910    0.6190   23.0250 C   0  0  0  0  0  0  0  0  0  0  0  0
   11.4930    1.9630   23.0180 F   0  0  0  0  0  0  0  0  0  0  0  0
   12.9100    0.1680   22.8440 C   0  0  0  0  0  0  0  0  0  0  0  0
   13.7940    1.1520   22.7270 F   0  0  0  0  0  0  0  0  0  0  0  0
   13.2800   -1.2650   22.7840 C   0  0  0  0  0  0  0  0  0  0  0  0
   12.1250   -1.7790   22.9480 C   0  0  0  0  0  0  0  0  0  0  0  0
   12.1250   -0.4190   22.9530 F   0  0  0  0  0  0  0  0  0  0  0  0
   10.7330   -1.4310   23.1520 C   0  0  0  0  0  0  0  0  0  0  0  0
    9.8500   -2.4360   23.2820 F   0  0  0  0  0  0  0  0  0  0  0  0
    7.0740   -0.5260   20.8340 N   0  0  0  0  0  0  0  0  0  0  0  0
    6.3310    0.1480   19.8980 C   0  0  0  0  0  0  0  0  0  0  0  0
    5.1360    0.8020   20.1350 C   0  0  0  0  0  0  0  0  0  0  0  0
    4.5220    1.4570   19.0750 C   0  0  0  0  0  0  0  0  0  0  0  0
    5.1450    1.4190   17.8280 C   0  0  0  0  0  0  0  0  0  0  0  0
    6.2970    0.7780   17.5990 N   0  0  0  0  0  0  0  0  0  0  0  0
    6.8500    0.1640   18.6370 C   0  0  0  0  0  0  0  0  0  0  0  0
  1  2  2  0
  2  3  1  0
  3  4  1  0
  4  5  1  0
  5  6  2  0
  6  7  1  0
  6  8  1  0
  8  9  1  0
  8 10  2  0
 10 11  1  0
 11 12  1  0
  5 13  1  0
 11 13  2  0
 13 14  1  0
  2 15  1  0
 15 16  1  0
 16 17  2  0
 17 18  1  0
 18 19  2  0
 19 20  1  0
 16 21  1  0
 20 21  2  0
M  END
