pyridine_urea_5368
     RDKit          3D

 19 21  0  0  0  0  0  0  0  0999 V2000
    8.5340    1.0290   21.1940 O   0  0  0  0  0  0  0  0  0  0  0  0
    8.2730   -0.1360   21.4780 C   0  0  0  0  0  0  0  0  0  0  0  0
    9.0670   -0.8840   22.3360 N   0  0  0  0  0  0  0  0  0  0  0  0
   10.4290   -0.4310   22.5130 C   0  0  0  0  0  0  0  0  0  0  0  0
   11.6110   -1.4370   22.3550 C   0  0  0  0  0  0  0  0  0  0  0  0
   12.8910   -0.9340   22.5290 C   0  0  0  0  0  0  0  0  0  0  0  0
   13.0160    0.5590   22.8510 C   0  0  0  0  0  0  0  0  0  0  0  0
   11.9690    1.3960   22.9750 N   0  0  0  0  0  0  0  0  0  0  0  0
   10.7190    0.8880   22.8130 C   0  0  0  0  0  0  0  0  0  0  0  0
    7.2080   -0.8760   21.0240 N   0  0  0  0  0  0  0  0  0  0  0  0
    6.0700   -0.2600   20.3130 C   0  0  1  0  0  0  0  0  0  0  0  0
    5.3700    0.7490   21.1940 C   0  0  0  0  0  0  0  0  0  0  0  0
    4.0260    0.9410   20.4910 C   0  0  0  0  0  0  0  0  0  0  0  0
    4.1700    1.3400   19.0620 C   0  0  0  0  0  0  0  0  0  0  0  0
    5.3570    1.0740   18.5240 N   0  0  0  0  0  0  0  0  0  0  0  0
    5.7870    1.5120   17.3760 C   0  0  0  0  0  0  0  0  0  0  0  0
    6.9960    1.0640   17.2170 N   0  0  0  0  0  0  0  0  0  0  0  0
    7.3350    0.3070   18.2520 N   0  0  0  0  0  0  0  0  0  0  0  0
    6.3080    0.3160   19.0800 C   0  0  0  0  0  0  0  0  0  0  0  0
  1  2  2  0
  2  3  1  0
  3  4  1  0
  4  5  2  0
  5  6  1  0
  6  7  2  0
  7  8  1  0
  4  9  1  0
  8  9  2  0
  2 10  1  0
 11 10  1  1
 11 12  1  0
 12 13  1  0
 13 14  1  0
 14 15  1  0
 15 16  1  0
 16 17  2  0
 17 18  1  0
 11 19  1  0
 15 19  1  0
 18 19  2  0
M  END
