pyridine_urea_7345
     RDKit          3D

 18 19  0  0  0  0  0  0  0  0999 V2000
    8.9250    0.9300   21.3100 O   0  0  0  0  0  0  0  0  0  0  0  0
    8.4460   -0.1360   21.6740 C   0  0  0  0  0  0  0  0  0  0  0  0
    8.9460   -0.9300   22.6840 N   0  0  0  0  0  0  0  0  0  0  0  0
    8.8030   -2.3250   22.8500 C   0  0  0  0  0  0  0  0  0  0  0  0
    8.3830   -2.8000   24.1080 C   0  0  0  0  0  0  0  0  0  0  0  0
    8.0280   -1.8560   25.0600 N   0  0  0  0  0  0  0  0  0  0  0  0
    8.9090   -1.0380   25.9060 C   0  0  0  0  0  0  0  0  0  0  0  0
    9.9260   -0.4760   25.5330 O   0  0  0  0  0  0  0  0  0  0  0  0
    8.4980   -0.9220   27.2260 C   0  0  0  0  0  0  0  0  0  0  0  0
    7.9960   -1.8570   27.8550 C   0  0  0  0  0  0  0  0  0  0  0  0
    7.0840   -0.7460   27.5680 C   0  0  0  0  0  0  0  0  0  0  0  0
    7.2950   -0.6460   21.1010 N   0  0  0  0  0  0  0  0  0  0  0  0
    6.5740   -0.0080   20.0760 C   0  0  0  0  0  0  0  0  0  0  0  0
    5.4050    0.7110   20.3850 C   0  0  0  0  0  0  0  0  0  0  0  0
    4.7190    1.3430   19.3450 C   0  0  0  0  0  0  0  0  0  0  0  0
    5.1780    1.2660   18.0470 C   0  0  0  0  0  0  0  0  0  0  0  0
    6.2850    0.5820   17.7290 N   0  0  0  0  0  0  0  0  0  0  0  0
    6.9460   -0.0320   18.7430 C   0  0  0  0  0  0  0  0  0  0  0  0
  1  2  2  0
  2  3  1  0
  3  4  1  0
  4  5  1  0
  5  6  1  0
  6  7  1  0
  7  8  2  0
  7  9  1  0
  9 10  1  0
  9 11  1  0
 10 11  1  0
  2 12  1  0
 12 13  1  0
 13 14  2  0
 14 15  1  0
 15 16  2  0
 16 17  1  0
 13 18  1  0
 17 18  2  0
M  END
