pyridine_urea_11344
     RDKit          3D

 22 24  0  0  0  0  0  0  0  0999 V2000
   12.4320   -2.5710   20.8740 N   0  0  0  0  0  0  0  0  0  0  0  0
   12.9380   -1.8010   21.5070 C   0  0  0  0  0  0  0  0  0  0  0  0
   13.8220   -1.3240   20.5100 O   0  0  0  0  0  0  0  0  0  0  0  0
   13.2120   -1.1400   22.4270 C   0  0  1  0  0  0  0  0  0  0  0  0
   13.3060    0.1910   23.1340 C   0  0  0  0  0  0  0  0  0  0  0  0
   12.0250    0.7580   23.4560 C   0  0  0  0  0  0  0  0  0  0  0  0
   11.4090   -0.3350   23.9060 C   0  0  0  0  0  0  0  0  0  0  0  0
   12.2010   -1.4050   24.6320 C   0  0  0  0  0  0  0  0  0  0  0  0
   13.0080   -2.0300   23.5580 C   0  0  0  0  0  0  0  0  0  0  0  0
   10.8140   -0.9820   22.8050 C   0  0  0  0  0  0  0  0  0  0  0  0
    9.4500   -0.7070   23.1050 C   0  0  2  0  0  0  0  0  0  0  0  0
    8.2210   -0.2460   22.8910 N   0  0  0  0  0  0  0  0  0  0  0  0
    7.8890    0.2010   21.5490 C   0  0  0  0  0  0  0  0  0  0  0  0
    8.5970    1.3420   21.0380 O   0  0  0  0  0  0  0  0  0  0  0  0
    6.9500   -0.5400   20.9470 N   0  0  0  0  0  0  0  0  0  0  0  0
    6.3970    0.0750   19.9100 C   0  0  0  0  0  0  0  0  0  0  0  0
    5.2330    0.7850   20.1340 C   0  0  0  0  0  0  0  0  0  0  0  0
    4.3520    1.6100   19.1650 C   0  0  0  0  0  0  0  0  0  0  0  0
    5.1810    1.3860   17.9010 C   0  0  0  0  0  0  0  0  0  0  0  0
    6.3040    0.7020   17.6510 N   0  0  0  0  0  0  0  0  0  0  0  0
    6.9130    0.0340   18.6930 C   0  0  0  0  0  0  0  0  0  0  0  0
   10.0270   -0.1170   24.1940 C   0  0  0  0  0  0  0  0  0  0  0  0
  1  2  1  0
  2  3  2  0
  4  2  1  6
  4  5  1  0
  5  6  1  0
  7  6  1  0
  7  8  1  0
  4  9  1  0
  8  9  1  0
  7 10  1  0
 10 11  1  0
 11 12  1  6
 12 13  1  0
 13 14  2  0
 13 15  1  0
 15 16  1  0
 16 17  2  0
 17 18  1  0
 18 19  2  0
 19 20  1  0
 16 21  1  0
 20 21  2  0
  7 22  1  0
 11 22  1  0
M  END
