pyridine_urea_3621
     RDKit          3D

 16 17  0  0  0  0  0  0  0  0999 V2000
    8.9340    1.4260   21.1390 O   0  0  0  0  0  0  0  0  0  0  0  0
    8.3990    0.4280   21.6260 C   0  0  0  0  0  0  0  0  0  0  0  0
    8.8050   -0.0890   22.8310 N   0  0  0  0  0  0  0  0  0  0  0  0
    9.6110   -1.2630   22.8430 C   0  0  0  0  0  0  0  0  0  0  0  0
   11.0880   -0.9700   22.7970 C   0  0  2  0  0  0  0  0  0  0  0  0
   11.7620   -1.4320   24.0290 C   0  0  0  0  0  0  0  0  0  0  0  0
   12.9810   -0.6020   23.9060 C   0  0  0  0  0  0  0  0  0  0  0  0
   12.7340    0.3910   22.7870 C   0  0  0  0  0  0  0  0  0  0  0  0
   11.5080    0.3130   22.5250 O   0  0  0  0  0  0  0  0  0  0  0  0
    7.3560   -0.2930   21.0920 N   0  0  0  0  0  0  0  0  0  0  0  0
    6.6010    0.2100   20.0340 C   0  0  0  0  0  0  0  0  0  0  0  0
    5.4400    0.9320   20.3160 C   0  0  0  0  0  0  0  0  0  0  0  0
    4.6850    1.4610   19.2730 C   0  0  0  0  0  0  0  0  0  0  0  0
    5.1290    1.2440   17.9910 C   0  0  0  0  0  0  0  0  0  0  0  0
    6.2300    0.5480   17.6930 N   0  0  0  0  0  0  0  0  0  0  0  0
    6.9400    0.0460   18.7130 C   0  0  0  0  0  0  0  0  0  0  0  0
  1  2  2  0
  2  3  1  0
  3  4  1  0
  5  4  1  1
  5  6  1  0
  6  7  1  0
  7  8  1  0
  5  9  1  0
  8  9  1  0
  2 10  1  0
 10 11  1  0
 11 12  2  0
 12 13  1  0
 13 14  2  0
 14 15  1  0
 11 16  1  0
 15 16  2  0
M  END
