pyridine_urea_5335
     RDKit          3D

 19 19  0  0  0  0  0  0  0  0999 V2000
   13.2590   -2.5030   24.1010 C   0  0  0  0  0  0  0  0  0  0  0  0
   11.8550   -2.2140   24.1140 O   0  0  0  0  0  0  0  0  0  0  0  0
   11.3070   -1.5190   23.0590 C   0  0  0  0  0  0  0  0  0  0  0  0
   11.7370   -1.6870   21.9260 O   0  0  0  0  0  0  0  0  0  0  0  0
   10.2440   -0.6370   23.3000 C   0  0  1  0  0  0  0  0  0  0  0  0
   10.5070    0.6960   23.0310 C   0  0  0  0  0  0  0  0  0  0  0  0
   11.7010    1.1580   23.5600 C   0  0  0  0  0  0  0  0  0  0  0  0
   11.8760    2.6210   23.1720 C   0  0  0  0  0  0  0  0  0  0  0  0
   12.8380    0.4300   23.1900 C   0  0  0  0  0  0  0  0  0  0  0  0
    9.1300   -1.0290   22.4080 N   0  0  0  0  0  0  0  0  0  0  0  0
    8.5280   -0.0960   21.5540 C   0  0  0  0  0  0  0  0  0  0  0  0
    9.0370    1.2230   21.2840 O   0  0  0  0  0  0  0  0  0  0  0  0
    7.3620   -0.6080   21.0180 N   0  0  0  0  0  0  0  0  0  0  0  0
    6.5530    0.0530   20.0730 C   0  0  0  0  0  0  0  0  0  0  0  0
    5.3960    0.7650   20.3470 C   0  0  0  0  0  0  0  0  0  0  0  0
    4.6810    1.3940   19.3290 C   0  0  0  0  0  0  0  0  0  0  0  0
    5.1710    1.2810   18.0320 C   0  0  0  0  0  0  0  0  0  0  0  0
    6.2840    0.5930   17.7280 N   0  0  0  0  0  0  0  0  0  0  0  0
    6.9410    0.0010   18.7440 C   0  0  0  0  0  0  0  0  0  0  0  0
  1  2  1  0
  2  3  1  0
  3  4  2  0
  3  5  1  0
  5  6  1  6
  6  7  1  0
  7  8  1  0
  7  9  1  0
  5 10  1  0
 10 11  1  0
 11 12  2  0
 11 13  1  0
 13 14  1  0
 14 15  2  0
 15 16  1  0
 16 17  2  0
 17 18  1  0
 14 19  1  0
 18 19  2  0
M  END
