pyridine_urea_6857
     RDKit          3D

 21 22  0  0  0  0  0  0  0  0999 V2000
    8.7390    0.9860   21.4470 O   0  0  0  0  0  0  0  0  0  0  0  0
    8.3400   -0.1700   21.4550 C   0  0  0  0  0  0  0  0  0  0  0  0
    7.1150   -0.6070   21.0290 N   0  0  0  0  0  0  0  0  0  0  0  0
    6.3690    0.0720   20.0710 C   0  0  0  0  0  0  0  0  0  0  0  0
    5.0520    0.8040   20.3630 C   0  0  0  0  0  0  0  0  0  0  0  0
    4.4450    1.4910   19.1450 C   0  0  0  0  0  0  0  0  0  0  0  0
    5.1800    1.3750   17.8490 C   0  0  0  0  0  0  0  0  0  0  0  0
    6.3300    0.6950   17.7090 N   0  0  0  0  0  0  0  0  0  0  0  0
    6.8720    0.0840   18.7790 C   0  0  0  0  0  0  0  0  0  0  0  0
    9.0930   -1.2230   21.8710 N   0  0  0  0  0  0  0  0  0  0  0  0
    9.8620   -1.1850   23.1000 C   0  0  2  0  0  0  0  0  0  0  0  0
    9.7970    0.0030   23.8490 C   0  0  0  0  0  0  0  0  0  0  0  0
    8.8080   -0.0660   24.5770 O   0  0  0  0  0  0  0  0  0  0  0  0
   11.3850   -1.0710   22.7320 C   0  0  0  0  0  0  0  0  0  0  0  0
   12.1680   -1.7780   22.1950 C   0  0  0  0  0  0  0  0  0  0  0  0
   13.0360   -0.7130   22.4330 C   0  0  0  0  0  0  0  0  0  0  0  0
   11.6700   -0.1180   23.0980 C   0  0  0  0  0  0  0  0  0  0  0  0
   11.0400    0.9000   23.7420 F   0  0  0  0  0  0  0  0  0  0  0  0
   12.6590    0.9570   23.2870 C   0  0  0  0  0  0  0  0  0  0  0  0
   12.7350   -0.1790   22.7540 C   0  0  0  0  0  0  0  0  0  0  0  0
   13.8270   -0.6630   22.2210 F   0  0  0  0  0  0  0  0  0  0  0  0
  1  2  2  0
  2  3  1  0
  3  4  1  0
  4  5  2  0
  5  6  1  0
  6  7  2  0
  7  8  1  0
  4  9  1  0
  8  9  2  0
  2 10  1  0
 10 11  1  0
 11 12  1  1
 12 13  1  0
 11 14  1  0
 14 15  2  0
 15 16  1  0
 16 17  2  0
 17 18  1  0
 17 19  1  0
 14 20  1  0
 19 20  2  0
 20 21  1  0
M  END
