pyridine_urea_875
     RDKit          3D

 22 23  0  0  0  0  0  0  0  0999 V2000
   12.8030   -2.3040   21.4350 C   0  0  0  0  0  0  0  0  0  0  0  0
   11.7470   -2.0620   22.3560 O   0  0  0  0  0  0  0  0  0  0  0  0
   11.8530   -0.8330   22.9230 C   0  0  0  0  0  0  0  0  0  0  0  0
   12.9600   -0.4170   23.2670 O   0  0  0  0  0  0  0  0  0  0  0  0
   10.6530   -0.0770   23.0810 C   0  0  1  0  0  0  0  0  0  0  0  0
    9.5240   -0.7350   22.3000 N   0  0  0  0  0  0  0  0  0  0  0  0
    8.6240   -0.0330   21.5160 C   0  0  0  0  0  0  0  0  0  0  0  0
    9.0330    1.3070   21.1820 O   0  0  0  0  0  0  0  0  0  0  0  0
    7.3680   -0.6660   21.1020 N   0  0  0  0  0  0  0  0  0  0  0  0
    6.6640   -0.0410   20.0930 C   0  0  0  0  0  0  0  0  0  0  0  0
    5.4060    0.7420   20.4400 C   0  0  0  0  0  0  0  0  0  0  0  0
    4.6000    1.4650   19.3590 C   0  0  0  0  0  0  0  0  0  0  0  0
    5.1990    1.3030   17.9760 C   0  0  0  0  0  0  0  0  0  0  0  0
    6.3240    0.5790   17.7530 N   0  0  0  0  0  0  0  0  0  0  0  0
    7.0350   -0.0750   18.7590 C   0  0  0  0  0  0  0  0  0  0  0  0
   10.5590    0.2830   24.4700 C   0  0  0  0  0  0  0  0  0  0  0  0
   11.5580    0.9820   23.9440 C   0  0  0  0  0  0  0  0  0  0  0  0
   11.6950    0.5520   22.6750 C   0  0  0  0  0  0  0  0  0  0  0  0
   10.7840   -0.4840   22.2300 C   0  0  0  0  0  0  0  0  0  0  0  0
    9.7300   -1.0900   23.0380 C   0  0  0  0  0  0  0  0  0  0  0  0
    9.5970   -0.6480   24.3360 C   0  0  0  0  0  0  0  0  0  0  0  0
    8.1730   -1.3990   25.6970 I   0  0  0  0  0  0  0  0  0  0  0  0
  1  2  1  0
  2  3  1  0
  3  4  2  0
  3  5  1  0
  5  6  1  1
  6  7  1  0
  7  8  2  0
  7  9  1  0
  9 10  1  0
 10 11  2  0
 11 12  1  0
 12 13  2  0
 13 14  1  0
 10 15  1  0
 14 15  2  0
  5 16  1  0
 16 17  2  0
 17 18  1  0
 18 19  2  0
 19 20  1  0
 16 21  1  0
 20 21  2  0
 21 22  1  0
M  END
