pyridine_urea_8701
     RDKit          3D

 21 22  0  0  0  0  0  0  0  0999 V2000
   13.4000   -1.9040   20.7750 C   0  0  0  0  0  0  0  0  0  0  0  0
   13.5380   -1.3080   22.4010 S   0  0  0  0  0  0  0  0  0  0  0  0
   14.0570   -2.3500   23.2570 O   0  0  0  0  0  0  0  0  0  0  0  0
   13.9180    0.0860   22.4540 O   0  0  0  0  0  0  0  0  0  0  0  0
   11.9400   -1.3080   22.9000 C   0  0  0  0  0  0  0  0  0  0  0  0
   11.8770   -1.2580   24.2230 C   0  0  0  0  0  0  0  0  0  0  0  0
   10.6570   -1.2810   24.7660 C   0  0  0  0  0  0  0  0  0  0  0  0
    9.5440   -1.3430   23.9860 C   0  0  0  0  0  0  0  0  0  0  0  0
    8.4800   -1.3600   24.5800 O   0  0  0  0  0  0  0  0  0  0  0  0
    9.6620   -1.3910   22.5160 C   0  0  0  0  0  0  0  0  0  0  0  0
    8.5040   -1.4570   21.7500 N   0  0  0  0  0  0  0  0  0  0  0  0
    7.9820   -0.2840   21.3470 C   0  0  0  0  0  0  0  0  0  0  0  0
    8.6640    0.7290   21.2520 O   0  0  0  0  0  0  0  0  0  0  0  0
    6.5980   -0.4570   21.0690 N   0  0  0  0  0  0  0  0  0  0  0  0
    6.1370    0.1710   19.9670 C   0  0  0  0  0  0  0  0  0  0  0  0
    4.9610    0.9040   20.0830 C   0  0  0  0  0  0  0  0  0  0  0  0
    4.4880    1.5630   18.9690 C   0  0  0  0  0  0  0  0  0  0  0  0
    5.2000    1.4690   17.7840 C   0  0  0  0  0  0  0  0  0  0  0  0
    6.3320    0.7590   17.6570 N   0  0  0  0  0  0  0  0  0  0  0  0
    6.7790    0.1230   18.7490 C   0  0  0  0  0  0  0  0  0  0  0  0
   10.9940   -1.3730   21.9500 C   0  0  0  0  0  0  0  0  0  0  0  0
  2  1  1  0
  2  3  2  0
  2  4  2  0
  2  5  1  0
  5  6  2  0
  6  7  1  0
  7  8  2  0
  8  9  1  0
  8 10  1  0
 10 11  1  0
 11 12  1  0
 12 13  2  0
 12 14  1  0
 14 15  1  0
 15 16  2  0
 16 17  1  0
 17 18  2  0
 18 19  1  0
 15 20  1  0
 19 20  2  0
  5 21  1  0
 10 21  2  0
M  END
