pyridine_urea_6148
     RDKit          3D

 24 26  0  0  0  0  0  0  0  0999 V2000
   11.2570   -3.0130   22.4530 C   0  0  0  0  0  0  0  0  0  0  0  0
   12.1750   -2.2840   22.4140 C   0  0  0  0  0  0  0  0  0  0  0  0
   13.4350   -1.2840   22.3590 C   0  0  0  0  0  0  0  0  0  0  0  0
   13.4200    0.2470   22.5570 C   0  0  0  0  0  0  0  0  0  0  0  0
   12.2250    0.8020   22.8110 C   0  0  0  0  0  0  0  0  0  0  0  0
   11.8680    1.9780   23.0090 C   0  0  0  0  0  0  0  0  0  0  0  0
   10.5670    2.4170   23.2640 C   0  0  0  0  0  0  0  0  0  0  0  0
    9.7460    1.3180   23.3460 C   0  0  0  0  0  0  0  0  0  0  0  0
    8.9990    2.1830   24.3370 C   0  0  0  0  0  0  0  0  0  0  0  0
   10.2810    0.0740   23.6550 C   0  0  0  0  0  0  0  0  0  0  0  0
    8.8040    1.1640   22.2100 N   0  0  0  0  0  0  0  0  0  0  0  0
    8.7410   -0.0030   21.3290 C   0  0  0  0  0  0  0  0  0  0  0  0
    9.0100   -1.1010   21.6390 O   0  0  0  0  0  0  0  0  0  0  0  0
    8.3410    0.4170   20.0950 N   0  0  0  0  0  0  0  0  0  0  0  0
    7.0800    0.6020   19.5460 C   0  0  0  0  0  0  0  0  0  0  0  0
    5.9590    1.0520   20.5030 C   0  0  0  0  0  0  0  0  0  0  0  0
    4.8710    1.1160   19.5050 C   0  0  0  0  0  0  0  0  0  0  0  0
    4.8960    0.8340   18.0350 C   0  0  0  0  0  0  0  0  0  0  0  0
    5.9800    0.4660   17.3920 N   0  0  0  0  0  0  0  0  0  0  0  0
    7.0090    0.3720   18.1860 C   0  0  0  0  0  0  0  0  0  0  0  0
   13.3630    1.8550   22.7930 C   0  0  0  0  0  0  0  0  0  0  0  0
   13.1850    0.2850   22.4690 N   0  0  0  0  0  0  0  0  0  0  0  0
   11.8670   -0.1810   22.7560 C   0  0  0  0  0  0  0  0  0  0  0  0
   11.2230   -1.2790   22.7490 C   0  0  0  0  0  0  0  0  0  0  0  0
  1  2  1  0
  2  3  2  0
  3  4  1  0
  4  5  2  0
  5  6  1  0
  6  7  1  0
  7  8  1  0
  8  9  1  0
  8 10  1  0
  8 11  1  0
 11 12  1  0
 12 13  2  0
 12 14  1  0
 14 15  1  0
 15 16  2  0
 16 17  1  0
 17 18  2  0
 18 19  1  0
 15 20  1  0
 19 20  2  0
  6 21  2  0
 21 22  1  0
  5 23  1  0
 22 23  1  0
  2 24  1  0
 23 24  2  0
M  END
