pyridine_urea_14054
     RDKit          3D

 23 24  0  0  0  0  0  0  0  0999 V2000
    3.1290   -7.8110   25.7510 C   0  0  0  0  0  0  0  0  0  0  0  0
    4.0160   -7.9560   24.6510 O   0  0  0  0  0  0  0  0  0  0  0  0
    4.7820   -6.7710   24.3830 C   0  0  0  0  0  0  0  0  0  0  0  0
    4.8740   -5.7050   25.4720 C   0  0  0  0  0  0  0  0  0  0  0  0
    5.6640   -4.4600   25.2640 C   0  0  0  0  0  0  0  0  0  0  0  0
    6.3540   -4.2100   24.0860 C   0  0  0  0  0  0  0  0  0  0  0  0
    7.0520   -2.9390   24.1010 N   0  0  0  0  0  0  0  0  0  0  0  0
    8.1870   -2.7280   23.3400 C   0  0  0  0  0  0  0  0  0  0  0  0
    8.6990   -3.6020   22.4490 O   0  0  0  0  0  0  0  0  0  0  0  0
    8.9820   -1.4820   23.4250 C   0  0  1  0  0  0  0  0  0  0  0  0
   10.1690   -1.6590   24.0220 C   0  0  0  0  0  0  0  0  0  0  0  0
    9.2610   -0.9990   22.0750 N   0  0  0  0  0  0  0  0  0  0  0  0
    8.4610   -0.0320   21.4110 C   0  0  0  0  0  0  0  0  0  0  0  0
    8.8280    1.1220   21.1380 O   0  0  0  0  0  0  0  0  0  0  0  0
    7.2420   -0.5450   21.1050 N   0  0  0  0  0  0  0  0  0  0  0  0
    6.5070    0.0910   20.1510 C   0  0  0  0  0  0  0  0  0  0  0  0
    5.3320    0.8040   20.3910 C   0  0  0  0  0  0  0  0  0  0  0  0
    4.6870    1.4090   19.3370 C   0  0  0  0  0  0  0  0  0  0  0  0
    5.2500    1.3010   17.9610 C   0  0  0  0  0  0  0  0  0  0  0  0
    6.3740    0.6160   17.7050 N   0  0  0  0  0  0  0  0  0  0  0  0
    6.9850    0.0260   18.7590 C   0  0  0  0  0  0  0  0  0  0  0  0
    6.2800   -5.2870   22.9500 C   0  0  0  0  0  0  0  0  0  0  0  0
    5.5620   -6.4780   23.0650 C   0  0  0  0  0  0  0  0  0  0  0  0
  1  2  1  0
  2  3  1  0
  3  4  2  0
  4  5  1  0
  5  6  2  0
  6  7  1  0
  7  8  1  0
  8  9  2  0
  8 10  1  0
 10 11  1  6
 10 12  1  0
 12 13  1  0
 13 14  2  0
 13 15  1  0
 15 16  1  0
 16 17  2  0
 17 18  1  0
 18 19  2  0
 19 20  1  0
 16 21  1  0
 20 21  2  0
  6 22  1  0
  3 23  1  0
 22 23  2  0
M  END
