pyridine_urea_636
     RDKit          3D

 24 25  0  0  0  0  0  0  0  0999 V2000
    7.7460    1.1910   28.4630 C   0  0  0  0  0  0  0  0  0  0  0  0
    7.6020    1.7520   27.0580 C   0  0  0  0  0  0  0  0  0  0  0  0
    8.6750    1.2580   26.1960 N   0  0  0  0  0  0  0  0  0  0  0  0
    9.3450    0.0740   26.6640 C   0  0  0  0  0  0  0  0  0  0  0  0
   10.0720   -0.4520   25.5980 C   0  0  0  0  0  0  0  0  0  0  0  0
    8.4670    1.2240   24.5420 S   0  0  0  0  0  0  0  0  0  0  0  0
    7.4990    0.1650   24.3640 O   0  0  0  0  0  0  0  0  0  0  0  0
    8.1460    2.5530   24.0750 O   0  0  0  0  0  0  0  0  0  0  0  0
   10.0250    0.5900   23.8230 C   0  0  0  0  0  0  0  0  0  0  0  0
   11.3710    0.8700   23.6990 C   0  0  0  0  0  0  0  0  0  0  0  0
   12.0990   -0.1530   22.9020 C   0  0  0  0  0  0  0  0  0  0  0  0
   11.4430   -1.2770   22.3550 C   0  0  0  0  0  0  0  0  0  0  0  0
   10.4230   -2.1450   22.0520 C   0  0  0  0  0  0  0  0  0  0  0  0
    9.3760   -1.5740   21.1790 N   0  0  0  0  0  0  0  0  0  0  0  0
    8.5570   -0.4250   21.3300 C   0  0  0  0  0  0  0  0  0  0  0  0
    8.9950    0.7030   21.5130 O   0  0  0  0  0  0  0  0  0  0  0  0
    7.2430   -0.7470   21.1840 N   0  0  0  0  0  0  0  0  0  0  0  0
    6.5640   -0.0690   20.0810 C   0  0  0  0  0  0  0  0  0  0  0  0
    5.3190    0.7210   20.3850 C   0  0  0  0  0  0  0  0  0  0  0  0
    4.6780    1.3810   19.3080 C   0  0  0  0  0  0  0  0  0  0  0  0
    5.1890    1.2960   18.0160 C   0  0  0  0  0  0  0  0  0  0  0  0
    6.3090    0.5710   17.7870 N   0  0  0  0  0  0  0  0  0  0  0  0
    7.0060   -0.1140   18.7730 C   0  0  0  0  0  0  0  0  0  0  0  0
    9.8710   -0.8420   22.9870 S   0  0  0  0  0  0  0  0  0  0  0  0
  1  2  1  0
  2  3  1  0
  3  4  1  0
  4  5  1  0
  6  3  1  0
  6  7  2  0
  6  8  2  0
  6  9  1  0
  9 10  2  0
 10 11  1  0
 11 12  2  0
 12 13  1  0
 13 14  1  0
 14 15  1  0
 15 16  2  0
 15 17  1  0
 17 18  1  0
 18 19  2  0
 19 20  1  0
 20 21  2  0
 21 22  1  0
 18 23  1  0
 22 23  2  0
  9 24  1  0
 12 24  1  0
M  END
