pyridine_urea_11197
     RDKit          3D

 17 18  0  0  0  0  0  0  0  0999 V2000
   10.0790    2.6950   22.3980 C   0  0  0  0  0  0  0  0  0  0  0  0
   11.7410    2.0590   22.7930 S   0  0  0  0  0  0  0  0  0  0  0  0
   11.3580    0.3070   23.1630 C   0  0  0  0  0  0  0  0  0  0  0  0
    9.9470   -0.3290   23.0940 C   0  0  0  0  0  0  0  0  0  0  0  0
    9.6160   -0.7670   21.7290 N   0  0  0  0  0  0  0  0  0  0  0  0
    8.4780    0.0770   21.2780 C   0  0  0  0  0  0  0  0  0  0  0  0
    8.6340    1.4680   20.9870 O   0  0  0  0  0  0  0  0  0  0  0  0
    7.3010   -0.6340   21.1550 N   0  0  0  0  0  0  0  0  0  0  0  0
    6.7160   -0.0870   20.1030 C   0  0  0  0  0  0  0  0  0  0  0  0
    5.4850    0.7480   20.4700 C   0  0  0  0  0  0  0  0  0  0  0  0
    4.7410    1.4210   19.3840 C   0  0  0  0  0  0  0  0  0  0  0  0
    5.2120    1.2450   18.1380 C   0  0  0  0  0  0  0  0  0  0  0  0
    6.2980    0.5060   17.7970 N   0  0  0  0  0  0  0  0  0  0  0  0
    7.0160   -0.1370   18.7630 C   0  0  0  0  0  0  0  0  0  0  0  0
   12.0420   -0.1410   24.4420 C   0  0  0  0  0  0  0  0  0  0  0  0
   12.7150   -1.1120   23.7780 C   0  0  0  0  0  0  0  0  0  0  0  0
   12.2220   -0.8450   22.5110 C   0  0  0  0  0  0  0  0  0  0  0  0
  1  2  1  0
  3  2  1  0
  3  4  1  0
  4  5  1  0
  5  6  1  0
  6  7  2  0
  6  8  1  0
  8  9  1  0
  9 10  2  0
 10 11  1  0
 11 12  2  0
 12 13  1  0
  9 14  1  0
 13 14  2  0
  3 15  1  0
 15 16  1  0
  3 17  1  0
 16 17  1  0
M  END
