pyridine_urea_5032
     RDKit          3D

 20 21  0  0  0  0  0  0  0  0999 V2000
   13.2540    5.0200   22.9520 C   0  0  0  0  0  0  0  0  0  0  0  0
   12.2380    4.1230   23.1810 N   0  0  0  0  0  0  0  0  0  0  0  0
   10.8740    4.4200   23.0130 C   0  0  0  0  0  0  0  0  0  0  0  0
   12.6010    2.8320   22.5380 C   0  0  0  0  0  0  0  0  0  0  0  0
   12.0170    1.6610   23.0380 C   0  0  1  0  0  0  0  0  0  0  0  0
   10.6660    1.7510   23.0590 C   0  0  0  0  0  0  0  0  0  0  0  0
   10.0100    0.4710   23.3480 C   0  0  0  0  0  0  0  0  0  0  0  0
   10.2460   -0.3970   22.3840 C   0  0  2  0  0  0  0  0  0  0  0  0
    8.9970   -1.1400   22.3210 N   0  0  0  0  0  0  0  0  0  0  0  0
    8.1360   -0.8610   21.2660 C   0  0  0  0  0  0  0  0  0  0  0  0
    8.4530   -1.1020   20.1780 O   0  0  0  0  0  0  0  0  0  0  0  0
    6.9370   -0.3190   21.5180 N   0  0  0  0  0  0  0  0  0  0  0  0
    6.3180    0.2140   20.4000 C   0  0  0  0  0  0  0  0  0  0  0  0
    5.1430    0.9510   20.4480 C   0  0  0  0  0  0  0  0  0  0  0  0
    4.5930    1.4600   19.2670 C   0  0  0  0  0  0  0  0  0  0  0  0
    5.2340    1.2190   18.0530 C   0  0  0  0  0  0  0  0  0  0  0  0
    6.3640    0.5090   17.9610 N   0  0  0  0  0  0  0  0  0  0  0  0
    6.8730    0.0230   19.1190 C   0  0  0  0  0  0  0  0  0  0  0  0
   11.6460   -0.9680   22.4330 C   0  0  0  0  0  0  0  0  0  0  0  0
   12.5280    0.1980   22.6220 C   0  0  0  0  0  0  0  0  0  0  0  0
  1  2  1  0
  2  3  1  0
  2  4  1  0
  5  4  1  6
  5  6  1  0
  6  7  1  0
  7  8  1  0
  8  9  1  1
  9 10  1  0
 10 11  2  0
 10 12  1  0
 12 13  1  0
 13 14  2  0
 14 15  1  0
 15 16  2  0
 16 17  1  0
 13 18  1  0
 17 18  2  0
  8 19  1  0
  5 20  1  0
 19 20  1  0
M  END
