pyridine_urea_13245
     RDKit          3D

 16 16  0  0  0  0  0  0  0  0999 V2000
   13.4210   -2.9160   25.2140 C   0  0  0  0  0  0  0  0  0  0  0  0
   13.0400   -1.6200   24.8290 O   0  0  0  0  0  0  0  0  0  0  0  0
   13.1610   -1.6240   23.4190 N   0  0  0  0  0  0  0  0  0  0  0  0
   12.6280   -0.4480   22.8890 C   0  0  0  0  0  0  0  0  0  0  0  0
   11.3200   -0.5330   22.4110 C   0  0  0  0  0  0  0  0  0  0  0  0
   10.2870   -0.9580   23.2230 C   0  0  0  0  0  0  0  0  0  0  0  0
    9.0480   -1.2260   22.4690 N   0  0  0  0  0  0  0  0  0  0  0  0
    8.4960   -0.2660   21.6460 C   0  0  0  0  0  0  0  0  0  0  0  0
    9.0110    0.8200   21.4380 O   0  0  0  0  0  0  0  0  0  0  0  0
    7.2950   -0.6910   21.1180 N   0  0  0  0  0  0  0  0  0  0  0  0
    6.5870   -0.0280   20.1010 C   0  0  0  0  0  0  0  0  0  0  0  0
    5.4430    0.7010   20.3880 C   0  0  0  0  0  0  0  0  0  0  0  0
    4.6960    1.4240   19.2820 C   0  0  0  0  0  0  0  0  0  0  0  0
    5.1740    1.3420   17.9880 C   0  0  0  0  0  0  0  0  0  0  0  0
    6.2890    0.6200   17.7250 N   0  0  0  0  0  0  0  0  0  0  0  0
    6.9340   -0.0170   18.7530 C   0  0  0  0  0  0  0  0  0  0  0  0
  1  2  1  0
  2  3  1  0
  3  4  1  0
  4  5  1  0
  5  6  1  0
  6  7  1  0
  7  8  1  0
  8  9  2  0
  8 10  1  0
 10 11  1  0
 11 12  2  0
 12 13  1  0
 13 14  2  0
 14 15  1  0
 11 16  1  0
 15 16  2  0
M  END
