pyridine_urea_3721
     RDKit          3D

 25 27  0  0  0  0  0  0  0  0999 V2000
    8.7860    0.8100   21.2620 O   0  0  0  0  0  0  0  0  0  0  0  0
    8.3120   -0.3140   21.3860 C   0  0  0  0  0  0  0  0  0  0  0  0
    8.9900   -1.3530   21.9690 N   0  0  0  0  0  0  0  0  0  0  0  0
    9.1770   -1.3260   23.3950 C   0  0  0  0  0  0  0  0  0  0  0  0
   10.6320   -1.4350   23.7590 C   0  0  0  0  0  0  0  0  0  0  0  0
   10.1410   -0.1390   23.0650 C   0  0  0  0  0  0  0  0  0  0  0  0
   10.9340    1.0860   22.6730 C   0  0  0  0  0  0  0  0  0  0  0  0
   12.3690    1.1740   22.9360 C   0  0  0  0  0  0  0  0  0  0  0  0
   13.0100    2.1630   22.6190 O   0  0  0  0  0  0  0  0  0  0  0  0
   12.3770    3.3730   22.7040 C   0  0  0  0  0  0  0  0  0  0  0  0
   13.0350    4.5300   22.2750 C   0  0  0  0  0  0  0  0  0  0  0  0
   12.4350    5.7760   22.3490 C   0  0  0  0  0  0  0  0  0  0  0  0
   11.1540    5.8790   22.8580 C   0  0  0  0  0  0  0  0  0  0  0  0
   10.4650    4.7480   23.2950 C   0  0  0  0  0  0  0  0  0  0  0  0
   11.0730    3.4960   23.2170 C   0  0  0  0  0  0  0  0  0  0  0  0
   12.8840   -0.0240   23.5890 C   0  0  0  0  0  0  0  0  0  0  0  0
   12.1590   -1.1290   23.9460 C   0  0  0  0  0  0  0  0  0  0  0  0
   12.9050   -2.0820   24.5420 F   0  0  0  0  0  0  0  0  0  0  0  0
    7.0670   -0.7010   20.9800 N   0  0  0  0  0  0  0  0  0  0  0  0
    6.3480    0.0080   20.0180 C   0  0  0  0  0  0  0  0  0  0  0  0
    5.1590    0.7010   20.2460 C   0  0  0  0  0  0  0  0  0  0  0  0
    4.5740    1.3690   19.1860 C   0  0  0  0  0  0  0  0  0  0  0  0
    5.1850    1.3330   17.9340 C   0  0  0  0  0  0  0  0  0  0  0  0
    6.3240    0.6640   17.7030 N   0  0  0  0  0  0  0  0  0  0  0  0
    6.8710    0.0220   18.7460 C   0  0  0  0  0  0  0  0  0  0  0  0
  1  2  2  0
  2  3  1  0
  3  4  1  0
  4  5  1  0
  5  6  2  0
  6  7  1  0
  7  8  2  0
  8  9  1  0
  9 10  1  0
 10 11  2  0
 11 12  1  0
 12 13  2  0
 13 14  1  0
 10 15  1  0
 14 15  2  0
  8 16  1  0
  5 17  1  0
 16 17  2  0
 17 18  1  0
  2 19  1  0
 19 20  1  0
 20 21  2  0
 21 22  1  0
 22 23  2  0
 23 24  1  0
 20 25  1  0
 24 25  2  0
M  END
