pyridine_urea_2665
     RDKit          3D

 23 24  0  0  0  0  0  0  0  0999 V2000
    5.6770   -6.1680   20.1280 C   0  0  0  0  0  0  0  0  0  0  0  0
    5.3020   -5.0430   19.9540 O   0  0  0  0  0  0  0  0  0  0  0  0
    5.4960   -4.4900   21.1420 C   0  0  0  0  0  0  0  0  0  0  0  0
    5.8540   -5.3930   22.1300 C   0  0  0  0  0  0  0  0  0  0  0  0
    6.1170   -5.0370   23.4190 C   0  0  0  0  0  0  0  0  0  0  0  0
    5.9960   -3.6830   23.6520 C   0  0  0  0  0  0  0  0  0  0  0  0
    6.2750   -3.2070   24.8910 C   0  0  0  0  0  0  0  0  0  0  0  0
    7.6250   -2.8080   24.6080 N   0  0  0  0  0  0  0  0  0  0  0  0
    8.3650   -3.5490   23.7260 C   0  0  0  0  0  0  0  0  0  0  0  0
    7.6310   -1.4660   24.4080 C   0  0  0  0  0  0  0  0  0  0  0  0
    8.6740   -1.0900   23.5410 C   0  0  0  0  0  0  0  0  0  0  0  0
    8.1990   -0.2020   22.6110 N   0  0  0  0  0  0  0  0  0  0  0  0
    8.4970   -0.1440   21.2440 C   0  0  0  0  0  0  0  0  0  0  0  0
    9.6320    0.1590   21.5640 O   0  0  0  0  0  0  0  0  0  0  0  0
    7.1900   -0.4830   21.2080 N   0  0  0  0  0  0  0  0  0  0  0  0
    6.4940    0.0870   20.1970 C   0  0  0  0  0  0  0  0  0  0  0  0
    5.3280    0.8230   20.3160 C   0  0  0  0  0  0  0  0  0  0  0  0
    4.6420    1.4120   19.2590 C   0  0  0  0  0  0  0  0  0  0  0  0
    5.1820    1.2410   17.9910 C   0  0  0  0  0  0  0  0  0  0  0  0
    6.3100    0.5330   17.7750 N   0  0  0  0  0  0  0  0  0  0  0  0
    6.9520   -0.0400   18.8910 C   0  0  0  0  0  0  0  0  0  0  0  0
    5.6200   -2.7590   22.6610 C   0  0  0  0  0  0  0  0  0  0  0  0
    5.3620   -3.1630   21.3680 C   0  0  0  0  0  0  0  0  0  0  0  0
  1  2  1  0
  2  3  1  0
  3  4  2  0
  4  5  1  0
  5  6  2  0
  6  7  1  0
  7  8  1  0
  8  9  1  0
  8 10  1  0
 10 11  1  0
 11 12  1  0
 12 13  1  0
 13 14  2  0
 13 15  1  0
 15 16  1  0
 16 17  2  0
 17 18  1  0
 18 19  2  0
 19 20  1  0
 16 21  1  0
 20 21  2  0
  6 22  1  0
  3 23  1  0
 22 23  2  0
M  END
