pyridine_urea_5515
     RDKit          3D

 17 18  0  0  0  0  0  0  0  0999 V2000
    9.0060    1.5070   21.2260 O   0  0  0  0  0  0  0  0  0  0  0  0
    8.5530    0.4490   21.6510 C   0  0  0  0  0  0  0  0  0  0  0  0
    9.1200   -0.2180   22.7000 N   0  0  0  0  0  0  0  0  0  0  0  0
    9.5770   -1.5470   22.4180 C   0  0  0  0  0  0  0  0  0  0  0  0
   11.1010   -1.7540   22.1930 C   0  0  0  0  0  0  0  0  0  0  0  0
   12.1810   -1.9210   21.4030 C   0  0  0  0  0  0  0  0  0  0  0  0
   13.4610   -2.0930   22.7450 S   0  0  0  0  0  0  0  0  0  0  0  0
   12.3480   -1.9190   24.1820 C   0  0  0  0  0  0  0  0  0  0  0  0
   13.4880   -2.1190   25.4100 Cl  0  0  0  0  0  0  0  0  0  0  0  0
   12.2480   -1.9040   22.9570 C   0  0  0  0  0  0  0  0  0  0  0  0
    7.4440   -0.2120   21.1830 N   0  0  0  0  0  0  0  0  0  0  0  0
    6.6960    0.2500   20.0190 C   0  0  0  0  0  0  0  0  0  0  0  0
    5.4990    1.1170   20.4180 C   0  0  0  0  0  0  0  0  0  0  0  0
    4.6670    1.6840   19.2700 C   0  0  0  0  0  0  0  0  0  0  0  0
    5.1450    1.3110   17.8800 C   0  0  0  0  0  0  0  0  0  0  0  0
    6.2310    0.5090   17.6950 N   0  0  0  0  0  0  0  0  0  0  0  0
    7.0040   -0.0240   18.7090 C   0  0  0  0  0  0  0  0  0  0  0  0
  1  2  2  0
  2  3  1  0
  3  4  1  0
  4  5  1  0
  5  6  2  0
  6  7  1  0
  7  8  1  0
  8  9  1  0
  5 10  1  0
  8 10  2  0
  2 11  1  0
 11 12  1  0
 12 13  2  0
 13 14  1  0
 14 15  2  0
 15 16  1  0
 12 17  1  0
 16 17  2  0
M  END
