pyridine_urea_10125
     RDKit          3D

 23 24  0  0  0  0  0  0  0  0999 V2000
   14.5270    3.2010   18.9910 C   0  0  0  0  0  0  0  0  0  0  0  0
   14.9840    1.7740   19.0230 C   0  0  0  0  0  0  0  0  0  0  0  0
   16.2460    1.8100   18.8760 C   0  0  0  0  0  0  0  0  0  0  0  0
   14.5410    1.0890   17.8850 O   0  0  0  0  0  0  0  0  0  0  0  0
   14.5620    1.0730   20.3430 C   0  0  0  0  0  0  0  0  0  0  0  0
   13.9900   -0.2150   20.5450 O   0  0  0  0  0  0  0  0  0  0  0  0
   13.1240   -0.7000   21.8100 C   0  0  0  0  0  0  0  0  0  0  0  0
   13.5520   -0.4100   23.0050 C   0  0  0  0  0  0  0  0  0  0  0  0
   12.9820   -0.7080   24.3020 C   0  0  0  0  0  0  0  0  0  0  0  0
   11.8500   -1.3390   24.2520 C   0  0  0  0  0  0  0  0  0  0  0  0
   11.3530   -1.6370   23.0160 C   0  0  0  0  0  0  0  0  0  0  0  0
   11.8050   -1.4210   21.6690 C   0  0  0  0  0  0  0  0  0  0  0  0
   10.6010   -2.0490   21.9920 C   0  0  0  0  0  0  0  0  0  0  0  0
    9.4130   -1.6210   21.3400 N   0  0  0  0  0  0  0  0  0  0  0  0
    8.6490   -0.4710   21.5340 C   0  0  0  0  0  0  0  0  0  0  0  0
    9.0690    0.5910   21.9560 O   0  0  0  0  0  0  0  0  0  0  0  0
    7.3180   -0.6890   21.1720 N   0  0  0  0  0  0  0  0  0  0  0  0
    6.5950   -0.0160   20.0890 C   0  0  0  0  0  0  0  0  0  0  0  0
    5.4360    0.7150   20.3900 C   0  0  0  0  0  0  0  0  0  0  0  0
    4.7400    1.3700   19.3710 C   0  0  0  0  0  0  0  0  0  0  0  0
    5.2240    1.2770   18.0750 C   0  0  0  0  0  0  0  0  0  0  0  0
    6.3240    0.5800   17.7600 N   0  0  0  0  0  0  0  0  0  0  0  0
    6.9810   -0.0480   18.7600 C   0  0  0  0  0  0  0  0  0  0  0  0
  1  2  1  0
  2  3  1  0
  2  4  1  0
  2  5  1  0
  5  6  1  0
  6  7  1  0
  7  8  2  0
  8  9  1  0
  9 10  2  0
 10 11  1  0
  7 12  1  0
 11 12  2  0
 12 13  1  0
 13 14  1  0
 14 15  1  0
 15 16  2  0
 15 17  1  0
 17 18  1  0
 18 19  2  0
 19 20  1  0
 20 21  2  0
 21 22  1  0
 18 23  1  0
 22 23  2  0
M  END
