pyridine_urea_5789
     RDKit          3D

 20 22  0  0  0  0  0  0  0  0999 V2000
    8.8550    1.2840   21.1570 O   0  0  0  0  0  0  0  0  0  0  0  0
    8.6190    0.1070   21.4660 C   0  0  0  0  0  0  0  0  0  0  0  0
    7.3390   -0.5240   21.1180 N   0  0  0  0  0  0  0  0  0  0  0  0
    6.5910    0.0800   20.1010 C   0  0  0  0  0  0  0  0  0  0  0  0
    5.4570    0.8390   20.4090 C   0  0  0  0  0  0  0  0  0  0  0  0
    4.7470    1.4380   19.3620 C   0  0  0  0  0  0  0  0  0  0  0  0
    5.1910    1.2590   18.0520 C   0  0  0  0  0  0  0  0  0  0  0  0
    6.2680    0.5280   17.7420 N   0  0  0  0  0  0  0  0  0  0  0  0
    6.9450   -0.0480   18.7710 C   0  0  0  0  0  0  0  0  0  0  0  0
    9.4710   -0.7660   22.1360 N   0  0  0  0  0  0  0  0  0  0  0  0
   10.2050   -0.3980   23.3550 C   0  0  2  0  0  0  0  0  0  0  0  0
   10.2220    1.0810   23.6800 C   0  0  0  0  0  0  0  0  0  0  0  0
   11.3730    1.3870   23.9550 O   0  0  0  0  0  0  0  0  0  0  0  0
   12.1800    0.4710   23.3370 C   0  0  0  0  0  0  0  0  0  0  0  0
   11.5630   -0.7770   23.3920 C   0  0  2  0  0  0  0  0  0  0  0  0
   12.0580   -1.6930   22.5330 N   0  0  0  0  0  0  0  0  0  0  0  0
   13.2720   -2.4750   22.6150 C   0  0  0  0  0  0  0  0  0  0  0  0
   13.2260   -3.1840   21.4700 C   0  0  0  0  0  0  0  0  0  0  0  0
   12.1130   -2.8410   20.8310 C   0  0  0  0  0  0  0  0  0  0  0  0
   11.3200   -1.9250   21.4080 N   0  0  0  0  0  0  0  0  0  0  0  0
  1  2  2  0
  2  3  1  0
  3  4  1  0
  4  5  2  0
  5  6  1  0
  6  7  2  0
  7  8  1  0
  4  9  1  0
  8  9  2  0
  2 10  1  0
 11 10  1  6
 11 12  1  0
 12 13  1  0
 13 14  1  0
 11 15  1  0
 14 15  1  0
 15 16  1  6
 16 17  1  0
 17 18  2  0
 18 19  1  0
 16 20  1  0
 19 20  2  0
M  END
