pyridine_urea_1449
     RDKit          3D

 20 21  0  0  0  0  0  0  0  0999 V2000
    8.8220    1.0780   21.1630 O   0  0  0  0  0  0  0  0  0  0  0  0
    8.2670    0.0000   21.4410 C   0  0  0  0  0  0  0  0  0  0  0  0
    8.8240   -0.9220   22.2750 N   0  0  0  0  0  0  0  0  0  0  0  0
   10.2410   -0.8960   22.4260 C   0  0  0  0  0  0  0  0  0  0  0  0
   10.6560    0.3170   23.2660 C   0  0  1  0  0  0  0  0  0  0  0  0
    9.6140    0.4530   24.2890 O   0  0  0  0  0  0  0  0  0  0  0  0
   11.8890    0.2230   23.8540 C   0  0  0  0  0  0  0  0  0  0  0  0
   11.9320   -1.0270   24.4440 N   0  0  0  0  0  0  0  0  0  0  0  0
   13.1110   -1.6360   24.8960 C   0  0  0  0  0  0  0  0  0  0  0  0
   13.0390   -3.0120   24.9900 C   0  0  0  0  0  0  0  0  0  0  0  0
   12.0990   -3.3710   25.6750 O   0  0  0  0  0  0  0  0  0  0  0  0
   10.8450   -2.9380   25.1650 C   0  0  0  0  0  0  0  0  0  0  0  0
   10.7650   -1.5600   24.9600 C   0  0  0  0  0  0  0  0  0  0  0  0
    7.0610   -0.4460   20.9920 N   0  0  0  0  0  0  0  0  0  0  0  0
    6.4130    0.1580   19.9970 C   0  0  0  0  0  0  0  0  0  0  0  0
    5.2270    0.8480   20.2750 C   0  0  0  0  0  0  0  0  0  0  0  0
    4.5860    1.4870   19.2160 C   0  0  0  0  0  0  0  0  0  0  0  0
    5.1800    1.4110   17.8520 C   0  0  0  0  0  0  0  0  0  0  0  0
    6.3090    0.7280   17.6390 N   0  0  0  0  0  0  0  0  0  0  0  0
    6.8810    0.1310   18.6990 C   0  0  0  0  0  0  0  0  0  0  0  0
  1  2  2  0
  2  3  1  0
  3  4  1  0
  4  5  1  0
  5  6  1  1
  5  7  1  0
  7  8  1  0
  8  9  1  0
  9 10  1  0
 10 11  1  0
 11 12  1  0
  8 13  1  0
 12 13  1  0
  2 14  1  0
 14 15  1  0
 15 16  2  0
 16 17  1  0
 17 18  2  0
 18 19  1  0
 15 20  1  0
 19 20  2  0
M  END
