pyridine_urea_716
     RDKit          3D

 24 25  0  0  0  0  0  0  0  0999 V2000
   11.7670   -0.3000   23.3160 C   0  0  0  0  0  0  0  0  0  0  0  0
   11.3340   -1.6730   22.8480 C   0  0  0  0  0  0  0  0  0  0  0  0
   12.1000   -2.1820   21.8050 C   0  0  0  0  0  0  0  0  0  0  0  0
    9.8180   -1.7120   22.4630 C   0  0  2  0  0  0  0  0  0  0  0  0
    9.1620   -0.4040   22.5770 N   0  0  0  0  0  0  0  0  0  0  0  0
    8.4980    0.1890   21.4990 C   0  0  0  0  0  0  0  0  0  0  0  0
    8.8570    1.3100   21.1020 O   0  0  0  0  0  0  0  0  0  0  0  0
    7.4660   -0.5320   20.9890 N   0  0  0  0  0  0  0  0  0  0  0  0
    6.7180    0.0610   20.0360 C   0  0  0  0  0  0  0  0  0  0  0  0
    5.4670    0.9070   20.3730 C   0  0  0  0  0  0  0  0  0  0  0  0
    4.7310    1.5120   19.3450 C   0  0  0  0  0  0  0  0  0  0  0  0
    5.1600    1.3290   18.0290 C   0  0  0  0  0  0  0  0  0  0  0  0
    6.2590    0.5770   17.7320 N   0  0  0  0  0  0  0  0  0  0  0  0
    7.0320   -0.0530   18.7050 C   0  0  0  0  0  0  0  0  0  0  0  0
    9.0530   -2.6990   23.3660 C   0  0  0  0  0  0  0  0  0  0  0  0
    9.6750   -3.5460   23.9730 O   0  0  0  0  0  0  0  0  0  0  0  0
    7.6960   -2.5580   23.4670 N   0  0  0  0  0  0  0  0  0  0  0  0
    7.2970   -1.3160   23.8400 C   0  0  0  0  0  0  0  0  0  0  0  0
    6.9180   -3.6780   23.7390 C   0  0  0  0  0  0  0  0  0  0  0  0
    7.4140   -4.8360   23.1640 C   0  0  0  0  0  0  0  0  0  0  0  0
    6.4830   -5.8330   22.9110 C   0  0  0  0  0  0  0  0  0  0  0  0
    5.4240   -5.4130   22.1230 C   0  0  0  0  0  0  0  0  0  0  0  0
    4.9950   -4.1010   22.3410 C   0  0  0  0  0  0  0  0  0  0  0  0
    5.6020   -3.3370   23.3350 C   0  0  0  0  0  0  0  0  0  0  0  0
  1  2  1  0
  2  3  1  0
  2  4  1  0
  4  5  1  1
  5  6  1  0
  6  7  2  0
  6  8  1  0
  8  9  1  0
  9 10  2  0
 10 11  1  0
 11 12  2  0
 12 13  1  0
  9 14  1  0
 13 14  2  0
  4 15  1  0
 15 16  2  0
 15 17  1  0
 17 18  1  0
 17 19  1  0
 19 20  1  0
 20 21  1  0
 21 22  1  0
 22 23  1  0
 19 24  1  0
 23 24  1  0
M  END
