pyridine_urea_11046
     RDKit          3D

 19 20  0  0  0  0  0  0  0  0999 V2000
   13.7990   -2.4230   25.0930 C   0  0  0  0  0  0  0  0  0  0  0  0
   13.8150   -1.2040   24.3360 O   0  0  0  0  0  0  0  0  0  0  0  0
   12.6630   -1.1100   23.7500 C   0  0  0  0  0  0  0  0  0  0  0  0
   12.4640   -1.2880   22.4590 C   0  0  0  0  0  0  0  0  0  0  0  0
   11.1780   -1.1890   22.1490 C   0  0  0  0  0  0  0  0  0  0  0  0
   10.1030   -0.9540   22.8640 N   0  0  0  0  0  0  0  0  0  0  0  0
    9.9340   -0.7030   24.2600 C   0  0  0  0  0  0  0  0  0  0  0  0
    8.6350   -0.6840   23.5670 C   0  0  0  0  0  0  0  0  0  0  0  0
    8.8130    0.3670   22.7550 N   0  0  0  0  0  0  0  0  0  0  0  0
    8.2870    0.5720   21.4900 C   0  0  0  0  0  0  0  0  0  0  0  0
    8.7340    1.6710   20.8310 O   0  0  0  0  0  0  0  0  0  0  0  0
    7.3690   -0.3290   21.0670 N   0  0  0  0  0  0  0  0  0  0  0  0
    6.6080    0.2010   20.0970 C   0  0  0  0  0  0  0  0  0  0  0  0
    5.4550    0.9620   20.2930 C   0  0  0  0  0  0  0  0  0  0  0  0
    4.7130    1.5150   19.2320 C   0  0  0  0  0  0  0  0  0  0  0  0
    5.1360    1.3020   17.9290 C   0  0  0  0  0  0  0  0  0  0  0  0
    6.2800    0.5340   17.7420 N   0  0  0  0  0  0  0  0  0  0  0  0
    6.9950   -0.0060   18.7910 C   0  0  0  0  0  0  0  0  0  0  0  0
   11.4580   -0.8080   24.6270 C   0  0  0  0  0  0  0  0  0  0  0  0
  1  2  1  0
  2  3  1  0
  3  4  2  0
  4  5  1  0
  5  6  2  0
  6  7  1  0
  7  8  1  0
  8  9  1  0
  9 10  1  0
 10 11  2  0
 10 12  1  0
 12 13  1  0
 13 14  2  0
 14 15  1  0
 15 16  2  0
 16 17  1  0
 13 18  1  0
 17 18  2  0
  3 19  1  0
  7 19  2  0
M  END
