pyridine_urea_13841
     RDKit          3D

 24 26  0  0  0  0  0  0  0  0999 V2000
   14.4190   -2.6830   26.0050 C   0  0  0  0  0  0  0  0  0  0  0  0
   13.5700   -2.9850   25.2710 C   0  0  0  0  0  0  0  0  0  0  0  0
   12.8200   -1.7810   25.0710 O   0  0  0  0  0  0  0  0  0  0  0  0
   12.3490   -1.7940   23.8090 C   0  0  0  0  0  0  0  0  0  0  0  0
   13.4350   -2.1730   22.8420 C   0  0  0  0  0  0  0  0  0  0  0  0
   13.1380   -2.2520   21.5230 C   0  0  0  0  0  0  0  0  0  0  0  0
   11.7850   -1.9870   21.0520 C   0  0  0  0  0  0  0  0  0  0  0  0
   11.8880   -1.8280   22.4750 C   0  0  0  0  0  0  0  0  0  0  0  0
   13.0130   -1.9690   23.2870 N   0  0  0  0  0  0  0  0  0  0  0  0
   12.6080   -1.7120   24.6280 C   0  0  0  0  0  0  0  0  0  0  0  0
   11.0980   -1.3680   24.8820 C   0  0  0  0  0  0  0  0  0  0  0  0
    9.8580   -1.1910   24.2870 C   0  0  0  0  0  0  0  0  0  0  0  0
    9.7580   -1.0780   22.9130 C   0  0  0  0  0  0  0  0  0  0  0  0
    8.5360   -0.5840   22.6250 N   0  0  0  0  0  0  0  0  0  0  0  0
    8.1740    0.0950   21.4770 C   0  0  0  0  0  0  0  0  0  0  0  0
    8.7810    1.3410   21.0340 O   0  0  0  0  0  0  0  0  0  0  0  0
    7.1840   -0.6120   20.9100 N   0  0  0  0  0  0  0  0  0  0  0  0
    6.4820    0.0610   20.0010 C   0  0  0  0  0  0  0  0  0  0  0  0
    5.2430    0.8490   20.2400 C   0  0  0  0  0  0  0  0  0  0  0  0
    4.5800    1.5630   19.1060 C   0  0  0  0  0  0  0  0  0  0  0  0
    5.1670    1.4560   17.8470 C   0  0  0  0  0  0  0  0  0  0  0  0
    6.2850    0.7390   17.6040 N   0  0  0  0  0  0  0  0  0  0  0  0
    6.9330    0.0400   18.7080 C   0  0  0  0  0  0  0  0  0  0  0  0
   11.0290   -1.5230   23.4010 C   0  0  0  0  0  0  0  0  0  0  0  0
  1  2  1  0
  2  3  1  0
  3  4  1  0
  4  5  2  0
  5  6  1  0
  6  7  2  0
  7  8  1  0
  8  9  1  0
  9 10  1  0
 10 11  2  0
 11 12  1  0
 12 13  1  0
 13 14  1  0
 14 15  1  0
 15 16  2  0
 15 17  1  0
 17 18  1  0
 18 19  2  0
 19 20  1  0
 20 21  2  0
 21 22  1  0
 18 23  1  0
 22 23  2  0
  4 24  1  0
  8 24  2  0
 11 24  1  0
M  END
