pyridine_urea_9649
     RDKit          3D

 27 28  0  0  0  0  0  0  0  0999 V2000
   12.6290   -1.8550   22.1670 C   0  0  0  0  0  0  0  0  0  0  0  0
   11.9300   -0.5360   22.5430 C   0  0  0  0  0  0  0  0  0  0  0  0
   12.7780    0.7270   22.7070 C   0  0  0  0  0  0  0  0  0  0  0  0
   12.0110    1.9990   23.0290 C   0  0  0  0  0  0  0  0  0  0  0  0
   12.5830    3.4410   23.1270 C   0  0  0  0  0  0  0  0  0  0  0  0
   13.7980    3.6360   22.6040 F   0  0  0  0  0  0  0  0  0  0  0  0
   11.7750    4.3060   22.1870 C   0  0  0  0  0  0  0  0  0  0  0  0
   11.5630    5.5600   22.6620 F   0  0  0  0  0  0  0  0  0  0  0  0
   12.3840    4.4100   20.9900 F   0  0  0  0  0  0  0  0  0  0  0  0
   10.5710    3.7290   21.9790 F   0  0  0  0  0  0  0  0  0  0  0  0
   11.8500    4.7400   23.5040 C   0  0  0  0  0  0  0  0  0  0  0  0
   10.5240    4.5650   23.7500 F   0  0  0  0  0  0  0  0  0  0  0  0
   11.9510    5.7050   22.5570 F   0  0  0  0  0  0  0  0  0  0  0  0
   12.3180    5.3360   24.6280 F   0  0  0  0  0  0  0  0  0  0  0  0
   10.6740    1.9600   23.2190 C   0  0  0  0  0  0  0  0  0  0  0  0
    9.9200    0.8300   23.0760 C   0  0  0  0  0  0  0  0  0  0  0  0
   10.4100   -0.4080   22.7230 C   0  0  0  0  0  0  0  0  0  0  0  0
    9.3210   -1.3350   22.5560 N   0  0  0  0  0  0  0  0  0  0  0  0
    8.4130   -0.5760   21.6070 C   0  0  0  0  0  0  0  0  0  0  0  0
    8.7460    0.5350   21.2230 O   0  0  0  0  0  0  0  0  0  0  0  0
    7.1640   -1.1610   21.1740 N   0  0  0  0  0  0  0  0  0  0  0  0
    6.4920   -0.3640   20.1280 C   0  0  0  0  0  0  0  0  0  0  0  0
    5.2250    0.3710   20.4350 C   0  0  0  0  0  0  0  0  0  0  0  0
    4.6290    1.1250   19.4230 C   0  0  0  0  0  0  0  0  0  0  0  0
    5.2480    1.1880   18.0830 C   0  0  0  0  0  0  0  0  0  0  0  0
    6.3870    0.5180   17.8260 N   0  0  0  0  0  0  0  0  0  0  0  0
    6.9690   -0.2260   18.8240 C   0  0  0  0  0  0  0  0  0  0  0  0
  1  2  1  0
  2  3  2  0
  3  4  1  0
  4  5  1  0
  5  6  1  0
  5  7  1  0
  7  8  1  0
  7  9  1  0
  7 10  1  0
  5 11  1  0
 11 12  1  0
 11 13  1  0
 11 14  1  0
  4 15  2  0
 15 16  1  0
  2 17  1  0
 16 17  2  0
 17 18  1  0
 18 19  1  0
 19 20  2  0
 19 21  1  0
 21 22  1  0
 22 23  2  0
 23 24  1  0
 24 25  2  0
 25 26  1  0
 22 27  1  0
 26 27  2  0
M  END
