pyridine_urea_14922
     RDKit          3D

 19 20  0  0  0  0  0  0  0  0999 V2000
    8.9150    0.8860   21.3790 O   0  0  0  0  0  0  0  0  0  0  0  0
    8.4920   -0.2490   21.5290 C   0  0  0  0  0  0  0  0  0  0  0  0
    7.1770   -0.5990   21.2650 N   0  0  0  0  0  0  0  0  0  0  0  0
    6.5110    0.0300   20.1450 C   0  0  0  0  0  0  0  0  0  0  0  0
    5.2390    0.8210   20.4490 C   0  0  0  0  0  0  0  0  0  0  0  0
    4.5360    1.5080   19.2770 C   0  0  0  0  0  0  0  0  0  0  0  0
    5.1970    1.3260   17.9150 C   0  0  0  0  0  0  0  0  0  0  0  0
    6.3650    0.5630   17.7990 N   0  0  0  0  0  0  0  0  0  0  0  0
    6.9820   -0.0530   18.8520 C   0  0  0  0  0  0  0  0  0  0  0  0
    9.2580   -1.3190   21.9670 N   0  0  0  0  0  0  0  0  0  0  0  0
   10.1930   -1.2910   23.0400 C   0  0  2  0  0  0  0  0  0  0  0  0
   10.1660   -0.2780   23.9970 C   0  0  0  0  0  0  0  0  0  0  0  0
   11.4850   -0.0600   24.3700 C   0  0  0  0  0  0  0  0  0  0  0  0
   12.2930   -0.6000   23.4480 N   0  0  0  0  0  0  0  0  0  0  0  0
   12.9950    0.3130   22.7680 C   0  0  0  0  0  0  0  0  0  0  0  0
   12.1410    1.4040   22.8520 C   0  0  0  0  0  0  0  0  0  0  0  0
   12.5330    2.6570   22.5320 F   0  0  0  0  0  0  0  0  0  0  0  0
   11.7930    1.4940   24.1340 F   0  0  0  0  0  0  0  0  0  0  0  0
   11.5440   -1.4020   22.6340 C   0  0  0  0  0  0  0  0  0  0  0  0
  1  2  2  0
  2  3  1  0
  3  4  1  0
  4  5  2  0
  5  6  1  0
  6  7  2  0
  7  8  1  0
  4  9  1  0
  8  9  2  0
  2 10  1  0
 11 10  1  6
 11 12  1  0
 12 13  1  0
 13 14  1  0
 14 15  1  0
 15 16  1  0
 16 17  1  0
 16 18  1  0
 11 19  1  0
 14 19  1  0
M  END
