pyridine_urea_9319
     RDKit          3D

 17 18  0  0  0  0  0  0  0  0999 V2000
    8.4160    1.4320   20.8780 O   0  0  0  0  0  0  0  0  0  0  0  0
    8.2570    0.2950   21.3200 C   0  0  0  0  0  0  0  0  0  0  0  0
    9.1200   -0.3510   22.0910 N   0  0  0  0  0  0  0  0  0  0  0  0
   10.0740    0.3080   22.8360 C   0  0  0  0  0  0  0  0  0  0  0  0
   10.6200   -0.5240   23.7250 C   0  0  0  0  0  0  0  0  0  0  0  0
   11.4500   -1.2750   24.3860 C   0  0  0  0  0  0  0  0  0  0  0  0
   12.6790   -1.3890   24.0330 C   0  0  0  0  0  0  0  0  0  0  0  0
   13.6620   -2.5500   25.1130 Br  0  0  0  0  0  0  0  0  0  0  0  0
   13.1790   -0.7140   22.9520 C   0  0  0  0  0  0  0  0  0  0  0  0
   11.7430   -0.2320   22.8940 N   0  0  0  0  0  0  0  0  0  0  0  0
    7.1430   -0.4360   21.0410 N   0  0  0  0  0  0  0  0  0  0  0  0
    6.4310    0.1550   19.9540 C   0  0  0  0  0  0  0  0  0  0  0  0
    5.1390    0.9110   20.2210 C   0  0  0  0  0  0  0  0  0  0  0  0
    4.5210    1.4860   19.1400 C   0  0  0  0  0  0  0  0  0  0  0  0
    5.1140    1.3390   17.8800 C   0  0  0  0  0  0  0  0  0  0  0  0
    6.2550    0.6560   17.6500 N   0  0  0  0  0  0  0  0  0  0  0  0
    6.9010    0.0720   18.6740 C   0  0  0  0  0  0  0  0  0  0  0  0
  1  2  2  0
  2  3  1  0
  3  4  1  0
  4  5  1  0
  5  6  2  0
  6  7  1  0
  7  8  1  0
  7  9  2  0
  5 10  1  0
  9 10  1  0
  2 11  1  0
 11 12  1  0
 12 13  2  0
 13 14  1  0
 14 15  2  0
 15 16  1  0
 12 17  1  0
 16 17  2  0
M  END
