pyridine_urea_13001
     RDKit          3D

 19 20  0  0  0  0  0  0  0  0999 V2000
    8.9130    1.4380   21.1990 O   0  0  0  0  0  0  0  0  0  0  0  0
    8.5820    0.2690   21.3910 C   0  0  0  0  0  0  0  0  0  0  0  0
    9.3940   -0.6970   21.9100 N   0  0  0  0  0  0  0  0  0  0  0  0
   10.2730   -0.5390   22.9900 C   0  0  0  0  0  0  0  0  0  0  0  0
   10.1610   -1.5270   23.9540 C   0  0  0  0  0  0  0  0  0  0  0  0
    9.4800   -2.4310   23.4520 O   0  0  0  0  0  0  0  0  0  0  0  0
    8.2460   -2.7700   23.9730 C   0  0  0  0  0  0  0  0  0  0  0  0
    7.3210   -1.9540   23.3600 C   0  0  0  0  0  0  0  0  0  0  0  0
    5.9000   -2.2200   23.8850 C   0  0  0  0  0  0  0  0  0  0  0  0
    5.8490   -3.3450   24.7200 C   0  0  0  0  0  0  0  0  0  0  0  0
    6.6840   -4.5200   24.1800 C   0  0  0  0  0  0  0  0  0  0  0  0
    7.9870   -4.1460   23.8590 C   0  0  0  0  0  0  0  0  0  0  0  0
    7.3430   -0.2370   21.0820 N   0  0  0  0  0  0  0  0  0  0  0  0
    6.5840    0.2660   20.0310 C   0  0  0  0  0  0  0  0  0  0  0  0
    5.4230    0.9910   20.3070 C   0  0  0  0  0  0  0  0  0  0  0  0
    4.6880    1.5120   19.2370 C   0  0  0  0  0  0  0  0  0  0  0  0
    5.1340    1.2910   17.9460 C   0  0  0  0  0  0  0  0  0  0  0  0
    6.2330    0.5910   17.6720 N   0  0  0  0  0  0  0  0  0  0  0  0
    6.9310    0.0950   18.7070 C   0  0  0  0  0  0  0  0  0  0  0  0
  1  2  2  0
  2  3  1  0
  3  4  1  0
  4  5  1  0
  5  6  1  0
  6  7  1  0
  7  8  1  0
  8  9  1  0
  9 10  1  0
 10 11  1  0
  7 12  1  0
 11 12  1  0
  2 13  1  0
 13 14  1  0
 14 15  2  0
 15 16  1  0
 16 17  2  0
 17 18  1  0
 14 19  1  0
 18 19  2  0
M  END
