pyridine_urea_4936
     RDKit          3D

 21 22  0  0  0  0  0  0  0  0999 V2000
   12.7230    0.1980   22.5890 C   0  0  0  0  0  0  0  0  0  0  0  0
   11.4860   -0.7190   22.4040 C   0  0  2  0  0  0  0  0  0  0  0  0
   10.3070   -0.2150   23.2500 C   0  0  0  0  0  0  0  0  0  0  0  0
    9.0560   -0.6200   22.6180 N   0  0  0  0  0  0  0  0  0  0  0  0
    8.5150    0.1450   21.6040 C   0  0  0  0  0  0  0  0  0  0  0  0
    9.0010    1.2270   21.2530 O   0  0  0  0  0  0  0  0  0  0  0  0
    7.3800   -0.4430   21.0800 N   0  0  0  0  0  0  0  0  0  0  0  0
    6.6210    0.1270   20.0480 C   0  0  0  0  0  0  0  0  0  0  0  0
    5.4710    0.8550   20.3670 C   0  0  0  0  0  0  0  0  0  0  0  0
    4.7270    1.4360   19.3480 C   0  0  0  0  0  0  0  0  0  0  0  0
    5.1520    1.2750   18.0420 C   0  0  0  0  0  0  0  0  0  0  0  0
    6.2430    0.5760   17.7120 N   0  0  0  0  0  0  0  0  0  0  0  0
    6.9480    0.0190   18.7160 C   0  0  0  0  0  0  0  0  0  0  0  0
   11.8930   -1.7500   22.7810 O   0  0  0  0  0  0  0  0  0  0  0  0
   12.6430   -2.6240   21.9980 C   0  0  0  0  0  0  0  0  0  0  0  0
   13.7010   -3.2960   22.3130 C   0  0  0  0  0  0  0  0  0  0  0  0
   14.3510   -4.2090   21.4080 C   0  0  0  0  0  0  0  0  0  0  0  0
   14.2190   -4.5410   20.3970 C   0  0  0  0  0  0  0  0  0  0  0  0
   15.4440   -5.7000   20.0850 Cl  0  0  0  0  0  0  0  0  0  0  0  0
   13.0680   -3.8520   19.9460 C   0  0  0  0  0  0  0  0  0  0  0  0
   12.3460   -2.9280   20.7660 C   0  0  0  0  0  0  0  0  0  0  0  0
  2  1  1  1
  2  3  1  0
  3  4  1  0
  4  5  1  0
  5  6  2  0
  5  7  1  0
  7  8  1  0
  8  9  2  0
  9 10  1  0
 10 11  2  0
 11 12  1  0
  8 13  1  0
 12 13  2  0
  2 14  1  0
 14 15  1  0
 15 16  2  0
 16 17  1  0
 17 18  2  0
 18 19  1  0
 18 20  1  0
 15 21  1  0
 20 21  2  0
M  END
