pyridine_urea_11198
     RDKit          3D

 18 18  0  0  0  0  0  0  0  0999 V2000
    8.3670   -1.3030   28.9580 C   0  0  0  0  0  0  0  0  0  0  0  0
    8.8950   -0.5550   27.9270 N   0  0  0  0  0  0  0  0  0  0  0  0
    8.0960   -0.3300   26.7300 C   0  0  0  0  0  0  0  0  0  0  0  0
    6.6740   -0.5890   26.5900 O   0  0  0  0  0  0  0  0  0  0  0  0
    8.7600    0.2320   25.4660 C   0  0  0  0  0  0  0  0  0  0  0  0
    9.8820   -0.2410   25.2880 O   0  0  0  0  0  0  0  0  0  0  0  0
   10.5330    0.1830   24.1720 C   0  0  0  0  0  0  0  0  0  0  0  0
   10.3950   -0.3620   22.9040 C   0  0  0  0  0  0  0  0  0  0  0  0
    9.1820   -0.7470   22.4350 N   0  0  0  0  0  0  0  0  0  0  0  0
    8.5620    0.0760   21.5420 C   0  0  0  0  0  0  0  0  0  0  0  0
    9.0180    1.1930   21.2510 O   0  0  0  0  0  0  0  0  0  0  0  0
    7.3980   -0.4850   21.0580 N   0  0  0  0  0  0  0  0  0  0  0  0
    6.5590    0.1420   20.0160 C   0  0  0  0  0  0  0  0  0  0  0  0
    5.4640    0.7900   20.5170 C   0  0  0  0  0  0  0  0  0  0  0  0
    4.7480    1.3880   19.3160 C   0  0  0  0  0  0  0  0  0  0  0  0
    5.1460    1.2760   18.0080 C   0  0  0  0  0  0  0  0  0  0  0  0
    6.2240    0.6100   17.6600 N   0  0  0  0  0  0  0  0  0  0  0  0
    6.8940    0.0640   18.6760 C   0  0  0  0  0  0  0  0  0  0  0  0
  1  2  1  0
  2  3  1  0
  3  4  2  0
  3  5  1  0
  5  6  1  0
  6  7  1  0
  7  8  1  0
  8  9  1  0
  9 10  1  0
 10 11  2  0
 10 12  1  0
 12 13  1  0
 13 14  2  0
 14 15  1  0
 15 16  2  0
 16 17  1  0
 13 18  1  0
 17 18  2  0
M  END
