pyridine_urea_9035
     RDKit          3D

 19 19  0  0  0  0  0  0  0  0999 V2000
   12.1630    0.0710   24.4380 C   0  0  0  0  0  0  0  0  0  0  0  0
   12.3640   -0.6370   23.1020 C   0  0  0  0  0  0  0  0  0  0  0  0
   13.2780    0.2670   22.3780 C   0  0  0  0  0  0  0  0  0  0  0  0
   11.0590   -0.7560   22.3150 C   0  0  0  0  0  0  0  0  0  0  0  0
    9.9840   -1.1110   23.0830 C   0  0  1  0  0  0  0  0  0  0  0  0
    9.7390   -0.3080   24.2000 C   0  0  0  0  0  0  0  0  0  0  0  0
    9.1930   -1.1230   25.3170 N   0  0  0  0  0  0  0  0  0  0  0  0
    9.0880   -0.5200   26.5580 C   0  0  0  0  0  0  0  0  0  0  0  0
    8.7550   -2.4120   25.0400 C   0  0  0  0  0  0  0  0  0  0  0  0
    8.7980   -1.2520   22.4150 N   0  0  0  0  0  0  0  0  0  0  0  0
    8.2410   -0.2990   21.5710 C   0  0  0  0  0  0  0  0  0  0  0  0
    8.8140    0.7400   21.2660 O   0  0  0  0  0  0  0  0  0  0  0  0
    7.0100   -0.6800   21.1690 N   0  0  0  0  0  0  0  0  0  0  0  0
    6.4440   -0.0390   20.1200 C   0  0  0  0  0  0  0  0  0  0  0  0
    5.2670    0.6930   20.3240 C   0  0  0  0  0  0  0  0  0  0  0  0
    4.6550    1.4040   19.1780 C   0  0  0  0  0  0  0  0  0  0  0  0
    5.2200    1.3570   17.9430 C   0  0  0  0  0  0  0  0  0  0  0  0
    6.3650    0.6350   17.7530 N   0  0  0  0  0  0  0  0  0  0  0  0
    6.9290   -0.0270   18.8110 C   0  0  0  0  0  0  0  0  0  0  0  0
  1  2  1  0
  2  3  1  0
  2  4  1  0
  5  4  1  6
  5  6  1  0
  6  7  1  0
  7  8  1  0
  7  9  1  0
  5 10  1  0
 10 11  1  0
 11 12  2  0
 11 13  1  0
 13 14  1  0
 14 15  2  0
 15 16  1  0
 16 17  2  0
 17 18  1  0
 14 19  1  0
 18 19  2  0
M  END
