pyridine_urea_3765
     RDKit          3D

 22 24  0  0  0  0  0  0  0  0999 V2000
   13.8040   -4.0930   20.5480 C   0  0  0  0  0  0  0  0  0  0  0  0
   12.8910   -3.2890   21.1290 N   0  0  0  0  0  0  0  0  0  0  0  0
   13.1060   -2.5150   22.2980 C   0  0  0  0  0  0  0  0  0  0  0  0
   11.8880   -1.7880   22.5810 C   0  0  0  0  0  0  0  0  0  0  0  0
   11.8380   -0.9570   23.6270 N   0  0  0  0  0  0  0  0  0  0  0  0
   12.8950   -0.0960   23.6470 C   0  0  0  0  0  0  0  0  0  0  0  0
   12.3280    1.2050   23.2170 C   0  0  0  0  0  0  0  0  0  0  0  0
   10.8690    1.1370   23.5790 C   0  0  0  0  0  0  0  0  0  0  0  0
   10.5830   -0.3560   23.8760 C   0  0  1  0  0  0  0  0  0  0  0  0
    9.6730   -0.7920   22.9200 C   0  0  0  0  0  0  0  0  0  0  0  0
    8.5270   -0.1210   22.8310 N   0  0  0  0  0  0  0  0  0  0  0  0
    8.1830    0.3230   21.5940 C   0  0  0  0  0  0  0  0  0  0  0  0
    8.7330    1.2980   21.0630 O   0  0  0  0  0  0  0  0  0  0  0  0
    7.1890   -0.4380   21.0790 N   0  0  0  0  0  0  0  0  0  0  0  0
    6.5740    0.0980   20.0090 C   0  0  0  0  0  0  0  0  0  0  0  0
    5.4620    0.8430   20.3810 C   0  0  0  0  0  0  0  0  0  0  0  0
    4.7170    1.4810   19.4010 C   0  0  0  0  0  0  0  0  0  0  0  0
    5.1560    1.3310   17.9940 C   0  0  0  0  0  0  0  0  0  0  0  0
    6.2280    0.5980   17.6560 N   0  0  0  0  0  0  0  0  0  0  0  0
    6.8990    0.0060   18.6710 C   0  0  0  0  0  0  0  0  0  0  0  0
   10.9770   -2.2450   21.4660 C   0  0  0  0  0  0  0  0  0  0  0  0
   11.6280   -3.1220   20.6420 N   0  0  0  0  0  0  0  0  0  0  0  0
  1  2  1  0
  2  3  1  0
  3  4  2  0
  4  5  1  0
  5  6  1  0
  6  7  1  0
  7  8  1  0
  5  9  1  0
  8  9  1  0
  9 10  1  6
 10 11  1  0
 11 12  1  0
 12 13  2  0
 12 14  1  0
 14 15  1  0
 15 16  2  0
 16 17  1  0
 17 18  2  0
 18 19  1  0
 15 20  1  0
 19 20  2  0
  4 21  1  0
  2 22  1  0
 21 22  2  0
M  END
