pyridine_urea_14930
     RDKit          3D

 19 20  0  0  0  0  0  0  0  0999 V2000
    9.7980   -4.3690   24.5690 C   0  0  0  0  0  0  0  0  0  0  0  0
   10.2590   -3.2170   23.6690 C   0  0  0  0  0  0  0  0  0  0  0  0
    9.1990   -3.0280   22.5910 C   0  0  0  0  0  0  0  0  0  0  0  0
   10.4930   -1.9540   24.5070 C   0  0  0  0  0  0  0  0  0  0  0  0
   10.9780   -0.7390   23.7030 C   0  0  0  0  0  0  0  0  0  0  0  0
   10.3740   -0.4400   22.3680 C   0  0  0  0  0  0  0  0  0  0  0  0
    8.9300   -0.4620   22.4510 N   0  0  0  0  0  0  0  0  0  0  0  0
    8.2820    0.2250   21.4700 C   0  0  0  0  0  0  0  0  0  0  0  0
    8.6780    1.3320   21.0790 O   0  0  0  0  0  0  0  0  0  0  0  0
    7.1200   -0.5110   20.9970 N   0  0  0  0  0  0  0  0  0  0  0  0
    6.3800    0.1320   20.0160 C   0  0  0  0  0  0  0  0  0  0  0  0
    5.1870    0.8210   20.2320 C   0  0  0  0  0  0  0  0  0  0  0  0
    4.5790    1.4300   19.1490 C   0  0  0  0  0  0  0  0  0  0  0  0
    5.1690    1.3380   17.9000 C   0  0  0  0  0  0  0  0  0  0  0  0
    6.3090    0.6730   17.6780 N   0  0  0  0  0  0  0  0  0  0  0  0
    6.8810    0.0880   18.7360 C   0  0  0  0  0  0  0  0  0  0  0  0
   11.8970    0.1850   24.3030 C   0  0  0  0  0  0  0  0  0  0  0  0
   12.9680   -0.0530   23.5190 C   0  0  0  0  0  0  0  0  0  0  0  0
   12.2960   -1.1050   22.8450 C   0  0  0  0  0  0  0  0  0  0  0  0
  1  2  1  0
  2  3  1  0
  2  4  1  0
  5  4  1  0
  5  6  1  0
  6  7  1  0
  7  8  1  0
  8  9  2  0
  8 10  1  0
 10 11  1  0
 11 12  2  0
 12 13  1  0
 13 14  2  0
 14 15  1  0
 11 16  1  0
 15 16  2  0
  5 17  1  0
 17 18  1  0
  5 19  1  0
 18 19  1  0
M  END
