pyridine_urea_9183
     RDKit          3D

 18 18  0  0  0  0  0  0  0  0999 V2000
    9.1640   -0.2370   24.9840 C   0  0  0  0  0  0  0  0  0  0  0  0
   10.4470    0.0420   24.2570 C   0  0  0  0  0  0  0  0  0  0  0  0
   10.6400   -0.2440   22.9040 C   0  0  2  0  0  0  0  0  0  0  0  0
    9.4300   -0.6850   22.2950 N   0  0  0  0  0  0  0  0  0  0  0  0
    8.6340    0.1290   21.4920 C   0  0  0  0  0  0  0  0  0  0  0  0
    8.9380    1.2820   21.1720 O   0  0  0  0  0  0  0  0  0  0  0  0
    7.4590   -0.4850   21.0830 N   0  0  0  0  0  0  0  0  0  0  0  0
    6.6590    0.0820   20.0750 C   0  0  0  0  0  0  0  0  0  0  0  0
    5.5060    0.7900   20.4380 C   0  0  0  0  0  0  0  0  0  0  0  0
    4.6910    1.3900   19.4850 C   0  0  0  0  0  0  0  0  0  0  0  0
    5.1400    1.2250   18.0320 C   0  0  0  0  0  0  0  0  0  0  0  0
    6.2390    0.5380   17.7170 N   0  0  0  0  0  0  0  0  0  0  0  0
    6.9600   -0.0110   18.7250 C   0  0  0  0  0  0  0  0  0  0  0  0
   11.8060   -1.0260   22.7440 C   0  0  0  0  0  0  0  0  0  0  0  0
   12.9330   -0.2050   22.7390 C   0  0  0  0  0  0  0  0  0  0  0  0
   11.7210   -2.1140   21.7290 C   0  0  0  0  0  0  0  0  0  0  0  0
   11.8450   -1.7390   23.9220 O   0  0  0  0  0  0  0  0  0  0  0  0
   13.1100   -2.3710   24.1140 C   0  0  0  0  0  0  0  0  0  0  0  0
  1  2  3  0
  3  2  1  1
  3  4  1  0
  4  5  1  0
  5  6  2  0
  5  7  1  0
  7  8  1  0
  8  9  2  0
  9 10  1  0
 10 11  2  0
 11 12  1  0
  8 13  1  0
 12 13  2  0
  3 14  1  0
 14 15  1  0
 14 16  1  0
 14 17  1  0
 17 18  1  0
M  END
