pyridine_urea_4437
     RDKit          3D

 23 24  0  0  0  0  0  0  0  0999 V2000
   12.9740   -0.8190   24.1360 C   0  0  0  0  0  0  0  0  0  0  0  0
   12.6310   -0.3430   22.7340 C   0  0  0  0  0  0  0  0  0  0  0  0
   11.1250   -0.1950   22.7380 C   0  0  1  0  0  0  0  0  0  0  0  0
   10.4400   -1.4750   22.3340 C   0  0  0  0  0  0  0  0  0  0  0  0
    8.9780   -1.2710   22.3070 N   0  0  0  0  0  0  0  0  0  0  0  0
    8.3990   -0.3000   21.5100 C   0  0  0  0  0  0  0  0  0  0  0  0
    8.9000    0.7940   21.3190 O   0  0  0  0  0  0  0  0  0  0  0  0
    7.1720   -0.7480   20.9740 N   0  0  0  0  0  0  0  0  0  0  0  0
    6.4390   -0.0400   20.0380 C   0  0  0  0  0  0  0  0  0  0  0  0
    5.1370    0.7180   20.3120 C   0  0  0  0  0  0  0  0  0  0  0  0
    4.5880    1.3700   19.2010 C   0  0  0  0  0  0  0  0  0  0  0  0
    5.2130    1.3090   17.9600 C   0  0  0  0  0  0  0  0  0  0  0  0
    6.3530    0.6370   17.7310 N   0  0  0  0  0  0  0  0  0  0  0  0
    6.9270   -0.0110   18.7560 C   0  0  0  0  0  0  0  0  0  0  0  0
   10.7110    0.3980   24.2810 S   0  0  0  0  0  0  0  0  0  0  0  0
   10.6380    2.0840   23.7090 C   0  0  0  0  0  0  0  0  0  0  0  0
   11.7710    2.7110   23.1540 C   0  0  0  0  0  0  0  0  0  0  0  0
   11.7100    4.1270   22.6900 C   0  0  0  0  0  0  0  0  0  0  0  0
   13.0950    4.9040   22.0130 Cl  0  0  0  0  0  0  0  0  0  0  0  0
   10.4930    4.7690   22.8360 C   0  0  0  0  0  0  0  0  0  0  0  0
    9.2980    4.1030   23.4160 C   0  0  0  0  0  0  0  0  0  0  0  0
    9.4110    2.7760   23.8360 C   0  0  0  0  0  0  0  0  0  0  0  0
    7.9920    2.0430   24.5070 Cl  0  0  0  0  0  0  0  0  0  0  0  0
  1  2  1  0
  3  2  1  1
  3  4  1  0
  4  5  1  0
  5  6  1  0
  6  7  2  0
  6  8  1  0
  8  9  1  0
  9 10  2  0
 10 11  1  0
 11 12  2  0
 12 13  1  0
  9 14  1  0
 13 14  2  0
  3 15  1  0
 15 16  1  0
 16 17  2  0
 17 18  1  0
 18 19  1  0
 18 20  2  0
 20 21  1  0
 16 22  1  0
 21 22  2  0
 22 23  1  0
M  END
