pyridine_urea_1714
     RDKit          3D

 18 19  0  0  0  0  0  0  0  0999 V2000
    8.8990    1.2150   21.1890 O   0  0  0  0  0  0  0  0  0  0  0  0
    8.4370    0.1140   21.5300 C   0  0  0  0  0  0  0  0  0  0  0  0
    8.9430   -0.6630   22.5270 N   0  0  0  0  0  0  0  0  0  0  0  0
   10.1090   -0.3680   23.2460 C   0  0  0  0  0  0  0  0  0  0  0  0
   11.3030   -0.5270   22.5610 C   0  0  0  0  0  0  0  0  0  0  0  0
   12.2270   -1.3810   23.0980 C   0  0  0  0  0  0  0  0  0  0  0  0
   13.1430   -2.0500   22.2890 N   0  0  0  0  0  0  0  0  0  0  0  0
   13.9210   -2.8680   23.1850 O   0  0  0  0  0  0  0  0  0  0  0  0
   13.3760   -2.6100   24.4720 C   0  0  0  0  0  0  0  0  0  0  0  0
   13.7760   -3.1280   25.5000 O   0  0  0  0  0  0  0  0  0  0  0  0
   12.3850   -1.7300   24.3920 N   0  0  0  0  0  0  0  0  0  0  0  0
    7.3330   -0.4950   20.9800 N   0  0  0  0  0  0  0  0  0  0  0  0
    6.5190    0.1410   20.0410 C   0  0  0  0  0  0  0  0  0  0  0  0
    5.3400    0.8280   20.3070 C   0  0  0  0  0  0  0  0  0  0  0  0
    4.5960    1.4830   19.1440 C   0  0  0  0  0  0  0  0  0  0  0  0
    5.1430    1.3520   17.8960 C   0  0  0  0  0  0  0  0  0  0  0  0
    6.2830    0.6680   17.6770 N   0  0  0  0  0  0  0  0  0  0  0  0
    6.9200    0.0960   18.7230 C   0  0  0  0  0  0  0  0  0  0  0  0
  1  2  2  0
  2  3  1  0
  3  4  1  0
  4  5  1  0
  5  6  1  0
  6  7  2  0
  7  8  1  0
  8  9  1  0
  9 10  2  0
  6 11  1  0
  9 11  1  0
  2 12  1  0
 12 13  1  0
 13 14  2  0
 14 15  1  0
 15 16  2  0
 16 17  1  0
 13 18  1  0
 17 18  2  0
M  END
