pyridine_urea_6654
     RDKit          3D

 22 23  0  0  0  0  0  0  0  0999 V2000
   13.0700    4.9800   21.6410 C   0  0  0  0  0  0  0  0  0  0  0  0
   13.0550    4.2200   22.7860 N   0  0  0  0  0  0  0  0  0  0  0  0
   11.5270    3.5650   23.0850 S   0  0  0  0  0  0  0  0  0  0  0  0
   10.7340    3.8780   21.9530 O   0  0  0  0  0  0  0  0  0  0  0  0
   11.0990    3.9100   24.4200 O   0  0  0  0  0  0  0  0  0  0  0  0
   11.6550    1.7450   22.9120 C   0  0  0  0  0  0  0  0  0  0  0  0
   12.9380    0.9370   22.9320 C   0  0  0  0  0  0  0  0  0  0  0  0
   12.8400   -0.5540   22.7540 C   0  0  0  0  0  0  0  0  0  0  0  0
   11.5370   -1.2500   22.5520 C   0  0  0  0  0  0  0  0  0  0  0  0
   11.6810   -2.4470   22.4190 O   0  0  0  0  0  0  0  0  0  0  0  0
   10.2850   -0.6360   22.5080 C   0  0  0  0  0  0  0  0  0  0  0  0
    8.9960   -1.2330   22.2910 N   0  0  0  0  0  0  0  0  0  0  0  0
    8.2140   -0.4100   21.5030 C   0  0  0  0  0  0  0  0  0  0  0  0
    8.6030    0.7090   21.1910 O   0  0  0  0  0  0  0  0  0  0  0  0
    6.9530   -0.9510   21.0740 N   0  0  0  0  0  0  0  0  0  0  0  0
    6.3740   -0.2250   20.0560 C   0  0  0  0  0  0  0  0  0  0  0  0
    5.1910    0.4720   20.2780 C   0  0  0  0  0  0  0  0  0  0  0  0
    4.6110    1.2110   19.2660 C   0  0  0  0  0  0  0  0  0  0  0  0
    5.2070    1.2690   18.0100 C   0  0  0  0  0  0  0  0  0  0  0  0
    6.3500    0.6050   17.7630 N   0  0  0  0  0  0  0  0  0  0  0  0
    6.9050   -0.1220   18.7750 C   0  0  0  0  0  0  0  0  0  0  0  0
   10.4280    0.8920   22.7090 C   0  0  0  0  0  0  0  0  0  0  0  0
  1  2  1  0
  3  2  1  0
  3  4  2  0
  3  5  2  0
  3  6  1  0
  6  7  2  0
  7  8  1  0
  8  9  2  0
  9 10  1  0
  9 11  1  0
 11 12  1  0
 12 13  1  0
 13 14  2  0
 13 15  1  0
 15 16  1  0
 16 17  2  0
 17 18  1  0
 18 19  2  0
 19 20  1  0
 16 21  1  0
 20 21  2  0
  6 22  1  0
 11 22  2  0
M  END
