pyridine_urea_2521
     RDKit          3D

 24 26  0  0  0  0  0  0  0  0999 V2000
    8.7900    0.7940   21.2510 O   0  0  0  0  0  0  0  0  0  0  0  0
    8.3190   -0.3000   21.5210 C   0  0  0  0  0  0  0  0  0  0  0  0
    7.1190   -0.7650   21.0520 N   0  0  0  0  0  0  0  0  0  0  0  0
    6.4520   -0.0840   20.0230 C   0  0  0  0  0  0  0  0  0  0  0  0
    5.2730    0.6180   20.2980 C   0  0  0  0  0  0  0  0  0  0  0  0
    4.6200    1.3110   19.2750 C   0  0  0  0  0  0  0  0  0  0  0  0
    5.1740    1.2730   18.0100 C   0  0  0  0  0  0  0  0  0  0  0  0
    6.2990    0.6000   17.7280 N   0  0  0  0  0  0  0  0  0  0  0  0
    6.9080   -0.0590   18.7280 C   0  0  0  0  0  0  0  0  0  0  0  0
    8.9950   -1.1700   22.3350 N   0  0  0  0  0  0  0  0  0  0  0  0
   10.3120   -0.6510   22.7140 C   0  0  0  0  0  0  0  0  0  0  0  0
   11.4670   -1.4210   22.1030 C   0  0  0  0  0  0  0  0  0  0  0  0
   12.7580   -0.9750   22.3960 C   0  0  0  0  0  0  0  0  0  0  0  0
   12.9410    0.1360   23.2210 C   0  0  0  0  0  0  0  0  0  0  0  0
   11.8740    0.8290   23.7830 C   0  0  0  0  0  0  0  0  0  0  0  0
   10.5820    0.4300   23.5250 C   0  0  0  0  0  0  0  0  0  0  0  0
    9.6290    1.1930   24.1320 N   0  0  0  0  0  0  0  0  0  0  0  0
    9.8470    2.5380   23.9400 C   0  0  0  0  0  0  0  0  0  0  0  0
   10.9150    3.2200   23.3460 C   0  0  0  0  0  0  0  0  0  0  0  0
   10.8700    4.6100   23.2980 C   0  0  0  0  0  0  0  0  0  0  0  0
    9.7750    5.2830   23.8350 C   0  0  0  0  0  0  0  0  0  0  0  0
    9.8090    6.6430   23.7450 F   0  0  0  0  0  0  0  0  0  0  0  0
    8.7120    4.6010   24.4230 C   0  0  0  0  0  0  0  0  0  0  0  0
    8.7400    3.2030   24.4810 C   0  0  0  0  0  0  0  0  0  0  0  0
  1  2  2  0
  2  3  1  0
  3  4  1  0
  4  5  2  0
  5  6  1  0
  6  7  2  0
  7  8  1  0
  4  9  1  0
  8  9  2  0
  2 10  1  0
 10 11  1  0
 11 12  2  0
 12 13  1  0
 13 14  2  0
 14 15  1  0
 11 16  1  0
 15 16  2  0
 16 17  1  0
 17 18  1  0
 18 19  2  0
 19 20  1  0
 20 21  2  0
 21 22  1  0
 21 23  1  0
 18 24  1  0
 23 24  2  0
M  END
