pyridine_urea_6505
     RDKit          3D

 22 24  0  0  0  0  0  0  0  0999 V2000
   13.3610   -2.9940   20.8320 C   0  0  0  0  0  0  0  0  0  0  0  0
   12.8650   -2.4820   21.9850 N   0  0  0  0  0  0  0  0  0  0  0  0
   13.5810   -2.1420   23.1190 C   0  0  0  0  0  0  0  0  0  0  0  0
   13.1950   -1.0130   23.9840 C   0  0  0  0  0  0  0  0  0  0  0  0
   11.9540   -0.4380   23.5700 C   0  0  0  0  0  0  0  0  0  0  0  0
   11.5130    0.8170   24.1220 C   0  0  0  0  0  0  0  0  0  0  0  0
   10.3020    1.3070   23.8500 C   0  0  0  0  0  0  0  0  0  0  0  0
    9.5500    0.5150   23.0100 C   0  0  0  0  0  0  0  0  0  0  0  0
    8.2910    0.8080   22.6690 N   0  0  0  0  0  0  0  0  0  0  0  0
    7.9350    0.6960   21.3500 C   0  0  0  0  0  0  0  0  0  0  0  0
    8.5020    1.4240   20.5730 O   0  0  0  0  0  0  0  0  0  0  0  0
    6.9870   -0.2400   21.0940 N   0  0  0  0  0  0  0  0  0  0  0  0
    6.2840    0.2420   20.1020 C   0  0  0  0  0  0  0  0  0  0  0  0
    5.0680    0.9010   20.1950 C   0  0  0  0  0  0  0  0  0  0  0  0
    4.4510    1.4090   19.0860 C   0  0  0  0  0  0  0  0  0  0  0  0
    5.0580    1.2690   17.8350 C   0  0  0  0  0  0  0  0  0  0  0  0
    6.2170    0.6310   17.5910 N   0  0  0  0  0  0  0  0  0  0  0  0
    6.8180    0.1160   18.6710 C   0  0  0  0  0  0  0  0  0  0  0  0
    9.9420   -0.6620   22.4170 C   0  0  0  0  0  0  0  0  0  0  0  0
   11.1710   -1.1230   22.6940 C   0  0  0  0  0  0  0  0  0  0  0  0
   11.5240   -2.2810   22.1120 C   0  0  0  0  0  0  0  0  0  0  0  0
   10.6150   -2.9980   21.7760 O   0  0  0  0  0  0  0  0  0  0  0  0
  1  2  1  0
  2  3  1  0
  3  4  2  0
  4  5  1  0
  5  6  1  0
  6  7  2  0
  7  8  1  0
  8  9  1  0
  9 10  1  0
 10 11  2  0
 10 12  1  0
 12 13  1  0
 13 14  2  0
 14 15  1  0
 15 16  2  0
 16 17  1  0
 13 18  1  0
 17 18  2  0
  8 19  2  0
  5 20  2  0
 19 20  1  0
  2 21  1  0
 20 21  1  0
 21 22  2  0
M  END
