pyridine_urea_4172
     RDKit          3D

 25 27  0  0  0  0  0  0  0  0999 V2000
   10.3110    3.3860   23.2350 C   0  0  0  0  0  0  0  0  0  0  0  0
    9.2710    2.4460   23.7820 C   0  0  0  0  0  0  0  0  0  0  0  0
    9.5690    1.0890   23.8770 C   0  0  0  0  0  0  0  0  0  0  0  0
    8.9330    0.0110   23.3070 C   0  0  0  0  0  0  0  0  0  0  0  0
    7.8430   -0.0410   22.5320 N   0  0  0  0  0  0  0  0  0  0  0  0
    7.8620    0.2650   21.2500 C   0  0  0  0  0  0  0  0  0  0  0  0
    8.5260    1.2130   20.8230 O   0  0  0  0  0  0  0  0  0  0  0  0
    7.0550   -0.5910   20.6370 N   0  0  0  0  0  0  0  0  0  0  0  0
    6.3760    0.0850   19.7520 C   0  0  0  0  0  0  0  0  0  0  0  0
    5.1450    0.6260   20.0670 C   0  0  0  0  0  0  0  0  0  0  0  0
    4.4340    1.4270   18.9860 C   0  0  0  0  0  0  0  0  0  0  0  0
    5.0730    1.5510   17.7780 C   0  0  0  0  0  0  0  0  0  0  0  0
    6.2700    0.9890   17.5340 N   0  0  0  0  0  0  0  0  0  0  0  0
    6.8690    0.2880   18.5070 C   0  0  0  0  0  0  0  0  0  0  0  0
    9.5530   -1.1240   23.5850 C   0  0  0  0  0  0  0  0  0  0  0  0
    9.1790   -2.4260   23.5520 O   0  0  0  0  0  0  0  0  0  0  0  0
   10.7080   -0.6980   23.9440 N   0  0  0  0  0  0  0  0  0  0  0  0
   11.6130   -0.8580   23.0640 C   0  0  0  0  0  0  0  0  0  0  0  0
   12.5930    0.0520   23.1550 C   0  0  0  0  0  0  0  0  0  0  0  0
   13.6080   -0.1440   22.1830 C   0  0  0  0  0  0  0  0  0  0  0  0
   13.5350   -1.2830   21.1730 C   0  0  0  0  0  0  0  0  0  0  0  0
   12.4880   -2.1400   21.1840 C   0  0  0  0  0  0  0  0  0  0  0  0
   11.5230   -1.9230   22.1340 C   0  0  0  0  0  0  0  0  0  0  0  0
   10.5170    0.4520   24.5860 N   0  0  0  0  0  0  0  0  0  0  0  0
    9.8510    0.0320   25.8450 C   0  0  0  0  0  0  0  0  0  0  0  0
  1  2  1  0
  2  3  1  0
  3  4  2  0
  4  5  1  0
  5  6  1  0
  6  7  2  0
  6  8  1  0
  8  9  1  0
  9 10  2  0
 10 11  1  0
 11 12  2  0
 12 13  1  0
  9 14  1  0
 13 14  2  0
  4 15  1  0
 15 16  2  0
 15 17  1  0
 17 18  1  0
 18 19  2  0
 19 20  1  0
 20 21  2  0
 21 22  1  0
 18 23  1  0
 22 23  2  0
  3 24  1  0
 17 24  1  0
 24 25  1  0
M  END
