pyridine_urea_14866
     RDKit          3D

 21 22  0  0  0  0  0  0  0  0999 V2000
    8.8480    1.3130   21.1340 O   0  0  0  0  0  0  0  0  0  0  0  0
    8.2020    0.3420   21.5440 C   0  0  0  0  0  0  0  0  0  0  0  0
    8.3440   -0.2310   22.7540 N   0  0  0  0  0  0  0  0  0  0  0  0
    9.0690   -1.3740   22.9560 C   0  0  0  0  0  0  0  0  0  0  0  0
   10.0860   -1.3230   23.8220 C   0  0  0  0  0  0  0  0  0  0  0  0
   10.6210   -1.4160   22.4680 C   0  0  0  0  0  0  0  0  0  0  0  0
   11.8270   -1.4710   21.6790 C   0  0  0  0  0  0  0  0  0  0  0  0
   12.8010   -1.3950   22.6260 C   0  0  0  0  0  0  0  0  0  0  0  0
   12.5330   -1.3060   24.0450 C   0  0  0  0  0  0  0  0  0  0  0  0
   13.5490   -1.2920   24.8680 O   0  0  0  0  0  0  0  0  0  0  0  0
   13.7960   -2.6260   25.0230 C   0  0  0  0  0  0  0  0  0  0  0  0
   14.3720   -2.8860   26.2100 F   0  0  0  0  0  0  0  0  0  0  0  0
   12.5860   -3.2330   24.9980 F   0  0  0  0  0  0  0  0  0  0  0  0
   11.1950   -1.2810   24.5040 C   0  0  0  0  0  0  0  0  0  0  0  0
    7.2200   -0.3510   20.9060 N   0  0  0  0  0  0  0  0  0  0  0  0
    6.4940    0.2490   19.9180 C   0  0  0  0  0  0  0  0  0  0  0  0
    5.3200    0.9620   20.1760 C   0  0  0  0  0  0  0  0  0  0  0  0
    4.5890    1.6270   19.0680 C   0  0  0  0  0  0  0  0  0  0  0  0
    5.1070    1.5170   17.7810 C   0  0  0  0  0  0  0  0  0  0  0  0
    6.2760    0.7730   17.6150 N   0  0  0  0  0  0  0  0  0  0  0  0
    6.9220    0.1780   18.6240 C   0  0  0  0  0  0  0  0  0  0  0  0
  1  2  2  0
  2  3  1  0
  3  4  1  0
  4  5  1  0
  5  6  2  0
  6  7  1  0
  7  8  2  0
  8  9  1  0
  9 10  1  0
 10 11  1  0
 11 12  1  0
 11 13  1  0
  5 14  1  0
  9 14  2  0
  2 15  1  0
 15 16  1  0
 16 17  2  0
 17 18  1  0
 18 19  2  0
 19 20  1  0
 16 21  1  0
 20 21  2  0
M  END
