pyridine_urea_12287
     RDKit          3D

 22 24  0  0  0  0  0  0  0  0999 V2000
    9.0300    0.9030   21.5830 O   0  0  0  0  0  0  0  0  0  0  0  0
    8.6360   -0.2380   21.4130 C   0  0  0  0  0  0  0  0  0  0  0  0
    9.4770   -1.3290   21.4650 N   0  0  0  0  0  0  0  0  0  0  0  0
   10.3700   -1.5710   22.5880 C   0  0  0  0  0  0  0  0  0  0  0  0
   11.8830   -1.1120   22.4670 C   0  0  1  0  0  0  0  0  0  0  0  0
   12.2100    0.2020   22.5440 C   0  0  0  0  0  0  0  0  0  0  0  0
   12.1770    0.1020   23.9800 C   0  0  1  0  0  0  0  0  0  0  0  0
   10.9010    0.4620   24.3840 C   0  0  0  0  0  0  0  0  0  0  0  0
   10.3930    1.7300   23.6520 C   0  0  0  0  0  0  0  0  0  0  0  0
    8.9550    1.8700   24.2550 C   0  0  0  0  0  0  0  0  0  0  0  0
    8.2150    1.0120   25.2870 C   0  0  0  0  0  0  0  0  0  0  0  0
    6.6050    1.3920   25.7610 Cl  0  0  0  0  0  0  0  0  0  0  0  0
    8.9300   -0.1600   25.8630 C   0  0  0  0  0  0  0  0  0  0  0  0
   10.3120   -0.4660   25.4130 C   0  0  0  0  0  0  0  0  0  0  0  0
   12.4600   -1.2820   23.9730 C   0  0  0  0  0  0  0  0  0  0  0  0
    7.3370   -0.5990   21.1120 N   0  0  0  0  0  0  0  0  0  0  0  0
    6.5120    0.0720   20.0980 C   0  0  0  0  0  0  0  0  0  0  0  0
    5.3380    0.7880   20.3240 C   0  0  0  0  0  0  0  0  0  0  0  0
    4.6680    1.3860   19.2770 C   0  0  0  0  0  0  0  0  0  0  0  0
    5.1560    1.2820   18.0040 C   0  0  0  0  0  0  0  0  0  0  0  0
    6.2810    0.5950   17.7290 N   0  0  0  0  0  0  0  0  0  0  0  0
    6.9220    0.0130   18.7740 C   0  0  0  0  0  0  0  0  0  0  0  0
  1  2  2  0
  2  3  1  0
  3  4  1  0
  5  4  1  1
  5  6  1  0
  6  7  1  0
  7  8  1  6
  8  9  2  0
  9 10  1  0
 10 11  2  0
 11 12  1  0
 11 13  1  0
  8 14  1  0
 13 14  2  0
  5 15  1  0
  7 15  1  0
  2 16  1  0
 16 17  1  0
 17 18  2  0
 18 19  1  0
 19 20  2  0
 20 21  1  0
 17 22  1  0
 21 22  2  0
M  END
