pyridine_urea_9278
     RDKit          3D

 17 19  0  0  0  0  0  0  0  0999 V2000
    8.9050    1.2100   21.1570 O   0  0  0  0  0  0  0  0  0  0  0  0
    8.4710    0.0850   21.4390 C   0  0  0  0  0  0  0  0  0  0  0  0
    9.1260   -0.8390   22.2010 N   0  0  0  0  0  0  0  0  0  0  0  0
   10.2170   -0.5440   23.0260 C   0  0  0  0  0  0  0  0  0  0  0  0
   11.4440   -1.1310   22.7260 C   0  0  0  0  0  0  0  0  0  0  0  0
   12.5430   -0.3950   23.0660 C   0  0  0  0  0  0  0  0  0  0  0  0
   12.5530    0.8260   23.0970 C   0  0  0  0  0  0  0  0  0  0  0  0
   12.2950    0.2070   24.3810 C   0  0  0  0  0  0  0  0  0  0  0  0
   11.5510   -2.2220   21.7320 C   0  0  0  0  0  0  0  0  0  0  0  0
   11.6270   -2.6260   23.0430 C   0  0  0  0  0  0  0  0  0  0  0  0
    7.2580   -0.4130   21.0300 N   0  0  0  0  0  0  0  0  0  0  0  0
    6.5460    0.1460   20.0310 C   0  0  0  0  0  0  0  0  0  0  0  0
    5.3870    0.8640   20.3380 C   0  0  0  0  0  0  0  0  0  0  0  0
    4.6920    1.4450   19.2870 C   0  0  0  0  0  0  0  0  0  0  0  0
    5.1550    1.2970   18.0020 C   0  0  0  0  0  0  0  0  0  0  0  0
    6.2490    0.6110   17.6760 N   0  0  0  0  0  0  0  0  0  0  0  0
    6.9170    0.0500   18.7020 C   0  0  0  0  0  0  0  0  0  0  0  0
  1  2  2  0
  2  3  1  0
  3  4  1  0
  5  4  1  0
  5  6  1  0
  6  7  1  0
  6  8  1  0
  7  8  1  0
  5  9  1  0
  5 10  1  0
  9 10  1  0
  2 11  1  0
 11 12  1  0
 12 13  2  0
 13 14  1  0
 14 15  2  0
 15 16  1  0
 12 17  1  0
 16 17  2  0
M  END
