pyridine_urea_14337
     RDKit          3D

 21 22  0  0  0  0  0  0  0  0999 V2000
   13.6040   -2.6070   23.1140 C   0  0  0  0  0  0  0  0  0  0  0  0
   13.2860   -2.1500   24.4100 O   0  0  0  0  0  0  0  0  0  0  0  0
   12.0880   -2.6040   24.8020 C   0  0  0  0  0  0  0  0  0  0  0  0
   11.0440   -2.6430   23.8970 C   0  0  0  0  0  0  0  0  0  0  0  0
   11.2800   -2.3770   22.7390 O   0  0  0  0  0  0  0  0  0  0  0  0
   11.1290   -1.0590   22.5060 C   0  0  2  0  0  0  0  0  0  0  0  0
   12.4280   -0.5520   22.7330 C   0  0  0  0  0  0  0  0  0  0  0  0
   12.6540    0.7220   23.4680 C   0  0  0  0  0  0  0  0  0  0  0  0
   11.4480    1.6180   23.4530 C   0  0  0  0  0  0  0  0  0  0  0  0
   10.1870    0.8490   23.7590 C   0  0  0  0  0  0  0  0  0  0  0  0
   10.0690   -0.4140   23.2220 C   0  0  1  0  0  0  0  0  0  0  0  0
    8.8500   -0.5990   22.5510 N   0  0  0  0  0  0  0  0  0  0  0  0
    8.3780    0.1680   21.5110 C   0  0  0  0  0  0  0  0  0  0  0  0
    8.8640    1.2520   21.1530 O   0  0  0  0  0  0  0  0  0  0  0  0
    7.2700   -0.4400   20.9430 N   0  0  0  0  0  0  0  0  0  0  0  0
    6.4810    0.1690   20.0150 C   0  0  0  0  0  0  0  0  0  0  0  0
    5.3140    0.8670   20.2860 C   0  0  0  0  0  0  0  0  0  0  0  0
    4.6340    1.4500   19.2290 C   0  0  0  0  0  0  0  0  0  0  0  0
    5.1400    1.3140   17.9480 C   0  0  0  0  0  0  0  0  0  0  0  0
    6.2560    0.6350   17.6690 N   0  0  0  0  0  0  0  0  0  0  0  0
    6.8920    0.0820   18.7080 C   0  0  0  0  0  0  0  0  0  0  0  0
  1  2  1  0
  2  3  1  0
  3  4  1  0
  4  5  1  0
  6  5  1  1
  6  7  1  0
  7  8  1  0
  8  9  1  0
  9 10  1  0
  6 11  1  0
 10 11  1  0
 11 12  1  6
 12 13  1  0
 13 14  2  0
 13 15  1  0
 15 16  1  0
 16 17  2  0
 17 18  1  0
 18 19  2  0
 19 20  1  0
 16 21  1  0
 20 21  2  0
M  END
