pyridine_urea_5195
     RDKit          3D

 19 20  0  0  0  0  0  0  0  0999 V2000
    8.8880    1.4500   21.1120 O   0  0  0  0  0  0  0  0  0  0  0  0
    8.3010    0.4730   21.5780 C   0  0  0  0  0  0  0  0  0  0  0  0
    8.5080   -0.0390   22.8150 N   0  0  0  0  0  0  0  0  0  0  0  0
    8.9960   -1.3100   23.0400 C   0  0  0  0  0  0  0  0  0  0  0  0
   10.1230   -1.4110   23.8060 C   0  0  0  0  0  0  0  0  0  0  0  0
   11.4630   -1.4970   24.3860 C   0  0  0  0  0  0  0  0  0  0  0  0
   12.7930   -1.4800   23.8720 C   0  0  0  0  0  0  0  0  0  0  0  0
   13.7770   -1.6240   24.7390 F   0  0  0  0  0  0  0  0  0  0  0  0
   13.0780   -1.3220   22.4080 C   0  0  0  0  0  0  0  0  0  0  0  0
   11.8700   -1.2510   21.9870 C   0  0  0  0  0  0  0  0  0  0  0  0
   11.9170   -1.5350   24.0200 I   0  0  0  0  0  0  0  0  0  0  0  0
   10.4730   -1.2730   22.4230 C   0  0  0  0  0  0  0  0  0  0  0  0
    7.3310   -0.2610   20.9520 N   0  0  0  0  0  0  0  0  0  0  0  0
    6.5130    0.3010   19.9920 C   0  0  0  0  0  0  0  0  0  0  0  0
    5.3500    0.9950   20.2580 C   0  0  0  0  0  0  0  0  0  0  0  0
    4.6370    1.5300   19.1940 C   0  0  0  0  0  0  0  0  0  0  0  0
    5.1260    1.3450   17.9050 C   0  0  0  0  0  0  0  0  0  0  0  0
    6.2420    0.6660   17.6350 N   0  0  0  0  0  0  0  0  0  0  0  0
    6.9040    0.1600   18.6820 C   0  0  0  0  0  0  0  0  0  0  0  0
  1  2  2  0
  2  3  1  0
  3  4  1  0
  4  5  1  0
  5  6  2  0
  6  7  1  0
  7  8  1  0
  7  9  2  0
  9 10  1  0
 10 11  1  0
  5 12  1  0
 10 12  2  0
  2 13  1  0
 13 14  1  0
 14 15  2  0
 15 16  1  0
 16 17  2  0
 17 18  1  0
 14 19  1  0
 18 19  2  0
M  END
