pyridine_urea_14818
     RDKit          3D

 20 21  0  0  0  0  0  0  0  0999 V2000
   12.7360   -2.2980   25.0390 C   0  0  0  0  0  0  0  0  0  0  0  0
   12.6650   -2.9150   23.9980 O   0  0  0  0  0  0  0  0  0  0  0  0
   13.6580   -2.6320   23.1290 C   0  0  0  0  0  0  0  0  0  0  0  0
   13.2740   -2.4490   21.8140 C   0  0  0  0  0  0  0  0  0  0  0  0
   11.9760   -2.0010   21.9320 N   0  0  0  0  0  0  0  0  0  0  0  0
   11.7600   -0.8850   22.7830 C   0  0  0  0  0  0  0  0  0  0  0  0
   10.4630   -0.6940   22.7350 C   0  0  0  0  0  0  0  0  0  0  0  0
    9.6720    0.2060   23.3510 C   0  0  0  0  0  0  0  0  0  0  0  0
    8.4360    0.0720   22.8630 N   0  0  0  0  0  0  0  0  0  0  0  0
    8.1570    0.4690   21.6110 C   0  0  0  0  0  0  0  0  0  0  0  0
    8.8340    1.5180   21.0220 O   0  0  0  0  0  0  0  0  0  0  0  0
    7.1470   -0.2770   21.0620 N   0  0  0  0  0  0  0  0  0  0  0  0
    6.4540    0.2490   19.9980 C   0  0  0  0  0  0  0  0  0  0  0  0
    5.2900    0.9750   20.2530 C   0  0  0  0  0  0  0  0  0  0  0  0
    4.6340    1.5210   19.1660 C   0  0  0  0  0  0  0  0  0  0  0  0
    5.1400    1.3320   17.8950 C   0  0  0  0  0  0  0  0  0  0  0  0
    6.2370    0.6360   17.6090 N   0  0  0  0  0  0  0  0  0  0  0  0
    6.8470    0.1230   18.6860 C   0  0  0  0  0  0  0  0  0  0  0  0
    9.7940   -1.5910   21.9050 C   0  0  0  0  0  0  0  0  0  0  0  0
   10.7550   -2.4580   21.3650 N   0  0  0  0  0  0  0  0  0  0  0  0
  1  2  1  0
  2  3  1  0
  3  4  1  0
  4  5  1  0
  5  6  1  0
  6  7  2  0
  7  8  1  0
  8  9  1  0
  9 10  1  0
 10 11  2  0
 10 12  1  0
 12 13  1  0
 13 14  2  0
 14 15  1  0
 15 16  2  0
 16 17  1  0
 13 18  1  0
 17 18  2  0
  7 19  1  0
  5 20  1  0
 19 20  2  0
M  END
