pyridine_urea_3142
     RDKit          3D

 21 23  0  0  0  0  0  0  0  0999 V2000
    8.9540    0.6630   21.3250 O   0  0  0  0  0  0  0  0  0  0  0  0
    8.3820   -0.4120   21.4730 C   0  0  0  0  0  0  0  0  0  0  0  0
    8.9000   -1.5370   22.0690 N   0  0  0  0  0  0  0  0  0  0  0  0
    8.6170   -1.9710   23.3740 C   0  0  0  0  0  0  0  0  0  0  0  0
    8.7540   -0.9680   24.3250 C   0  0  0  0  0  0  0  0  0  0  0  0
    7.9660   -1.0230   25.4610 C   0  0  0  0  0  0  0  0  0  0  0  0
    8.4620   -1.0630   26.7260 C   0  0  0  0  0  0  0  0  0  0  0  0
    7.5420   -1.0900   27.6640 N   0  0  0  0  0  0  0  0  0  0  0  0
    6.3610   -1.0750   27.0180 C   0  0  0  0  0  0  0  0  0  0  0  0
    6.5700   -1.0350   25.5510 N   0  0  0  0  0  0  0  0  0  0  0  0
    5.1350   -1.0900   27.6470 C   0  0  0  0  0  0  0  0  0  0  0  0
    5.2470   -1.0000   29.1770 C   0  0  0  0  0  0  0  0  0  0  0  0
    6.4740   -1.4960   29.6640 C   0  0  0  0  0  0  0  0  0  0  0  0
    7.6780   -1.1230   29.0600 C   0  0  0  0  0  0  0  0  0  0  0  0
    7.0950   -0.6380   21.0460 N   0  0  0  0  0  0  0  0  0  0  0  0
    6.4370    0.0190   20.0560 C   0  0  0  0  0  0  0  0  0  0  0  0
    5.2670    0.7430   20.3080 C   0  0  0  0  0  0  0  0  0  0  0  0
    4.6400    1.4110   19.2500 C   0  0  0  0  0  0  0  0  0  0  0  0
    5.2200    1.3180   17.9940 C   0  0  0  0  0  0  0  0  0  0  0  0
    6.3430    0.6190   17.7370 N   0  0  0  0  0  0  0  0  0  0  0  0
    6.9330   -0.0220   18.7640 C   0  0  0  0  0  0  0  0  0  0  0  0
  1  2  2  0
  2  3  1  0
  3  4  1  0
  4  5  1  0
  5  6  1  0
  6  7  2  0
  7  8  1  0
  8  9  1  0
  6 10  1  0
  9 10  2  0
  9 11  1  0
 11 12  1  0
 12 13  1  0
  8 14  1  0
 13 14  1  0
  2 15  1  0
 15 16  1  0
 16 17  2  0
 17 18  1  0
 18 19  2  0
 19 20  1  0
 16 21  1  0
 20 21  2  0
M  END
