pyridine_urea_12175
     RDKit          3D

 23 25  0  0  0  0  0  0  0  0999 V2000
   13.6550   -3.2470   24.0940 C   0  0  0  0  0  0  0  0  0  0  0  0
   13.3210   -2.1060   24.7660 C   0  0  0  0  0  0  0  0  0  0  0  0
   13.7720   -1.7070   25.9100 N   0  0  0  0  0  0  0  0  0  0  0  0
   13.0280   -0.5680   25.9130 C   0  0  0  0  0  0  0  0  0  0  0  0
   12.2060   -0.2260   24.9860 C   0  0  0  0  0  0  0  0  0  0  0  0
   12.4140   -1.2710   24.2780 N   0  0  0  0  0  0  0  0  0  0  0  0
   11.7900   -1.3870   23.3620 C   0  0  0  0  0  0  0  0  0  0  0  0
   12.4510   -1.6210   22.3220 C   0  0  0  0  0  0  0  0  0  0  0  0
   11.6510   -1.8450   21.3810 C   0  0  0  0  0  0  0  0  0  0  0  0
   10.1120   -1.8420   21.3970 C   0  0  0  0  0  0  0  0  0  0  0  0
    8.8070   -1.7780   21.6570 C   0  0  0  0  0  0  0  0  0  0  0  0
    8.2940   -1.0420   20.7560 N   0  0  0  0  0  0  0  0  0  0  0  0
    7.9810    0.1230   21.2470 C   0  0  0  0  0  0  0  0  0  0  0  0
    8.7380    1.0240   21.5620 O   0  0  0  0  0  0  0  0  0  0  0  0
    6.5670    0.1130   21.3080 N   0  0  0  0  0  0  0  0  0  0  0  0
    6.0150    0.5720   20.1740 C   0  0  0  0  0  0  0  0  0  0  0  0
    4.8390    1.2780   20.1240 C   0  0  0  0  0  0  0  0  0  0  0  0
    4.3890    1.7200   18.8980 C   0  0  0  0  0  0  0  0  0  0  0  0
    5.1370    1.4370   17.7680 C   0  0  0  0  0  0  0  0  0  0  0  0
    6.2830    0.7410   17.7700 N   0  0  0  0  0  0  0  0  0  0  0  0
    6.6920    0.3250   18.9790 C   0  0  0  0  0  0  0  0  0  0  0  0
    9.6710   -1.5180   22.6740 C   0  0  0  0  0  0  0  0  0  0  0  0
   10.5250   -1.3050   23.6050 C   0  0  0  0  0  0  0  0  0  0  0  0
  1  2  1  0
  2  3  2  0
  3  4  1  0
  4  5  2  0
  2  6  1  0
  5  6  1  0
  6  7  1  0
  7  8  2  0
  8  9  1  0
  9 10  2  0
 10 11  1  0
 11 12  1  0
 12 13  1  0
 13 14  2  0
 13 15  1  0
 15 16  1  0
 16 17  2  0
 17 18  1  0
 18 19  2  0
 19 20  1  0
 16 21  1  0
 20 21  2  0
 10 22  1  0
  7 23  1  0
 22 23  2  0
M  END
