pyridine_urea_7858
     RDKit          3D

 28 30  0  0  0  0  0  0  0  0999 V2000
   13.1040    6.7790   22.6270 C   0  0  0  0  0  0  0  0  0  0  0  0
   11.9070    6.7020   22.8350 O   0  0  0  0  0  0  0  0  0  0  0  0
   11.5700    5.4180   22.8760 C   0  0  0  0  0  0  0  0  0  0  0  0
   10.2120    5.1540   22.9770 C   0  0  0  0  0  0  0  0  0  0  0  0
    9.7260    3.8660   23.0280 C   0  0  0  0  0  0  0  0  0  0  0  0
    8.5070    3.7870   23.1220 O   0  0  0  0  0  0  0  0  0  0  0  0
    7.7550    4.1920   22.0540 C   0  0  0  0  0  0  0  0  0  0  0  0
   10.7410    2.7410   22.9670 C   0  0  0  0  0  0  0  0  0  0  0  0
   12.1000    3.0830   22.8730 C   0  0  0  0  0  0  0  0  0  0  0  0
   13.0570    2.0310   22.8360 O   0  0  0  0  0  0  0  0  0  0  0  0
   12.4610    0.7690   22.8260 C   0  0  0  0  0  0  0  0  0  0  0  0
   13.0830   -0.3560   22.4920 C   0  0  0  0  0  0  0  0  0  0  0  0
   12.2470   -1.3420   22.5690 C   0  0  0  0  0  0  0  0  0  0  0  0
   10.9650   -1.5630   22.8840 C   0  0  0  0  0  0  0  0  0  0  0  0
   10.0650   -0.5130   23.2890 C   0  0  0  0  0  0  0  0  0  0  0  0
    9.5080   -1.7510   23.2520 C   0  0  0  0  0  0  0  0  0  0  0  0
    8.6250   -1.7860   22.1780 N   0  0  0  0  0  0  0  0  0  0  0  0
    8.1940   -0.6800   21.4960 C   0  0  0  0  0  0  0  0  0  0  0  0
    8.9500    0.4570   21.3890 O   0  0  0  0  0  0  0  0  0  0  0  0
    6.9490   -0.8310   20.9680 N   0  0  0  0  0  0  0  0  0  0  0  0
    6.2950   -0.0600   20.0050 C   0  0  0  0  0  0  0  0  0  0  0  0
    5.1260    0.6690   20.2120 C   0  0  0  0  0  0  0  0  0  0  0  0
    4.5850    1.3960   19.1630 C   0  0  0  0  0  0  0  0  0  0  0  0
    5.2210    1.3830   17.9290 C   0  0  0  0  0  0  0  0  0  0  0  0
    6.3490    0.6830   17.7130 N   0  0  0  0  0  0  0  0  0  0  0  0
    6.8510   -0.0150   18.7430 C   0  0  0  0  0  0  0  0  0  0  0  0
   11.1180    0.6900   23.1820 C   0  0  0  0  0  0  0  0  0  0  0  0
   12.5190    4.4030   22.8220 C   0  0  0  0  0  0  0  0  0  0  0  0
  1  2  1  0
  2  3  1  0
  3  4  2  0
  4  5  1  0
  5  6  1  0
  6  7  1  0
  5  8  2  0
  8  9  1  0
  9 10  1  0
 10 11  1  0
 11 12  2  0
 12 13  1  0
 13 14  2  0
 14 15  1  0
 15 16  1  0
 16 17  1  0
 17 18  1  0
 18 19  2  0
 18 20  1  0
 20 21  1  0
 21 22  2  0
 22 23  1  0
 23 24  2  0
 24 25  1  0
 21 26  1  0
 25 26  2  0
 11 27  1  0
 15 27  2  0
  3 28  1  0
  9 28  2  0
M  END
