pyridine_urea_8424
     RDKit          3D

 22 24  0  0  0  0  0  0  0  0999 V2000
   13.3120   -3.0640   20.8320 O   0  0  0  0  0  0  0  0  0  0  0  0
   13.3790   -2.1850   21.6620 C   0  0  0  0  0  0  0  0  0  0  0  0
   13.3600   -2.2400   23.1400 C   0  0  0  0  0  0  0  0  0  0  0  0
   13.1930   -0.8930   23.5230 C   0  0  2  0  0  0  0  0  0  0  0  0
   11.9370   -0.7010   23.4770 C   0  0  0  0  0  0  0  0  0  0  0  0
   11.2090    0.1220   24.1900 C   0  0  0  0  0  0  0  0  0  0  0  0
    9.7780    0.1160   23.8740 C   0  0  0  0  0  0  0  0  0  0  0  0
    9.3750   -0.7340   22.8750 C   0  0  0  0  0  0  0  0  0  0  0  0
    8.0130   -0.5730   22.7050 N   0  0  0  0  0  0  0  0  0  0  0  0
    7.8240    0.0640   21.5330 C   0  0  0  0  0  0  0  0  0  0  0  0
    8.6470    1.2050   21.1010 O   0  0  0  0  0  0  0  0  0  0  0  0
    6.8020   -0.5190   20.8780 N   0  0  0  0  0  0  0  0  0  0  0  0
    6.1610    0.1670   19.8870 C   0  0  0  0  0  0  0  0  0  0  0  0
    4.9710    0.8440   20.0440 C   0  0  0  0  0  0  0  0  0  0  0  0
    4.4530    1.5170   18.9510 C   0  0  0  0  0  0  0  0  0  0  0  0
    5.1560    1.4780   17.7490 C   0  0  0  0  0  0  0  0  0  0  0  0
    6.3090    0.8110   17.5950 N   0  0  0  0  0  0  0  0  0  0  0  0
    6.7810    0.1730   18.6630 C   0  0  0  0  0  0  0  0  0  0  0  0
   10.1190   -1.6850   22.0310 C   0  0  0  0  0  0  0  0  0  0  0  0
   11.4230   -1.6210   22.3880 C   0  0  0  0  0  0  0  0  0  0  0  0
   13.4720    0.0410   22.5090 C   0  0  0  0  0  0  0  0  0  0  0  0
   13.5210   -0.8850   21.4690 N   0  0  0  0  0  0  0  0  0  0  0  0
  1  2  2  0
  2  3  1  0
  3  4  1  0
  4  5  1  6
  5  6  2  0
  6  7  1  0
  7  8  2  0
  8  9  1  0
  9 10  1  0
 10 11  2  0
 10 12  1  0
 12 13  1  0
 13 14  2  0
 14 15  1  0
 15 16  2  0
 16 17  1  0
 13 18  1  0
 17 18  2  0
  8 19  1  0
  5 20  1  0
 19 20  2  0
  4 21  1  0
  2 22  1  0
 21 22  1  0
M  END
