pyridine_urea_844
     RDKit          3D

 23 25  0  0  0  0  0  0  0  0999 V2000
   12.8400    5.2210   21.8370 C   0  0  0  0  0  0  0  0  0  0  0  0
   11.9890    4.1790   22.5020 C   0  0  0  0  0  0  0  0  0  0  0  0
   10.6320    4.4160   22.7510 C   0  0  0  0  0  0  0  0  0  0  0  0
    9.8270    3.4520   23.3780 C   0  0  0  0  0  0  0  0  0  0  0  0
   10.3750    2.2230   23.7720 C   0  0  0  0  0  0  0  0  0  0  0  0
   11.8260    1.9780   23.5020 C   0  0  0  0  0  0  0  0  0  0  0  0
   12.4520    0.6560   23.9410 C   0  0  0  0  0  0  0  0  0  0  0  0
   11.8920   -0.5760   23.7500 N   0  0  0  0  0  0  0  0  0  0  0  0
   12.4070   -1.5140   22.8680 C   0  0  0  0  0  0  0  0  0  0  0  0
   11.3700   -1.6840   21.9870 C   0  0  0  0  0  0  0  0  0  0  0  0
   10.4380   -0.6710   22.1800 C   0  0  1  0  0  0  0  0  0  0  0  0
    9.2420   -1.0560   21.6280 N   0  0  0  0  0  0  0  0  0  0  0  0
    8.2770   -0.1270   21.3390 C   0  0  0  0  0  0  0  0  0  0  0  0
    8.5330    1.0670   21.2950 O   0  0  0  0  0  0  0  0  0  0  0  0
    7.0820   -0.6830   21.0870 N   0  0  0  0  0  0  0  0  0  0  0  0
    6.4110   -0.0250   20.1110 C   0  0  0  0  0  0  0  0  0  0  0  0
    5.2380    0.7060   20.2690 C   0  0  0  0  0  0  0  0  0  0  0  0
    4.6010    1.3810   19.2140 C   0  0  0  0  0  0  0  0  0  0  0  0
    5.1770    1.3150   17.9480 C   0  0  0  0  0  0  0  0  0  0  0  0
    6.3140    0.6140   17.7380 N   0  0  0  0  0  0  0  0  0  0  0  0
    6.9270   -0.0610   18.8300 C   0  0  0  0  0  0  0  0  0  0  0  0
   10.4740   -0.6210   23.6800 C   0  0  0  0  0  0  0  0  0  0  0  0
   12.5760    2.9710   22.8710 C   0  0  0  0  0  0  0  0  0  0  0  0
  1  2  1  0
  2  3  2  0
  3  4  1  0
  4  5  2  0
  5  6  1  0
  6  7  1  0
  7  8  1  0
  8  9  1  0
  9 10  1  0
 10 11  1  0
 11 12  1  1
 12 13  1  0
 13 14  2  0
 13 15  1  0
 15 16  1  0
 16 17  2  0
 17 18  1  0
 18 19  2  0
 19 20  1  0
 16 21  1  0
 20 21  2  0
  8 22  1  0
 11 22  1  0
  2 23  1  0
  6 23  2  0
M  END
