pyridine_urea_2396
     RDKit          3D

 25 27  0  0  0  0  0  0  0  0999 V2000
   18.9520    5.0330   24.0780 C   0  0  0  0  0  0  0  0  0  0  0  0
   17.6540    3.9410   24.3650 C   0  0  0  0  0  0  0  0  0  0  0  0
   16.3660    4.6310   24.4850 C   0  0  0  0  0  0  0  0  0  0  0  0
   14.5270    4.6990   23.8660 C   0  0  0  0  0  0  0  0  0  0  0  0
   13.4610    5.1180   24.3660 O   0  0  0  0  0  0  0  0  0  0  0  0
   14.1740    4.1100   22.6290 N   0  0  0  0  0  0  0  0  0  0  0  0
   13.5310    3.0710   22.4780 C   0  0  0  0  0  0  0  0  0  0  0  0
   12.4570    3.5590   22.1840 N   0  0  0  0  0  0  0  0  0  0  0  0
   11.8440    2.5830   22.0430 C   0  0  0  0  0  0  0  0  0  0  0  0
   10.3370    2.7210   21.8280 C   0  0  0  0  0  0  0  0  0  0  0  0
    9.5320    1.3100   21.7040 C   0  0  0  0  0  0  0  0  0  0  0  0
   10.1620   -0.0600   21.7900 C   0  0  0  0  0  0  0  0  0  0  0  0
    9.3320   -1.1100   21.7020 N   0  0  0  0  0  0  0  0  0  0  0  0
    8.2590   -0.9050   20.8920 C   0  0  0  0  0  0  0  0  0  0  0  0
    8.1920   -1.2650   19.7770 O   0  0  0  0  0  0  0  0  0  0  0  0
    7.1360   -0.1770   21.3740 N   0  0  0  0  0  0  0  0  0  0  0  0
    6.3930    0.3480   20.3220 C   0  0  0  0  0  0  0  0  0  0  0  0
    5.2060    1.0440   20.3950 C   0  0  0  0  0  0  0  0  0  0  0  0
    4.5410    1.5400   19.2780 C   0  0  0  0  0  0  0  0  0  0  0  0
    5.1170    1.3130   18.0360 C   0  0  0  0  0  0  0  0  0  0  0  0
    6.2670    0.6360   17.8840 N   0  0  0  0  0  0  0  0  0  0  0  0
    6.8640    0.1750   19.0080 C   0  0  0  0  0  0  0  0  0  0  0  0
   11.6560   -0.2950   22.0030 C   0  0  0  0  0  0  0  0  0  0  0  0
   12.5140    1.0230   22.1390 C   0  0  0  0  0  0  0  0  0  0  0  0
   13.9850    1.2270   22.6230 S   0  0  0  0  0  0  0  0  0  0  0  0
  1  2  1  0
  2  3  1  0
  3  4  1  0
  4  5  2  0
  4  6  1  0
  6  7  1  0
  7  8  2  0
  8  9  1  0
  9 10  2  0
 10 11  1  0
 11 12  2  0
 12 13  1  0
 13 14  1  0
 14 15  2  0
 14 16  1  0
 16 17  1  0
 17 18  2  0
 18 19  1  0
 19 20  2  0
 20 21  1  0
 17 22  1  0
 21 22  2  0
 12 23  1  0
  9 24  1  0
 23 24  2  0
  7 25  1  0
 24 25  1  0
M  END
