pyridine_urea_13890
     RDKit          3D

 24 26  0  0  0  0  0  0  0  0999 V2000
    8.9640    1.1850   21.2770 O   0  0  0  0  0  0  0  0  0  0  0  0
    8.4190    0.1170   21.5970 C   0  0  0  0  0  0  0  0  0  0  0  0
    8.8490   -0.7020   22.6340 N   0  0  0  0  0  0  0  0  0  0  0  0
    9.7870   -0.2770   23.6700 C   0  0  0  0  0  0  0  0  0  0  0  0
   11.2430   -0.7230   23.4090 C   0  0  0  0  0  0  0  0  0  0  0  0
   12.1750    0.3660   23.1180 C   0  0  0  0  0  0  0  0  0  0  0  0
   13.3420    0.4180   22.7470 C   0  0  0  0  0  0  0  0  0  0  0  0
   12.6570    1.8170   22.9770 C   0  0  0  0  0  0  0  0  0  0  0  0
   11.4470    0.8550   23.3830 C   0  0  0  0  0  0  0  0  0  0  0  0
   10.6680    1.9730   23.6350 C   0  0  0  0  0  0  0  0  0  0  0  0
   11.9550    1.9140   23.1780 C   0  0  0  0  0  0  0  0  0  0  0  0
   12.8390    3.3630   22.8290 Cl  0  0  0  0  0  0  0  0  0  0  0  0
   12.0140   -1.4000   24.5120 C   0  0  0  0  0  0  0  0  0  0  0  0
   11.7650   -2.6900   24.0550 C   0  0  0  0  0  0  0  0  0  0  0  0
   10.4190   -2.6820   23.6040 C   0  0  0  0  0  0  0  0  0  0  0  0
   10.0350   -2.3860   22.1130 C   0  0  0  0  0  0  0  0  0  0  0  0
   11.3520   -1.7930   22.3680 C   0  0  0  0  0  0  0  0  0  0  0  0
    7.3050   -0.4450   21.0120 N   0  0  0  0  0  0  0  0  0  0  0  0
    6.5410    0.1580   20.0760 C   0  0  0  0  0  0  0  0  0  0  0  0
    5.3810    0.9070   20.3180 C   0  0  0  0  0  0  0  0  0  0  0  0
    4.6880    1.5020   19.2530 C   0  0  0  0  0  0  0  0  0  0  0  0
    5.1490    1.3500   17.9490 C   0  0  0  0  0  0  0  0  0  0  0  0
    6.2350    0.6440   17.6230 N   0  0  0  0  0  0  0  0  0  0  0  0
    6.9190    0.0470   18.7640 C   0  0  0  0  0  0  0  0  0  0  0  0
  1  2  2  0
  2  3  1  0
  3  4  1  0
  5  4  1  0
  5  6  1  0
  6  7  2  0
  7  8  1  0
  8  9  2  0
  9 10  1  0
  6 11  1  0
 10 11  2  0
 11 12  1  0
  5 13  1  0
 13 14  1  0
 14 15  1  0
 15 16  1  0
  5 17  1  0
 16 17  1  0
  2 18  1  0
 18 19  1  0
 19 20  2  0
 20 21  1  0
 21 22  2  0
 22 23  1  0
 19 24  1  0
 23 24  2  0
M  END
