pyridine_urea_6801
     RDKit          3D

 21 22  0  0  0  0  0  0  0  0999 V2000
    8.0990    3.5550   24.4890 C   0  0  0  0  0  0  0  0  0  0  0  0
    7.7840    2.3580   23.5690 C   0  0  0  0  0  0  0  0  0  0  0  0
    8.4150    1.1050   24.1970 C   0  0  0  0  0  0  0  0  0  0  0  0
    9.6060    1.1050   23.8950 O   0  0  0  0  0  0  0  0  0  0  0  0
   10.2770   -0.0820   23.7220 C   0  0  0  0  0  0  0  0  0  0  0  0
    9.2920   -1.1670   23.5170 C   0  0  0  0  0  0  0  0  0  0  0  0
    8.5810   -1.4740   22.2940 N   0  0  0  0  0  0  0  0  0  0  0  0
    8.1180   -0.4320   21.5180 C   0  0  0  0  0  0  0  0  0  0  0  0
    8.7520    0.5890   21.2790 O   0  0  0  0  0  0  0  0  0  0  0  0
    6.7870   -0.7320   21.0450 N   0  0  0  0  0  0  0  0  0  0  0  0
    6.2750   -0.0430   19.9880 C   0  0  0  0  0  0  0  0  0  0  0  0
    5.0920    0.6740   20.1680 C   0  0  0  0  0  0  0  0  0  0  0  0
    4.5620    1.3860   19.1090 C   0  0  0  0  0  0  0  0  0  0  0  0
    5.2040    1.3820   17.8900 C   0  0  0  0  0  0  0  0  0  0  0  0
    6.3440    0.6930   17.6970 N   0  0  0  0  0  0  0  0  0  0  0  0
    6.8560   -0.0030   18.7370 C   0  0  0  0  0  0  0  0  0  0  0  0
   11.2890   -0.5740   24.6540 C   0  0  0  0  0  0  0  0  0  0  0  0
   12.6970   -0.1620   24.2620 C   0  0  0  0  0  0  0  0  0  0  0  0
   13.0540   -0.7940   23.0860 C   0  0  0  0  0  0  0  0  0  0  0  0
   11.9370   -1.1240   22.3700 C   0  0  0  0  0  0  0  0  0  0  0  0
   11.0100   -0.0920   22.3910 C   0  0  0  0  0  0  0  0  0  0  0  0
  1  2  1  0
  2  3  1  0
  3  4  1  0
  5  4  1  0
  5  6  1  0
  6  7  1  0
  7  8  1  0
  8  9  2  0
  8 10  1  0
 10 11  1  0
 11 12  2  0
 12 13  1  0
 13 14  2  0
 14 15  1  0
 11 16  1  0
 15 16  2  0
  5 17  1  0
 17 18  1  0
 18 19  1  0
 19 20  1  0
  5 21  1  0
 20 21  1  0
M  END
