pyridine_urea_3676
     RDKit          3D

 15 15  0  0  0  0  0  0  0  0999 V2000
   11.8610    1.0830   23.4860 C   0  0  0  0  0  0  0  0  0  0  0  0
   13.0810    0.1930   23.3300 C   0  0  0  0  0  0  0  0  0  0  0  0
   12.8600   -1.0300   22.4580 C   0  0  0  0  0  0  0  0  0  0  0  0
   11.4340   -1.5440   22.3190 C   0  0  0  0  0  0  0  0  0  0  0  0
   10.3760   -0.6150   22.9100 C   0  0  0  0  0  0  0  0  0  0  0  0
    9.0470   -0.8820   22.3940 N   0  0  0  0  0  0  0  0  0  0  0  0
    8.4650    0.0170   21.5240 C   0  0  0  0  0  0  0  0  0  0  0  0
    8.9700    1.1150   21.2420 O   0  0  0  0  0  0  0  0  0  0  0  0
    7.2730   -0.4800   21.0510 N   0  0  0  0  0  0  0  0  0  0  0  0
    6.5520    0.1100   20.0130 C   0  0  0  0  0  0  0  0  0  0  0  0
    5.3940    0.8300   20.3130 C   0  0  0  0  0  0  0  0  0  0  0  0
    4.6720    1.4420   19.2870 C   0  0  0  0  0  0  0  0  0  0  0  0
    5.1440    1.3070   18.0010 C   0  0  0  0  0  0  0  0  0  0  0  0
    6.2470    0.6150   17.6880 N   0  0  0  0  0  0  0  0  0  0  0  0
    6.9240    0.0320   18.6940 C   0  0  0  0  0  0  0  0  0  0  0  0
  1  2  1  0
  2  3  1  0
  3  4  1  0
  4  5  1  0
  5  6  1  0
  6  7  1  0
  7  8  2  0
  7  9  1  0
  9 10  1  0
 10 11  2  0
 11 12  1  0
 12 13  2  0
 13 14  1  0
 10 15  1  0
 14 15  2  0
M  END
