pyridine_urea_6464
     RDKit          3D

 23 24  0  0  0  0  0  0  0  0999 V2000
    7.0600   -5.5380   22.3400 C   0  0  0  0  0  0  0  0  0  0  0  0
    7.5110   -4.4310   23.0450 N   0  0  0  0  0  0  0  0  0  0  0  0
    7.3610   -4.5560   24.4750 C   0  0  0  0  0  0  0  0  0  0  0  0
    5.9850   -5.1080   24.8570 C   0  0  0  0  0  0  0  0  0  0  0  0
    6.0450   -5.5330   26.2700 C   0  0  0  0  0  0  0  0  0  0  0  0
    7.2290   -5.6400   26.9270 C   0  0  0  0  0  0  0  0  0  0  0  0
    7.4760   -6.0460   28.3500 C   0  0  0  0  0  0  0  0  0  0  0  0
    6.2760   -6.3720   29.1250 C   0  0  0  0  0  0  0  0  0  0  0  0
    5.0910   -6.2690   28.4740 C   0  0  0  0  0  0  0  0  0  0  0  0
    5.0020   -5.8710   27.1280 N   0  0  0  0  0  0  0  0  0  0  0  0
    7.6060   -3.2270   22.3550 C   0  0  0  0  0  0  0  0  0  0  0  0
    6.6700   -2.6510   21.8250 O   0  0  0  0  0  0  0  0  0  0  0  0
    8.8130   -2.5150   22.1930 C   0  0  0  0  0  0  0  0  0  0  0  0
    8.8970   -1.1970   22.4840 N   0  0  0  0  0  0  0  0  0  0  0  0
    8.3060   -0.3640   21.5940 C   0  0  0  0  0  0  0  0  0  0  0  0
    8.7450    0.8590   21.2160 O   0  0  0  0  0  0  0  0  0  0  0  0
    7.0350   -0.8350   20.9870 N   0  0  0  0  0  0  0  0  0  0  0  0
    6.3720   -0.0520   20.0490 C   0  0  0  0  0  0  0  0  0  0  0  0
    5.1110    0.6780   20.5840 C   0  0  0  0  0  0  0  0  0  0  0  0
    4.7010    1.3830   19.2990 C   0  0  0  0  0  0  0  0  0  0  0  0
    5.3320    1.3640   17.9570 C   0  0  0  0  0  0  0  0  0  0  0  0
    6.4140    0.6660   17.7190 N   0  0  0  0  0  0  0  0  0  0  0  0
    6.8640    0.0080   18.7560 C   0  0  0  0  0  0  0  0  0  0  0  0
  1  2  1  0
  2  3  1  0
  3  4  1  0
  4  5  1  0
  5  6  2  0
  6  7  1  0
  7  8  2  0
  8  9  1  0
  5 10  1  0
  9 10  2  0
  2 11  1  0
 11 12  2  0
 11 13  1  0
 13 14  1  0
 14 15  1  0
 15 16  2  0
 15 17  1  0
 17 18  1  0
 18 19  2  0
 19 20  1  0
 20 21  2  0
 21 22  1  0
 18 23  1  0
 22 23  2  0
M  END
