pyridine_urea_3248
     RDKit          3D

 20 22  0  0  0  0  0  0  0  0999 V2000
    8.7580    0.5680   21.2310 O   0  0  0  0  0  0  0  0  0  0  0  0
    8.3610   -0.5900   21.2010 C   0  0  0  0  0  0  0  0  0  0  0  0
    7.0950   -0.9600   20.8450 N   0  0  0  0  0  0  0  0  0  0  0  0
    6.4030   -0.1890   19.9050 C   0  0  0  0  0  0  0  0  0  0  0  0
    5.1770    0.4080   20.2230 C   0  0  0  0  0  0  0  0  0  0  0  0
    4.5220    1.1860   19.2590 C   0  0  0  0  0  0  0  0  0  0  0  0
    5.1230    1.3360   18.0240 C   0  0  0  0  0  0  0  0  0  0  0  0
    6.2980    0.7670   17.7060 N   0  0  0  0  0  0  0  0  0  0  0  0
    6.9000    0.0230   18.6470 C   0  0  0  0  0  0  0  0  0  0  0  0
    9.2060   -1.6200   21.5500 N   0  0  0  0  0  0  0  0  0  0  0  0
   10.1820   -1.0700   22.4180 C   0  0  0  0  0  0  0  0  0  0  0  0
   11.6720   -1.0030   22.1220 C   0  0  0  0  0  0  0  0  0  0  0  0
   12.4750   -0.3730   23.0680 C   0  0  0  0  0  0  0  0  0  0  0  0
   11.8710    0.1280   24.2310 C   0  0  0  0  0  0  0  0  0  0  0  0
   10.4570   -0.0040   24.4710 C   0  0  0  0  0  0  0  0  0  0  0  0
    9.6550   -0.5830   23.5590 C   0  0  0  0  0  0  0  0  0  0  0  0
    8.2970   -0.7500   23.6550 O   0  0  0  0  0  0  0  0  0  0  0  0
    7.6580   -0.0110   24.6660 C   0  0  0  0  0  0  0  0  0  0  0  0
    8.4900   -0.1410   25.7510 C   0  0  0  0  0  0  0  0  0  0  0  0
    9.7580    0.4170   25.6210 C   0  0  0  0  0  0  0  0  0  0  0  0
  1  2  2  0
  2  3  1  0
  3  4  1  0
  4  5  2  0
  5  6  1  0
  6  7  2  0
  7  8  1  0
  4  9  1  0
  8  9  2  0
  2 10  1  0
 10 11  1  0
 11 12  2  0
 12 13  1  0
 13 14  2  0
 14 15  1  0
 11 16  1  0
 15 16  2  0
 16 17  1  0
 17 18  1  0
 18 19  1  0
 15 20  1  0
 19 20  1  0
M  END
