pyridine_urea_4766
     RDKit          3D

 22 23  0  0  0  0  0  0  0  0999 V2000
    8.2520    2.5800   24.1780 C   0  0  0  0  0  0  0  0  0  0  0  0
    9.3760    1.9690   24.6710 N   0  0  0  0  0  0  0  0  0  0  0  0
    9.2530    0.6650   25.3350 C   0  0  0  0  0  0  0  0  0  0  0  0
   10.4400    2.1800   23.8190 C   0  0  0  0  0  0  0  0  0  0  0  0
   11.0830    3.4360   23.6100 O   0  0  0  0  0  0  0  0  0  0  0  0
   10.7300    0.9690   23.2420 C   0  0  0  0  0  0  0  0  0  0  0  0
    9.7100    0.1660   23.0370 C   0  0  0  0  0  0  0  0  0  0  0  0
    9.8570   -1.0360   22.4680 C   0  0  0  0  0  0  0  0  0  0  0  0
    8.7270   -1.6970   22.2390 N   0  0  0  0  0  0  0  0  0  0  0  0
    7.9380   -0.8660   21.3970 C   0  0  0  0  0  0  0  0  0  0  0  0
    8.3780    0.2310   21.0540 O   0  0  0  0  0  0  0  0  0  0  0  0
    6.7280   -1.2480   20.9820 N   0  0  0  0  0  0  0  0  0  0  0  0
    6.2380   -0.4190   20.0140 C   0  0  0  0  0  0  0  0  0  0  0  0
    5.0740    0.3070   20.2510 C   0  0  0  0  0  0  0  0  0  0  0  0
    4.5610    1.1640   19.2740 C   0  0  0  0  0  0  0  0  0  0  0  0
    5.2470    1.2650   18.0600 C   0  0  0  0  0  0  0  0  0  0  0  0
    6.3720    0.5770   17.8060 N   0  0  0  0  0  0  0  0  0  0  0  0
    6.8450   -0.2440   18.7760 C   0  0  0  0  0  0  0  0  0  0  0  0
   11.2870   -1.4970   22.0990 C   0  0  0  0  0  0  0  0  0  0  0  0
   12.3700   -0.6060   22.3310 C   0  0  0  0  0  0  0  0  0  0  0  0
   11.9840    0.6010   22.8720 C   0  0  0  0  0  0  0  0  0  0  0  0
   13.0720    1.7890   23.0880 Cl  0  0  0  0  0  0  0  0  0  0  0  0
  1  2  1  0
  2  3  1  0
  2  4  1  0
  4  5  2  0
  4  6  1  0
  6  7  2  0
  7  8  1  0
  8  9  1  0
  9 10  1  0
 10 11  2  0
 10 12  1  0
 12 13  1  0
 13 14  2  0
 14 15  1  0
 15 16  2  0
 16 17  1  0
 13 18  1  0
 17 18  2  0
  8 19  2  0
 19 20  1  0
  6 21  1  0
 20 21  2  0
 21 22  1  0
M  END
