pyridine_urea_6054
     RDKit          3D

 25 28  0  0  0  0  0  0  0  0999 V2000
    9.0820    1.1000   21.3740 O   0  0  0  0  0  0  0  0  0  0  0  0
    8.7090   -0.0810   21.4300 C   0  0  0  0  0  0  0  0  0  0  0  0
    9.0240   -1.0080   22.5260 N   0  0  0  0  0  0  0  0  0  0  0  0
   10.3370   -1.0880   22.9720 C   0  0  0  0  0  0  0  0  0  0  0  0
   11.2650   -1.0970   22.0330 C   0  0  0  0  0  0  0  0  0  0  0  0
   12.5920   -1.1360   22.3020 C   0  0  0  0  0  0  0  0  0  0  0  0
   13.1510   -1.1800   23.5620 C   0  0  0  0  0  0  0  0  0  0  0  0
   12.0000   -1.1880   24.3290 N   0  0  0  0  0  0  0  0  0  0  0  0
   10.5860   -1.1520   24.3070 C   0  0  0  0  0  0  0  0  0  0  0  0
    7.9650   -0.7260   20.4860 N   0  0  0  0  0  0  0  0  0  0  0  0
    6.5630   -0.9980   20.7280 C   0  0  1  0  0  0  0  0  0  0  0  0
    6.1970   -0.7070   22.1710 C   0  0  0  0  0  0  0  0  0  0  0  0
    4.8490   -0.6480   22.4250 C   0  0  0  0  0  0  0  0  0  0  0  0
    4.3820    0.4360   21.8100 C   0  0  0  0  0  0  0  0  0  0  0  0
    3.4970    1.4160   22.3230 N   0  0  0  0  0  0  0  0  0  0  0  0
    3.3840    2.2710   21.2800 N   0  0  0  0  0  0  0  0  0  0  0  0
    4.1970    1.7060   20.3010 C   0  0  0  0  0  0  0  0  0  0  0  0
    4.5590    1.9060   19.1640 C   0  0  0  0  0  0  0  0  0  0  0  0
    5.6220    1.0760   19.1260 C   0  0  0  0  0  0  0  0  0  0  0  0
    6.3570    0.8750   18.0800 C   0  0  0  0  0  0  0  0  0  0  0  0
    5.9300    1.5840   17.0310 C   0  0  0  0  0  0  0  0  0  0  0  0
    4.8630    2.4440   17.0600 C   0  0  0  0  0  0  0  0  0  0  0  0
    4.1130    2.6480   18.1860 C   0  0  0  0  0  0  0  0  0  0  0  0
    4.7820    0.6370   20.5990 N   0  0  0  0  0  0  0  0  0  0  0  0
    5.6400   -0.1450   19.8430 C   0  0  0  0  0  0  0  0  0  0  0  0
  1  2  2  0
  2  3  1  0
  3  4  1  0
  4  5  2  0
  5  6  1  0
  6  7  2  0
  7  8  1  0
  4  9  1  0
  8  9  2  0
  2 10  1  0
 11 10  1  1
 11 12  1  0
 12 13  1  0
 13 14  1  0
 14 15  2  0
 15 16  1  0
 16 17  2  0
 17 18  1  0
 18 19  2  0
 19 20  1  0
 20 21  2  0
 21 22  1  0
 18 23  1  0
 22 23  2  0
 14 24  1  0
 17 24  1  0
 11 25  1  0
 24 25  1  0
M  END
