pyridine_urea_3960
     RDKit          3D

 28 31  0  0  0  0  0  0  0  0999 V2000
    7.9910   -0.9290   21.7880 O   0  0  0  0  0  0  0  0  0  0  0  0
    7.2370   -0.0890   22.1220 C   0  0  0  0  0  0  0  0  0  0  0  0
    6.0820    0.0910   21.4840 N   0  0  0  0  0  0  0  0  0  0  0  0
    5.9090    0.5000   20.1790 C   0  0  0  0  0  0  0  0  0  0  0  0
    4.8080    1.3070   20.0100 C   0  0  0  0  0  0  0  0  0  0  0  0
    4.5060    1.8020   18.7680 C   0  0  0  0  0  0  0  0  0  0  0  0
    5.3280    1.4630   17.7280 C   0  0  0  0  0  0  0  0  0  0  0  0
    6.4100    0.6720   17.8340 N   0  0  0  0  0  0  0  0  0  0  0  0
    6.6910    0.1960   19.0710 C   0  0  0  0  0  0  0  0  0  0  0  0
    7.4090    0.7490   23.2240 N   0  0  0  0  0  0  0  0  0  0  0  0
    8.0580    2.1120   23.3030 C   0  0  0  0  0  0  0  0  0  0  0  0
    9.2120    2.3360   24.2300 C   0  0  0  0  0  0  0  0  0  0  0  0
    9.8980    3.4420   24.4290 C   0  0  0  0  0  0  0  0  0  0  0  0
    9.5280    4.5260   23.7750 C   0  0  0  0  0  0  0  0  0  0  0  0
    8.4220    4.4050   22.8750 C   0  0  0  0  0  0  0  0  0  0  0  0
    7.7210    3.2020   22.6430 C   0  0  0  0  0  0  0  0  0  0  0  0
    7.9670    5.6770   22.1640 C   0  0  0  0  0  0  0  0  0  0  0  0
    8.9180    6.8240   22.4150 C   0  0  0  0  0  0  0  0  0  0  0  0
    9.6020    6.7990   23.7430 C   0  0  0  0  0  0  0  0  0  0  0  0
   10.1980    5.6660   24.0330 N   0  0  0  0  0  0  0  0  0  0  0  0
   11.5130    5.7290   24.2910 C   0  0  0  0  0  0  0  0  0  0  0  0
   12.2260    5.1060   23.2980 C   0  0  0  0  0  0  0  0  0  0  0  0
   12.1100    3.7400   23.1250 C   0  0  0  0  0  0  0  0  0  0  0  0
   12.8140    3.1070   22.1240 C   0  0  0  0  0  0  0  0  0  0  0  0
   13.6250    3.8150   21.2870 C   0  0  0  0  0  0  0  0  0  0  0  0
   14.5280    3.0890   19.9910 Cl  0  0  0  0  0  0  0  0  0  0  0  0
   13.7380    5.1690   21.4750 C   0  0  0  0  0  0  0  0  0  0  0  0
   13.0520    5.8330   22.4690 C   0  0  0  0  0  0  0  0  0  0  0  0
  1  2  2  0
  2  3  1  0
  3  4  1  0
  4  5  2  0
  5  6  1  0
  6  7  2  0
  7  8  1  0
  4  9  1  0
  8  9  2  0
  2 10  1  0
 10 11  1  0
 11 12  2  0
 12 13  1  0
 13 14  2  0
 14 15  1  0
 11 16  1  0
 15 16  2  0
 15 17  1  0
 17 18  1  0
 18 19  1  0
 14 20  1  0
 19 20  1  0
 20 21  1  0
 21 22  1  0
 22 23  2  0
 23 24  1  0
 24 25  2  0
 25 26  1  0
 25 27  1  0
 22 28  1  0
 27 28  2  0
M  END
