pyridine_urea_8855
     RDKit          3D

 20 21  0  0  0  0  0  0  0  0999 V2000
   10.3900   -1.6770   22.0190 C   0  0  0  0  0  0  0  0  0  0  0  0
    9.7160   -0.4570   22.7040 C   0  0  1  0  0  0  0  0  0  0  0  0
    8.3150   -0.4990   22.5310 N   0  0  0  0  0  0  0  0  0  0  0  0
    7.8720    0.0220   21.3670 C   0  0  0  0  0  0  0  0  0  0  0  0
    8.3920    1.2590   20.8450 O   0  0  0  0  0  0  0  0  0  0  0  0
    6.9300   -0.8110   20.8620 N   0  0  0  0  0  0  0  0  0  0  0  0
    6.2880   -0.0460   19.9430 C   0  0  0  0  0  0  0  0  0  0  0  0
    5.1140    0.6840   20.1030 C   0  0  0  0  0  0  0  0  0  0  0  0
    4.5580    1.4370   19.0720 C   0  0  0  0  0  0  0  0  0  0  0  0
    5.2110    1.4450   17.8570 C   0  0  0  0  0  0  0  0  0  0  0  0
    6.3410    0.7550   17.6600 N   0  0  0  0  0  0  0  0  0  0  0  0
    6.8440    0.0390   18.6860 C   0  0  0  0  0  0  0  0  0  0  0  0
   10.0440   -0.4230   24.1420 C   0  0  0  0  0  0  0  0  0  0  0  0
   10.8430   -0.4580   25.2930 C   0  0  0  0  0  0  0  0  0  0  0  0
   12.1490   -0.6170   25.0590 C   0  0  0  0  0  0  0  0  0  0  0  0
   12.2970   -0.6920   23.8350 N   0  0  0  0  0  0  0  0  0  0  0  0
   13.3250   -0.8160   23.1010 C   0  0  0  0  0  0  0  0  0  0  0  0
   13.4730    0.4760   22.7180 C   0  0  0  0  0  0  0  0  0  0  0  0
   13.0730   -1.7300   21.9210 C   0  0  0  0  0  0  0  0  0  0  0  0
   11.1130   -0.5860   23.2710 N   0  0  0  0  0  0  0  0  0  0  0  0
  2  1  1  1
  2  3  1  0
  3  4  1  0
  4  5  2  0
  4  6  1  0
  6  7  1  0
  7  8  2  0
  8  9  1  0
  9 10  2  0
 10 11  1  0
  7 12  1  0
 11 12  2  0
  2 13  1  0
 13 14  1  0
 14 15  2  0
 15 16  1  0
 16 17  1  0
 17 18  1  0
 17 19  1  0
 13 20  2  0
 16 20  1  0
M  END
