pyridine_urea_9900
     RDKit          3D

 25 27  0  0  0  0  0  0  0  0999 V2000
    8.7190    0.6610   21.2260 O   0  0  0  0  0  0  0  0  0  0  0  0
    8.3850   -0.5190   21.2570 C   0  0  0  0  0  0  0  0  0  0  0  0
    7.1100   -0.9400   20.9770 N   0  0  0  0  0  0  0  0  0  0  0  0
    6.4420   -0.1600   19.9710 C   0  0  0  0  0  0  0  0  0  0  0  0
    5.1580    0.5720   20.3520 C   0  0  0  0  0  0  0  0  0  0  0  0
    4.4790    1.4070   19.2630 C   0  0  0  0  0  0  0  0  0  0  0  0
    5.1770    1.4120   17.9020 C   0  0  0  0  0  0  0  0  0  0  0  0
    6.3540    0.6760   17.7260 N   0  0  0  0  0  0  0  0  0  0  0  0
    6.9470   -0.0670   18.7040 C   0  0  0  0  0  0  0  0  0  0  0  0
    9.2610   -1.5340   21.5840 N   0  0  0  0  0  0  0  0  0  0  0  0
   10.2980   -1.0890   22.3890 C   0  0  0  0  0  0  0  0  0  0  0  0
   11.6670   -0.9280   22.2650 C   0  0  0  0  0  0  0  0  0  0  0  0
   12.5010   -0.4150   23.2380 C   0  0  0  0  0  0  0  0  0  0  0  0
   11.9490   -0.0480   24.4630 C   0  0  0  0  0  0  0  0  0  0  0  0
   10.5580   -0.2010   24.7320 C   0  0  0  0  0  0  0  0  0  0  0  0
    9.8620    0.0730   25.9290 C   0  0  0  0  0  0  0  0  0  0  0  0
    8.9500   -0.7430   26.0530 O   0  0  0  0  0  0  0  0  0  0  0  0
    8.4860   -0.8250   27.4330 C   0  0  0  0  0  0  0  0  0  0  0  0
    7.0910   -0.6880   27.4430 C   0  0  2  0  0  0  0  0  0  0  0  0
    6.3170   -1.1030   26.2350 C   0  0  0  0  0  0  0  0  0  0  0  0
    4.9530   -1.0990   26.4970 C   0  0  0  0  0  0  0  0  0  0  0  0
    4.7180   -0.3710   27.6500 C   0  0  0  0  0  0  0  0  0  0  0  0
    5.4790    0.8060   27.7210 C   0  0  0  0  0  0  0  0  0  0  0  0
    6.7990    0.5030   27.5410 O   0  0  0  0  0  0  0  0  0  0  0  0
    9.7780   -0.6800   23.7450 C   0  0  0  0  0  0  0  0  0  0  0  0
  1  2  2  0
  2  3  1  0
  3  4  1  0
  4  5  2  0
  5  6  1  0
  6  7  2  0
  7  8  1  0
  4  9  1  0
  8  9  2  0
  2 10  1  0
 10 11  1  0
 11 12  2  0
 12 13  1  0
 13 14  2  0
 14 15  1  0
 15 16  1  0
 16 17  1  0
 17 18  1  0
 19 18  1  6
 19 20  1  0
 20 21  1  0
 21 22  1  0
 22 23  1  0
 19 24  1  0
 23 24  1  0
 11 25  1  0
 15 25  2  0
M  END
