pyridine_urea_9818
     RDKit          3D

 25 27  0  0  0  0  0  0  0  0999 V2000
    8.7710    0.6050   21.2770 O   0  0  0  0  0  0  0  0  0  0  0  0
    8.2250   -0.4860   21.4000 C   0  0  0  0  0  0  0  0  0  0  0  0
    8.7950   -1.5890   21.9830 N   0  0  0  0  0  0  0  0  0  0  0  0
    9.5080   -1.3570   23.1940 C   0  0  0  0  0  0  0  0  0  0  0  0
   10.0320    0.0480   23.1830 C   0  0  0  0  0  0  0  0  0  0  0  0
   11.0680    1.1990   23.0700 C   0  0  0  0  0  0  0  0  0  0  0  0
   12.5500    1.1360   22.8210 C   0  0  0  0  0  0  0  0  0  0  0  0
   13.1420    2.2060   22.7870 O   0  0  0  0  0  0  0  0  0  0  0  0
   12.4150    3.4500   22.7990 C   0  0  0  0  0  0  0  0  0  0  0  0
   10.9680    3.4660   23.2690 C   0  0  0  0  0  0  0  0  0  0  0  0
   10.3360    4.7090   23.2710 C   0  0  0  0  0  0  0  0  0  0  0  0
   11.0220    5.8540   22.8570 C   0  0  0  0  0  0  0  0  0  0  0  0
   10.3180    7.0000   22.9040 F   0  0  0  0  0  0  0  0  0  0  0  0
   12.3410    5.8150   22.4270 C   0  0  0  0  0  0  0  0  0  0  0  0
   13.0520    4.6270   22.3900 C   0  0  0  0  0  0  0  0  0  0  0  0
   13.1470   -0.0200   22.6460 C   0  0  0  0  0  0  0  0  0  0  0  0
   12.2940   -1.1530   22.7160 C   0  0  0  0  0  0  0  0  0  0  0  0
   10.9720   -0.9770   22.9570 N   0  0  0  0  0  0  0  0  0  0  0  0
    6.9510   -0.7450   20.9690 N   0  0  0  0  0  0  0  0  0  0  0  0
    6.3130   -0.0390   20.0210 C   0  0  0  0  0  0  0  0  0  0  0  0
    5.0550    0.7280   20.2040 C   0  0  0  0  0  0  0  0  0  0  0  0
    4.5320    1.4190   19.1160 C   0  0  0  0  0  0  0  0  0  0  0  0
    5.2120    1.3580   17.9130 C   0  0  0  0  0  0  0  0  0  0  0  0
    6.3500    0.6640   17.7260 N   0  0  0  0  0  0  0  0  0  0  0  0
    6.8690   -0.0120   18.7660 C   0  0  0  0  0  0  0  0  0  0  0  0
  1  2  2  0
  2  3  1  0
  3  4  1  0
  4  5  1  0
  5  6  2  0
  6  7  1  0
  7  8  1  0
  8  9  1  0
  9 10  2  0
 10 11  1  0
 11 12  2  0
 12 13  1  0
 12 14  1  0
  9 15  1  0
 14 15  2  0
  7 16  2  0
 16 17  1  0
  5 18  1  0
 17 18  2  0
  2 19  1  0
 19 20  1  0
 20 21  2  0
 21 22  1  0
 22 23  2  0
 23 24  1  0
 20 25  1  0
 24 25  2  0
M  END
