pyridine_urea_3035
     RDKit          3D

 21 23  0  0  0  0  0  0  0  0999 V2000
    8.6730    0.5570   21.2950 O   0  0  0  0  0  0  0  0  0  0  0  0
    8.1320   -0.4810   21.6530 C   0  0  0  0  0  0  0  0  0  0  0  0
    6.9780   -0.9450   21.0640 N   0  0  0  0  0  0  0  0  0  0  0  0
    6.3720   -0.1500   20.0170 C   0  0  0  0  0  0  0  0  0  0  0  0
    5.0610    0.6520   20.3130 C   0  0  0  0  0  0  0  0  0  0  0  0
    4.5220    1.4010   19.2730 C   0  0  0  0  0  0  0  0  0  0  0  0
    5.2680    1.3680   17.9360 C   0  0  0  0  0  0  0  0  0  0  0  0
    6.3990    0.6560   17.7350 N   0  0  0  0  0  0  0  0  0  0  0  0
    6.9130   -0.0710   18.7530 C   0  0  0  0  0  0  0  0  0  0  0  0
    8.5310   -1.3340   22.6630 N   0  0  0  0  0  0  0  0  0  0  0  0
    9.6740   -0.9260   23.4660 C   0  0  2  0  0  0  0  0  0  0  0  0
    9.7440    0.5810   23.4650 C   0  0  0  0  0  0  0  0  0  0  0  0
   10.8010    0.8810   24.4650 C   0  0  0  0  0  0  0  0  0  0  0  0
   12.1780    0.7240   23.8600 C   0  0  0  0  0  0  0  0  0  0  0  0
   12.0530   -0.3930   22.8810 C   0  0  0  0  0  0  0  0  0  0  0  0
   13.2470   -0.6220   22.0660 C   0  0  0  0  0  0  0  0  0  0  0  0
   13.1530   -1.6290   21.1500 C   0  0  0  0  0  0  0  0  0  0  0  0
   14.1750   -1.7950   20.3810 F   0  0  0  0  0  0  0  0  0  0  0  0
   12.0430   -2.3980   21.0240 C   0  0  0  0  0  0  0  0  0  0  0  0
   10.9400   -2.1750   21.7830 C   0  0  0  0  0  0  0  0  0  0  0  0
   10.9270   -1.1780   22.6910 C   0  0  0  0  0  0  0  0  0  0  0  0
  1  2  2  0
  2  3  1  0
  3  4  1  0
  4  5  2  0
  5  6  1  0
  6  7  2  0
  7  8  1  0
  4  9  1  0
  8  9  2  0
  2 10  1  0
 11 10  1  6
 11 12  1  0
 12 13  1  0
 13 14  1  0
 14 15  1  0
 15 16  2  0
 16 17  1  0
 17 18  1  0
 17 19  2  0
 19 20  1  0
 11 21  1  0
 15 21  1  0
 20 21  2  0
M  END
