pyridine_urea_191
     RDKit          3D

 20 21  0  0  0  0  0  0  0  0999 V2000
    8.5550    0.9490   21.1520 O   0  0  0  0  0  0  0  0  0  0  0  0
    8.1620   -0.1210   21.5910 C   0  0  0  0  0  0  0  0  0  0  0  0
    7.0460   -0.7550   21.1120 N   0  0  0  0  0  0  0  0  0  0  0  0
    6.4290   -0.0680   20.0060 C   0  0  0  0  0  0  0  0  0  0  0  0
    5.1350    0.6780   20.3110 C   0  0  0  0  0  0  0  0  0  0  0  0
    4.5410    1.3900   19.1440 C   0  0  0  0  0  0  0  0  0  0  0  0
    5.1910    1.3200   17.9300 C   0  0  0  0  0  0  0  0  0  0  0  0
    6.3330    0.6400   17.7160 N   0  0  0  0  0  0  0  0  0  0  0  0
    6.9160   -0.0270   18.7300 C   0  0  0  0  0  0  0  0  0  0  0  0
    8.8050   -0.7840   22.5970 N   0  0  0  0  0  0  0  0  0  0  0  0
   10.1790   -0.3180   22.8000 C   0  0  0  0  0  0  0  0  0  0  0  0
   10.4320    0.9940   22.9560 C   0  0  0  0  0  0  0  0  0  0  0  0
   11.8840    1.2670   23.1210 C   0  0  0  0  0  0  0  0  0  0  0  0
   12.1180    2.5990   23.2530 F   0  0  0  0  0  0  0  0  0  0  0  0
   12.9310    0.4090   23.1440 C   0  0  0  0  0  0  0  0  0  0  0  0
   12.8170   -0.9450   23.0160 C   0  0  0  0  0  0  0  0  0  0  0  0
   13.2230   -2.2430   22.9480 C   0  0  0  0  0  0  0  0  0  0  0  0
   13.0840   -2.6180   21.6600 F   0  0  0  0  0  0  0  0  0  0  0  0
   12.4390   -3.0450   23.7170 F   0  0  0  0  0  0  0  0  0  0  0  0
   11.3850   -1.3190   22.8300 C   0  0  0  0  0  0  0  0  0  0  0  0
  1  2  2  0
  2  3  1  0
  3  4  1  0
  4  5  2  0
  5  6  1  0
  6  7  2  0
  7  8  1  0
  4  9  1  0
  8  9  2  0
  2 10  1  0
 10 11  1  0
 11 12  2  0
 12 13  1  0
 13 14  1  0
 13 15  2  0
 15 16  1  0
 16 17  1  0
 17 18  1  0
 17 19  1  0
 11 20  1  0
 16 20  2  0
M  END
