pyridine_urea_11712
     RDKit          3D

 27 29  0  0  0  0  0  0  0  0999 V2000
   12.4270    5.4830   15.2900 C   0  0  0  0  0  0  0  0  0  0  0  0
   12.1450    4.0850   16.9660 S   0  0  0  0  0  0  0  0  0  0  0  0
   13.5260    3.3890   18.2370 C   0  0  0  0  0  0  0  0  0  0  0  0
   13.6550    3.7900   19.5240 C   0  0  0  0  0  0  0  0  0  0  0  0
   14.3330    3.3080   20.3420 C   0  0  0  0  0  0  0  0  0  0  0  0
   14.8270    2.3050   19.9060 C   0  0  0  0  0  0  0  0  0  0  0  0
   15.1800    1.5230   20.7000 N   0  0  0  0  0  0  0  0  0  0  0  0
   14.2810    0.2850   20.3090 C   0  0  0  0  0  0  0  0  0  0  0  0
   14.2210   -0.0210   19.1260 O   0  0  0  0  0  0  0  0  0  0  0  0
   13.6510   -0.9050   21.2240 C   0  0  0  0  0  0  0  0  0  0  0  0
   12.4110   -0.9980   21.9900 N   0  0  0  0  0  0  0  0  0  0  0  0
   11.0820   -1.4350   21.4360 C   0  0  0  0  0  0  0  0  0  0  0  0
   10.3840   -1.2130   22.5760 C   0  0  0  0  0  0  0  0  0  0  0  0
    9.0290   -1.3900   22.6330 N   0  0  0  0  0  0  0  0  0  0  0  0
    8.2600   -0.4770   21.9040 C   0  0  0  0  0  0  0  0  0  0  0  0
    8.3910    0.8750   21.9790 O   0  0  0  0  0  0  0  0  0  0  0  0
    7.3130   -1.0580   21.1120 N   0  0  0  0  0  0  0  0  0  0  0  0
    6.6750   -0.3180   20.1280 C   0  0  0  0  0  0  0  0  0  0  0  0
    5.5370    0.4080   20.5550 C   0  0  0  0  0  0  0  0  0  0  0  0
    4.7810    1.2060   19.6570 C   0  0  0  0  0  0  0  0  0  0  0  0
    5.3200    1.1870   18.2500 C   0  0  0  0  0  0  0  0  0  0  0  0
    6.4140    0.4830   17.8550 N   0  0  0  0  0  0  0  0  0  0  0  0
    7.0810   -0.2700   18.8130 C   0  0  0  0  0  0  0  0  0  0  0  0
   11.1110   -0.7940   23.6620 C   0  0  0  0  0  0  0  0  0  0  0  0
   12.4030   -0.6580   23.3280 N   0  0  0  0  0  0  0  0  0  0  0  0
   15.0120    1.7130   18.8800 C   0  0  0  0  0  0  0  0  0  0  0  0
   14.4500    2.1830   17.9730 C   0  0  0  0  0  0  0  0  0  0  0  0
  1  2  1  0
  2  3  1  0
  3  4  2  0
  4  5  1  0
  5  6  2  0
  6  7  1  0
  7  8  1  0
  8  9  2  0
  8 10  1  0
 10 11  1  0
 11 12  1  0
 12 13  2  0
 13 14  1  0
 14 15  1  0
 15 16  2  0
 15 17  1  0
 17 18  1  0
 18 19  2  0
 19 20  1  0
 20 21  2  0
 21 22  1  0
 18 23  1  0
 22 23  2  0
 13 24  1  0
 11 25  1  0
 24 25  2  0
  6 26  1  0
  3 27  1  0
 26 27  2  0
M  END
