pyridine_urea_14811
     RDKit          3D

 20 20  0  0  0  0  0  0  0  0999 V2000
   11.1780    4.0530   23.3830 C   0  0  0  0  0  0  0  0  0  0  0  0
   12.2760    3.2070   22.7700 C   0  0  0  0  0  0  0  0  0  0  0  0
   12.3380    1.8400   23.0720 C   0  0  0  0  0  0  0  0  0  0  0  0
   11.4260    1.2790   23.9550 C   0  0  0  0  0  0  0  0  0  0  0  0
   10.3780    0.6280   23.3630 C   0  0  0  0  0  0  0  0  0  0  0  0
   10.4490   -0.7470   23.1690 C   0  0  1  0  0  0  0  0  0  0  0  0
    9.4960   -1.1090   22.0950 N   0  0  0  0  0  0  0  0  0  0  0  0
    8.5850   -0.2120   21.5360 C   0  0  0  0  0  0  0  0  0  0  0  0
    8.8170    0.9570   21.2650 O   0  0  0  0  0  0  0  0  0  0  0  0
    7.2410   -0.7880   21.2620 N   0  0  0  0  0  0  0  0  0  0  0  0
    6.5780   -0.1040   20.1460 C   0  0  0  0  0  0  0  0  0  0  0  0
    5.4390    0.6660   20.4280 C   0  0  0  0  0  0  0  0  0  0  0  0
    4.7820    1.3360   19.4080 C   0  0  0  0  0  0  0  0  0  0  0  0
    5.1990    1.2820   18.0960 C   0  0  0  0  0  0  0  0  0  0  0  0
    6.2730    0.5680   17.7310 N   0  0  0  0  0  0  0  0  0  0  0  0
    6.9760   -0.1470   18.8130 C   0  0  0  0  0  0  0  0  0  0  0  0
   11.8460   -1.2700   22.8720 C   0  0  0  0  0  0  0  0  0  0  0  0
   11.8750   -2.1640   21.8370 C   0  0  0  0  0  0  0  0  0  0  0  0
   12.7740   -0.2340   22.7300 C   0  0  0  0  0  0  0  0  0  0  0  0
   12.3430   -1.8300   24.0530 C   0  0  0  0  0  0  0  0  0  0  0  0
  1  2  1  0
  2  3  1  0
  3  4  1  0
  4  5  1  0
  6  5  1  6
  6  7  1  0
  7  8  1  0
  8  9  2  0
  8 10  1  0
 10 11  1  0
 11 12  2  0
 12 13  1  0
 13 14  2  0
 14 15  1  0
 11 16  1  0
 15 16  2  0
  6 17  1  0
 17 18  1  0
 17 19  1  0
 17 20  1  0
M  END
