pyridine_urea_14881
     RDKit          3D

 20 21  0  0  0  0  0  0  0  0999 V2000
   15.2330    1.0410   19.5360 C   0  0  0  0  0  0  0  0  0  0  0  0
   14.3530   -0.2370   19.6420 C   0  0  0  0  0  0  0  0  0  0  0  0
   13.6730   -1.4770   20.7970 S   0  0  0  0  0  0  0  0  0  0  0  0
   13.5310   -0.7680   22.4260 C   0  0  0  0  0  0  0  0  0  0  0  0
   12.3360   -0.3530   22.8180 C   0  0  0  0  0  0  0  0  0  0  0  0
   12.2950    0.7860   23.5770 C   0  0  0  0  0  0  0  0  0  0  0  0
   11.1350    1.3320   24.0370 C   0  0  0  0  0  0  0  0  0  0  0  0
    9.8710    0.6230   23.6760 C   0  0  0  0  0  0  0  0  0  0  0  0
    9.8660   -0.5140   22.9160 C   0  0  0  0  0  0  0  0  0  0  0  0
    8.6030   -1.1290   22.5800 N   0  0  0  0  0  0  0  0  0  0  0  0
    7.9910   -0.3420   21.5020 C   0  0  0  0  0  0  0  0  0  0  0  0
    8.4760    0.7260   21.1500 O   0  0  0  0  0  0  0  0  0  0  0  0
    6.8150   -0.9380   20.9530 N   0  0  0  0  0  0  0  0  0  0  0  0
    6.2520   -0.1650   19.9490 C   0  0  0  0  0  0  0  0  0  0  0  0
    5.0770    0.5780   20.1340 C   0  0  0  0  0  0  0  0  0  0  0  0
    4.4840    1.4230   19.0630 C   0  0  0  0  0  0  0  0  0  0  0  0
    5.1580    1.4390   17.8470 C   0  0  0  0  0  0  0  0  0  0  0  0
    6.3270    0.6780   17.6960 N   0  0  0  0  0  0  0  0  0  0  0  0
    6.8380   -0.0760   18.6990 C   0  0  0  0  0  0  0  0  0  0  0  0
   11.1800   -1.0390   22.4610 C   0  0  0  0  0  0  0  0  0  0  0  0
  1  2  1  0
  2  3  1  0
  3  4  1  0
  4  5  1  0
  5  6  2  0
  6  7  1  0
  7  8  2  0
  8  9  1  0
  9 10  1  0
 10 11  1  0
 11 12  2  0
 11 13  1  0
 13 14  1  0
 14 15  2  0
 15 16  1  0
 16 17  2  0
 17 18  1  0
 14 19  1  0
 18 19  2  0
  5 20  1  0
  9 20  2  0
M  END
