pyridine_urea_13561
     RDKit          3D

 28 29  0  0  0  0  0  0  0  0999 V2000
   13.2450   -1.9040   21.4210 C   0  0  0  0  0  0  0  0  0  0  0  0
   13.4390   -1.2540   22.6860 O   0  0  0  0  0  0  0  0  0  0  0  0
   13.2560    0.1120   22.6650 C   0  0  0  0  0  0  0  0  0  0  0  0
   12.2920    0.7050   23.6900 C   0  0  0  0  0  0  0  0  0  0  0  0
   10.9830    1.0650   23.0550 N   0  0  0  0  0  0  0  0  0  0  0  0
   10.6280    2.4030   22.9350 C   0  0  0  0  0  0  0  0  0  0  0  0
   11.9090    3.2110   22.8680 C   0  0  0  0  0  0  0  0  0  0  0  0
   12.0160    3.9960   21.6860 O   0  0  0  0  0  0  0  0  0  0  0  0
   13.0850    4.9420   21.7080 C   0  0  0  0  0  0  0  0  0  0  0  0
    9.9060    0.2120   22.9980 C   0  0  0  0  0  0  0  0  0  0  0  0
    9.8480   -1.0610   22.3380 C   0  0  2  0  0  0  0  0  0  0  0  0
   11.0550   -1.7020   22.0510 C   0  0  0  0  0  0  0  0  0  0  0  0
   12.0370   -1.3510   22.8830 C   0  0  0  0  0  0  0  0  0  0  0  0
   12.7690   -0.9260   24.0250 C   0  0  0  0  0  0  0  0  0  0  0  0
   12.3730   -0.5580   25.3150 C   0  0  0  0  0  0  0  0  0  0  0  0
   10.8980   -0.6230   25.5500 C   0  0  0  0  0  0  0  0  0  0  0  0
   10.1530   -1.0150   24.5710 C   0  0  0  0  0  0  0  0  0  0  0  0
   10.6980   -1.3420   23.3660 C   0  0  0  0  0  0  0  0  0  0  0  0
    9.0480   -0.9350   21.2650 N   0  0  0  0  0  0  0  0  0  0  0  0
    8.1760    0.0730   21.1320 C   0  0  0  0  0  0  0  0  0  0  0  0
    8.5200    1.2630   21.0370 O   0  0  0  0  0  0  0  0  0  0  0  0
    6.9290   -0.3990   21.0710 N   0  0  0  0  0  0  0  0  0  0  0  0
    6.3270    0.1750   20.0350 C   0  0  0  0  0  0  0  0  0  0  0  0
    5.0170    0.9210   20.2560 C   0  0  0  0  0  0  0  0  0  0  0  0
    4.4460    1.5600   19.0060 C   0  0  0  0  0  0  0  0  0  0  0  0
    5.1380    1.4160   17.8170 C   0  0  0  0  0  0  0  0  0  0  0  0
    6.2920    0.7300   17.6870 N   0  0  0  0  0  0  0  0  0  0  0  0
    6.8450    0.1410   18.7610 C   0  0  0  0  0  0  0  0  0  0  0  0
  1  2  1  0
  2  3  1  0
  3  4  1  0
  4  5  1  0
  5  6  1  0
  6  7  1  0
  7  8  1  0
  8  9  1  0
  5 10  1  0
 11 10  1  6
 11 12  1  0
 12 13  1  0
 13 14  2  0
 14 15  1  0
 15 16  2  0
 16 17  1  0
 13 18  1  0
 17 18  2  0
 11 19  1  0
 19 20  1  0
 20 21  2  0
 20 22  1  0
 22 23  1  0
 23 24  2  0
 24 25  1  0
 25 26  2  0
 26 27  1  0
 23 28  1  0
 27 28  2  0
M  END
