pyridine_urea_714
     RDKit          3D

 23 24  0  0  0  0  0  0  0  0999 V2000
   11.7090    6.1290   25.5360 C   0  0  0  0  0  0  0  0  0  0  0  0
   10.6420    6.8810   24.7530 C   0  0  0  0  0  0  0  0  0  0  0  0
   10.0580    6.0860   23.7230 O   0  0  0  0  0  0  0  0  0  0  0  0
   10.8950    5.4610   22.8310 C   0  0  0  0  0  0  0  0  0  0  0  0
   11.5460    6.1210   22.0190 O   0  0  0  0  0  0  0  0  0  0  0  0
   11.0410    4.0720   22.8740 C   0  0  0  0  0  0  0  0  0  0  0  0
    9.6840    2.9280   23.1620 S   0  0  0  0  0  0  0  0  0  0  0  0
   10.7890    1.5490   23.0890 C   0  0  0  0  0  0  0  0  0  0  0  0
   10.2720    0.2700   23.3330 C   0  0  0  0  0  0  0  0  0  0  0  0
   10.1340   -0.7770   22.2550 C   0  0  0  0  0  0  0  0  0  0  0  0
    8.7910   -1.1960   22.2270 N   0  0  0  0  0  0  0  0  0  0  0  0
    7.9680   -0.9160   21.1660 C   0  0  0  0  0  0  0  0  0  0  0  0
    8.3240   -0.9610   20.0580 O   0  0  0  0  0  0  0  0  0  0  0  0
    6.6120   -0.5470   21.4610 N   0  0  0  0  0  0  0  0  0  0  0  0
    6.1030    0.1230   20.2250 C   0  0  0  0  0  0  0  0  0  0  0  0
    4.9430    0.8740   20.3440 C   0  0  0  0  0  0  0  0  0  0  0  0
    4.4760    1.5060   19.2020 C   0  0  0  0  0  0  0  0  0  0  0  0
    5.2000    1.3680   17.9270 C   0  0  0  0  0  0  0  0  0  0  0  0
    6.3180    0.6300   17.8320 N   0  0  0  0  0  0  0  0  0  0  0  0
    6.7460    0.0240   18.9710 C   0  0  0  0  0  0  0  0  0  0  0  0
   12.1030    1.9150   22.8360 N   0  0  0  0  0  0  0  0  0  0  0  0
   12.2150    3.3490   22.7210 C   0  0  0  0  0  0  0  0  0  0  0  0
   13.3810    4.0460   22.4870 C   0  0  0  0  0  0  0  0  0  0  0  0
  1  2  1  0
  2  3  1  0
  3  4  1  0
  4  5  2  0
  4  6  1  0
  6  7  1  0
  7  8  1  0
  8  9  1  0
  9 10  1  0
 10 11  1  0
 11 12  1  0
 12 13  2  0
 12 14  1  0
 14 15  1  0
 15 16  2  0
 16 17  1  0
 17 18  2  0
 18 19  1  0
 15 20  1  0
 19 20  2  0
  8 21  2  0
  6 22  2  0
 21 22  1  0
 22 23  1  0
M  END
