pyridine_urea_8961
     RDKit          3D

 20 21  0  0  0  0  0  0  0  0999 V2000
   12.9000   -2.3540   21.6390 C   0  0  0  0  0  0  0  0  0  0  0  0
   12.4230   -1.6680   22.7910 O   0  0  0  0  0  0  0  0  0  0  0  0
   11.2820   -0.9620   22.5690 C   0  0  1  0  0  0  0  0  0  0  0  0
   10.0250   -1.5570   23.2050 C   0  0  0  0  0  0  0  0  0  0  0  0
    8.9810   -1.6460   22.1890 N   0  0  0  0  0  0  0  0  0  0  0  0
    8.4370   -0.5250   21.5820 C   0  0  0  0  0  0  0  0  0  0  0  0
    8.9960    0.5530   21.4190 O   0  0  0  0  0  0  0  0  0  0  0  0
    7.1370   -0.7240   21.1460 N   0  0  0  0  0  0  0  0  0  0  0  0
    6.4990   -0.0480   20.0880 C   0  0  0  0  0  0  0  0  0  0  0  0
    5.3440    0.7010   20.3560 C   0  0  0  0  0  0  0  0  0  0  0  0
    4.7030    1.3810   19.3220 C   0  0  0  0  0  0  0  0  0  0  0  0
    5.2270    1.2990   18.0400 C   0  0  0  0  0  0  0  0  0  0  0  0
    6.3270    0.5850   17.7570 N   0  0  0  0  0  0  0  0  0  0  0  0
    6.9330   -0.0680   18.7750 C   0  0  0  0  0  0  0  0  0  0  0  0
   11.4360    0.3590   22.9350 C   0  0  0  0  0  0  0  0  0  0  0  0
   12.7220   -0.1410   22.9140 C   0  0  0  0  0  0  0  0  0  0  0  0
   12.3340    1.1710   23.2330 C   0  0  0  0  0  0  0  0  0  0  0  0
   10.9780    1.5650   23.2350 C   0  0  0  0  0  0  0  0  0  0  0  0
   11.2320    2.7960   23.5690 C   0  0  0  0  0  0  0  0  0  0  0  0
   12.0850    1.6720   23.3350 C   0  0  0  0  0  0  0  0  0  0  0  0
  1  2  1  0
  2  3  1  0
  3  4  1  1
  4  5  1  0
  5  6  1  0
  6  7  2  0
  6  8  1  0
  8  9  1  0
  9 10  2  0
 10 11  1  0
 11 12  2  0
 12 13  1  0
  9 14  1  0
 13 14  2  0
  3 15  1  0
 15 16  2  0
 16 17  1  0
 17 18  2  0
 18 19  1  0
 15 20  1  0
 19 20  2  0
M  END
