pyridine_urea_5038
     RDKit          3D

 20 21  0  0  0  0  0  0  0  0999 V2000
    8.7300    0.3550   25.2290 C   0  0  0  0  0  0  0  0  0  0  0  0
   10.0240   -0.1970   25.4410 O   0  0  0  0  0  0  0  0  0  0  0  0
   10.7780   -0.5640   24.3570 C   0  0  0  0  0  0  0  0  0  0  0  0
   12.1460   -0.8420   24.4540 C   0  0  0  0  0  0  0  0  0  0  0  0
   12.9640   -0.8460   25.5050 C   0  0  0  0  0  0  0  0  0  0  0  0
   13.6430   -1.9900   25.7420 N   0  0  0  0  0  0  0  0  0  0  0  0
   12.9090   -1.2410   23.2170 C   0  0  0  0  0  0  0  0  0  0  0  0
   12.3450   -1.3900   21.8770 C   0  0  0  0  0  0  0  0  0  0  0  0
   11.0010   -1.1110   21.8720 C   0  0  0  0  0  0  0  0  0  0  0  0
   10.1890   -0.6930   23.0840 C   0  0  0  0  0  0  0  0  0  0  0  0
    8.8710   -0.4700   22.8040 N   0  0  0  0  0  0  0  0  0  0  0  0
    8.4030    0.1830   21.6450 C   0  0  0  0  0  0  0  0  0  0  0  0
    8.9510    1.2180   21.2350 O   0  0  0  0  0  0  0  0  0  0  0  0
    7.3230   -0.4070   21.0480 N   0  0  0  0  0  0  0  0  0  0  0  0
    6.5160    0.1800   20.0760 C   0  0  0  0  0  0  0  0  0  0  0  0
    5.3340    0.8850   20.3140 C   0  0  0  0  0  0  0  0  0  0  0  0
    4.6460    1.4420   19.2330 C   0  0  0  0  0  0  0  0  0  0  0  0
    5.1420    1.2860   17.9490 C   0  0  0  0  0  0  0  0  0  0  0  0
    6.2640    0.6060   17.6850 N   0  0  0  0  0  0  0  0  0  0  0  0
    6.9230    0.0680   18.7610 C   0  0  0  0  0  0  0  0  0  0  0  0
  1  2  1  0
  2  3  1  0
  3  4  2  0
  4  5  1  0
  5  6  3  0
  4  7  1  0
  7  8  2  0
  8  9  1  0
  3 10  1  0
  9 10  2  0
 10 11  1  0
 11 12  1  0
 12 13  2  0
 12 14  1  0
 14 15  1  0
 15 16  2  0
 16 17  1  0
 17 18  2  0
 18 19  1  0
 15 20  1  0
 19 20  2  0
M  END
