pyridine_urea_6218
     RDKit          3D

 24 26  0  0  0  0  0  0  0  0999 V2000
    8.7250    0.4580   21.1570 O   0  0  0  0  0  0  0  0  0  0  0  0
    8.3500   -0.6560   21.4870 C   0  0  0  0  0  0  0  0  0  0  0  0
    9.1750   -1.4270   22.3300 N   0  0  0  0  0  0  0  0  0  0  0  0
   10.2680   -0.5130   22.5390 C   0  0  0  0  0  0  0  0  0  0  0  0
   11.7420   -0.8190   22.4860 C   0  0  0  0  0  0  0  0  0  0  0  0
   12.6510    0.3730   22.6520 C   0  0  0  0  0  0  0  0  0  0  0  0
   12.2540    1.7400   22.8460 C   0  0  0  0  0  0  0  0  0  0  0  0
   12.8050    3.1640   22.9940 C   0  0  0  0  0  0  0  0  0  0  0  0
   13.9930    3.5220   22.4620 O   0  0  0  0  0  0  0  0  0  0  0  0
   11.9590    3.8030   23.5940 O   0  0  0  0  0  0  0  0  0  0  0  0
   12.1070    5.1750   23.8290 C   0  0  0  0  0  0  0  0  0  0  0  0
   12.0660    5.9920   22.7470 C   0  0  0  0  0  0  0  0  0  0  0  0
   11.5840    7.1310   23.6010 C   0  0  0  0  0  0  0  0  0  0  0  0
   11.3440    6.7620   24.8860 C   0  0  0  0  0  0  0  0  0  0  0  0
   11.1670    5.4130   24.8450 C   0  0  0  0  0  0  0  0  0  0  0  0
   10.7100    1.9460   22.9370 C   0  0  0  0  0  0  0  0  0  0  0  0
    9.7910    0.8220   22.7840 C   0  0  0  0  0  0  0  0  0  0  0  0
    7.1460   -1.1380   21.0480 N   0  0  0  0  0  0  0  0  0  0  0  0
    6.4190   -0.3510   20.1080 C   0  0  0  0  0  0  0  0  0  0  0  0
    5.1310    0.3930   20.3410 C   0  0  0  0  0  0  0  0  0  0  0  0
    4.5680    1.1330   19.2970 C   0  0  0  0  0  0  0  0  0  0  0  0
    5.2100    1.1680   18.0660 C   0  0  0  0  0  0  0  0  0  0  0  0
    6.3640    0.5120   17.8190 N   0  0  0  0  0  0  0  0  0  0  0  0
    6.9310   -0.2180   18.8190 C   0  0  0  0  0  0  0  0  0  0  0  0
  1  2  2  0
  2  3  1  0
  3  4  1  0
  4  5  2  0
  5  6  1  0
  6  7  2  0
  7  8  1  0
  8  9  2  0
  8 10  1  0
 10 11  1  0
 11 12  1  0
 12 13  1  0
 13 14  1  0
 11 15  1  0
 14 15  1  0
  7 16  1  0
  4 17  1  0
 16 17  2  0
  2 18  1  0
 18 19  1  0
 19 20  2  0
 20 21  1  0
 21 22  2  0
 22 23  1  0
 19 24  1  0
 23 24  2  0
M  END
