pyridine_urea_14186
     RDKit          3D

 21 22  0  0  0  0  0  0  0  0999 V2000
   12.6750    3.6660   22.6300 C   0  0  0  0  0  0  0  0  0  0  0  0
   12.0560    2.4380   23.1200 N   0  0  0  0  0  0  0  0  0  0  0  0
   10.6720    2.3620   23.0000 C   0  0  0  0  0  0  0  0  0  0  0  0
   12.8580    1.2980   23.1130 C   0  0  0  0  0  0  0  0  0  0  0  0
   13.9530    1.1590   22.6630 O   0  0  0  0  0  0  0  0  0  0  0  0
   12.4800    0.1080   23.6790 C   0  0  1  0  0  0  0  0  0  0  0  0
   11.3430    0.1580   24.4640 C   0  0  0  0  0  0  0  0  0  0  0  0
   10.1070   -0.4920   23.9630 C   0  0  0  0  0  0  0  0  0  0  0  0
   10.2630   -0.7610   22.4840 C   0  0  2  0  0  0  0  0  0  0  0  0
    9.0320   -1.2600   21.9480 N   0  0  0  0  0  0  0  0  0  0  0  0
    8.2680   -0.2570   21.4170 C   0  0  0  0  0  0  0  0  0  0  0  0
    8.6470    0.9000   21.2840 O   0  0  0  0  0  0  0  0  0  0  0  0
    7.0330   -0.6800   21.0270 N   0  0  0  0  0  0  0  0  0  0  0  0
    6.3830   -0.0100   19.9930 C   0  0  0  0  0  0  0  0  0  0  0  0
    5.1920    0.6750   20.2450 C   0  0  0  0  0  0  0  0  0  0  0  0
    4.5680    1.3580   19.1980 C   0  0  0  0  0  0  0  0  0  0  0  0
    5.1590    1.3270   17.9490 C   0  0  0  0  0  0  0  0  0  0  0  0
    6.2960    0.6690   17.6880 N   0  0  0  0  0  0  0  0  0  0  0  0
    6.8670    0.0250   18.7140 C   0  0  0  0  0  0  0  0  0  0  0  0
   11.3880   -1.5440   22.3890 C   0  0  0  0  0  0  0  0  0  0  0  0
   12.5810   -1.0050   22.8360 C   0  0  0  0  0  0  0  0  0  0  0  0
  1  2  1  0
  2  3  1  0
  2  4  1  0
  4  5  2  0
  6  4  1  6
  6  7  1  0
  7  8  1  0
  8  9  1  0
  9 10  1  1
 10 11  1  0
 11 12  2  0
 11 13  1  0
 13 14  1  0
 14 15  2  0
 15 16  1  0
 16 17  2  0
 17 18  1  0
 14 19  1  0
 18 19  2  0
  9 20  1  0
  6 21  1  0
 20 21  1  0
M  END
