pyridine_urea_5868
     RDKit          3D

 26 28  0  0  0  0  0  0  0  0999 V2000
    9.1790   -0.8560   20.8370 O   0  0  0  0  0  0  0  0  0  0  0  0
    8.5980   -0.4400   21.7600 C   0  0  0  0  0  0  0  0  0  0  0  0
    7.1450   -0.2140   21.6620 N   0  0  0  0  0  0  0  0  0  0  0  0
    6.5500    0.2160   20.4430 C   0  0  0  0  0  0  0  0  0  0  0  0
    5.4070    1.0190   20.5060 C   0  0  0  0  0  0  0  0  0  0  0  0
    4.8000    1.4620   19.3260 C   0  0  0  0  0  0  0  0  0  0  0  0
    5.3470    1.0970   18.0970 C   0  0  0  0  0  0  0  0  0  0  0  0
    6.4420    0.3240   17.9960 N   0  0  0  0  0  0  0  0  0  0  0  0
    7.0220   -0.1060   19.1630 C   0  0  0  0  0  0  0  0  0  0  0  0
    9.2190   -0.1550   22.9710 N   0  0  0  0  0  0  0  0  0  0  0  0
   10.3920    0.7560   22.9570 C   0  0  0  0  0  0  0  0  0  0  0  0
   11.8050    0.1910   22.7700 C   0  0  0  0  0  0  0  0  0  0  0  0
   12.8970    1.1000   22.7310 C   0  0  0  0  0  0  0  0  0  0  0  0
   12.7560    2.5410   22.8570 C   0  0  0  0  0  0  0  0  0  0  0  0
   13.9780    3.4000   22.7210 C   0  0  0  0  0  0  0  0  0  0  0  0
   14.6950    2.9150   21.9720 O   0  0  0  0  0  0  0  0  0  0  0  0
   15.0270    4.4940   23.3570 N   0  0  0  0  0  0  0  0  0  0  0  0
   16.6840    4.5830   23.2460 C   0  0  0  0  0  0  0  0  0  0  0  0
   17.4720    5.5940   23.6080 C   0  0  0  0  0  0  0  0  0  0  0  0
   18.7740    5.8960   23.2050 C   0  0  0  0  0  0  0  0  0  0  0  0
   19.5510    5.4060   24.2020 C   0  0  0  0  0  0  0  0  0  0  0  0
   18.8230    4.3170   24.8180 C   0  0  0  0  0  0  0  0  0  0  0  0
   17.4370    3.9750   24.3310 C   0  0  0  0  0  0  0  0  0  0  0  0
   11.4450    3.0090   23.0560 C   0  0  0  0  0  0  0  0  0  0  0  0
   11.1510    4.3440   23.1970 O   0  0  0  0  0  0  0  0  0  0  0  0
   10.3150    2.1310   23.0990 C   0  0  0  0  0  0  0  0  0  0  0  0
  1  2  2  0
  2  3  1  0
  3  4  1  0
  4  5  2  0
  5  6  1  0
  6  7  2  0
  7  8  1  0
  4  9  1  0
  8  9  2  0
  2 10  1  0
 10 11  1  0
 11 12  2  0
 12 13  1  0
 13 14  2  0
 14 15  1  0
 15 16  2  0
 15 17  1  0
 17 18  1  0
 18 19  1  0
 19 20  1  0
 20 21  1  0
 21 22  1  0
 18 23  1  0
 22 23  1  0
 14 24  1  0
 24 25  1  0
 11 26  1  0
 24 26  2  0
M  END
