pyridine_urea_10862
     RDKit          3D

 20 21  0  0  0  0  0  0  0  0999 V2000
    8.6810    4.1030   24.0610 C   0  0  0  0  0  0  0  0  0  0  0  0
    9.5790    3.0640   23.4540 C   0  0  0  0  0  0  0  0  0  0  0  0
   10.9460    3.3380   23.4120 C   0  0  0  0  0  0  0  0  0  0  0  0
    9.3460    1.4950   24.2990 S   0  0  0  0  0  0  0  0  0  0  0  0
   10.5690    0.5340   23.5530 C   0  0  0  0  0  0  0  0  0  0  0  0
   11.9130    0.7830   23.7850 C   0  0  0  0  0  0  0  0  0  0  0  0
   13.0500    0.0290   23.2040 C   0  0  0  0  0  0  0  0  0  0  0  0
   12.7370   -1.1120   22.2870 C   0  0  0  0  0  0  0  0  0  0  0  0
   11.2600   -1.3440   22.0600 C   0  0  0  0  0  0  0  0  0  0  0  0
   10.3050   -0.5500   22.6640 C   0  0  0  0  0  0  0  0  0  0  0  0
    8.9730   -0.8060   22.3780 N   0  0  0  0  0  0  0  0  0  0  0  0
    8.3270    0.0160   21.4710 C   0  0  0  0  0  0  0  0  0  0  0  0
    8.7600    1.1400   21.1470 O   0  0  0  0  0  0  0  0  0  0  0  0
    7.1640   -0.5500   20.9870 N   0  0  0  0  0  0  0  0  0  0  0  0
    6.4090    0.0840   20.0350 C   0  0  0  0  0  0  0  0  0  0  0  0
    5.2180    0.7550   20.2690 C   0  0  0  0  0  0  0  0  0  0  0  0
    4.5870    1.3640   19.1960 C   0  0  0  0  0  0  0  0  0  0  0  0
    5.1590    1.2830   17.9390 C   0  0  0  0  0  0  0  0  0  0  0  0
    6.3010    0.6320   17.6940 N   0  0  0  0  0  0  0  0  0  0  0  0
    6.8930    0.0500   18.7480 C   0  0  0  0  0  0  0  0  0  0  0  0
  1  2  1  0
  2  3  1  0
  2  4  1  0
  4  5  1  0
  5  6  2  0
  6  7  1  0
  7  8  2  0
  8  9  1  0
  5 10  1  0
  9 10  2  0
 10 11  1  0
 11 12  1  0
 12 13  2  0
 12 14  1  0
 14 15  1  0
 15 16  2  0
 16 17  1  0
 17 18  2  0
 18 19  1  0
 15 20  1  0
 19 20  2  0
M  END
