pyridine_urea_9979
     RDKit          3D

 24 26  0  0  0  0  0  0  0  0999 V2000
   13.7850   -3.0490   25.4260 C   0  0  0  0  0  0  0  0  0  0  0  0
   12.6360   -2.4040   25.1610 N   0  0  0  0  0  0  0  0  0  0  0  0
   11.8070   -2.7020   24.0990 C   0  0  0  0  0  0  0  0  0  0  0  0
   12.3390   -2.3920   22.8750 C   0  0  0  0  0  0  0  0  0  0  0  0
   13.4980   -1.6570   22.9710 C   0  0  0  0  0  0  0  0  0  0  0  0
   13.2960   -0.5550   23.7580 N   0  0  0  0  0  0  0  0  0  0  0  0
   12.0860   -0.1570   23.3500 C   0  0  0  0  0  0  0  0  0  0  0  0
   11.4560    0.8980   23.9200 C   0  0  0  0  0  0  0  0  0  0  0  0
   10.0590    1.2800   23.5470 C   0  0  0  0  0  0  0  0  0  0  0  0
    9.4760    0.4800   22.5850 C   0  0  0  0  0  0  0  0  0  0  0  0
    8.2620    0.5530   22.0920 N   0  0  0  0  0  0  0  0  0  0  0  0
    7.8370   -0.4420   21.2450 C   0  0  0  0  0  0  0  0  0  0  0  0
    8.6360   -1.1300   20.7020 O   0  0  0  0  0  0  0  0  0  0  0  0
    6.4390   -0.5210   21.1020 N   0  0  0  0  0  0  0  0  0  0  0  0
    5.9680    0.1750   19.9990 C   0  0  0  0  0  0  0  0  0  0  0  0
    4.8300    0.9520   20.0560 C   0  0  0  0  0  0  0  0  0  0  0  0
    4.4000    1.6880   18.8510 C   0  0  0  0  0  0  0  0  0  0  0  0
    5.1060    1.6190   17.6540 C   0  0  0  0  0  0  0  0  0  0  0  0
    6.2340    0.8100   17.6610 N   0  0  0  0  0  0  0  0  0  0  0  0
    6.6580    0.1080   18.7960 C   0  0  0  0  0  0  0  0  0  0  0  0
   10.2910   -0.6270   22.0100 C   0  0  0  0  0  0  0  0  0  0  0  0
   11.5290   -0.9150   22.3810 C   0  0  0  0  0  0  0  0  0  0  0  0
   13.0530   -1.0230   25.0300 C   0  0  0  0  0  0  0  0  0  0  0  0
   13.1260   -0.3160   25.9700 O   0  0  0  0  0  0  0  0  0  0  0  0
  1  2  1  0
  2  3  1  0
  3  4  1  0
  4  5  1  0
  5  6  1  0
  6  7  1  0
  7  8  2  0
  8  9  1  0
  9 10  2  0
 10 11  1  0
 11 12  1  0
 12 13  2  0
 12 14  1  0
 14 15  1  0
 15 16  2  0
 16 17  1  0
 17 18  2  0
 18 19  1  0
 15 20  1  0
 19 20  2  0
 10 21  1  0
  7 22  1  0
 21 22  2  0
  2 23  1  0
  6 23  1  0
 23 24  2  0
M  END
