pyridine_urea_3036
     RDKit          3D

 21 23  0  0  0  0  0  0  0  0999 V2000
    9.6890   -0.4840   24.7960 C   0  0  0  0  0  0  0  0  0  0  0  0
    9.5610    0.2210   23.4720 C   0  0  2  0  0  0  0  0  0  0  0  0
    9.2950   -0.7070   22.4000 N   0  0  0  0  0  0  0  0  0  0  0  0
    8.4830    0.0540   21.4490 C   0  0  0  0  0  0  0  0  0  0  0  0
    8.8150    1.1840   21.0710 O   0  0  0  0  0  0  0  0  0  0  0  0
    7.2410   -0.7050   21.0590 N   0  0  0  0  0  0  0  0  0  0  0  0
    6.5130   -0.0050   20.0100 C   0  0  0  0  0  0  0  0  0  0  0  0
    5.2250    0.7820   20.3250 C   0  0  0  0  0  0  0  0  0  0  0  0
    4.5900    1.4490   19.2850 C   0  0  0  0  0  0  0  0  0  0  0  0
    5.1620    1.3940   17.8850 C   0  0  0  0  0  0  0  0  0  0  0  0
    6.3070    0.6670   17.6650 N   0  0  0  0  0  0  0  0  0  0  0  0
    6.9640   -0.0170   18.7000 C   0  0  0  0  0  0  0  0  0  0  0  0
   10.8490    0.9500   23.2070 C   0  0  0  0  0  0  0  0  0  0  0  0
   10.8310    2.4670   22.8900 C   0  0  0  0  0  0  0  0  0  0  0  0
   12.6050    2.4450   22.7730 S   0  0  0  0  0  0  0  0  0  0  0  0
   13.1040    0.7330   23.0880 C   0  0  0  0  0  0  0  0  0  0  0  0
   11.9050   -0.4050   23.4150 C   0  0  0  0  0  0  0  0  0  0  0  0
   11.6620   -1.7980   23.7260 C   0  0  0  0  0  0  0  0  0  0  0  0
   12.7820   -2.1480   23.7200 C   0  0  0  0  0  0  0  0  0  0  0  0
   13.0370   -0.8760   23.4310 C   0  0  0  0  0  0  0  0  0  0  0  0
   12.0560    0.2680   23.2620 C   0  0  0  0  0  0  0  0  0  0  0  0
  2  1  1  1
  2  3  1  0
  3  4  1  0
  4  5  2  0
  4  6  1  0
  6  7  1  0
  7  8  2  0
  8  9  1  0
  9 10  2  0
 10 11  1  0
  7 12  1  0
 11 12  2  0
  2 13  1  0
 13 14  2  0
 14 15  1  0
 15 16  1  0
 16 17  1  0
 17 18  2  0
 18 19  1  0
 19 20  2  0
 13 21  1  0
 16 21  2  0
 20 21  1  0
M  END
