pyridine_urea_13067
     RDKit          3D

 18 19  0  0  0  0  0  0  0  0999 V2000
   10.2950    3.8110   23.8510 C   0  0  0  0  0  0  0  0  0  0  0  0
    9.3060    2.8530   24.2320 O   0  0  0  0  0  0  0  0  0  0  0  0
    9.1350    1.7680   23.4050 C   0  0  0  0  0  0  0  0  0  0  0  0
   10.2120    1.1230   22.7840 C   0  0  0  0  0  0  0  0  0  0  0  0
   10.2640   -0.2670   22.5770 C   0  0  0  0  0  0  0  0  0  0  0  0
    9.4270   -0.8570   21.6900 N   0  0  0  0  0  0  0  0  0  0  0  0
    8.4450   -0.0390   21.2440 C   0  0  0  0  0  0  0  0  0  0  0  0
    8.6630    1.1610   21.0380 O   0  0  0  0  0  0  0  0  0  0  0  0
    7.2700   -0.6670   21.0290 N   0  0  0  0  0  0  0  0  0  0  0  0
    6.5240   -0.0180   20.1000 C   0  0  0  0  0  0  0  0  0  0  0  0
    5.3310    0.6950   20.3540 C   0  0  0  0  0  0  0  0  0  0  0  0
    4.6030    1.4090   19.1860 C   0  0  0  0  0  0  0  0  0  0  0  0
    5.1870    1.3000   17.9400 C   0  0  0  0  0  0  0  0  0  0  0  0
    6.3180    0.6000   17.7600 N   0  0  0  0  0  0  0  0  0  0  0  0
    6.9810   -0.0500   18.7920 C   0  0  0  0  0  0  0  0  0  0  0  0
   11.6840   -0.7250   22.2930 C   0  0  0  0  0  0  0  0  0  0  0  0
   11.8620   -1.4100   23.3900 C   0  0  0  0  0  0  0  0  0  0  0  0
   10.5640   -1.1810   23.8600 C   0  0  0  0  0  0  0  0  0  0  0  0
  1  2  1  0
  2  3  1  0
  3  4  1  0
  4  5  1  0
  5  6  1  0
  6  7  1  0
  7  8  2  0
  7  9  1  0
  9 10  1  0
 10 11  2  0
 11 12  1  0
 12 13  2  0
 13 14  1  0
 10 15  1  0
 14 15  2  0
  5 16  1  0
 16 17  1  0
  5 18  1  0
 17 18  1  0
M  END
