pyridine_urea_11336
     RDKit          3D

 26 28  0  0  0  0  0  0  0  0999 V2000
    6.5080    4.4710   23.7510 C   0  0  0  0  0  0  0  0  0  0  0  0
    7.1850    3.5890   24.5700 N   0  0  0  0  0  0  0  0  0  0  0  0
    6.9880    3.6060   26.0100 C   0  0  0  0  0  0  0  0  0  0  0  0
    8.5330    3.3410   24.0670 C   0  0  0  0  0  0  0  0  0  0  0  0
    9.1070    1.9810   24.1570 C   0  0  0  0  0  0  0  0  0  0  0  0
   10.3820    1.6860   23.6940 C   0  0  0  0  0  0  0  0  0  0  0  0
   10.9570    0.4590   23.7540 N   0  0  0  0  0  0  0  0  0  0  0  0
   12.1700    0.4470   24.1840 C   0  0  0  0  0  0  0  0  0  0  0  0
   12.9440   -0.4040   23.3040 C   0  0  2  0  0  0  0  0  0  0  0  0
   13.7190    0.4770   22.5310 O   0  0  0  0  0  0  0  0  0  0  0  0
   12.1970   -1.2490   22.5600 C   0  0  0  0  0  0  0  0  0  0  0  0
   10.8770   -0.4680   22.7290 C   0  0  1  0  0  0  0  0  0  0  0  0
    9.8190   -1.3280   22.8720 C   0  0  0  0  0  0  0  0  0  0  0  0
    9.0050   -1.5340   21.8340 N   0  0  0  0  0  0  0  0  0  0  0  0
    8.2540   -0.5050   21.3770 C   0  0  0  0  0  0  0  0  0  0  0  0
    8.6470    0.7770   21.1830 O   0  0  0  0  0  0  0  0  0  0  0  0
    6.8470   -0.8030   21.0400 N   0  0  0  0  0  0  0  0  0  0  0  0
    6.2470   -0.0320   20.0550 C   0  0  0  0  0  0  0  0  0  0  0  0
    4.9710    0.7080   20.5420 C   0  0  0  0  0  0  0  0  0  0  0  0
    4.6490    1.3910   19.2220 C   0  0  0  0  0  0  0  0  0  0  0  0
    5.3560    1.3420   17.9170 C   0  0  0  0  0  0  0  0  0  0  0  0
    6.4340    0.6410   17.7330 N   0  0  0  0  0  0  0  0  0  0  0  0
    6.8350   -0.0120   18.7900 C   0  0  0  0  0  0  0  0  0  0  0  0
   11.0060    2.7340   23.1800 N   0  0  0  0  0  0  0  0  0  0  0  0
   10.4340    3.9860   23.1150 C   0  0  0  0  0  0  0  0  0  0  0  0
    9.2110    4.3740   23.5350 N   0  0  0  0  0  0  0  0  0  0  0  0
  1  2  1  0
  2  3  1  0
  2  4  1  0
  4  5  2  0
  5  6  1  0
  6  7  1  0
  7  8  1  0
  8  9  1  0
  9 10  1  6
  9 11  1  0
  7 12  1  0
 11 12  1  0
 12 13  1  1
 13 14  1  0
 14 15  1  0
 15 16  2  0
 15 17  1  0
 17 18  1  0
 18 19  2  0
 19 20  1  0
 20 21  2  0
 21 22  1  0
 18 23  1  0
 22 23  2  0
  6 24  2  0
 24 25  1  0
  4 26  1  0
 25 26  2  0
M  END
