pyridine_urea_13320
     RDKit          3D

 24 26  0  0  0  0  0  0  0  0999 V2000
    8.5820    0.6940   21.0580 O   0  0  0  0  0  0  0  0  0  0  0  0
    8.4030   -0.4670   21.4000 C   0  0  0  0  0  0  0  0  0  0  0  0
    9.3410   -1.1660   22.1650 N   0  0  0  0  0  0  0  0  0  0  0  0
   10.3680   -0.2650   22.4750 C   0  0  0  0  0  0  0  0  0  0  0  0
   11.7840   -0.2590   22.5520 C   0  0  0  0  0  0  0  0  0  0  0  0
   12.4710    0.9760   22.8700 C   0  0  0  0  0  0  0  0  0  0  0  0
   11.7150    2.1800   23.1050 C   0  0  0  0  0  0  0  0  0  0  0  0
   12.0270    3.4850   23.4130 N   0  0  0  0  0  0  0  0  0  0  0  0
   11.0320    4.1810   24.0910 C   0  0  0  0  0  0  0  0  0  0  0  0
   10.4070    5.2090   23.4050 C   0  0  0  0  0  0  0  0  0  0  0  0
   11.3440    6.3160   22.9340 C   0  0  0  0  0  0  0  0  0  0  0  0
   12.6110    5.9440   22.6850 N   0  0  0  0  0  0  0  0  0  0  0  0
   12.8210    4.3670   22.1490 S   0  0  0  0  0  0  0  0  0  0  0  0
   14.2120    4.1060   22.2570 O   0  0  0  0  0  0  0  0  0  0  0  0
   12.0960    4.2130   20.9280 O   0  0  0  0  0  0  0  0  0  0  0  0
   10.3680    2.1150   23.0430 C   0  0  0  0  0  0  0  0  0  0  0  0
    9.7100    1.0180   22.7620 C   0  0  0  0  0  0  0  0  0  0  0  0
    7.2290   -1.0380   20.9920 N   0  0  0  0  0  0  0  0  0  0  0  0
    6.4860   -0.3250   20.0810 C   0  0  0  0  0  0  0  0  0  0  0  0
    5.2780    0.3140   20.4080 C   0  0  0  0  0  0  0  0  0  0  0  0
    4.6000    1.0400   19.4110 C   0  0  0  0  0  0  0  0  0  0  0  0
    5.1610    1.0940   18.1450 C   0  0  0  0  0  0  0  0  0  0  0  0
    6.3160    0.4850   17.8110 N   0  0  0  0  0  0  0  0  0  0  0  0
    6.9530   -0.2110   18.7790 C   0  0  0  0  0  0  0  0  0  0  0  0
  1  2  2  0
  2  3  1  0
  3  4  1  0
  4  5  2  0
  5  6  1  0
  6  7  2  0
  7  8  1  0
  8  9  1  0
  9 10  1  0
 10 11  1  0
 11 12  1  0
 13  8  1  0
 12 13  1  0
 13 14  2  0
 13 15  2  0
  7 16  1  0
  4 17  1  0
 16 17  2  0
  2 18  1  0
 18 19  1  0
 19 20  2  0
 20 21  1  0
 21 22  2  0
 22 23  1  0
 19 24  1  0
 23 24  2  0
M  END
