pyridine_urea_427
     RDKit          3D

 25 27  0  0  0  0  0  0  0  0999 V2000
    8.8840    0.7540   21.3750 O   0  0  0  0  0  0  0  0  0  0  0  0
    8.3270   -0.3200   21.5440 C   0  0  0  0  0  0  0  0  0  0  0  0
    8.8530   -1.4020   22.2190 N   0  0  0  0  0  0  0  0  0  0  0  0
    9.6090   -1.3780   23.4060 C   0  0  0  0  0  0  0  0  0  0  0  0
   10.9560   -1.6950   23.4150 C   0  0  0  0  0  0  0  0  0  0  0  0
   11.7790   -0.6250   23.1990 C   0  0  0  0  0  0  0  0  0  0  0  0
   13.0630   -0.6590   22.8250 C   0  0  0  0  0  0  0  0  0  0  0  0
   13.6370   -1.8740   22.6520 C   0  0  0  0  0  0  0  0  0  0  0  0
   13.1960   -3.1070   22.8330 F   0  0  0  0  0  0  0  0  0  0  0  0
   12.8110   -2.0370   21.5890 F   0  0  0  0  0  0  0  0  0  0  0  0
   13.3680   -2.0110   23.9750 F   0  0  0  0  0  0  0  0  0  0  0  0
   13.6520    0.5520   22.6610 N   0  0  0  0  0  0  0  0  0  0  0  0
   12.6480    1.4240   22.9630 C   0  0  0  0  0  0  0  0  0  0  0  0
   12.2860    2.8280   23.0730 C   0  0  0  0  0  0  0  0  0  0  0  0
   10.8890    3.2710   23.5070 C   0  0  0  0  0  0  0  0  0  0  0  0
    9.8280    2.3070   23.8400 C   0  0  0  0  0  0  0  0  0  0  0  0
   10.9530    1.9000   23.4890 C   0  0  0  0  0  0  0  0  0  0  0  0
   11.6060    0.7320   23.2730 C   0  0  0  0  0  0  0  0  0  0  0  0
    7.0620   -0.6190   21.0760 N   0  0  0  0  0  0  0  0  0  0  0  0
    6.4560    0.0070   20.0510 C   0  0  0  0  0  0  0  0  0  0  0  0
    5.2960    0.7470   20.3040 C   0  0  0  0  0  0  0  0  0  0  0  0
    4.6500    1.4170   19.2610 C   0  0  0  0  0  0  0  0  0  0  0  0
    5.1790    1.3350   17.9820 C   0  0  0  0  0  0  0  0  0  0  0  0
    6.2840    0.6310   17.7000 N   0  0  0  0  0  0  0  0  0  0  0  0
    6.9080   -0.0300   18.7550 C   0  0  0  0  0  0  0  0  0  0  0  0
  1  2  2  0
  2  3  1  0
  3  4  1  0
  4  5  1  0
  5  6  1  0
  6  7  2  0
  7  8  1  0
  8  9  1  0
  8 10  1  0
  8 11  1  0
  7 12  1  0
 12 13  1  0
 13 14  1  0
 14 15  2  0
 15 16  1  0
 16 17  2  0
  6 18  1  0
 13 18  2  0
 17 18  1  0
  2 19  1  0
 19 20  1  0
 20 21  2  0
 21 22  1  0
 22 23  2  0
 23 24  1  0
 20 25  1  0
 24 25  2  0
M  END
