pyridine_urea_10562
     RDKit          3D

 21 22  0  0  0  0  0  0  0  0999 V2000
   12.8920   -1.8950   21.2860 C   0  0  0  0  0  0  0  0  0  0  0  0
   12.1090   -1.2780   22.4600 C   0  0  0  0  0  0  0  0  0  0  0  0
   11.3020   -2.4320   23.0880 C   0  0  0  0  0  0  0  0  0  0  0  0
   13.1060   -0.6900   23.4430 C   0  0  0  0  0  0  0  0  0  0  0  0
   12.4780   -0.2440   24.7050 C   0  0  0  0  0  0  0  0  0  0  0  0
   11.1910   -0.6320   25.0140 C   0  0  0  0  0  0  0  0  0  0  0  0
   10.2230   -0.0410   24.2510 C   0  0  2  0  0  0  0  0  0  0  0  0
    9.5170    0.7070   24.9140 O   0  0  0  0  0  0  0  0  0  0  0  0
    9.6170   -0.9610   23.3870 C   0  0  0  0  0  0  0  0  0  0  0  0
    8.3860   -0.4120   22.8820 N   0  0  0  0  0  0  0  0  0  0  0  0
    8.2610    0.1470   21.6290 C   0  0  0  0  0  0  0  0  0  0  0  0
    8.9310    1.1150   21.2270 O   0  0  0  0  0  0  0  0  0  0  0  0
    7.2760   -0.5120   20.9380 N   0  0  0  0  0  0  0  0  0  0  0  0
    6.4950    0.1250   19.9840 C   0  0  0  0  0  0  0  0  0  0  0  0
    5.2960    0.8310   20.2560 C   0  0  0  0  0  0  0  0  0  0  0  0
    4.5020    1.5080   19.2630 C   0  0  0  0  0  0  0  0  0  0  0  0
    5.1370    1.3580   17.8820 C   0  0  0  0  0  0  0  0  0  0  0  0
    6.2780    0.6630   17.6750 N   0  0  0  0  0  0  0  0  0  0  0  0
    6.9450    0.0550   18.7020 C   0  0  0  0  0  0  0  0  0  0  0  0
   11.0090    0.8400   23.5640 C   0  0  0  0  0  0  0  0  0  0  0  0
   11.4960    0.2190   22.4320 C   0  0  0  0  0  0  0  0  0  0  0  0
  2  1  1  0
  2  3  1  0
  2  4  1  0
  4  5  1  0
  5  6  1  0
  6  7  1  0
  7  8  1  1
  7  9  1  0
  9 10  1  0
 10 11  1  0
 11 12  2  0
 11 13  1  0
 13 14  1  0
 14 15  2  0
 15 16  1  0
 16 17  2  0
 17 18  1  0
 14 19  1  0
 18 19  2  0
  7 20  1  0
  2 21  1  0
 20 21  1  0
M  END
