pyridine_urea_12982
     RDKit          3D

 19 19  0  0  0  0  0  0  0  0999 V2000
   12.9340   -2.5530   21.1970 C   0  0  0  0  0  0  0  0  0  0  0  0
   11.6280   -2.2840   21.4840 N   0  0  0  0  0  0  0  0  0  0  0  0
   11.2900   -1.6630   22.7420 C   0  0  0  0  0  0  0  0  0  0  0  0
   11.7540   -2.0590   24.0380 O   0  0  0  0  0  0  0  0  0  0  0  0
   10.3530   -0.4510   22.6780 C   0  0  2  0  0  0  0  0  0  0  0  0
   10.6110    0.4590   23.6880 C   0  0  0  0  0  0  0  0  0  0  0  0
   11.8540    1.0840   23.7040 C   0  0  0  0  0  0  0  0  0  0  0  0
   11.7420    2.3750   23.1820 C   0  0  0  0  0  0  0  0  0  0  0  0
   12.8680    0.3300   23.0790 C   0  0  0  0  0  0  0  0  0  0  0  0
    9.0480   -0.7810   22.4560 N   0  0  0  0  0  0  0  0  0  0  0  0
    8.3570   -0.0360   21.5300 C   0  0  0  0  0  0  0  0  0  0  0  0
    8.7940    1.2730   21.0990 O   0  0  0  0  0  0  0  0  0  0  0  0
    7.2230   -0.6260   21.0760 N   0  0  0  0  0  0  0  0  0  0  0  0
    6.5500    0.0130   20.0870 C   0  0  0  0  0  0  0  0  0  0  0  0
    5.4030    0.7440   20.4230 C   0  0  0  0  0  0  0  0  0  0  0  0
    4.7180    1.4140   19.4030 C   0  0  0  0  0  0  0  0  0  0  0  0
    5.2200    1.3310   18.0040 C   0  0  0  0  0  0  0  0  0  0  0  0
    6.3130    0.6180   17.7220 N   0  0  0  0  0  0  0  0  0  0  0  0
    6.9370   -0.0120   18.7510 C   0  0  0  0  0  0  0  0  0  0  0  0
  1  2  1  0
  2  3  1  0
  3  4  2  0
  3  5  1  0
  5  6  1  1
  6  7  1  0
  7  8  1  0
  7  9  1  0
  5 10  1  0
 10 11  1  0
 11 12  2  0
 11 13  1  0
 13 14  1  0
 14 15  2  0
 15 16  1  0
 16 17  2  0
 17 18  1  0
 14 19  1  0
 18 19  2  0
M  END
