pyridine_urea_12159
     RDKit          3D

 23 25  0  0  0  0  0  0  0  0999 V2000
   12.1030   -2.0500   21.9620 C   0  0  0  0  0  0  0  0  0  0  0  0
   11.0250   -2.2220   23.0370 C   0  0  0  0  0  0  0  0  0  0  0  0
   11.2270   -1.4130   24.1450 C   0  0  0  0  0  0  0  0  0  0  0  0
    9.6170   -1.9590   22.4530 C   0  0  2  0  0  0  0  0  0  0  0  0
    9.2930   -0.5190   22.4890 N   0  0  0  0  0  0  0  0  0  0  0  0
    8.5710    0.0950   21.4950 C   0  0  0  0  0  0  0  0  0  0  0  0
    8.8850    1.2400   21.1510 O   0  0  0  0  0  0  0  0  0  0  0  0
    7.5360   -0.6140   20.9680 N   0  0  0  0  0  0  0  0  0  0  0  0
    6.6880    0.0400   20.1190 C   0  0  0  0  0  0  0  0  0  0  0  0
    5.5550    0.7770   20.4790 C   0  0  0  0  0  0  0  0  0  0  0  0
    4.7510    1.4430   19.3660 C   0  0  0  0  0  0  0  0  0  0  0  0
    5.1840    1.2800   18.0520 C   0  0  0  0  0  0  0  0  0  0  0  0
    6.2670    0.5610   17.7370 N   0  0  0  0  0  0  0  0  0  0  0  0
    6.9530   -0.0140   18.7560 C   0  0  0  0  0  0  0  0  0  0  0  0
    8.5160   -2.6670   23.2140 C   0  0  0  0  0  0  0  0  0  0  0  0
    8.2330   -3.9670   23.0750 N   0  0  0  0  0  0  0  0  0  0  0  0
    7.2170   -4.1960   23.8950 C   0  0  0  0  0  0  0  0  0  0  0  0
    6.5590   -5.4000   24.1060 C   0  0  0  0  0  0  0  0  0  0  0  0
    5.4990   -5.4520   25.0220 C   0  0  0  0  0  0  0  0  0  0  0  0
    5.1030   -4.2980   25.7220 C   0  0  0  0  0  0  0  0  0  0  0  0
    5.7700   -3.0890   25.5040 C   0  0  0  0  0  0  0  0  0  0  0  0
    6.8090   -3.0820   24.5930 C   0  0  0  0  0  0  0  0  0  0  0  0
    7.6450   -2.1030   24.1560 N   0  0  0  0  0  0  0  0  0  0  0  0
  1  2  1  0
  2  3  1  0
  2  4  1  0
  4  5  1  1
  5  6  1  0
  6  7  2  0
  6  8  1  0
  8  9  1  0
  9 10  2  0
 10 11  1  0
 11 12  2  0
 12 13  1  0
  9 14  1  0
 13 14  2  0
  4 15  1  0
 15 16  2  0
 16 17  1  0
 17 18  2  0
 18 19  1  0
 19 20  2  0
 20 21  1  0
 17 22  1  0
 21 22  2  0
 15 23  1  0
 22 23  1  0
M  END
