pyridine_urea_5126
     RDKit          3D

 20 21  0  0  0  0  0  0  0  0999 V2000
    8.9670    1.3540   21.1710 O   0  0  0  0  0  0  0  0  0  0  0  0
    8.4120    0.3430   21.6150 C   0  0  0  0  0  0  0  0  0  0  0  0
    7.3530   -0.3290   21.0590 N   0  0  0  0  0  0  0  0  0  0  0  0
    6.5980    0.1990   20.0140 C   0  0  0  0  0  0  0  0  0  0  0  0
    5.4330    0.9150   20.3070 C   0  0  0  0  0  0  0  0  0  0  0  0
    4.6840    1.4700   19.2720 C   0  0  0  0  0  0  0  0  0  0  0  0
    5.1350    1.2830   17.9860 C   0  0  0  0  0  0  0  0  0  0  0  0
    6.2370    0.5930   17.6820 N   0  0  0  0  0  0  0  0  0  0  0  0
    6.9410    0.0660   18.6940 C   0  0  0  0  0  0  0  0  0  0  0  0
    8.8120   -0.2360   22.7910 N   0  0  0  0  0  0  0  0  0  0  0  0
   10.2090   -0.5300   23.0150 C   0  0  1  0  0  0  0  0  0  0  0  0
   10.6140   -1.5830   21.9850 C   0  0  0  0  0  0  0  0  0  0  0  0
   10.8880   -2.8030   22.7110 O   0  0  0  0  0  0  0  0  0  0  0  0
   11.2290    0.5380   23.2890 C   0  0  0  0  0  0  0  0  0  0  0  0
   11.7860    0.1600   24.4800 C   0  0  0  0  0  0  0  0  0  0  0  0
   12.4350   -0.7680   23.8990 C   0  0  0  0  0  0  0  0  0  0  0  0
   12.6490   -1.2890   22.7130 C   0  0  0  0  0  0  0  0  0  0  0  0
   13.4270   -2.1770   23.3090 C   0  0  0  0  0  0  0  0  0  0  0  0
   13.3600   -1.7800   24.7030 C   0  0  0  0  0  0  0  0  0  0  0  0
   12.5970   -0.6670   25.2730 N   0  0  0  0  0  0  0  0  0  0  0  0
  1  2  2  0
  2  3  1  0
  3  4  1  0
  4  5  2  0
  5  6  1  0
  6  7  2  0
  7  8  1  0
  4  9  1  0
  8  9  2  0
  2 10  1  0
 10 11  1  0
 11 12  1  6
 12 13  1  0
 11 14  1  0
 14 15  1  0
 15 16  2  0
 16 17  1  0
 17 18  2  0
 18 19  1  0
 15 20  1  0
 19 20  2  0
M  END
