pyridine_urea_14429
     RDKit          3D

 21 22  0  0  0  0  0  0  0  0999 V2000
    8.1770   -2.7850   22.3620 C   0  0  0  0  0  0  0  0  0  0  0  0
    8.5820   -1.7880   23.3890 C   0  0  0  0  0  0  0  0  0  0  0  0
    7.9290   -1.8330   24.6120 C   0  0  0  0  0  0  0  0  0  0  0  0
    8.4860   -0.4370   22.8590 N   0  0  0  0  0  0  0  0  0  0  0  0
    8.1950    0.0800   21.6490 C   0  0  0  0  0  0  0  0  0  0  0  0
    8.8340    1.0800   21.2420 O   0  0  0  0  0  0  0  0  0  0  0  0
    7.1290   -0.6230   20.9680 N   0  0  0  0  0  0  0  0  0  0  0  0
    6.4920    0.0360   19.9720 C   0  0  0  0  0  0  0  0  0  0  0  0
    5.2170    0.7880   20.3060 C   0  0  0  0  0  0  0  0  0  0  0  0
    4.5140    1.5380   19.1790 C   0  0  0  0  0  0  0  0  0  0  0  0
    5.1720    1.4540   17.8170 C   0  0  0  0  0  0  0  0  0  0  0  0
    6.3140    0.7360   17.6610 N   0  0  0  0  0  0  0  0  0  0  0  0
    6.9520    0.0540   18.6820 C   0  0  0  0  0  0  0  0  0  0  0  0
   10.1070   -1.9100   23.4290 C   0  0  0  0  0  0  0  0  0  0  0  0
   11.0160   -2.1020   24.4880 N   0  0  0  0  0  0  0  0  0  0  0  0
   12.3010   -2.1160   23.9300 O   0  0  0  0  0  0  0  0  0  0  0  0
   11.9890   -1.9290   22.5770 C   0  0  0  0  0  0  0  0  0  0  0  0
   13.0320   -1.8780   21.7180 C   0  0  0  0  0  0  0  0  0  0  0  0
   13.3630   -2.8260   20.8420 N   0  0  0  0  0  0  0  0  0  0  0  0
   13.6430   -0.8350   21.7930 O   0  0  0  0  0  0  0  0  0  0  0  0
   10.7490   -1.8110   22.2430 N   0  0  0  0  0  0  0  0  0  0  0  0
  1  2  1  0
  2  3  1  0
  2  4  1  0
  4  5  1  0
  5  6  2  0
  5  7  1  0
  7  8  1  0
  8  9  2  0
  9 10  1  0
 10 11  2  0
 11 12  1  0
  8 13  1  0
 12 13  2  0
  2 14  1  0
 14 15  2  0
 15 16  1  0
 16 17  1  0
 17 18  1  0
 18 19  1  0
 18 20  2  0
 14 21  1  0
 17 21  2  0
M  END
