pyridine_urea_14861
     RDKit          3D

 21 23  0  0  0  0  0  0  0  0999 V2000
    9.0070    0.9470   21.4950 O   0  0  0  0  0  0  0  0  0  0  0  0
    8.6050   -0.2030   21.5460 C   0  0  0  0  0  0  0  0  0  0  0  0
    9.3640   -1.2900   21.9720 N   0  0  0  0  0  0  0  0  0  0  0  0
   10.4310   -1.3200   22.9190 C   0  0  0  0  0  0  0  0  0  0  0  0
   11.5730   -0.4980   22.8560 C   0  0  0  0  0  0  0  0  0  0  0  0
   12.5640   -1.0560   22.5830 C   0  0  0  0  0  0  0  0  0  0  0  0
   12.4370    0.5690   22.8700 C   0  0  0  0  0  0  0  0  0  0  0  0
   11.0760    0.1470   23.0880 C   0  0  0  0  0  0  0  0  0  0  0  0
   10.2500    1.3640   23.4280 C   0  0  0  0  0  0  0  0  0  0  0  0
   10.8130    2.6060   23.4680 C   0  0  0  0  0  0  0  0  0  0  0  0
   12.1740    2.6440   23.1890 C   0  0  0  0  0  0  0  0  0  0  0  0
   12.8910    1.4640   22.8950 C   0  0  0  0  0  0  0  0  0  0  0  0
   12.3180    0.1690   22.8350 C   0  0  0  0  0  0  0  0  0  0  0  0
   13.1250   -0.6970   22.5430 C   0  0  0  0  0  0  0  0  0  0  0  0
    7.3360   -0.5950   21.1620 N   0  0  0  0  0  0  0  0  0  0  0  0
    6.5800    0.0360   20.0790 C   0  0  0  0  0  0  0  0  0  0  0  0
    5.4140    0.7540   20.3780 C   0  0  0  0  0  0  0  0  0  0  0  0
    4.6950    1.3710   19.3500 C   0  0  0  0  0  0  0  0  0  0  0  0
    5.1630    1.2520   18.0540 C   0  0  0  0  0  0  0  0  0  0  0  0
    6.2690    0.5650   17.7460 N   0  0  0  0  0  0  0  0  0  0  0  0
    6.9490   -0.0240   18.7520 C   0  0  0  0  0  0  0  0  0  0  0  0
  1  2  2  0
  2  3  1  0
  3  4  1  0
  4  5  1  0
  5  6  2  0
  6  7  1  0
  7  8  2  0
  8  9  1  0
  9 10  2  0
 10 11  1  0
 11 12  2  0
  8 13  1  0
 12 13  1  0
  5 14  1  0
 13 14  2  0
  2 15  1  0
 15 16  1  0
 16 17  2  0
 17 18  1  0
 18 19  2  0
 19 20  1  0
 16 21  1  0
 20 21  2  0
M  END
