pyridine_urea_3699
     RDKit          3D

 19 20  0  0  0  0  0  0  0  0999 V2000
   13.1500   -0.5900   23.0130 C   0  0  0  0  0  0  0  0  0  0  0  0
   12.9130   -1.6110   24.1360 C   0  0  2  0  0  0  0  0  0  0  0  0
   13.8420   -2.6920   23.9490 O   0  0  0  0  0  0  0  0  0  0  0  0
   11.4870   -2.0890   23.9860 C   0  0  0  0  0  0  0  0  0  0  0  0
   10.4380   -1.2920   23.8630 N   0  0  0  0  0  0  0  0  0  0  0  0
    9.3980   -2.1110   23.7280 C   0  0  0  0  0  0  0  0  0  0  0  0
    7.9950   -1.5910   23.5420 C   0  0  0  0  0  0  0  0  0  0  0  0
    7.9910   -0.2910   23.0380 N   0  0  0  0  0  0  0  0  0  0  0  0
    8.1480    0.0450   21.7160 C   0  0  0  0  0  0  0  0  0  0  0  0
    9.0110    0.7960   21.2940 O   0  0  0  0  0  0  0  0  0  0  0  0
    7.1750   -0.5710   20.9620 N   0  0  0  0  0  0  0  0  0  0  0  0
    6.4170    0.0920   20.0020 C   0  0  0  0  0  0  0  0  0  0  0  0
    5.2320    0.7890   20.2420 C   0  0  0  0  0  0  0  0  0  0  0  0
    4.5890    1.4180   19.1810 C   0  0  0  0  0  0  0  0  0  0  0  0
    5.1610    1.3210   17.9320 C   0  0  0  0  0  0  0  0  0  0  0  0
    6.2950    0.6500   17.6810 N   0  0  0  0  0  0  0  0  0  0  0  0
    6.8920    0.0540   18.7140 C   0  0  0  0  0  0  0  0  0  0  0  0
    9.6720   -3.3880   23.7640 N   0  0  0  0  0  0  0  0  0  0  0  0
   11.0200   -3.3590   23.9370 N   0  0  0  0  0  0  0  0  0  0  0  0
  2  1  1  6
  2  3  1  0
  2  4  1  0
  4  5  2  0
  5  6  1  0
  6  7  1  0
  7  8  1  0
  8  9  1  0
  9 10  2  0
  9 11  1  0
 11 12  1  0
 12 13  2  0
 13 14  1  0
 14 15  2  0
 15 16  1  0
 12 17  1  0
 16 17  2  0
  6 18  2  0
  4 19  1  0
 18 19  1  0
M  END
