pyridine_urea_8365
     RDKit          3D

 22 23  0  0  0  0  0  0  0  0999 V2000
   13.2100    3.5410   22.5100 C   0  0  0  0  0  0  0  0  0  0  0  0
   12.8510    2.4940   23.4010 O   0  0  0  0  0  0  0  0  0  0  0  0
   13.3060    1.1930   23.0130 C   0  0  0  0  0  0  0  0  0  0  0  0
   14.3980    0.7530   22.7700 O   0  0  0  0  0  0  0  0  0  0  0  0
   12.0810    0.3490   22.9070 C   0  0  0  0  0  0  0  0  0  0  0  0
   12.1580   -0.9150   22.4160 C   0  0  0  0  0  0  0  0  0  0  0  0
   13.4850   -1.5280   22.0060 C   0  0  0  0  0  0  0  0  0  0  0  0
   10.9950   -1.6330   22.2790 C   0  0  0  0  0  0  0  0  0  0  0  0
    9.6220   -1.0750   22.6570 C   0  0  0  0  0  0  0  0  0  0  0  0
    8.4990   -1.0850   22.7740 N   0  0  0  0  0  0  0  0  0  0  0  0
    8.0590   -0.2720   21.6440 C   0  0  0  0  0  0  0  0  0  0  0  0
    8.6450    0.7410   21.2640 O   0  0  0  0  0  0  0  0  0  0  0  0
    6.8710   -0.8300   21.0670 N   0  0  0  0  0  0  0  0  0  0  0  0
    6.3660   -0.1290   20.0150 C   0  0  0  0  0  0  0  0  0  0  0  0
    5.0760    0.6380   20.2840 C   0  0  0  0  0  0  0  0  0  0  0  0
    4.4320    1.4680   19.1750 C   0  0  0  0  0  0  0  0  0  0  0  0
    5.2230    1.4090   17.8710 C   0  0  0  0  0  0  0  0  0  0  0  0
    6.3850    0.6700   17.7390 N   0  0  0  0  0  0  0  0  0  0  0  0
    6.9480   -0.0760   18.7690 C   0  0  0  0  0  0  0  0  0  0  0  0
    9.7010    0.2390   23.1870 C   0  0  0  0  0  0  0  0  0  0  0  0
   10.8980    0.9010   23.2950 C   0  0  0  0  0  0  0  0  0  0  0  0
   10.7810    2.1470   23.8040 F   0  0  0  0  0  0  0  0  0  0  0  0
  1  2  1  0
  2  3  1  0
  3  4  2  0
  3  5  1  0
  5  6  2  0
  6  7  1  0
  6  8  1  0
  8  9  2  0
  9 10  1  0
 10 11  1  0
 11 12  2  0
 11 13  1  0
 13 14  1  0
 14 15  2  0
 15 16  1  0
 16 17  2  0
 17 18  1  0
 14 19  1  0
 18 19  2  0
  9 20  1  0
  5 21  1  0
 20 21  2  0
 21 22  1  0
M  END
