pyridine_urea_5136
     RDKit          3D

 20 22  0  0  0  0  0  0  0  0999 V2000
    8.7370    0.6650   21.2470 O   0  0  0  0  0  0  0  0  0  0  0  0
    8.1560   -0.3350   21.6370 C   0  0  0  0  0  0  0  0  0  0  0  0
    6.9700   -0.7740   21.1210 N   0  0  0  0  0  0  0  0  0  0  0  0
    6.3630   -0.1020   20.0500 C   0  0  0  0  0  0  0  0  0  0  0  0
    5.1710    0.5940   20.2650 C   0  0  0  0  0  0  0  0  0  0  0  0
    4.5660    1.2840   19.2110 C   0  0  0  0  0  0  0  0  0  0  0  0
    5.1820    1.2510   17.9780 C   0  0  0  0  0  0  0  0  0  0  0  0
    6.3220    0.5840   17.7480 N   0  0  0  0  0  0  0  0  0  0  0  0
    6.8850   -0.0760   18.7770 C   0  0  0  0  0  0  0  0  0  0  0  0
    8.6960   -1.0810   22.6600 N   0  0  0  0  0  0  0  0  0  0  0  0
   10.0390   -0.6250   22.8540 C   0  0  0  0  0  0  0  0  0  0  0  0
   11.1340   -1.3870   22.1280 C   0  0  0  0  0  0  0  0  0  0  0  0
   12.4170   -0.9250   22.2660 C   0  0  0  0  0  0  0  0  0  0  0  0
   12.6380    0.1880   23.0370 C   0  0  0  0  0  0  0  0  0  0  0  0
   13.8480    0.5940   23.0940 F   0  0  0  0  0  0  0  0  0  0  0  0
   11.6500    0.8890   23.7310 C   0  0  0  0  0  0  0  0  0  0  0  0
   10.3220    0.4950   23.6600 C   0  0  0  0  0  0  0  0  0  0  0  0
    9.3350    1.2040   24.3530 C   0  0  0  0  0  0  0  0  0  0  0  0
    8.3940    1.8500   23.7330 C   0  0  0  0  0  0  0  0  0  0  0  0
    9.2720    2.7940   23.8780 C   0  0  0  0  0  0  0  0  0  0  0  0
  1  2  2  0
  2  3  1  0
  3  4  1  0
  4  5  2  0
  5  6  1  0
  6  7  2  0
  7  8  1  0
  4  9  1  0
  8  9  2  0
  2 10  1  0
 10 11  1  0
 11 12  2  0
 12 13  1  0
 13 14  2  0
 14 15  1  0
 14 16  1  0
 11 17  1  0
 16 17  2  0
 17 18  1  0
 18 19  1  0
 18 20  1  0
 19 20  1  0
M  END
