pyridine_urea_5250
     RDKit          3D

 19 21  0  0  0  0  0  0  0  0999 V2000
    8.8940    0.7970   21.3710 O   0  0  0  0  0  0  0  0  0  0  0  0
    8.2920   -0.2110   21.7100 C   0  0  0  0  0  0  0  0  0  0  0  0
    7.1410   -0.6750   21.1230 N   0  0  0  0  0  0  0  0  0  0  0  0
    6.4860   -0.0290   20.0610 C   0  0  0  0  0  0  0  0  0  0  0  0
    5.3050    0.6790   20.3150 C   0  0  0  0  0  0  0  0  0  0  0  0
    4.6510    1.3410   19.2710 C   0  0  0  0  0  0  0  0  0  0  0  0
    5.2030    1.2710   18.0120 C   0  0  0  0  0  0  0  0  0  0  0  0
    6.3290    0.5950   17.7450 N   0  0  0  0  0  0  0  0  0  0  0  0
    6.9420   -0.0380   18.7630 C   0  0  0  0  0  0  0  0  0  0  0  0
    8.7110   -1.0060   22.7620 N   0  0  0  0  0  0  0  0  0  0  0  0
   10.0360   -0.7760   23.3110 C   0  0  2  0  0  0  0  0  0  0  0  0
   10.2720    0.7230   23.6040 C   0  0  0  0  0  0  0  0  0  0  0  0
   11.5410    1.0970   24.0010 C   0  0  0  0  0  0  0  0  0  0  0  0
   12.6910    0.8560   22.8090 S   0  0  0  0  0  0  0  0  0  0  0  0
   12.2030   -0.8330   22.8640 C   0  0  0  0  0  0  0  0  0  0  0  0
   13.1050   -1.8010   22.5070 C   0  0  0  0  0  0  0  0  0  0  0  0
   13.1060   -2.2240   23.7770 C   0  0  0  0  0  0  0  0  0  0  0  0
   12.2700   -1.2120   24.2530 C   0  0  0  0  0  0  0  0  0  0  0  0
   10.9780   -1.0450   22.2080 C   0  0  0  0  0  0  0  0  0  0  0  0
  1  2  2  0
  2  3  1  0
  3  4  1  0
  4  5  2  0
  5  6  1  0
  6  7  2  0
  7  8  1  0
  4  9  1  0
  8  9  2  0
  2 10  1  0
 11 10  1  6
 11 12  1  0
 12 13  1  0
 13 14  1  0
 15 14  1  0
 15 16  1  0
 16 17  1  0
 15 18  1  0
 17 18  1  0
 11 19  1  0
 15 19  1  0
M  END
