pyridine_urea_7950
     RDKit          3D

 25 27  0  0  0  0  0  0  0  0999 V2000
   11.9170   -2.5640   24.9720 C   0  0  0  0  0  0  0  0  0  0  0  0
   12.0620   -2.3410   23.6520 N   0  0  0  0  0  0  0  0  0  0  0  0
   13.1840   -2.5850   22.8400 C   0  0  0  0  0  0  0  0  0  0  0  0
   12.9470   -2.2290   21.5250 C   0  0  0  0  0  0  0  0  0  0  0  0
   11.6820   -1.7530   21.4330 N   0  0  0  0  0  0  0  0  0  0  0  0
   11.1140   -1.8020   22.7780 C   0  0  0  0  0  0  0  0  0  0  0  0
    9.8410   -1.3820   23.2110 C   0  0  2  0  0  0  0  0  0  0  0  0
    8.9570   -1.5190   22.1740 N   0  0  0  0  0  0  0  0  0  0  0  0
    8.3910   -0.4310   21.5810 C   0  0  0  0  0  0  0  0  0  0  0  0
    8.9410    0.6550   21.4130 O   0  0  0  0  0  0  0  0  0  0  0  0
    7.0930   -0.7240   21.1880 N   0  0  0  0  0  0  0  0  0  0  0  0
    6.5180   -0.0740   20.1110 C   0  0  0  0  0  0  0  0  0  0  0  0
    5.2510    0.7480   20.2810 C   0  0  0  0  0  0  0  0  0  0  0  0
    4.6420    1.4280   19.2220 C   0  0  0  0  0  0  0  0  0  0  0  0
    5.2060    1.3620   17.9520 C   0  0  0  0  0  0  0  0  0  0  0  0
    6.3600    0.6140   17.7670 N   0  0  0  0  0  0  0  0  0  0  0  0
    6.9680   -0.0660   18.8050 C   0  0  0  0  0  0  0  0  0  0  0  0
   10.0910    0.0610   23.5750 C   0  0  0  0  0  0  0  0  0  0  0  0
   10.7420    1.3190   23.7550 C   0  0  0  0  0  0  0  0  0  0  0  0
   12.0430    1.6930   23.4600 C   0  0  0  0  0  0  0  0  0  0  0  0
   12.9020    0.8270   22.9430 C   0  0  0  0  0  0  0  0  0  0  0  0
   14.1150    1.1480   22.6630 F   0  0  0  0  0  0  0  0  0  0  0  0
   12.4840   -0.3670   22.7230 C   0  0  0  0  0  0  0  0  0  0  0  0
   11.1800   -0.6640   23.0300 C   0  0  0  0  0  0  0  0  0  0  0  0
   10.9390   -1.9680   22.7190 F   0  0  0  0  0  0  0  0  0  0  0  0
  1  2  1  0
  2  3  1  0
  3  4  2  0
  4  5  1  0
  2  6  1  0
  5  6  2  0
  6  7  1  0
  7  8  1  6
  8  9  1  0
  9 10  2  0
  9 11  1  0
 11 12  1  0
 12 13  2  0
 13 14  1  0
 14 15  2  0
 15 16  1  0
 12 17  1  0
 16 17  2  0
  7 18  1  0
 18 19  2  0
 19 20  1  0
 20 21  2  0
 21 22  1  0
 21 23  1  0
 18 24  1  0
 23 24  2  0
 24 25  1  0
M  END
