pyridine_urea_7648
     RDKit          3D

 21 22  0  0  0  0  0  0  0  0999 V2000
    9.3320    2.9250   22.0400 C   0  0  0  0  0  0  0  0  0  0  0  0
    9.4680    1.7240   21.8130 O   0  0  0  0  0  0  0  0  0  0  0  0
   10.3400    1.1210   22.6460 C   0  0  0  0  0  0  0  0  0  0  0  0
   11.1610    1.7450   23.2910 O   0  0  0  0  0  0  0  0  0  0  0  0
   10.1740   -0.2870   22.7190 C   0  0  2  0  0  0  0  0  0  0  0  0
    8.9480   -0.7300   22.4130 N   0  0  0  0  0  0  0  0  0  0  0  0
    8.1470   -0.1550   21.4610 C   0  0  0  0  0  0  0  0  0  0  0  0
    8.4220    0.9080   20.9400 O   0  0  0  0  0  0  0  0  0  0  0  0
    6.9480   -0.9150   21.1260 N   0  0  0  0  0  0  0  0  0  0  0  0
    6.3370   -0.1700   20.0850 C   0  0  0  0  0  0  0  0  0  0  0  0
    5.1560    0.5270   20.3580 C   0  0  0  0  0  0  0  0  0  0  0  0
    4.5900    1.2560   19.3280 C   0  0  0  0  0  0  0  0  0  0  0  0
    5.2500    1.2820   17.9730 C   0  0  0  0  0  0  0  0  0  0  0  0
    6.3820    0.6020   17.7420 N   0  0  0  0  0  0  0  0  0  0  0  0
    6.8980   -0.1070   18.7920 C   0  0  0  0  0  0  0  0  0  0  0  0
   10.3660   -0.5610   24.1450 C   0  0  0  0  0  0  0  0  0  0  0  0
   11.5410   -0.0100   24.5720 C   0  0  0  0  0  0  0  0  0  0  0  0
   12.5870   -0.1320   23.6560 C   0  0  2  0  0  0  0  0  0  0  0  0
   12.9810    1.0220   22.9970 C   0  0  0  0  0  0  0  0  0  0  0  0
   12.4550   -0.9640   22.5700 C   0  0  0  0  0  0  0  0  0  0  0  0
   11.1130   -1.2020   22.1950 C   0  0  0  0  0  0  0  0  0  0  0  0
  1  2  1  0
  2  3  1  0
  3  4  2  0
  5  3  1  0
  5  6  1  6
  6  7  1  0
  7  8  2  0
  7  9  1  0
  9 10  1  0
 10 11  2  0
 11 12  1  0
 12 13  2  0
 13 14  1  0
 10 15  1  0
 14 15  2  0
  5 16  1  0
 16 17  1  0
 17 18  1  0
 18 19  1  6
 18 20  1  0
  5 21  1  0
 20 21  1  0
M  END
