pyridine_urea_6015
     RDKit          3D

 25 27  0  0  0  0  0  0  0  0999 V2000
   13.3160   -1.7660   21.0440 C   0  0  0  0  0  0  0  0  0  0  0  0
   13.0530   -1.5330   22.4970 C   0  0  1  0  0  0  0  0  0  0  0  0
   11.8050   -1.2310   22.7080 C   0  0  0  0  0  0  0  0  0  0  0  0
   10.9640   -1.9850   22.0980 C   0  0  0  0  0  0  0  0  0  0  0  0
    9.7100   -1.7030   22.3080 C   0  0  0  0  0  0  0  0  0  0  0  0
    9.2340   -0.5910   23.1840 C   0  0  0  0  0  0  0  0  0  0  0  0
   10.1280    0.4210   23.9820 C   0  0  0  0  0  0  0  0  0  0  0  0
    8.6360    0.5320   24.0520 C   0  0  0  0  0  0  0  0  0  0  0  0
    8.0620   -0.3380   23.0350 N   0  0  0  0  0  0  0  0  0  0  0  0
    8.0700    0.0620   21.7200 C   0  0  0  0  0  0  0  0  0  0  0  0
    8.8650    0.8680   21.2590 O   0  0  0  0  0  0  0  0  0  0  0  0
    7.0650   -0.5530   21.0330 N   0  0  0  0  0  0  0  0  0  0  0  0
    6.4200    0.0720   19.9780 C   0  0  0  0  0  0  0  0  0  0  0  0
    5.2430    0.7770   20.2270 C   0  0  0  0  0  0  0  0  0  0  0  0
    4.6060    1.4180   19.1810 C   0  0  0  0  0  0  0  0  0  0  0  0
    5.1650    1.3360   17.9240 C   0  0  0  0  0  0  0  0  0  0  0  0
    6.2880    0.6560   17.6660 N   0  0  0  0  0  0  0  0  0  0  0  0
    6.8900    0.0400   18.6930 C   0  0  0  0  0  0  0  0  0  0  0  0
   11.4370   -0.1820   23.5240 C   0  0  0  0  0  0  0  0  0  0  0  0
   13.4510   -2.5800   23.3160 N   0  0  0  0  0  0  0  0  0  0  0  0
   13.4780   -2.1550   24.6580 C   0  0  0  0  0  0  0  0  0  0  0  0
   13.6690   -3.0120   25.6870 O   0  0  0  0  0  0  0  0  0  0  0  0
   13.2890   -0.8460   24.5460 N   0  0  0  0  0  0  0  0  0  0  0  0
   13.5030   -0.4800   23.2400 C   0  0  0  0  0  0  0  0  0  0  0  0
   14.0040    0.7540   22.7580 O   0  0  0  0  0  0  0  0  0  0  0  0
  2  1  1  6
  2  3  1  0
  3  4  2  0
  4  5  1  0
  5  6  2  0
  6  7  1  0
  7  8  1  0
  8  9  1  0
  9 10  1  0
 10 11  2  0
 10 12  1  0
 12 13  1  0
 13 14  2  0
 14 15  1  0
 15 16  2  0
 16 17  1  0
 13 18  1  0
 17 18  2  0
  3 19  1  0
  7 19  2  0
  2 20  1  0
 20 21  1  0
 21 22  2  0
 21 23  1  0
  2 24  1  0
 23 24  1  0
 24 25  2  0
M  END
