pyridine_urea_13312
     RDKit          3D

 20 21  0  0  0  0  0  0  0  0999 V2000
    8.9880    0.9210   21.3990 O   0  0  0  0  0  0  0  0  0  0  0  0
    8.5380   -0.2160   21.3570 C   0  0  0  0  0  0  0  0  0  0  0  0
    7.2470   -0.5600   21.0270 N   0  0  0  0  0  0  0  0  0  0  0  0
    6.5260    0.0650   20.0070 C   0  0  0  0  0  0  0  0  0  0  0  0
    5.3670    0.7850   20.3090 C   0  0  0  0  0  0  0  0  0  0  0  0
    4.6620    1.4250   19.2890 C   0  0  0  0  0  0  0  0  0  0  0  0
    5.1480    1.3160   18.0010 C   0  0  0  0  0  0  0  0  0  0  0  0
    6.2500    0.6240   17.6890 N   0  0  0  0  0  0  0  0  0  0  0  0
    6.9110    0.0180   18.6890 C   0  0  0  0  0  0  0  0  0  0  0  0
    9.3340   -1.3220   21.6470 N   0  0  0  0  0  0  0  0  0  0  0  0
   10.0850   -1.3240   22.8900 C   0  0  0  0  0  0  0  0  0  0  0  0
   11.3370   -1.5780   22.5020 C   0  0  0  0  0  0  0  0  0  0  0  0
   10.0020   -1.4300   21.8320 N   0  0  0  0  0  0  0  0  0  0  0  0
    8.7050   -1.1220   22.6710 N   0  0  0  0  0  0  0  0  0  0  0  0
    9.2600   -1.0780   23.8730 C   0  0  0  0  0  0  0  0  0  0  0  0
    9.1370   -0.9240   25.0810 O   0  0  0  0  0  0  0  0  0  0  0  0
    7.8060   -0.7810   25.4140 C   0  0  0  0  0  0  0  0  0  0  0  0
    7.5080    0.1070   26.4570 C   0  0  0  0  0  0  0  0  0  0  0  0
    7.8310   -0.4690   27.6370 F   0  0  0  0  0  0  0  0  0  0  0  0
    6.1760    0.3200   26.5190 F   0  0  0  0  0  0  0  0  0  0  0  0
  1  2  2  0
  2  3  1  0
  3  4  1  0
  4  5  2  0
  5  6  1  0
  6  7  2  0
  7  8  1  0
  4  9  1  0
  8  9  2  0
  2 10  1  0
 10 11  1  0
 11 12  2  0
 12 13  1  0
 13 14  1  0
 11 15  1  0
 14 15  2  0
 15 16  1  0
 16 17  1  0
 17 18  1  0
 18 19  1  0
 18 20  1  0
M  END
