pyridine_urea_9876
     RDKit          3D

 25 26  0  0  0  0  0  0  0  0999 V2000
   16.0700   -5.4510   21.8530 N   0  0  0  0  0  0  0  0  0  0  0  0
   15.5890   -5.1470   20.6560 C   0  0  0  0  0  0  0  0  0  0  0  0
   16.4150   -5.0570   19.5710 O   0  0  0  0  0  0  0  0  0  0  0  0
   14.1500   -4.9490   20.5570 C   0  0  0  0  0  0  0  0  0  0  0  0
   13.6370   -3.7920   19.9990 C   0  0  0  0  0  0  0  0  0  0  0  0
   12.7990   -3.0600   20.8160 N   0  0  0  0  0  0  0  0  0  0  0  0
   13.0090   -2.4320   22.0710 C   0  0  0  0  0  0  0  0  0  0  0  0
   13.7940   -3.0100   23.1010 O   0  0  0  0  0  0  0  0  0  0  0  0
   12.3350   -1.1300   22.3890 C   0  0  0  0  0  0  0  0  0  0  0  0
   12.9830    0.2060   22.7150 C   0  0  0  0  0  0  0  0  0  0  0  0
   12.0260    1.3560   22.9720 C   0  0  0  0  0  0  0  0  0  0  0  0
   10.6580    1.0670   22.8920 C   0  0  0  0  0  0  0  0  0  0  0  0
    9.9010    2.1770   23.1350 F   0  0  0  0  0  0  0  0  0  0  0  0
   10.0870   -0.1580   22.6060 C   0  0  0  0  0  0  0  0  0  0  0  0
    8.7950   -0.4440   22.5270 N   0  0  0  0  0  0  0  0  0  0  0  0
    8.2150    0.1750   21.4890 C   0  0  0  0  0  0  0  0  0  0  0  0
    8.6030    1.2650   21.0520 O   0  0  0  0  0  0  0  0  0  0  0  0
    7.1770   -0.5560   21.0350 N   0  0  0  0  0  0  0  0  0  0  0  0
    6.5130    0.0510   20.0430 C   0  0  0  0  0  0  0  0  0  0  0  0
    5.3830    0.8210   20.3610 C   0  0  0  0  0  0  0  0  0  0  0  0
    4.6460    1.5190   19.2710 C   0  0  0  0  0  0  0  0  0  0  0  0
    5.1130    1.3760   17.9780 C   0  0  0  0  0  0  0  0  0  0  0  0
    6.2200    0.6110   17.6440 N   0  0  0  0  0  0  0  0  0  0  0  0
    6.9020   -0.0450   18.7190 C   0  0  0  0  0  0  0  0  0  0  0  0
   10.9850   -1.3330   22.3330 C   0  0  0  0  0  0  0  0  0  0  0  0
  1  2  1  0
  2  3  2  0
  2  4  1  0
  4  5  1  0
  5  6  1  0
  6  7  1  0
  7  8  2  0
  7  9  1  0
  9 10  2  0
 10 11  1  0
 11 12  2  0
 12 13  1  0
 12 14  1  0
 14 15  1  0
 15 16  1  0
 16 17  2  0
 16 18  1  0
 18 19  1  0
 19 20  2  0
 20 21  1  0
 21 22  2  0
 22 23  1  0
 19 24  1  0
 23 24  2  0
  9 25  1  0
 14 25  2  0
M  END
