pyridine_urea_1614
     RDKit          3D

 19 21  0  0  0  0  0  0  0  0999 V2000
    8.9430    1.2800   21.2100 O   0  0  0  0  0  0  0  0  0  0  0  0
    8.3100    0.3100   21.6490 C   0  0  0  0  0  0  0  0  0  0  0  0
    7.2730   -0.3530   21.0500 N   0  0  0  0  0  0  0  0  0  0  0  0
    6.5480    0.1880   20.0000 C   0  0  0  0  0  0  0  0  0  0  0  0
    5.3790    0.9020   20.2840 C   0  0  0  0  0  0  0  0  0  0  0  0
    4.6530    1.4710   19.2400 C   0  0  0  0  0  0  0  0  0  0  0  0
    5.1310    1.3020   17.9600 C   0  0  0  0  0  0  0  0  0  0  0  0
    6.2400    0.6160   17.6660 N   0  0  0  0  0  0  0  0  0  0  0  0
    6.9220    0.0730   18.6870 C   0  0  0  0  0  0  0  0  0  0  0  0
    8.5900   -0.2400   22.8650 N   0  0  0  0  0  0  0  0  0  0  0  0
    9.9100   -0.7780   23.0760 C   0  0  0  0  0  0  0  0  0  0  0  0
   10.6720   -1.0070   21.7580 C   0  0  0  0  0  0  0  0  0  0  0  0
   11.9760   -1.5230   21.6940 C   0  0  0  0  0  0  0  0  0  0  0  0
   12.5650   -1.8290   22.8420 C   0  0  0  0  0  0  0  0  0  0  0  0
   13.8060   -2.3530   23.1120 O   0  0  0  0  0  0  0  0  0  0  0  0
   13.8090   -2.4670   24.4780 C   0  0  0  0  0  0  0  0  0  0  0  0
   12.6670   -2.0400   24.9780 C   0  0  0  0  0  0  0  0  0  0  0  0
   11.8410   -1.6220   24.0860 C   0  0  0  0  0  0  0  0  0  0  0  0
   10.4990   -1.0870   24.2660 C   0  0  0  0  0  0  0  0  0  0  0  0
  1  2  2  0
  2  3  1  0
  3  4  1  0
  4  5  2  0
  5  6  1  0
  6  7  2  0
  7  8  1  0
  4  9  1  0
  8  9  2  0
  2 10  1  0
 10 11  1  0
 11 12  2  0
 12 13  1  0
 13 14  2  0
 14 15  1  0
 15 16  1  0
 16 17  2  0
 14 18  1  0
 17 18  1  0
 11 19  1  0
 18 19  2  0
M  END
