pyridine_urea_5197
     RDKit          3D

 20 21  0  0  0  0  0  0  0  0999 V2000
   13.3170   -3.3050   20.8560 C   0  0  0  0  0  0  0  0  0  0  0  0
   13.1000   -2.8570   22.1690 O   0  0  0  0  0  0  0  0  0  0  0  0
   13.1080   -1.5100   22.2650 C   0  0  0  0  0  0  0  0  0  0  0  0
   13.6390   -0.8580   21.3950 O   0  0  0  0  0  0  0  0  0  0  0  0
   12.5150   -0.8960   23.3170 C   0  0  0  0  0  0  0  0  0  0  0  0
   11.2370   -1.5040   22.0970 S   0  0  0  0  0  0  0  0  0  0  0  0
    9.6960   -0.9860   22.8450 C   0  0  0  0  0  0  0  0  0  0  0  0
    8.4240   -1.0820   22.5220 N   0  0  0  0  0  0  0  0  0  0  0  0
    8.0410   -0.3040   21.5090 C   0  0  0  0  0  0  0  0  0  0  0  0
    8.6110    0.7380   21.2090 O   0  0  0  0  0  0  0  0  0  0  0  0
    6.9650   -0.8530   20.9320 N   0  0  0  0  0  0  0  0  0  0  0  0
    6.3550   -0.1090   19.9980 C   0  0  0  0  0  0  0  0  0  0  0  0
    5.1900    0.6470   20.1810 C   0  0  0  0  0  0  0  0  0  0  0  0
    4.5440    1.4850   19.0660 C   0  0  0  0  0  0  0  0  0  0  0  0
    5.1970    1.4480   17.8460 C   0  0  0  0  0  0  0  0  0  0  0  0
    6.3210    0.6960   17.7210 N   0  0  0  0  0  0  0  0  0  0  0  0
    6.9030   -0.0660   18.7330 C   0  0  0  0  0  0  0  0  0  0  0  0
   10.0360   -0.3210   24.0810 C   0  0  0  0  0  0  0  0  0  0  0  0
   11.3830   -0.3540   24.1790 C   0  0  0  0  0  0  0  0  0  0  0  0
   12.4760   -0.0530   24.8620 C   0  0  0  0  0  0  0  0  0  0  0  0
  1  2  1  0
  2  3  1  0
  3  4  2  0
  3  5  1  0
  5  6  1  0
  6  7  1  0
  7  8  1  0
  8  9  1  0
  9 10  2  0
  9 11  1  0
 11 12  1  0
 12 13  2  0
 13 14  1  0
 14 15  2  0
 15 16  1  0
 12 17  1  0
 16 17  2  0
  7 18  2  0
  5 19  2  0
 18 19  1  0
 19 20  1  0
M  END
