pyridine_urea_288
     RDKit          3D

 27 29  0  0  0  0  0  0  0  0999 V2000
    8.7200    0.8140   21.4150 O   0  0  0  0  0  0  0  0  0  0  0  0
    8.4260   -0.3630   21.5700 C   0  0  0  0  0  0  0  0  0  0  0  0
    9.1850   -1.1860   22.3540 N   0  0  0  0  0  0  0  0  0  0  0  0
   10.5050   -0.6460   22.5520 C   0  0  0  0  0  0  0  0  0  0  0  0
   11.6690   -1.5880   22.3080 C   0  0  0  0  0  0  0  0  0  0  0  0
   13.0010   -0.9700   22.5120 C   0  0  0  0  0  0  0  0  0  0  0  0
   13.0750    0.3550   22.8860 C   0  0  0  0  0  0  0  0  0  0  0  0
   12.0230    1.1550   23.0900 N   0  0  0  0  0  0  0  0  0  0  0  0
   10.7790    0.6510   22.9280 C   0  0  0  0  0  0  0  0  0  0  0  0
    7.3400   -0.9400   20.9520 N   0  0  0  0  0  0  0  0  0  0  0  0
    6.8620   -0.1470   19.8020 C   0  0  2  0  0  0  0  0  0  0  0  0
    6.6500    1.1180   20.1880 C   0  0  0  0  0  0  0  0  0  0  0  0
    6.1280    1.3830   18.8230 C   0  0  0  0  0  0  0  0  0  0  0  0
    5.0840    0.6760   18.5860 N   0  0  0  0  0  0  0  0  0  0  0  0
    4.0540    1.5200   18.8530 C   0  0  0  0  0  0  0  0  0  0  0  0
    3.9300    2.7410   18.2960 C   0  0  0  0  0  0  0  0  0  0  0  0
    2.8890    3.6650   18.5190 C   0  0  0  0  0  0  0  0  0  0  0  0
    1.6320    3.6640   19.3790 C   0  0  0  0  0  0  0  0  0  0  0  0
    1.9010    2.2930   19.9240 C   0  0  0  0  0  0  0  0  0  0  0  0
    1.0370    1.9100   20.7060 O   0  0  0  0  0  0  0  0  0  0  0  0
    0.1610    2.9380   21.1770 C   0  0  0  0  0  0  0  0  0  0  0  0
   -0.5980    2.5010   22.2120 F   0  0  0  0  0  0  0  0  0  0  0  0
    0.8960    3.9810   21.6230 F   0  0  0  0  0  0  0  0  0  0  0  0
   -0.6610    3.3870   20.2030 F   0  0  0  0  0  0  0  0  0  0  0  0
    3.0450    1.2660   19.6910 C   0  0  0  0  0  0  0  0  0  0  0  0
    5.4980   -0.5510   19.2650 C   0  0  0  0  0  0  0  0  0  0  0  0
    4.9730   -1.6420   19.4280 O   0  0  0  0  0  0  0  0  0  0  0  0
  1  2  2  0
  2  3  1  0
  3  4  1  0
  4  5  2  0
  5  6  1  0
  6  7  2  0
  7  8  1  0
  4  9  1  0
  8  9  2  0
  2 10  1  0
 11 10  1  1
 11 12  1  0
 12 13  1  0
 13 14  1  0
 14 15  1  0
 15 16  2  0
 16 17  1  0
 17 18  2  0
 18 19  1  0
 19 20  1  0
 20 21  1  0
 21 22  1  0
 21 23  1  0
 21 24  1  0
 15 25  1  0
 19 25  2  0
 11 26  1  0
 14 26  1  0
 26 27  2  0
M  END
