pyridine_urea_2970
     RDKit          3D

 21 22  0  0  0  0  0  0  0  0999 V2000
   14.7360   -5.2120   20.5700 C   0  0  0  0  0  0  0  0  0  0  0  0
   13.8910   -3.9780   20.2390 C   0  0  0  0  0  0  0  0  0  0  0  0
   13.1850   -3.1220   21.3630 C   0  0  0  0  0  0  0  0  0  0  0  0
   11.9650   -2.5910   21.0600 C   0  0  0  0  0  0  0  0  0  0  0  0
   11.4600   -1.6220   21.9040 N   0  0  0  0  0  0  0  0  0  0  0  0
   10.4580   -1.0280   22.2940 N   0  0  0  0  0  0  0  0  0  0  0  0
   11.2320   -0.0820   23.3520 C   0  0  0  0  0  0  0  0  0  0  0  0
   10.1930   -0.2140   23.0290 C   0  0  0  0  0  0  0  0  0  0  0  0
    9.2480   -0.8180   22.2550 N   0  0  0  0  0  0  0  0  0  0  0  0
    8.4340    0.0120   21.3770 C   0  0  0  0  0  0  0  0  0  0  0  0
    8.7490    1.1760   21.0830 O   0  0  0  0  0  0  0  0  0  0  0  0
    7.2890   -0.6140   20.9340 N   0  0  0  0  0  0  0  0  0  0  0  0
    6.4540    0.0480   20.0310 C   0  0  0  0  0  0  0  0  0  0  0  0
    5.1440    0.7310   20.3980 C   0  0  0  0  0  0  0  0  0  0  0  0
    4.4600    1.4010   19.2180 C   0  0  0  0  0  0  0  0  0  0  0  0
    5.1580    1.3000   17.8810 C   0  0  0  0  0  0  0  0  0  0  0  0
    6.3150    0.6510   17.7070 N   0  0  0  0  0  0  0  0  0  0  0  0
    6.8940    0.0760   18.7230 C   0  0  0  0  0  0  0  0  0  0  0  0
   11.6600   -0.8060   22.7220 C   0  0  0  0  0  0  0  0  0  0  0  0
   12.8510   -0.4470   23.2810 C   0  0  0  0  0  0  0  0  0  0  0  0
   12.5660   -0.1630   24.5770 C   0  0  0  0  0  0  0  0  0  0  0  0
  1  2  1  0
  2  3  1  0
  3  4  1  0
  4  5  1  0
  5  6  1  0
  6  7  2  0
  7  8  1  0
  8  9  1  0
  9 10  1  0
 10 11  2  0
 10 12  1  0
 12 13  1  0
 13 14  2  0
 14 15  1  0
 15 16  2  0
 16 17  1  0
 13 18  1  0
 17 18  2  0
  5 19  1  0
  8 19  2  0
 19 20  1  0
 20 21  1  0
M  END
