pyridine_urea_6041
     RDKit          3D

 25 27  0  0  0  0  0  0  0  0999 V2000
    9.5450   -2.6030   23.2180 C   0  0  0  0  0  0  0  0  0  0  0  0
    9.7240   -1.1330   23.0020 C   0  0  1  0  0  0  0  0  0  0  0  0
   10.5030   -0.7100   21.9370 C   0  0  0  0  0  0  0  0  0  0  0  0
   11.6950   -1.5690   21.8640 N   0  0  0  0  0  0  0  0  0  0  0  0
   12.1330   -2.1710   20.6690 N   0  0  0  0  0  0  0  0  0  0  0  0
   13.3630   -2.9560   21.0880 C   0  0  0  0  0  0  0  0  0  0  0  0
   14.1570   -3.7960   20.1920 C   0  0  0  0  0  0  0  0  0  0  0  0
   14.8110   -3.1420   19.4940 F   0  0  0  0  0  0  0  0  0  0  0  0
   14.9750   -4.7450   20.7510 F   0  0  0  0  0  0  0  0  0  0  0  0
   13.5540   -4.4530   19.2970 F   0  0  0  0  0  0  0  0  0  0  0  0
   13.5280   -2.7530   22.4310 C   0  0  0  0  0  0  0  0  0  0  0  0
   12.4930   -1.9050   22.8330 C   0  0  0  0  0  0  0  0  0  0  0  0
   12.0970   -1.3240   24.0810 C   0  0  0  0  0  0  0  0  0  0  0  0
   11.6650   -2.0500   25.0230 C   0  0  0  0  0  0  0  0  0  0  0  0
   12.9600   -2.0350   25.2630 C   0  0  0  0  0  0  0  0  0  0  0  0
    8.4280   -0.5420   22.7870 N   0  0  0  0  0  0  0  0  0  0  0  0
    8.2090    0.1290   21.6370 C   0  0  0  0  0  0  0  0  0  0  0  0
    8.8520    1.1200   21.2430 O   0  0  0  0  0  0  0  0  0  0  0  0
    7.1350   -0.4710   20.9640 N   0  0  0  0  0  0  0  0  0  0  0  0
    6.3840    0.1630   19.9910 C   0  0  0  0  0  0  0  0  0  0  0  0
    5.2090    0.8570   20.2080 C   0  0  0  0  0  0  0  0  0  0  0  0
    4.5720    1.4640   19.1340 C   0  0  0  0  0  0  0  0  0  0  0  0
    5.1440    1.3510   17.8770 C   0  0  0  0  0  0  0  0  0  0  0  0
    6.2760    0.6720   17.6480 N   0  0  0  0  0  0  0  0  0  0  0  0
    6.8560    0.1030   18.7040 C   0  0  0  0  0  0  0  0  0  0  0  0
  2  1  1  6
  2  3  1  0
  3  4  1  0
  4  5  1  0
  5  6  2  0
  6  7  1  0
  7  8  1  0
  7  9  1  0
  7 10  1  0
  6 11  1  0
  4 12  1  0
 11 12  2  0
 12 13  1  0
 13 14  1  0
 13 15  1  0
 14 15  1  0
  2 16  1  0
 16 17  1  0
 17 18  2  0
 17 19  1  0
 19 20  1  0
 20 21  2  0
 21 22  1  0
 22 23  2  0
 23 24  1  0
 20 25  1  0
 24 25  2  0
M  END
