pyridine_urea_518
     RDKit          3D

 25 27  0  0  0  0  0  0  0  0999 V2000
    8.5290   -1.0970   20.4590 O   0  0  0  0  0  0  0  0  0  0  0  0
    8.0080   -0.3950   21.2470 C   0  0  0  0  0  0  0  0  0  0  0  0
    6.6880   -0.1330   21.2450 N   0  0  0  0  0  0  0  0  0  0  0  0
    6.1000    0.4260   20.1240 C   0  0  0  0  0  0  0  0  0  0  0  0
    4.9250    1.1390   20.1310 C   0  0  0  0  0  0  0  0  0  0  0  0
    4.4500    1.6680   18.9430 C   0  0  0  0  0  0  0  0  0  0  0  0
    5.1780    1.4560   17.7910 C   0  0  0  0  0  0  0  0  0  0  0  0
    6.3220    0.7570   17.7420 N   0  0  0  0  0  0  0  0  0  0  0  0
    6.7550    0.2570   18.9080 C   0  0  0  0  0  0  0  0  0  0  0  0
    8.7100    0.2160   22.2210 N   0  0  0  0  0  0  0  0  0  0  0  0
    9.7840   -0.4830   22.6770 C   0  0  0  0  0  0  0  0  0  0  0  0
   10.6860    0.1000   23.4670 C   0  0  0  0  0  0  0  0  0  0  0  0
   11.7530    0.3460   24.3540 C   0  0  0  0  0  0  0  0  0  0  0  0
   12.6240   -0.5480   24.9720 C   0  0  0  0  0  0  0  0  0  0  0  0
   12.5810   -1.8760   24.8070 C   0  0  0  0  0  0  0  0  0  0  0  0
   13.7330   -2.8930   25.5680 Cl  0  0  0  0  0  0  0  0  0  0  0  0
   11.5310   -2.3460   23.9550 C   0  0  0  0  0  0  0  0  0  0  0  0
   10.7090   -1.3640   23.3790 C   0  0  0  0  0  0  0  0  0  0  0  0
   10.7270   -1.1490   21.8720 C   0  0  0  0  0  0  0  0  0  0  0  0
   11.1290   -1.1500   23.1500 C   0  0  0  0  0  0  0  0  0  0  0  0
   11.8730   -1.3930   24.2280 C   0  0  0  0  0  0  0  0  0  0  0  0
   12.9150   -2.1090   23.8850 C   0  0  0  0  0  0  0  0  0  0  0  0
   13.9550   -2.5790   25.1570 Cl  0  0  0  0  0  0  0  0  0  0  0  0
   12.9580   -2.3610   22.5220 C   0  0  0  0  0  0  0  0  0  0  0  0
   11.9460   -1.9050   21.5880 C   0  0  0  0  0  0  0  0  0  0  0  0
  1  2  2  0
  2  3  1  0
  3  4  1  0
  4  5  2  0
  5  6  1  0
  6  7  2  0
  7  8  1  0
  4  9  1  0
  8  9  2  0
  2 10  1  0
 10 11  1  0
 11 12  1  0
 12 13  2  0
 13 14  1  0
 14 15  2  0
 15 16  1  0
 15 17  1  0
 12 18  1  0
 17 18  2  0
 11 19  1  0
 19 20  2  0
 20 21  1  0
 21 22  2  0
 22 23  1  0
 22 24  1  0
 19 25  1  0
 24 25  2  0
M  END
