pyridine_urea_8545
     RDKit          3D

 21 22  0  0  0  0  0  0  0  0999 V2000
   10.9320    3.6150   23.0070 C   0  0  0  0  0  0  0  0  0  0  0  0
   12.3680    3.8250   22.6360 C   0  0  0  0  0  0  0  0  0  0  0  0
   13.1160    4.7510   23.3680 C   0  0  0  0  0  0  0  0  0  0  0  0
   12.4440    4.5000   21.2570 C   0  0  0  0  0  0  0  0  0  0  0  0
   13.0140    2.5060   22.6170 O   0  0  0  0  0  0  0  0  0  0  0  0
   12.4710    1.2930   23.2010 C   0  0  1  0  0  0  0  0  0  0  0  0
   11.0670    0.7570   22.9310 C   0  0  0  0  0  0  0  0  0  0  0  0
   11.6100   -0.4460   22.6000 C   0  0  2  0  0  0  0  0  0  0  0  0
   11.1480   -1.6650   23.3300 C   0  0  0  0  0  0  0  0  0  0  0  0
    9.7990   -1.9340   23.0940 C   0  0  0  0  0  0  0  0  0  0  0  0
    9.3210   -1.4010   21.7950 N   0  0  0  0  0  0  0  0  0  0  0  0
    8.5010   -0.3200   21.5030 C   0  0  0  0  0  0  0  0  0  0  0  0
    8.8740    0.9920   21.5920 O   0  0  0  0  0  0  0  0  0  0  0  0
    7.2460   -0.7140   21.0640 N   0  0  0  0  0  0  0  0  0  0  0  0
    6.5300   -0.0450   20.0540 C   0  0  0  0  0  0  0  0  0  0  0  0
    5.3730    0.6830   20.3810 C   0  0  0  0  0  0  0  0  0  0  0  0
    4.6770    1.3580   19.3610 C   0  0  0  0  0  0  0  0  0  0  0  0
    5.1810    1.2650   18.0750 C   0  0  0  0  0  0  0  0  0  0  0  0
    6.2740    0.5780   17.7160 N   0  0  0  0  0  0  0  0  0  0  0  0
    6.9040   -0.0500   18.7220 C   0  0  0  0  0  0  0  0  0  0  0  0
   13.0510    0.0480   22.8530 C   0  0  0  0  0  0  0  0  0  0  0  0
  1  2  1  0
  2  3  1  0
  2  4  1  0
  2  5  1  0
  6  5  1  6
  6  7  1  0
  7  8  1  0
  8  9  1  1
  9 10  1  0
 10 11  1  0
 11 12  1  0
 12 13  2  0
 12 14  1  0
 14 15  1  0
 15 16  2  0
 16 17  1  0
 17 18  2  0
 18 19  1  0
 15 20  1  0
 19 20  2  0
  6 21  1  0
  8 21  1  0
M  END
