pyridine_urea_729
     RDKit          3D

 23 24  0  0  0  0  0  0  0  0999 V2000
   12.0250   -2.2330   24.7210 C   0  0  0  0  0  0  0  0  0  0  0  0
   11.0440   -1.5520   24.3900 O   0  0  0  0  0  0  0  0  0  0  0  0
   10.8070   -1.5470   23.0560 C   0  0  2  0  0  0  0  0  0  0  0  0
   11.9310   -1.2100   22.2970 C   0  0  0  0  0  0  0  0  0  0  0  0
    9.5850   -0.6620   22.6550 C   0  0  2  0  0  0  0  0  0  0  0  0
    9.4270    0.6100   23.1590 C   0  0  0  0  0  0  0  0  0  0  0  0
   10.5230    1.3710   23.0350 C   0  0  0  0  0  0  0  0  0  0  0  0
   10.3900    2.9020   22.9750 C   0  0  0  0  0  0  0  0  0  0  0  0
   11.4860    3.6700   22.8370 C   0  0  0  0  0  0  0  0  0  0  0  0
   12.6440    2.9760   22.7560 C   0  0  0  0  0  0  0  0  0  0  0  0
   12.6490    1.5760   22.8210 C   0  0  0  0  0  0  0  0  0  0  0  0
   13.7160    0.7800   22.7400 C   0  0  0  0  0  0  0  0  0  0  0  0
   11.6050    0.5260   22.9770 C   0  0  0  0  0  0  0  0  0  0  0  0
    8.3550   -1.3980   22.5220 N   0  0  0  0  0  0  0  0  0  0  0  0
    7.8370   -1.0100   21.3460 C   0  0  0  0  0  0  0  0  0  0  0  0
    8.5420   -0.7670   20.4430 O   0  0  0  0  0  0  0  0  0  0  0  0
    6.5040   -0.8470   21.2280 N   0  0  0  0  0  0  0  0  0  0  0  0
    6.0670   -0.0900   20.0640 C   0  0  0  0  0  0  0  0  0  0  0  0
    4.9090    0.6670   20.1970 C   0  0  0  0  0  0  0  0  0  0  0  0
    4.4700    1.4150   19.1070 C   0  0  0  0  0  0  0  0  0  0  0  0
    5.1810    1.4010   17.9130 C   0  0  0  0  0  0  0  0  0  0  0  0
    6.3010    0.6810   17.7450 N   0  0  0  0  0  0  0  0  0  0  0  0
    6.7340   -0.0670   18.8420 C   0  0  0  0  0  0  0  0  0  0  0  0
  1  2  1  0
  2  3  1  0
  3  4  1  6
  3  5  1  0
  5  6  1  1
  6  7  1  0
  7  8  2  0
  8  9  1  0
  9 10  2  0
 10 11  1  0
 11 12  1  0
  7 13  1  0
 11 13  2  0
  5 14  1  0
 14 15  1  0
 15 16  2  0
 15 17  1  0
 17 18  1  0
 18 19  2  0
 19 20  1  0
 20 21  2  0
 21 22  1  0
 18 23  1  0
 22 23  2  0
M  END
