pyridine_urea_1224
     RDKit          3D

 21 22  0  0  0  0  0  0  0  0999 V2000
   10.9260   -2.6750   23.5590 C   0  0  0  0  0  0  0  0  0  0  0  0
   11.3670   -1.7670   22.3870 C   0  0  0  0  0  0  0  0  0  0  0  0
   10.2970   -0.6750   22.2130 C   0  0  0  0  0  0  0  0  0  0  0  0
    9.6100   -0.1710   23.3190 C   0  0  1  0  0  0  0  0  0  0  0  0
   10.3940    0.7020   24.0730 C   0  0  0  0  0  0  0  0  0  0  0  0
   11.4930   -0.0510   24.0650 C   0  0  0  0  0  0  0  0  0  0  0  0
   11.6690   -0.9510   25.0690 C   0  0  0  0  0  0  0  0  0  0  0  0
   12.7380   -1.8210   25.0420 C   0  0  0  0  0  0  0  0  0  0  0  0
   13.5910   -1.7600   23.9980 C   0  0  0  0  0  0  0  0  0  0  0  0
   13.4300   -0.8200   22.9800 C   0  0  0  0  0  0  0  0  0  0  0  0
   12.3760    0.0530   23.0190 C   0  0  0  0  0  0  0  0  0  0  0  0
    8.3360    0.3450   22.9760 N   0  0  0  0  0  0  0  0  0  0  0  0
    8.1890    0.6310   21.6470 C   0  0  0  0  0  0  0  0  0  0  0  0
    8.8590    1.5080   21.1060 O   0  0  0  0  0  0  0  0  0  0  0  0
    7.2350   -0.1670   21.0680 N   0  0  0  0  0  0  0  0  0  0  0  0
    6.5040    0.3030   20.0180 C   0  0  0  0  0  0  0  0  0  0  0  0
    5.3030    1.0130   20.3470 C   0  0  0  0  0  0  0  0  0  0  0  0
    4.5950    1.5100   19.2760 C   0  0  0  0  0  0  0  0  0  0  0  0
    5.1310    1.2690   17.8970 C   0  0  0  0  0  0  0  0  0  0  0  0
    6.2410    0.5920   17.6500 N   0  0  0  0  0  0  0  0  0  0  0  0
    6.8970    0.1270   18.7120 C   0  0  0  0  0  0  0  0  0  0  0  0
  1  2  1  0
  2  3  1  0
  4  3  1  6
  4  5  1  0
  5  6  1  0
  6  7  2  0
  7  8  1  0
  8  9  2  0
  9 10  1  0
  6 11  1  0
 10 11  2  0
  4 12  1  0
 12 13  1  0
 13 14  2  0
 13 15  1  0
 15 16  1  0
 16 17  2  0
 17 18  1  0
 18 19  2  0
 19 20  1  0
 16 21  1  0
 20 21  2  0
M  END
