pyridine_urea_4492
     RDKit          3D

 23 25  0  0  0  0  0  0  0  0999 V2000
    9.0020    1.2760   21.1060 O   0  0  0  0  0  0  0  0  0  0  0  0
    8.5060    0.2700   21.6150 C   0  0  0  0  0  0  0  0  0  0  0  0
    7.5210   -0.5210   21.0350 N   0  0  0  0  0  0  0  0  0  0  0  0
    6.7070    0.0970   20.0240 C   0  0  0  0  0  0  0  0  0  0  0  0
    5.4670    0.8710   20.4700 C   0  0  0  0  0  0  0  0  0  0  0  0
    4.6290    1.5380   19.3780 C   0  0  0  0  0  0  0  0  0  0  0  0
    5.1420    1.3470   17.9560 C   0  0  0  0  0  0  0  0  0  0  0  0
    6.2920    0.5990   17.7190 N   0  0  0  0  0  0  0  0  0  0  0  0
    7.0270    0.0060   18.7000 C   0  0  0  0  0  0  0  0  0  0  0  0
    8.8330   -0.1780   22.8780 N   0  0  0  0  0  0  0  0  0  0  0  0
   10.0550   -0.7730   23.2810 C   0  0  2  0  0  0  0  0  0  0  0  0
   10.8820   -0.0990   24.1610 C   0  0  0  0  0  0  0  0  0  0  0  0
   11.8320   -1.0340   24.5580 C   0  0  0  0  0  0  0  0  0  0  0  0
   12.9300   -0.8800   25.2890 N   0  0  0  0  0  0  0  0  0  0  0  0
   13.5300   -2.0860   25.4030 C   0  0  0  0  0  0  0  0  0  0  0  0
   12.8280   -3.0030   24.7490 N   0  0  0  0  0  0  0  0  0  0  0  0
   11.7670   -2.3760   24.2190 N   0  0  0  0  0  0  0  0  0  0  0  0
   10.8250   -1.4900   22.3480 C   0  0  0  0  0  0  0  0  0  0  0  0
   11.9320   -0.6920   22.5590 C   0  0  0  0  0  0  0  0  0  0  0  0
   12.1650    0.4630   23.4240 C   0  0  0  0  0  0  0  0  0  0  0  0
   13.2550    0.0770   22.6610 C   0  0  0  0  0  0  0  0  0  0  0  0
   13.1430   -1.1220   21.7140 C   0  0  0  0  0  0  0  0  0  0  0  0
   11.9330   -1.8600   21.5800 C   0  0  0  0  0  0  0  0  0  0  0  0
  1  2  2  0
  2  3  1  0
  3  4  1  0
  4  5  2  0
  5  6  1  0
  6  7  2  0
  7  8  1  0
  4  9  1  0
  8  9  2  0
  2 10  1  0
 10 11  1  0
 11 12  1  6
 12 13  1  0
 13 14  2  0
 14 15  1  0
 15 16  2  0
 13 17  1  0
 16 17  1  0
 11 18  1  0
 18 19  2  0
 19 20  1  0
 20 21  2  0
 21 22  1  0
 18 23  1  0
 22 23  2  0
M  END
