pyridine_urea_13421
     RDKit          3D

 20 21  0  0  0  0  0  0  0  0999 V2000
    9.1330   -5.8350   26.0500 C   0  0  0  0  0  0  0  0  0  0  0  0
    8.0910   -4.9600   26.7630 C   0  0  0  0  0  0  0  0  0  0  0  0
    6.7070   -5.5870   26.5470 C   0  0  0  0  0  0  0  0  0  0  0  0
    8.4240   -4.9200   28.2790 C   0  0  0  0  0  0  0  0  0  0  0  0
    8.1060   -3.5160   26.1110 C   0  0  0  0  0  0  0  0  0  0  0  0
    7.3610   -2.4380   26.5630 C   0  0  0  0  0  0  0  0  0  0  0  0
    7.5770   -1.4330   25.8560 O   0  0  0  0  0  0  0  0  0  0  0  0
    8.4850   -1.8020   24.8940 C   0  0  0  0  0  0  0  0  0  0  0  0
    9.0380   -1.0070   23.8840 C   0  0  0  0  0  0  0  0  0  0  0  0
    8.6300   -1.3940   22.5540 N   0  0  0  0  0  0  0  0  0  0  0  0
    8.2740   -0.4430   21.6200 C   0  0  0  0  0  0  0  0  0  0  0  0
    8.9420    0.5660   21.3970 O   0  0  0  0  0  0  0  0  0  0  0  0
    7.0890   -0.7860   21.0130 N   0  0  0  0  0  0  0  0  0  0  0  0
    6.4050   -0.0460   20.0370 C   0  0  0  0  0  0  0  0  0  0  0  0
    5.2140    0.6970   20.2770 C   0  0  0  0  0  0  0  0  0  0  0  0
    4.5330    1.4530   19.2570 C   0  0  0  0  0  0  0  0  0  0  0  0
    5.2370    1.3610   17.9160 C   0  0  0  0  0  0  0  0  0  0  0  0
    6.3670    0.6420   17.7260 N   0  0  0  0  0  0  0  0  0  0  0  0
    6.9420   -0.0550   18.7690 C   0  0  0  0  0  0  0  0  0  0  0  0
    8.8140   -3.1420   25.0690 N   0  0  0  0  0  0  0  0  0  0  0  0
  2  1  1  0
  2  3  1  0
  2  4  1  0
  2  5  1  0
  5  6  2  0
  6  7  1  0
  7  8  1  0
  8  9  1  0
  9 10  1  0
 10 11  1  0
 11 12  2  0
 11 13  1  0
 13 14  1  0
 14 15  2  0
 15 16  1  0
 16 17  2  0
 17 18  1  0
 14 19  1  0
 18 19  2  0
  5 20  1  0
  8 20  2  0
M  END
