pyridine_urea_10505
     RDKit          3D

 22 23  0  0  0  0  0  0  0  0999 V2000
   13.2840    0.5850   22.8730 C   0  0  0  0  0  0  0  0  0  0  0  0
   12.5580   -0.7440   22.8020 C   0  0  0  0  0  0  0  0  0  0  0  0
   13.1590   -1.6540   21.7110 C   0  0  0  0  0  0  0  0  0  0  0  0
   11.1170   -0.3130   22.4820 C   0  0  0  0  0  0  0  0  0  0  0  0
   10.0170   -0.3430   23.5080 C   0  0  2  0  0  0  0  0  0  0  0  0
    8.6300   -0.4080   22.9970 N   0  0  0  0  0  0  0  0  0  0  0  0
    8.3240    0.1680   21.7420 C   0  0  0  0  0  0  0  0  0  0  0  0
    8.9380    1.1400   21.2670 O   0  0  0  0  0  0  0  0  0  0  0  0
    7.2000   -0.5270   21.1160 N   0  0  0  0  0  0  0  0  0  0  0  0
    6.5480    0.0690   20.0660 C   0  0  0  0  0  0  0  0  0  0  0  0
    5.3930    0.8190   20.3180 C   0  0  0  0  0  0  0  0  0  0  0  0
    4.7180    1.4450   19.2920 C   0  0  0  0  0  0  0  0  0  0  0  0
    5.2040    1.3170   18.0140 C   0  0  0  0  0  0  0  0  0  0  0  0
    6.3000    0.6040   17.7120 N   0  0  0  0  0  0  0  0  0  0  0  0
    6.9510   -0.0060   18.7390 C   0  0  0  0  0  0  0  0  0  0  0  0
    9.8270    0.7210   24.5080 C   0  0  0  0  0  0  0  0  0  0  0  0
   11.1310    0.8310   23.8730 C   0  0  0  0  0  0  0  0  0  0  0  0
   11.6020   -0.1070   22.9500 C   0  0  0  0  0  0  0  0  0  0  0  0
   10.4280   -1.0420   22.9360 C   0  0  0  0  0  0  0  0  0  0  0  0
   10.6750   -2.3590   21.8870 Cl  0  0  0  0  0  0  0  0  0  0  0  0
    9.1230   -1.1330   23.5800 C   0  0  0  0  0  0  0  0  0  0  0  0
    8.7040   -0.1920   24.4640 C   0  0  0  0  0  0  0  0  0  0  0  0
  1  2  1  0
  2  3  1  0
  2  4  1  0
  5  4  1  6
  5  6  1  0
  6  7  1  0
  7  8  2  0
  7  9  1  0
  9 10  1  0
 10 11  2  0
 11 12  1  0
 12 13  2  0
 13 14  1  0
 10 15  1  0
 14 15  2  0
  5 16  1  0
 16 17  2  0
 17 18  1  0
 18 19  2  0
 19 20  1  0
 19 21  1  0
 16 22  1  0
 21 22  2  0
M  END
