pyridine_urea_7035
     RDKit          3D

 20 21  0  0  0  0  0  0  0  0999 V2000
   10.0240   -1.9370   24.0320 C   0  0  0  0  0  0  0  0  0  0  0  0
   10.2430   -1.1920   22.7290 C   0  0  2  0  0  0  0  0  0  0  0  0
    9.3250   -1.5880   21.6740 N   0  0  0  0  0  0  0  0  0  0  0  0
    8.4030   -0.4970   21.3850 C   0  0  0  0  0  0  0  0  0  0  0  0
    8.9680    0.8240   21.3920 O   0  0  0  0  0  0  0  0  0  0  0  0
    7.0800   -0.7770   21.1070 N   0  0  0  0  0  0  0  0  0  0  0  0
    6.4030   -0.0440   20.0490 C   0  0  0  0  0  0  0  0  0  0  0  0
    5.2270    0.6640   20.3190 C   0  0  0  0  0  0  0  0  0  0  0  0
    4.6020    1.3780   19.2970 C   0  0  0  0  0  0  0  0  0  0  0  0
    5.1980    1.3840   17.8980 C   0  0  0  0  0  0  0  0  0  0  0  0
    6.3380    0.6700   17.6920 N   0  0  0  0  0  0  0  0  0  0  0  0
    6.9270   -0.0330   18.7510 C   0  0  0  0  0  0  0  0  0  0  0  0
   11.6720   -1.0320   22.2230 C   0  0  0  0  0  0  0  0  0  0  0  0
   12.9770   -1.0510   22.2730 C   0  0  0  0  0  0  0  0  0  0  0  0
   12.7590   -1.4290   23.4350 C   0  0  0  0  0  0  0  0  0  0  0  0
   13.5690   -1.7630   24.4520 F   0  0  0  0  0  0  0  0  0  0  0  0
   11.1750   -1.3780   23.2680 C   0  0  0  0  0  0  0  0  0  0  0  0
   11.3230   -1.7730   24.4200 C   0  0  0  0  0  0  0  0  0  0  0  0
   12.4150   -1.4910   23.5760 C   0  0  0  0  0  0  0  0  0  0  0  0
   12.7050   -1.9180   24.8380 F   0  0  0  0  0  0  0  0  0  0  0  0
  2  1  1  1
  2  3  1  0
  3  4  1  0
  4  5  2  0
  4  6  1  0
  6  7  1  0
  7  8  2  0
  8  9  1  0
  9 10  2  0
 10 11  1  0
  7 12  1  0
 11 12  2  0
  2 13  1  0
 13 14  2  0
 14 15  1  0
 15 16  1  0
 15 17  2  0
 17 18  1  0
 13 19  1  0
 18 19  2  0
 19 20  1  0
M  END
