pyridine_urea_12348
     RDKit          3D

 22 23  0  0  0  0  0  0  0  0999 V2000
    8.8930    1.2000   21.1530 O   0  0  0  0  0  0  0  0  0  0  0  0
    8.4100    0.0910   21.4150 C   0  0  0  0  0  0  0  0  0  0  0  0
    9.0380   -0.8490   22.1740 N   0  0  0  0  0  0  0  0  0  0  0  0
   10.2320   -0.5060   22.9020 C   0  0  0  0  0  0  0  0  0  0  0  0
   10.2550   -1.2600   24.2660 C   0  0  0  0  0  0  0  0  0  0  0  0
    9.6690   -2.5670   24.2000 O   0  0  0  0  0  0  0  0  0  0  0  0
   10.8290   -0.5690   25.3850 O   0  0  0  0  0  0  0  0  0  0  0  0
   12.0880   -0.1830   25.1240 C   0  0  0  0  0  0  0  0  0  0  0  0
   12.5930   -0.6830   23.8500 C   0  0  0  0  0  0  0  0  0  0  0  0
   13.0420    0.2050   22.9290 C   0  0  0  0  0  0  0  0  0  0  0  0
   13.5110   -0.3410   21.6380 C   0  0  0  0  0  0  0  0  0  0  0  0
   13.5120   -1.7600   21.2780 C   0  0  0  0  0  0  0  0  0  0  0  0
   13.0300   -2.6210   22.3510 C   0  0  0  0  0  0  0  0  0  0  0  0
   12.5740   -2.0320   23.6430 C   0  0  0  0  0  0  0  0  0  0  0  0
   12.0220   -3.0810   24.8480 Cl  0  0  0  0  0  0  0  0  0  0  0  0
    7.1970   -0.3930   21.0150 N   0  0  0  0  0  0  0  0  0  0  0  0
    6.4990    0.1850   19.9670 C   0  0  0  0  0  0  0  0  0  0  0  0
    5.2360    0.9700   20.2470 C   0  0  0  0  0  0  0  0  0  0  0  0
    4.5840    1.5520   19.1710 C   0  0  0  0  0  0  0  0  0  0  0  0
    5.1300    1.3760   17.9020 C   0  0  0  0  0  0  0  0  0  0  0  0
    6.2410    0.6710   17.6410 N   0  0  0  0  0  0  0  0  0  0  0  0
    6.8970    0.0950   18.6640 C   0  0  0  0  0  0  0  0  0  0  0  0
  1  2  2  0
  2  3  1  0
  3  4  1  0
  4  5  1  0
  5  6  2  0
  5  7  1  0
  7  8  1  0
  8  9  1  0
  9 10  2  0
 10 11  1  0
 11 12  2  0
 12 13  1  0
  9 14  1  0
 13 14  2  0
 14 15  1  0
  2 16  1  0
 16 17  1  0
 17 18  2  0
 18 19  1  0
 19 20  2  0
 20 21  1  0
 17 22  1  0
 21 22  2  0
M  END
