pyridine_urea_15096
     RDKit          3D

 18 19  0  0  0  0  0  0  0  0999 V2000
    9.0130    1.2230   21.2060 O   0  0  0  0  0  0  0  0  0  0  0  0
    8.4530    0.1710   21.5410 C   0  0  0  0  0  0  0  0  0  0  0  0
    8.9060   -0.6160   22.5680 N   0  0  0  0  0  0  0  0  0  0  0  0
    9.6300   -1.8080   22.2390 C   0  0  0  0  0  0  0  0  0  0  0  0
    9.2490   -2.9650   23.1380 C   0  0  0  0  0  0  0  0  0  0  0  0
    8.7790   -2.6010   24.3780 N   0  0  0  0  0  0  0  0  0  0  0  0
    8.0950   -3.4130   25.2940 C   0  0  0  0  0  0  0  0  0  0  0  0
    7.7670   -2.6370   26.5120 C   0  0  0  0  0  0  0  0  0  0  0  0
    6.7860   -3.2410   28.1880 I   0  0  0  0  0  0  0  0  0  0  0  0
    8.3580   -1.3010   26.1580 C   0  0  0  0  0  0  0  0  0  0  0  0
    8.9510   -1.3090   24.8780 N   0  0  0  0  0  0  0  0  0  0  0  0
    7.3200   -0.3800   20.9970 N   0  0  0  0  0  0  0  0  0  0  0  0
    6.5730    0.1750   19.9640 C   0  0  0  0  0  0  0  0  0  0  0  0
    5.3920    0.8580   20.2620 C   0  0  0  0  0  0  0  0  0  0  0  0
    4.6490    1.4290   19.2290 C   0  0  0  0  0  0  0  0  0  0  0  0
    5.1260    1.3020   17.9420 C   0  0  0  0  0  0  0  0  0  0  0  0
    6.2460    0.6410   17.6350 N   0  0  0  0  0  0  0  0  0  0  0  0
    6.9350    0.1030   18.6510 C   0  0  0  0  0  0  0  0  0  0  0  0
  1  2  2  0
  2  3  1  0
  3  4  1  0
  4  5  1  0
  5  6  1  0
  6  7  1  0
  7  8  2  0
  8  9  1  0
  8 10  1  0
  6 11  1  0
 10 11  2  0
  2 12  1  0
 12 13  1  0
 13 14  2  0
 14 15  1  0
 15 16  2  0
 16 17  1  0
 13 18  1  0
 17 18  2  0
M  END
