pyridine_urea_8268
     RDKit          3D

 23 25  0  0  0  0  0  0  0  0999 V2000
    8.8340    0.8920   21.2960 O   0  0  0  0  0  0  0  0  0  0  0  0
    8.6480   -0.2940   21.5290 C   0  0  0  0  0  0  0  0  0  0  0  0
    7.4660   -0.8960   21.1080 N   0  0  0  0  0  0  0  0  0  0  0  0
    6.6660   -0.1730   20.1070 C   0  0  0  0  0  0  0  0  0  0  0  0
    5.3720    0.6030   20.5360 C   0  0  0  0  0  0  0  0  0  0  0  0
    4.6610    1.2790   19.5440 C   0  0  0  0  0  0  0  0  0  0  0  0
    5.2160    1.1990   18.1150 C   0  0  0  0  0  0  0  0  0  0  0  0
    6.3320    0.5110   17.7930 N   0  0  0  0  0  0  0  0  0  0  0  0
    7.0140   -0.1440   18.7670 C   0  0  0  0  0  0  0  0  0  0  0  0
    9.5480   -1.1300   22.2260 N   0  0  0  0  0  0  0  0  0  0  0  0
   10.6570   -0.3890   22.9080 C   0  0  2  0  0  0  0  0  0  0  0  0
   11.7550   -1.0050   23.5990 C   0  0  0  0  0  0  0  0  0  0  0  0
   11.9860    0.3750   23.1160 C   0  0  0  0  0  0  0  0  0  0  0  0
   11.1350    1.2980   24.0250 C   0  0  0  0  0  0  0  0  0  0  0  0
   12.4470    1.3020   23.4570 C   0  0  0  0  0  0  0  0  0  0  0  0
   12.3250   -0.0290   22.6310 C   0  0  0  0  0  0  0  0  0  0  0  0
   11.0950   -0.9100   22.5590 C   0  0  0  0  0  0  0  0  0  0  0  0
   11.2050   -2.0390   21.7900 O   0  0  0  0  0  0  0  0  0  0  0  0
   12.5870   -2.3350   21.5100 C   0  0  0  0  0  0  0  0  0  0  0  0
   12.7530   -3.2100   20.5090 F   0  0  0  0  0  0  0  0  0  0  0  0
   13.1670   -2.8700   22.6200 F   0  0  0  0  0  0  0  0  0  0  0  0
    9.6830   -0.6510   23.3170 C   0  0  0  0  0  0  0  0  0  0  0  0
    9.9920    0.4600   23.9500 C   0  0  0  0  0  0  0  0  0  0  0  0
  1  2  2  0
  2  3  1  0
  3  4  1  0
  4  5  2  0
  5  6  1  0
  6  7  2  0
  7  8  1  0
  4  9  1  0
  8  9  2  0
  2 10  1  0
 11 10  1  1
 11 12  1  0
 12 13  1  0
 13 14  1  0
 14 15  1  0
 15 16  2  0
 16 17  1  0
 17 18  1  0
 18 19  1  0
 19 20  1  0
 19 21  1  0
 17 22  2  0
 11 23  1  0
 14 23  2  0
 22 23  1  0
M  END
