pyridine_urea_13068
     RDKit          3D

 18 19  0  0  0  0  0  0  0  0999 V2000
   11.5990   -2.1250   21.7430 C   0  0  0  0  0  0  0  0  0  0  0  0
   11.5920   -1.1470   22.8580 C   0  0  1  0  0  0  0  0  0  0  0  0
   12.7260   -0.3290   22.8620 C   0  0  0  0  0  0  0  0  0  0  0  0
   12.5870    0.9590   23.3090 C   0  0  0  0  0  0  0  0  0  0  0  0
   11.4760    1.6400   23.0690 N   0  0  0  0  0  0  0  0  0  0  0  0
   10.3640    0.9720   23.3930 C   0  0  0  0  0  0  0  0  0  0  0  0
    9.3990    1.5450   23.8710 O   0  0  0  0  0  0  0  0  0  0  0  0
   10.3490   -0.5370   23.1410 C   0  0  1  0  0  0  0  0  0  0  0  0
    9.2270   -0.8150   22.3420 N   0  0  0  0  0  0  0  0  0  0  0  0
    8.4990    0.0310   21.4510 C   0  0  0  0  0  0  0  0  0  0  0  0
    8.8790    1.1760   21.1750 O   0  0  0  0  0  0  0  0  0  0  0  0
    7.3760   -0.5940   20.9990 N   0  0  0  0  0  0  0  0  0  0  0  0
    6.5960    0.0600   20.0860 C   0  0  0  0  0  0  0  0  0  0  0  0
    5.4450    0.8070   20.3830 C   0  0  0  0  0  0  0  0  0  0  0  0
    4.7450    1.4330   19.3590 C   0  0  0  0  0  0  0  0  0  0  0  0
    5.2100    1.2980   18.0580 C   0  0  0  0  0  0  0  0  0  0  0  0
    6.3010    0.5860   17.7440 N   0  0  0  0  0  0  0  0  0  0  0  0
    6.9620   -0.0130   18.7560 C   0  0  0  0  0  0  0  0  0  0  0  0
  2  1  1  6
  2  3  1  0
  3  4  1  0
  4  5  1  0
  5  6  1  0
  6  7  2  0
  2  8  1  0
  6  8  1  0
  8  9  1  6
  9 10  1  0
 10 11  2  0
 10 12  1  0
 12 13  1  0
 13 14  2  0
 14 15  1  0
 15 16  2  0
 16 17  1  0
 13 18  1  0
 17 18  2  0
M  END
