pyridine_urea_8106
     RDKit          3D

 23 24  0  0  0  0  0  0  0  0999 V2000
   11.5680    5.0830   22.8510 C   0  0  0  0  0  0  0  0  0  0  0  0
   11.3660    3.5900   23.1610 C   0  0  0  0  0  0  0  0  0  0  0  0
   12.5900    2.8410   22.7670 C   0  0  0  0  0  0  0  0  0  0  0  0
   12.6820    1.5390   22.9190 C   0  0  0  0  0  0  0  0  0  0  0  0
   11.6310    0.6230   23.4890 C   0  0  0  0  0  0  0  0  0  0  0  0
   12.6950   -0.1470   23.1430 C   0  0  0  0  0  0  0  0  0  0  0  0
   12.0390   -1.3830   22.5390 C   0  0  1  0  0  0  0  0  0  0  0  0
   12.8390   -2.5580   23.0250 C   0  0  0  0  0  0  0  0  0  0  0  0
   13.3560   -3.1000   22.0760 O   0  0  0  0  0  0  0  0  0  0  0  0
   10.5450   -1.3140   22.8640 C   0  0  0  0  0  0  0  0  0  0  0  0
    9.6100   -1.2780   21.7120 N   0  0  0  0  0  0  0  0  0  0  0  0
    8.7240   -0.2270   21.4960 C   0  0  0  0  0  0  0  0  0  0  0  0
    9.0540    1.0870   21.6250 O   0  0  0  0  0  0  0  0  0  0  0  0
    7.4300   -0.6500   21.0940 N   0  0  0  0  0  0  0  0  0  0  0  0
    6.6660   -0.0320   20.0780 C   0  0  0  0  0  0  0  0  0  0  0  0
    5.4060    0.7460   20.4340 C   0  0  0  0  0  0  0  0  0  0  0  0
    4.6930    1.3540   19.4030 C   0  0  0  0  0  0  0  0  0  0  0  0
    5.1670    1.2210   18.0990 C   0  0  0  0  0  0  0  0  0  0  0  0
    6.2690    0.5340   17.7630 N   0  0  0  0  0  0  0  0  0  0  0  0
    6.9850   -0.0710   18.7400 C   0  0  0  0  0  0  0  0  0  0  0  0
   10.6170    1.6080   23.7770 C   0  0  0  0  0  0  0  0  0  0  0  0
   10.2110    3.0180   23.7290 C   0  0  0  0  0  0  0  0  0  0  0  0
    9.9260    4.8910   23.5560 Br  0  0  0  0  0  0  0  0  0  0  0  0
  1  2  1  0
  2  3  2  0
  3  4  1  0
  4  5  2  0
  5  6  1  0
  7  6  1  1
  7  8  1  0
  8  9  1  0
  7 10  1  0
 10 11  1  0
 11 12  1  0
 12 13  2  0
 12 14  1  0
 14 15  1  0
 15 16  2  0
 16 17  1  0
 17 18  2  0
 18 19  1  0
 15 20  1  0
 19 20  2  0
  5 21  1  0
  2 22  1  0
 21 22  2  0
 22 23  1  0
M  END
