pyridine_urea_6234
     RDKit          3D

 22 24  0  0  0  0  0  0  0  0999 V2000
    8.7100   -2.6640   23.7700 C   0  0  0  0  0  0  0  0  0  0  0  0
    8.1900   -1.6630   23.3610 C   0  0  2  0  0  0  0  0  0  0  0  0
    9.1120   -0.9760   22.4460 N   0  0  0  0  0  0  0  0  0  0  0  0
    8.5180   -0.0010   21.5510 C   0  0  0  0  0  0  0  0  0  0  0  0
    9.1050    1.2820   21.2710 O   0  0  0  0  0  0  0  0  0  0  0  0
    7.2730   -0.4880   21.0160 N   0  0  0  0  0  0  0  0  0  0  0  0
    6.6250    0.0710   19.9860 C   0  0  0  0  0  0  0  0  0  0  0  0
    5.5170    0.8040   20.3240 C   0  0  0  0  0  0  0  0  0  0  0  0
    4.6620    1.5370   19.2930 C   0  0  0  0  0  0  0  0  0  0  0  0
    5.1020    1.4140   17.8950 C   0  0  0  0  0  0  0  0  0  0  0  0
    6.2220    0.6400   17.6770 N   0  0  0  0  0  0  0  0  0  0  0  0
    6.9750   -0.0190   18.6640 C   0  0  0  0  0  0  0  0  0  0  0  0
    7.8050   -0.5270   24.3880 C   0  0  2  0  0  0  0  0  0  0  0  0
    8.6170   -0.3830   25.4420 N   0  0  0  0  0  0  0  0  0  0  0  0
    7.9800    0.3690   26.3630 N   0  0  0  0  0  0  0  0  0  0  0  0
    6.7180   -0.2710   26.4860 C   0  0  2  0  0  0  0  0  0  0  0  0
    6.6940   -1.3940   27.3350 C   0  0  0  0  0  0  0  0  0  0  0  0
    7.2170   -1.2760   28.5800 O   0  0  0  0  0  0  0  0  0  0  0  0
    6.1700   -2.5730   27.0010 N   0  0  0  0  0  0  0  0  0  0  0  0
    6.0520   -2.8180   25.6860 C   0  0  0  0  0  0  0  0  0  0  0  0
    5.5430   -1.7020   24.8220 C   0  0  0  0  0  0  0  0  0  0  0  0
    6.4980   -0.6160   25.0500 N   0  0  0  0  0  0  0  0  0  0  0  0
  2  1  1  1
  2  3  1  0
  3  4  1  0
  4  5  2  0
  4  6  1  0
  6  7  1  0
  7  8  2  0
  8  9  1  0
  9 10  2  0
 10 11  1  0
  7 12  1  0
 11 12  2  0
  2 13  1  0
 13 14  1  1
 14 15  1  0
 16 15  1  6
 16 17  1  0
 17 18  2  0
 17 19  1  0
 19 20  1  0
 20 21  1  0
 13 22  1  0
 16 22  1  0
 21 22  1  0
M  END
