pyridine_urea_4029
     RDKit          3D

 26 28  0  0  0  0  0  0  0  0999 V2000
    8.8620    1.1750   21.0900 O   0  0  0  0  0  0  0  0  0  0  0  0
    8.2660    0.1490   21.4560 C   0  0  0  0  0  0  0  0  0  0  0  0
    8.5900   -0.5910   22.5400 N   0  0  0  0  0  0  0  0  0  0  0  0
    9.7190   -0.3790   23.3040 C   0  0  0  0  0  0  0  0  0  0  0  0
   10.8860   -0.7980   22.7390 C   0  0  0  0  0  0  0  0  0  0  0  0
   11.4100   -1.9200   23.3150 C   0  0  0  0  0  0  0  0  0  0  0  0
   12.7190   -1.9850   23.0780 N   0  0  0  0  0  0  0  0  0  0  0  0
   13.5090   -0.9000   23.1670 C   0  0  0  0  0  0  0  0  0  0  0  0
   13.8130   -0.2940   21.9540 C   0  0  0  0  0  0  0  0  0  0  0  0
   14.1690   -0.9310   20.6840 N   0  0  0  0  0  0  0  0  0  0  0  0
   14.8030    0.0840   19.5670 C   0  0  0  0  0  0  0  0  0  0  0  0
   14.4760    0.2700   18.2130 C   0  0  0  0  0  0  0  0  0  0  0  0
   14.7770    1.1740   17.4850 C   0  0  0  0  0  0  0  0  0  0  0  0
   15.5270    2.1220   17.7760 C   0  0  0  0  0  0  0  0  0  0  0  0
   15.8360    2.0370   18.8780 C   0  0  0  0  0  0  0  0  0  0  0  0
   16.5080    3.2240   19.4680 Cl  0  0  0  0  0  0  0  0  0  0  0  0
   15.5140    1.0710   19.7150 C   0  0  0  0  0  0  0  0  0  0  0  0
   13.4130   -2.0480   20.6850 C   0  0  0  0  0  0  0  0  0  0  0  0
   13.0030   -2.7030   21.9580 C   0  0  0  0  0  0  0  0  0  0  0  0
    7.1730   -0.4300   20.8770 N   0  0  0  0  0  0  0  0  0  0  0  0
    6.4340    0.1800   19.9590 C   0  0  0  0  0  0  0  0  0  0  0  0
    5.2030    0.7960   20.1790 C   0  0  0  0  0  0  0  0  0  0  0  0
    4.5590    1.4110   19.1120 C   0  0  0  0  0  0  0  0  0  0  0  0
    5.1760    1.3830   17.8680 C   0  0  0  0  0  0  0  0  0  0  0  0
    6.3570    0.7860   17.6390 N   0  0  0  0  0  0  0  0  0  0  0  0
    6.9450    0.2050   18.6830 C   0  0  0  0  0  0  0  0  0  0  0  0
  1  2  2  0
  2  3  1  0
  3  4  1  0
  4  5  1  0
  5  6  1  0
  6  7  1  0
  7  8  1  0
  8  9  1  0
  9 10  1  0
 10 11  1  0
 11 12  2  0
 12 13  1  0
 13 14  2  0
 14 15  1  0
 15 16  1  0
 11 17  1  0
 15 17  2  0
 10 18  1  0
  7 19  1  0
 18 19  1  0
  2 20  1  0
 20 21  1  0
 21 22  2  0
 22 23  1  0
 23 24  2  0
 24 25  1  0
 21 26  1  0
 25 26  2  0
M  END
