pyridine_urea_3405
     RDKit          3D

 25 27  0  0  0  0  0  0  0  0999 V2000
   12.3910    3.0620   22.8210 C   0  0  0  0  0  0  0  0  0  0  0  0
   13.0190    1.7830   22.9250 O   0  0  0  0  0  0  0  0  0  0  0  0
   12.3880    0.7840   23.6100 C   0  0  1  0  0  0  0  0  0  0  0  0
   11.1390    0.9260   24.1620 C   0  0  0  0  0  0  0  0  0  0  0  0
   10.1580    0.5620   23.3020 C   0  0  2  0  0  0  0  0  0  0  0  0
    9.0710    0.0330   23.9270 C   0  0  0  0  0  0  0  0  0  0  0  0
    8.1090   -0.4460   23.0230 N   0  0  0  0  0  0  0  0  0  0  0  0
    8.0300   -0.0450   21.7020 C   0  0  0  0  0  0  0  0  0  0  0  0
    8.7740    0.7790   21.1880 O   0  0  0  0  0  0  0  0  0  0  0  0
    6.9960   -0.6580   21.0330 N   0  0  0  0  0  0  0  0  0  0  0  0
    6.3140    0.0200   20.0190 C   0  0  0  0  0  0  0  0  0  0  0  0
    4.9940    0.7730   20.1770 C   0  0  0  0  0  0  0  0  0  0  0  0
    4.4690    1.4130   19.0590 C   0  0  0  0  0  0  0  0  0  0  0  0
    5.1670    1.3330   17.8670 C   0  0  0  0  0  0  0  0  0  0  0  0
    6.3280    0.6660   17.7050 N   0  0  0  0  0  0  0  0  0  0  0  0
    6.8690    0.0320   18.7590 C   0  0  0  0  0  0  0  0  0  0  0  0
   10.6190   -0.2020   22.2820 N   0  0  0  0  0  0  0  0  0  0  0  0
    9.9210   -1.3780   22.2560 C   0  0  0  0  0  0  0  0  0  0  0  0
   11.0890   -1.8570   22.7090 C   0  0  0  0  0  0  0  0  0  0  0  0
   11.9550   -2.1890   21.7540 C   0  0  0  0  0  0  0  0  0  0  0  0
   13.1690   -2.6670   22.0480 C   0  0  0  0  0  0  0  0  0  0  0  0
   13.6800   -2.8770   23.3420 C   0  0  0  0  0  0  0  0  0  0  0  0
   12.6400   -2.4810   24.4010 C   0  0  0  0  0  0  0  0  0  0  0  0
   11.4030   -1.9940   24.0510 C   0  0  0  0  0  0  0  0  0  0  0  0
   12.0650   -0.3730   22.6840 C   0  0  0  0  0  0  0  0  0  0  0  0
  1  2  1  0
  3  2  1  6
  3  4  1  0
  4  5  1  0
  5  6  1  1
  6  7  1  0
  7  8  1  0
  8  9  2  0
  8 10  1  0
 10 11  1  0
 11 12  2  0
 12 13  1  0
 13 14  2  0
 14 15  1  0
 11 16  1  0
 15 16  2  0
  5 17  1  0
 17 18  1  0
 18 19  1  0
 19 20  2  0
 20 21  1  0
 21 22  2  0
 22 23  1  0
 19 24  1  0
 23 24  2  0
  3 25  1  0
 17 25  1  0
M  END
