pyridine_urea_3596
     RDKit          3D

 16 16  0  0  0  0  0  0  0  0999 V2000
   12.0610    2.1870   22.8160 C   0  0  0  0  0  0  0  0  0  0  0  0
   13.0180    0.9780   22.8030 C   0  0  0  0  0  0  0  0  0  0  0  0
   12.9010   -0.3690   23.8330 S   0  0  0  0  0  0  0  0  0  0  0  0
   12.7550   -1.5950   22.5270 C   0  0  0  0  0  0  0  0  0  0  0  0
   11.2960   -1.7700   22.1970 C   0  0  0  0  0  0  0  0  0  0  0  0
   10.4430   -0.6730   22.8430 C   0  0  0  0  0  0  0  0  0  0  0  0
    9.0390   -0.7790   22.4990 N   0  0  0  0  0  0  0  0  0  0  0  0
    8.4960    0.0770   21.5640 C   0  0  0  0  0  0  0  0  0  0  0  0
    9.0150    1.1590   21.2590 O   0  0  0  0  0  0  0  0  0  0  0  0
    7.3220   -0.4340   21.0590 N   0  0  0  0  0  0  0  0  0  0  0  0
    6.5860    0.1350   20.0210 C   0  0  0  0  0  0  0  0  0  0  0  0
    5.4240    0.8470   20.3200 C   0  0  0  0  0  0  0  0  0  0  0  0
    4.6880    1.4370   19.2920 C   0  0  0  0  0  0  0  0  0  0  0  0
    5.1530    1.2860   18.0030 C   0  0  0  0  0  0  0  0  0  0  0  0
    6.2570    0.6010   17.6910 N   0  0  0  0  0  0  0  0  0  0  0  0
    6.9480    0.0400   18.7020 C   0  0  0  0  0  0  0  0  0  0  0  0
  1  2  1  0
  2  3  1  0
  3  4  1  0
  4  5  1  0
  5  6  1  0
  6  7  1  0
  7  8  1  0
  8  9  2  0
  8 10  1  0
 10 11  1  0
 11 12  2  0
 12 13  1  0
 13 14  2  0
 14 15  1  0
 11 16  1  0
 15 16  2  0
M  END
