pyridine_urea_6160
     RDKit          3D

 24 24  0  0  0  0  0  0  0  0999 V2000
   13.4700    0.7140   22.8140 C   0  0  0  0  0  0  0  0  0  0  0  0
   12.3780    0.7290   23.1640 C   0  0  0  0  0  0  0  0  0  0  0  0
   11.1760    0.8130   24.0790 C   0  0  0  0  0  0  0  0  0  0  0  0
   12.2160   -0.6740   22.5750 C   0  0  0  0  0  0  0  0  0  0  0  0
   10.8510   -0.8980   22.5140 C   0  0  2  0  0  0  0  0  0  0  0  0
    9.8010   -0.4300   23.5300 C   0  0  0  0  0  0  0  0  0  0  0  0
    8.4660   -0.4830   22.9470 N   0  0  0  0  0  0  0  0  0  0  0  0
    8.1830    0.1150   21.7510 C   0  0  0  0  0  0  0  0  0  0  0  0
    8.7510    1.2700   21.0930 O   0  0  0  0  0  0  0  0  0  0  0  0
    7.0970   -0.5460   21.0650 N   0  0  0  0  0  0  0  0  0  0  0  0
    6.4940    0.0990   19.9270 C   0  0  0  0  0  0  0  0  0  0  0  0
    5.2570    0.9000   20.2090 C   0  0  0  0  0  0  0  0  0  0  0  0
    4.6210    1.5660   19.1890 C   0  0  0  0  0  0  0  0  0  0  0  0
    5.1210    1.4970   17.9050 C   0  0  0  0  0  0  0  0  0  0  0  0
    6.3120    0.7170   17.6150 N   0  0  0  0  0  0  0  0  0  0  0  0
    6.9420    0.0540   18.6340 C   0  0  0  0  0  0  0  0  0  0  0  0
   10.5580   -2.3240   22.2900 C   0  0  0  0  0  0  0  0  0  0  0  0
    9.3280   -2.8630   23.0030 C   0  0  0  0  0  0  0  0  0  0  0  0
    8.2710   -2.4010   22.6050 O   0  0  0  0  0  0  0  0  0  0  0  0
    9.5450   -3.8480   24.0220 O   0  0  0  0  0  0  0  0  0  0  0  0
    8.5920   -4.1910   25.0530 C   0  0  0  0  0  0  0  0  0  0  0  0
    8.9900   -5.2370   25.9090 C   0  0  0  0  0  0  0  0  0  0  0  0
    8.0460   -3.0050   25.8730 C   0  0  0  0  0  0  0  0  0  0  0  0
    7.4860   -5.0450   24.4130 C   0  0  0  0  0  0  0  0  0  0  0  0
  1  2  1  0
  2  3  1  0
  2  4  1  0
  5  4  1  1
  5  6  1  0
  6  7  1  0
  7  8  1  0
  8  9  2  0
  8 10  1  0
 10 11  1  0
 11 12  2  0
 12 13  1  0
 13 14  2  0
 14 15  1  0
 11 16  1  0
 15 16  2  0
  5 17  1  0
 17 18  1  0
 18 19  2  0
 18 20  1  0
 21 20  1  0
 21 22  1  0
 21 23  1  0
 21 24  1  0
M  END
