pyridine_urea_8603
     RDKit          3D

 21 23  0  0  0  0  0  0  0  0999 V2000
    8.5630    1.4200   21.0000 O   0  0  0  0  0  0  0  0  0  0  0  0
    8.3790    0.2520   21.3490 C   0  0  0  0  0  0  0  0  0  0  0  0
    9.2220   -0.4690   22.1160 N   0  0  0  0  0  0  0  0  0  0  0  0
   10.2670    0.1470   22.8300 C   0  0  0  0  0  0  0  0  0  0  0  0
   11.2440   -0.6870   23.3830 C   0  0  0  0  0  0  0  0  0  0  0  0
   12.5590   -0.2500   23.3480 C   0  0  0  0  0  0  0  0  0  0  0  0
   12.9240    0.9640   22.9010 C   0  0  0  0  0  0  0  0  0  0  0  0
   11.4700    0.5690   22.9520 C   0  0  0  0  0  0  0  0  0  0  0  0
   11.2010   -0.7360   23.4720 C   0  0  0  0  0  0  0  0  0  0  0  0
    9.8750   -1.3040   23.6110 N   0  0  0  0  0  0  0  0  0  0  0  0
    9.9750   -2.5650   24.1440 C   0  0  0  0  0  0  0  0  0  0  0  0
   11.5460   -3.1710   24.5240 S   0  0  0  0  0  0  0  0  0  0  0  0
   12.2760   -1.6970   23.9490 C   0  0  0  0  0  0  0  0  0  0  0  0
   13.5550   -1.2250   23.8400 C   0  0  0  0  0  0  0  0  0  0  0  0
    7.2490   -0.4240   20.9650 N   0  0  0  0  0  0  0  0  0  0  0  0
    6.4590    0.1500   20.0510 C   0  0  0  0  0  0  0  0  0  0  0  0
    5.2650    0.8350   20.3140 C   0  0  0  0  0  0  0  0  0  0  0  0
    4.5950    1.3960   19.2310 C   0  0  0  0  0  0  0  0  0  0  0  0
    5.1220    1.2570   17.9600 C   0  0  0  0  0  0  0  0  0  0  0  0
    6.2500    0.5990   17.6650 N   0  0  0  0  0  0  0  0  0  0  0  0
    6.8610    0.0780   18.7300 C   0  0  0  0  0  0  0  0  0  0  0  0
  1  2  2  0
  2  3  1  0
  3  4  1  0
  4  5  1  0
  5  6  1  0
  6  7  2  0
  7  8  1  0
  8  9  2  0
  9 10  1  0
 10 11  2  0
 11 12  1  0
  9 13  1  0
 12 13  1  0
  6 14  1  0
 13 14  2  0
  2 15  1  0
 15 16  1  0
 16 17  2  0
 17 18  1  0
 18 19  2  0
 19 20  1  0
 16 21  1  0
 20 21  2  0
M  END
