pyridine_urea_3530
     RDKit          3D

 17 18  0  0  0  0  0  0  0  0999 V2000
   13.0290    0.6070   23.0920 C   0  0  0  0  0  0  0  0  0  0  0  0
   12.5060   -0.6480   22.4170 C   0  0  0  0  0  0  0  0  0  0  0  0
   13.1730   -1.5830   21.5030 C   0  0  0  0  0  0  0  0  0  0  0  0
   12.3560   -2.5750   21.1320 N   0  0  0  0  0  0  0  0  0  0  0  0
   11.0870   -2.4100   21.7280 N   0  0  0  0  0  0  0  0  0  0  0  0
   11.1470   -1.2260   22.5220 C   0  0  0  0  0  0  0  0  0  0  0  0
   10.0210   -0.6410   23.3380 C   0  0  0  0  0  0  0  0  0  0  0  0
    8.8360   -0.7440   22.6560 N   0  0  0  0  0  0  0  0  0  0  0  0
    8.3960    0.0880   21.6060 C   0  0  0  0  0  0  0  0  0  0  0  0
    8.9700    1.1380   21.2790 O   0  0  0  0  0  0  0  0  0  0  0  0
    7.2520   -0.4400   21.0490 N   0  0  0  0  0  0  0  0  0  0  0  0
    6.5360    0.1420   20.0090 C   0  0  0  0  0  0  0  0  0  0  0  0
    5.3780    0.8700   20.3010 C   0  0  0  0  0  0  0  0  0  0  0  0
    4.6700    1.4680   19.2640 C   0  0  0  0  0  0  0  0  0  0  0  0
    5.1400    1.3170   17.9800 C   0  0  0  0  0  0  0  0  0  0  0  0
    6.2390    0.6160   17.6790 N   0  0  0  0  0  0  0  0  0  0  0  0
    6.9100    0.0450   18.6930 C   0  0  0  0  0  0  0  0  0  0  0  0
  1  2  1  0
  2  3  2  0
  3  4  1  0
  4  5  1  0
  2  6  1  0
  5  6  2  0
  6  7  1  0
  7  8  1  0
  8  9  1  0
  9 10  2  0
  9 11  1  0
 11 12  1  0
 12 13  2  0
 13 14  1  0
 14 15  2  0
 15 16  1  0
 12 17  1  0
 16 17  2  0
M  END
