pyridine_urea_13546
     RDKit          3D

 18 19  0  0  0  0  0  0  0  0999 V2000
    8.9590    0.8290   21.3820 O   0  0  0  0  0  0  0  0  0  0  0  0
    8.5070   -0.2880   21.6010 C   0  0  0  0  0  0  0  0  0  0  0  0
    7.3570   -0.7870   21.0210 N   0  0  0  0  0  0  0  0  0  0  0  0
    6.5400   -0.0830   20.1130 C   0  0  0  0  0  0  0  0  0  0  0  0
    5.2300    0.6410   20.4790 C   0  0  0  0  0  0  0  0  0  0  0  0
    4.5470    1.3470   19.3040 C   0  0  0  0  0  0  0  0  0  0  0  0
    5.2100    1.2600   17.9660 C   0  0  0  0  0  0  0  0  0  0  0  0
    6.3540    0.5920   17.7590 N   0  0  0  0  0  0  0  0  0  0  0  0
    6.9600   -0.0360   18.7900 C   0  0  0  0  0  0  0  0  0  0  0  0
    9.1130   -1.1810   22.4770 N   0  0  0  0  0  0  0  0  0  0  0  0
   10.4480   -0.9280   23.0040 C   0  0  0  0  0  0  0  0  0  0  0  0
   10.7530    0.4290   22.9220 C   0  0  0  0  0  0  0  0  0  0  0  0
    9.7590    1.2530   23.3440 F   0  0  0  0  0  0  0  0  0  0  0  0
   11.6270   -1.4090   22.0660 C   0  0  0  0  0  0  0  0  0  0  0  0
   12.7430   -0.6660   22.4300 C   0  0  0  0  0  0  0  0  0  0  0  0
   12.8560   -0.6560   23.8080 O   0  0  0  0  0  0  0  0  0  0  0  0
   12.1260   -1.6270   24.4520 C   0  0  0  0  0  0  0  0  0  0  0  0
   10.7220   -1.6290   24.1660 C   0  0  0  0  0  0  0  0  0  0  0  0
  1  2  2  0
  2  3  1  0
  3  4  1  0
  4  5  2  0
  5  6  1  0
  6  7  2  0
  7  8  1  0
  4  9  1  0
  8  9  2  0
  2 10  1  0
 11 10  1  0
 11 12  1  0
 12 13  1  0
 11 14  1  0
 14 15  1  0
 15 16  1  0
 16 17  1  0
 11 18  1  0
 17 18  1  0
M  END
