pyridine_urea_13014
     RDKit          3D

 18 19  0  0  0  0  0  0  0  0999 V2000
   12.1130    1.0470   23.6300 C   0  0  0  0  0  0  0  0  0  0  0  0
   13.1830    0.3150   22.8980 C   0  0  0  0  0  0  0  0  0  0  0  0
   12.5480   -0.6230   22.5880 C   0  0  0  0  0  0  0  0  0  0  0  0
   11.4910   -1.2040   22.6080 C   0  0  0  0  0  0  0  0  0  0  0  0
   10.1700   -1.2580   23.0040 C   0  0  1  0  0  0  0  0  0  0  0  0
    9.8120   -0.0620   23.8740 C   0  0  0  0  0  0  0  0  0  0  0  0
    9.2170   -1.3030   21.9620 N   0  0  0  0  0  0  0  0  0  0  0  0
    8.4870   -0.2200   21.5200 C   0  0  0  0  0  0  0  0  0  0  0  0
    8.9440    0.9100   21.4310 O   0  0  0  0  0  0  0  0  0  0  0  0
    7.1310   -0.6040   21.1690 N   0  0  0  0  0  0  0  0  0  0  0  0
    6.5070    0.0080   20.1000 C   0  0  0  0  0  0  0  0  0  0  0  0
    5.3440    0.7420   20.3070 C   0  0  0  0  0  0  0  0  0  0  0  0
    4.6830    1.3840   19.2890 C   0  0  0  0  0  0  0  0  0  0  0  0
    5.2040    1.2930   18.0090 C   0  0  0  0  0  0  0  0  0  0  0  0
    6.3240    0.5910   17.7520 N   0  0  0  0  0  0  0  0  0  0  0  0
    6.9510   -0.0370   18.7860 C   0  0  0  0  0  0  0  0  0  0  0  0
   12.1860   -1.9160   21.9970 O   0  0  0  0  0  0  0  0  0  0  0  0
   13.4450   -0.9700   22.1150 N   0  0  0  0  0  0  0  0  0  0  0  0
  1  2  1  0
  2  3  1  0
  3  4  2  0
  4  5  1  0
  5  6  1  6
  5  7  1  0
  7  8  1  0
  8  9  2  0
  8 10  1  0
 10 11  1  0
 11 12  2  0
 12 13  1  0
 13 14  2  0
 14 15  1  0
 11 16  1  0
 15 16  2  0
  4 17  1  0
  2 18  2  0
 17 18  1  0
M  END
