pyridine_urea_5305
     RDKit          3D

 19 19  0  0  0  0  0  0  0  0999 V2000
   13.0410   -2.1850   21.1630 C   0  0  0  0  0  0  0  0  0  0  0  0
   12.5050   -1.4100   22.2010 O   0  0  0  0  0  0  0  0  0  0  0  0
   11.1490   -1.4330   22.2810 C   0  0  0  0  0  0  0  0  0  0  0  0
   10.5270   -2.4490   22.0110 O   0  0  0  0  0  0  0  0  0  0  0  0
   10.4910   -0.2950   22.6920 C   0  0  1  0  0  0  0  0  0  0  0  0
    9.0470   -0.4950   22.6050 N   0  0  0  0  0  0  0  0  0  0  0  0
    8.4110    0.1800   21.5780 C   0  0  0  0  0  0  0  0  0  0  0  0
    8.8250    1.2790   21.1820 O   0  0  0  0  0  0  0  0  0  0  0  0
    7.2400   -0.5500   21.0750 N   0  0  0  0  0  0  0  0  0  0  0  0
    6.5350    0.0600   20.0710 C   0  0  0  0  0  0  0  0  0  0  0  0
    5.2670    0.8310   20.3950 C   0  0  0  0  0  0  0  0  0  0  0  0
    4.6160    1.4370   19.3530 C   0  0  0  0  0  0  0  0  0  0  0  0
    5.1870    1.3070   17.9560 C   0  0  0  0  0  0  0  0  0  0  0  0
    6.3060    0.6110   17.6930 N   0  0  0  0  0  0  0  0  0  0  0  0
    6.9420    0.0110   18.7400 C   0  0  0  0  0  0  0  0  0  0  0  0
   10.8900    0.0700   23.9710 C   0  0  0  0  0  0  0  0  0  0  0  0
   10.6850    1.1550   23.1120 C   0  0  0  0  0  0  0  0  0  0  0  0
    9.9740   -0.0880   25.0130 C   0  0  0  0  0  0  0  0  0  0  0  0
   12.1810    0.2000   24.4020 C   0  0  0  0  0  0  0  0  0  0  0  0
  1  2  1  0
  2  3  1  0
  3  4  2  0
  3  5  1  0
  5  6  1  1
  6  7  1  0
  7  8  2  0
  7  9  1  0
  9 10  1  0
 10 11  2  0
 11 12  1  0
 12 13  2  0
 13 14  1  0
 10 15  1  0
 14 15  2  0
  5 16  1  0
 16 17  1  0
 16 18  1  0
 16 19  1  0
M  END
