pyridine_urea_7873
     RDKit          3D

 25 26  0  0  0  0  0  0  0  0999 V2000
    8.4650    1.1990   21.0580 O   0  0  0  0  0  0  0  0  0  0  0  0
    7.8230    0.2340   21.5110 C   0  0  0  0  0  0  0  0  0  0  0  0
    6.7810   -0.4010   20.9420 N   0  0  0  0  0  0  0  0  0  0  0  0
    6.2180    0.2080   19.8640 C   0  0  0  0  0  0  0  0  0  0  0  0
    5.0180    0.8810   20.0300 C   0  0  0  0  0  0  0  0  0  0  0  0
    4.4590    1.5300   18.9410 C   0  0  0  0  0  0  0  0  0  0  0  0
    5.1370    1.4670   17.7440 C   0  0  0  0  0  0  0  0  0  0  0  0
    6.2900    0.8090   17.5750 N   0  0  0  0  0  0  0  0  0  0  0  0
    6.8050    0.1930   18.6370 C   0  0  0  0  0  0  0  0  0  0  0  0
    8.1170   -0.3250   22.6890 N   0  0  0  0  0  0  0  0  0  0  0  0
    9.5280   -0.3550   22.8030 C   0  0  0  0  0  0  0  0  0  0  0  0
   10.0130    0.3260   24.0590 C   0  0  0  0  0  0  0  0  0  0  0  0
   11.3780    0.4050   24.0080 C   0  0  0  0  0  0  0  0  0  0  0  0
   11.8050   -0.3040   22.9360 N   0  0  0  0  0  0  0  0  0  0  0  0
   13.3560   -0.0880   22.5970 S   0  0  0  0  0  0  0  0  0  0  0  0
   13.6580   -0.8070   21.3810 O   0  0  0  0  0  0  0  0  0  0  0  0
   13.6490    1.2880   22.8510 O   0  0  0  0  0  0  0  0  0  0  0  0
   13.7510   -1.0610   23.8540 N   0  0  0  0  0  0  0  0  0  0  0  0
   12.8490   -1.4820   24.9130 C   0  0  0  0  0  0  0  0  0  0  0  0
   13.0160   -2.8290   24.7960 C   0  0  0  0  0  0  0  0  0  0  0  0
   13.7710   -3.4560   25.7000 F   0  0  0  0  0  0  0  0  0  0  0  0
   13.6090   -3.0960   23.6090 F   0  0  0  0  0  0  0  0  0  0  0  0
   11.8250   -3.4750   24.7600 F   0  0  0  0  0  0  0  0  0  0  0  0
   11.3890   -1.5730   22.9430 C   0  0  0  0  0  0  0  0  0  0  0  0
   10.1170   -1.7480   22.5620 C   0  0  0  0  0  0  0  0  0  0  0  0
  1  2  2  0
  2  3  1  0
  3  4  1  0
  4  5  2  0
  5  6  1  0
  6  7  2  0
  7  8  1  0
  4  9  1  0
  8  9  2  0
  2 10  1  0
 10 11  1  0
 11 12  1  0
 12 13  1  0
 13 14  1  0
 14 15  1  0
 15 16  2  0
 15 17  2  0
 15 18  1  0
 18 19  1  0
 19 20  1  0
 20 21  1  0
 20 22  1  0
 20 23  1  0
 14 24  1  0
 11 25  1  0
 24 25  1  0
M  END
