pyridine_urea_5130
     RDKit          3D

 20 22  0  0  0  0  0  0  0  0999 V2000
   13.1690   -1.3320   25.4700 C   0  0  0  0  0  0  0  0  0  0  0  0
   11.9890   -0.8590   25.0710 N   0  0  0  0  0  0  0  0  0  0  0  0
   10.8590   -0.6080   25.8470 N   0  0  0  0  0  0  0  0  0  0  0  0
    9.9420   -0.2210   24.9930 C   0  0  0  0  0  0  0  0  0  0  0  0
   10.5080   -0.2410   23.7910 C   0  0  0  0  0  0  0  0  0  0  0  0
   11.7550   -0.5860   23.8360 C   0  0  0  0  0  0  0  0  0  0  0  0
   12.6200   -0.6940   22.8270 C   0  0  0  0  0  0  0  0  0  0  0  0
   11.8600   -1.5330   21.8630 C   0  0  0  0  0  0  0  0  0  0  0  0
   10.4830   -1.1640   21.7520 C   0  0  0  0  0  0  0  0  0  0  0  0
    9.9760   -0.0010   22.6280 C   0  0  1  0  0  0  0  0  0  0  0  0
    8.6550    0.0410   22.5980 N   0  0  0  0  0  0  0  0  0  0  0  0
    8.1830    0.4500   21.4320 C   0  0  0  0  0  0  0  0  0  0  0  0
    8.6310    1.4690   20.9080 O   0  0  0  0  0  0  0  0  0  0  0  0
    7.2200   -0.3740   20.9860 N   0  0  0  0  0  0  0  0  0  0  0  0
    6.4620    0.2010   20.0480 C   0  0  0  0  0  0  0  0  0  0  0  0
    5.2790    0.9000   20.2690 C   0  0  0  0  0  0  0  0  0  0  0  0
    4.6240    1.4580   19.1910 C   0  0  0  0  0  0  0  0  0  0  0  0
    5.1200    1.3330   17.9150 C   0  0  0  0  0  0  0  0  0  0  0  0
    6.2490    0.6580   17.6540 N   0  0  0  0  0  0  0  0  0  0  0  0
    6.8870    0.1120   18.7260 C   0  0  0  0  0  0  0  0  0  0  0  0
  1  2  1  0
  2  3  1  0
  3  4  2  0
  4  5  1  0
  2  6  1  0
  5  6  2  0
  6  7  1  0
  7  8  1  0
  8  9  1  0
  5 10  1  0
  9 10  1  0
 10 11  1  1
 11 12  1  0
 12 13  2  0
 12 14  1  0
 14 15  1  0
 15 16  2  0
 16 17  1  0
 17 18  2  0
 18 19  1  0
 15 20  1  0
 19 20  2  0
M  END
