pyridine_urea_12484
     RDKit          3D

 22 23  0  0  0  0  0  0  0  0999 V2000
   11.5840   -2.1290   21.8510 C   0  0  0  0  0  0  0  0  0  0  0  0
   13.0220   -1.8060   22.2070 C   0  0  0  0  0  0  0  0  0  0  0  0
   13.1190   -0.2780   22.4830 C   0  0  0  0  0  0  0  0  0  0  0  0
   13.5290   -2.4290   23.5070 C   0  0  0  0  0  0  0  0  0  0  0  0
   12.5330   -2.9460   24.5100 C   0  0  0  0  0  0  0  0  0  0  0  0
   12.0680   -2.1550   25.2560 O   0  0  0  0  0  0  0  0  0  0  0  0
   11.5360   -1.1910   24.4910 C   0  0  0  0  0  0  0  0  0  0  0  0
   12.3480    0.0750   24.4520 C   0  0  0  0  0  0  0  0  0  0  0  0
   11.8810    1.2810   23.6660 C   0  0  0  0  0  0  0  0  0  0  0  0
   10.5600    1.0310   22.9650 C   0  0  0  0  0  0  0  0  0  0  0  0
    9.8770   -0.3230   23.1010 C   0  0  0  0  0  0  0  0  0  0  0  0
    8.6390   -0.5920   22.4530 N   0  0  0  0  0  0  0  0  0  0  0  0
    8.2500    0.1810   21.4250 C   0  0  0  0  0  0  0  0  0  0  0  0
    8.8160    1.2340   21.1060 O   0  0  0  0  0  0  0  0  0  0  0  0
    7.1250   -0.4170   20.8520 N   0  0  0  0  0  0  0  0  0  0  0  0
    6.3790    0.2200   19.9240 C   0  0  0  0  0  0  0  0  0  0  0  0
    5.2030    0.9190   20.1700 C   0  0  0  0  0  0  0  0  0  0  0  0
    4.5750    1.5370   19.0970 C   0  0  0  0  0  0  0  0  0  0  0  0
    5.1460    1.4280   17.8420 C   0  0  0  0  0  0  0  0  0  0  0  0
    6.2720    0.7460   17.5980 N   0  0  0  0  0  0  0  0  0  0  0  0
    6.8570    0.1620   18.6440 C   0  0  0  0  0  0  0  0  0  0  0  0
   10.3700   -1.3480   23.8320 C   0  0  0  0  0  0  0  0  0  0  0  0
  1  2  1  0
  2  3  1  0
  2  4  1  0
  4  5  1  0
  5  6  1  0
  6  7  1  0
  7  8  2  0
  8  9  1  0
  9 10  2  0
 10 11  1  0
 11 12  1  0
 12 13  1  0
 13 14  2  0
 13 15  1  0
 15 16  1  0
 16 17  2  0
 17 18  1  0
 18 19  2  0
 19 20  1  0
 16 21  1  0
 20 21  2  0
  7 22  1  0
 11 22  2  0
M  END
