pyridine_urea_10358
     RDKit          3D

 22 24  0  0  0  0  0  0  0  0999 V2000
   10.0120   -0.8740   21.8130 C   0  0  0  0  0  0  0  0  0  0  0  0
    9.9160    0.2900   22.8220 C   0  0  1  0  0  0  0  0  0  0  0  0
    8.5200    0.2420   23.0660 N   0  0  0  0  0  0  0  0  0  0  0  0
    8.0290    0.5600   21.8190 C   0  0  0  0  0  0  0  0  0  0  0  0
    8.5330    1.4970   21.1830 O   0  0  0  0  0  0  0  0  0  0  0  0
    7.0210   -0.2360   21.3420 N   0  0  0  0  0  0  0  0  0  0  0  0
    6.4380    0.2020   20.1600 C   0  0  0  0  0  0  0  0  0  0  0  0
    5.1900    1.0090   20.2450 C   0  0  0  0  0  0  0  0  0  0  0  0
    4.5780    1.5110   19.1200 C   0  0  0  0  0  0  0  0  0  0  0  0
    5.1120    1.2800   17.8520 C   0  0  0  0  0  0  0  0  0  0  0  0
    6.3140    0.4830   17.7870 N   0  0  0  0  0  0  0  0  0  0  0  0
    6.9190   -0.0180   18.8980 C   0  0  0  0  0  0  0  0  0  0  0  0
   11.0590    0.0860   23.8120 C   0  0  0  0  0  0  0  0  0  0  0  0
   12.2990   -0.6540   23.9910 C   0  0  0  0  0  0  0  0  0  0  0  0
   12.7350   -1.5060   23.0910 C   0  0  0  0  0  0  0  0  0  0  0  0
   13.7140   -2.3830   22.7630 C   0  0  0  0  0  0  0  0  0  0  0  0
   13.3810   -2.9200   21.3590 C   0  0  0  0  0  0  0  0  0  0  0  0
   14.1040   -3.7690   20.5990 F   0  0  0  0  0  0  0  0  0  0  0  0
   12.3050   -2.5620   20.8040 C   0  0  0  0  0  0  0  0  0  0  0  0
   11.4790   -1.7350   21.3350 C   0  0  0  0  0  0  0  0  0  0  0  0
   11.5830   -1.1360   22.4140 C   0  0  0  0  0  0  0  0  0  0  0  0
   10.8760   -0.4190   22.7910 O   0  0  0  0  0  0  0  0  0  0  0  0
  2  1  1  6
  2  3  1  0
  3  4  1  0
  4  5  2  0
  4  6  1  0
  6  7  1  0
  7  8  2  0
  8  9  1  0
  9 10  2  0
 10 11  1  0
  7 12  1  0
 11 12  2  0
  2 13  1  0
 13 14  2  0
 14 15  1  0
 15 16  2  0
 16 17  1  0
 17 18  1  0
 17 19  2  0
 19 20  1  0
 15 21  1  0
 20 21  2  0
 13 22  1  0
 21 22  1  0
M  END
