pyridine_urea_11974
     RDKit          3D

 24 25  0  0  0  0  0  0  0  0999 V2000
   10.8840    2.4880   22.6280 C   0  0  0  0  0  0  0  0  0  0  0  0
   10.8520    1.0670   23.1750 C   0  0  0  0  0  0  0  0  0  0  0  0
   12.0260    0.4930   23.5920 C   0  0  0  0  0  0  0  0  0  0  0  0
   11.9670   -0.7600   24.1050 C   0  0  0  0  0  0  0  0  0  0  0  0
   12.9800   -1.4310   24.5360 C   0  0  0  0  0  0  0  0  0  0  0  0
   13.3470   -1.0220   25.7230 F   0  0  0  0  0  0  0  0  0  0  0  0
   13.8760   -1.0390   23.6470 F   0  0  0  0  0  0  0  0  0  0  0  0
   12.9690   -2.7710   24.3430 C   0  0  0  0  0  0  0  0  0  0  0  0
   11.7250   -3.3110   24.3190 F   0  0  0  0  0  0  0  0  0  0  0  0
   13.5540   -3.0480   23.1600 F   0  0  0  0  0  0  0  0  0  0  0  0
   13.6490   -3.3940   25.3320 F   0  0  0  0  0  0  0  0  0  0  0  0
   10.7430   -1.5400   24.2410 C   0  0  0  0  0  0  0  0  0  0  0  0
    9.4660   -0.9850   23.8000 C   0  0  0  0  0  0  0  0  0  0  0  0
    9.5400    0.2730   23.2830 C   0  0  0  0  0  0  0  0  0  0  0  0
    8.2800    0.7150   22.8720 N   0  0  0  0  0  0  0  0  0  0  0  0
    8.1530    0.7880   21.5430 C   0  0  0  0  0  0  0  0  0  0  0  0
    8.8090    1.5970   20.9150 O   0  0  0  0  0  0  0  0  0  0  0  0
    7.2390   -0.1000   21.0420 N   0  0  0  0  0  0  0  0  0  0  0  0
    6.4650    0.3490   20.0410 C   0  0  0  0  0  0  0  0  0  0  0  0
    5.2800    1.0420   20.2310 C   0  0  0  0  0  0  0  0  0  0  0  0
    4.5790    1.5010   19.1220 C   0  0  0  0  0  0  0  0  0  0  0  0
    5.0960    1.2450   17.8660 C   0  0  0  0  0  0  0  0  0  0  0  0
    6.2190    0.5700   17.6380 N   0  0  0  0  0  0  0  0  0  0  0  0
    6.9000    0.1210   18.7560 C   0  0  0  0  0  0  0  0  0  0  0  0
  1  2  1  0
  2  3  2  0
  3  4  1  0
  4  5  1  0
  5  6  1  0
  5  7  1  0
  5  8  1  0
  8  9  1  0
  8 10  1  0
  8 11  1  0
  4 12  2  0
 12 13  1  0
  2 14  1  0
 13 14  2  0
 14 15  1  0
 15 16  1  0
 16 17  2  0
 16 18  1  0
 18 19  1  0
 19 20  2  0
 20 21  1  0
 21 22  2  0
 22 23  1  0
 19 24  1  0
 23 24  2  0
M  END
