pyridine_urea_10649
     RDKit          3D

 21 23  0  0  0  0  0  0  0  0999 V2000
    8.5650    0.6050   21.1150 O   0  0  0  0  0  0  0  0  0  0  0  0
    8.3330   -0.5240   21.5230 C   0  0  0  0  0  0  0  0  0  0  0  0
    9.2230   -1.2180   22.3420 N   0  0  0  0  0  0  0  0  0  0  0  0
   10.3940   -0.4800   22.5480 C   0  0  0  0  0  0  0  0  0  0  0  0
   11.9110   -0.8390   22.5740 C   0  0  0  0  0  0  0  0  0  0  0  0
   12.8460    0.3800   22.7730 C   0  0  0  0  0  0  0  0  0  0  0  0
   12.1380    1.6990   22.9050 C   0  0  0  0  0  0  0  0  0  0  0  0
   12.4070    3.0690   23.0510 C   0  0  0  0  0  0  0  0  0  0  0  0
   11.5160    4.0150   23.5210 C   0  0  0  0  0  0  0  0  0  0  0  0
   12.1930    5.5640   23.5310 S   0  0  0  0  0  0  0  0  0  0  0  0
   13.6530    4.9690   22.9110 N   0  0  0  0  0  0  0  0  0  0  0  0
   13.6680    3.5970   22.6840 N   0  0  0  0  0  0  0  0  0  0  0  0
   10.7360    1.9990   22.9070 C   0  0  0  0  0  0  0  0  0  0  0  0
    9.8660    0.9700   22.7420 C   0  0  0  0  0  0  0  0  0  0  0  0
    7.1420   -1.0060   21.0790 N   0  0  0  0  0  0  0  0  0  0  0  0
    6.4600   -0.2750   20.0700 C   0  0  0  0  0  0  0  0  0  0  0  0
    5.2480    0.3830   20.3830 C   0  0  0  0  0  0  0  0  0  0  0  0
    4.5070    1.1570   19.4240 C   0  0  0  0  0  0  0  0  0  0  0  0
    5.2100    1.1640   18.0650 C   0  0  0  0  0  0  0  0  0  0  0  0
    6.3540    0.5290   17.8000 N   0  0  0  0  0  0  0  0  0  0  0  0
    6.9450   -0.1650   18.7870 C   0  0  0  0  0  0  0  0  0  0  0  0
  1  2  2  0
  2  3  1  0
  3  4  1  0
  4  5  2  0
  5  6  1  0
  6  7  2  0
  7  8  1  0
  8  9  2  0
  9 10  1  0
 10 11  1  0
  8 12  1  0
 11 12  2  0
  7 13  1  0
  4 14  1  0
 13 14  2  0
  2 15  1  0
 15 16  1  0
 16 17  2  0
 17 18  1  0
 18 19  2  0
 19 20  1  0
 16 21  1  0
 20 21  2  0
M  END
