pyridine_urea_1391
     RDKit          3D

 20 21  0  0  0  0  0  0  0  0999 V2000
   10.4030   -1.7070   22.1830 C   0  0  0  0  0  0  0  0  0  0  0  0
    9.5290   -1.0450   23.3160 C   0  0  2  0  0  0  0  0  0  0  0  0
    8.2230   -0.7150   22.7760 N   0  0  0  0  0  0  0  0  0  0  0  0
    8.0520   -0.1380   21.5300 C   0  0  0  0  0  0  0  0  0  0  0  0
    8.7080    1.0810   21.1070 O   0  0  0  0  0  0  0  0  0  0  0  0
    7.1690   -0.9230   20.8430 N   0  0  0  0  0  0  0  0  0  0  0  0
    6.4660   -0.1240   19.9820 C   0  0  0  0  0  0  0  0  0  0  0  0
    5.3030    0.6080   20.2230 C   0  0  0  0  0  0  0  0  0  0  0  0
    4.6790    1.3830   19.2400 C   0  0  0  0  0  0  0  0  0  0  0  0
    5.2520    1.4130   17.9870 C   0  0  0  0  0  0  0  0  0  0  0  0
    6.3710    0.7270   17.7100 N   0  0  0  0  0  0  0  0  0  0  0  0
    6.9340   -0.0080   18.6930 C   0  0  0  0  0  0  0  0  0  0  0  0
   10.1170    0.2500   23.8250 C   0  0  0  0  0  0  0  0  0  0  0  0
    9.5170    1.1640   24.4920 C   0  0  0  0  0  0  0  0  0  0  0  0
   10.8820    1.2190   24.0740 C   0  0  0  0  0  0  0  0  0  0  0  0
   10.6060   -0.2570   23.4430 C   0  0  0  0  0  0  0  0  0  0  0  0
   10.7340   -1.4390   22.8230 F   0  0  0  0  0  0  0  0  0  0  0  0
   11.8880   -0.3480   22.9580 C   0  0  0  0  0  0  0  0  0  0  0  0
   13.4690    0.4630   22.8080 Br  0  0  0  0  0  0  0  0  0  0  0  0
   11.4240    0.6560   23.6220 C   0  0  0  0  0  0  0  0  0  0  0  0
  2  1  1  6
  2  3  1  0
  3  4  1  0
  4  5  2  0
  4  6  1  0
  6  7  1  0
  7  8  2  0
  8  9  1  0
  9 10  2  0
 10 11  1  0
  7 12  1  0
 11 12  2  0
  2 13  1  0
 13 14  2  0
 14 15  1  0
 15 16  2  0
 16 17  1  0
 16 18  1  0
 18 19  1  0
 13 20  1  0
 18 20  2  0
M  END
