pyridine_urea_1903
     RDKit          3D

 19 21  0  0  0  0  0  0  0  0999 V2000
    9.0080    0.9110   21.3970 O   0  0  0  0  0  0  0  0  0  0  0  0
    8.4570   -0.1630   21.5990 C   0  0  0  0  0  0  0  0  0  0  0  0
    7.2440   -0.5640   21.0840 N   0  0  0  0  0  0  0  0  0  0  0  0
    6.5440    0.0570   20.0430 C   0  0  0  0  0  0  0  0  0  0  0  0
    5.3880    0.7910   20.3350 C   0  0  0  0  0  0  0  0  0  0  0  0
    4.6860    1.4280   19.3090 C   0  0  0  0  0  0  0  0  0  0  0  0
    5.1690    1.3060   18.0230 C   0  0  0  0  0  0  0  0  0  0  0  0
    6.2670    0.6030   17.7150 N   0  0  0  0  0  0  0  0  0  0  0  0
    6.9270   -0.0040   18.7210 C   0  0  0  0  0  0  0  0  0  0  0  0
    8.9970   -1.1410   22.3980 N   0  0  0  0  0  0  0  0  0  0  0  0
   10.3000   -1.0370   23.0680 C   0  0  1  0  0  0  0  0  0  0  0  0
   11.2960   -1.9280   22.4950 C   0  0  0  0  0  0  0  0  0  0  0  0
   12.0560   -0.8410   22.4840 C   0  0  1  0  0  0  0  0  0  0  0  0
   11.1680    0.2700   22.8780 C   0  0  2  0  0  0  0  0  0  0  0  0
   11.3050    0.4890   24.2260 C   0  0  0  0  0  0  0  0  0  0  0  0
   12.2560   -0.4530   24.6310 C   0  0  1  0  0  0  0  0  0  0  0  0
   11.6830   -1.6210   25.0630 O   0  0  0  0  0  0  0  0  0  0  0  0
   12.9410   -0.8760   23.5110 C   0  0  2  0  0  0  0  0  0  0  0  0
   13.8310    0.1530   23.1450 O   0  0  0  0  0  0  0  0  0  0  0  0
  1  2  2  0
  2  3  1  0
  3  4  1  0
  4  5  2  0
  5  6  1  0
  6  7  2  0
  7  8  1  0
  4  9  1  0
  8  9  2  0
  2 10  1  0
 11 10  1  6
 11 12  1  0
 13 12  1  1
 11 14  1  0
 13 14  1  0
 14 15  1  1
 15 16  1  0
 16 17  1  6
 13 18  1  0
 16 18  1  0
 18 19  1  6
M  END
