pyridine_urea_13322
     RDKit          3D

 25 28  0  0  0  0  0  0  0  0999 V2000
    8.8710    0.5790   21.3810 O   0  0  0  0  0  0  0  0  0  0  0  0
    8.2490   -0.4620   21.5480 C   0  0  0  0  0  0  0  0  0  0  0  0
    7.0070   -0.7460   21.0440 N   0  0  0  0  0  0  0  0  0  0  0  0
    6.4020   -0.0430   19.9950 C   0  0  0  0  0  0  0  0  0  0  0  0
    5.2010    0.6400   20.2210 C   0  0  0  0  0  0  0  0  0  0  0  0
    4.6010    1.3520   19.1810 C   0  0  0  0  0  0  0  0  0  0  0  0
    5.2260    1.3550   17.9490 C   0  0  0  0  0  0  0  0  0  0  0  0
    6.3760    0.7020   17.7150 N   0  0  0  0  0  0  0  0  0  0  0  0
    6.9320    0.0240   18.7300 C   0  0  0  0  0  0  0  0  0  0  0  0
    8.7410   -1.5150   22.2910 N   0  0  0  0  0  0  0  0  0  0  0  0
    9.8990   -1.2820   23.1230 C   0  0  2  0  0  0  0  0  0  0  0  0
    9.5640   -0.2970   24.2410 C   0  0  0  0  0  0  0  0  0  0  0  0
   10.5910    0.5160   24.6360 C   0  0  0  0  0  0  0  0  0  0  0  0
   11.3110    1.1740   23.7430 N   0  0  0  0  0  0  0  0  0  0  0  0
   10.6400    2.1940   23.1340 C   0  0  0  0  0  0  0  0  0  0  0  0
   11.2420    3.4610   23.0910 C   0  0  0  0  0  0  0  0  0  0  0  0
   12.5690    3.6330   22.6830 C   0  0  0  0  0  0  0  0  0  0  0  0
   13.1540    4.9070   22.6370 C   0  0  0  0  0  0  0  0  0  0  0  0
   12.4080    6.0220   23.0050 C   0  0  0  0  0  0  0  0  0  0  0  0
   11.0860    5.8850   23.4170 C   0  0  0  0  0  0  0  0  0  0  0  0
   10.5210    4.6100   23.4550 C   0  0  0  0  0  0  0  0  0  0  0  0
   11.9170    0.2190   22.9740 C   0  0  0  0  0  0  0  0  0  0  0  0
   12.8980   -0.3590   23.5960 C   0  0  0  0  0  0  0  0  0  0  0  0
   13.5050    0.1740   22.5850 C   0  0  0  0  0  0  0  0  0  0  0  0
   11.0220   -0.7680   22.2430 C   0  0  0  0  0  0  0  0  0  0  0  0
  1  2  2  0
  2  3  1  0
  3  4  1  0
  4  5  2  0
  5  6  1  0
  6  7  2  0
  7  8  1  0
  4  9  1  0
  8  9  2  0
  2 10  1  0
 11 10  1  6
 11 12  1  0
 12 13  1  0
 13 14  1  0
 14 15  1  0
 15 16  1  0
 16 17  2  0
 17 18  1  0
 18 19  2  0
 19 20  1  0
 16 21  1  0
 20 21  2  0
 22 14  1  0
 22 23  1  0
 22 24  1  0
 23 24  1  0
 11 25  1  0
 22 25  1  0
M  END
