pyridine_urea_10604
     RDKit          3D

 21 23  0  0  0  0  0  0  0  0999 V2000
    8.4330    0.3480   27.4850 O   0  0  0  0  0  0  0  0  0  0  0  0
    8.8950    0.1130   26.3750 C   0  0  0  0  0  0  0  0  0  0  0  0
    8.1150    0.1690   25.0400 C   0  0  0  0  0  0  0  0  0  0  0  0
    8.3180   -0.6980   24.1830 O   0  0  0  0  0  0  0  0  0  0  0  0
    9.6790   -0.6800   23.9940 C   0  0  0  0  0  0  0  0  0  0  0  0
   10.7460   -0.4430   25.0060 C   0  0  0  0  0  0  0  0  0  0  0  0
   12.2260   -0.4490   24.6910 C   0  0  0  0  0  0  0  0  0  0  0  0
   12.6270   -0.7020   23.4000 C   0  0  0  0  0  0  0  0  0  0  0  0
   11.6670   -0.9410   22.4240 C   0  0  0  0  0  0  0  0  0  0  0  0
   10.2640   -0.9390   22.6120 C   0  0  0  0  0  0  0  0  0  0  0  0
    9.3540   -1.1730   21.5360 N   0  0  0  0  0  0  0  0  0  0  0  0
    8.4770   -0.1630   21.2130 C   0  0  0  0  0  0  0  0  0  0  0  0
    8.8820    1.2200   21.1450 O   0  0  0  0  0  0  0  0  0  0  0  0
    7.2150   -0.6210   20.9370 N   0  0  0  0  0  0  0  0  0  0  0  0
    6.4350    0.0480   20.0000 C   0  0  0  0  0  0  0  0  0  0  0  0
    5.2190    0.7360   20.2670 C   0  0  0  0  0  0  0  0  0  0  0  0
    4.4590    1.4360   19.2650 C   0  0  0  0  0  0  0  0  0  0  0  0
    5.1360    1.3400   17.9000 C   0  0  0  0  0  0  0  0  0  0  0  0
    6.2890    0.6680   17.6990 N   0  0  0  0  0  0  0  0  0  0  0  0
    6.9270    0.0300   18.7250 C   0  0  0  0  0  0  0  0  0  0  0  0
   10.2030   -0.2300   26.2520 N   0  0  0  0  0  0  0  0  0  0  0  0
  1  2  2  0
  2  3  1  0
  3  4  1  0
  4  5  1  0
  5  6  2  0
  6  7  1  0
  7  8  2  0
  8  9  1  0
  5 10  1  0
  9 10  2  0
 10 11  1  0
 11 12  1  0
 12 13  2  0
 12 14  1  0
 14 15  1  0
 15 16  2  0
 16 17  1  0
 17 18  2  0
 18 19  1  0
 15 20  1  0
 19 20  2  0
  2 21  1  0
  6 21  1  0
M  END
