pyridine_urea_172
     RDKit          3D

 18 19  0  0  0  0  0  0  0  0999 V2000
   12.3690    2.1440   23.0480 C   0  0  0  0  0  0  0  0  0  0  0  0
   12.5070    0.8000   23.5010 O   0  0  0  0  0  0  0  0  0  0  0  0
   13.0890   -0.1190   22.5660 C   0  0  0  0  0  0  0  0  0  0  0  0
   13.2680   -1.1040   21.8610 O   0  0  0  0  0  0  0  0  0  0  0  0
   11.7850   -0.7440   23.0510 C   0  0  1  0  0  0  0  0  0  0  0  0
   11.6120   -0.5700   24.5500 C   0  0  0  0  0  0  0  0  0  0  0  0
   10.4800    0.0590   24.3990 C   0  0  0  0  0  0  0  0  0  0  0  0
   10.3930    0.0080   22.9040 C   0  0  2  0  0  0  0  0  0  0  0  0
    9.2240   -0.7170   22.3760 N   0  0  0  0  0  0  0  0  0  0  0  0
    8.4380    0.0210   21.5240 C   0  0  0  0  0  0  0  0  0  0  0  0
    8.8530    1.3370   21.1130 O   0  0  0  0  0  0  0  0  0  0  0  0
    7.2100   -0.6420   21.1260 N   0  0  0  0  0  0  0  0  0  0  0  0
    6.5440    0.0050   20.0020 C   0  0  0  0  0  0  0  0  0  0  0  0
    5.3110    0.7900   20.3390 C   0  0  0  0  0  0  0  0  0  0  0  0
    4.6650    1.4380   19.2960 C   0  0  0  0  0  0  0  0  0  0  0  0
    5.1020    1.3980   17.9810 C   0  0  0  0  0  0  0  0  0  0  0  0
    6.2910    0.6220   17.6950 N   0  0  0  0  0  0  0  0  0  0  0  0
    6.9520   -0.0350   18.6960 C   0  0  0  0  0  0  0  0  0  0  0  0
  1  2  1  0
  2  3  1  0
  3  4  2  0
  5  3  1  6
  5  6  1  0
  6  7  1  0
  5  8  1  0
  7  8  1  0
  8  9  1  1
  9 10  1  0
 10 11  2  0
 10 12  1  0
 12 13  1  0
 13 14  2  0
 14 15  1  0
 15 16  2  0
 16 17  1  0
 13 18  1  0
 17 18  2  0
M  END
