pyridine_urea_12951
     RDKit          3D

 19 20  0  0  0  0  0  0  0  0999 V2000
    8.6140    1.3830   20.9560 O   0  0  0  0  0  0  0  0  0  0  0  0
    8.4200    0.2630   21.4320 C   0  0  0  0  0  0  0  0  0  0  0  0
    7.3260   -0.4810   21.0710 N   0  0  0  0  0  0  0  0  0  0  0  0
    6.6340    0.0680   19.9420 C   0  0  0  0  0  0  0  0  0  0  0  0
    5.3560    0.8630   20.2570 C   0  0  0  0  0  0  0  0  0  0  0  0
    4.6310    1.4600   19.2310 C   0  0  0  0  0  0  0  0  0  0  0  0
    5.1030    1.2970   17.9370 C   0  0  0  0  0  0  0  0  0  0  0  0
    6.2380    0.5660   17.6970 N   0  0  0  0  0  0  0  0  0  0  0  0
    7.0160   -0.0570   18.6730 C   0  0  0  0  0  0  0  0  0  0  0  0
    9.2320   -0.3510   22.3350 N   0  0  0  0  0  0  0  0  0  0  0  0
   10.0830   -0.8880   23.2270 C   0  0  1  0  0  0  0  0  0  0  0  0
   10.8400   -1.9130   22.6390 C   0  0  0  0  0  0  0  0  0  0  0  0
   11.6680   -1.4630   21.5750 O   0  0  0  0  0  0  0  0  0  0  0  0
   10.8130   -0.1210   24.1440 C   0  0  1  0  0  0  0  0  0  0  0  0
   11.9960   -0.6310   24.6440 C   0  0  0  0  0  0  0  0  0  0  0  0
   12.9510   -0.7630   23.6440 C   0  0  0  0  0  0  0  0  0  0  0  0
   13.0830    0.3720   22.6900 C   0  0  0  0  0  0  0  0  0  0  0  0
   11.8300    1.0080   22.4650 O   0  0  0  0  0  0  0  0  0  0  0  0
   11.0250    1.1460   23.6210 C   0  0  0  0  0  0  0  0  0  0  0  0
  1  2  2  0
  2  3  1  0
  3  4  1  0
  4  5  2  0
  5  6  1  0
  6  7  2  0
  7  8  1  0
  4  9  1  0
  8  9  2  0
  2 10  1  0
 10 11  1  0
 11 12  1  6
 12 13  1  0
 11 14  1  0
 14 15  1  6
 15 16  1  0
 16 17  1  0
 17 18  1  0
 14 19  1  0
 18 19  1  0
M  END
