pyridine_urea_3365
     RDKit          3D

 19 20  0  0  0  0  0  0  0  0999 V2000
   14.1470   -2.6990   25.5970 C   0  0  0  0  0  0  0  0  0  0  0  0
   13.5070   -1.4890   25.3790 O   0  0  0  0  0  0  0  0  0  0  0  0
   12.4680   -1.5810   24.5560 C   0  0  0  0  0  0  0  0  0  0  0  0
   12.1510   -0.5640   23.6690 C   0  0  0  0  0  0  0  0  0  0  0  0
   10.9900   -0.7490   22.8420 N   0  0  0  0  0  0  0  0  0  0  0  0
   10.3020   -1.9200   23.0110 C   0  0  0  0  0  0  0  0  0  0  0  0
    9.2140   -2.0340   22.2230 C   0  0  0  0  0  0  0  0  0  0  0  0
    9.2160   -1.0930   21.2980 N   0  0  0  0  0  0  0  0  0  0  0  0
    8.3670   -0.0690   21.3500 C   0  0  0  0  0  0  0  0  0  0  0  0
    8.7530    1.0820   21.4990 O   0  0  0  0  0  0  0  0  0  0  0  0
    6.9980   -0.5210   21.1710 N   0  0  0  0  0  0  0  0  0  0  0  0
    6.3950    0.0990   20.0340 C   0  0  0  0  0  0  0  0  0  0  0  0
    5.1190    0.9130   20.2310 C   0  0  0  0  0  0  0  0  0  0  0  0
    4.5570    1.5230   19.1340 C   0  0  0  0  0  0  0  0  0  0  0  0
    5.1580    1.3810   17.9050 C   0  0  0  0  0  0  0  0  0  0  0  0
    6.2770    0.6710   17.6570 N   0  0  0  0  0  0  0  0  0  0  0  0
    6.8440    0.0630   18.7260 C   0  0  0  0  0  0  0  0  0  0  0  0
   10.6990   -2.8770   23.9100 C   0  0  0  0  0  0  0  0  0  0  0  0
   11.7770   -2.7230   24.6740 N   0  0  0  0  0  0  0  0  0  0  0  0
  1  2  1  0
  2  3  1  0
  3  4  2  0
  4  5  1  0
  5  6  2  0
  6  7  1  0
  7  8  1  0
  8  9  1  0
  9 10  2  0
  9 11  1  0
 11 12  1  0
 12 13  2  0
 13 14  1  0
 14 15  2  0
 15 16  1  0
 12 17  1  0
 16 17  2  0
  6 18  1  0
  3 19  1  0
 18 19  2  0
M  END
