pyridine_urea_10086
     RDKit          3D

 24 26  0  0  0  0  0  0  0  0999 V2000
    9.0100    1.1620   21.2560 O   0  0  0  0  0  0  0  0  0  0  0  0
    8.4800    0.0950   21.5930 C   0  0  0  0  0  0  0  0  0  0  0  0
    8.9160   -0.7170   22.6290 N   0  0  0  0  0  0  0  0  0  0  0  0
    8.0890   -1.4440   23.5230 C   0  0  0  0  0  0  0  0  0  0  0  0
    7.0800   -0.8210   24.2650 C   0  0  0  0  0  0  0  0  0  0  0  0
    5.7770   -0.9260   23.7910 N   0  0  0  0  0  0  0  0  0  0  0  0
    4.7170   -1.6890   24.4540 C   0  0  0  0  0  0  0  0  0  0  0  0
    3.7080   -1.0400   25.2560 N   0  0  0  0  0  0  0  0  0  0  0  0
    2.9300   -2.0850   25.6850 N   0  0  0  0  0  0  0  0  0  0  0  0
    3.4040   -3.2810   25.1980 N   0  0  0  0  0  0  0  0  0  0  0  0
    4.4820   -3.0230   24.4580 N   0  0  0  0  0  0  0  0  0  0  0  0
    5.2020   -4.0600   23.8180 C   0  0  0  0  0  0  0  0  0  0  0  0
    4.5710   -4.9610   22.9510 C   0  0  0  0  0  0  0  0  0  0  0  0
    5.3760   -6.0840   22.2590 C   0  0  0  0  0  0  0  0  0  0  0  0
    6.7290   -6.1560   22.5380 C   0  0  0  0  0  0  0  0  0  0  0  0
    7.3060   -5.2390   23.4040 C   0  0  0  0  0  0  0  0  0  0  0  0
    6.5850   -4.2270   24.0240 C   0  0  0  0  0  0  0  0  0  0  0  0
    7.3610   -0.4690   21.0300 N   0  0  0  0  0  0  0  0  0  0  0  0
    6.6140    0.1230   20.0100 C   0  0  0  0  0  0  0  0  0  0  0  0
    5.3890    0.8980   20.3450 C   0  0  0  0  0  0  0  0  0  0  0  0
    4.6820    1.4890   19.2950 C   0  0  0  0  0  0  0  0  0  0  0  0
    5.1560    1.3220   17.9990 C   0  0  0  0  0  0  0  0  0  0  0  0
    6.2520    0.6190   17.6810 N   0  0  0  0  0  0  0  0  0  0  0  0
    6.9480    0.0410   18.6790 C   0  0  0  0  0  0  0  0  0  0  0  0
  1  2  2  0
  2  3  1  0
  3  4  1  0
  4  5  1  0
  5  6  1  0
  6  7  1  0
  7  8  2  0
  8  9  1  0
  9 10  2  0
  7 11  1  0
 10 11  1  0
 11 12  1  0
 12 13  2  0
 13 14  1  0
 14 15  2  0
 15 16  1  0
 12 17  1  0
 16 17  2  0
  2 18  1  0
 18 19  1  0
 19 20  2  0
 20 21  1  0
 21 22  2  0
 22 23  1  0
 19 24  1  0
 23 24  2  0
M  END
