pyridine_urea_3404
     RDKit          3D

 19 20  0  0  0  0  0  0  0  0999 V2000
   12.6670   -2.2270   21.5460 C   0  0  0  0  0  0  0  0  0  0  0  0
   12.8590   -2.3220   22.9100 N   0  0  0  0  0  0  0  0  0  0  0  0
   13.8130   -2.8590   23.7210 C   0  0  0  0  0  0  0  0  0  0  0  0
   13.5110   -2.6660   25.0470 N   0  0  0  0  0  0  0  0  0  0  0  0
   12.3040   -1.9780   25.0620 N   0  0  0  0  0  0  0  0  0  0  0  0
   11.8910   -1.7630   23.8220 C   0  0  0  0  0  0  0  0  0  0  0  0
   10.7630   -1.1420   23.3720 C   0  0  0  0  0  0  0  0  0  0  0  0
    9.7310   -2.0300   23.5490 C   0  0  0  0  0  0  0  0  0  0  0  0
    8.5900   -1.6870   22.6430 C   0  0  0  0  0  0  0  0  0  0  0  0
    8.6050   -0.3850   22.6450 N   0  0  0  0  0  0  0  0  0  0  0  0
    8.2810    0.2790   21.5090 C   0  0  0  0  0  0  0  0  0  0  0  0
    8.8750    1.2950   21.1310 O   0  0  0  0  0  0  0  0  0  0  0  0
    7.2260   -0.3560   20.9200 N   0  0  0  0  0  0  0  0  0  0  0  0
    6.4410    0.2500   19.9600 C   0  0  0  0  0  0  0  0  0  0  0  0
    5.2650    0.9550   20.2090 C   0  0  0  0  0  0  0  0  0  0  0  0
    4.5990    1.5290   19.1450 C   0  0  0  0  0  0  0  0  0  0  0  0
    5.1360    1.3730   17.8760 C   0  0  0  0  0  0  0  0  0  0  0  0
    6.2550    0.6890   17.6210 N   0  0  0  0  0  0  0  0  0  0  0  0
    6.8770    0.1470   18.6680 C   0  0  0  0  0  0  0  0  0  0  0  0
  1  2  1  0
  2  3  1  0
  3  4  2  0
  4  5  1  0
  2  6  1  0
  5  6  2  0
  6  7  1  0
  7  8  1  0
  8  9  1  0
  9 10  1  0
 10 11  1  0
 11 12  2  0
 11 13  1  0
 13 14  1  0
 14 15  2  0
 15 16  1  0
 16 17  2  0
 17 18  1  0
 14 19  1  0
 18 19  2  0
M  END
