pyridine_urea_5906
     RDKit          3D

 29 31  0  0  0  0  0  0  0  0999 V2000
   12.6780   -2.5950   20.5250 O   0  0  0  0  0  0  0  0  0  0  0  0
   13.3580   -3.1000   21.3870 C   0  0  0  0  0  0  0  0  0  0  0  0
   13.4860   -2.6210   22.7890 C   0  0  0  0  0  0  0  0  0  0  0  0
   13.7150   -1.4480   22.8300 O   0  0  0  0  0  0  0  0  0  0  0  0
   12.6350   -0.9390   23.3300 C   0  0  0  0  0  0  0  0  0  0  0  0
   12.2540    0.0550   24.1220 C   0  0  0  0  0  0  0  0  0  0  0  0
   10.8630    0.1930   24.3780 C   0  0  0  0  0  0  0  0  0  0  0  0
    9.6210   -0.6130   23.9360 C   0  0  0  0  0  0  0  0  0  0  0  0
    8.7990   -1.6500   23.2790 C   0  0  0  0  0  0  0  0  0  0  0  0
    7.6580   -1.1870   22.6910 N   0  0  0  0  0  0  0  0  0  0  0  0
    7.5900   -0.3720   21.6090 C   0  0  0  0  0  0  0  0  0  0  0  0
    8.1670    0.6690   21.3670 O   0  0  0  0  0  0  0  0  0  0  0  0
    6.6550   -0.8930   20.6820 N   0  0  0  0  0  0  0  0  0  0  0  0
    6.1100   -0.1000   19.7670 C   0  0  0  0  0  0  0  0  0  0  0  0
    4.9160    0.5730   19.9850 C   0  0  0  0  0  0  0  0  0  0  0  0
    4.4130    1.3950   18.9860 C   0  0  0  0  0  0  0  0  0  0  0  0
    5.1280    1.5070   17.8120 C   0  0  0  0  0  0  0  0  0  0  0  0
    6.2860    0.8690   17.5670 N   0  0  0  0  0  0  0  0  0  0  0  0
    6.7600    0.0560   18.5840 C   0  0  0  0  0  0  0  0  0  0  0  0
   10.2880   -1.5690   23.1390 C   0  0  0  0  0  0  0  0  0  0  0  0
   11.5750   -1.5280   23.0140 C   0  0  0  0  0  0  0  0  0  0  0  0
   14.1520   -4.1940   21.3450 N   0  0  0  0  0  0  0  0  0  0  0  0
   14.7260   -4.7180   20.2150 C   0  0  0  0  0  0  0  0  0  0  0  0
   14.9920   -3.9200   19.3080 C   0  0  0  0  0  0  0  0  0  0  0  0
   15.5320   -4.1050   18.0570 C   0  0  0  0  0  0  0  0  0  0  0  0
   15.7090   -5.3170   17.8020 C   0  0  0  0  0  0  0  0  0  0  0  0
   16.2070   -5.8830   16.3360 Cl  0  0  0  0  0  0  0  0  0  0  0  0
   15.4330   -6.1200   18.7950 C   0  0  0  0  0  0  0  0  0  0  0  0
   14.9860   -5.8840   19.9950 C   0  0  0  0  0  0  0  0  0  0  0  0
  1  2  2  0
  2  3  1  0
  3  4  1  0
  4  5  1  0
  5  6  2  0
  6  7  1  0
  7  8  2  0
  8  9  1  0
  9 10  1  0
 10 11  1  0
 11 12  2  0
 11 13  1  0
 13 14  1  0
 14 15  2  0
 15 16  1  0
 16 17  2  0
 17 18  1  0
 14 19  1  0
 18 19  2  0
  8 20  1  0
  5 21  1  0
 20 21  2  0
  2 22  1  0
 22 23  1  0
 23 24  2  0
 24 25  1  0
 25 26  2  0
 26 27  1  0
 26 28  1  0
 23 29  1  0
 28 29  2  0
M  END
