pyridine_urea_3441
     RDKit          3D

 19 19  0  0  0  0  0  0  0  0999 V2000
   13.1720   -2.1180   21.2220 C   0  0  0  0  0  0  0  0  0  0  0  0
   12.7430   -1.7510   22.6410 C   0  0  0  0  0  0  0  0  0  0  0  0
   13.3670   -2.6350   23.7010 C   0  0  0  0  0  0  0  0  0  0  0  0
   11.2310   -1.9360   22.6240 C   0  0  0  0  0  0  0  0  0  0  0  0
   13.2270   -0.4130   22.8390 O   0  0  0  0  0  0  0  0  0  0  0  0
   12.3280    0.6730   22.8250 C   0  0  0  0  0  0  0  0  0  0  0  0
   11.6760    0.8160   24.1650 C   0  0  0  0  0  0  0  0  0  0  0  0
   10.2110    0.4120   24.1790 C   0  0  0  0  0  0  0  0  0  0  0  0
    9.9810   -0.6840   23.3620 C   0  0  0  0  0  0  0  0  0  0  0  0
    8.7040   -0.6100   22.7050 N   0  0  0  0  0  0  0  0  0  0  0  0
    8.3380    0.0480   21.5710 C   0  0  0  0  0  0  0  0  0  0  0  0
    8.9640    1.0690   21.2320 O   0  0  0  0  0  0  0  0  0  0  0  0
    7.2710   -0.5160   20.9410 N   0  0  0  0  0  0  0  0  0  0  0  0
    6.4770    0.1390   20.0050 C   0  0  0  0  0  0  0  0  0  0  0  0
    5.2950    0.8240   20.2900 C   0  0  0  0  0  0  0  0  0  0  0  0
    4.6030    1.4540   19.2590 C   0  0  0  0  0  0  0  0  0  0  0  0
    5.1810    1.3520   17.8990 C   0  0  0  0  0  0  0  0  0  0  0  0
    6.3100    0.6800   17.6550 N   0  0  0  0  0  0  0  0  0  0  0  0
    6.9140    0.1010   18.6990 C   0  0  0  0  0  0  0  0  0  0  0  0
  1  2  1  0
  2  3  1  0
  2  4  1  0
  2  5  1  0
  5  6  1  0
  6  7  1  0
  7  8  1  0
  8  9  1  0
  9 10  1  0
 10 11  1  0
 11 12  2  0
 11 13  1  0
 13 14  1  0
 14 15  2  0
 15 16  1  0
 16 17  2  0
 17 18  1  0
 14 19  1  0
 18 19  2  0
M  END
