pyridine_urea_14244
     RDKit          3D

 22 24  0  0  0  0  0  0  0  0999 V2000
    8.8280    0.4740   21.3740 O   0  0  0  0  0  0  0  0  0  0  0  0
    8.1910   -0.5690   21.4760 C   0  0  0  0  0  0  0  0  0  0  0  0
    8.7030   -1.7450   22.1610 N   0  0  0  0  0  0  0  0  0  0  0  0
    9.9550   -1.6430   22.7180 C   0  0  0  0  0  0  0  0  0  0  0  0
   10.3040   -0.3450   22.9560 C   0  0  0  0  0  0  0  0  0  0  0  0
   10.9090    0.9320   23.1550 C   0  0  0  0  0  0  0  0  0  0  0  0
   12.1810    1.4810   23.1090 C   0  0  0  0  0  0  0  0  0  0  0  0
   12.2720    2.6830   23.3810 O   0  0  0  0  0  0  0  0  0  0  0  0
   13.0080    3.5980   22.6430 C   0  0  0  0  0  0  0  0  0  0  0  0
   12.9200    4.9790   23.2590 C   0  0  0  0  0  0  0  0  0  0  0  0
   12.0490    5.4160   22.1420 C   0  0  0  0  0  0  0  0  0  0  0  0
   12.0570    4.1680   21.5440 C   0  0  0  0  0  0  0  0  0  0  0  0
   13.2040    0.6830   22.7900 C   0  0  0  0  0  0  0  0  0  0  0  0
   12.8460   -0.5670   22.5590 C   0  0  0  0  0  0  0  0  0  0  0  0
   11.5510   -0.9400   22.6540 N   0  0  0  0  0  0  0  0  0  0  0  0
    6.9330   -0.8030   20.9950 N   0  0  0  0  0  0  0  0  0  0  0  0
    6.3200   -0.0730   20.0380 C   0  0  0  0  0  0  0  0  0  0  0  0
    5.1490    0.6660   20.2020 C   0  0  0  0  0  0  0  0  0  0  0  0
    4.5880    1.4020   19.1430 C   0  0  0  0  0  0  0  0  0  0  0  0
    5.2140    1.3970   17.8980 C   0  0  0  0  0  0  0  0  0  0  0  0
    6.3500    0.6860   17.7060 N   0  0  0  0  0  0  0  0  0  0  0  0
    6.8940   -0.0500   18.7880 C   0  0  0  0  0  0  0  0  0  0  0  0
  1  2  2  0
  2  3  1  0
  3  4  1  0
  4  5  1  0
  5  6  2  0
  6  7  1  0
  7  8  1  0
  8  9  1  0
  9 10  1  0
 10 11  1  0
  9 12  1  0
 11 12  1  0
  7 13  2  0
 13 14  1  0
  5 15  1  0
 14 15  2  0
  2 16  1  0
 16 17  1  0
 17 18  2  0
 18 19  1  0
 19 20  2  0
 20 21  1  0
 17 22  1  0
 21 22  2  0
M  END
