pyridine_urea_13202
     RDKit          3D

 17 18  0  0  0  0  0  0  0  0999 V2000
    3.7360    1.5580   19.9500 C   0  0  0  0  0  0  0  0  0  0  0  0
    5.0030    0.8240   20.2590 C   0  0  0  0  0  0  0  0  0  0  0  0
    4.5570    1.3360   18.9440 N   0  0  0  0  0  0  0  0  0  0  0  0
    5.3220    1.1640   17.8040 C   0  0  0  0  0  0  0  0  0  0  0  0
    6.4130    0.6180   17.6040 N   0  0  0  0  0  0  0  0  0  0  0  0
    6.9290    0.1040   18.7380 C   0  0  0  0  0  0  0  0  0  0  0  0
    6.4730    0.0760   20.0810 C   0  0  0  0  0  0  0  0  0  0  0  0
    7.3190   -0.5420   20.9630 N   0  0  0  0  0  0  0  0  0  0  0  0
    8.4910    0.0510   21.4680 C   0  0  0  0  0  0  0  0  0  0  0  0
    8.8550    1.1850   21.1230 O   0  0  0  0  0  0  0  0  0  0  0  0
    9.1320   -0.7370   22.3090 N   0  0  0  0  0  0  0  0  0  0  0  0
   10.4550   -0.4210   22.5050 C   0  0  0  0  0  0  0  0  0  0  0  0
   11.6550   -1.3360   22.2800 C   0  0  0  0  0  0  0  0  0  0  0  0
   12.9320   -0.8520   22.5140 C   0  0  0  0  0  0  0  0  0  0  0  0
   13.0480    0.4550   22.9430 C   0  0  0  0  0  0  0  0  0  0  0  0
   12.0180    1.2960   23.1560 N   0  0  0  0  0  0  0  0  0  0  0  0
   10.7730    0.8540   22.9420 C   0  0  0  0  0  0  0  0  0  0  0  0
  1  2  1  0
  2  3  2  0
  3  4  1  0
  4  5  2  0
  5  6  1  0
  2  7  1  0
  6  7  2  0
  7  8  1  0
  8  9  1  0
  9 10  2  0
  9 11  1  0
 11 12  1  0
 12 13  2  0
 13 14  1  0
 14 15  2  0
 15 16  1  0
 12 17  1  0
 16 17  2  0
M  END
