pyridine_urea_9845
     RDKit          3D

 25 27  0  0  0  0  0  0  0  0999 V2000
   13.2120    0.4890   22.9130 C   0  0  0  0  0  0  0  0  0  0  0  0
   11.8390    1.1410   23.0500 C   0  0  0  0  0  0  0  0  0  0  0  0
   11.5440    2.5540   23.1920 N   0  0  0  0  0  0  0  0  0  0  0  0
   10.1690    2.7810   23.3170 C   0  0  0  0  0  0  0  0  0  0  0  0
    9.6910    4.2030   23.5070 C   0  0  0  0  0  0  0  0  0  0  0  0
   10.5370    5.2590   22.8330 C   0  0  0  0  0  0  0  0  0  0  0  0
   10.1680    6.7300   22.9430 C   0  0  0  0  0  0  0  0  0  0  0  0
    8.9120    7.0550   23.7670 C   0  0  0  0  0  0  0  0  0  0  0  0
    8.2420    5.9520   24.3290 C   0  0  0  0  0  0  0  0  0  0  0  0
    8.5610    4.5950   24.2400 C   0  0  0  0  0  0  0  0  0  0  0  0
    7.4230    3.3600   25.1310 Br  0  0  0  0  0  0  0  0  0  0  0  0
    9.1130    1.4110   23.2610 S   0  0  0  0  0  0  0  0  0  0  0  0
   10.5540    0.3910   23.0700 C   0  0  0  0  0  0  0  0  0  0  0  0
   10.3590   -0.9780   22.9690 C   0  0  2  0  0  0  0  0  0  0  0  0
   11.3480   -1.6010   22.1970 C   0  0  0  0  0  0  0  0  0  0  0  0
    9.0950   -1.2650   22.2970 N   0  0  0  0  0  0  0  0  0  0  0  0
    8.3660   -0.3720   21.4700 C   0  0  0  0  0  0  0  0  0  0  0  0
    8.7300    0.7350   21.1240 O   0  0  0  0  0  0  0  0  0  0  0  0
    7.1540   -0.8210   21.0540 N   0  0  0  0  0  0  0  0  0  0  0  0
    6.4890   -0.1020   20.1100 C   0  0  0  0  0  0  0  0  0  0  0  0
    5.2490    0.7030   20.3060 C   0  0  0  0  0  0  0  0  0  0  0  0
    4.6880    1.3820   19.2440 C   0  0  0  0  0  0  0  0  0  0  0  0
    5.2720    1.3210   18.0070 C   0  0  0  0  0  0  0  0  0  0  0  0
    6.3970    0.6040   17.7760 N   0  0  0  0  0  0  0  0  0  0  0  0
    6.9700   -0.0820   18.8090 C   0  0  0  0  0  0  0  0  0  0  0  0
  1  2  1  0
  2  3  1  0
  3  4  2  0
  4  5  1  0
  5  6  2  0
  6  7  1  0
  7  8  2  0
  8  9  1  0
  5 10  1  0
  9 10  2  0
 10 11  1  0
  4 12  1  0
  2 13  2  0
 12 13  1  0
 13 14  1  0
 14 15  1  6
 14 16  1  0
 16 17  1  0
 17 18  2  0
 17 19  1  0
 19 20  1  0
 20 21  2  0
 21 22  1  0
 22 23  2  0
 23 24  1  0
 20 25  1  0
 24 25  2  0
M  END
