pyridine_urea_6680
     RDKit          3D

 21 23  0  0  0  0  0  0  0  0999 V2000
    8.8660    0.9810   21.3030 O   0  0  0  0  0  0  0  0  0  0  0  0
    8.4530   -0.1740   21.3780 C   0  0  0  0  0  0  0  0  0  0  0  0
    9.2110   -1.2620   21.7270 N   0  0  0  0  0  0  0  0  0  0  0  0
   10.1160   -1.3020   22.8110 C   0  0  0  0  0  0  0  0  0  0  0  0
   11.6000   -1.1160   22.4840 C   0  0  0  0  0  0  0  0  0  0  0  0
   12.3890   -1.8570   21.5960 C   0  0  0  0  0  0  0  0  0  0  0  0
   12.9460   -0.6810   22.3970 C   0  0  0  0  0  0  0  0  0  0  0  0
   11.5940   -0.4610   23.0980 C   0  0  0  0  0  0  0  0  0  0  0  0
   10.8460    0.2910   24.0480 C   0  0  0  0  0  0  0  0  0  0  0  0
   10.2060   -0.4620   25.0500 C   0  0  0  0  0  0  0  0  0  0  0  0
    9.0140    0.1000   24.9010 C   0  0  0  0  0  0  0  0  0  0  0  0
    9.3540    0.8910   23.8200 C   0  0  0  0  0  0  0  0  0  0  0  0
   12.4050    0.6440   23.7050 C   0  0  0  0  0  0  0  0  0  0  0  0
   12.9530   -0.1730   22.8160 C   0  0  0  0  0  0  0  0  0  0  0  0
    7.1690   -0.5430   21.0770 N   0  0  0  0  0  0  0  0  0  0  0  0
    6.4890    0.0540   20.0500 C   0  0  0  0  0  0  0  0  0  0  0  0
    5.3310    0.7600   20.2960 C   0  0  0  0  0  0  0  0  0  0  0  0
    4.6400    1.3890   19.2730 C   0  0  0  0  0  0  0  0  0  0  0  0
    5.1370    1.2980   17.9860 C   0  0  0  0  0  0  0  0  0  0  0  0
    6.2560    0.6110   17.7060 N   0  0  0  0  0  0  0  0  0  0  0  0
    6.9020    0.0070   18.7320 C   0  0  0  0  0  0  0  0  0  0  0  0
  1  2  2  0
  2  3  1  0
  3  4  1  0
  4  5  1  0
  5  6  2  0
  6  7  1  0
  7  8  2  0
  8  9  1  0
  9 10  1  0
 10 11  1  0
  9 12  1  0
 11 12  1  0
  8 13  1  0
  5 14  1  0
 13 14  2  0
  2 15  1  0
 15 16  1  0
 16 17  2  0
 17 18  1  0
 18 19  2  0
 19 20  1  0
 16 21  1  0
 20 21  2  0
M  END
