pyridine_urea_1814
     RDKit          3D

 17 18  0  0  0  0  0  0  0  0999 V2000
    8.7980    0.8970   21.3130 O   0  0  0  0  0  0  0  0  0  0  0  0
    8.3720   -0.2290   21.5470 C   0  0  0  0  0  0  0  0  0  0  0  0
    7.1910   -0.7280   21.0610 N   0  0  0  0  0  0  0  0  0  0  0  0
    6.4980   -0.0690   20.0380 C   0  0  0  0  0  0  0  0  0  0  0  0
    5.3150    0.6240   20.3280 C   0  0  0  0  0  0  0  0  0  0  0  0
    4.6310    1.2950   19.3080 C   0  0  0  0  0  0  0  0  0  0  0  0
    5.1590    1.2500   18.0350 C   0  0  0  0  0  0  0  0  0  0  0  0
    6.2880    0.5880   17.7360 N   0  0  0  0  0  0  0  0  0  0  0  0
    6.9240   -0.0520   18.7310 C   0  0  0  0  0  0  0  0  0  0  0  0
    9.1000   -1.0890   22.3290 N   0  0  0  0  0  0  0  0  0  0  0  0
   10.4800   -0.6550   22.4950 C   0  0  0  0  0  0  0  0  0  0  0  0
   11.6270   -1.5990   22.1380 C   0  0  0  0  0  0  0  0  0  0  0  0
   12.9100   -1.1140   22.3040 C   0  0  0  0  0  0  0  0  0  0  0  0
   13.1040    0.1890   22.7700 C   0  0  0  0  0  0  0  0  0  0  0  0
   12.0580    1.0300   23.0870 C   0  0  0  0  0  0  0  0  0  0  0  0
   10.7440    0.6110   22.9610 C   0  0  0  0  0  0  0  0  0  0  0  0
    9.6910    1.4280   23.2860 O   0  0  0  0  0  0  0  0  0  0  0  0
  1  2  2  0
  2  3  1  0
  3  4  1  0
  4  5  2  0
  5  6  1  0
  6  7  2  0
  7  8  1  0
  4  9  1  0
  8  9  2  0
  2 10  1  0
 10 11  1  0
 11 12  2  0
 12 13  1  0
 13 14  2  0
 14 15  1  0
 11 16  1  0
 15 16  2  0
 16 17  1  0
M  END
