pyridine_urea_1897
     RDKit          3D

 15 16  0  0  0  0  0  0  0  0999 V2000
    8.8290    1.3120   21.1180 O   0  0  0  0  0  0  0  0  0  0  0  0
    8.4890    0.1630   21.4230 C   0  0  0  0  0  0  0  0  0  0  0  0
    9.2450   -0.6670   22.1930 N   0  0  0  0  0  0  0  0  0  0  0  0
   10.3650   -0.1950   22.8790 C   0  0  0  0  0  0  0  0  0  0  0  0
   11.5310   -0.9430   22.8330 C   0  0  0  0  0  0  0  0  0  0  0  0
   11.8840   -1.4470   23.9920 C   0  0  0  0  0  0  0  0  0  0  0  0
   12.9820   -0.7340   23.8200 C   0  0  0  0  0  0  0  0  0  0  0  0
   12.8640   -0.1650   22.5050 C   0  0  0  0  0  0  0  0  0  0  0  0
    7.3130   -0.4300   21.0280 N   0  0  0  0  0  0  0  0  0  0  0  0
    6.5850    0.1080   20.0280 C   0  0  0  0  0  0  0  0  0  0  0  0
    5.2940    0.8750   20.3490 C   0  0  0  0  0  0  0  0  0  0  0  0
    4.6090    1.4220   19.2850 C   0  0  0  0  0  0  0  0  0  0  0  0
    5.1120    1.2540   17.9990 C   0  0  0  0  0  0  0  0  0  0  0  0
    6.2310    0.5780   17.6980 N   0  0  0  0  0  0  0  0  0  0  0  0
    6.9400    0.0220   18.6970 C   0  0  0  0  0  0  0  0  0  0  0  0
  1  2  2  0
  2  3  1  0
  3  4  1  0
  4  5  1  0
  5  6  1  0
  6  7  1  0
  5  8  1  0
  7  8  1  0
  2  9  1  0
  9 10  1  0
 10 11  2  0
 11 12  1  0
 12 13  2  0
 13 14  1  0
 10 15  1  0
 14 15  2  0
M  END
