pyridine_urea_3847
     RDKit          3D

 22 24  0  0  0  0  0  0  0  0999 V2000
    8.6750    1.2400   21.1760 O   0  0  0  0  0  0  0  0  0  0  0  0
    8.1700    0.1750   21.5730 C   0  0  0  0  0  0  0  0  0  0  0  0
    8.6050   -0.6090   22.5940 N   0  0  0  0  0  0  0  0  0  0  0  0
    9.7980   -1.3040   22.4650 C   0  0  0  0  0  0  0  0  0  0  0  0
   10.9600   -0.5620   22.6160 C   0  0  0  0  0  0  0  0  0  0  0  0
   10.9730    0.8510   22.7320 C   0  0  0  0  0  0  0  0  0  0  0  0
   12.1430    1.5840   22.8230 C   0  0  0  0  0  0  0  0  0  0  0  0
   12.0820    3.4730   22.9040 Br  0  0  0  0  0  0  0  0  0  0  0  0
   13.3150    0.8650   22.8150 C   0  0  0  0  0  0  0  0  0  0  0  0
   13.1770   -0.4590   22.7180 C   0  0  0  0  0  0  0  0  0  0  0  0
   11.6690   -0.0520   22.6920 C   0  0  0  0  0  0  0  0  0  0  0  0
   10.6450   -1.0790   22.5700 C   0  0  0  0  0  0  0  0  0  0  0  0
   10.9250   -2.4750   22.4720 C   0  0  0  0  0  0  0  0  0  0  0  0
   12.2220   -2.6650   22.5160 N   0  0  0  0  0  0  0  0  0  0  0  0
   12.3000   -1.3460   22.6190 C   0  0  0  0  0  0  0  0  0  0  0  0
    7.0590   -0.3800   21.0090 N   0  0  0  0  0  0  0  0  0  0  0  0
    6.4000    0.2050   20.0140 C   0  0  0  0  0  0  0  0  0  0  0  0
    5.2180    0.8630   20.3380 C   0  0  0  0  0  0  0  0  0  0  0  0
    4.5490    1.5150   19.1710 C   0  0  0  0  0  0  0  0  0  0  0  0
    5.1810    1.4100   17.8090 C   0  0  0  0  0  0  0  0  0  0  0  0
    6.3140    0.7370   17.6340 N   0  0  0  0  0  0  0  0  0  0  0  0
    6.8790    0.1670   18.7140 C   0  0  0  0  0  0  0  0  0  0  0  0
  1  2  2  0
  2  3  1  0
  3  4  1  0
  4  5  1  0
  5  6  2  0
  6  7  1  0
  7  8  1  0
  7  9  2  0
  9 10  1  0
 10 11  1  0
 11 12  2  0
 12 13  1  0
 13 14  2  0
  5 15  1  0
 10 15  2  0
 14 15  1  0
  2 16  1  0
 16 17  1  0
 17 18  2  0
 18 19  1  0
 19 20  2  0
 20 21  1  0
 17 22  1  0
 21 22  2  0
M  END
