pyridine_urea_15228
     RDKit          3D

 16 16  0  0  0  0  0  0  0  0999 V2000
   11.9170   -1.7920   21.8500 C   0  0  0  0  0  0  0  0  0  0  0  0
   10.5170   -1.5660   22.4430 C   0  0  2  0  0  0  0  0  0  0  0  0
    9.4530   -1.3460   21.4540 N   0  0  0  0  0  0  0  0  0  0  0  0
    8.6360   -0.2350   21.4030 C   0  0  0  0  0  0  0  0  0  0  0  0
    9.0440    0.9070   21.5470 O   0  0  0  0  0  0  0  0  0  0  0  0
    7.3290   -0.5810   21.1180 N   0  0  0  0  0  0  0  0  0  0  0  0
    6.5880    0.0290   20.0930 C   0  0  0  0  0  0  0  0  0  0  0  0
    5.3060    0.7780   20.4450 C   0  0  0  0  0  0  0  0  0  0  0  0
    4.5240    1.4540   19.3310 C   0  0  0  0  0  0  0  0  0  0  0  0
    5.1630    1.2780   17.9610 C   0  0  0  0  0  0  0  0  0  0  0  0
    6.2970    0.5910   17.7420 N   0  0  0  0  0  0  0  0  0  0  0  0
    6.9600    0.0010   18.7640 C   0  0  0  0  0  0  0  0  0  0  0  0
   10.6340   -0.4720   23.4540 C   0  0  0  0  0  0  0  0  0  0  0  0
    9.5920    0.3730   23.4710 F   0  0  0  0  0  0  0  0  0  0  0  0
   10.7500   -1.0890   24.6480 F   0  0  0  0  0  0  0  0  0  0  0  0
   11.7700    0.2380   23.2410 F   0  0  0  0  0  0  0  0  0  0  0  0
  2  1  1  6
  2  3  1  0
  3  4  1  0
  4  5  2  0
  4  6  1  0
  6  7  1  0
  7  8  2  0
  8  9  1  0
  9 10  2  0
 10 11  1  0
  7 12  1  0
 11 12  2  0
  2 13  1  0
 13 14  1  0
 13 15  1  0
 13 16  1  0
M  END
