pyridine_urea_13344
     RDKit          3D

 16 17  0  0  0  0  0  0  0  0999 V2000
   12.5450    0.6860   23.2690 C   0  0  0  0  0  0  0  0  0  0  0  0
   11.2140    0.1630   22.8060 C   0  0  2  0  0  0  0  0  0  0  0  0
   10.3970   -0.6690   23.3000 C   0  0  1  0  0  0  0  0  0  0  0  0
    9.0700   -0.8050   22.6580 N   0  0  0  0  0  0  0  0  0  0  0  0
    8.5720    0.0240   21.6440 C   0  0  0  0  0  0  0  0  0  0  0  0
    9.0470    1.1250   21.3150 O   0  0  0  0  0  0  0  0  0  0  0  0
    7.3840   -0.6150   21.0470 N   0  0  0  0  0  0  0  0  0  0  0  0
    6.6450    0.0220   20.0700 C   0  0  0  0  0  0  0  0  0  0  0  0
    5.4030    0.8130   20.4600 C   0  0  0  0  0  0  0  0  0  0  0  0
    4.6810    1.4540   19.4610 C   0  0  0  0  0  0  0  0  0  0  0  0
    5.2090    1.3050   18.0310 C   0  0  0  0  0  0  0  0  0  0  0  0
    6.3110    0.5890   17.7290 N   0  0  0  0  0  0  0  0  0  0  0  0
    6.9890   -0.0250   18.7320 C   0  0  0  0  0  0  0  0  0  0  0  0
   11.4260   -1.3990   22.6250 C   0  0  0  0  0  0  0  0  0  0  0  0
   12.3820   -1.9570   23.3840 F   0  0  0  0  0  0  0  0  0  0  0  0
   11.1190   -2.0090   21.4770 F   0  0  0  0  0  0  0  0  0  0  0  0
  2  1  1  1
  2  3  1  0
  3  4  1  6
  4  5  1  0
  5  6  2  0
  5  7  1  0
  7  8  1  0
  8  9  2  0
  9 10  1  0
 10 11  2  0
 11 12  1  0
  8 13  1  0
 12 13  2  0
  2 14  1  0
  3 14  1  0
 14 15  1  0
 14 16  1  0
M  END
