pyridine_urea_4349
     RDKit          3D

 24 26  0  0  0  0  0  0  0  0999 V2000
    9.1120    0.6790   21.4030 O   0  0  0  0  0  0  0  0  0  0  0  0
    8.5880   -0.3810   21.7010 C   0  0  0  0  0  0  0  0  0  0  0  0
    9.0490   -1.2350   22.7180 N   0  0  0  0  0  0  0  0  0  0  0  0
   10.4650   -1.4150   23.1000 C   0  0  0  0  0  0  0  0  0  0  0  0
   11.2770   -0.1270   23.0990 C   0  0  0  0  0  0  0  0  0  0  0  0
   10.3330    0.9860   23.4430 C   0  0  0  0  0  0  0  0  0  0  0  0
   10.6330    2.4620   23.5240 C   0  0  0  0  0  0  0  0  0  0  0  0
   12.1000    2.2940   23.1340 C   0  0  0  0  0  0  0  0  0  0  0  0
   12.6960    3.5990   22.9910 N   0  0  0  0  0  0  0  0  0  0  0  0
   12.9340    4.7920   23.7670 C   0  0  0  0  0  0  0  0  0  0  0  0
   12.9160    5.9830   23.0950 C   0  0  0  0  0  0  0  0  0  0  0  0
   12.0540    5.9250   22.0940 C   0  0  0  0  0  0  0  0  0  0  0  0
   11.7190    4.2900   21.8280 S   0  0  0  0  0  0  0  0  0  0  0  0
   10.3550    4.0610   22.2360 O   0  0  0  0  0  0  0  0  0  0  0  0
   12.2140    4.0610   20.5090 O   0  0  0  0  0  0  0  0  0  0  0  0
   12.8850    1.1560   22.8590 C   0  0  0  0  0  0  0  0  0  0  0  0
   12.6450   -0.2300   22.7950 C   0  0  0  0  0  0  0  0  0  0  0  0
    7.4340   -0.8660   21.0750 N   0  0  0  0  0  0  0  0  0  0  0  0
    6.6680   -0.1350   20.2000 C   0  0  0  0  0  0  0  0  0  0  0  0
    5.4640    0.6830   20.5830 C   0  0  0  0  0  0  0  0  0  0  0  0
    4.8000    1.3710   19.5630 C   0  0  0  0  0  0  0  0  0  0  0  0
    5.2210    1.3310   18.1520 C   0  0  0  0  0  0  0  0  0  0  0  0
    6.3750    0.5510   17.7330 N   0  0  0  0  0  0  0  0  0  0  0  0
    7.0380   -0.1570   18.8540 C   0  0  0  0  0  0  0  0  0  0  0  0
  1  2  2  0
  2  3  1  0
  3  4  1  0
  4  5  1  0
  5  6  2  0
  6  7  1  0
  7  8  2  0
  8  9  1  0
  9 10  1  0
 10 11  1  0
 11 12  1  0
 13  9  1  0
 12 13  1  0
 13 14  2  0
 13 15  2  0
  8 16  1  0
  5 17  1  0
 16 17  2  0
  2 18  1  0
 18 19  1  0
 19 20  2  0
 20 21  1  0
 21 22  2  0
 22 23  1  0
 19 24  1  0
 23 24  2  0
M  END
