pyridine_urea_3927
     RDKit          3D

 20 22  0  0  0  0  0  0  0  0999 V2000
   11.1490    3.4660   22.4520 C   0  0  0  0  0  0  0  0  0  0  0  0
   10.1720    2.4290   22.2910 O   0  0  0  0  0  0  0  0  0  0  0  0
    9.9880    1.6690   23.4290 C   0  0  0  0  0  0  0  0  0  0  0  0
    9.1900    1.9920   24.3260 O   0  0  0  0  0  0  0  0  0  0  0  0
   10.7990    0.5160   23.5000 C   0  0  2  0  0  0  0  0  0  0  0  0
   11.8970    0.6810   24.1480 C   0  0  0  0  0  0  0  0  0  0  0  0
   12.3780    0.4350   23.0000 C   0  0  1  0  0  0  0  0  0  0  0  0
   12.7320   -0.8150   22.5650 C   0  0  0  0  0  0  0  0  0  0  0  0
   11.5570   -1.5390   22.3360 C   0  0  0  0  0  0  0  0  0  0  0  0
   10.3760   -0.8750   23.1350 C   0  0  2  0  0  0  0  0  0  0  0  0
    9.1270   -1.0110   22.3940 N   0  0  0  0  0  0  0  0  0  0  0  0
    8.4510   -0.1970   21.5370 C   0  0  0  0  0  0  0  0  0  0  0  0
    8.8220    0.9180   21.2240 O   0  0  0  0  0  0  0  0  0  0  0  0
    7.2780   -0.6590   21.0120 N   0  0  0  0  0  0  0  0  0  0  0  0
    6.4980    0.0250   20.0640 C   0  0  0  0  0  0  0  0  0  0  0  0
    5.3300    0.7390   20.3110 C   0  0  0  0  0  0  0  0  0  0  0  0
    4.6590    1.3860   19.2810 C   0  0  0  0  0  0  0  0  0  0  0  0
    5.1900    1.2970   18.0100 C   0  0  0  0  0  0  0  0  0  0  0  0
    6.3080    0.6110   17.7260 N   0  0  0  0  0  0  0  0  0  0  0  0
    6.9270   -0.0050   18.7520 C   0  0  0  0  0  0  0  0  0  0  0  0
  1  2  1  0
  2  3  1  0
  3  4  2  0
  5  3  1  6
  5  6  1  0
  5  7  1  0
  7  6  1  1
  7  8  1  0
  8  9  1  0
  5 10  1  0
  9 10  1  0
 10 11  1  6
 11 12  1  0
 12 13  2  0
 12 14  1  0
 14 15  1  0
 15 16  2  0
 16 17  1  0
 17 18  2  0
 18 19  1  0
 15 20  1  0
 19 20  2  0
M  END
