pyridine_urea_9228
     RDKit          3D

 18 19  0  0  0  0  0  0  0  0999 V2000
   14.0280   -2.9310   25.2460 C   0  0  0  0  0  0  0  0  0  0  0  0
   13.0520   -1.9110   25.3290 C   0  0  0  0  0  0  0  0  0  0  0  0
   12.4160   -1.4080   24.2930 C   0  0  0  0  0  0  0  0  0  0  0  0
   12.8290   -0.2590   23.5820 N   0  0  0  0  0  0  0  0  0  0  0  0
   11.8950   -0.1070   22.6490 N   0  0  0  0  0  0  0  0  0  0  0  0
   10.9100   -1.1010   22.7260 C   0  0  0  0  0  0  0  0  0  0  0  0
    9.8870   -1.1720   21.8930 C   0  0  0  0  0  0  0  0  0  0  0  0
    8.9750   -0.3550   22.4220 N   0  0  0  0  0  0  0  0  0  0  0  0
    8.3160    0.4800   21.5580 C   0  0  0  0  0  0  0  0  0  0  0  0
    8.7620    1.5890   21.2370 O   0  0  0  0  0  0  0  0  0  0  0  0
    7.1040   -0.1480   21.1000 N   0  0  0  0  0  0  0  0  0  0  0  0
    6.4710    0.3160   20.0270 C   0  0  0  0  0  0  0  0  0  0  0  0
    5.2110    1.1590   20.2360 C   0  0  0  0  0  0  0  0  0  0  0  0
    4.5860    1.6630   19.1210 C   0  0  0  0  0  0  0  0  0  0  0  0
    5.1010    1.4020   17.8550 C   0  0  0  0  0  0  0  0  0  0  0  0
    6.2140    0.6440   17.6070 N   0  0  0  0  0  0  0  0  0  0  0  0
    6.8950    0.0960   18.7430 C   0  0  0  0  0  0  0  0  0  0  0  0
   11.0290   -2.2730   23.9050 S   0  0  0  0  0  0  0  0  0  0  0  0
  1  2  1  0
  2  3  1  0
  3  4  2  0
  4  5  1  0
  5  6  2  0
  6  7  1  0
  7  8  1  0
  8  9  1  0
  9 10  2  0
  9 11  1  0
 11 12  1  0
 12 13  2  0
 13 14  1  0
 14 15  2  0
 15 16  1  0
 12 17  1  0
 16 17  2  0
  3 18  1  0
  6 18  1  0
M  END
