pyridine_urea_7339
     RDKit          3D

 18 19  0  0  0  0  0  0  0  0999 V2000
   12.5170    3.7130   22.4190 C   0  0  0  0  0  0  0  0  0  0  0  0
   11.2480    2.9230   23.4440 S   0  0  0  0  0  0  0  0  0  0  0  0
   11.6690    1.1630   23.2330 C   0  0  0  0  0  0  0  0  0  0  0  0
   12.8560    0.7190   22.9180 C   0  0  0  0  0  0  0  0  0  0  0  0
   12.7990   -0.5930   22.8200 C   0  0  0  0  0  0  0  0  0  0  0  0
   11.4740   -1.0390   23.1070 C   0  0  0  0  0  0  0  0  0  0  0  0
   10.1150   -1.1690   23.4300 C   0  0  0  0  0  0  0  0  0  0  0  0
    9.3190   -1.2360   22.2250 N   0  0  0  0  0  0  0  0  0  0  0  0
    8.8690   -0.0930   21.6750 C   0  0  0  0  0  0  0  0  0  0  0  0
    9.4270    0.9780   21.7670 O   0  0  0  0  0  0  0  0  0  0  0  0
    7.7610   -0.1230   20.9660 N   0  0  0  0  0  0  0  0  0  0  0  0
    6.8150    0.2290   20.0550 C   0  0  0  0  0  0  0  0  0  0  0  0
    5.6360    0.8720   20.4580 C   0  0  0  0  0  0  0  0  0  0  0  0
    4.7310    1.2360   19.4880 C   0  0  0  0  0  0  0  0  0  0  0  0
    4.9930    0.9680   18.1730 C   0  0  0  0  0  0  0  0  0  0  0  0
    6.0950    0.3490   17.7450 N   0  0  0  0  0  0  0  0  0  0  0  0
    6.9750   -0.0060   18.7000 C   0  0  0  0  0  0  0  0  0  0  0  0
   10.9520    0.1530   23.3290 O   0  0  0  0  0  0  0  0  0  0  0  0
  1  2  1  0
  2  3  1  0
  3  4  2  0
  4  5  1  0
  5  6  2  0
  6  7  1  0
  7  8  1  0
  8  9  1  0
  9 10  2  0
  9 11  1  0
 11 12  1  0
 12 13  2  0
 13 14  1  0
 14 15  2  0
 15 16  1  0
 12 17  1  0
 16 17  2  0
  3 18  1  0
  6 18  1  0
M  END
