pyridine_urea_5878
     RDKit          3D

 28 31  0  0  0  0  0  0  0  0999 V2000
   13.6230   -3.1980   20.5640 C   0  0  0  0  0  0  0  0  0  0  0  0
   13.5060   -2.2140   21.5910 C   0  0  0  0  0  0  0  0  0  0  0  0
   13.5350   -0.9060   21.3570 C   0  0  0  0  0  0  0  0  0  0  0  0
   13.4240    0.0270   22.3890 C   0  0  0  0  0  0  0  0  0  0  0  0
   13.3230   -0.4520   23.6380 C   0  0  0  0  0  0  0  0  0  0  0  0
   13.3480   -1.9090   23.7870 C   0  0  0  0  0  0  0  0  0  0  0  0
   13.2490   -2.4210   25.0970 C   0  0  0  0  0  0  0  0  0  0  0  0
   12.0720   -1.8570   25.1930 N   0  0  0  0  0  0  0  0  0  0  0  0
   11.9750   -0.6080   25.5410 C   0  0  0  0  0  0  0  0  0  0  0  0
   12.9260    0.0880   25.4610 O   0  0  0  0  0  0  0  0  0  0  0  0
   10.8940   -0.2930   25.8970 O   0  0  0  0  0  0  0  0  0  0  0  0
   10.5250   -0.6250   24.7100 C   0  0  0  0  0  0  0  0  0  0  0  0
    9.5180    0.0160   24.2170 C   0  0  0  0  0  0  0  0  0  0  0  0
    9.1380   -0.3090   22.9870 C   0  0  0  0  0  0  0  0  0  0  0  0
    8.1150    0.2470   22.4360 N   0  0  0  0  0  0  0  0  0  0  0  0
    7.9570    0.4930   21.1560 C   0  0  0  0  0  0  0  0  0  0  0  0
    8.4780    1.4470   20.6100 O   0  0  0  0  0  0  0  0  0  0  0  0
    7.1410   -0.4390   20.6650 N   0  0  0  0  0  0  0  0  0  0  0  0
    6.3570    0.2120   19.7750 C   0  0  0  0  0  0  0  0  0  0  0  0
    5.1200    0.8090   20.0350 C   0  0  0  0  0  0  0  0  0  0  0  0
    4.4930    1.4670   18.9840 C   0  0  0  0  0  0  0  0  0  0  0  0
    5.0990    1.5090   17.7410 C   0  0  0  0  0  0  0  0  0  0  0  0
    6.2660    0.9190   17.5240 N   0  0  0  0  0  0  0  0  0  0  0  0
    6.8830    0.2810   18.5270 C   0  0  0  0  0  0  0  0  0  0  0  0
    9.9740   -1.3880   22.2520 C   0  0  0  0  0  0  0  0  0  0  0  0
   11.0460   -2.0220   22.8690 C   0  0  0  0  0  0  0  0  0  0  0  0
   11.2680   -1.6020   24.1520 C   0  0  0  0  0  0  0  0  0  0  0  0
   13.4210   -2.6950   22.7910 C   0  0  0  0  0  0  0  0  0  0  0  0
  1  2  1  0
  2  3  2  0
  3  4  1  0
  4  5  2  0
  5  6  1  0
  6  7  1  0
  7  8  1  0
  8  9  1  0
  9 10  2  0
  9 11  1  0
 11 12  1  0
 12 13  1  0
 13 14  2  0
 14 15  1  0
 15 16  1  0
 16 17  2  0
 16 18  1  0
 18 19  1  0
 19 20  2  0
 20 21  1  0
 21 22  2  0
 22 23  1  0
 19 24  1  0
 23 24  2  0
 14 25  1  0
 25 26  2  0
  8 27  1  0
 12 27  2  0
 26 27  1  0
  2 28  1  0
  6 28  2  0
M  END
