pyridine_urea_10900
     RDKit          3D

 19 20  0  0  0  0  0  0  0  0999 V2000
    4.6580    3.3920   20.5320 C   0  0  0  0  0  0  0  0  0  0  0  0
    4.1220    2.0040   20.7340 C   0  0  0  0  0  0  0  0  0  0  0  0
    3.1030    1.5540   19.8940 C   0  0  0  0  0  0  0  0  0  0  0  0
    5.3110    1.0290   20.5820 C   0  0  0  0  0  0  0  0  0  0  0  0
    4.8360    1.5720   19.4270 N   0  0  0  0  0  0  0  0  0  0  0  0
    5.2680    1.3700   18.1390 C   0  0  0  0  0  0  0  0  0  0  0  0
    6.2380    0.6000   17.7450 N   0  0  0  0  0  0  0  0  0  0  0  0
    6.8640   -0.0430   18.6970 C   0  0  0  0  0  0  0  0  0  0  0  0
    6.5010    0.0860   20.1520 C   0  0  0  0  0  0  0  0  0  0  0  0
    7.2180   -0.6170   21.0380 N   0  0  0  0  0  0  0  0  0  0  0  0
    8.3450   -0.0000   21.4570 C   0  0  0  0  0  0  0  0  0  0  0  0
    8.7270    1.1310   21.1100 O   0  0  0  0  0  0  0  0  0  0  0  0
    9.1510   -0.6850   22.3210 N   0  0  0  0  0  0  0  0  0  0  0  0
   10.5010   -0.4060   22.5210 C   0  0  0  0  0  0  0  0  0  0  0  0
   11.5640   -1.2880   22.3750 C   0  0  0  0  0  0  0  0  0  0  0  0
   12.8670   -0.8700   22.5850 C   0  0  0  0  0  0  0  0  0  0  0  0
   13.0620    0.4460   22.9390 C   0  0  0  0  0  0  0  0  0  0  0  0
   12.0740    1.3370   23.0960 N   0  0  0  0  0  0  0  0  0  0  0  0
   10.8200    0.8880   22.8860 C   0  0  0  0  0  0  0  0  0  0  0  0
  1  2  1  0
  2  3  1  0
  2  4  1  0
  4  5  2  0
  5  6  1  0
  6  7  2  0
  7  8  1  0
  4  9  1  0
  8  9  2  0
  9 10  1  0
 10 11  1  0
 11 12  2  0
 11 13  1  0
 13 14  1  0
 14 15  2  0
 15 16  1  0
 16 17  2  0
 17 18  1  0
 14 19  1  0
 18 19  2  0
M  END
