pyridine_urea_13055
     RDKit          3D

 18 19  0  0  0  0  0  0  0  0999 V2000
   10.9730   -3.8180   25.6050 C   0  0  0  0  0  0  0  0  0  0  0  0
   11.1880   -3.0650   24.3210 C   0  0  0  0  0  0  0  0  0  0  0  0
   11.0160   -1.6530   24.5290 O   0  0  0  0  0  0  0  0  0  0  0  0
   11.1250   -0.8790   23.3990 C   0  0  0  0  0  0  0  0  0  0  0  0
   10.1740   -1.0300   22.4020 C   0  0  0  0  0  0  0  0  0  0  0  0
    8.9140   -0.5850   22.5540 N   0  0  0  0  0  0  0  0  0  0  0  0
    8.3760    0.0880   21.5150 C   0  0  0  0  0  0  0  0  0  0  0  0
    8.8290    1.1840   21.1500 O   0  0  0  0  0  0  0  0  0  0  0  0
    7.3200   -0.5930   21.0030 N   0  0  0  0  0  0  0  0  0  0  0  0
    6.5740    0.0540   20.0820 C   0  0  0  0  0  0  0  0  0  0  0  0
    5.4020    0.7970   20.3530 C   0  0  0  0  0  0  0  0  0  0  0  0
    4.6560    1.5000   19.1920 C   0  0  0  0  0  0  0  0  0  0  0  0
    5.2050    1.3490   17.9340 C   0  0  0  0  0  0  0  0  0  0  0  0
    6.3180    0.6250   17.7390 N   0  0  0  0  0  0  0  0  0  0  0  0
    6.9940   -0.0130   18.7660 C   0  0  0  0  0  0  0  0  0  0  0  0
   11.5830    0.5390   23.7580 C   0  0  0  0  0  0  0  0  0  0  0  0
   12.7430    0.4500   23.0590 C   0  0  0  0  0  0  0  0  0  0  0  0
   12.5530   -0.8630   22.7510 C   0  0  0  0  0  0  0  0  0  0  0  0
  1  2  1  0
  2  3  1  0
  4  3  1  0
  4  5  1  0
  5  6  1  0
  6  7  1  0
  7  8  2  0
  7  9  1  0
  9 10  1  0
 10 11  2  0
 11 12  1  0
 12 13  2  0
 13 14  1  0
 10 15  1  0
 14 15  2  0
  4 16  1  0
 16 17  1  0
  4 18  1  0
 17 18  1  0
M  END
