pyridine_urea_351
     RDKit          3D

 27 29  0  0  0  0  0  0  0  0999 V2000
   15.8220   -5.2480   19.9890 C   0  0  0  0  0  0  0  0  0  0  0  0
   14.9570   -4.9250   20.6440 C   0  0  0  0  0  0  0  0  0  0  0  0
   14.0090   -3.6720   20.3030 O   0  0  0  0  0  0  0  0  0  0  0  0
   13.5690   -2.7170   21.3520 C   0  0  0  0  0  0  0  0  0  0  0  0
   13.4860   -1.3240   21.0090 C   0  0  0  0  0  0  0  0  0  0  0  0
   13.1490   -0.4610   22.0390 C   0  0  0  0  0  0  0  0  0  0  0  0
   12.8700   -0.8290   23.4570 C   0  0  0  0  0  0  0  0  0  0  0  0
   12.5070    0.0670   24.5050 C   0  0  0  0  0  0  0  0  0  0  0  0
   13.0320   -0.3410   25.7590 O   0  0  0  0  0  0  0  0  0  0  0  0
   11.6770    1.1270   24.0920 N   0  0  0  0  0  0  0  0  0  0  0  0
   11.6220    1.2060   22.7670 C   0  0  0  0  0  0  0  0  0  0  0  0
   10.8360    0.0160   22.2320 C   0  0  0  0  0  0  0  0  0  0  0  0
    9.7920   -0.5450   22.8810 C   0  0  0  0  0  0  0  0  0  0  0  0
    8.7770   -1.0290   22.1580 N   0  0  0  0  0  0  0  0  0  0  0  0
    8.1070   -0.1510   21.3190 C   0  0  0  0  0  0  0  0  0  0  0  0
    8.5930    1.1600   20.9730 O   0  0  0  0  0  0  0  0  0  0  0  0
    6.8590   -0.7130   20.8620 N   0  0  0  0  0  0  0  0  0  0  0  0
    6.2110    0.0180   19.9220 C   0  0  0  0  0  0  0  0  0  0  0  0
    4.9010    0.6620   20.4380 C   0  0  0  0  0  0  0  0  0  0  0  0
    4.5170    1.3700   19.1480 C   0  0  0  0  0  0  0  0  0  0  0  0
    5.2420    1.3780   17.8540 C   0  0  0  0  0  0  0  0  0  0  0  0
    6.3550    0.7500   17.6260 N   0  0  0  0  0  0  0  0  0  0  0  0
    6.7960    0.0930   18.6730 C   0  0  0  0  0  0  0  0  0  0  0  0
    9.4130    0.6870   23.7150 C   0  0  0  0  0  0  0  0  0  0  0  0
   10.3970    1.1540   24.4910 C   0  0  0  0  0  0  0  0  0  0  0  0
   12.9890   -2.1010   23.6910 C   0  0  0  0  0  0  0  0  0  0  0  0
   13.3090   -2.9410   22.7050 C   0  0  0  0  0  0  0  0  0  0  0  0
  1  2  1  0
  2  3  1  0
  3  4  1  0
  4  5  2  0
  5  6  1  0
  6  7  2  0
  7  8  1  0
  8  9  2  0
  8 10  1  0
 10 11  1  0
 11 12  1  0
 12 13  1  0
 13 14  1  0
 14 15  1  0
 15 16  2  0
 15 17  1  0
 17 18  1  0
 18 19  2  0
 19 20  1  0
 20 21  2  0
 21 22  1  0
 18 23  1  0
 22 23  2  0
 13 24  1  0
 10 25  1  0
 24 25  1  0
  7 26  1  0
  4 27  1  0
 26 27  2  0
M  END
