pyridine_urea_5175
     RDKit          3D

 20 21  0  0  0  0  0  0  0  0999 V2000
    8.7140    0.6480   21.2700 O   0  0  0  0  0  0  0  0  0  0  0  0
    8.0790   -0.3890   21.4540 C   0  0  0  0  0  0  0  0  0  0  0  0
    8.4940   -1.4750   22.1490 N   0  0  0  0  0  0  0  0  0  0  0  0
    9.7870   -1.6750   22.6000 C   0  0  0  0  0  0  0  0  0  0  0  0
   10.0980   -0.9670   23.7450 C   0  0  2  0  0  0  0  0  0  0  0  0
    9.1340   -0.2370   23.9040 O   0  0  0  0  0  0  0  0  0  0  0  0
   11.1600   -0.1260   23.5850 C   0  0  0  0  0  0  0  0  0  0  0  0
   12.3780    0.5890   23.2910 C   0  0  0  0  0  0  0  0  0  0  0  0
   13.5620    0.1590   22.5120 C   0  0  0  0  0  0  0  0  0  0  0  0
   13.3890   -1.0280   22.0770 C   0  0  0  0  0  0  0  0  0  0  0  0
   12.1010   -0.4250   23.0070 Cl  0  0  0  0  0  0  0  0  0  0  0  0
   12.3710   -1.9990   22.1680 C   0  0  0  0  0  0  0  0  0  0  0  0
   11.3140   -1.4790   22.9260 C   0  0  0  0  0  0  0  0  0  0  0  0
    6.8260   -0.6360   20.9860 N   0  0  0  0  0  0  0  0  0  0  0  0
    6.2600    0.0570   19.9300 C   0  0  0  0  0  0  0  0  0  0  0  0
    5.0690    0.7550   20.1320 C   0  0  0  0  0  0  0  0  0  0  0  0
    4.5190    1.4610   19.0600 C   0  0  0  0  0  0  0  0  0  0  0  0
    5.1750    1.4430   17.8390 C   0  0  0  0  0  0  0  0  0  0  0  0
    6.3170    0.7680   17.6400 N   0  0  0  0  0  0  0  0  0  0  0  0
    6.8320    0.0920   18.6770 C   0  0  0  0  0  0  0  0  0  0  0  0
  1  2  2  0
  2  3  1  0
  3  4  1  0
  4  5  1  0
  5  6  1  6
  5  7  1  0
  7  8  2  0
  8  9  1  0
  9 10  2  0
 10 11  1  0
 10 12  1  0
  7 13  1  0
 12 13  2  0
  2 14  1  0
 14 15  1  0
 15 16  2  0
 16 17  1  0
 17 18  2  0
 18 19  1  0
 15 20  1  0
 19 20  2  0
M  END
