pyridine_urea_6620
     RDKit          3D

 22 23  0  0  0  0  0  0  0  0999 V2000
    9.0070    1.1680   21.2170 O   0  0  0  0  0  0  0  0  0  0  0  0
    8.6360    0.0320   21.5390 C   0  0  0  0  0  0  0  0  0  0  0  0
    7.5240   -0.6060   21.0100 N   0  0  0  0  0  0  0  0  0  0  0  0
    6.6420    0.0340   20.1170 C   0  0  0  0  0  0  0  0  0  0  0  0
    5.3470    0.7670   20.5250 C   0  0  0  0  0  0  0  0  0  0  0  0
    4.5880    1.3960   19.3540 C   0  0  0  0  0  0  0  0  0  0  0  0
    5.1690    1.2360   17.9900 C   0  0  0  0  0  0  0  0  0  0  0  0
    6.3040    0.5670   17.7480 N   0  0  0  0  0  0  0  0  0  0  0  0
    6.9800    0.0050   18.7730 C   0  0  0  0  0  0  0  0  0  0  0  0
    9.3130   -0.7680   22.4850 N   0  0  0  0  0  0  0  0  0  0  0  0
   10.5920   -0.3890   23.1650 C   0  0  1  0  0  0  0  0  0  0  0  0
   11.7170   -0.9480   22.4860 C   0  0  0  0  0  0  0  0  0  0  0  0
   12.8380   -0.3550   22.7950 C   0  0  0  0  0  0  0  0  0  0  0  0
   12.2220    0.3870   23.6570 C   0  0  0  0  0  0  0  0  0  0  0  0
   10.8180   -0.0860   23.5840 C   0  0  0  0  0  0  0  0  0  0  0  0
    9.6280    0.6460   24.6330 Cl  0  0  0  0  0  0  0  0  0  0  0  0
   10.2960   -1.2250   22.6300 C   0  0  0  0  0  0  0  0  0  0  0  0
   11.3990   -1.8920   21.7070 C   0  0  0  0  0  0  0  0  0  0  0  0
   10.8410    1.0170   23.2750 C   0  0  0  0  0  0  0  0  0  0  0  0
   10.0230    1.7930   22.4860 F   0  0  0  0  0  0  0  0  0  0  0  0
   10.6490    1.4900   24.5120 F   0  0  0  0  0  0  0  0  0  0  0  0
   12.1110    1.3510   22.9090 F   0  0  0  0  0  0  0  0  0  0  0  0
  1  2  2  0
  2  3  1  0
  3  4  1  0
  4  5  2  0
  5  6  1  0
  6  7  2  0
  7  8  1  0
  4  9  1  0
  8  9  2  0
  2 10  1  0
 11 10  1  6
 11 12  1  0
 12 13  2  0
 13 14  1  0
 14 15  2  0
 15 16  1  0
 15 17  1  0
 12 18  1  0
 17 18  2  0
 11 19  1  0
 19 20  1  0
 19 21  1  0
 19 22  1  0
M  END
