pyridine_urea_10709
     RDKit          3D

 20 20  0  0  0  0  0  0  0  0999 V2000
   12.9810   -0.9680   24.8060 C   0  0  0  0  0  0  0  0  0  0  0  0
   12.6110   -0.1930   23.5770 C   0  0  0  0  0  0  0  0  0  0  0  0
   13.2640    0.8480   22.9740 C   0  0  0  0  0  0  0  0  0  0  0  0
   11.3500    0.5620   23.9480 C   0  0  0  0  0  0  0  0  0  0  0  0
   12.4420   -1.3100   22.5080 C   0  0  0  0  0  0  0  0  0  0  0  0
   11.0590   -1.8420   22.4070 C   0  0  0  0  0  0  0  0  0  0  0  0
   10.1250   -0.7190   22.8220 C   0  0  1  0  0  0  0  0  0  0  0  0
    8.8190   -0.7680   22.3610 N   0  0  0  0  0  0  0  0  0  0  0  0
    8.2920    0.0980   21.4470 C   0  0  0  0  0  0  0  0  0  0  0  0
    8.8260    1.1820   21.1560 O   0  0  0  0  0  0  0  0  0  0  0  0
    7.0660   -0.4550   20.9350 N   0  0  0  0  0  0  0  0  0  0  0  0
    6.3900    0.1610   19.9610 C   0  0  0  0  0  0  0  0  0  0  0  0
    5.2240    0.8830   20.1750 C   0  0  0  0  0  0  0  0  0  0  0  0
    4.5900    1.5160   19.1210 C   0  0  0  0  0  0  0  0  0  0  0  0
    5.1360    1.4140   17.8630 C   0  0  0  0  0  0  0  0  0  0  0  0
    6.2570    0.7140   17.6070 N   0  0  0  0  0  0  0  0  0  0  0  0
    6.8730    0.0900   18.6860 C   0  0  0  0  0  0  0  0  0  0  0  0
   10.2430   -0.5930   24.2040 C   0  0  0  0  0  0  0  0  0  0  0  0
    8.9280   -0.8890   24.2220 N   0  0  0  0  0  0  0  0  0  0  0  0
    9.9120   -0.5590   25.5910 O   0  0  0  0  0  0  0  0  0  0  0  0
  2  1  1  0
  2  3  1  0
  2  4  1  0
  2  5  1  0
  5  6  1  0
  7  6  1  1
  7  8  1  0
  8  9  1  0
  9 10  2  0
  9 11  1  0
 11 12  1  0
 12 13  2  0
 13 14  1  0
 14 15  2  0
 15 16  1  0
 12 17  1  0
 16 17  2  0
  7 18  1  0
 18 19  1  0
 18 20  2  0
M  END
