pyridine_urea_4235
     RDKit          3D

 24 26  0  0  0  0  0  0  0  0999 V2000
   10.2980   -0.6910   22.2730 C   0  0  0  0  0  0  0  0  0  0  0  0
    9.3280   -0.6120   23.4680 C   0  0  0  0  0  0  0  0  0  0  0  0
    9.0570   -1.9860   24.0770 C   0  0  0  0  0  0  0  0  0  0  0  0
    9.8090    0.4110   24.5090 C   0  0  0  0  0  0  0  0  0  0  0  0
   11.0980    1.0810   24.1050 C   0  0  0  0  0  0  0  0  0  0  0  0
   12.4630    1.4570   23.4910 C   0  0  0  0  0  0  0  0  0  0  0  0
   13.0180    0.4820   22.6170 C   0  0  0  0  0  0  0  0  0  0  0  0
   12.7640   -0.6510   22.1180 C   0  0  0  0  0  0  0  0  0  0  0  0
   11.5640   -1.0670   22.5670 C   0  0  0  0  0  0  0  0  0  0  0  0
   10.8590   -0.2350   23.4770 C   0  0  0  0  0  0  0  0  0  0  0  0
   10.8020   -2.4030   22.2020 C   0  0  0  0  0  0  0  0  0  0  0  0
   12.1540   -2.4520   22.2520 C   0  0  0  0  0  0  0  0  0  0  0  0
   12.8910   -2.4040   21.0090 C   0  0  0  0  0  0  0  0  0  0  0  0
   13.5420   -1.3300   21.2870 C   0  0  0  0  0  0  0  0  0  0  0  0
    8.1060   -0.1050   22.9460 N   0  0  0  0  0  0  0  0  0  0  0  0
    8.0630    0.3550   21.5940 C   0  0  0  0  0  0  0  0  0  0  0  0
    8.7680    1.2670   21.1400 O   0  0  0  0  0  0  0  0  0  0  0  0
    7.1100   -0.3690   20.9430 N   0  0  0  0  0  0  0  0  0  0  0  0
    6.3500    0.2380   19.9840 C   0  0  0  0  0  0  0  0  0  0  0  0
    5.1790    0.9110   20.2130 C   0  0  0  0  0  0  0  0  0  0  0  0
    4.5450    1.5000   19.1200 C   0  0  0  0  0  0  0  0  0  0  0  0
    5.1210    1.3780   17.8580 C   0  0  0  0  0  0  0  0  0  0  0  0
    6.2590    0.7140   17.5880 N   0  0  0  0  0  0  0  0  0  0  0  0
    6.8770    0.1490   18.6170 C   0  0  0  0  0  0  0  0  0  0  0  0
  1  2  1  0
  2  3  1  0
  2  4  1  0
  4  5  1  0
  5  6  2  0
  6  7  1  0
  7  8  2  0
  8  9  1  0
  5 10  1  0
  9 10  2  0
  9 11  1  0
 11 12  1  0
 12 13  1  0
  8 14  1  0
 13 14  1  0
  2 15  1  0
 15 16  1  0
 16 17  2  0
 16 18  1  0
 18 19  1  0
 19 20  2  0
 20 21  1  0
 21 22  2  0
 22 23  1  0
 19 24  1  0
 23 24  2  0
M  END
