pyridine_urea_14243
     RDKit          3D

 22 23  0  0  0  0  0  0  0  0999 V2000
   11.2420   -1.5960   22.6000 C   0  0  0  0  0  0  0  0  0  0  0  0
    9.7480   -1.7970   22.7330 C   0  0  1  0  0  0  0  0  0  0  0  0
    9.3110   -3.0860   23.0080 C   0  0  0  0  0  0  0  0  0  0  0  0
    8.3190   -3.0560   23.7160 O   0  0  0  0  0  0  0  0  0  0  0  0
    9.1440   -0.9720   23.8810 C   0  0  0  0  0  0  0  0  0  0  0  0
    7.8590   -1.5310   24.2410 O   0  0  0  0  0  0  0  0  0  0  0  0
    7.1270   -0.8330   25.2570 C   0  0  0  0  0  0  0  0  0  0  0  0
    7.9740   -0.3180   26.3810 C   0  0  0  0  0  0  0  0  0  0  0  0
    7.2620    0.4280   27.4900 C   0  0  0  0  0  0  0  0  0  0  0  0
    5.7480    0.5730   27.3390 C   0  0  0  0  0  0  0  0  0  0  0  0
    5.0620    0.0510   26.2440 C   0  0  0  0  0  0  0  0  0  0  0  0
    5.7330   -0.6400   25.2210 C   0  0  0  0  0  0  0  0  0  0  0  0
    9.1160   -1.3870   21.4960 N   0  0  0  0  0  0  0  0  0  0  0  0
    8.4330   -0.2100   21.3790 C   0  0  0  0  0  0  0  0  0  0  0  0
    8.9210    0.9090   21.4660 O   0  0  0  0  0  0  0  0  0  0  0  0
    7.1120   -0.4520   21.1090 N   0  0  0  0  0  0  0  0  0  0  0  0
    6.3910    0.1680   20.0870 C   0  0  0  0  0  0  0  0  0  0  0  0
    5.2180    0.8760   20.2430 C   0  0  0  0  0  0  0  0  0  0  0  0
    4.5860    1.4750   19.1650 C   0  0  0  0  0  0  0  0  0  0  0  0
    5.1810    1.3350   17.9210 C   0  0  0  0  0  0  0  0  0  0  0  0
    6.3190    0.6490   17.7230 N   0  0  0  0  0  0  0  0  0  0  0  0
    6.8960    0.0800   18.8000 C   0  0  0  0  0  0  0  0  0  0  0  0
  2  1  1  6
  2  3  1  0
  3  4  1  0
  2  5  1  0
  5  6  1  0
  6  7  1  0
  7  8  2  0
  8  9  1  0
  9 10  2  0
 10 11  1  0
  7 12  1  0
 11 12  2  0
  2 13  1  0
 13 14  1  0
 14 15  2  0
 14 16  1  0
 16 17  1  0
 17 18  2  0
 18 19  1  0
 19 20  2  0
 20 21  1  0
 17 22  1  0
 21 22  2  0
M  END
