pyridine_urea_12153
     RDKit          3D

 23 25  0  0  0  0  0  0  0  0999 V2000
    8.8880    1.0710   21.1500 O   0  0  0  0  0  0  0  0  0  0  0  0
    8.3700   -0.0240   21.4070 C   0  0  0  0  0  0  0  0  0  0  0  0
    8.9450   -1.0510   22.0990 N   0  0  0  0  0  0  0  0  0  0  0  0
   10.2990   -1.1560   22.4130 C   0  0  0  0  0  0  0  0  0  0  0  0
   10.6880   -0.4180   23.5180 C   0  0  0  0  0  0  0  0  0  0  0  0
   11.6910    0.5510   23.2530 C   0  0  0  0  0  0  0  0  0  0  0  0
   11.4770    1.8110   23.2740 C   0  0  0  0  0  0  0  0  0  0  0  0
   12.6450    1.5660   22.9980 C   0  0  0  0  0  0  0  0  0  0  0  0
   11.5920    0.3510   23.2530 C   0  0  0  0  0  0  0  0  0  0  0  0
   12.6800   -0.5670   22.9980 C   0  0  0  0  0  0  0  0  0  0  0  0
   13.0180   -2.2530   22.9150 Cl  0  0  0  0  0  0  0  0  0  0  0  0
   13.2450    0.4390   22.8620 C   0  0  0  0  0  0  0  0  0  0  0  0
   11.0670   -1.4350   24.5830 C   0  0  0  0  0  0  0  0  0  0  0  0
    9.9030   -2.0640   25.0050 C   0  0  0  0  0  0  0  0  0  0  0  0
    8.9360   -1.0890   24.8060 C   0  0  0  0  0  0  0  0  0  0  0  0
    9.5780    0.0250   24.2630 C   0  0  0  0  0  0  0  0  0  0  0  0
    7.1110   -0.4110   21.0410 N   0  0  0  0  0  0  0  0  0  0  0  0
    6.4440    0.1770   19.9810 C   0  0  0  0  0  0  0  0  0  0  0  0
    5.2800    0.9010   20.2400 C   0  0  0  0  0  0  0  0  0  0  0  0
    4.6200    1.5080   19.1810 C   0  0  0  0  0  0  0  0  0  0  0  0
    5.1430    1.3700   17.9100 C   0  0  0  0  0  0  0  0  0  0  0  0
    6.2510    0.6710   17.6420 N   0  0  0  0  0  0  0  0  0  0  0  0
    6.8750    0.0920   18.6810 C   0  0  0  0  0  0  0  0  0  0  0  0
  1  2  2  0
  2  3  1  0
  3  4  1  0
  5  4  1  0
  5  6  1  0
  6  7  2  0
  7  8  1  0
  8  9  2  0
  9 10  1  0
 10 11  1  0
  6 12  1  0
 10 12  2  0
  5 13  1  0
 13 14  1  0
 14 15  1  0
  5 16  1  0
 15 16  1  0
  2 17  1  0
 17 18  1  0
 18 19  2  0
 19 20  1  0
 20 21  2  0
 21 22  1  0
 18 23  1  0
 22 23  2  0
M  END
