pyridine_urea_9762
     RDKit          3D

 26 28  0  0  0  0  0  0  0  0999 V2000
   21.2680    2.2890   25.3290 C   0  0  0  0  0  0  0  0  0  0  0  0
   20.1310    1.2670   25.4060 C   0  0  0  0  0  0  0  0  0  0  0  0
   18.9120    1.8730   27.2510 C   0  0  0  0  0  0  0  0  0  0  0  0
   16.7010    0.3570   27.6930 C   0  0  0  0  0  0  0  0  0  0  0  0
   15.9730   -1.4580   26.8810 C   0  0  0  0  0  0  0  0  0  0  0  0
   14.8980   -2.2290   26.8900 O   0  0  0  0  0  0  0  0  0  0  0  0
   13.7400   -1.7800   25.8290 C   0  0  0  0  0  0  0  0  0  0  0  0
   12.5830   -2.6970   25.1160 C   0  0  0  0  0  0  0  0  0  0  0  0
   11.5370   -2.1170   24.1300 C   0  0  0  0  0  0  0  0  0  0  0  0
   10.4090   -2.5380   23.3240 C   0  0  0  0  0  0  0  0  0  0  0  0
    9.2920   -1.5060   23.1330 N   0  0  0  0  0  0  0  0  0  0  0  0
    8.9200   -0.7230   21.9520 C   0  0  0  0  0  0  0  0  0  0  0  0
    9.6990    0.2860   21.4770 O   0  0  0  0  0  0  0  0  0  0  0  0
    7.6650   -1.0560   21.3580 N   0  0  0  0  0  0  0  0  0  0  0  0
    6.8630   -0.3030   20.3910 C   0  0  0  0  0  0  0  0  0  0  0  0
    5.7000    0.4440   20.6940 C   0  0  0  0  0  0  0  0  0  0  0  0
    4.9800    1.1590   19.5880 C   0  0  0  0  0  0  0  0  0  0  0  0
    5.4680    1.0760   18.2910 C   0  0  0  0  0  0  0  0  0  0  0  0
    6.5770    0.3650   18.0070 N   0  0  0  0  0  0  0  0  0  0  0  0
    7.2260   -0.2910   19.0260 C   0  0  0  0  0  0  0  0  0  0  0  0
   11.7510   -0.6320   23.9340 C   0  0  0  0  0  0  0  0  0  0  0  0
   12.7010   -0.0090   24.5600 C   0  0  0  0  0  0  0  0  0  0  0  0
   13.5760   -0.5080   25.4030 N   0  0  0  0  0  0  0  0  0  0  0  0
   17.3840   -2.0740   25.7240 C   0  0  0  0  0  0  0  0  0  0  0  0
   19.5060   -0.7320   24.4270 C   0  0  0  0  0  0  0  0  0  0  0  0
   20.2550   -1.3890   23.4140 C   0  0  0  0  0  0  0  0  0  0  0  0
  1  2  1  0
  2  3  2  0
  3  4  1  0
  4  5  2  0
  5  6  1  0
  6  7  1  0
  7  8  2  0
  8  9  1  0
  9 10  1  0
 10 11  1  0
 11 12  1  0
 12 13  2  0
 12 14  1  0
 14 15  1  0
 15 16  2  0
 16 17  1  0
 17 18  2  0
 18 19  1  0
 15 20  1  0
 19 20  2  0
  9 21  2  0
 21 22  1  0
  7 23  1  0
 22 23  2  0
  5 24  1  0
  2 25  1  0
 24 25  2  0
 25 26  1  0
M  END
