pyridine_urea_3600
     RDKit          3D

 16 17  0  0  0  0  0  0  0  0999 V2000
    8.9920    0.8680   21.4560 O   0  0  0  0  0  0  0  0  0  0  0  0
    8.4700   -0.2150   21.6840 C   0  0  0  0  0  0  0  0  0  0  0  0
    9.0580   -1.1600   22.4860 N   0  0  0  0  0  0  0  0  0  0  0  0
   10.2270   -1.8270   21.9700 C   0  0  0  0  0  0  0  0  0  0  0  0
   11.2390   -2.1580   23.0450 C   0  0  0  0  0  0  0  0  0  0  0  0
   12.4950   -1.6800   22.9940 N   0  0  0  0  0  0  0  0  0  0  0  0
   13.1840   -2.1350   24.0890 C   0  0  0  0  0  0  0  0  0  0  0  0
   12.2970   -2.9660   24.8970 N   0  0  0  0  0  0  0  0  0  0  0  0
   11.1220   -2.9280   24.1850 N   0  0  0  0  0  0  0  0  0  0  0  0
    7.2590   -0.6440   21.2060 N   0  0  0  0  0  0  0  0  0  0  0  0
    6.5710   -0.0140   20.1700 C   0  0  0  0  0  0  0  0  0  0  0  0
    5.2760    0.7710   20.3710 C   0  0  0  0  0  0  0  0  0  0  0  0
    4.5700    1.4540   19.1990 C   0  0  0  0  0  0  0  0  0  0  0  0
    5.1710    1.3220   17.9510 C   0  0  0  0  0  0  0  0  0  0  0  0
    6.2970    0.6440   17.7110 N   0  0  0  0  0  0  0  0  0  0  0  0
    6.9560    0.0230   18.7010 C   0  0  0  0  0  0  0  0  0  0  0  0
  1  2  2  0
  2  3  1  0
  3  4  1  0
  4  5  1  0
  5  6  2  0
  6  7  1  0
  7  8  2  0
  5  9  1  0
  8  9  1  0
  2 10  1  0
 10 11  1  0
 11 12  2  0
 12 13  1  0
 13 14  2  0
 14 15  1  0
 11 16  1  0
 15 16  2  0
M  END
