pyridine_urea_7806
     RDKit          3D

 26 28  0  0  0  0  0  0  0  0999 V2000
   11.1400   -3.1810   24.2600 N   0  0  0  0  0  0  0  0  0  0  0  0
   12.3550   -3.0730   24.8670 C   0  0  0  0  0  0  0  0  0  0  0  0
   13.4360   -2.4900   23.9960 C   0  0  0  0  0  0  0  0  0  0  0  0
   12.8720   -1.8950   22.8810 C   0  0  0  0  0  0  0  0  0  0  0  0
   11.7600   -1.0730   23.1270 C   0  0  0  0  0  0  0  0  0  0  0  0
   11.7360    0.0630   22.6380 O   0  0  0  0  0  0  0  0  0  0  0  0
   12.8750    0.7340   22.8140 C   0  0  0  0  0  0  0  0  0  0  0  0
   12.9650   -0.5780   22.5860 C   0  0  0  0  0  0  0  0  0  0  0  0
   11.6720   -1.1400   22.3870 C   0  0  0  0  0  0  0  0  0  0  0  0
   10.3720   -0.2450   22.4610 C   0  0  0  0  0  0  0  0  0  0  0  0
    9.1220   -0.7620   22.2520 N   0  0  0  0  0  0  0  0  0  0  0  0
    8.2350   -0.0840   21.3970 C   0  0  0  0  0  0  0  0  0  0  0  0
    8.5210    1.1890   20.9400 O   0  0  0  0  0  0  0  0  0  0  0  0
    7.0990   -0.7050   21.0210 N   0  0  0  0  0  0  0  0  0  0  0  0
    6.4250   -0.0380   20.0640 C   0  0  0  0  0  0  0  0  0  0  0  0
    5.2320    0.6840   20.2440 C   0  0  0  0  0  0  0  0  0  0  0  0
    4.6150    1.3630   19.1730 C   0  0  0  0  0  0  0  0  0  0  0  0
    5.2020    1.3180   17.9100 C   0  0  0  0  0  0  0  0  0  0  0  0
    6.3440    0.6130   17.7720 N   0  0  0  0  0  0  0  0  0  0  0  0
    6.9460   -0.0490   18.7840 C   0  0  0  0  0  0  0  0  0  0  0  0
   10.6410    1.2370   22.7570 C   0  0  0  0  0  0  0  0  0  0  0  0
    9.5900    2.1610   22.8520 C   0  0  0  0  0  0  0  0  0  0  0  0
    9.8530    3.5080   23.0960 C   0  0  0  0  0  0  0  0  0  0  0  0
   11.1640    3.9450   23.2420 C   0  0  0  0  0  0  0  0  0  0  0  0
   12.2220    3.0320   23.1510 C   0  0  0  0  0  0  0  0  0  0  0  0
   11.9460    1.7090   22.9210 C   0  0  0  0  0  0  0  0  0  0  0  0
  1  2  3  0
  2  3  1  0
  3  4  1  0
  4  5  1  0
  5  6  1  0
  6  7  1  0
  7  8  2  0
  8  9  1  0
  9 10  2  0
 10 11  1  0
 11 12  1  0
 12 13  2  0
 12 14  1  0
 14 15  1  0
 15 16  2  0
 16 17  1  0
 17 18  2  0
 18 19  1  0
 15 20  1  0
 19 20  2  0
 10 21  1  0
 21 22  1  0
 22 23  2  0
 23 24  1  0
 24 25  2  0
  7 26  1  0
 21 26  2  0
 25 26  1  0
M  END
