pyridine_urea_4279
     RDKit          3D

 24 25  0  0  0  0  0  0  0  0999 V2000
   13.1680   -2.3690   23.3060 C   0  0  0  0  0  0  0  0  0  0  0  0
   12.6340   -2.0420   24.6980 C   0  0  0  0  0  0  0  0  0  0  0  0
   12.7910   -0.5960   25.0300 C   0  0  0  0  0  0  0  0  0  0  0  0
   13.5710   -2.8330   25.5670 C   0  0  0  0  0  0  0  0  0  0  0  0
   11.2410   -2.3630   24.7460 O   0  0  0  0  0  0  0  0  0  0  0  0
   10.3390   -1.2850   24.4490 C   0  0  0  0  0  0  0  0  0  0  0  0
    9.6790   -0.5880   25.2110 O   0  0  0  0  0  0  0  0  0  0  0  0
   10.2510   -1.0500   22.9450 C   0  0  1  0  0  0  0  0  0  0  0  0
    9.2770    0.0510   22.7560 N   0  0  0  0  0  0  0  0  0  0  0  0
    8.6660    0.4560   21.5720 C   0  0  0  0  0  0  0  0  0  0  0  0
    9.0060    1.5100   21.0480 O   0  0  0  0  0  0  0  0  0  0  0  0
    7.5990   -0.4360   21.0780 N   0  0  0  0  0  0  0  0  0  0  0  0
    6.7050    0.1310   20.1360 C   0  0  0  0  0  0  0  0  0  0  0  0
    5.5570    0.8740   20.4620 C   0  0  0  0  0  0  0  0  0  0  0  0
    4.8040    1.3750   19.4180 C   0  0  0  0  0  0  0  0  0  0  0  0
    5.1720    1.1490   18.1200 C   0  0  0  0  0  0  0  0  0  0  0  0
    6.2460    0.4440   17.7620 N   0  0  0  0  0  0  0  0  0  0  0  0
    6.9860   -0.0510   18.7820 C   0  0  0  0  0  0  0  0  0  0  0  0
   11.7090   -0.9260   22.3830 C   0  0  0  0  0  0  0  0  0  0  0  0
   12.3300   -1.7590   21.5900 C   0  0  0  0  0  0  0  0  0  0  0  0
   13.0310   -0.5650   22.0650 C   0  0  0  0  0  0  0  0  0  0  0  0
   11.7340   -0.2450   22.8100 C   0  0  0  0  0  0  0  0  0  0  0  0
   11.8280    0.9440   23.5220 C   0  0  0  0  0  0  0  0  0  0  0  0
   12.5730    0.2360   22.7530 C   0  0  0  0  0  0  0  0  0  0  0  0
  1  2  1  0
  2  3  1  0
  2  4  1  0
  2  5  1  0
  5  6  1  0
  6  7  2  0
  6  8  1  0
  8  9  1  1
  9 10  1  0
 10 11  2  0
 10 12  1  0
 12 13  1  0
 13 14  2  0
 14 15  1  0
 15 16  2  0
 16 17  1  0
 13 18  1  0
 17 18  2  0
  8 19  1  0
 19 20  2  0
 20 21  1  0
 21 22  2  0
 22 23  1  0
 19 24  1  0
 23 24  2  0
M  END
