pyridine_urea_2448
     RDKit          3D

 24 26  0  0  0  0  0  0  0  0999 V2000
    7.3740   -2.9050   24.4560 C   0  0  0  0  0  0  0  0  0  0  0  0
    8.3320   -3.8430   23.7270 C   0  0  0  0  0  0  0  0  0  0  0  0
    9.7010   -3.5050   24.0490 O   0  0  0  0  0  0  0  0  0  0  0  0
   10.2250   -2.9210   22.9630 C   0  0  0  0  0  0  0  0  0  0  0  0
    9.8410   -3.1270   21.6210 O   0  0  0  0  0  0  0  0  0  0  0  0
   11.1010   -1.8820   23.0040 C   0  0  0  0  0  0  0  0  0  0  0  0
   12.8140   -1.7280   23.0240 S   0  0  0  0  0  0  0  0  0  0  0  0
   12.5360    0.0280   22.9900 C   0  0  0  0  0  0  0  0  0  0  0  0
   13.2040    1.1790   22.9660 C   0  0  0  0  0  0  0  0  0  0  0  0
   12.4650    2.3260   22.9440 C   0  0  0  0  0  0  0  0  0  0  0  0
   10.8110    2.1080   22.9370 S   0  0  0  0  0  0  0  0  0  0  0  0
   11.2290    0.3900   22.9780 C   0  0  0  0  0  0  0  0  0  0  0  0
   10.5320   -0.7120   22.9980 C   0  0  0  0  0  0  0  0  0  0  0  0
    9.2070   -0.8590   23.0050 C   0  0  0  0  0  0  0  0  0  0  0  0
    8.8130   -0.8640   21.6660 N   0  0  0  0  0  0  0  0  0  0  0  0
    8.0920    0.0990   21.1880 C   0  0  0  0  0  0  0  0  0  0  0  0
    8.5600    1.3690   20.9660 O   0  0  0  0  0  0  0  0  0  0  0  0
    6.8300   -0.2780   20.9450 N   0  0  0  0  0  0  0  0  0  0  0  0
    6.1950    0.3380   19.9190 C   0  0  0  0  0  0  0  0  0  0  0  0
    5.0310    1.0560   19.9900 C   0  0  0  0  0  0  0  0  0  0  0  0
    4.4590    1.6900   18.9110 C   0  0  0  0  0  0  0  0  0  0  0  0
    5.0790    1.6140   17.6590 C   0  0  0  0  0  0  0  0  0  0  0  0
    6.2940    0.8420   17.5920 N   0  0  0  0  0  0  0  0  0  0  0  0
    6.7910    0.2490   18.6950 C   0  0  0  0  0  0  0  0  0  0  0  0
  1  2  1  0
  2  3  1  0
  3  4  1  0
  4  5  2  0
  4  6  1  0
  6  7  1  0
  7  8  1  0
  8  9  1  0
  9 10  2  0
 10 11  1  0
  8 12  2  0
 11 12  1  0
  6 13  2  0
 12 13  1  0
 13 14  1  0
 14 15  1  0
 15 16  1  0
 16 17  2  0
 16 18  1  0
 18 19  1  0
 19 20  2  0
 20 21  1  0
 21 22  2  0
 22 23  1  0
 19 24  1  0
 23 24  2  0
M  END
