pyridine_urea_12
     RDKit          3D

 15 16  0  0  0  0  0  0  0  0999 V2000
    8.9190    1.3280   21.1970 O   0  0  0  0  0  0  0  0  0  0  0  0
    8.4080    0.2630   21.5640 C   0  0  0  0  0  0  0  0  0  0  0  0
    8.9040   -0.4630   22.6250 N   0  0  0  0  0  0  0  0  0  0  0  0
   10.2180   -1.0520   22.5140 C   0  0  0  0  0  0  0  0  0  0  0  0
   11.2350   -0.4950   23.5030 C   0  0  2  0  0  0  0  0  0  0  0  0
   12.1250    0.4550   23.1120 C   0  0  0  0  0  0  0  0  0  0  0  0
   12.7570   -0.8410   23.1350 C   0  0  2  0  0  0  0  0  0  0  0  0
   13.0000   -1.9810   21.6850 Br  0  0  0  0  0  0  0  0  0  0  0  0
    7.3050   -0.3590   21.0230 N   0  0  0  0  0  0  0  0  0  0  0  0
    6.5940    0.1590   20.0040 C   0  0  0  0  0  0  0  0  0  0  0  0
    5.3630    0.9330   20.3250 C   0  0  0  0  0  0  0  0  0  0  0  0
    4.5790    1.5150   19.3830 C   0  0  0  0  0  0  0  0  0  0  0  0
    5.1750    1.2370   18.0280 C   0  0  0  0  0  0  0  0  0  0  0  0
    6.2630    0.5470   17.7000 N   0  0  0  0  0  0  0  0  0  0  0  0
    6.9550    0.0170   18.7010 C   0  0  0  0  0  0  0  0  0  0  0  0
  1  2  2  0
  2  3  1  0
  3  4  1  0
  5  4  1  6
  5  6  1  0
  5  7  1  0
  6  7  1  0
  7  8  1  6
  2  9  1  0
  9 10  1  0
 10 11  2  0
 11 12  1  0
 12 13  2  0
 13 14  1  0
 10 15  1  0
 14 15  2  0
M  END
