pyridine_urea_5455
     RDKit          3D

 18 18  0  0  0  0  0  0  0  0999 V2000
   13.1330   -1.6910   25.1660 C   0  0  0  0  0  0  0  0  0  0  0  0
   13.3470   -2.9080   24.3380 C   0  0  0  0  0  0  0  0  0  0  0  0
   12.3920   -2.7400   23.1250 C   0  0  0  0  0  0  0  0  0  0  0  0
   12.0490   -1.3750   22.9450 N   0  0  0  0  0  0  0  0  0  0  0  0
   13.0390   -0.6170   22.3860 C   0  0  0  0  0  0  0  0  0  0  0  0
   12.8490    0.7750   22.9890 C   0  0  0  0  0  0  0  0  0  0  0  0
   10.8410   -0.9860   23.5310 C   0  0  0  0  0  0  0  0  0  0  0  0
   10.0470    0.1190   22.8610 C   0  0  0  0  0  0  0  0  0  0  0  0
    8.8320   -0.5290   22.5380 N   0  0  0  0  0  0  0  0  0  0  0  0
    8.2650    0.0900   21.4460 C   0  0  0  0  0  0  0  0  0  0  0  0
    8.7010    1.1810   21.0630 O   0  0  0  0  0  0  0  0  0  0  0  0
    7.2380   -0.6100   20.9190 N   0  0  0  0  0  0  0  0  0  0  0  0
    6.5000    0.0570   20.0240 C   0  0  0  0  0  0  0  0  0  0  0  0
    5.2140    0.8140   20.3210 C   0  0  0  0  0  0  0  0  0  0  0  0
    4.4960    1.5350   19.1960 C   0  0  0  0  0  0  0  0  0  0  0  0
    5.2210    1.3770   17.8740 C   0  0  0  0  0  0  0  0  0  0  0  0
    6.3550    0.6830   17.6860 N   0  0  0  0  0  0  0  0  0  0  0  0
    6.9400    0.0650   18.7180 C   0  0  0  0  0  0  0  0  0  0  0  0
  1  2  1  0
  2  3  1  0
  3  4  1  0
  4  5  1  0
  5  6  1  0
  4  7  1  0
  7  8  1  0
  8  9  1  0
  9 10  1  0
 10 11  2  0
 10 12  1  0
 12 13  1  0
 13 14  2  0
 14 15  1  0
 15 16  2  0
 16 17  1  0
 13 18  1  0
 17 18  2  0
M  END
