pyridine_urea_14560
     RDKit          3D

 23 25  0  0  0  0  0  0  0  0999 V2000
    8.6410    1.2430   21.0340 O   0  0  0  0  0  0  0  0  0  0  0  0
    8.3570    0.0550   21.2420 C   0  0  0  0  0  0  0  0  0  0  0  0
    7.1400   -0.5050   20.9450 N   0  0  0  0  0  0  0  0  0  0  0  0
    6.3610    0.1280   19.9920 C   0  0  0  0  0  0  0  0  0  0  0  0
    5.1670    0.7990   20.2070 C   0  0  0  0  0  0  0  0  0  0  0  0
    4.5320    1.4110   19.1300 C   0  0  0  0  0  0  0  0  0  0  0  0
    5.1250    1.3220   17.8870 C   0  0  0  0  0  0  0  0  0  0  0  0
    6.2700    0.6660   17.6580 N   0  0  0  0  0  0  0  0  0  0  0  0
    6.8500    0.0900   18.7100 C   0  0  0  0  0  0  0  0  0  0  0  0
    9.2240   -0.8410   21.7840 N   0  0  0  0  0  0  0  0  0  0  0  0
   10.1990   -0.4220   22.6650 C   0  0  1  0  0  0  0  0  0  0  0  0
    9.6570   -0.3890   23.9480 C   0  0  0  0  0  0  0  0  0  0  0  0
   10.3820   -0.0920   25.1020 C   0  0  0  0  0  0  0  0  0  0  0  0
    9.7250   -0.0790   26.3500 C   0  0  0  0  0  0  0  0  0  0  0  0
    8.3710   -0.3470   26.4670 C   0  0  0  0  0  0  0  0  0  0  0  0
    7.6100   -0.6630   25.2540 C   0  0  0  0  0  0  0  0  0  0  0  0
    6.2820   -0.9290   25.4070 F   0  0  0  0  0  0  0  0  0  0  0  0
    8.2720   -0.6770   24.0300 C   0  0  0  0  0  0  0  0  0  0  0  0
   11.4830   -0.9700   22.6440 C   0  0  0  0  0  0  0  0  0  0  0  0
   11.8830   -1.6670   23.7680 C   0  0  0  0  0  0  0  0  0  0  0  0
   12.8210   -0.8830   24.3880 C   0  0  0  0  0  0  0  0  0  0  0  0
   12.8710    0.2730   23.6690 C   0  0  0  0  0  0  0  0  0  0  0  0
   12.3770    0.0750   22.4470 C   0  0  0  0  0  0  0  0  0  0  0  0
  1  2  2  0
  2  3  1  0
  3  4  1  0
  4  5  2  0
  5  6  1  0
  6  7  2  0
  7  8  1  0
  4  9  1  0
  8  9  2  0
  2 10  1  0
 11 10  1  6
 11 12  1  0
 12 13  2  0
 13 14  1  0
 14 15  2  0
 15 16  1  0
 16 17  1  0
 12 18  1  0
 16 18  2  0
 11 19  1  0
 19 20  1  0
 20 21  1  0
 21 22  1  0
 19 23  1  0
 22 23  1  0
M  END
