pyridine_urea_3997
     RDKit          3D

 27 29  0  0  0  0  0  0  0  0999 V2000
    8.6070    1.3780   20.9950 O   0  0  0  0  0  0  0  0  0  0  0  0
    7.9750    0.5170   21.6280 C   0  0  0  0  0  0  0  0  0  0  0  0
    6.9970   -0.2790   21.1280 N   0  0  0  0  0  0  0  0  0  0  0  0
    6.3640    0.2200   20.0110 C   0  0  0  0  0  0  0  0  0  0  0  0
    5.1800    0.9240   20.1980 C   0  0  0  0  0  0  0  0  0  0  0  0
    4.5360    1.4700   19.0980 C   0  0  0  0  0  0  0  0  0  0  0  0
    5.1150    1.2830   17.8660 C   0  0  0  0  0  0  0  0  0  0  0  0
    6.2440    0.5980   17.6610 N   0  0  0  0  0  0  0  0  0  0  0  0
    6.8490    0.0770   18.7390 C   0  0  0  0  0  0  0  0  0  0  0  0
    8.2620    0.3250   22.9360 N   0  0  0  0  0  0  0  0  0  0  0  0
    9.6640    0.5010   23.0280 C   0  0  1  0  0  0  0  0  0  0  0  0
   10.3100    0.7900   24.3490 C   0  0  0  0  0  0  0  0  0  0  0  0
   11.6280    0.8960   23.9880 C   0  0  0  0  0  0  0  0  0  0  0  0
   12.2500   -0.3290   24.1440 C   0  0  0  0  0  0  0  0  0  0  0  0
   12.8190   -0.7570   25.3110 C   0  0  0  0  0  0  0  0  0  0  0  0
   13.4370   -1.9650   25.5030 C   0  0  0  0  0  0  0  0  0  0  0  0
   13.5780   -2.9180   24.5720 C   0  0  0  0  0  0  0  0  0  0  0  0
   13.0300   -2.6200   23.2370 C   0  0  0  0  0  0  0  0  0  0  0  0
   12.3490   -1.3050   22.9950 C   0  0  0  0  0  0  0  0  0  0  0  0
   10.2500   -0.7000   22.3490 C   0  0  0  0  0  0  0  0  0  0  0  0
    9.7780   -1.8110   21.7810 C   0  0  0  0  0  0  0  0  0  0  0  0
   10.9300   -2.5990   21.2800 C   0  0  0  0  0  0  0  0  0  0  0  0
   12.3720   -2.2810   21.3660 C   0  0  0  0  0  0  0  0  0  0  0  0
   13.4220   -3.4290   20.6880 Cl  0  0  0  0  0  0  0  0  0  0  0  0
   12.5580   -1.0500   22.0040 C   0  0  0  0  0  0  0  0  0  0  0  0
   13.5830    0.1730   22.5700 Cl  0  0  0  0  0  0  0  0  0  0  0  0
   11.3440   -1.1610   22.0300 C   0  0  0  0  0  0  0  0  0  0  0  0
  1  2  2  0
  2  3  1  0
  3  4  1  0
  4  5  2  0
  5  6  1  0
  6  7  2  0
  7  8  1  0
  4  9  1  0
  8  9  2  0
  2 10  1  0
 10 11  1  0
 11 12  1  1
 12 13  1  0
 13 14  1  0
 14 15  2  0
 15 16  1  0
 16 17  2  0
 17 18  1  0
 14 19  1  0
 18 19  2  0
 11 20  1  0
 20 21  2  0
 21 22  1  0
 22 23  2  0
 23 24  1  0
 23 25  1  0
 25 26  1  0
 20 27  1  0
 25 27  2  0
M  END
