pyridine_urea_1560
     RDKit          3D

 19 20  0  0  0  0  0  0  0  0999 V2000
    9.1570    1.2820   21.2770 O   0  0  0  0  0  0  0  0  0  0  0  0
    8.6400    0.2360   21.6860 C   0  0  0  0  0  0  0  0  0  0  0  0
    7.5470   -0.3970   21.1140 N   0  0  0  0  0  0  0  0  0  0  0  0
    6.7370    0.1350   20.0840 C   0  0  0  0  0  0  0  0  0  0  0  0
    5.5980    0.8820   20.4140 C   0  0  0  0  0  0  0  0  0  0  0  0
    4.7990    1.4290   19.4050 C   0  0  0  0  0  0  0  0  0  0  0  0
    5.1700    1.2100   18.0950 C   0  0  0  0  0  0  0  0  0  0  0  0
    6.2450    0.4950   17.7480 N   0  0  0  0  0  0  0  0  0  0  0  0
    7.0010   -0.0270   18.7400 C   0  0  0  0  0  0  0  0  0  0  0  0
    9.0940   -0.4220   22.8290 N   0  0  0  0  0  0  0  0  0  0  0  0
   10.4990   -0.8160   23.1390 C   0  0  1  0  0  0  0  0  0  0  0  0
   10.9840   -1.8960   22.1510 C   0  0  0  0  0  0  0  0  0  0  0  0
    9.9680   -2.9000   22.0410 O   0  0  0  0  0  0  0  0  0  0  0  0
   11.4710    0.3800   23.3490 C   0  0  0  0  0  0  0  0  0  0  0  0
   11.1960    1.5450   23.9080 C   0  0  0  0  0  0  0  0  0  0  0  0
   12.2630    0.9100   23.3420 C   0  0  0  0  0  0  0  0  0  0  0  0
   11.8000   -0.4630   22.9210 C   0  0  0  0  0  0  0  0  0  0  0  0
   12.9660   -0.5460   22.5500 N   0  0  0  0  0  0  0  0  0  0  0  0
   12.9550    0.6150   23.0170 C   0  0  0  0  0  0  0  0  0  0  0  0
  1  2  2  0
  2  3  1  0
  3  4  1  0
  4  5  2  0
  5  6  1  0
  6  7  2  0
  7  8  1  0
  4  9  1  0
  8  9  2  0
  2 10  1  0
 10 11  1  0
 11 12  1  6
 12 13  1  0
 11 14  1  0
 14 15  2  0
 15 16  1  0
 16 17  2  0
 17 18  1  0
 14 19  1  0
 18 19  2  0
M  END
