pyridine_urea_7075
     RDKit          3D

 19 20  0  0  0  0  0  0  0  0999 V2000
   11.8050    1.3400   23.3340 C   0  0  0  0  0  0  0  0  0  0  0  0
   10.5080    0.6430   22.8890 C   0  0  0  0  0  0  0  0  0  0  0  0
   10.3450   -0.7160   23.0600 C   0  0  1  0  0  0  0  0  0  0  0  0
    9.0050   -1.1810   22.6650 N   0  0  0  0  0  0  0  0  0  0  0  0
    8.2970   -0.3760   21.6500 C   0  0  0  0  0  0  0  0  0  0  0  0
    8.8460    0.7010   21.3650 O   0  0  0  0  0  0  0  0  0  0  0  0
    7.1060   -0.8550   21.1210 N   0  0  0  0  0  0  0  0  0  0  0  0
    6.4620   -0.1000   20.0510 C   0  0  0  0  0  0  0  0  0  0  0  0
    5.2950    0.6360   20.2870 C   0  0  0  0  0  0  0  0  0  0  0  0
    4.6610    1.4210   19.1250 C   0  0  0  0  0  0  0  0  0  0  0  0
    5.2050    1.4250   17.8570 C   0  0  0  0  0  0  0  0  0  0  0  0
    6.3350    0.6720   17.7420 N   0  0  0  0  0  0  0  0  0  0  0  0
    6.9750   -0.0740   18.7430 C   0  0  0  0  0  0  0  0  0  0  0  0
   11.4090   -1.4640   22.3580 C   0  0  1  0  0  0  0  0  0  0  0  0
   12.6160   -0.8240   22.5310 C   0  0  0  0  0  0  0  0  0  0  0  0
   12.8550   -0.4980   23.9320 C   0  0  0  0  0  0  0  0  0  0  0  0
   12.5210   -1.6030   24.6790 C   0  0  0  0  0  0  0  0  0  0  0  0
   12.2450   -2.7080   23.8850 C   0  0  0  0  0  0  0  0  0  0  0  0
   11.4970   -2.5690   22.8970 O   0  0  0  0  0  0  0  0  0  0  0  0
  1  2  1  0
  3  2  1  6
  3  4  1  0
  4  5  1  0
  5  6  2  0
  5  7  1  0
  7  8  1  0
  8  9  2  0
  9 10  1  0
 10 11  2  0
 11 12  1  0
  8 13  1  0
 12 13  2  0
  3 14  1  0
 14 15  1  1
 15 16  1  0
 16 17  1  0
 17 18  1  0
 14 19  1  0
 18 19  1  0
M  END
