pyridine_urea_9976
     RDKit          3D

 24 26  0  0  0  0  0  0  0  0999 V2000
   10.9760   -2.1500   22.0850 C   0  0  0  0  0  0  0  0  0  0  0  0
    9.4760   -1.9270   22.0650 C   0  0  2  0  0  0  0  0  0  0  0  0
    9.1680   -0.6020   22.5630 N   0  0  0  0  0  0  0  0  0  0  0  0
    8.4250    0.1920   21.6060 C   0  0  0  0  0  0  0  0  0  0  0  0
    9.0010    1.4530   21.2110 O   0  0  0  0  0  0  0  0  0  0  0  0
    7.2290   -0.3410   21.1710 N   0  0  0  0  0  0  0  0  0  0  0  0
    6.5090    0.2400   20.0600 C   0  0  0  0  0  0  0  0  0  0  0  0
    5.3620    0.9910   20.3250 C   0  0  0  0  0  0  0  0  0  0  0  0
    4.6760    1.5770   19.2730 C   0  0  0  0  0  0  0  0  0  0  0  0
    5.1780    1.3990   17.8530 C   0  0  0  0  0  0  0  0  0  0  0  0
    6.2920    0.6490   17.6500 N   0  0  0  0  0  0  0  0  0  0  0  0
    6.9480    0.0740   18.7430 C   0  0  0  0  0  0  0  0  0  0  0  0
    8.6670   -2.9420   22.8110 C   0  0  0  0  0  0  0  0  0  0  0  0
    8.5410   -3.2780   24.1640 N   0  0  0  0  0  0  0  0  0  0  0  0
    7.6270   -4.3200   24.2330 C   0  0  0  0  0  0  0  0  0  0  0  0
    7.3250   -4.8570   25.4630 C   0  0  0  0  0  0  0  0  0  0  0  0
    5.9450   -5.2320   25.8750 C   0  0  0  0  0  0  0  0  0  0  0  0
    5.7520   -5.7660   27.1540 C   0  0  0  0  0  0  0  0  0  0  0  0
    6.8440   -5.9350   28.0150 C   0  0  0  0  0  0  0  0  0  0  0  0
    8.1270   -5.5730   27.5960 C   0  0  0  0  0  0  0  0  0  0  0  0
    9.1600   -5.7250   28.3970 F   0  0  0  0  0  0  0  0  0  0  0  0
    8.3680   -5.0480   26.3510 C   0  0  0  0  0  0  0  0  0  0  0  0
    7.1260   -4.7070   23.0530 N   0  0  0  0  0  0  0  0  0  0  0  0
    7.7670   -3.8460   22.1090 O   0  0  0  0  0  0  0  0  0  0  0  0
  2  1  1  1
  2  3  1  0
  3  4  1  0
  4  5  2  0
  4  6  1  0
  6  7  1  0
  7  8  2  0
  8  9  1  0
  9 10  2  0
 10 11  1  0
  7 12  1  0
 11 12  2  0
  2 13  1  0
 13 14  2  0
 14 15  1  0
 15 16  1  0
 16 17  2  0
 17 18  1  0
 18 19  2  0
 19 20  1  0
 20 21  1  0
 16 22  1  0
 20 22  2  0
 15 23  2  0
 13 24  1  0
 23 24  1  0
M  END
