pyridine_urea_9918
     RDKit          3D

 25 27  0  0  0  0  0  0  0  0999 V2000
   11.8930    0.9850   23.7020 C   0  0  0  0  0  0  0  0  0  0  0  0
   10.3640    0.9080   23.7830 C   0  0  0  0  0  0  0  0  0  0  0  0
    9.8960   -0.5250   23.5790 C   0  0  1  0  0  0  0  0  0  0  0  0
    8.6650   -0.7040   23.0370 N   0  0  0  0  0  0  0  0  0  0  0  0
    8.3780   -0.1310   21.8370 C   0  0  0  0  0  0  0  0  0  0  0  0
    9.0120    0.8060   21.3770 O   0  0  0  0  0  0  0  0  0  0  0  0
    7.2240   -0.7690   21.2120 N   0  0  0  0  0  0  0  0  0  0  0  0
    6.5560   -0.1130   20.1960 C   0  0  0  0  0  0  0  0  0  0  0  0
    5.2950    0.7270   20.4560 C   0  0  0  0  0  0  0  0  0  0  0  0
    4.6030    1.4430   19.2830 C   0  0  0  0  0  0  0  0  0  0  0  0
    5.1630    1.2920   18.0240 C   0  0  0  0  0  0  0  0  0  0  0  0
    6.2500    0.5710   17.7410 N   0  0  0  0  0  0  0  0  0  0  0  0
    6.9070   -0.0840   18.7140 C   0  0  0  0  0  0  0  0  0  0  0  0
   10.7850   -1.2480   22.6270 C   0  0  0  0  0  0  0  0  0  0  0  0
   10.3590   -2.1940   21.8440 C   0  0  0  0  0  0  0  0  0  0  0  0
   11.5500   -2.5630   21.1250 C   0  0  0  0  0  0  0  0  0  0  0  0
   12.9660   -1.9120   21.3210 C   0  0  0  0  0  0  0  0  0  0  0  0
   13.9280   -2.4460   20.4590 O   0  0  0  0  0  0  0  0  0  0  0  0
   14.2960   -3.8750   20.3910 C   0  0  0  0  0  0  0  0  0  0  0  0
   15.4150   -4.2840   19.4700 C   0  0  0  0  0  0  0  0  0  0  0  0
   15.3260   -5.5470   19.3680 C   0  0  0  0  0  0  0  0  0  0  0  0
   14.3520   -5.5790   20.2470 C   0  0  0  0  0  0  0  0  0  0  0  0
   13.3930   -4.5480   19.8900 C   0  0  0  0  0  0  0  0  0  0  0  0
   13.1360   -0.8340   22.3360 C   0  0  0  0  0  0  0  0  0  0  0  0
   12.0030   -1.3310   22.1900 C   0  0  0  0  0  0  0  0  0  0  0  0
  1  2  1  0
  3  2  1  6
  3  4  1  0
  4  5  1  0
  5  6  2  0
  5  7  1  0
  7  8  1  0
  8  9  2  0
  9 10  1  0
 10 11  2  0
 11 12  1  0
  8 13  1  0
 12 13  2  0
  3 14  1  0
 14 15  2  0
 15 16  1  0
 16 17  2  0
 17 18  1  0
 18 19  1  0
 19 20  1  0
 20 21  1  0
 21 22  1  0
 19 23  1  0
 22 23  1  0
 17 24  1  0
 14 25  1  0
 24 25  2  0
M  END
