pyridine_urea_11287
     RDKit          3D

 16 16  0  0  0  0  0  0  0  0999 V2000
   11.1190   -2.1390   22.1730 C   0  0  0  0  0  0  0  0  0  0  0  0
   10.4720   -1.1460   22.1840 C   0  0  1  0  0  0  0  0  0  0  0  0
    9.0360   -1.3520   22.3070 N   0  0  0  0  0  0  0  0  0  0  0  0
    8.3260   -0.3240   21.5720 C   0  0  0  0  0  0  0  0  0  0  0  0
    8.8880    0.9730   21.3790 O   0  0  0  0  0  0  0  0  0  0  0  0
    7.0470   -0.7400   21.0660 N   0  0  0  0  0  0  0  0  0  0  0  0
    6.4830   -0.0990   20.0210 C   0  0  0  0  0  0  0  0  0  0  0  0
    5.3420    0.6020   20.3050 C   0  0  0  0  0  0  0  0  0  0  0  0
    4.5760    1.4120   19.2560 C   0  0  0  0  0  0  0  0  0  0  0  0
    5.1360    1.4050   17.8950 C   0  0  0  0  0  0  0  0  0  0  0  0
    6.2870    0.6550   17.7290 N   0  0  0  0  0  0  0  0  0  0  0  0
    6.9560   -0.0800   18.7280 C   0  0  0  0  0  0  0  0  0  0  0  0
   10.8100   -0.1910   23.3210 C   0  0  0  0  0  0  0  0  0  0  0  0
   12.0560    0.3340   23.1490 F   0  0  0  0  0  0  0  0  0  0  0  0
   10.8200   -0.9270   24.4560 F   0  0  0  0  0  0  0  0  0  0  0  0
    9.9280    0.8450   23.4050 F   0  0  0  0  0  0  0  0  0  0  0  0
  2  1  1  1
  2  3  1  0
  3  4  1  0
  4  5  2  0
  4  6  1  0
  6  7  1  0
  7  8  2  0
  8  9  1  0
  9 10  2  0
 10 11  1  0
  7 12  1  0
 11 12  2  0
  2 13  1  0
 13 14  1  0
 13 15  1  0
 13 16  1  0
M  END
