pyridine_urea_5975
     RDKit          3D

 26 28  0  0  0  0  0  0  0  0999 V2000
   13.1100    4.4900   22.3400 C   0  0  0  0  0  0  0  0  0  0  0  0
   13.3700    3.1710   22.8370 O   0  0  0  0  0  0  0  0  0  0  0  0
   12.2820    2.3710   22.8680 C   0  0  0  0  0  0  0  0  0  0  0  0
   11.2090    2.4880   23.0650 C   0  0  0  0  0  0  0  0  0  0  0  0
   11.2350    1.0830   22.7910 C   0  0  0  0  0  0  0  0  0  0  0  0
   10.4910    0.0600   22.7070 C   0  0  0  0  0  0  0  0  0  0  0  0
   10.0300    1.2970   23.0160 C   0  0  0  0  0  0  0  0  0  0  0  0
   11.7910    1.0060   22.6820 C   0  0  0  0  0  0  0  0  0  0  0  0
   11.0880   -0.3510   22.5310 C   0  0  2  0  0  0  0  0  0  0  0  0
    9.9390   -0.5860   23.2830 C   0  0  0  0  0  0  0  0  0  0  0  0
    8.8190   -0.8980   22.4630 N   0  0  0  0  0  0  0  0  0  0  0  0
    8.2780   -0.0630   21.4900 C   0  0  0  0  0  0  0  0  0  0  0  0
    8.8460    1.2130   21.1390 O   0  0  0  0  0  0  0  0  0  0  0  0
    7.1320   -0.6090   20.9490 N   0  0  0  0  0  0  0  0  0  0  0  0
    6.3930    0.0550   20.0140 C   0  0  0  0  0  0  0  0  0  0  0  0
    5.2090    0.7420   20.2610 C   0  0  0  0  0  0  0  0  0  0  0  0
    4.5910    1.3800   19.2000 C   0  0  0  0  0  0  0  0  0  0  0  0
    5.1830    1.3000   17.9560 C   0  0  0  0  0  0  0  0  0  0  0  0
    6.3100    0.6450   17.6830 N   0  0  0  0  0  0  0  0  0  0  0  0
    6.8870    0.0360   18.7260 C   0  0  0  0  0  0  0  0  0  0  0  0
   11.9730   -1.3470   22.5710 N   0  0  0  0  0  0  0  0  0  0  0  0
   13.1830   -1.0900   23.2830 C   0  0  0  0  0  0  0  0  0  0  0  0
   13.5110   -2.2120   24.0490 C   0  0  0  0  0  0  0  0  0  0  0  0
   12.4500   -2.6850   24.7870 C   0  0  0  0  0  0  0  0  0  0  0  0
   11.2310   -2.8450   24.1340 C   0  0  0  0  0  0  0  0  0  0  0  0
   11.4200   -2.6310   22.7800 C   0  0  0  0  0  0  0  0  0  0  0  0
  1  2  1  0
  2  3  1  0
  3  4  2  0
  4  5  1  0
  5  6  2  0
  6  7  1  0
  3  8  1  0
  7  8  2  0
  8  9  1  0
  9 10  1  1
 10 11  1  0
 11 12  1  0
 12 13  2  0
 12 14  1  0
 14 15  1  0
 15 16  2  0
 16 17  1  0
 17 18  2  0
 18 19  1  0
 15 20  1  0
 19 20  2  0
  9 21  1  0
 21 22  1  0
 22 23  1  0
 23 24  1  0
 24 25  1  0
 21 26  1  0
 25 26  1  0
M  END
