pyridine_urea_9556
     RDKit          3D

 17 19  0  0  0  0  0  0  0  0999 V2000
    8.7510    0.6780   21.2660 O   0  0  0  0  0  0  0  0  0  0  0  0
    8.2910   -0.4190   21.5630 C   0  0  0  0  0  0  0  0  0  0  0  0
    7.1030   -0.9100   21.0660 N   0  0  0  0  0  0  0  0  0  0  0  0
    6.4590   -0.1480   20.0250 C   0  0  0  0  0  0  0  0  0  0  0  0
    5.1840    0.6150   20.3860 C   0  0  0  0  0  0  0  0  0  0  0  0
    4.5110    1.4280   19.2780 C   0  0  0  0  0  0  0  0  0  0  0  0
    5.2000    1.3860   17.9170 C   0  0  0  0  0  0  0  0  0  0  0  0
    6.3670    0.6310   17.7510 N   0  0  0  0  0  0  0  0  0  0  0  0
    6.9570   -0.0950   18.7480 C   0  0  0  0  0  0  0  0  0  0  0  0
    8.9040   -1.2920   22.4440 N   0  0  0  0  0  0  0  0  0  0  0  0
    9.8590   -0.7220   23.2960 C   0  0  1  0  0  0  0  0  0  0  0  0
   10.7700   -1.3950   24.0750 C   0  0  0  0  0  0  0  0  0  0  0  0
   11.6620   -0.6490   23.4210 C   0  0  1  0  0  0  0  0  0  0  0  0
   10.9720   -0.1400   22.3630 C   0  0  0  0  0  0  0  0  0  0  0  0
   12.9300   -0.0230   23.7710 C   0  0  0  0  0  0  0  0  0  0  0  0
   12.7350   -1.1450   22.6950 C   0  0  1  0  0  0  0  0  0  0  0  0
   13.3360   -2.3010   23.0530 F   0  0  0  0  0  0  0  0  0  0  0  0
  1  2  2  0
  2  3  1  0
  3  4  1  0
  4  5  2  0
  5  6  1  0
  6  7  2  0
  7  8  1  0
  4  9  1  0
  8  9  2  0
  2 10  1  0
 11 10  1  6
 11 12  1  0
 13 12  1  1
 11 14  1  0
 13 14  1  0
 13 15  1  0
 13 16  1  0
 15 16  1  0
 16 17  1  1
M  END
