pyridine_urea_9300
     RDKit          3D

 17 18  0  0  0  0  0  0  0  0999 V2000
    9.8400   -2.6230   23.3430 C   0  0  0  0  0  0  0  0  0  0  0  0
   10.4280   -1.4170   22.6690 C   0  0  2  0  0  0  0  0  0  0  0  0
    9.5360   -1.1370   21.5450 N   0  0  0  0  0  0  0  0  0  0  0  0
    8.6550   -0.0810   21.4880 C   0  0  0  0  0  0  0  0  0  0  0  0
    9.0140    1.0690   21.6710 O   0  0  0  0  0  0  0  0  0  0  0  0
    7.3700   -0.4810   21.1640 N   0  0  0  0  0  0  0  0  0  0  0  0
    6.6270    0.0860   20.1140 C   0  0  0  0  0  0  0  0  0  0  0  0
    5.4970    0.8320   20.3880 C   0  0  0  0  0  0  0  0  0  0  0  0
    4.7590    1.4140   19.3760 C   0  0  0  0  0  0  0  0  0  0  0  0
    5.1620    1.2440   18.0730 C   0  0  0  0  0  0  0  0  0  0  0  0
    6.2420    0.5250   17.7380 N   0  0  0  0  0  0  0  0  0  0  0  0
    6.9490   -0.0390   18.7640 C   0  0  0  0  0  0  0  0  0  0  0  0
   11.8020   -1.7500   22.0760 C   0  0  0  0  0  0  0  0  0  0  0  0
   12.7800   -0.8290   22.4390 C   0  0  0  0  0  0  0  0  0  0  0  0
   12.1070    0.1270   23.1540 C   0  0  0  0  0  0  0  0  0  0  0  0
   10.8800   -0.4190   23.5240 C   0  0  2  0  0  0  0  0  0  0  0  0
   10.8990   -1.0850   24.7210 O   0  0  0  0  0  0  0  0  0  0  0  0
  2  1  1  1
  2  3  1  0
  3  4  1  0
  4  5  2  0
  4  6  1  0
  6  7  1  0
  7  8  2  0
  8  9  1  0
  9 10  2  0
 10 11  1  0
  7 12  1  0
 11 12  2  0
  2 13  1  0
 13 14  1  0
 14 15  1  0
  2 16  1  0
 15 16  1  0
 16 17  1  1
M  END
