pyridine_urea_5300
     RDKit          3D

 19 21  0  0  0  0  0  0  0  0999 V2000
    8.9420    1.1920   21.1660 O   0  0  0  0  0  0  0  0  0  0  0  0
    8.5950    0.0230   21.3730 C   0  0  0  0  0  0  0  0  0  0  0  0
    7.3530   -0.4760   21.0650 N   0  0  0  0  0  0  0  0  0  0  0  0
    6.5840    0.0830   20.0370 C   0  0  0  0  0  0  0  0  0  0  0  0
    5.4060    0.7730   20.3480 C   0  0  0  0  0  0  0  0  0  0  0  0
    4.6570    1.3550   19.3230 C   0  0  0  0  0  0  0  0  0  0  0  0
    5.1160    1.2230   18.0340 C   0  0  0  0  0  0  0  0  0  0  0  0
    6.2330    0.5590   17.7100 N   0  0  0  0  0  0  0  0  0  0  0  0
    6.9360    0.0060   18.7120 C   0  0  0  0  0  0  0  0  0  0  0  0
    9.4540   -0.9130   21.9190 N   0  0  0  0  0  0  0  0  0  0  0  0
   10.5670   -0.4630   22.7460 C   0  0  0  0  0  0  0  0  0  0  0  0
   10.3970    1.0680   22.9080 C   0  0  0  0  0  0  0  0  0  0  0  0
    9.1950    1.5210   23.2970 N   0  0  0  0  0  0  0  0  0  0  0  0
    9.2820    2.8600   23.3760 N   0  0  0  0  0  0  0  0  0  0  0  0
   10.5210    3.2630   23.0420 N   0  0  0  0  0  0  0  0  0  0  0  0
   11.2230    2.1440   22.7480 N   0  0  0  0  0  0  0  0  0  0  0  0
   10.7910   -1.2150   23.9890 C   0  0  0  0  0  0  0  0  0  0  0  0
   12.0960   -1.2030   23.6930 C   0  0  0  0  0  0  0  0  0  0  0  0
   11.9400   -0.7150   22.3940 C   0  0  0  0  0  0  0  0  0  0  0  0
  1  2  2  0
  2  3  1  0
  3  4  1  0
  4  5  2  0
  5  6  1  0
  6  7  2  0
  7  8  1  0
  4  9  1  0
  8  9  2  0
  2 10  1  0
 11 10  1  0
 11 12  1  0
 12 13  2  0
 13 14  1  0
 14 15  2  0
 12 16  1  0
 15 16  1  0
 11 17  1  0
 17 18  1  0
 11 19  1  0
 18 19  1  0
M  END
