pyridine_urea_14154
     RDKit          3D

 22 24  0  0  0  0  0  0  0  0999 V2000
   10.1370   -3.4190   23.8450 C   0  0  0  0  0  0  0  0  0  0  0  0
   11.7890   -3.2030   24.5520 S   0  0  0  0  0  0  0  0  0  0  0  0
   12.1250   -1.7400   23.6950 C   0  0  0  0  0  0  0  0  0  0  0  0
   13.3980   -1.1450   23.5720 C   0  0  0  0  0  0  0  0  0  0  0  0
   13.5480    0.0920   22.8190 C   0  0  0  0  0  0  0  0  0  0  0  0
   12.4220    0.5620   22.3050 C   0  0  0  0  0  0  0  0  0  0  0  0
   11.1110    0.1770   22.2900 C   0  0  0  0  0  0  0  0  0  0  0  0
   11.1610   -1.0240   23.0520 C   0  0  0  0  0  0  0  0  0  0  0  0
    9.7100    0.0830   22.0850 C   0  0  1  0  0  0  0  0  0  0  0  0
    9.1450   -1.0810   21.4940 N   0  0  0  0  0  0  0  0  0  0  0  0
    7.8090   -1.1670   21.7700 C   0  0  0  0  0  0  0  0  0  0  0  0
    6.6370   -0.9890   21.6420 O   0  0  0  0  0  0  0  0  0  0  0  0
    7.9400   -0.4580   20.6430 N   0  0  0  0  0  0  0  0  0  0  0  0
    6.9240    0.1610   19.9020 C   0  0  0  0  0  0  0  0  0  0  0  0
    5.8530    0.8670   20.4780 C   0  0  0  0  0  0  0  0  0  0  0  0
    4.9310    1.4380   19.6090 C   0  0  0  0  0  0  0  0  0  0  0  0
    5.0930    1.2970   18.2550 C   0  0  0  0  0  0  0  0  0  0  0  0
    6.1000    0.6240   17.6940 N   0  0  0  0  0  0  0  0  0  0  0  0
    6.9820    0.0770   18.5540 C   0  0  0  0  0  0  0  0  0  0  0  0
    9.6850    0.1160   23.3870 C   0  0  0  0  0  0  0  0  0  0  0  0
   11.0800   -0.0650   23.6940 C   0  0  0  0  0  0  0  0  0  0  0  0
   12.0850   -0.4480   22.8700 O   0  0  0  0  0  0  0  0  0  0  0  0
  1  2  1  0
  2  3  1  0
  3  4  2  0
  4  5  1  0
  5  6  2  0
  6  7  1  0
  3  8  1  0
  7  8  2  0
  7  9  1  0
  9 10  1  1
 10 11  1  0
 11 12  2  0
 11 13  1  0
 13 14  1  0
 14 15  2  0
 15 16  1  0
 16 17  2  0
 17 18  1  0
 14 19  1  0
 18 19  2  0
  9 20  1  0
 20 21  1  0
  6 22  1  0
 21 22  1  0
M  END
