pyridine_urea_4262
     RDKit          3D

 24 25  0  0  0  0  0  0  0  0999 V2000
    9.5770   -0.1580   24.8630 C   0  0  0  0  0  0  0  0  0  0  0  0
    9.3750   -0.3370   23.3530 C   0  0  2  0  0  0  0  0  0  0  0  0
    8.0520   -0.3090   22.8650 N   0  0  0  0  0  0  0  0  0  0  0  0
    7.9910    0.1630   21.5920 C   0  0  0  0  0  0  0  0  0  0  0  0
    8.7090    1.0860   21.1650 O   0  0  0  0  0  0  0  0  0  0  0  0
    7.0380   -0.5200   20.9140 N   0  0  0  0  0  0  0  0  0  0  0  0
    6.3780    0.1210   19.9020 C   0  0  0  0  0  0  0  0  0  0  0  0
    5.0650    0.8190   20.2100 C   0  0  0  0  0  0  0  0  0  0  0  0
    4.3720    1.5470   19.0820 C   0  0  0  0  0  0  0  0  0  0  0  0
    5.1300    1.4610   17.7700 C   0  0  0  0  0  0  0  0  0  0  0  0
    6.2920    0.8000   17.6050 N   0  0  0  0  0  0  0  0  0  0  0  0
    6.8670    0.1680   18.6350 C   0  0  0  0  0  0  0  0  0  0  0  0
   10.0430   -1.5570   22.8350 C   0  0  2  0  0  0  0  0  0  0  0  0
   10.2200   -2.6180   23.6740 C   0  0  0  0  0  0  0  0  0  0  0  0
   11.3130   -0.8940   22.8200 C   0  0  0  0  0  0  0  0  0  0  0  0
   11.9960   -1.8080   22.2500 C   0  0  0  0  0  0  0  0  0  0  0  0
   13.2700   -0.9750   22.2870 C   0  0  0  0  0  0  0  0  0  0  0  0
   13.2900    0.4320   22.8950 C   0  0  0  0  0  0  0  0  0  0  0  0
   12.1090    1.2270   23.5470 C   0  0  0  0  0  0  0  0  0  0  0  0
   12.0650    0.0640   23.0570 C   0  0  0  0  0  0  0  0  0  0  0  0
   13.2720   -0.2780   22.6580 C   0  0  0  0  0  0  0  0  0  0  0  0
   13.4710   -0.9250   21.4910 F   0  0  0  0  0  0  0  0  0  0  0  0
   14.0230    0.8310   22.6470 F   0  0  0  0  0  0  0  0  0  0  0  0
   13.7350   -1.1400   23.6140 F   0  0  0  0  0  0  0  0  0  0  0  0
  2  1  1  1
  2  3  1  0
  3  4  1  0
  4  5  2  0
  4  6  1  0
  6  7  1  0
  7  8  2  0
  8  9  1  0
  9 10  2  0
 10 11  1  0
  7 12  1  0
 11 12  2  0
  2 13  1  0
 13 14  1  1
 13 15  1  0
 15 16  2  0
 16 17  1  0
 17 18  2  0
 18 19  1  0
 15 20  1  0
 19 20  2  0
 20 21  1  0
 21 22  1  0
 21 23  1  0
 21 24  1  0
M  END
