pyridine_urea_6721
     RDKit          3D

 21 21  0  0  0  0  0  0  0  0999 V2000
    9.7740    1.7980   24.1670 C   0  0  0  0  0  0  0  0  0  0  0  0
   10.4800    0.8300   23.2010 C   0  0  0  0  0  0  0  0  0  0  0  0
   11.9870    0.9960   23.4680 C   0  0  0  0  0  0  0  0  0  0  0  0
    9.9180   -0.6230   23.3480 C   0  0  1  0  0  0  0  0  0  0  0  0
    8.5880   -0.7550   22.7710 N   0  0  0  0  0  0  0  0  0  0  0  0
    8.1950   -0.0880   21.6250 C   0  0  0  0  0  0  0  0  0  0  0  0
    8.7250    0.9250   21.1980 O   0  0  0  0  0  0  0  0  0  0  0  0
    7.1340   -0.7200   21.0770 N   0  0  0  0  0  0  0  0  0  0  0  0
    6.4560   -0.0350   20.1290 C   0  0  0  0  0  0  0  0  0  0  0  0
    5.3030    0.7220   20.3370 C   0  0  0  0  0  0  0  0  0  0  0  0
    4.6620    1.4040   19.2980 C   0  0  0  0  0  0  0  0  0  0  0  0
    5.2010    1.3170   18.0280 C   0  0  0  0  0  0  0  0  0  0  0  0
    6.3010    0.6200   17.7020 N   0  0  0  0  0  0  0  0  0  0  0  0
    6.9180   -0.0400   18.7110 C   0  0  0  0  0  0  0  0  0  0  0  0
   10.8930   -1.7040   22.8610 C   0  0  0  0  0  0  0  0  0  0  0  0
   11.1740   -1.7990   21.4790 O   0  0  0  0  0  0  0  0  0  0  0  0
   11.3370   -2.3980   23.7570 O   0  0  0  0  0  0  0  0  0  0  0  0
   12.5380   -1.7280   24.0920 C   0  0  0  0  0  0  0  0  0  0  0  0
   13.5740   -2.7540   24.4980 C   0  0  0  0  0  0  0  0  0  0  0  0
   12.4020   -0.6430   25.1300 C   0  0  0  0  0  0  0  0  0  0  0  0
   13.2950   -1.2990   22.8360 C   0  0  0  0  0  0  0  0  0  0  0  0
  1  2  1  0
  2  3  1  0
  2  4  1  0
  4  5  1  6
  5  6  1  0
  6  7  2  0
  6  8  1  0
  8  9  1  0
  9 10  2  0
 10 11  1  0
 11 12  2  0
 12 13  1  0
  9 14  1  0
 13 14  2  0
  4 15  1  0
 15 16  2  0
 15 17  1  0
 18 17  1  0
 18 19  1  0
 18 20  1  0
 18 21  1  0
M  END
