pyridine_urea_10854
     RDKit          3D

 20 21  0  0  0  0  0  0  0  0999 V2000
    8.6440    2.5630   24.3890 C   0  0  0  0  0  0  0  0  0  0  0  0
    8.9440    1.9690   23.0490 C   0  0  0  0  0  0  0  0  0  0  0  0
    8.8040    2.7840   21.9180 C   0  0  0  0  0  0  0  0  0  0  0  0
   10.4140    1.4970   23.1050 C   0  0  0  0  0  0  0  0  0  0  0  0
   10.6250    0.1220   23.3540 C   0  0  0  0  0  0  0  0  0  0  0  0
    9.4800   -0.6160   23.9460 C   0  0  0  0  0  0  0  0  0  0  0  0
    8.5860   -1.0740   22.8840 N   0  0  0  0  0  0  0  0  0  0  0  0
    8.2470   -0.4320   21.7150 C   0  0  0  0  0  0  0  0  0  0  0  0
    8.9490    0.4560   21.2730 O   0  0  0  0  0  0  0  0  0  0  0  0
    7.0050   -0.8890   21.0980 N   0  0  0  0  0  0  0  0  0  0  0  0
    6.4400   -0.1530   20.0660 C   0  0  0  0  0  0  0  0  0  0  0  0
    5.2870    0.5830   20.3200 C   0  0  0  0  0  0  0  0  0  0  0  0
    4.6990    1.3330   19.2910 C   0  0  0  0  0  0  0  0  0  0  0  0
    5.2910    1.3190   18.0380 C   0  0  0  0  0  0  0  0  0  0  0  0
    6.4010    0.6160   17.7730 N   0  0  0  0  0  0  0  0  0  0  0  0
    6.9490   -0.1020   18.7820 C   0  0  0  0  0  0  0  0  0  0  0  0
   11.8320    0.1540   24.3320 C   0  0  0  0  0  0  0  0  0  0  0  0
   12.9560   -0.2400   23.6370 C   0  0  0  0  0  0  0  0  0  0  0  0
   12.5980   -0.7920   22.4590 C   0  0  0  0  0  0  0  0  0  0  0  0
   11.2140   -0.7010   22.3750 C   0  0  0  0  0  0  0  0  0  0  0  0
  1  2  1  0
  2  3  1  0
  2  4  1  0
  5  4  1  0
  5  6  1  0
  6  7  1  0
  7  8  1  0
  8  9  2  0
  8 10  1  0
 10 11  1  0
 11 12  2  0
 12 13  1  0
 13 14  2  0
 14 15  1  0
 11 16  1  0
 15 16  2  0
  5 17  1  0
 17 18  1  0
 18 19  1  0
  5 20  1  0
 19 20  1  0
M  END
