pyridine_urea_13576
     RDKit          3D

 29 31  0  0  0  0  0  0  0  0999 V2000
    8.7800    1.1380   21.1120 O   0  0  0  0  0  0  0  0  0  0  0  0
    8.4090   -0.0280   21.3010 C   0  0  0  0  0  0  0  0  0  0  0  0
    7.1930   -0.5510   20.9590 N   0  0  0  0  0  0  0  0  0  0  0  0
    6.3980    0.1030   20.0360 C   0  0  0  0  0  0  0  0  0  0  0  0
    5.0750    0.8060   20.3600 C   0  0  0  0  0  0  0  0  0  0  0  0
    4.4280    1.4730   19.1530 C   0  0  0  0  0  0  0  0  0  0  0  0
    5.1390    1.3630   17.8420 C   0  0  0  0  0  0  0  0  0  0  0  0
    6.2950    0.7060   17.6790 N   0  0  0  0  0  0  0  0  0  0  0  0
    6.8690    0.1160   18.7370 C   0  0  0  0  0  0  0  0  0  0  0  0
    9.2010   -0.9680   21.8790 N   0  0  0  0  0  0  0  0  0  0  0  0
   10.0040   -0.6200   23.0030 C   0  0  1  0  0  0  0  0  0  0  0  0
    9.9320   -1.6480   23.8720 C   0  0  0  0  0  0  0  0  0  0  0  0
   11.0840   -2.0310   24.5240 C   0  0  0  0  0  0  0  0  0  0  0  0
   11.0420   -3.1010   25.4040 C   0  0  0  0  0  0  0  0  0  0  0  0
    9.8360   -3.8020   25.6550 C   0  0  0  0  0  0  0  0  0  0  0  0
    9.8080   -5.1160   26.7520 Cl  0  0  0  0  0  0  0  0  0  0  0  0
    8.5860   -3.4910   25.0470 C   0  0  0  0  0  0  0  0  0  0  0  0
    8.7210   -2.3110   24.0910 C   0  0  0  0  0  0  0  0  0  0  0  0
   11.3410   -0.4110   22.8740 C   0  0  0  0  0  0  0  0  0  0  0  0
   12.6360    0.0780   22.7760 C   0  0  0  0  0  0  0  0  0  0  0  0
   13.1670    1.3450   22.8340 C   0  0  0  0  0  0  0  0  0  0  0  0
   12.5550    2.5610   23.0070 C   0  0  0  0  0  0  0  0  0  0  0  0
   11.1610    3.1690   23.2160 C   0  0  0  0  0  0  0  0  0  0  0  0
   10.4410    3.2770   22.0680 F   0  0  0  0  0  0  0  0  0  0  0  0
   11.2200    4.4400   23.7170 F   0  0  0  0  0  0  0  0  0  0  0  0
   10.3930    2.4520   24.0840 F   0  0  0  0  0  0  0  0  0  0  0  0
   11.1540    2.1410   23.1270 C   0  0  0  0  0  0  0  0  0  0  0  0
   10.1970    3.0960   23.3250 F   0  0  0  0  0  0  0  0  0  0  0  0
   10.6950    0.8440   23.0610 C   0  0  0  0  0  0  0  0  0  0  0  0
  1  2  2  0
  2  3  1  0
  3  4  1  0
  4  5  2  0
  5  6  1  0
  6  7  2  0
  7  8  1  0
  4  9  1  0
  8  9  2  0
  2 10  1  0
 11 10  1  6
 11 12  1  0
 12 13  2  0
 13 14  1  0
 14 15  2  0
 15 16  1  0
 15 17  1  0
 12 18  1  0
 17 18  2  0
 11 19  1  0
 19 20  2  0
 20 21  1  0
 21 22  2  0
 22 23  1  0
 23 24  1  0
 23 25  1  0
 23 26  1  0
 22 27  1  0
 27 28  1  0
 19 29  1  0
 27 29  2  0
M  END
