pyridine_urea_13675
     RDKit          3D

 26 29  0  0  0  0  0  0  0  0999 V2000
    8.5970    0.3370   20.9740 O   0  0  0  0  0  0  0  0  0  0  0  0
    8.1140   -0.6590   21.4850 C   0  0  0  0  0  0  0  0  0  0  0  0
    6.9240   -1.1330   21.0540 N   0  0  0  0  0  0  0  0  0  0  0  0
    6.2520   -0.3170   20.1160 C   0  0  0  0  0  0  0  0  0  0  0  0
    4.9460    0.4470   20.3900 C   0  0  0  0  0  0  0  0  0  0  0  0
    4.4350    1.2770   19.2110 C   0  0  0  0  0  0  0  0  0  0  0  0
    5.2350    1.2610   17.9490 C   0  0  0  0  0  0  0  0  0  0  0  0
    6.3690    0.5520   17.8080 N   0  0  0  0  0  0  0  0  0  0  0  0
    6.8320   -0.1870   18.8510 C   0  0  0  0  0  0  0  0  0  0  0  0
    8.7990   -1.2470   22.5380 N   0  0  0  0  0  0  0  0  0  0  0  0
    9.8130   -0.2760   22.6150 C   0  0  0  0  0  0  0  0  0  0  0  0
    9.1710    0.9710   22.6140 C   0  0  0  0  0  0  0  0  0  0  0  0
    9.7720    2.1950   22.5970 C   0  0  0  0  0  0  0  0  0  0  0  0
   11.0900    2.2510   22.5790 C   0  0  0  0  0  0  0  0  0  0  0  0
   11.8540    3.4230   22.5110 O   0  0  0  0  0  0  0  0  0  0  0  0
   13.0420    2.8180   22.5790 C   0  0  0  0  0  0  0  0  0  0  0  0
   14.2650    3.2100   22.7940 C   0  0  0  0  0  0  0  0  0  0  0  0
   15.5010    2.0740   22.4720 C   0  0  0  0  0  0  0  0  0  0  0  0
   17.2780    2.4910   23.4320 C   0  0  0  0  0  0  0  0  0  0  0  0
   17.6460    3.7020   24.2870 C   0  0  0  0  0  0  0  0  0  0  0  0
   16.4540    4.5650   24.3710 C   0  0  0  0  0  0  0  0  0  0  0  0
   14.6790    4.5000   23.6940 C   0  0  0  0  0  0  0  0  0  0  0  0
   13.6160    5.3300   23.8730 F   0  0  0  0  0  0  0  0  0  0  0  0
   13.0030    1.4470   22.6310 N   0  0  0  0  0  0  0  0  0  0  0  0
   11.7810    1.0670   22.6250 C   0  0  0  0  0  0  0  0  0  0  0  0
   11.1980   -0.3300   22.6500 C   0  0  0  0  0  0  0  0  0  0  0  0
  1  2  2  0
  2  3  1  0
  3  4  1  0
  4  5  2  0
  5  6  1  0
  6  7  2  0
  7  8  1  0
  4  9  1  0
  8  9  2  0
  2 10  1  0
 10 11  1  0
 11 12  2  0
 12 13  1  0
 13 14  2  0
 14 15  1  0
 15 16  1  0
 16 17  1  0
 17 18  2  0
 18 19  1  0
 19 20  2  0
 20 21  1  0
 17 22  1  0
 21 22  2  0
 22 23  1  0
 16 24  2  0
 14 25  1  0
 24 25  1  0
 11 26  1  0
 25 26  2  0
M  END
