pyridine_urea_11692
     RDKit          3D

 26 27  0  0  0  0  0  0  0  0999 V2000
    5.5220   -0.6190   18.3620 C   0  0  0  0  0  0  0  0  0  0  0  0
    6.8190   -0.0570   18.8700 C   0  0  0  0  0  0  0  0  0  0  0  0
    6.9960   -0.3270   20.2810 N   0  0  0  0  0  0  0  0  0  0  0  0
    6.3290   -1.4230   20.7720 C   0  0  0  0  0  0  0  0  0  0  0  0
    5.2360   -1.1650   21.5780 C   0  0  0  0  0  0  0  0  0  0  0  0
    7.8340    0.4060   21.0920 C   0  0  0  0  0  0  0  0  0  0  0  0
    8.3720    1.4690   20.7880 O   0  0  0  0  0  0  0  0  0  0  0  0
    7.9760   -0.2280   22.2420 N   0  0  0  0  0  0  0  0  0  0  0  0
    9.2540   -0.3180   22.5140 C   0  0  0  0  0  0  0  0  0  0  0  0
    9.9220    0.7990   22.9140 C   0  0  0  0  0  0  0  0  0  0  0  0
   11.3640    0.6610   23.2010 C   0  0  0  0  0  0  0  0  0  0  0  0
   11.9520   -0.5450   23.0690 C   0  0  0  0  0  0  0  0  0  0  0  0
   13.2040   -0.6040   23.3530 C   0  0  1  0  0  0  0  0  0  0  0  0
   13.4120    0.7120   23.0150 C   0  0  0  0  0  0  0  0  0  0  0  0
   13.3410   -0.8630   24.6830 N   0  0  0  0  0  0  0  0  0  0  0  0
   13.4480   -2.0900   25.3190 C   0  0  0  0  0  0  0  0  0  0  0  0
   14.4590   -2.5200   26.1380 O   0  0  0  0  0  0  0  0  0  0  0  0
   12.4610   -2.9300   25.0900 N   0  0  0  0  0  0  0  0  0  0  0  0
   12.2510   -2.7500   23.8480 C   0  0  0  0  0  0  0  0  0  0  0  0
   10.9410   -2.6060   23.2040 C   0  0  0  0  0  0  0  0  0  0  0  0
   10.9640   -2.3610   21.7290 C   0  0  0  0  0  0  0  0  0  0  0  0
   12.1720   -2.2820   21.0410 C   0  0  0  0  0  0  0  0  0  0  0  0
   13.3140   -2.4270   21.6440 N   0  0  0  0  0  0  0  0  0  0  0  0
   13.3550   -2.6590   23.0220 C   0  0  0  0  0  0  0  0  0  0  0  0
   11.2440   -1.6340   22.6610 C   0  0  0  0  0  0  0  0  0  0  0  0
    9.8990   -1.5250   22.3810 C   0  0  0  0  0  0  0  0  0  0  0  0
  1  2  1  0
  2  3  1  0
  3  4  1  0
  4  5  1  0
  3  6  1  0
  6  7  2  0
  6  8  1  0
  8  9  1  0
  9 10  2  0
 10 11  1  0
 11 12  2  0
 12 13  1  0
 13 14  1  1
 13 15  1  0
 15 16  1  0
 16 17  2  0
 16 18  1  0
 18 19  1  0
 19 20  2  0
 20 21  1  0
 21 22  2  0
 22 23  1  0
 19 24  1  0
 23 24  2  0
 12 25  1  0
  9 26  1  0
 25 26  2  0
M  END
