pyridine_urea_7892
     RDKit          3D

 25 28  0  0  0  0  0  0  0  0999 V2000
   11.2790   -0.1430   22.3160 C   0  0  0  0  0  0  0  0  0  0  0  0
   12.3940    0.7110   22.9010 C   0  0  0  0  0  0  0  0  0  0  0  0
   13.5960    0.1460   22.6230 C   0  0  0  0  0  0  0  0  0  0  0  0
   12.0620    0.1640   24.1940 C   0  0  0  0  0  0  0  0  0  0  0  0
   10.7590    0.4060   24.4810 C   0  0  0  0  0  0  0  0  0  0  0  0
   10.1210    1.5370   24.0770 C   0  0  2  0  0  0  0  0  0  0  0  0
    8.9250    1.8940   24.6780 C   0  0  0  0  0  0  0  0  0  0  0  0
    8.8330    1.0570   23.4200 C   0  0  2  0  0  0  0  0  0  0  0  0
    8.9150   -0.3340   23.4600 C   0  0  0  0  0  0  0  0  0  0  0  0
    8.8230   -0.8450   22.1470 N   0  0  0  0  0  0  0  0  0  0  0  0
    8.2390   -0.0200   21.2640 C   0  0  0  0  0  0  0  0  0  0  0  0
    8.7100    1.0770   20.9360 O   0  0  0  0  0  0  0  0  0  0  0  0
    7.0660   -0.5600   20.8380 N   0  0  0  0  0  0  0  0  0  0  0  0
    6.3470    0.1040   19.9240 C   0  0  0  0  0  0  0  0  0  0  0  0
    5.1360    0.7400   20.0970 C   0  0  0  0  0  0  0  0  0  0  0  0
    4.5060    1.4180   19.0700 C   0  0  0  0  0  0  0  0  0  0  0  0
    5.1190    1.4540   17.8250 C   0  0  0  0  0  0  0  0  0  0  0  0
    6.2970    0.8410   17.5960 N   0  0  0  0  0  0  0  0  0  0  0  0
    6.8840    0.1720   18.6670 C   0  0  0  0  0  0  0  0  0  0  0  0
   11.0580    2.6120   23.6570 C   0  0  0  0  0  0  0  0  0  0  0  0
   10.7930    3.9830   23.8440 C   0  0  0  0  0  0  0  0  0  0  0  0
   11.7540    4.8940   23.4420 C   0  0  0  0  0  0  0  0  0  0  0  0
   12.9390    4.4750   22.8870 C   0  0  0  0  0  0  0  0  0  0  0  0
   13.1610    3.1350   22.7180 C   0  0  0  0  0  0  0  0  0  0  0  0
   12.2350    2.1430   23.0710 C   0  0  0  0  0  0  0  0  0  0  0  0
  2  1  1  0
  2  3  1  0
  2  4  1  0
  4  5  1  0
  6  5  1  1
  6  7  1  0
  6  8  1  0
  7  8  1  0
  8  9  1  1
  9 10  1  0
 10 11  1  0
 11 12  2  0
 11 13  1  0
 13 14  1  0
 14 15  2  0
 15 16  1  0
 16 17  2  0
 17 18  1  0
 14 19  1  0
 18 19  2  0
  6 20  1  0
 20 21  1  0
 21 22  2  0
 22 23  1  0
 23 24  2  0
  2 25  1  0
 20 25  2  0
 24 25  1  0
M  END
