pyridine_urea_4409
     RDKit          3D

 23 24  0  0  0  0  0  0  0  0999 V2000
   13.1060   -2.1890   21.0200 C   0  0  0  0  0  0  0  0  0  0  0  0
   12.3470   -1.2750   21.7630 O   0  0  0  0  0  0  0  0  0  0  0  0
   11.0070   -1.7620   21.9070 C   0  0  0  0  0  0  0  0  0  0  0  0
   10.0410   -0.6130   22.0580 C   0  0  1  0  0  0  0  0  0  0  0  0
    8.7690   -0.8700   22.2510 N   0  0  0  0  0  0  0  0  0  0  0  0
    8.0870   -0.0370   21.4930 C   0  0  0  0  0  0  0  0  0  0  0  0
    8.6140    1.2430   21.0780 O   0  0  0  0  0  0  0  0  0  0  0  0
    6.8130   -0.5910   21.1470 N   0  0  0  0  0  0  0  0  0  0  0  0
    6.2610    0.0470   20.0940 C   0  0  0  0  0  0  0  0  0  0  0  0
    4.9640    0.8310   20.2160 C   0  0  0  0  0  0  0  0  0  0  0  0
    4.4170    1.5450   18.9810 C   0  0  0  0  0  0  0  0  0  0  0  0
    5.1490    1.4330   17.8050 C   0  0  0  0  0  0  0  0  0  0  0  0
    6.2860    0.7480   17.6540 N   0  0  0  0  0  0  0  0  0  0  0  0
    6.8210    0.1000   18.6870 C   0  0  0  0  0  0  0  0  0  0  0  0
   10.4610    0.0370   23.2750 C   0  0  0  0  0  0  0  0  0  0  0  0
   11.2890    0.1560   24.3860 C   0  0  0  0  0  0  0  0  0  0  0  0
   12.3710   -0.6190   24.8040 C   0  0  0  0  0  0  0  0  0  0  0  0
   13.0160   -0.3850   25.8950 F   0  0  0  0  0  0  0  0  0  0  0  0
   12.9050   -1.7300   24.1580 C   0  0  0  0  0  0  0  0  0  0  0  0
   13.9540   -2.4040   24.6760 F   0  0  0  0  0  0  0  0  0  0  0  0
   12.2550   -1.9580   23.0970 C   0  0  0  0  0  0  0  0  0  0  0  0
   12.7250   -3.0030   22.4250 F   0  0  0  0  0  0  0  0  0  0  0  0
   11.1050   -1.1200   22.7030 C   0  0  0  0  0  0  0  0  0  0  0  0
  1  2  1  0
  2  3  1  0
  4  3  1  1
  4  5  1  0
  5  6  1  0
  6  7  2  0
  6  8  1  0
  8  9  1  0
  9 10  2  0
 10 11  1  0
 11 12  2  0
 12 13  1  0
  9 14  1  0
 13 14  2  0
  4 15  1  0
 15 16  2  0
 16 17  1  0
 17 18  1  0
 17 19  2  0
 19 20  1  0
 19 21  1  0
 21 22  1  0
 15 23  1  0
 21 23  2  0
M  END
