pyridine_urea_9929
     RDKit          3D

 25 27  0  0  0  0  0  0  0  0999 V2000
    8.8980    1.0760   21.1590 O   0  0  0  0  0  0  0  0  0  0  0  0
    8.2500    0.1110   21.5970 C   0  0  0  0  0  0  0  0  0  0  0  0
    8.3980   -0.4330   22.8520 N   0  0  0  0  0  0  0  0  0  0  0  0
    9.6390   -1.0460   23.2190 C   0  0  0  0  0  0  0  0  0  0  0  0
   10.5830   -0.1290   24.0090 C   0  0  1  0  0  0  0  0  0  0  0  0
   11.9040    0.0460   23.2600 C   0  0  0  0  0  0  0  0  0  0  0  0
   12.7200    1.2560   23.3220 C   0  0  0  0  0  0  0  0  0  0  0  0
   12.8140   -0.0680   22.6240 C   0  0  0  0  0  0  0  0  0  0  0  0
   11.4450   -0.7420   23.1850 C   0  0  0  0  0  0  0  0  0  0  0  0
   11.8210   -1.7770   22.4320 C   0  0  0  0  0  0  0  0  0  0  0  0
   12.6970   -0.8120   22.3250 C   0  0  0  0  0  0  0  0  0  0  0  0
   13.1690   -2.1500   21.3530 Cl  0  0  0  0  0  0  0  0  0  0  0  0
   10.1170    1.1760   24.1480 N   0  0  0  0  0  0  0  0  0  0  0  0
    8.8830    1.2790   24.8460 C   0  0  0  0  0  0  0  0  0  0  0  0
    8.1900    2.4930   24.8270 C   0  0  0  0  0  0  0  0  0  0  0  0
    7.9630    2.6810   23.6470 O   0  0  0  0  0  0  0  0  0  0  0  0
    9.0350    3.0890   22.8900 C   0  0  0  0  0  0  0  0  0  0  0  0
   10.1500    2.1130   23.0940 C   0  0  0  0  0  0  0  0  0  0  0  0
    7.2540   -0.5390   20.8990 N   0  0  0  0  0  0  0  0  0  0  0  0
    6.4960    0.0830   19.9960 C   0  0  0  0  0  0  0  0  0  0  0  0
    5.2200    0.8090   20.2420 C   0  0  0  0  0  0  0  0  0  0  0  0
    4.5830    1.4160   19.1710 C   0  0  0  0  0  0  0  0  0  0  0  0
    5.1540    1.3240   17.9210 C   0  0  0  0  0  0  0  0  0  0  0  0
    6.3020    0.6640   17.6720 N   0  0  0  0  0  0  0  0  0  0  0  0
    6.9270    0.0710   18.7000 C   0  0  0  0  0  0  0  0  0  0  0  0
  1  2  2  0
  2  3  1  0
  3  4  1  0
  5  4  1  6
  5  6  1  0
  6  7  2  0
  7  8  1  0
  8  9  2  0
  9 10  1  0
  6 11  1  0
 10 11  2  0
 11 12  1  0
  5 13  1  0
 13 14  1  0
 14 15  1  0
 15 16  1  0
 16 17  1  0
 13 18  1  0
 17 18  1  0
  2 19  1  0
 19 20  1  0
 20 21  2  0
 21 22  1  0
 22 23  2  0
 23 24  1  0
 20 25  1  0
 24 25  2  0
M  END
