pyridine_urea_13928
     RDKit          3D

 24 26  0  0  0  0  0  0  0  0999 V2000
    9.4020    0.1040   26.7690 C   0  0  0  0  0  0  0  0  0  0  0  0
    8.7230    0.3140   25.8170 C   0  0  0  0  0  0  0  0  0  0  0  0
    7.2830    1.3990   25.9480 S   0  0  0  0  0  0  0  0  0  0  0  0
    7.0550    1.0560   24.2590 C   0  0  0  0  0  0  0  0  0  0  0  0
    6.1890    1.3340   23.1570 C   0  0  0  0  0  0  0  0  0  0  0  0
    6.7020    0.1920   22.3890 N   0  0  0  0  0  0  0  0  0  0  0  0
    7.6060    0.2610   21.3630 C   0  0  0  0  0  0  0  0  0  0  0  0
    8.7380    1.1910   21.2270 O   0  0  0  0  0  0  0  0  0  0  0  0
    7.1930   -0.6550   20.5190 N   0  0  0  0  0  0  0  0  0  0  0  0
    6.4710    0.0180   19.6520 C   0  0  0  0  0  0  0  0  0  0  0  0
    5.1320    0.5270   20.0180 C   0  0  0  0  0  0  0  0  0  0  0  0
    4.3290    1.2530   19.2040 C   0  0  0  0  0  0  0  0  0  0  0  0
    5.0660    1.4310   17.8890 C   0  0  0  0  0  0  0  0  0  0  0  0
    6.2740    0.9670   17.5510 N   0  0  0  0  0  0  0  0  0  0  0  0
    6.9350    0.2720   18.4460 C   0  0  0  0  0  0  0  0  0  0  0  0
    7.8960    0.2450   23.5760 N   0  0  0  0  0  0  0  0  0  0  0  0
    8.7900   -0.1580   24.3850 C   0  0  0  0  0  0  0  0  0  0  0  0
    9.8900   -0.9140   24.5070 C   0  0  0  0  0  0  0  0  0  0  0  0
    9.6250   -2.4230   24.3700 C   0  0  0  0  0  0  0  0  0  0  0  0
   11.0420   -2.8760   24.5560 C   0  0  0  0  0  0  0  0  0  0  0  0
   12.2680   -2.0830   24.7920 C   0  0  0  0  0  0  0  0  0  0  0  0
   13.7300   -2.8700   24.9880 Cl  0  0  0  0  0  0  0  0  0  0  0  0
   12.2250   -0.7420   24.8590 C   0  0  0  0  0  0  0  0  0  0  0  0
   11.0360   -0.1370   24.7150 C   0  0  0  0  0  0  0  0  0  0  0  0
  1  2  1  0
  2  3  1  0
  3  4  1  0
  4  5  1  0
  5  6  1  0
  6  7  1  0
  7  8  2  0
  7  9  1  0
  9 10  1  0
 10 11  2  0
 11 12  1  0
 12 13  2  0
 13 14  1  0
 10 15  1  0
 14 15  2  0
  4 16  2  0
  2 17  2  0
 16 17  1  0
 17 18  1  0
 18 19  2  0
 19 20  1  0
 20 21  2  0
 21 22  1  0
 21 23  1  0
 18 24  1  0
 23 24  2  0
M  END
