pyridine_urea_7862
     RDKit          3D

 28 30  0  0  0  0  0  0  0  0999 V2000
    8.5120    0.7860   21.2630 O   0  0  0  0  0  0  0  0  0  0  0  0
    8.0070   -0.2960   21.4840 C   0  0  0  0  0  0  0  0  0  0  0  0
    6.8590   -0.7550   20.9370 N   0  0  0  0  0  0  0  0  0  0  0  0
    6.2800   -0.0390   19.9070 C   0  0  0  0  0  0  0  0  0  0  0  0
    5.0650    0.6080   20.1120 C   0  0  0  0  0  0  0  0  0  0  0  0
    4.4990    1.3420   19.0760 C   0  0  0  0  0  0  0  0  0  0  0  0
    5.1760    1.3970   17.8740 C   0  0  0  0  0  0  0  0  0  0  0  0
    6.3460    0.7720   17.6610 N   0  0  0  0  0  0  0  0  0  0  0  0
    6.8670    0.0730   18.6760 C   0  0  0  0  0  0  0  0  0  0  0  0
    8.5670   -1.1770   22.3330 N   0  0  0  0  0  0  0  0  0  0  0  0
    9.8000   -0.6890   22.9110 C   0  0  0  0  0  0  0  0  0  0  0  0
    9.8260    0.6720   23.5660 C   0  0  0  0  0  0  0  0  0  0  0  0
   11.0230    1.1160   24.1060 C   0  0  0  0  0  0  0  0  0  0  0  0
   12.1660    0.3230   24.0520 C   0  0  0  0  0  0  0  0  0  0  0  0
   12.1800   -0.9310   23.4590 C   0  0  0  0  0  0  0  0  0  0  0  0
   13.2950   -1.6690   23.4150 C   0  0  0  0  0  0  0  0  0  0  0  0
   13.7610   -1.2480   22.2350 N   0  0  0  0  0  0  0  0  0  0  0  0
   13.8090    0.1390   22.1470 C   0  0  0  0  0  0  0  0  0  0  0  0
   13.5470    1.0810   23.0710 O   0  0  0  0  0  0  0  0  0  0  0  0
   14.1820    0.4220   20.8870 N   0  0  0  0  0  0  0  0  0  0  0  0
   14.7040    1.5150   20.2680 C   0  0  0  0  0  0  0  0  0  0  0  0
   15.0050    2.6750   20.7090 C   0  0  0  0  0  0  0  0  0  0  0  0
   15.4280    3.6690   19.8010 C   0  0  0  0  0  0  0  0  0  0  0  0
   15.5920    3.4330   18.5370 C   0  0  0  0  0  0  0  0  0  0  0  0
   15.3430    2.2730   18.1220 C   0  0  0  0  0  0  0  0  0  0  0  0
   14.9010    1.4270   18.9750 C   0  0  0  0  0  0  0  0  0  0  0  0
   14.4450    0.1090   18.2720 Cl  0  0  0  0  0  0  0  0  0  0  0  0
   11.0700   -1.4960   22.8760 C   0  0  0  0  0  0  0  0  0  0  0  0
  1  2  2  0
  2  3  1  0
  3  4  1  0
  4  5  2  0
  5  6  1  0
  6  7  2  0
  7  8  1  0
  4  9  1  0
  8  9  2  0
  2 10  1  0
 10 11  1  0
 11 12  2  0
 12 13  1  0
 13 14  2  0
 14 15  1  0
 15 16  1  0
 16 17  1  0
 17 18  1  0
 18 19  2  0
 18 20  1  0
 20 21  1  0
 21 22  2  0
 22 23  1  0
 23 24  2  0
 24 25  1  0
 21 26  1  0
 25 26  2  0
 26 27  1  0
 11 28  1  0
 15 28  2  0
M  END
