pyridine_urea_13736
     RDKit          3D

 25 27  0  0  0  0  0  0  0  0999 V2000
   12.9180   -2.4440   21.4790 C   0  0  0  0  0  0  0  0  0  0  0  0
   13.5790   -1.4200   22.2310 O   0  0  0  0  0  0  0  0  0  0  0  0
   12.7050   -0.4560   22.6260 C   0  0  0  0  0  0  0  0  0  0  0  0
   13.3250    0.9170   22.7860 C   0  0  0  0  0  0  0  0  0  0  0  0
   12.4420    2.0190   23.1800 C   0  0  0  0  0  0  0  0  0  0  0  0
   11.0770    1.6000   23.3740 C   0  0  0  0  0  0  0  0  0  0  0  0
   10.6530    0.2840   23.1960 C   0  0  0  0  0  0  0  0  0  0  0  0
   11.3620   -0.9500   22.8030 C   0  0  0  0  0  0  0  0  0  0  0  0
   10.0210   -1.2510   23.0200 C   0  0  2  0  0  0  0  0  0  0  0  0
    9.2920   -1.1010   21.7420 N   0  0  0  0  0  0  0  0  0  0  0  0
    8.4620   -0.0530   21.4540 C   0  0  0  0  0  0  0  0  0  0  0  0
    8.8300    1.1160   21.4880 O   0  0  0  0  0  0  0  0  0  0  0  0
    7.2040   -0.4840   21.0920 N   0  0  0  0  0  0  0  0  0  0  0  0
    6.4510    0.1300   20.0880 C   0  0  0  0  0  0  0  0  0  0  0  0
    5.2460    0.8470   20.3090 C   0  0  0  0  0  0  0  0  0  0  0  0
    4.4870    1.5000   19.2700 C   0  0  0  0  0  0  0  0  0  0  0  0
    5.1600    1.3130   17.9130 C   0  0  0  0  0  0  0  0  0  0  0  0
    6.3040    0.6130   17.7450 N   0  0  0  0  0  0  0  0  0  0  0  0
    6.9410    0.0250   18.8090 C   0  0  0  0  0  0  0  0  0  0  0  0
    9.8010   -0.3690   24.2550 C   0  0  0  0  0  0  0  0  0  0  0  0
   10.9060    0.0910   23.5280 C   0  0  0  0  0  0  0  0  0  0  0  0
   10.7000   -1.0100   22.6020 C   0  0  0  0  0  0  0  0  0  0  0  0
    9.6000   -2.1260   22.6420 C   0  0  0  0  0  0  0  0  0  0  0  0
    8.5970   -2.0950   23.7650 C   0  0  0  0  0  0  0  0  0  0  0  0
    8.7370   -1.1190   24.6270 N   0  0  0  0  0  0  0  0  0  0  0  0
  1  2  1  0
  2  3  1  0
  3  4  2  0
  4  5  1  0
  5  6  2  0
  6  7  1  0
  3  8  1  0
  7  8  2  0
  8  9  1  0
  9 10  1  6
 10 11  1  0
 11 12  2  0
 11 13  1  0
 13 14  1  0
 14 15  2  0
 15 16  1  0
 16 17  2  0
 17 18  1  0
 14 19  1  0
 18 19  2  0
  9 20  1  0
 20 21  2  0
 21 22  1  0
 22 23  2  0
 23 24  1  0
 20 25  1  0
 24 25  2  0
M  END
