pyridine_urea_11872
     RDKit          3D

 24 25  0  0  0  0  0  0  0  0999 V2000
   12.6780   -2.3930   21.5590 C   0  0  0  0  0  0  0  0  0  0  0  0
   13.2220   -1.0340   21.8920 C   0  0  0  0  0  0  0  0  0  0  0  0
   12.1190   -0.1730   22.1890 O   0  0  0  0  0  0  0  0  0  0  0  0
   11.6890   -0.3150   23.4530 C   0  0  0  0  0  0  0  0  0  0  0  0
   12.8610   -0.8230   23.3240 C   0  0  0  0  0  0  0  0  0  0  0  0
   12.3710   -0.9400   24.5510 C   0  0  0  0  0  0  0  0  0  0  0  0
   11.0460   -0.2340   24.2370 C   0  0  0  0  0  0  0  0  0  0  0  0
   10.3300    0.3920   23.2270 C   0  0  2  0  0  0  0  0  0  0  0  0
    9.7290   -0.4750   22.1790 N   0  0  0  0  0  0  0  0  0  0  0  0
    8.7050    0.1360   21.4750 C   0  0  0  0  0  0  0  0  0  0  0  0
    8.7850    1.5160   21.0550 O   0  0  0  0  0  0  0  0  0  0  0  0
    7.5730   -0.5860   21.1670 N   0  0  0  0  0  0  0  0  0  0  0  0
    6.7300   -0.0400   20.1830 C   0  0  0  0  0  0  0  0  0  0  0  0
    5.5340    0.6300   20.4690 C   0  0  0  0  0  0  0  0  0  0  0  0
    4.7140    1.1950   19.5030 C   0  0  0  0  0  0  0  0  0  0  0  0
    5.0890    1.0960   18.1830 C   0  0  0  0  0  0  0  0  0  0  0  0
    6.1910    0.4840   17.7390 N   0  0  0  0  0  0  0  0  0  0  0  0
    6.9930   -0.0710   18.6830 C   0  0  0  0  0  0  0  0  0  0  0  0
   10.9720    1.7580   22.9050 C   0  0  0  0  0  0  0  0  0  0  0  0
   10.2100    2.5370   22.1020 F   0  0  0  0  0  0  0  0  0  0  0  0
   12.2600    1.7560   22.4850 F   0  0  0  0  0  0  0  0  0  0  0  0
   11.0080    2.4620   24.0580 F   0  0  0  0  0  0  0  0  0  0  0  0
   10.5210   -0.3060   25.4180 C   0  0  0  0  0  0  0  0  0  0  0  0
   11.7200   -0.7130   24.8830 C   0  0  0  0  0  0  0  0  0  0  0  0
  1  2  1  0
  2  3  1  0
  3  4  1  0
  4  5  2  0
  5  6  1  0
  6  7  2  0
  7  8  1  0
  8  9  1  6
  9 10  1  0
 10 11  2  0
 10 12  1  0
 12 13  1  0
 13 14  2  0
 14 15  1  0
 15 16  2  0
 16 17  1  0
 13 18  1  0
 17 18  2  0
  8 19  1  0
 19 20  1  0
 19 21  1  0
 19 22  1  0
  7 23  1  0
  4 24  1  0
 23 24  2  0
M  END
