pyridine_urea_8830
     RDKit          3D

 20 22  0  0  0  0  0  0  0  0999 V2000
    8.8630    1.3160   21.1940 O   0  0  0  0  0  0  0  0  0  0  0  0
    8.5000    0.1390   21.3020 C   0  0  0  0  0  0  0  0  0  0  0  0
    9.3620   -0.8420   21.6540 N   0  0  0  0  0  0  0  0  0  0  0  0
   10.3780   -0.5050   22.5920 C   0  0  0  0  0  0  0  0  0  0  0  0
    9.7760   -0.7150   23.9650 C   0  0  0  0  0  0  0  0  0  0  0  0
   10.1850    0.0510   25.0320 C   0  0  0  0  0  0  0  0  0  0  0  0
    9.6310   -0.2030   26.3070 C   0  0  0  0  0  0  0  0  0  0  0  0
    8.6870   -1.1740   26.5540 N   0  0  0  0  0  0  0  0  0  0  0  0
    8.0120   -1.6120   27.6770 C   0  0  0  0  0  0  0  0  0  0  0  0
    7.2010   -2.6240   27.2600 C   0  0  0  0  0  0  0  0  0  0  0  0
    7.3160   -2.8610   25.9300 N   0  0  0  0  0  0  0  0  0  0  0  0
    8.2650   -1.9300   25.4990 C   0  0  0  0  0  0  0  0  0  0  0  0
    8.7110   -1.8000   24.2120 C   0  0  0  0  0  0  0  0  0  0  0  0
    7.2400   -0.3250   21.0630 N   0  0  0  0  0  0  0  0  0  0  0  0
    6.5020    0.2210   20.0290 C   0  0  0  0  0  0  0  0  0  0  0  0
    5.3190    0.9160   20.3160 C   0  0  0  0  0  0  0  0  0  0  0  0
    4.6120    1.5020   19.1450 C   0  0  0  0  0  0  0  0  0  0  0  0
    5.1170    1.3470   17.8880 C   0  0  0  0  0  0  0  0  0  0  0  0
    6.2420    0.6630   17.6490 N   0  0  0  0  0  0  0  0  0  0  0  0
    6.8940    0.1260   18.7050 C   0  0  0  0  0  0  0  0  0  0  0  0
  1  2  2  0
  2  3  1  0
  3  4  1  0
  4  5  1  0
  5  6  1  0
  6  7  2  0
  7  8  1  0
  8  9  1  0
  9 10  2  0
 10 11  1  0
  8 12  1  0
 11 12  2  0
  5 13  2  0
 12 13  1  0
  2 14  1  0
 14 15  1  0
 15 16  2  0
 16 17  1  0
 17 18  2  0
 18 19  1  0
 15 20  1  0
 19 20  2  0
M  END
