pyridine_urea_6310
     RDKit          3D

 23 25  0  0  0  0  0  0  0  0999 V2000
   13.7330   -1.5130   20.5050 C   0  0  0  0  0  0  0  0  0  0  0  0
   14.0560   -1.2780   21.7790 O   0  0  0  0  0  0  0  0  0  0  0  0
   13.4680   -2.3730   22.2220 C   0  0  0  0  0  0  0  0  0  0  0  0
   13.8060   -3.4770   22.4200 O   0  0  0  0  0  0  0  0  0  0  0  0
   12.3090   -1.7240   22.3570 C   0  0  0  0  0  0  0  0  0  0  0  0
   12.8050   -0.3620   22.6940 N   0  0  0  0  0  0  0  0  0  0  0  0
   11.5470    0.1340   22.7930 C   0  0  0  0  0  0  0  0  0  0  0  0
   11.3590    1.3960   23.0880 C   0  0  0  0  0  0  0  0  0  0  0  0
    9.9970    1.9710   23.2110 C   0  0  0  0  0  0  0  0  0  0  0  0
    8.9460    0.9820   22.9650 C   0  0  0  0  0  0  0  0  0  0  0  0
    7.5960    1.1830   22.9580 N   0  0  0  0  0  0  0  0  0  0  0  0
    7.4520    0.8280   21.5630 C   0  0  0  0  0  0  0  0  0  0  0  0
    8.3130    1.5020   20.6210 O   0  0  0  0  0  0  0  0  0  0  0  0
    6.5630   -0.1130   21.2520 N   0  0  0  0  0  0  0  0  0  0  0  0
    6.1390    0.3060   20.0740 C   0  0  0  0  0  0  0  0  0  0  0  0
    4.9640    1.0620   20.0830 C   0  0  0  0  0  0  0  0  0  0  0  0
    4.4600    1.5860   18.8980 C   0  0  0  0  0  0  0  0  0  0  0  0
    5.1600    1.3280   17.7520 C   0  0  0  0  0  0  0  0  0  0  0  0
    6.2900    0.5920   17.7080 N   0  0  0  0  0  0  0  0  0  0  0  0
    6.7960    0.0630   18.8760 C   0  0  0  0  0  0  0  0  0  0  0  0
    9.1520   -0.4740   22.6170 C   0  0  0  0  0  0  0  0  0  0  0  0
   10.5040   -0.8640   22.5380 C   0  0  0  0  0  0  0  0  0  0  0  0
   10.8080   -2.4050   22.1630 S   0  0  0  0  0  0  0  0  0  0  0  0
  1  2  1  0
  2  3  1  0
  3  4  2  0
  3  5  1  0
  5  6  2  0
  6  7  1  0
  7  8  2  0
  8  9  1  0
  9 10  2  0
 10 11  1  0
 11 12  1  0
 12 13  2  0
 12 14  1  0
 14 15  1  0
 15 16  2  0
 16 17  1  0
 17 18  2  0
 18 19  1  0
 15 20  1  0
 19 20  2  0
 10 21  1  0
  7 22  1  0
 21 22  2  0
  5 23  1  0
 22 23  1  0
M  END
