pyridine_urea_6535
     RDKit          3D

 22 24  0  0  0  0  0  0  0  0999 V2000
   14.4130   -3.0000   26.0880 C   0  0  0  0  0  0  0  0  0  0  0  0
   13.7450   -1.8810   26.3450 O   0  0  0  0  0  0  0  0  0  0  0  0
   13.1250   -1.6630   25.2430 C   0  0  0  0  0  0  0  0  0  0  0  0
   13.7090   -2.3540   24.0280 C   0  0  0  0  0  0  0  0  0  0  0  0
   13.0090   -2.0840   22.7820 C   0  0  0  0  0  0  0  0  0  0  0  0
   11.8660   -1.2140   22.9530 C   0  0  0  0  0  0  0  0  0  0  0  0
   11.4200   -0.6670   24.0930 C   0  0  0  0  0  0  0  0  0  0  0  0
   12.0220   -0.8680   25.2160 C   0  0  0  0  0  0  0  0  0  0  0  0
   10.1640    0.2030   24.1130 C   0  0  0  0  0  0  0  0  0  0  0  0
    9.5020    0.1090   22.8910 C   0  0  2  0  0  0  0  0  0  0  0  0
    8.1140    0.2010   22.8470 N   0  0  0  0  0  0  0  0  0  0  0  0
    7.8630    0.4600   21.5510 C   0  0  0  0  0  0  0  0  0  0  0  0
    8.6200    1.4940   20.9530 O   0  0  0  0  0  0  0  0  0  0  0  0
    6.9140   -0.3270   20.9880 N   0  0  0  0  0  0  0  0  0  0  0  0
    6.1910    0.2630   19.9870 C   0  0  0  0  0  0  0  0  0  0  0  0
    4.9330    0.8820   20.2080 C   0  0  0  0  0  0  0  0  0  0  0  0
    4.4080    1.4890   18.9140 C   0  0  0  0  0  0  0  0  0  0  0  0
    5.1310    1.3900   17.7500 C   0  0  0  0  0  0  0  0  0  0  0  0
    6.3040    0.7680   17.6400 N   0  0  0  0  0  0  0  0  0  0  0  0
    6.7900    0.2330   18.7470 C   0  0  0  0  0  0  0  0  0  0  0  0
    9.9540   -1.2500   22.3510 C   0  0  0  0  0  0  0  0  0  0  0  0
   11.1400   -0.9030   21.9840 C   0  0  0  0  0  0  0  0  0  0  0  0
  1  2  1  0
  2  3  1  0
  3  4  2  0
  4  5  1  0
  5  6  2  0
  6  7  1  0
  3  8  1  0
  7  8  2  0
  7  9  1  0
  9 10  1  0
 10 11  1  1
 11 12  1  0
 12 13  2  0
 12 14  1  0
 14 15  1  0
 15 16  2  0
 16 17  1  0
 17 18  2  0
 18 19  1  0
 15 20  1  0
 19 20  2  0
 10 21  1  0
  6 22  1  0
 21 22  1  0
M  END
