pyridine_urea_7976
     RDKit          3D

 25 27  0  0  0  0  0  0  0  0999 V2000
   13.5400   -1.4370   22.0510 N   0  0  0  0  0  0  0  0  0  0  0  0
   12.2070   -1.5270   22.1840 C   0  0  0  0  0  0  0  0  0  0  0  0
   11.6380   -2.5970   22.0520 O   0  0  0  0  0  0  0  0  0  0  0  0
   11.5160   -0.2230   22.5070 C   0  0  0  0  0  0  0  0  0  0  0  0
   12.3110    0.9170   22.7840 C   0  0  0  0  0  0  0  0  0  0  0  0
   11.6740    2.1440   23.0610 C   0  0  0  0  0  0  0  0  0  0  0  0
   12.2770    3.4800   23.3450 N   0  0  0  0  0  0  0  0  0  0  0  0
   13.0970    3.8370   22.2620 C   0  0  0  0  0  0  0  0  0  0  0  0
   13.2660    5.2210   22.3070 C   0  0  0  0  0  0  0  0  0  0  0  0
   12.2500    5.9070   22.2870 O   0  0  0  0  0  0  0  0  0  0  0  0
   11.2280    5.5410   23.1330 C   0  0  0  0  0  0  0  0  0  0  0  0
   11.5300    4.3980   24.1000 C   0  0  0  0  0  0  0  0  0  0  0  0
   10.3110    2.3200   23.1140 C   0  0  0  0  0  0  0  0  0  0  0  0
    9.5810    1.1860   22.8410 C   0  0  0  0  0  0  0  0  0  0  0  0
   10.1230   -0.0410   22.5310 C   0  0  0  0  0  0  0  0  0  0  0  0
    9.2150   -0.9900   22.2370 N   0  0  0  0  0  0  0  0  0  0  0  0
    8.3340   -0.3560   21.3790 C   0  0  0  0  0  0  0  0  0  0  0  0
    8.5440    0.7720   20.9550 O   0  0  0  0  0  0  0  0  0  0  0  0
    7.2020   -1.0500   21.0340 N   0  0  0  0  0  0  0  0  0  0  0  0
    6.4510   -0.2700   20.1520 C   0  0  0  0  0  0  0  0  0  0  0  0
    5.2140    0.4020   20.4100 C   0  0  0  0  0  0  0  0  0  0  0  0
    4.6550    1.1230   19.3530 C   0  0  0  0  0  0  0  0  0  0  0  0
    5.4650    1.0060   18.2860 C   0  0  0  0  0  0  0  0  0  0  0  0
    6.4060    0.5910   17.8300 N   0  0  0  0  0  0  0  0  0  0  0  0
    6.9870   -0.1310   18.8370 C   0  0  0  0  0  0  0  0  0  0  0  0
  1  2  1  0
  2  3  2  0
  2  4  1  0
  4  5  2  0
  5  6  1  0
  6  7  1  0
  7  8  1  0
  8  9  1  0
  9 10  1  0
 10 11  1  0
  7 12  1  0
 11 12  1  0
  6 13  2  0
 13 14  1  0
  4 15  1  0
 14 15  2  0
 15 16  1  0
 16 17  1  0
 17 18  2  0
 17 19  1  0
 19 20  1  0
 20 21  2  0
 21 22  1  0
 22 23  2  0
 23 24  1  0
 20 25  1  0
 24 25  2  0
M  END
