pyridine_urea_12451
     RDKit          3D

 22 24  0  0  0  0  0  0  0  0999 V2000
    9.1470    0.8050   21.5920 O   0  0  0  0  0  0  0  0  0  0  0  0
    8.6180   -0.2820   21.4080 C   0  0  0  0  0  0  0  0  0  0  0  0
    9.3290   -1.4610   21.4030 N   0  0  0  0  0  0  0  0  0  0  0  0
   10.6220   -1.5340   22.0530 C   0  0  0  0  0  0  0  0  0  0  0  0
   10.6510   -2.3600   23.3810 C   0  0  0  0  0  0  0  0  0  0  0  0
    9.4310   -2.9770   23.9410 N   0  0  0  0  0  0  0  0  0  0  0  0
    9.8250   -3.6770   25.1570 C   0  0  0  0  0  0  0  0  0  0  0  0
    8.7450   -4.4190   25.9480 C   0  0  0  0  0  0  0  0  0  0  0  0
    7.5250   -4.7730   25.3570 C   0  0  0  0  0  0  0  0  0  0  0  0
    6.4220   -5.5060   26.1140 C   0  0  0  0  0  0  0  0  0  0  0  0
    6.6160   -5.8870   27.5630 C   0  0  0  0  0  0  0  0  0  0  0  0
    7.9870   -5.4210   28.0120 C   0  0  0  0  0  0  0  0  0  0  0  0
    8.9380   -4.7570   27.2710 N   0  0  0  0  0  0  0  0  0  0  0  0
   11.1950   -3.6230   25.5170 C   0  0  0  0  0  0  0  0  0  0  0  0
   12.1720   -2.6470   24.3530 S   0  0  0  0  0  0  0  0  0  0  0  0
    7.2830   -0.5000   21.1460 N   0  0  0  0  0  0  0  0  0  0  0  0
    6.5820    0.0750   20.0720 C   0  0  0  0  0  0  0  0  0  0  0  0
    5.3000    0.8420   20.3090 C   0  0  0  0  0  0  0  0  0  0  0  0
    4.6390    1.4130   19.2490 C   0  0  0  0  0  0  0  0  0  0  0  0
    5.1440    1.2860   17.9710 C   0  0  0  0  0  0  0  0  0  0  0  0
    6.2780    0.6030   17.7160 N   0  0  0  0  0  0  0  0  0  0  0  0
    6.9610    0.0190   18.7420 C   0  0  0  0  0  0  0  0  0  0  0  0
  1  2  2  0
  2  3  1  0
  3  4  1  0
  4  5  1  0
  5  6  2  0
  6  7  1  0
  7  8  1  0
  8  9  2  0
  9 10  1  0
 10 11  2  0
 11 12  1  0
  8 13  1  0
 12 13  2  0
  7 14  2  0
  5 15  1  0
 14 15  1  0
  2 16  1  0
 16 17  1  0
 17 18  2  0
 18 19  1  0
 19 20  2  0
 20 21  1  0
 17 22  1  0
 21 22  2  0
M  END
