pyridine_urea_515
     RDKit          3D

 25 27  0  0  0  0  0  0  0  0999 V2000
    8.5350    0.7480   21.1860 O   0  0  0  0  0  0  0  0  0  0  0  0
    8.1500   -0.3790   21.4590 C   0  0  0  0  0  0  0  0  0  0  0  0
    6.9700   -0.8830   20.9720 N   0  0  0  0  0  0  0  0  0  0  0  0
    6.2750   -0.1310   20.0130 C   0  0  0  0  0  0  0  0  0  0  0  0
    5.0690    0.5370   20.2000 C   0  0  0  0  0  0  0  0  0  0  0  0
    4.5120    1.2630   19.1440 C   0  0  0  0  0  0  0  0  0  0  0  0
    5.1840    1.2940   17.9390 C   0  0  0  0  0  0  0  0  0  0  0  0
    6.3470    0.6520   17.7340 N   0  0  0  0  0  0  0  0  0  0  0  0
    6.8540   -0.0370   18.7650 C   0  0  0  0  0  0  0  0  0  0  0  0
    8.8820   -1.2200   22.2670 N   0  0  0  0  0  0  0  0  0  0  0  0
   10.1540   -0.7400   22.5360 C   0  0  0  0  0  0  0  0  0  0  0  0
   11.2680   -1.4470   22.1110 C   0  0  0  0  0  0  0  0  0  0  0  0
   12.5250   -0.9320   22.3400 C   0  0  0  0  0  0  0  0  0  0  0  0
   12.6440    0.2730   22.9870 C   0  0  0  0  0  0  0  0  0  0  0  0
   13.8340    0.7110   23.1350 F   0  0  0  0  0  0  0  0  0  0  0  0
   11.5750    1.0210   23.4590 C   0  0  0  0  0  0  0  0  0  0  0  0
   10.2220    0.4900   23.2210 C   0  0  0  0  0  0  0  0  0  0  0  0
    9.1650    1.0310   23.5500 O   0  0  0  0  0  0  0  0  0  0  0  0
    9.1350    1.9890   24.5400 C   0  0  0  0  0  0  0  0  0  0  0  0
    9.0130    3.3190   24.1070 C   0  0  0  0  0  0  0  0  0  0  0  0
    8.1860    4.0370   24.9740 C   0  0  0  0  0  0  0  0  0  0  0  0
    8.4300    5.3970   24.8100 C   0  0  0  0  0  0  0  0  0  0  0  0
    8.2910    5.7700   23.4730 C   0  0  0  0  0  0  0  0  0  0  0  0
    7.8550    4.7230   22.6740 C   0  0  0  0  0  0  0  0  0  0  0  0
    8.5550    3.5120   22.7950 C   0  0  0  0  0  0  0  0  0  0  0  0
  1  2  2  0
  2  3  1  0
  3  4  1  0
  4  5  2  0
  5  6  1  0
  6  7  2  0
  7  8  1  0
  4  9  1  0
  8  9  2  0
  2 10  1  0
 10 11  1  0
 11 12  2  0
 12 13  1  0
 13 14  2  0
 14 15  1  0
 14 16  1  0
 11 17  1  0
 16 17  2  0
 17 18  1  0
 18 19  1  0
 19 20  1  0
 20 21  1  0
 21 22  1  0
 22 23  1  0
 23 24  1  0
 20 25  1  0
 24 25  1  0
M  END
