pyridine_urea_9810
     RDKit          3D

 25 28  0  0  0  0  0  0  0  0999 V2000
    8.9130    1.2810   21.1130 O   0  0  0  0  0  0  0  0  0  0  0  0
    8.2400    0.3780   21.6210 C   0  0  0  0  0  0  0  0  0  0  0  0
    8.3720    0.0360   22.9400 N   0  0  0  0  0  0  0  0  0  0  0  0
    8.3690    1.1600   23.8690 C   0  0  0  0  0  0  0  0  0  0  0  0
    9.6260    1.9870   23.7040 C   0  0  0  0  0  0  0  0  0  0  0  0
   11.1630    2.2910   23.5840 C   0  0  0  0  0  0  0  0  0  0  0  0
   12.2920    1.2850   23.6430 C   0  0  0  0  0  0  0  0  0  0  0  0
   11.9050   -0.0820   23.8510 C   0  0  0  0  0  0  0  0  0  0  0  0
   12.5780   -1.1220   23.9240 N   0  0  0  0  0  0  0  0  0  0  0  0
   13.2550   -1.9290   24.8200 C   0  0  0  0  0  0  0  0  0  0  0  0
   13.6430   -2.9140   24.0300 C   0  0  0  0  0  0  0  0  0  0  0  0
   13.2160   -2.6450   22.7730 C   0  0  0  0  0  0  0  0  0  0  0  0
   13.3200   -3.2490   21.6090 C   0  0  0  0  0  0  0  0  0  0  0  0
   12.4690   -2.9750   20.7410 C   0  0  0  0  0  0  0  0  0  0  0  0
   13.4170   -1.8910   20.8210 C   0  0  0  0  0  0  0  0  0  0  0  0
   12.5630   -1.5540   22.6840 N   0  0  0  0  0  0  0  0  0  0  0  0
   10.5230   -0.3970   23.9700 C   0  0  0  0  0  0  0  0  0  0  0  0
    9.5210    0.4590   23.9120 C   0  0  0  0  0  0  0  0  0  0  0  0
    7.2690   -0.3660   21.0090 N   0  0  0  0  0  0  0  0  0  0  0  0
    6.5650    0.1590   20.0080 C   0  0  0  0  0  0  0  0  0  0  0  0
    5.4040    0.8780   20.2900 C   0  0  0  0  0  0  0  0  0  0  0  0
    4.7000    1.4410   19.2630 C   0  0  0  0  0  0  0  0  0  0  0  0
    5.1350    1.2970   17.9680 C   0  0  0  0  0  0  0  0  0  0  0  0
    6.2350    0.6050   17.6490 N   0  0  0  0  0  0  0  0  0  0  0  0
    6.9240    0.0510   18.6780 C   0  0  0  0  0  0  0  0  0  0  0  0
  1  2  2  0
  2  3  1  0
  3  4  1  0
  4  5  1  0
  5  6  2  0
  6  7  1  0
  7  8  2  0
  8  9  1  0
  9 10  1  0
 10 11  2  0
 11 12  1  0
 12 13  1  0
 13 14  1  0
 13 15  1  0
 14 15  1  0
  9 16  1  0
 12 16  2  0
  8 17  1  0
  5 18  1  0
 17 18  2  0
  2 19  1  0
 19 20  1  0
 20 21  2  0
 21 22  1  0
 22 23  2  0
 23 24  1  0
 20 25  1  0
 24 25  2  0
M  END
