pyridine_urea_8177
     RDKit          3D

 23 25  0  0  0  0  0  0  0  0999 V2000
    8.6220    0.4880   21.8980 O   0  0  0  0  0  0  0  0  0  0  0  0
    8.1660   -0.6090   21.6270 C   0  0  0  0  0  0  0  0  0  0  0  0
    8.8520   -1.8040   21.8060 N   0  0  0  0  0  0  0  0  0  0  0  0
    9.2580   -2.3570   23.1180 C   0  0  0  0  0  0  0  0  0  0  0  0
   10.8120   -2.2650   23.2480 C   0  0  0  0  0  0  0  0  0  0  0  0
   11.6300   -2.9030   24.1700 C   0  0  0  0  0  0  0  0  0  0  0  0
   13.0320   -2.4730   23.8500 C   0  0  0  0  0  0  0  0  0  0  0  0
   12.8790   -1.6620   22.8080 N   0  0  0  0  0  0  0  0  0  0  0  0
   13.5550   -0.9160   21.9720 C   0  0  0  0  0  0  0  0  0  0  0  0
   13.7630   -1.2420   20.5860 C   0  0  0  0  0  0  0  0  0  0  0  0
   14.4390   -0.2650   19.5500 C   0  0  0  0  0  0  0  0  0  0  0  0
   14.9830    1.0900   20.0190 C   0  0  0  0  0  0  0  0  0  0  0  0
   15.6860    2.1490   18.8860 Cl  0  0  0  0  0  0  0  0  0  0  0  0
   14.8530    1.3750   21.6030 C   0  0  0  0  0  0  0  0  0  0  0  0
   14.0440    0.3170   22.5550 C   0  0  0  0  0  0  0  0  0  0  0  0
   11.5710   -1.4960   22.4010 N   0  0  0  0  0  0  0  0  0  0  0  0
    6.9270   -0.8390   21.0850 N   0  0  0  0  0  0  0  0  0  0  0  0
    6.3270   -0.1060   20.1080 C   0  0  0  0  0  0  0  0  0  0  0  0
    5.1630    0.6370   20.2410 C   0  0  0  0  0  0  0  0  0  0  0  0
    4.6050    1.3680   19.1990 C   0  0  0  0  0  0  0  0  0  0  0  0
    5.2660    1.3360   17.9800 C   0  0  0  0  0  0  0  0  0  0  0  0
    6.4000    0.6270   17.7920 N   0  0  0  0  0  0  0  0  0  0  0  0
    6.8990   -0.0710   18.8440 C   0  0  0  0  0  0  0  0  0  0  0  0
  1  2  2  0
  2  3  1  0
  3  4  1  0
  4  5  1  0
  5  6  1  0
  6  7  2  0
  7  8  1  0
  8  9  1  0
  9 10  2  0
 10 11  1  0
 11 12  2  0
 12 13  1  0
 12 14  1  0
  9 15  1  0
 14 15  2  0
  5 16  2  0
  8 16  1  0
  2 17  1  0
 17 18  1  0
 18 19  2  0
 19 20  1  0
 20 21  2  0
 21 22  1  0
 18 23  1  0
 22 23  2  0
M  END
