pyridine_urea_4938
     RDKit          3D

 21 22  0  0  0  0  0  0  0  0999 V2000
   10.2550    0.0400   23.7950 C   0  0  0  0  0  0  0  0  0  0  0  0
   11.6750    0.0100   23.1600 C   0  0  0  0  0  0  0  0  0  0  0  0
   12.5500    1.1810   23.4690 C   0  0  0  0  0  0  0  0  0  0  0  0
   12.7250    0.0690   22.7540 C   0  0  0  0  0  0  0  0  0  0  0  0
   11.4760   -0.7080   22.7570 C   0  0  0  0  0  0  0  0  0  0  0  0
   10.3340   -0.2360   23.4140 C   0  0  0  0  0  0  0  0  0  0  0  0
    9.1130   -0.6310   22.6010 N   0  0  0  0  0  0  0  0  0  0  0  0
    8.5810    0.1790   21.5950 C   0  0  0  0  0  0  0  0  0  0  0  0
    9.0630    1.2690   21.2700 O   0  0  0  0  0  0  0  0  0  0  0  0
    7.4610   -0.3800   21.0340 N   0  0  0  0  0  0  0  0  0  0  0  0
    6.6230    0.1660   20.1080 C   0  0  0  0  0  0  0  0  0  0  0  0
    5.4610    0.8690   20.3880 C   0  0  0  0  0  0  0  0  0  0  0  0
    4.6960    1.4020   19.3520 C   0  0  0  0  0  0  0  0  0  0  0  0
    5.1400    1.2000   18.0440 C   0  0  0  0  0  0  0  0  0  0  0  0
    6.2470    0.5170   17.7370 N   0  0  0  0  0  0  0  0  0  0  0  0
    6.9560    0.0190   18.7710 C   0  0  0  0  0  0  0  0  0  0  0  0
   11.5310   -1.8370   22.0960 C   0  0  0  0  0  0  0  0  0  0  0  0
   12.5280   -0.8790   22.2750 C   0  0  0  0  0  0  0  0  0  0  0  0
   13.0570   -1.8310   21.4890 N   0  0  0  0  0  0  0  0  0  0  0  0
   12.2800   -2.7320   21.2350 O   0  0  0  0  0  0  0  0  0  0  0  0
   13.8900   -1.4510   20.6670 O   0  0  0  0  0  0  0  0  0  0  0  0
  1  2  1  0
  2  3  2  0
  3  4  1  0
  4  5  2  0
  5  6  1  0
  6  7  1  0
  7  8  1  0
  8  9  2  0
  8 10  1  0
 10 11  1  0
 11 12  2  0
 12 13  1  0
 13 14  2  0
 14 15  1  0
 11 16  1  0
 15 16  2  0
  5 17  1  0
  2 18  1  0
 17 18  2  0
 18 19  1  0
 19 20  2  0
 19 21  1  0
M  CHG  2  19   1  21  -1
M  END
