pyridine_urea_14688
     RDKit          3D

 20 21  0  0  0  0  0  0  0  0999 V2000
    8.9820    1.1330   21.1520 O   0  0  0  0  0  0  0  0  0  0  0  0
    8.5980   -0.0320   21.3190 C   0  0  0  0  0  0  0  0  0  0  0  0
    9.3580   -1.0490   21.8620 N   0  0  0  0  0  0  0  0  0  0  0  0
    9.3370   -1.3050   23.2220 C   0  0  0  0  0  0  0  0  0  0  0  0
    8.5410   -0.4430   23.9540 C   0  0  0  0  0  0  0  0  0  0  0  0
    8.6180   -0.4610   25.3320 C   0  0  0  0  0  0  0  0  0  0  0  0
    7.5960   -1.1690   25.9530 N   0  0  0  0  0  0  0  0  0  0  0  0
    7.2150   -1.0140   27.3260 C   0  0  0  0  0  0  0  0  0  0  0  0
    6.1960   -1.8520   27.6370 C   0  0  0  0  0  0  0  0  0  0  0  0
    5.4570   -2.0540   28.9790 C   0  0  0  0  0  0  0  0  0  0  0  0
    4.1490   -1.6280   29.0560 O   0  0  0  0  0  0  0  0  0  0  0  0
    5.8890   -2.5880   26.4020 N   0  0  0  0  0  0  0  0  0  0  0  0
    6.7830   -2.1210   25.4080 N   0  0  0  0  0  0  0  0  0  0  0  0
    7.3340   -0.4900   20.9910 N   0  0  0  0  0  0  0  0  0  0  0  0
    6.5690    0.1200   20.0020 C   0  0  0  0  0  0  0  0  0  0  0  0
    5.4210    0.8410   20.3530 C   0  0  0  0  0  0  0  0  0  0  0  0
    4.7110    1.4430   19.3300 C   0  0  0  0  0  0  0  0  0  0  0  0
    5.1480    1.3130   18.0240 C   0  0  0  0  0  0  0  0  0  0  0  0
    6.2280    0.6240   17.6560 N   0  0  0  0  0  0  0  0  0  0  0  0
    6.8860    0.0610   18.6660 C   0  0  0  0  0  0  0  0  0  0  0  0
  1  2  2  0
  2  3  1  0
  3  4  1  0
  4  5  1  0
  5  6  1  0
  6  7  1  0
  7  8  1  0
  8  9  2  0
  9 10  1  0
 10 11  1  0
  9 12  1  0
  7 13  1  0
 12 13  2  0
  2 14  1  0
 14 15  1  0
 15 16  2  0
 16 17  1  0
 17 18  2  0
 18 19  1  0
 15 20  1  0
 19 20  2  0
M  END
