pyridine_urea_3295
     RDKit          3D

 20 20  0  0  0  0  0  0  0  0999 V2000
   13.3970   -1.4920   20.9060 C   0  0  0  0  0  0  0  0  0  0  0  0
   13.0440   -2.7860   21.4550 C   0  0  0  0  0  0  0  0  0  0  0  0
   13.2950   -3.8410   20.5780 C   0  0  0  0  0  0  0  0  0  0  0  0
   11.6500   -2.5660   21.7110 O   0  0  0  0  0  0  0  0  0  0  0  0
   11.4630   -1.6780   22.7480 C   0  0  0  0  0  0  0  0  0  0  0  0
   12.0330   -1.7230   23.8310 O   0  0  0  0  0  0  0  0  0  0  0  0
   10.6130   -0.5850   22.7700 C   0  0  1  0  0  0  0  0  0  0  0  0
    9.2650   -0.7850   22.3930 N   0  0  0  0  0  0  0  0  0  0  0  0
    8.5700    0.0430   21.5160 C   0  0  0  0  0  0  0  0  0  0  0  0
    8.8860    1.1950   21.1740 O   0  0  0  0  0  0  0  0  0  0  0  0
    7.4050   -0.5280   21.0180 N   0  0  0  0  0  0  0  0  0  0  0  0
    6.5750    0.1010   20.0730 C   0  0  0  0  0  0  0  0  0  0  0  0
    5.2940    0.8930   20.3730 C   0  0  0  0  0  0  0  0  0  0  0  0
    4.6550    1.4400   19.2760 C   0  0  0  0  0  0  0  0  0  0  0  0
    5.1500    1.2730   18.0100 C   0  0  0  0  0  0  0  0  0  0  0  0
    6.2570    0.5810   17.7060 N   0  0  0  0  0  0  0  0  0  0  0  0
    6.9360    0.0150   18.7340 C   0  0  0  0  0  0  0  0  0  0  0  0
   10.6910    0.0040   24.0220 C   0  0  0  0  0  0  0  0  0  0  0  0
    9.7600    1.0030   24.3000 C   0  0  0  0  0  0  0  0  0  0  0  0
   11.8810    0.7090   24.0330 C   0  0  0  0  0  0  0  0  0  0  0  0
  1  2  1  0
  2  3  1  0
  2  4  1  0
  4  5  1  0
  5  6  2  0
  5  7  1  0
  7  8  1  1
  8  9  1  0
  9 10  2  0
  9 11  1  0
 11 12  1  0
 12 13  2  0
 13 14  1  0
 14 15  2  0
 15 16  1  0
 12 17  1  0
 16 17  2  0
  7 18  1  0
 18 19  1  0
 18 20  1  0
M  END
