pyridine_urea_2221
     RDKit          3D

 26 27  0  0  0  0  0  0  0  0999 V2000
   16.9930   -4.9140   21.8200 C   0  0  0  0  0  0  0  0  0  0  0  0
   15.5680   -4.7390   21.9090 C   0  0  0  0  0  0  0  0  0  0  0  0
   14.8270   -5.3910   20.8420 O   0  0  0  0  0  0  0  0  0  0  0  0
   15.0700   -3.7850   23.3440 N   0  0  0  0  0  0  0  0  0  0  0  0
   13.8870   -3.1630   23.8190 C   0  0  0  0  0  0  0  0  0  0  0  0
   12.9960   -2.6800   22.8040 C   0  0  0  0  0  0  0  0  0  0  0  0
   13.3920   -1.4570   22.6950 N   0  0  0  0  0  0  0  0  0  0  0  0
   12.8380   -0.8640   21.5080 S   0  0  0  0  0  0  0  0  0  0  0  0
   12.1410   -1.7110   20.5850 O   0  0  0  0  0  0  0  0  0  0  0  0
   13.5700    0.2970   21.1610 O   0  0  0  0  0  0  0  0  0  0  0  0
   11.6510   -0.1850   22.5180 C   0  0  0  0  0  0  0  0  0  0  0  0
   11.9980    0.7890   23.3250 C   0  0  0  0  0  0  0  0  0  0  0  0
   11.0160    1.3000   24.0630 C   0  0  0  0  0  0  0  0  0  0  0  0
    9.6900    0.8520   24.0190 C   0  0  0  0  0  0  0  0  0  0  0  0
    9.1970   -0.1860   23.1930 C   0  0  0  0  0  0  0  0  0  0  0  0
    8.0190   -0.7040   22.9910 N   0  0  0  0  0  0  0  0  0  0  0  0
    7.7910   -0.2940   21.7280 C   0  0  0  0  0  0  0  0  0  0  0  0
    8.5440    0.5230   21.2120 O   0  0  0  0  0  0  0  0  0  0  0  0
    6.6980   -0.8170   21.1230 N   0  0  0  0  0  0  0  0  0  0  0  0
    6.1990   -0.1140   19.9730 C   0  0  0  0  0  0  0  0  0  0  0  0
    5.0300    0.6180   20.3220 C   0  0  0  0  0  0  0  0  0  0  0  0
    4.5170    1.3860   19.1080 C   0  0  0  0  0  0  0  0  0  0  0  0
    5.1450    1.3270   17.8930 C   0  0  0  0  0  0  0  0  0  0  0  0
    6.2410    0.6070   17.6460 N   0  0  0  0  0  0  0  0  0  0  0  0
    6.7200   -0.0840   18.6910 C   0  0  0  0  0  0  0  0  0  0  0  0
   10.3490   -0.7410   22.3680 C   0  0  0  0  0  0  0  0  0  0  0  0
  1  2  1  0
  2  3  2  0
  2  4  1  0
  4  5  1  0
  5  6  1  0
  6  7  1  0
  8  7  1  0
  8  9  2  0
  8 10  2  0
  8 11  1  0
 11 12  2  0
 12 13  1  0
 13 14  2  0
 14 15  1  0
 15 16  1  0
 16 17  1  0
 17 18  2  0
 17 19  1  0
 19 20  1  0
 20 21  2  0
 21 22  1  0
 22 23  2  0
 23 24  1  0
 20 25  1  0
 24 25  2  0
 11 26  1  0
 15 26  2  0
M  END
