pyridine_urea_526
     RDKit          3D

 25 27  0  0  0  0  0  0  0  0999 V2000
    8.4340    0.4600   20.8550 O   0  0  0  0  0  0  0  0  0  0  0  0
    7.9580   -0.5270   21.3450 C   0  0  0  0  0  0  0  0  0  0  0  0
    8.5400   -1.1870   22.3790 N   0  0  0  0  0  0  0  0  0  0  0  0
    9.2140   -0.4420   23.3730 C   0  0  0  0  0  0  0  0  0  0  0  0
    9.8300    0.8310   23.1160 C   0  0  0  0  0  0  0  0  0  0  0  0
   11.3260    0.7270   23.0820 C   0  0  0  0  0  0  0  0  0  0  0  0
   12.1540    1.8590   23.1120 C   0  0  0  0  0  0  0  0  0  0  0  0
   12.5500    0.6240   23.0380 C   0  0  0  0  0  0  0  0  0  0  0  0
   11.1660   -0.1300   23.0250 C   0  0  0  0  0  0  0  0  0  0  0  0
    9.6850    0.7030   23.0940 Cl  0  0  0  0  0  0  0  0  0  0  0  0
   11.2480   -1.4030   22.9600 C   0  0  0  0  0  0  0  0  0  0  0  0
   12.2910   -0.5200   22.9960 C   0  0  0  0  0  0  0  0  0  0  0  0
   12.9690   -2.1140   22.8980 Cl  0  0  0  0  0  0  0  0  0  0  0  0
    9.0430    1.8540   23.9770 C   0  0  0  0  0  0  0  0  0  0  0  0
    7.6600    1.6340   23.9340 C   0  0  0  0  0  0  0  0  0  0  0  0
    7.2650    1.9100   22.8350 O   0  0  0  0  0  0  0  0  0  0  0  0
    8.2160    2.3380   21.9640 C   0  0  0  0  0  0  0  0  0  0  0  0
    9.4290    1.5770   21.9580 C   0  0  0  0  0  0  0  0  0  0  0  0
    6.7740   -1.0210   20.9070 N   0  0  0  0  0  0  0  0  0  0  0  0
    6.1950   -0.2080   19.8700 C   0  0  0  0  0  0  0  0  0  0  0  0
    4.9790    0.4170   20.1250 C   0  0  0  0  0  0  0  0  0  0  0  0
    4.4730    1.2130   19.1130 C   0  0  0  0  0  0  0  0  0  0  0  0
    5.1260    1.3860   17.9130 C   0  0  0  0  0  0  0  0  0  0  0  0
    6.2920    0.8030   17.6220 N   0  0  0  0  0  0  0  0  0  0  0  0
    6.8080   -0.0060   18.6430 C   0  0  0  0  0  0  0  0  0  0  0  0
  1  2  2  0
  2  3  1  0
  3  4  1  0
  5  4  1  0
  5  6  1  0
  6  7  2  0
  7  8  1  0
  8  9  2  0
  9 10  1  0
  9 11  1  0
  6 12  1  0
 11 12  2  0
 12 13  1  0
  5 14  1  0
 14 15  1  0
 15 16  1  0
 16 17  1  0
  5 18  1  0
 17 18  1  0
  2 19  1  0
 19 20  1  0
 20 21  2  0
 21 22  1  0
 22 23  2  0
 23 24  1  0
 20 25  1  0
 24 25  2  0
M  END
