pyridine_urea_9682
     RDKit          3D

 28 30  0  0  0  0  0  0  0  0999 V2000
    6.5290    2.3540   25.0000 C   0  0  0  0  0  0  0  0  0  0  0  0
    6.7380    2.0580   23.5080 C   0  0  0  0  0  0  0  0  0  0  0  0
    7.6240    0.9290   23.4400 O   0  0  0  0  0  0  0  0  0  0  0  0
    9.0020    1.2510   23.2490 C   0  0  0  0  0  0  0  0  0  0  0  0
    9.5450    2.5920   23.5640 C   0  0  0  0  0  0  0  0  0  0  0  0
   10.9830    2.8890   23.3330 C   0  0  0  0  0  0  0  0  0  0  0  0
   11.2450    4.3010   23.7140 N   0  0  0  0  0  0  0  0  0  0  0  0
   10.7110    4.7570   24.9130 C   0  0  0  0  0  0  0  0  0  0  0  0
    9.7610    5.9390   24.6930 C   0  0  0  0  0  0  0  0  0  0  0  0
   10.4770    6.8620   24.3320 O   0  0  0  0  0  0  0  0  0  0  0  0
   11.5940    6.4090   23.5850 C   0  0  0  0  0  0  0  0  0  0  0  0
   11.0870    5.3430   22.8330 C   0  0  0  0  0  0  0  0  0  0  0  0
   11.7870    1.8510   22.8330 C   0  0  0  0  0  0  0  0  0  0  0  0
   12.8710    2.3350   22.7170 O   0  0  0  0  0  0  0  0  0  0  0  0
   12.5400    3.6630   22.2290 C   0  0  0  0  0  0  0  0  0  0  0  0
   13.5310    4.6190   22.3570 C   0  0  0  0  0  0  0  0  0  0  0  0
   11.2640    0.3900   22.4970 C   0  0  0  0  0  0  0  0  0  0  0  0
    9.8760    0.1470   22.6970 C   0  0  0  0  0  0  0  0  0  0  0  0
    9.2010   -0.9930   22.4120 N   0  0  0  0  0  0  0  0  0  0  0  0
    8.2070   -0.8920   21.3810 C   0  0  0  0  0  0  0  0  0  0  0  0
    8.3820   -1.3270   20.1070 O   0  0  0  0  0  0  0  0  0  0  0  0
    7.0360   -0.2870   21.6360 N   0  0  0  0  0  0  0  0  0  0  0  0
    6.3820    0.2230   20.5110 C   0  0  0  0  0  0  0  0  0  0  0  0
    5.2190    0.9660   20.5600 C   0  0  0  0  0  0  0  0  0  0  0  0
    4.6470    1.4390   19.3620 C   0  0  0  0  0  0  0  0  0  0  0  0
    5.2430    1.1700   18.1310 C   0  0  0  0  0  0  0  0  0  0  0  0
    6.3740    0.4530   17.9900 N   0  0  0  0  0  0  0  0  0  0  0  0
    6.9450   -0.0220   19.1220 C   0  0  0  0  0  0  0  0  0  0  0  0
  1  2  1  0
  2  3  1  0
  3  4  1  0
  4  5  2  0
  5  6  1  0
  6  7  1  0
  7  8  1  0
  8  9  1  0
  9 10  1  0
 10 11  1  0
  7 12  1  0
 11 12  1  0
  6 13  2  0
 13 14  1  0
 14 15  1  0
 15 16  1  0
 13 17  1  0
  4 18  1  0
 17 18  2  0
 18 19  1  0
 19 20  1  0
 20 21  2  0
 20 22  1  0
 22 23  1  0
 23 24  2  0
 24 25  1  0
 25 26  2  0
 26 27  1  0
 23 28  1  0
 27 28  2  0
M  END
