pyridine_urea_8879
     RDKit          3D

 20 21  0  0  0  0  0  0  0  0999 V2000
   11.3110    4.5180   23.4000 C   0  0  0  0  0  0  0  0  0  0  0  0
   11.1690    3.2950   22.4670 C   0  0  0  0  0  0  0  0  0  0  0  0
    9.6750    2.4200   22.3620 S   0  0  0  0  0  0  0  0  0  0  0  0
   10.3710    1.0330   23.2490 C   0  0  0  0  0  0  0  0  0  0  0  0
   10.1840   -0.1970   22.6090 C   0  0  0  0  0  0  0  0  0  0  0  0
    8.8560   -0.6550   22.3080 N   0  0  0  0  0  0  0  0  0  0  0  0
    8.1840    0.0520   21.3620 C   0  0  0  0  0  0  0  0  0  0  0  0
    8.5970    1.1300   20.9360 O   0  0  0  0  0  0  0  0  0  0  0  0
    7.0330   -0.5550   20.9590 N   0  0  0  0  0  0  0  0  0  0  0  0
    6.3010    0.0970   19.9800 C   0  0  0  0  0  0  0  0  0  0  0  0
    5.0960    0.7570   20.1650 C   0  0  0  0  0  0  0  0  0  0  0  0
    4.4980    1.3930   19.0790 C   0  0  0  0  0  0  0  0  0  0  0  0
    5.1410    1.3340   17.8600 C   0  0  0  0  0  0  0  0  0  0  0  0
    6.2960    0.6920   17.6610 N   0  0  0  0  0  0  0  0  0  0  0  0
    6.8490    0.0890   18.7180 C   0  0  0  0  0  0  0  0  0  0  0  0
    9.6740    1.0460   24.5800 C   0  0  0  0  0  0  0  0  0  0  0  0
   10.0650   -0.1940   25.3390 C   0  0  0  0  0  0  0  0  0  0  0  0
   11.2930   -0.3420   25.4040 O   0  0  0  0  0  0  0  0  0  0  0  0
   12.1080    0.0490   24.2680 C   0  0  0  0  0  0  0  0  0  0  0  0
   11.6720    1.1710   23.6070 C   0  0  0  0  0  0  0  0  0  0  0  0
  1  2  1  0
  2  3  1  0
  4  3  1  0
  4  5  1  0
  5  6  1  0
  6  7  1  0
  7  8  2  0
  7  9  1  0
  9 10  1  0
 10 11  2  0
 11 12  1  0
 12 13  2  0
 13 14  1  0
 10 15  1  0
 14 15  2  0
  4 16  1  0
 16 17  1  0
 17 18  1  0
 18 19  1  0
  4 20  1  0
 19 20  1  0
M  END
