pyridine_urea_615
     RDKit          3D

 24 26  0  0  0  0  0  0  0  0999 V2000
    9.4210   -0.2970   24.2280 C   0  0  0  0  0  0  0  0  0  0  0  0
    9.9950   -1.3590   23.2880 C   0  0  1  0  0  0  0  0  0  0  0  0
    9.3050   -1.4470   21.9980 N   0  0  0  0  0  0  0  0  0  0  0  0
    8.4490   -0.3580   21.5420 C   0  0  0  0  0  0  0  0  0  0  0  0
    9.0270    0.9480   21.4720 O   0  0  0  0  0  0  0  0  0  0  0  0
    7.1460   -0.6690   21.1890 N   0  0  0  0  0  0  0  0  0  0  0  0
    6.4680    0.0120   20.0960 C   0  0  0  0  0  0  0  0  0  0  0  0
    5.2970    0.7280   20.3650 C   0  0  0  0  0  0  0  0  0  0  0  0
    4.6440    1.3980   19.3350 C   0  0  0  0  0  0  0  0  0  0  0  0
    5.2050    1.3540   17.9190 C   0  0  0  0  0  0  0  0  0  0  0  0
    6.3450    0.6370   17.7090 N   0  0  0  0  0  0  0  0  0  0  0  0
    6.9640   -0.0260   18.7820 C   0  0  0  0  0  0  0  0  0  0  0  0
   11.4470   -1.1570   23.0950 C   0  0  0  0  0  0  0  0  0  0  0  0
   12.6600   -0.5300   22.9410 C   0  0  0  0  0  0  0  0  0  0  0  0
   13.1390    0.7550   22.8940 C   0  0  0  0  0  0  0  0  0  0  0  0
   12.5300    2.1010   22.9800 C   0  0  0  0  0  0  0  0  0  0  0  0
   11.7250    3.2740   23.0870 N   0  0  0  0  0  0  0  0  0  0  0  0
   10.4790    3.6530   23.5660 C   0  0  0  0  0  0  0  0  0  0  0  0
   10.2650    4.9890   23.3690 C   0  0  0  0  0  0  0  0  0  0  0  0
   11.3810    5.4860   22.7540 C   0  0  0  0  0  0  0  0  0  0  0  0
   12.3680    4.4020   22.5460 N   0  0  0  0  0  0  0  0  0  0  0  0
   11.2660    1.5670   23.1340 C   0  0  0  0  0  0  0  0  0  0  0  0
   10.2340    2.4400   23.2680 F   0  0  0  0  0  0  0  0  0  0  0  0
   10.8320    0.2580   23.1810 C   0  0  0  0  0  0  0  0  0  0  0  0
  2  1  1  1
  2  3  1  0
  3  4  1  0
  4  5  2  0
  4  6  1  0
  6  7  1  0
  7  8  2  0
  8  9  1  0
  9 10  2  0
 10 11  1  0
  7 12  1  0
 11 12  2  0
  2 13  1  0
 13 14  2  0
 14 15  1  0
 15 16  2  0
 16 17  1  0
 17 18  1  0
 18 19  2  0
 19 20  1  0
 17 21  1  0
 20 21  2  0
 16 22  1  0
 22 23  1  0
 13 24  1  0
 22 24  2  0
M  END
