pyridine_urea_759
     RDKit          3D

 23 25  0  0  0  0  0  0  0  0999 V2000
    8.7150    0.8850   21.1240 O   0  0  0  0  0  0  0  0  0  0  0  0
    8.3150   -0.2440   21.3650 C   0  0  0  0  0  0  0  0  0  0  0  0
    7.0730   -0.6780   20.9830 N   0  0  0  0  0  0  0  0  0  0  0  0
    6.3320    0.0090   20.0190 C   0  0  0  0  0  0  0  0  0  0  0  0
    5.1130    0.6440   20.2080 C   0  0  0  0  0  0  0  0  0  0  0  0
    4.5140    1.3090   19.1380 C   0  0  0  0  0  0  0  0  0  0  0  0
    5.1640    1.3100   17.9190 C   0  0  0  0  0  0  0  0  0  0  0  0
    6.3410    0.6950   17.7150 N   0  0  0  0  0  0  0  0  0  0  0  0
    6.8860    0.0670   18.7590 C   0  0  0  0  0  0  0  0  0  0  0  0
    9.0380   -1.1880   22.0500 N   0  0  0  0  0  0  0  0  0  0  0  0
   10.0490   -0.8390   22.9380 C   0  0  1  0  0  0  0  0  0  0  0  0
   11.3140   -1.1130   22.3680 C   0  0  0  0  0  0  0  0  0  0  0  0
   12.4330   -0.2990   22.6520 C   0  0  0  0  0  0  0  0  0  0  0  0
   12.1720    0.7680   23.4810 C   0  0  1  0  0  0  0  0  0  0  0  0
   13.0290    0.6150   24.2860 O   0  0  0  0  0  0  0  0  0  0  0  0
   12.2940    2.0590   22.9590 C   0  0  0  0  0  0  0  0  0  0  0  0
   11.1930    3.0470   23.1420 C   0  0  0  0  0  0  0  0  0  0  0  0
   11.3340    4.3340   22.6050 C   0  0  0  0  0  0  0  0  0  0  0  0
   12.4870    4.6870   21.9020 C   0  0  0  0  0  0  0  0  0  0  0  0
   13.5170    3.7750   21.7260 C   0  0  0  0  0  0  0  0  0  0  0  0
   13.4120    2.4910   22.2540 C   0  0  0  0  0  0  0  0  0  0  0  0
   11.0010    0.7040   24.1860 C   0  0  0  0  0  0  0  0  0  0  0  0
    9.8930    0.4320   23.4670 C   0  0  0  0  0  0  0  0  0  0  0  0
  1  2  2  0
  2  3  1  0
  3  4  1  0
  4  5  2  0
  5  6  1  0
  6  7  2  0
  7  8  1  0
  4  9  1  0
  8  9  2  0
  2 10  1  0
 11 10  1  6
 11 12  1  0
 12 13  1  0
 13 14  1  0
 14 15  1  1
 14 16  1  0
 16 17  2  0
 17 18  1  0
 18 19  2  0
 19 20  1  0
 16 21  1  0
 20 21  2  0
 14 22  1  0
 11 23  1  0
 22 23  1  0
M  END
