pyridine_urea_12233
     RDKit          3D

 22 24  0  0  0  0  0  0  0  0999 V2000
    9.4860   -2.5170   23.1840 C   0  0  0  0  0  0  0  0  0  0  0  0
   10.8830   -1.8570   22.9840 C   0  0  0  0  0  0  0  0  0  0  0  0
   11.8070   -2.6960   23.9830 C   0  0  0  0  0  0  0  0  0  0  0  0
   10.9460   -0.2660   23.3260 C   0  0  0  0  0  0  0  0  0  0  0  0
   12.3800    0.4250   23.2070 C   0  0  0  0  0  0  0  0  0  0  0  0
   13.2760   -0.5500   22.9200 C   0  0  0  0  0  0  0  0  0  0  0  0
   13.4300   -0.8170   24.0550 O   0  0  0  0  0  0  0  0  0  0  0  0
   12.1390   -0.9760   24.3370 N   0  0  0  0  0  0  0  0  0  0  0  0
   11.6170   -1.2470   22.9990 C   0  0  0  0  0  0  0  0  0  0  0  0
   10.1480   -1.6530   22.6520 C   0  0  0  0  0  0  0  0  0  0  0  0
    9.1730   -0.5290   22.7100 N   0  0  0  0  0  0  0  0  0  0  0  0
    8.6220    0.1530   21.6180 C   0  0  0  0  0  0  0  0  0  0  0  0
    9.0330    1.2490   21.2100 O   0  0  0  0  0  0  0  0  0  0  0  0
    7.5390   -0.5050   21.0560 N   0  0  0  0  0  0  0  0  0  0  0  0
    6.6580    0.0920   20.1290 C   0  0  0  0  0  0  0  0  0  0  0  0
    5.3780    0.8450   20.4920 C   0  0  0  0  0  0  0  0  0  0  0  0
    4.6320    1.4090   19.2910 C   0  0  0  0  0  0  0  0  0  0  0  0
    5.1460    1.2040   18.0250 C   0  0  0  0  0  0  0  0  0  0  0  0
    6.2720    0.5240   17.7660 N   0  0  0  0  0  0  0  0  0  0  0  0
    6.9800   -0.0030   18.7880 C   0  0  0  0  0  0  0  0  0  0  0  0
   12.5630   -1.2190   21.9560 C   0  0  0  0  0  0  0  0  0  0  0  0
   11.3840   -1.7360   21.6680 C   0  0  0  0  0  0  0  0  0  0  0  0
  2  1  1  0
  2  3  1  0
  2  4  1  0
  4  5  1  0
  5  6  1  0
  6  7  1  0
  7  8  1  0
  8  9  2  0
  9 10  1  0
 10 11  1  0
 11 12  1  0
 12 13  2  0
 12 14  1  0
 14 15  1  0
 15 16  2  0
 16 17  1  0
 17 18  2  0
 18 19  1  0
 15 20  1  0
 19 20  2  0
  6 21  2  0
  9 21  1  0
  2 22  1  0
 21 22  1  0
M  END
