pyridine_urea_12695
     RDKit          3D

 20 21  0  0  0  0  0  0  0  0999 V2000
    8.5090    1.0320   21.2480 O   0  0  0  0  0  0  0  0  0  0  0  0
    8.0590   -0.1000   21.3770 C   0  0  0  0  0  0  0  0  0  0  0  0
    8.8080   -1.0920   21.8690 N   0  0  0  0  0  0  0  0  0  0  0  0
   10.1470   -0.6670   22.0710 C   0  0  0  0  0  0  0  0  0  0  0  0
   10.4350   -0.5960   23.5370 C   0  0  0  0  0  0  0  0  0  0  0  0
    9.7060   -0.5860   24.6090 C   0  0  0  0  0  0  0  0  0  0  0  0
   10.7110   -0.5310   25.6210 C   0  0  0  0  0  0  0  0  0  0  0  0
   12.1950   -0.4940   25.3630 N   0  0  0  0  0  0  0  0  0  0  0  0
   12.8980   -0.4760   24.0900 C   0  0  0  0  0  0  0  0  0  0  0  0
   12.6400   -0.4820   22.7420 C   0  0  0  0  0  0  0  0  0  0  0  0
   12.6370    0.8210   22.3840 F   0  0  0  0  0  0  0  0  0  0  0  0
   13.6470   -1.0830   22.0690 F   0  0  0  0  0  0  0  0  0  0  0  0
   11.5070   -0.5280   24.2760 C   0  0  0  0  0  0  0  0  0  0  0  0
    6.8120   -0.4840   21.0210 N   0  0  0  0  0  0  0  0  0  0  0  0
    6.2420    0.1210   19.9850 C   0  0  0  0  0  0  0  0  0  0  0  0
    5.0360    0.7940   20.1820 C   0  0  0  0  0  0  0  0  0  0  0  0
    4.4510    1.4540   19.1000 C   0  0  0  0  0  0  0  0  0  0  0  0
    5.1690    1.3860   17.7990 C   0  0  0  0  0  0  0  0  0  0  0  0
    6.3200    0.7220   17.6510 N   0  0  0  0  0  0  0  0  0  0  0  0
    6.8230    0.1100   18.7340 C   0  0  0  0  0  0  0  0  0  0  0  0
  1  2  2  0
  2  3  1  0
  3  4  1  0
  4  5  1  0
  5  6  2  0
  6  7  1  0
  7  8  2  0
  8  9  1  0
  9 10  1  0
 10 11  1  0
 10 12  1  0
  5 13  1  0
  9 13  2  0
  2 14  1  0
 14 15  1  0
 15 16  2  0
 16 17  1  0
 17 18  2  0
 18 19  1  0
 15 20  1  0
 19 20  2  0
M  END
