pyridine_urea_696
     RDKit          3D

 24 26  0  0  0  0  0  0  0  0999 V2000
    8.8350   -3.9260   24.2910 O   0  0  0  0  0  0  0  0  0  0  0  0
    8.5360   -2.8030   23.9210 C   0  0  0  0  0  0  0  0  0  0  0  0
    8.9460   -2.2890   22.5490 C   0  0  0  0  0  0  0  0  0  0  0  0
    9.2220   -0.8510   22.5400 N   0  0  0  0  0  0  0  0  0  0  0  0
    8.5010   -0.0160   21.5740 C   0  0  0  0  0  0  0  0  0  0  0  0
    8.9560    1.0880   21.1880 O   0  0  0  0  0  0  0  0  0  0  0  0
    7.2880   -0.4990   21.1160 N   0  0  0  0  0  0  0  0  0  0  0  0
    6.5320    0.1300   20.0500 C   0  0  0  0  0  0  0  0  0  0  0  0
    5.3830    0.8640   20.3980 C   0  0  0  0  0  0  0  0  0  0  0  0
    4.6360    1.5030   19.4000 C   0  0  0  0  0  0  0  0  0  0  0  0
    5.1490    1.3430   17.9720 C   0  0  0  0  0  0  0  0  0  0  0  0
    6.2560    0.6160   17.6890 N   0  0  0  0  0  0  0  0  0  0  0  0
    6.9450    0.0090   18.7310 C   0  0  0  0  0  0  0  0  0  0  0  0
    7.8150   -1.8810   24.6450 N   0  0  0  0  0  0  0  0  0  0  0  0
    7.6800   -1.9510   25.9860 C   0  0  1  0  0  0  0  0  0  0  0  0
    8.5230   -1.1740   26.7690 C   0  0  0  0  0  0  0  0  0  0  0  0
    8.2760   -1.2810   28.1460 C   0  0  0  0  0  0  0  0  0  0  0  0
    6.8710   -0.9990   28.5860 C   0  0  0  0  0  0  0  0  0  0  0  0
    5.8720   -1.2920   27.6410 C   0  0  0  0  0  0  0  0  0  0  0  0
    4.5230   -1.1320   27.9360 C   0  0  0  0  0  0  0  0  0  0  0  0
    3.5220   -1.4150   27.0210 C   0  0  0  0  0  0  0  0  0  0  0  0
    3.8510   -1.8760   25.7540 C   0  0  0  0  0  0  0  0  0  0  0  0
    5.1960   -2.0500   25.4180 C   0  0  0  0  0  0  0  0  0  0  0  0
    6.1960   -1.7620   26.3520 C   0  0  0  0  0  0  0  0  0  0  0  0
  1  2  2  0
  2  3  1  0
  3  4  1  0
  4  5  1  0
  5  6  2  0
  5  7  1  0
  7  8  1  0
  8  9  2  0
  9 10  1  0
 10 11  2  0
 11 12  1  0
  8 13  1  0
 12 13  2  0
  2 14  1  0
 15 14  1  6
 15 16  1  0
 16 17  1  0
 17 18  1  0
 18 19  1  0
 19 20  2  0
 20 21  1  0
 21 22  2  0
 22 23  1  0
 15 24  1  0
 19 24  1  0
 23 24  2  0
M  END
