pyridine_urea_4442
     RDKit          3D

 23 24  0  0  0  0  0  0  0  0999 V2000
    8.1260    1.2690   24.3460 C   0  0  0  0  0  0  0  0  0  0  0  0
    9.4160    1.0740   23.7800 O   0  0  0  0  0  0  0  0  0  0  0  0
    9.6050    1.8390   22.6020 C   0  0  0  0  0  0  0  0  0  0  0  0
    8.9360    1.7700   21.5620 O   0  0  0  0  0  0  0  0  0  0  0  0
   10.6970    2.8520   22.7000 C   0  0  0  0  0  0  0  0  0  0  0  0
   11.7860    2.0750   22.9000 C   0  0  0  0  0  0  0  0  0  0  0  0
   12.3310    0.8430   23.0580 C   0  0  0  0  0  0  0  0  0  0  0  0
   12.1920   -0.6710   23.1440 C   0  0  0  0  0  0  0  0  0  0  0  0
   11.0210   -1.0110   22.2370 C   0  0  0  0  0  0  0  0  0  0  0  0
   10.0540   -1.5340   23.0880 C   0  0  0  0  0  0  0  0  0  0  0  0
    8.8310   -1.6490   22.3050 N   0  0  0  0  0  0  0  0  0  0  0  0
    8.2670   -0.7170   21.4760 C   0  0  0  0  0  0  0  0  0  0  0  0
    8.8620    0.2870   21.1780 O   0  0  0  0  0  0  0  0  0  0  0  0
    7.0110   -0.9870   21.0120 N   0  0  0  0  0  0  0  0  0  0  0  0
    6.3190   -0.1900   20.0750 C   0  0  0  0  0  0  0  0  0  0  0  0
    5.1340    0.5130   20.3160 C   0  0  0  0  0  0  0  0  0  0  0  0
    4.5820    1.2620   19.2770 C   0  0  0  0  0  0  0  0  0  0  0  0
    5.2290    1.3200   17.9470 C   0  0  0  0  0  0  0  0  0  0  0  0
    6.3660    0.6320   17.7480 N   0  0  0  0  0  0  0  0  0  0  0  0
    6.8560   -0.0810   18.7920 C   0  0  0  0  0  0  0  0  0  0  0  0
   13.1960    1.6680   23.1110 O   0  0  0  0  0  0  0  0  0  0  0  0
   12.3280    3.0270   22.9050 C   0  0  0  0  0  0  0  0  0  0  0  0
   13.0670    4.2100   22.9160 C   0  0  0  0  0  0  0  0  0  0  0  0
  1  2  1  0
  2  3  1  0
  3  4  2  0
  3  5  1  0
  5  6  1  0
  6  7  2  0
  7  8  1  0
  8  9  1  0
  9 10  1  0
 10 11  1  0
 11 12  1  0
 12 13  2  0
 12 14  1  0
 14 15  1  0
 15 16  2  0
 16 17  1  0
 17 18  2  0
 18 19  1  0
 15 20  1  0
 19 20  2  0
  7 21  1  0
  5 22  2  0
 21 22  1  0
 22 23  1  0
M  END
