pyridine_urea_1825
     RDKit          3D

 16 17  0  0  0  0  0  0  0  0999 V2000
    8.8680    1.1080   21.1540 O   0  0  0  0  0  0  0  0  0  0  0  0
    8.4270   -0.0000   21.4920 C   0  0  0  0  0  0  0  0  0  0  0  0
    9.0150   -0.8390   22.4130 N   0  0  0  0  0  0  0  0  0  0  0  0
   10.2910   -0.6840   22.9890 C   0  0  0  0  0  0  0  0  0  0  0  0
   10.8310    0.6030   22.9490 C   0  0  0  0  0  0  0  0  0  0  0  0
   12.2000    0.8470   23.0270 C   0  0  0  0  0  0  0  0  0  0  0  0
   12.5590    2.1850   22.9650 N   0  0  0  0  0  0  0  0  0  0  0  0
   11.1050    3.0090   22.8110 S   0  0  0  0  0  0  0  0  0  0  0  0
   10.0550    1.6970   22.8260 N   0  0  0  0  0  0  0  0  0  0  0  0
    7.2620   -0.5560   21.0050 N   0  0  0  0  0  0  0  0  0  0  0  0
    6.4710    0.0850   20.0790 C   0  0  0  0  0  0  0  0  0  0  0  0
    5.2760    0.7730   20.3770 C   0  0  0  0  0  0  0  0  0  0  0  0
    4.5920    1.3930   19.3430 C   0  0  0  0  0  0  0  0  0  0  0  0
    5.1850    1.2850   17.9500 C   0  0  0  0  0  0  0  0  0  0  0  0
    6.3110    0.6190   17.7000 N   0  0  0  0  0  0  0  0  0  0  0  0
    6.9120    0.0450   18.7610 C   0  0  0  0  0  0  0  0  0  0  0  0
  1  2  2  0
  2  3  1  0
  3  4  1  0
  4  5  1  0
  5  6  1  0
  6  7  2  0
  7  8  1  0
  5  9  2  0
  8  9  1  0
  2 10  1  0
 10 11  1  0
 11 12  2  0
 12 13  1  0
 13 14  2  0
 14 15  1  0
 11 16  1  0
 15 16  2  0
M  END
