pyridine_urea_1627
     RDKit          3D

 19 20  0  0  0  0  0  0  0  0999 V2000
    9.6990    0.4920   24.0840 C   0  0  0  0  0  0  0  0  0  0  0  0
   10.0490   -0.7600   23.3310 C   0  0  1  0  0  0  0  0  0  0  0  0
    9.2120   -0.9760   22.1570 N   0  0  0  0  0  0  0  0  0  0  0  0
    8.5520    0.0260   21.4780 C   0  0  0  0  0  0  0  0  0  0  0  0
    9.0470    1.1350   21.2460 O   0  0  0  0  0  0  0  0  0  0  0  0
    7.2950   -0.3910   21.1090 N   0  0  0  0  0  0  0  0  0  0  0  0
    6.5690    0.1640   20.0500 C   0  0  0  0  0  0  0  0  0  0  0  0
    5.4230    0.8880   20.3330 C   0  0  0  0  0  0  0  0  0  0  0  0
    4.6990    1.4620   19.2870 C   0  0  0  0  0  0  0  0  0  0  0  0
    5.1550    1.2890   17.9960 C   0  0  0  0  0  0  0  0  0  0  0  0
    6.2540    0.5870   17.6990 N   0  0  0  0  0  0  0  0  0  0  0  0
    6.9320    0.0390   18.7280 C   0  0  0  0  0  0  0  0  0  0  0  0
   11.5130   -0.9630   22.9420 C   0  0  0  0  0  0  0  0  0  0  0  0
   12.2240   -1.8580   22.6000 C   0  0  0  0  0  0  0  0  0  0  0  0
   13.1850   -0.8470   22.5780 C   0  0  0  0  0  0  0  0  0  0  0  0
   11.9790    0.0770   23.0350 C   0  0  0  0  0  0  0  0  0  0  0  0
   11.0800    1.6660   23.5440 Br  0  0  0  0  0  0  0  0  0  0  0  0
   12.8820    1.0970   23.0240 C   0  0  0  0  0  0  0  0  0  0  0  0
   12.9090   -0.2490   22.7530 C   0  0  0  0  0  0  0  0  0  0  0  0
  2  1  1  6
  2  3  1  0
  3  4  1  0
  4  5  2  0
  4  6  1  0
  6  7  1  0
  7  8  2  0
  8  9  1  0
  9 10  2  0
 10 11  1  0
  7 12  1  0
 11 12  2  0
  2 13  1  0
 13 14  2  0
 14 15  1  0
 15 16  2  0
 16 17  1  0
 16 18  1  0
 13 19  1  0
 18 19  2  0
M  END
