pyridine_urea_2350
     RDKit          3D

 25 27  0  0  0  0  0  0  0  0999 V2000
    8.6080    0.6010   21.1030 O   0  0  0  0  0  0  0  0  0  0  0  0
    8.3850   -0.5360   21.4820 C   0  0  0  0  0  0  0  0  0  0  0  0
    9.2790   -1.2270   22.3160 N   0  0  0  0  0  0  0  0  0  0  0  0
   10.3310   -0.3360   22.5490 C   0  0  0  0  0  0  0  0  0  0  0  0
    9.8490    0.9210   22.7480 C   0  0  0  0  0  0  0  0  0  0  0  0
   10.6290    1.9970   22.9150 C   0  0  0  0  0  0  0  0  0  0  0  0
   11.9720    1.9410   22.9120 C   0  0  0  0  0  0  0  0  0  0  0  0
   12.4030    3.2700   23.0470 C   0  0  0  0  0  0  0  0  0  0  0  0
   13.6640    3.7880   22.5660 N   0  0  0  0  0  0  0  0  0  0  0  0
   13.5750    5.1450   22.9060 O   0  0  0  0  0  0  0  0  0  0  0  0
   12.3520    5.3740   23.5310 C   0  0  0  0  0  0  0  0  0  0  0  0
   11.9350    6.7660   24.0210 C   0  0  0  0  0  0  0  0  0  0  0  0
   11.9330    6.8680   25.3790 F   0  0  0  0  0  0  0  0  0  0  0  0
   10.6730    7.0850   23.6310 F   0  0  0  0  0  0  0  0  0  0  0  0
   12.7310    7.7550   23.5500 F   0  0  0  0  0  0  0  0  0  0  0  0
   11.6090    4.2220   23.6330 N   0  0  0  0  0  0  0  0  0  0  0  0
   12.6560    0.6930   22.7700 C   0  0  0  0  0  0  0  0  0  0  0  0
   11.8780   -0.4890   22.5830 C   0  0  0  0  0  0  0  0  0  0  0  0
    7.2020   -1.1060   21.0480 N   0  0  0  0  0  0  0  0  0  0  0  0
    6.4490   -0.3560   20.1370 C   0  0  0  0  0  0  0  0  0  0  0  0
    5.2380    0.3010   20.3890 C   0  0  0  0  0  0  0  0  0  0  0  0
    4.6100    1.0390   19.3630 C   0  0  0  0  0  0  0  0  0  0  0  0
    5.2120    1.1000   18.1150 C   0  0  0  0  0  0  0  0  0  0  0  0
    6.3680    0.4790   17.8470 N   0  0  0  0  0  0  0  0  0  0  0  0
    6.9500   -0.2270   18.8460 C   0  0  0  0  0  0  0  0  0  0  0  0
  1  2  2  0
  2  3  1  0
  3  4  1  0
  4  5  2  0
  5  6  1  0
  6  7  2  0
  7  8  1  0
  8  9  2  0
  9 10  1  0
 10 11  1  0
 11 12  1  0
 12 13  1  0
 12 14  1  0
 12 15  1  0
  8 16  1  0
 11 16  2  0
  7 17  1  0
  4 18  1  0
 17 18  2  0
  2 19  1  0
 19 20  1  0
 20 21  2  0
 21 22  1  0
 22 23  2  0
 23 24  1  0
 20 25  1  0
 24 25  2  0
M  END
