pyridine_urea_11223
     RDKit          3D

 17 17  0  0  0  0  0  0  0  0999 V2000
   12.0930    3.3940   22.5910 C   0  0  0  0  0  0  0  0  0  0  0  0
   12.1040    1.9740   22.7400 O   0  0  0  0  0  0  0  0  0  0  0  0
   10.8080    1.3770   22.8070 C   0  0  0  0  0  0  0  0  0  0  0  0
    9.7600    1.9520   22.5370 O   0  0  0  0  0  0  0  0  0  0  0  0
   10.9600   -0.0750   23.2920 C   0  0  2  0  0  0  0  0  0  0  0  0
   12.4150   -0.3250   23.5260 C   0  0  0  0  0  0  0  0  0  0  0  0
   10.3890   -1.1670   22.3510 C   0  0  0  0  0  0  0  0  0  0  0  0
    8.9530   -1.2260   22.2000 N   0  0  0  0  0  0  0  0  0  0  0  0
    8.3070   -0.2800   21.4300 C   0  0  0  0  0  0  0  0  0  0  0  0
    8.7800    0.8190   21.2040 O   0  0  0  0  0  0  0  0  0  0  0  0
    7.0950   -0.7250   20.9600 N   0  0  0  0  0  0  0  0  0  0  0  0
    6.3170    0.0010   20.0450 C   0  0  0  0  0  0  0  0  0  0  0  0
    5.1530    0.6120   20.4050 C   0  0  0  0  0  0  0  0  0  0  0  0
    4.6020    1.3150   19.1710 C   0  0  0  0  0  0  0  0  0  0  0  0
    5.2140    1.3000   17.9380 C   0  0  0  0  0  0  0  0  0  0  0  0
    6.3460    0.6590   17.7170 N   0  0  0  0  0  0  0  0  0  0  0  0
    6.8510    0.0370   18.7670 C   0  0  0  0  0  0  0  0  0  0  0  0
  1  2  1  0
  2  3  1  0
  3  4  2  0
  3  5  1  0
  5  6  1  6
  5  7  1  0
  7  8  1  0
  8  9  1  0
  9 10  2  0
  9 11  1  0
 11 12  1  0
 12 13  2  0
 13 14  1  0
 14 15  2  0
 15 16  1  0
 12 17  1  0
 16 17  2  0
M  END
