pyridine_urea_14443
     RDKit          3D

 20 22  0  0  0  0  0  0  0  0999 V2000
   13.4610   -2.9110   20.7830 C   0  0  0  0  0  0  0  0  0  0  0  0
   12.6260   -2.0000   21.4660 C   0  0  0  0  0  0  0  0  0  0  0  0
   13.2060   -0.8210   21.9820 N   0  0  0  0  0  0  0  0  0  0  0  0
   12.2000   -0.1170   22.5090 C   0  0  0  0  0  0  0  0  0  0  0  0
   10.9500   -0.6470   22.4460 C   0  0  0  0  0  0  0  0  0  0  0  0
   10.9000   -2.2510   21.6790 S   0  0  0  0  0  0  0  0  0  0  0  0
    9.9130    0.0430   22.9370 C   0  0  1  0  0  0  0  0  0  0  0  0
    8.7250   -0.5480   22.8390 N   0  0  0  0  0  0  0  0  0  0  0  0
    8.1350   -0.0850   21.7060 C   0  0  0  0  0  0  0  0  0  0  0  0
    8.5920    0.9280   21.1950 O   0  0  0  0  0  0  0  0  0  0  0  0
    7.0710   -0.6980   21.1670 N   0  0  0  0  0  0  0  0  0  0  0  0
    6.4270   -0.0380   20.0580 C   0  0  0  0  0  0  0  0  0  0  0  0
    5.1310    0.7430   20.2800 C   0  0  0  0  0  0  0  0  0  0  0  0
    4.5540    1.3890   19.1880 C   0  0  0  0  0  0  0  0  0  0  0  0
    5.1590    1.3200   17.9260 C   0  0  0  0  0  0  0  0  0  0  0  0
    6.3190    0.6150   17.7170 N   0  0  0  0  0  0  0  0  0  0  0  0
    6.9590   -0.0760   18.8000 C   0  0  0  0  0  0  0  0  0  0  0  0
   10.4310    0.4200   24.2850 C   0  0  0  0  0  0  0  0  0  0  0  0
   11.6700    1.0730   24.2390 C   0  0  0  0  0  0  0  0  0  0  0  0
   12.3800    1.0700   23.0750 C   0  0  0  0  0  0  0  0  0  0  0  0
  1  2  1  0
  2  3  2  0
  3  4  1  0
  4  5  2  0
  2  6  1  0
  5  6  1  0
  5  7  1  0
  7  8  1  1
  8  9  1  0
  9 10  2  0
  9 11  1  0
 11 12  1  0
 12 13  2  0
 13 14  1  0
 14 15  2  0
 15 16  1  0
 12 17  1  0
 16 17  2  0
  7 18  1  0
 18 19  1  0
  4 20  1  0
 19 20  1  0
M  END
