pyridine_urea_6435
     RDKit          3D

 18 19  0  0  0  0  0  0  0  0999 V2000
   10.0530    0.2950   23.3630 C   0  0  0  0  0  0  0  0  0  0  0  0
   11.1610    0.5650   23.0050 C   0  0  0  0  0  0  0  0  0  0  0  0
   12.6750    0.6530   22.8970 C   0  0  0  0  0  0  0  0  0  0  0  0
   12.9320   -0.5640   22.6480 C   0  0  0  0  0  0  0  0  0  0  0  0
   11.8340   -1.1530   22.6580 C   0  0  0  0  0  0  0  0  0  0  0  0
   10.3070   -1.4690   22.7700 C   0  0  0  0  0  0  0  0  0  0  0  0
    9.5290   -1.2010   21.5340 N   0  0  0  0  0  0  0  0  0  0  0  0
    8.6590   -0.1400   21.3610 C   0  0  0  0  0  0  0  0  0  0  0  0
    8.8860    1.2780   21.2400 O   0  0  0  0  0  0  0  0  0  0  0  0
    7.2630   -0.4980   21.2130 N   0  0  0  0  0  0  0  0  0  0  0  0
    6.5900    0.0870   20.0570 C   0  0  0  0  0  0  0  0  0  0  0  0
    5.3810    0.9180   20.3420 C   0  0  0  0  0  0  0  0  0  0  0  0
    4.6910    1.5320   19.3170 C   0  0  0  0  0  0  0  0  0  0  0  0
    5.0930    1.4010   17.9980 C   0  0  0  0  0  0  0  0  0  0  0  0
    6.2590    0.5850   17.6960 N   0  0  0  0  0  0  0  0  0  0  0  0
    6.9380   -0.0240   18.7290 C   0  0  0  0  0  0  0  0  0  0  0  0
   12.9850   -1.6570   22.4370 N   0  0  0  0  0  0  0  0  0  0  0  0
   13.6010   -0.3280   22.6290 O   0  0  0  0  0  0  0  0  0  0  0  0
  1  2  1  0
  2  3  1  0
  3  4  2  0
  4  5  1  0
  5  6  1  0
  6  7  1  0
  7  8  1  0
  8  9  2  0
  8 10  1  0
 10 11  1  0
 11 12  2  0
 12 13  1  0
 13 14  2  0
 14 15  1  0
 11 16  1  0
 15 16  2  0
  5 17  2  0
  3 18  1  0
 17 18  1  0
M  END
