pyridine_urea_2284
     RDKit          3D

 19 19  0  0  0  0  0  0  0  0999 V2000
   13.0610   -0.2970   22.9290 C   0  0  0  0  0  0  0  0  0  0  0  0
   11.7790   -0.0860   23.7490 C   0  0  0  0  0  0  0  0  0  0  0  0
   12.1290   -0.5460   25.1450 C   0  0  0  0  0  0  0  0  0  0  0  0
   10.6910   -1.1320   23.5010 C   0  0  0  0  0  0  0  0  0  0  0  0
   10.2060   -1.3320   22.1310 C   0  0  0  0  0  0  0  0  0  0  0  0
    8.8500   -1.4950   21.6790 N   0  0  0  0  0  0  0  0  0  0  0  0
    8.1470   -0.3820   21.3100 C   0  0  0  0  0  0  0  0  0  0  0  0
    8.6330    0.7310   21.2210 O   0  0  0  0  0  0  0  0  0  0  0  0
    6.7770   -0.7100   21.0270 N   0  0  0  0  0  0  0  0  0  0  0  0
    6.2460   -0.0230   19.9830 C   0  0  0  0  0  0  0  0  0  0  0  0
    5.0610    0.7000   20.1500 C   0  0  0  0  0  0  0  0  0  0  0  0
    4.5250    1.4100   19.0980 C   0  0  0  0  0  0  0  0  0  0  0  0
    5.1840    1.3910   17.8920 C   0  0  0  0  0  0  0  0  0  0  0  0
    6.3220    0.7060   17.6850 N   0  0  0  0  0  0  0  0  0  0  0  0
    6.8290    0.0120   18.7300 C   0  0  0  0  0  0  0  0  0  0  0  0
   10.8950    1.3820   23.5690 S   0  0  0  0  0  0  0  0  0  0  0  0
   12.0170    2.6830   23.1100 C   0  0  0  0  0  0  0  0  0  0  0  0
   10.0800    1.2320   22.3990 O   0  0  0  0  0  0  0  0  0  0  0  0
   10.2760    1.6990   24.8200 O   0  0  0  0  0  0  0  0  0  0  0  0
  2  1  1  0
  2  3  1  0
  2  4  1  0
  4  5  1  0
  5  6  1  0
  6  7  1  0
  7  8  2  0
  7  9  1  0
  9 10  1  0
 10 11  2  0
 11 12  1  0
 12 13  2  0
 13 14  1  0
 10 15  1  0
 14 15  2  0
  2 16  1  0
 16 17  1  0
 16 18  2  0
 16 19  2  0
M  END
