pyridine_urea_7404
     RDKit          3D

 17 17  0  0  0  0  0  0  0  0999 V2000
   12.2970   -2.4580   21.4460 C   0  0  0  0  0  0  0  0  0  0  0  0
   13.2200   -1.3430   21.8440 C   0  0  0  0  0  0  0  0  0  0  0  0
   12.4210   -0.2360   22.2420 O   0  0  0  0  0  0  0  0  0  0  0  0
   12.8050    0.3300   23.3930 C   0  0  0  0  0  0  0  0  0  0  0  0
   11.7080    0.5930   24.1840 C   0  0  0  0  0  0  0  0  0  0  0  0
   10.4640    0.3510   23.6560 C   0  0  0  0  0  0  0  0  0  0  0  0
   10.1500   -0.9190   23.1840 C   0  0  0  0  0  0  0  0  0  0  0  0
    8.8480   -0.9140   22.5600 N   0  0  0  0  0  0  0  0  0  0  0  0
    8.5280    0.0510   21.6650 C   0  0  0  0  0  0  0  0  0  0  0  0
    9.2800    1.2450   21.4160 O   0  0  0  0  0  0  0  0  0  0  0  0
    7.4410   -0.1330   20.9860 N   0  0  0  0  0  0  0  0  0  0  0  0
    6.6200    0.2640   19.9990 C   0  0  0  0  0  0  0  0  0  0  0  0
    5.4300    0.9360   20.2660 C   0  0  0  0  0  0  0  0  0  0  0  0
    4.6030    1.3910   19.2630 C   0  0  0  0  0  0  0  0  0  0  0  0
    5.0310    1.1390   17.9770 C   0  0  0  0  0  0  0  0  0  0  0  0
    6.1580    0.4840   17.6740 N   0  0  0  0  0  0  0  0  0  0  0  0
    6.9260    0.0590   18.6820 C   0  0  0  0  0  0  0  0  0  0  0  0
  1  2  1  0
  2  3  1  0
  3  4  1  0
  4  5  1  0
  5  6  1  0
  6  7  1  0
  7  8  1  0
  8  9  1  0
  9 10  2  0
  9 11  1  0
 11 12  1  0
 12 13  2  0
 13 14  1  0
 14 15  2  0
 15 16  1  0
 12 17  1  0
 16 17  2  0
M  END
