pyridine_urea_10629
     RDKit          3D

 21 22  0  0  0  0  0  0  0  0999 V2000
    9.9280   -2.9400   23.5450 C   0  0  0  0  0  0  0  0  0  0  0  0
   11.3250   -2.7760   23.2990 O   0  0  0  0  0  0  0  0  0  0  0  0
   11.7180   -1.4760   23.1320 C   0  0  0  0  0  0  0  0  0  0  0  0
   13.1130   -1.0930   22.8970 C   0  0  0  0  0  0  0  0  0  0  0  0
   13.2670    0.3730   22.7710 C   0  0  0  0  0  0  0  0  0  0  0  0
   12.1120    1.3130   22.8680 C   0  0  0  0  0  0  0  0  0  0  0  0
   12.4220    3.1820   22.6970 Br  0  0  0  0  0  0  0  0  0  0  0  0
   10.7480    1.1250   23.0650 C   0  0  0  0  0  0  0  0  0  0  0  0
    9.4510    0.7490   23.2660 C   0  0  0  0  0  0  0  0  0  0  0  0
    9.3470   -0.6090   23.5310 C   0  0  0  0  0  0  0  0  0  0  0  0
    8.6270   -1.1970   22.4250 N   0  0  0  0  0  0  0  0  0  0  0  0
    8.1600   -0.3660   21.4490 C   0  0  0  0  0  0  0  0  0  0  0  0
    8.7070    0.6920   21.1560 O   0  0  0  0  0  0  0  0  0  0  0  0
    7.0160   -0.8320   20.8700 N   0  0  0  0  0  0  0  0  0  0  0  0
    6.3180   -0.0750   19.9390 C   0  0  0  0  0  0  0  0  0  0  0  0
    5.1070    0.6290   20.1830 C   0  0  0  0  0  0  0  0  0  0  0  0
    4.4180    1.4220   19.1970 C   0  0  0  0  0  0  0  0  0  0  0  0
    5.1800    1.3910   17.8750 C   0  0  0  0  0  0  0  0  0  0  0  0
    6.3260    0.7020   17.6820 N   0  0  0  0  0  0  0  0  0  0  0  0
    6.8860   -0.0220   18.6990 C   0  0  0  0  0  0  0  0  0  0  0  0
   10.6860   -0.3160   23.1860 C   0  0  0  0  0  0  0  0  0  0  0  0
  1  2  1  0
  2  3  1  0
  3  4  2  0
  4  5  1  0
  5  6  2  0
  6  7  1  0
  6  8  1  0
  8  9  1  0
  9 10  1  0
 10 11  1  0
 11 12  1  0
 12 13  2  0
 12 14  1  0
 14 15  1  0
 15 16  2  0
 16 17  1  0
 17 18  2  0
 18 19  1  0
 15 20  1  0
 19 20  2  0
  3 21  1  0
  8 21  2  0
M  END
