pyridine_urea_13297
     RDKit          3D

 23 25  0  0  0  0  0  0  0  0999 V2000
   10.1140   -3.9010   25.1900 C   0  0  0  0  0  0  0  0  0  0  0  0
    9.7380   -3.3970   23.9050 O   0  0  0  0  0  0  0  0  0  0  0  0
    9.4340   -2.0620   23.7920 C   0  0  0  0  0  0  0  0  0  0  0  0
    8.6680   -1.5540   24.6060 O   0  0  0  0  0  0  0  0  0  0  0  0
    9.9780   -1.2670   22.7600 C   0  0  0  0  0  0  0  0  0  0  0  0
    8.9980   -1.2780   21.7070 N   0  0  0  0  0  0  0  0  0  0  0  0
    8.2880   -0.1610   21.3800 C   0  0  0  0  0  0  0  0  0  0  0  0
    8.7900    0.9540   21.3180 O   0  0  0  0  0  0  0  0  0  0  0  0
    6.9020   -0.5140   21.1100 N   0  0  0  0  0  0  0  0  0  0  0  0
    6.3070    0.1110   20.0560 C   0  0  0  0  0  0  0  0  0  0  0  0
    5.0090    0.8660   20.3020 C   0  0  0  0  0  0  0  0  0  0  0  0
    4.4980    1.4800   19.1750 C   0  0  0  0  0  0  0  0  0  0  0  0
    5.2210    1.3700   17.8440 C   0  0  0  0  0  0  0  0  0  0  0  0
    6.3620    0.6830   17.6870 N   0  0  0  0  0  0  0  0  0  0  0  0
    6.8690    0.0740   18.7840 C   0  0  0  0  0  0  0  0  0  0  0  0
   10.2740    0.1450   23.0790 C   0  0  0  0  0  0  0  0  0  0  0  0
   11.3920   -0.6310   23.2130 C   0  0  0  0  0  0  0  0  0  0  0  0
   11.5280   -1.1940   24.4580 C   0  0  0  0  0  0  0  0  0  0  0  0
   12.7900   -0.9390   24.5610 C   0  0  0  0  0  0  0  0  0  0  0  0
   13.0950   -0.5120   25.7450 F   0  0  0  0  0  0  0  0  0  0  0  0
   13.5700   -2.0430   24.4560 F   0  0  0  0  0  0  0  0  0  0  0  0
   12.8730   -0.0800   23.4860 C   0  0  0  0  0  0  0  0  0  0  0  0
   11.2770   -1.5790   22.2980 C   0  0  0  0  0  0  0  0  0  0  0  0
  1  2  1  0
  2  3  1  0
  3  4  2  0
  5  3  1  0
  5  6  1  0
  6  7  1  0
  7  8  2  0
  7  9  1  0
  9 10  1  0
 10 11  2  0
 11 12  1  0
 12 13  2  0
 13 14  1  0
 10 15  1  0
 14 15  2  0
  5 16  1  0
 17 16  1  0
 17 18  1  0
 18 19  1  0
 19 20  1  0
 19 21  1  0
 17 22  1  0
 19 22  1  0
  5 23  1  0
 17 23  1  0
M  END
