pyridine_urea_9322
     RDKit          3D

 18 19  0  0  0  0  0  0  0  0999 V2000
    8.8410    1.2580   21.1420 O   0  0  0  0  0  0  0  0  0  0  0  0
    8.1860    0.2980   21.5700 C   0  0  0  0  0  0  0  0  0  0  0  0
    7.1660   -0.3620   20.9650 N   0  0  0  0  0  0  0  0  0  0  0  0
    6.4710    0.2080   19.9270 C   0  0  0  0  0  0  0  0  0  0  0  0
    5.3080    0.9220   20.2050 C   0  0  0  0  0  0  0  0  0  0  0  0
    4.6140    1.5220   19.1610 C   0  0  0  0  0  0  0  0  0  0  0  0
    5.1240    1.3730   17.8900 C   0  0  0  0  0  0  0  0  0  0  0  0
    6.2330    0.6800   17.6090 N   0  0  0  0  0  0  0  0  0  0  0  0
    6.8790    0.1140   18.6310 C   0  0  0  0  0  0  0  0  0  0  0  0
    8.4120   -0.2520   22.7780 N   0  0  0  0  0  0  0  0  0  0  0  0
    9.7060   -0.7920   23.0150 C   0  0  0  0  0  0  0  0  0  0  0  0
   10.6330   -0.8590   21.8360 C   0  0  0  0  0  0  0  0  0  0  0  0
   11.8860   -1.3770   22.0300 C   0  0  0  0  0  0  0  0  0  0  0  0
   12.1510   -1.7870   23.2950 C   0  0  0  0  0  0  0  0  0  0  0  0
   13.7010   -2.5710   23.8170 Br  0  0  0  0  0  0  0  0  0  0  0  0
   11.3260   -1.7130   24.3140 C   0  0  0  0  0  0  0  0  0  0  0  0
   11.8410   -2.1780   25.4110 F   0  0  0  0  0  0  0  0  0  0  0  0
   10.0890   -1.2300   24.2190 C   0  0  0  0  0  0  0  0  0  0  0  0
  1  2  2  0
  2  3  1  0
  3  4  1  0
  4  5  2  0
  5  6  1  0
  6  7  2  0
  7  8  1  0
  4  9  1  0
  8  9  2  0
  2 10  1  0
 10 11  1  0
 11 12  2  0
 12 13  1  0
 13 14  2  0
 14 15  1  0
 14 16  1  0
 16 17  1  0
 11 18  1  0
 16 18  2  0
M  END
