pyridine_urea_9568
     RDKit          3D

 18 19  0  0  0  0  0  0  0  0999 V2000
    8.7530    1.1380   21.0970 O   0  0  0  0  0  0  0  0  0  0  0  0
    8.3060    0.0210   21.3960 C   0  0  0  0  0  0  0  0  0  0  0  0
    8.9980   -0.8380   22.2010 N   0  0  0  0  0  0  0  0  0  0  0  0
   10.3300   -0.3910   22.4470 C   0  0  0  0  0  0  0  0  0  0  0  0
   11.3560   -1.5000   22.5390 C   0  0  2  0  0  0  0  0  0  0  0  0
   11.0500   -2.0480   23.8780 C   0  0  0  0  0  0  0  0  0  0  0  0
   11.0290   -0.7710   24.6970 C   0  0  0  0  0  0  0  0  0  0  0  0
   12.2940    0.0700   24.5070 C   0  0  0  0  0  0  0  0  0  0  0  0
   12.8370    0.1510   23.0790 C   0  0  2  0  0  0  0  0  0  0  0  0
   12.1990    1.0830   22.6380 O   0  0  0  0  0  0  0  0  0  0  0  0
   12.6850   -1.1000   22.4860 C   0  0  0  0  0  0  0  0  0  0  0  0
    7.1160   -0.5100   20.9910 N   0  0  0  0  0  0  0  0  0  0  0  0
    6.3690    0.1280   20.0120 C   0  0  0  0  0  0  0  0  0  0  0  0
    5.1790    0.8000   20.2090 C   0  0  0  0  0  0  0  0  0  0  0  0
    4.5500    1.4160   19.1370 C   0  0  0  0  0  0  0  0  0  0  0  0
    5.1530    1.3320   17.8890 C   0  0  0  0  0  0  0  0  0  0  0  0
    6.3000    0.6750   17.6780 N   0  0  0  0  0  0  0  0  0  0  0  0
    6.8740    0.0930   18.7340 C   0  0  0  0  0  0  0  0  0  0  0  0
  1  2  2  0
  2  3  1  0
  3  4  1  0
  5  4  1  1
  5  6  1  0
  6  7  1  0
  7  8  1  0
  8  9  1  0
  9 10  1  6
  5 11  1  0
  9 11  1  0
  2 12  1  0
 12 13  1  0
 13 14  2  0
 14 15  1  0
 15 16  2  0
 16 17  1  0
 13 18  1  0
 17 18  2  0
M  END
