pyridine_urea_10247
     RDKit          3D

 23 25  0  0  0  0  0  0  0  0999 V2000
    8.8740    1.5440   21.1380 O   0  0  0  0  0  0  0  0  0  0  0  0
    8.4490    0.4820   21.5830 C   0  0  0  0  0  0  0  0  0  0  0  0
    8.9730   -0.1670   22.6660 N   0  0  0  0  0  0  0  0  0  0  0  0
    9.3920   -1.4880   22.6370 C   0  0  0  0  0  0  0  0  0  0  0  0
   10.7150   -1.8520   22.5340 C   0  0  0  0  0  0  0  0  0  0  0  0
   11.6710   -1.4000   23.4540 C   0  0  0  0  0  0  0  0  0  0  0  0
   12.9780   -1.7960   23.3500 C   0  0  0  0  0  0  0  0  0  0  0  0
   13.4780   -2.6180   22.4250 N   0  0  0  0  0  0  0  0  0  0  0  0
   12.6160   -3.0870   21.5200 C   0  0  0  0  0  0  0  0  0  0  0  0
   12.9200   -3.9180   20.6080 O   0  0  0  0  0  0  0  0  0  0  0  0
   14.2060   -4.4400   20.5760 C   0  0  0  0  0  0  0  0  0  0  0  0
   14.6810   -4.1410   19.4330 C   0  0  0  0  0  0  0  0  0  0  0  0
   15.6090   -4.9640   18.9960 C   0  0  0  0  0  0  0  0  0  0  0  0
   15.7600   -5.7140   19.9120 C   0  0  0  0  0  0  0  0  0  0  0  0
   14.6960   -5.7300   20.6550 C   0  0  0  0  0  0  0  0  0  0  0  0
   11.2810   -2.7150   21.5430 C   0  0  0  0  0  0  0  0  0  0  0  0
    7.3670   -0.2230   21.0760 N   0  0  0  0  0  0  0  0  0  0  0  0
    6.6440    0.2360   20.0480 C   0  0  0  0  0  0  0  0  0  0  0  0
    5.5470    1.0470   20.3070 C   0  0  0  0  0  0  0  0  0  0  0  0
    4.7710    1.5750   19.2960 C   0  0  0  0  0  0  0  0  0  0  0  0
    5.1040    1.2850   17.9960 C   0  0  0  0  0  0  0  0  0  0  0  0
    6.1400    0.5020   17.6770 N   0  0  0  0  0  0  0  0  0  0  0  0
    6.9160   -0.0300   18.7170 C   0  0  0  0  0  0  0  0  0  0  0  0
  1  2  2  0
  2  3  1  0
  3  4  1  0
  4  5  1  0
  5  6  2  0
  6  7  1  0
  7  8  2  0
  8  9  1  0
  9 10  1  0
 10 11  1  0
 11 12  1  0
 12 13  1  0
 13 14  1  0
 11 15  1  0
 14 15  1  0
  5 16  1  0
  9 16  2  0
  2 17  1  0
 17 18  1  0
 18 19  2  0
 19 20  1  0
 20 21  2  0
 21 22  1  0
 18 23  1  0
 22 23  2  0
M  END
