pyridine_urea_8341
     RDKit          3D

 23 24  0  0  0  0  0  0  0  0999 V2000
    8.1030    1.4350   26.6170 C   0  0  0  0  0  0  0  0  0  0  0  0
    8.8940    0.1570   26.8800 C   0  0  0  0  0  0  0  0  0  0  0  0
    9.9160   -0.0600   25.8920 O   0  0  0  0  0  0  0  0  0  0  0  0
    9.6180    0.2600   24.5970 C   0  0  0  0  0  0  0  0  0  0  0  0
    8.6510    1.1740   24.0670 O   0  0  0  0  0  0  0  0  0  0  0  0
   10.3590   -0.4160   23.6220 C   0  0  0  0  0  0  0  0  0  0  0  0
    9.9700   -1.2160   22.5180 C   0  0  0  0  0  0  0  0  0  0  0  0
    8.6810   -1.4290   22.2120 N   0  0  0  0  0  0  0  0  0  0  0  0
    8.0550   -0.4380   21.4790 C   0  0  0  0  0  0  0  0  0  0  0  0
    8.5890    0.6460   21.2690 O   0  0  0  0  0  0  0  0  0  0  0  0
    6.8050   -0.8110   21.0180 N   0  0  0  0  0  0  0  0  0  0  0  0
    6.2600   -0.0580   19.9020 C   0  0  0  0  0  0  0  0  0  0  0  0
    4.9630    0.6860   20.2320 C   0  0  0  0  0  0  0  0  0  0  0  0
    4.3860    1.5070   19.0840 C   0  0  0  0  0  0  0  0  0  0  0  0
    5.1610    1.4810   17.7820 C   0  0  0  0  0  0  0  0  0  0  0  0
    6.3110    0.7590   17.6290 N   0  0  0  0  0  0  0  0  0  0  0  0
    6.8470    0.0100   18.6580 C   0  0  0  0  0  0  0  0  0  0  0  0
   11.3760   -1.8280   21.6510 S   0  0  0  0  0  0  0  0  0  0  0  0
   12.7550   -1.1450   22.5100 C   0  0  0  0  0  0  0  0  0  0  0  0
   13.0860   -1.9080   21.4230 C   0  0  0  0  0  0  0  0  0  0  0  0
   11.8720   -0.4240   23.5560 C   0  0  0  0  0  0  0  0  0  0  0  0
   12.6060    0.1750   24.4000 C   0  0  0  0  0  0  0  0  0  0  0  0
   12.7370   -0.7370   25.3990 C   0  0  0  0  0  0  0  0  0  0  0  0
  1  2  1  0
  2  3  1  0
  3  4  1  0
  4  5  2  0
  4  6  1  0
  6  7  2  0
  7  8  1  0
  8  9  1  0
  9 10  2  0
  9 11  1  0
 11 12  1  0
 12 13  2  0
 13 14  1  0
 14 15  2  0
 15 16  1  0
 12 17  1  0
 16 17  2  0
  7 18  1  0
 18 19  1  0
 19 20  1  0
  6 21  1  0
 19 21  2  0
 21 22  1  0
 22 23  1  0
M  END
