pyridine_urea_5496
     RDKit          3D

 18 19  0  0  0  0  0  0  0  0999 V2000
    9.1760   -2.7590   23.9470 C   0  0  0  0  0  0  0  0  0  0  0  0
    8.9200   -2.1900   22.5740 C   0  0  2  0  0  0  0  0  0  0  0  0
   10.2790   -1.9950   21.8450 C   0  0  0  0  0  0  0  0  0  0  0  0
   11.3810   -1.6820   22.7230 N   0  0  0  0  0  0  0  0  0  0  0  0
   11.8910   -2.4370   23.7420 C   0  0  0  0  0  0  0  0  0  0  0  0
   12.9660   -1.7560   24.3330 N   0  0  0  0  0  0  0  0  0  0  0  0
   13.0210   -0.6050   23.6090 C   0  0  0  0  0  0  0  0  0  0  0  0
   12.0700   -0.5060   22.6060 N   0  0  0  0  0  0  0  0  0  0  0  0
    8.5060   -0.8140   22.7620 N   0  0  0  0  0  0  0  0  0  0  0  0
    8.2370   -0.0740   21.6420 C   0  0  0  0  0  0  0  0  0  0  0  0
    8.8780    0.9100   21.2970 O   0  0  0  0  0  0  0  0  0  0  0  0
    7.1410   -0.6150   20.9870 N   0  0  0  0  0  0  0  0  0  0  0  0
    6.3910    0.0890   20.0490 C   0  0  0  0  0  0  0  0  0  0  0  0
    5.0900    0.8150   20.3940 C   0  0  0  0  0  0  0  0  0  0  0  0
    4.4980    1.5210   19.1860 C   0  0  0  0  0  0  0  0  0  0  0  0
    5.1540    1.4800   17.8210 C   0  0  0  0  0  0  0  0  0  0  0  0
    6.3940    0.7180   17.6850 N   0  0  0  0  0  0  0  0  0  0  0  0
    6.9040    0.1010   18.7610 C   0  0  0  0  0  0  0  0  0  0  0  0
  2  1  1  1
  2  3  1  0
  3  4  1  0
  4  5  1  0
  5  6  2  0
  6  7  1  0
  4  8  1  0
  7  8  2  0
  2  9  1  0
  9 10  1  0
 10 11  2  0
 10 12  1  0
 12 13  1  0
 13 14  2  0
 14 15  1  0
 15 16  2  0
 16 17  1  0
 13 18  1  0
 17 18  2  0
M  END
