pyridine_urea_11192
     RDKit          3D

 17 17  0  0  0  0  0  0  0  0999 V2000
   12.9550    0.8700   22.9630 C   0  0  0  0  0  0  0  0  0  0  0  0
   12.5160   -0.2240   23.0730 C   0  0  2  0  0  0  0  0  0  0  0  0
   13.2670   -0.7640   21.9550 O   0  0  0  0  0  0  0  0  0  0  0  0
   11.5050   -1.3380   23.1710 C   0  0  0  0  0  0  0  0  0  0  0  0
   11.1010   -1.8550   21.8360 C   0  0  0  0  0  0  0  0  0  0  0  0
   11.9770   -2.5150   24.0820 C   0  0  0  0  0  0  0  0  0  0  0  0
   10.0640   -0.8880   23.3750 C   0  0  0  0  0  0  0  0  0  0  0  0
    9.1340   -1.1570   22.2590 N   0  0  0  0  0  0  0  0  0  0  0  0
    8.4800   -0.1530   21.5590 C   0  0  0  0  0  0  0  0  0  0  0  0
    9.0680    1.1320   21.2390 O   0  0  0  0  0  0  0  0  0  0  0  0
    7.1450   -0.5920   21.2060 N   0  0  0  0  0  0  0  0  0  0  0  0
    6.5320    0.0330   20.0390 C   0  0  0  0  0  0  0  0  0  0  0  0
    5.2970    0.8410   20.3030 C   0  0  0  0  0  0  0  0  0  0  0  0
    4.6430    1.4910   19.2800 C   0  0  0  0  0  0  0  0  0  0  0  0
    5.1270    1.4030   17.9890 C   0  0  0  0  0  0  0  0  0  0  0  0
    6.3170    0.6190   17.7020 N   0  0  0  0  0  0  0  0  0  0  0  0
    6.9640   -0.0300   18.7300 C   0  0  0  0  0  0  0  0  0  0  0  0
  2  1  1  6
  2  3  1  0
  2  4  1  0
  4  5  1  0
  4  6  1  0
  4  7  1  0
  7  8  1  0
  8  9  1  0
  9 10  2  0
  9 11  1  0
 11 12  1  0
 12 13  2  0
 13 14  1  0
 14 15  2  0
 15 16  1  0
 12 17  1  0
 16 17  2  0
M  END
