pyridine_urea_5479
     RDKit          3D

 18 19  0  0  0  0  0  0  0  0999 V2000
    9.6880    0.6400   23.9230 C   0  0  0  0  0  0  0  0  0  0  0  0
    9.7850   -0.8490   23.5860 C   0  0  1  0  0  0  0  0  0  0  0  0
    8.7340   -1.3130   22.7030 N   0  0  0  0  0  0  0  0  0  0  0  0
    8.2880   -0.3320   21.7020 C   0  0  0  0  0  0  0  0  0  0  0  0
    8.8800    0.7040   21.4250 O   0  0  0  0  0  0  0  0  0  0  0  0
    6.9970   -0.8400   21.1190 N   0  0  0  0  0  0  0  0  0  0  0  0
    6.4010   -0.0780   20.0300 C   0  0  0  0  0  0  0  0  0  0  0  0
    5.1200    0.7430   20.2810 C   0  0  0  0  0  0  0  0  0  0  0  0
    4.5730    1.4610   19.2280 C   0  0  0  0  0  0  0  0  0  0  0  0
    5.2300    1.4340   17.8660 C   0  0  0  0  0  0  0  0  0  0  0  0
    6.3710    0.6800   17.6960 N   0  0  0  0  0  0  0  0  0  0  0  0
    6.9400   -0.0580   18.7480 C   0  0  0  0  0  0  0  0  0  0  0  0
   11.0620   -1.0660   22.8510 C   0  0  0  0  0  0  0  0  0  0  0  0
   11.7870   -1.8880   21.8640 C   0  0  0  0  0  0  0  0  0  0  0  0
   13.2810   -1.2270   21.7460 C   0  0  0  0  0  0  0  0  0  0  0  0
   13.7870   -0.0380   22.4940 N   0  0  0  0  0  0  0  0  0  0  0  0
   12.7970    0.3700   23.2580 C   0  0  0  0  0  0  0  0  0  0  0  0
   12.1900   -0.5650   22.7650 C   0  0  0  0  0  0  0  0  0  0  0  0
  2  1  1  6
  2  3  1  0
  3  4  1  0
  4  5  2  0
  4  6  1  0
  6  7  1  0
  7  8  2  0
  8  9  1  0
  9 10  2  0
 10 11  1  0
  7 12  1  0
 11 12  2  0
  2 13  1  0
 13 14  2  0
 14 15  1  0
 15 16  2  0
 16 17  1  0
 13 18  1  0
 17 18  2  0
M  END
