pyridine_urea_3868
     RDKit          3D

 17 18  0  0  0  0  0  0  0  0999 V2000
   12.9230   -2.7350   20.9120 C   0  0  0  0  0  0  0  0  0  0  0  0
   12.1740   -2.5070   22.0730 O   0  0  0  0  0  0  0  0  0  0  0  0
   12.1970   -1.1890   22.3950 C   0  0  2  0  0  0  0  0  0  0  0  0
   12.7050   -0.9380   23.6440 C   0  0  0  0  0  0  0  0  0  0  0  0
   11.5250   -0.8870   24.4500 O   0  0  0  0  0  0  0  0  0  0  0  0
   10.4140   -0.4810   23.6390 C   0  0  0  0  0  0  0  0  0  0  0  0
   10.7650   -0.5800   22.3480 C   0  0  2  0  0  0  0  0  0  0  0  0
    9.6170   -1.1020   21.6140 N   0  0  0  0  0  0  0  0  0  0  0  0
    8.6390   -0.1500   21.4330 C   0  0  0  0  0  0  0  0  0  0  0  0
    8.8690    1.0350   21.6320 O   0  0  0  0  0  0  0  0  0  0  0  0
    7.3630   -0.6710   20.9720 N   0  0  0  0  0  0  0  0  0  0  0  0
    6.6150   -0.0570   20.0210 C   0  0  0  0  0  0  0  0  0  0  0  0
    5.3330    0.7040   20.4010 C   0  0  0  0  0  0  0  0  0  0  0  0
    4.6400    1.3220   19.3720 C   0  0  0  0  0  0  0  0  0  0  0  0
    5.1270    1.2260   18.0720 C   0  0  0  0  0  0  0  0  0  0  0  0
    6.2390    0.5590   17.7260 N   0  0  0  0  0  0  0  0  0  0  0  0
    6.9530   -0.0610   18.6890 C   0  0  0  0  0  0  0  0  0  0  0  0
  1  2  1  0
  3  2  1  1
  3  4  1  0
  4  5  1  0
  5  6  1  0
  3  7  1  0
  6  7  1  0
  7  8  1  6
  8  9  1  0
  9 10  2  0
  9 11  1  0
 11 12  1  0
 12 13  2  0
 13 14  1  0
 14 15  2  0
 15 16  1  0
 12 17  1  0
 16 17  2  0
M  END
