pyridine_urea_9081
     RDKit          3D

 19 20  0  0  0  0  0  0  0  0999 V2000
   12.8400    1.4160   22.9770 C   0  0  0  0  0  0  0  0  0  0  0  0
   11.9240    0.2080   22.8130 C   0  0  0  0  0  0  0  0  0  0  0  0
   10.4210    0.3520   23.3550 C   0  0  0  0  0  0  0  0  0  0  0  0
    9.8440   -0.9850   23.0110 C   0  0  0  0  0  0  0  0  0  0  0  0
   10.3190   -2.1760   22.3780 C   0  0  0  0  0  0  0  0  0  0  0  0
   11.5670   -1.9210   22.0820 C   0  0  0  0  0  0  0  0  0  0  0  0
   10.8150   -0.9330   22.7000 C   0  0  2  0  0  0  0  0  0  0  0  0
   10.9600   -1.0470   24.0940 C   0  0  0  0  0  0  0  0  0  0  0  0
    9.3950   -0.8960   22.3570 N   0  0  0  0  0  0  0  0  0  0  0  0
    8.7290    0.0410   21.5560 C   0  0  0  0  0  0  0  0  0  0  0  0
    9.1810    1.1600   21.2870 O   0  0  0  0  0  0  0  0  0  0  0  0
    7.4680   -0.4470   21.1190 N   0  0  0  0  0  0  0  0  0  0  0  0
    6.7240    0.0900   20.0830 C   0  0  0  0  0  0  0  0  0  0  0  0
    5.6100    0.8230   20.5080 C   0  0  0  0  0  0  0  0  0  0  0  0
    4.8140    1.4240   19.3940 C   0  0  0  0  0  0  0  0  0  0  0  0
    5.1550    1.2630   18.0780 C   0  0  0  0  0  0  0  0  0  0  0  0
    6.2310    0.5430   17.7070 N   0  0  0  0  0  0  0  0  0  0  0  0
    7.0040   -0.0390   18.7370 C   0  0  0  0  0  0  0  0  0  0  0  0
   12.5150   -1.0120   22.1460 C   0  0  0  0  0  0  0  0  0  0  0  0
  1  2  1  0
  2  3  2  0
  3  4  1  0
  4  5  2  0
  5  6  1  0
  6  7  1  0
  7  8  1  1
  7  9  1  0
  9 10  1  0
 10 11  2  0
 10 12  1  0
 12 13  1  0
 13 14  2  0
 14 15  1  0
 15 16  2  0
 16 17  1  0
 13 18  1  0
 17 18  2  0
  2 19  1  0
  6 19  2  0
M  END
