pyridine_urea_3910
     RDKit          3D

 17 18  0  0  0  0  0  0  0  0999 V2000
    8.8980    1.1240   21.1850 O   0  0  0  0  0  0  0  0  0  0  0  0
    8.4440    0.0070   21.4860 C   0  0  0  0  0  0  0  0  0  0  0  0
    7.2520   -0.5130   21.0550 N   0  0  0  0  0  0  0  0  0  0  0  0
    6.5270    0.0820   20.0210 C   0  0  0  0  0  0  0  0  0  0  0  0
    5.3630    0.7950   20.3210 C   0  0  0  0  0  0  0  0  0  0  0  0
    4.6470    1.4090   19.2950 C   0  0  0  0  0  0  0  0  0  0  0  0
    5.1250    1.2840   18.0090 C   0  0  0  0  0  0  0  0  0  0  0  0
    6.2320    0.5980   17.6960 N   0  0  0  0  0  0  0  0  0  0  0  0
    6.9050    0.0140   18.7020 C   0  0  0  0  0  0  0  0  0  0  0  0
    9.1460   -0.8490   22.3040 N   0  0  0  0  0  0  0  0  0  0  0  0
   10.4920   -0.4200   22.6590 C   0  0  2  0  0  0  0  0  0  0  0  0
   11.5650   -1.4530   22.2720 C   0  0  0  0  0  0  0  0  0  0  0  0
   12.8290   -0.9580   22.5550 C   0  0  0  0  0  0  0  0  0  0  0  0
   12.7540    0.3730   22.9740 C   0  0  0  0  0  0  0  0  0  0  0  0
   11.9590    0.5100   24.1080 C   0  0  0  0  0  0  0  0  0  0  0  0
   10.6640    0.0640   23.9360 C   0  0  2  0  0  0  0  0  0  0  0  0
   10.2240   -0.8010   24.9080 O   0  0  0  0  0  0  0  0  0  0  0  0
  1  2  2  0
  2  3  1  0
  3  4  1  0
  4  5  2  0
  5  6  1  0
  6  7  2  0
  7  8  1  0
  4  9  1  0
  8  9  2  0
  2 10  1  0
 11 10  1  1
 11 12  1  0
 12 13  1  0
 13 14  1  0
 14 15  1  0
 11 16  1  0
 15 16  1  0
 16 17  1  1
M  END
