pyridine_urea_13931
     RDKit          3D

 24 25  0  0  0  0  0  0  0  0999 V2000
    7.0330   -0.7520   24.6560 O   0  0  0  0  0  0  0  0  0  0  0  0
    8.2140   -0.9800   24.4240 C   0  0  0  0  0  0  0  0  0  0  0  0
    8.5620   -1.8630   23.6840 C   0  0  0  0  0  0  0  0  0  0  0  0
    9.1410   -1.4120   22.4050 N   0  0  0  0  0  0  0  0  0  0  0  0
    8.4960   -0.3600   21.6260 C   0  0  0  0  0  0  0  0  0  0  0  0
    9.0140    0.7380   21.4260 O   0  0  0  0  0  0  0  0  0  0  0  0
    7.2000   -0.7140   21.0930 N   0  0  0  0  0  0  0  0  0  0  0  0
    6.6130   -0.0920   20.0410 C   0  0  0  0  0  0  0  0  0  0  0  0
    5.4810    0.6260   20.3160 C   0  0  0  0  0  0  0  0  0  0  0  0
    4.6310    1.4360   19.3280 C   0  0  0  0  0  0  0  0  0  0  0  0
    5.1720    1.3780   17.9530 C   0  0  0  0  0  0  0  0  0  0  0  0
    6.3200    0.6240   17.7460 N   0  0  0  0  0  0  0  0  0  0  0  0
    7.0260   -0.0920   18.7330 C   0  0  0  0  0  0  0  0  0  0  0  0
    9.2490   -0.2620   24.9920 N   0  0  0  0  0  0  0  0  0  0  0  0
   10.3470    0.2520   24.3930 C   0  0  0  0  0  0  0  0  0  0  0  0
   11.4910   -0.4290   24.1770 C   0  0  0  0  0  0  0  0  0  0  0  0
   12.5300    0.2020   23.5650 C   0  0  0  0  0  0  0  0  0  0  0  0
   12.4240    1.5300   23.1620 C   0  0  0  0  0  0  0  0  0  0  0  0
   11.2910    2.5810   23.2490 C   0  0  0  0  0  0  0  0  0  0  0  0
   10.2560    1.6940   23.9480 C   0  0  0  0  0  0  0  0  0  0  0  0
    8.8060    2.5800   24.2190 S   0  0  0  0  0  0  0  0  0  0  0  0
    9.1740    4.1610   23.3810 C   0  0  0  0  0  0  0  0  0  0  0  0
   10.1410    4.8620   24.0140 F   0  0  0  0  0  0  0  0  0  0  0  0
    8.0600    4.9220   23.3540 F   0  0  0  0  0  0  0  0  0  0  0  0
  1  2  2  0
  2  3  1  0
  3  4  1  0
  4  5  1  0
  5  6  2  0
  5  7  1  0
  7  8  1  0
  8  9  2  0
  9 10  1  0
 10 11  2  0
 11 12  1  0
  8 13  1  0
 12 13  2  0
  2 14  1  0
 14 15  1  0
 15 16  2  0
 16 17  1  0
 17 18  2  0
 18 19  1  0
 15 20  1  0
 19 20  2  0
 20 21  1  0
 21 22  1  0
 22 23  1  0
 22 24  1  0
M  END
