pyridine_urea_8569
     RDKit          3D

 22 23  0  0  0  0  0  0  0  0999 V2000
   10.2520    3.1630   23.4060 C   0  0  0  0  0  0  0  0  0  0  0  0
   10.8140    1.8180   23.0440 C   0  0  0  0  0  0  0  0  0  0  0  0
    9.8650    0.8670   22.8670 C   0  0  0  0  0  0  0  0  0  0  0  0
   10.1520   -0.4090   22.5220 C   0  0  0  0  0  0  0  0  0  0  0  0
    9.1870   -1.2940   22.2830 N   0  0  0  0  0  0  0  0  0  0  0  0
    8.3370   -0.5680   21.4740 C   0  0  0  0  0  0  0  0  0  0  0  0
    8.6260    0.5730   21.1450 O   0  0  0  0  0  0  0  0  0  0  0  0
    7.1930   -1.1510   21.0660 N   0  0  0  0  0  0  0  0  0  0  0  0
    6.5090   -0.3770   20.1550 C   0  0  0  0  0  0  0  0  0  0  0  0
    5.3280    0.3550   20.3880 C   0  0  0  0  0  0  0  0  0  0  0  0
    4.6390    1.2050   19.2960 C   0  0  0  0  0  0  0  0  0  0  0  0
    5.2310    1.2310   18.0480 C   0  0  0  0  0  0  0  0  0  0  0  0
    6.3640    0.5110   17.8680 N   0  0  0  0  0  0  0  0  0  0  0  0
    7.0030   -0.2720   18.8530 C   0  0  0  0  0  0  0  0  0  0  0  0
   11.6180   -0.8060   22.3750 C   0  0  0  0  0  0  0  0  0  0  0  0
   12.5880    0.2150   22.5710 C   0  0  0  0  0  0  0  0  0  0  0  0
   12.1820    1.5420   22.8840 C   0  0  0  0  0  0  0  0  0  0  0  0
   13.0190    2.5890   23.0200 N   0  0  0  0  0  0  0  0  0  0  0  0
   12.3540    4.1280   22.6550 S   0  0  0  0  0  0  0  0  0  0  0  0
   13.6010    5.1670   22.1890 C   0  0  0  0  0  0  0  0  0  0  0  0
   11.7990    4.6870   23.8830 O   0  0  0  0  0  0  0  0  0  0  0  0
   11.5870    3.8710   21.4790 O   0  0  0  0  0  0  0  0  0  0  0  0
  1  2  1  0
  2  3  2  0
  3  4  1  0
  4  5  1  0
  5  6  1  0
  6  7  2  0
  6  8  1  0
  8  9  1  0
  9 10  2  0
 10 11  1  0
 11 12  2  0
 12 13  1  0
  9 14  1  0
 13 14  2  0
  4 15  2  0
 15 16  1  0
  2 17  1  0
 16 17  2  0
 17 18  1  0
 19 18  1  0
 19 20  1  0
 19 21  2  0
 19 22  2  0
M  END
