pyridine_urea_6254
     RDKit          3D

 24 25  0  0  0  0  0  0  0  0999 V2000
    9.0110    1.1390   21.2650 O   0  0  0  0  0  0  0  0  0  0  0  0
    8.5230    0.0470   21.6020 C   0  0  0  0  0  0  0  0  0  0  0  0
    9.0690   -0.7670   22.5890 N   0  0  0  0  0  0  0  0  0  0  0  0
    8.5990   -2.1400   22.8050 C   0  0  0  0  0  0  0  0  0  0  0  0
    8.2560   -2.4220   24.2790 C   0  0  0  0  0  0  0  0  0  0  0  0
    6.9410   -1.7800   24.5810 C   0  0  0  0  0  0  0  0  0  0  0  0
    5.9080   -2.6650   24.8470 C   0  0  0  0  0  0  0  0  0  0  0  0
    6.1840   -3.9770   24.9530 N   0  0  0  0  0  0  0  0  0  0  0  0
    5.1150   -4.7910   26.0330 S   0  0  0  0  0  0  0  0  0  0  0  0
    5.2120   -6.2140   25.8040 O   0  0  0  0  0  0  0  0  0  0  0  0
    3.8170   -4.1500   25.9410 O   0  0  0  0  0  0  0  0  0  0  0  0
    5.7480   -4.4630   27.6740 C   0  0  0  0  0  0  0  0  0  0  0  0
    7.1100   -4.3560   27.6980 F   0  0  0  0  0  0  0  0  0  0  0  0
    5.2520   -3.3080   28.1890 F   0  0  0  0  0  0  0  0  0  0  0  0
    5.4200   -5.4450   28.5570 F   0  0  0  0  0  0  0  0  0  0  0  0
    7.4350   -4.5350   24.6370 C   0  0  0  0  0  0  0  0  0  0  0  0
    8.5130   -3.7490   24.7620 C   0  0  0  0  0  0  0  0  0  0  0  0
    7.3650   -0.4750   21.0540 N   0  0  0  0  0  0  0  0  0  0  0  0
    6.6600    0.0930   20.0540 C   0  0  0  0  0  0  0  0  0  0  0  0
    5.5190    0.8610   20.3660 C   0  0  0  0  0  0  0  0  0  0  0  0
    4.8010    1.4600   19.3230 C   0  0  0  0  0  0  0  0  0  0  0  0
    5.1730    1.3230   18.0170 C   0  0  0  0  0  0  0  0  0  0  0  0
    6.2580    0.5840   17.6990 N   0  0  0  0  0  0  0  0  0  0  0  0
    6.9900   -0.0260   18.7140 C   0  0  0  0  0  0  0  0  0  0  0  0
  1  2  2  0
  2  3  1  0
  3  4  1  0
  4  5  1  0
  5  6  1  0
  6  7  1  0
  7  8  1  0
  9  8  1  0
  9 10  2  0
  9 11  2  0
  9 12  1  0
 12 13  1  0
 12 14  1  0
 12 15  1  0
  8 16  1  0
  5 17  1  0
 16 17  1  0
  2 18  1  0
 18 19  1  0
 19 20  2  0
 20 21  1  0
 21 22  2  0
 22 23  1  0
 19 24  1  0
 23 24  2  0
M  END
