pyridine_urea_4453
     RDKit          3D

 23 24  0  0  0  0  0  0  0  0999 V2000
   13.3540   -2.1910   24.3110 C   0  0  0  0  0  0  0  0  0  0  0  0
   12.3440   -1.1580   23.7840 C   0  0  0  0  0  0  0  0  0  0  0  0
   12.1440   -1.2560   22.3650 C   0  0  0  0  0  0  0  0  0  0  0  0
   13.0910   -2.3170   22.3430 C   0  0  0  0  0  0  0  0  0  0  0  0
   13.4970   -2.4120   23.8620 C   0  0  0  0  0  0  0  0  0  0  0  0
   12.9110   -1.4740   25.0720 C   0  0  0  0  0  0  0  0  0  0  0  0
   11.8140   -0.3350   24.8190 C   0  0  0  0  0  0  0  0  0  0  0  0
   11.0420    0.2560   23.8130 C   0  0  2  0  0  0  0  0  0  0  0  0
   10.2300   -0.7230   23.1970 C   0  0  2  0  0  0  0  0  0  0  0  0
   10.6250   -1.2490   21.9790 C   0  0  0  0  0  0  0  0  0  0  0  0
    8.8730   -0.2690   22.9820 N   0  0  0  0  0  0  0  0  0  0  0  0
    8.4320    0.2880   21.6740 C   0  0  0  0  0  0  0  0  0  0  0  0
    8.9370    1.2960   21.1680 O   0  0  0  0  0  0  0  0  0  0  0  0
    7.3450   -0.5030   21.1290 N   0  0  0  0  0  0  0  0  0  0  0  0
    6.5780    0.1070   20.0670 C   0  0  0  0  0  0  0  0  0  0  0  0
    5.3330    0.8640   20.4220 C   0  0  0  0  0  0  0  0  0  0  0  0
    4.6690    1.4380   19.3510 C   0  0  0  0  0  0  0  0  0  0  0  0
    5.1640    1.3030   17.9680 C   0  0  0  0  0  0  0  0  0  0  0  0
    6.2720    0.6110   17.6920 N   0  0  0  0  0  0  0  0  0  0  0  0
    6.9400    0.0380   18.7290 C   0  0  0  0  0  0  0  0  0  0  0  0
   11.7070    1.0700   23.0140 N   0  0  0  0  0  0  0  0  0  0  0  0
   13.0250    0.7950   22.9060 C   0  0  0  0  0  0  0  0  0  0  0  0
   11.4130    2.3820   23.1530 C   0  0  0  0  0  0  0  0  0  0  0  0
  1  2  1  0
  2  3  2  0
  3  4  1  0
  4  5  2  0
  5  6  1  0
  2  7  1  0
  6  7  2  0
  7  8  1  0
  8  9  1  0
  9 10  1  6
  9 11  1  0
 11 12  1  0
 12 13  2  0
 12 14  1  0
 14 15  1  0
 15 16  2  0
 16 17  1  0
 17 18  2  0
 18 19  1  0
 15 20  1  0
 19 20  2  0
  8 21  1  6
 21 22  1  0
 21 23  1  0
M  END
