pyridine_urea_11475
     RDKit          3D

 22 23  0  0  0  0  0  0  0  0999 V2000
   12.1220   -1.8980   21.6050 C   0  0  0  0  0  0  0  0  0  0  0  0
   11.2360   -1.3220   22.6700 C   0  0  0  0  0  0  0  0  0  0  0  0
    9.9170   -0.9410   22.6400 C   0  0  0  0  0  0  0  0  0  0  0  0
    9.1640   -1.0210   21.5100 N   0  0  0  0  0  0  0  0  0  0  0  0
    8.3340    0.0030   21.1730 C   0  0  0  0  0  0  0  0  0  0  0  0
    8.6870    1.1860   21.0630 O   0  0  0  0  0  0  0  0  0  0  0  0
    7.0560   -0.4410   20.9650 N   0  0  0  0  0  0  0  0  0  0  0  0
    6.3550    0.1790   19.9550 C   0  0  0  0  0  0  0  0  0  0  0  0
    5.1600    0.8480   20.2510 C   0  0  0  0  0  0  0  0  0  0  0  0
    4.5050    1.4840   19.2170 C   0  0  0  0  0  0  0  0  0  0  0  0
    5.1400    1.4030   17.8360 C   0  0  0  0  0  0  0  0  0  0  0  0
    6.2690    0.7440   17.6020 N   0  0  0  0  0  0  0  0  0  0  0  0
    6.8410    0.1550   18.6640 C   0  0  0  0  0  0  0  0  0  0  0  0
    9.3060   -0.4540   23.7920 C   0  0  0  0  0  0  0  0  0  0  0  0
    9.9610   -0.3240   24.9810 C   0  0  0  0  0  0  0  0  0  0  0  0
    8.9050    0.3450   26.6880 I   0  0  0  0  0  0  0  0  0  0  0  0
   11.2960   -0.6700   25.0040 C   0  0  0  0  0  0  0  0  0  0  0  0
   11.8270   -1.1520   23.8520 C   0  0  0  0  0  0  0  0  0  0  0  0
   13.1880   -1.4960   24.0010 C   0  0  0  0  0  0  0  0  0  0  0  0
   13.5280   -2.6470   23.3700 F   0  0  0  0  0  0  0  0  0  0  0  0
   13.8480   -0.5210   23.4220 F   0  0  0  0  0  0  0  0  0  0  0  0
   13.5380   -1.6720   25.2970 F   0  0  0  0  0  0  0  0  0  0  0  0
  1  2  1  0
  2  3  2  0
  3  4  1  0
  4  5  1  0
  5  6  2  0
  5  7  1  0
  7  8  1  0
  8  9  2  0
  9 10  1  0
 10 11  2  0
 11 12  1  0
  8 13  1  0
 12 13  2  0
  3 14  1  0
 14 15  2  0
 15 16  1  0
 15 17  1  0
  2 18  1  0
 17 18  2  0
 18 19  1  0
 19 20  1  0
 19 21  1  0
 19 22  1  0
M  END
