pyridine_urea_7952
     RDKit          3D

 25 27  0  0  0  0  0  0  0  0999 V2000
   10.1100    1.7540   23.9140 C   0  0  0  0  0  0  0  0  0  0  0  0
   10.9460    0.6830   23.2320 C   0  0  0  0  0  0  0  0  0  0  0  0
   12.3080    0.9480   23.2050 C   0  0  0  0  0  0  0  0  0  0  0  0
   13.2460    0.1160   22.6210 C   0  0  0  0  0  0  0  0  0  0  0  0
   14.4180    0.3970   22.5640 O   0  0  0  0  0  0  0  0  0  0  0  0
   14.6540    1.3810   21.6320 C   0  0  0  0  0  0  0  0  0  0  0  0
   15.2080    2.3020   22.3110 C   0  0  0  0  0  0  0  0  0  0  0  0
   17.0990    2.5140   23.3520 C   0  0  0  0  0  0  0  0  0  0  0  0
   17.6340    3.7020   24.2680 C   0  0  0  0  0  0  0  0  0  0  0  0
   16.5580    4.5910   24.3460 C   0  0  0  0  0  0  0  0  0  0  0  0
   15.0470    4.5580   23.6670 N   0  0  0  0  0  0  0  0  0  0  0  0
   14.3950    3.6200   22.8440 C   0  0  0  0  0  0  0  0  0  0  0  0
   12.6950   -1.1430   22.0400 C   0  0  0  0  0  0  0  0  0  0  0  0
   11.3370   -1.4090   22.0590 C   0  0  0  0  0  0  0  0  0  0  0  0
   10.4540   -0.4930   22.6360 C   0  0  0  0  0  0  0  0  0  0  0  0
    9.0890   -0.6860   22.6210 N   0  0  0  0  0  0  0  0  0  0  0  0
    8.3670    0.0230   21.6200 C   0  0  0  0  0  0  0  0  0  0  0  0
    8.8230    1.1990   21.0730 O   0  0  0  0  0  0  0  0  0  0  0  0
    7.1990   -0.5640   21.2590 N   0  0  0  0  0  0  0  0  0  0  0  0
    6.4900    0.0510   20.1990 C   0  0  0  0  0  0  0  0  0  0  0  0
    5.2740    0.7380   20.3390 C   0  0  0  0  0  0  0  0  0  0  0  0
    4.6580    1.3300   19.2300 C   0  0  0  0  0  0  0  0  0  0  0  0
    5.2520    1.2390   17.9750 C   0  0  0  0  0  0  0  0  0  0  0  0
    6.4070    0.5940   17.7670 N   0  0  0  0  0  0  0  0  0  0  0  0
    7.0190   -0.0100   18.9220 C   0  0  0  0  0  0  0  0  0  0  0  0
  1  2  1  0
  2  3  2  0
  3  4  1  0
  4  5  1  0
  5  6  1  0
  6  7  1  0
  7  8  2  0
  8  9  1  0
  9 10  2  0
 10 11  1  0
  7 12  1  0
 11 12  2  0
  4 13  2  0
 13 14  1  0
  2 15  1  0
 14 15  2  0
 15 16  1  0
 16 17  1  0
 17 18  2  0
 17 19  1  0
 19 20  1  0
 20 21  2  0
 21 22  1  0
 22 23  2  0
 23 24  1  0
 20 25  1  0
 24 25  2  0
M  END
