pyridine_urea_12401
     RDKit          3D

 22 24  0  0  0  0  0  0  0  0999 V2000
    8.3790    1.0620   21.1210 O   0  0  0  0  0  0  0  0  0  0  0  0
    8.1030   -0.0170   21.6250 C   0  0  0  0  0  0  0  0  0  0  0  0
    7.0490   -0.7560   21.1520 N   0  0  0  0  0  0  0  0  0  0  0  0
    6.3840   -0.0670   20.0670 C   0  0  0  0  0  0  0  0  0  0  0  0
    5.0550    0.6990   20.3430 C   0  0  0  0  0  0  0  0  0  0  0  0
    4.4700    1.3620   19.2740 C   0  0  0  0  0  0  0  0  0  0  0  0
    5.1940    1.2750   17.9230 C   0  0  0  0  0  0  0  0  0  0  0  0
    6.3430    0.5910   17.7410 N   0  0  0  0  0  0  0  0  0  0  0  0
    6.9030   -0.0550   18.7870 C   0  0  0  0  0  0  0  0  0  0  0  0
    8.7960   -0.5850   22.6560 N   0  0  0  0  0  0  0  0  0  0  0  0
   10.1750   -0.1870   22.5110 C   0  0  2  0  0  0  0  0  0  0  0  0
   11.1850   -1.1090   23.0030 C   0  0  0  0  0  0  0  0  0  0  0  0
   11.7830   -1.7090   21.8230 C   0  0  0  0  0  0  0  0  0  0  0  0
   12.8870   -2.6230   22.0780 C   0  0  0  0  0  0  0  0  0  0  0  0
   13.5140   -3.2750   20.6820 Cl  0  0  0  0  0  0  0  0  0  0  0  0
   13.3230   -2.8700   23.5230 C   0  0  0  0  0  0  0  0  0  0  0  0
   12.5450   -2.1670   24.6000 C   0  0  0  0  0  0  0  0  0  0  0  0
   11.5060   -1.3240   24.2970 C   0  0  0  0  0  0  0  0  0  0  0  0
   10.5930   -0.5350   25.5150 Cl  0  0  0  0  0  0  0  0  0  0  0  0
   10.5970    1.0690   22.9270 C   0  0  0  0  0  0  0  0  0  0  0  0
   11.5750    1.0250   23.7980 C   0  0  0  0  0  0  0  0  0  0  0  0
   12.2390    1.3050   22.7570 C   0  0  0  0  0  0  0  0  0  0  0  0
  1  2  2  0
  2  3  1  0
  3  4  1  0
  4  5  2  0
  5  6  1  0
  6  7  2  0
  7  8  1  0
  4  9  1  0
  8  9  2  0
  2 10  1  0
 11 10  1  1
 11 12  1  0
 12 13  2  0
 13 14  1  0
 14 15  1  0
 14 16  2  0
 16 17  1  0
 12 18  1  0
 17 18  2  0
 18 19  1  0
 11 20  1  0
 20 21  1  0
 20 22  1  0
 21 22  1  0
M  END
