pyridine_urea_6629
     RDKit          3D

 22 23  0  0  0  0  0  0  0  0999 V2000
   13.2830   -1.3460   23.4260 C   0  0  0  0  0  0  0  0  0  0  0  0
   12.4000   -1.8780   22.2820 C   0  0  0  0  0  0  0  0  0  0  0  0
   10.9840   -1.3690   22.5540 C   0  0  1  0  0  0  0  0  0  0  0  0
    9.8140   -2.1970   22.1450 C   0  0  0  0  0  0  0  0  0  0  0  0
    8.5690   -1.4720   22.3590 N   0  0  0  0  0  0  0  0  0  0  0  0
    8.1360   -0.4890   21.4990 C   0  0  0  0  0  0  0  0  0  0  0  0
    8.7520    0.5450   21.2510 O   0  0  0  0  0  0  0  0  0  0  0  0
    6.9270   -0.8540   21.0200 N   0  0  0  0  0  0  0  0  0  0  0  0
    6.3440   -0.1070   20.0670 C   0  0  0  0  0  0  0  0  0  0  0  0
    5.1780    0.6410   20.2320 C   0  0  0  0  0  0  0  0  0  0  0  0
    4.6230    1.3950   19.1920 C   0  0  0  0  0  0  0  0  0  0  0  0
    5.2640    1.3890   17.9690 C   0  0  0  0  0  0  0  0  0  0  0  0
    6.3890    0.7060   17.6920 N   0  0  0  0  0  0  0  0  0  0  0  0
    6.9190   -0.0240   18.7000 C   0  0  0  0  0  0  0  0  0  0  0  0
   10.8460   -1.2170   23.7740 O   0  0  0  0  0  0  0  0  0  0  0  0
   10.5310   -2.2870   24.6080 C   0  0  0  0  0  0  0  0  0  0  0  0
   11.6620   -3.0760   24.9830 C   0  0  0  0  0  0  0  0  0  0  0  0
   11.3020   -4.2080   25.8880 C   0  0  0  0  0  0  0  0  0  0  0  0
   10.0400   -4.4200   26.2680 C   0  0  0  0  0  0  0  0  0  0  0  0
    8.9680   -3.6490   25.8950 C   0  0  0  0  0  0  0  0  0  0  0  0
    9.0220   -2.5120   25.0560 C   0  0  0  0  0  0  0  0  0  0  0  0
    7.6180   -1.6000   24.6630 Cl  0  0  0  0  0  0  0  0  0  0  0  0
  1  2  1  0
  3  2  1  1
  3  4  1  0
  4  5  1  0
  5  6  1  0
  6  7  2  0
  6  8  1  0
  8  9  1  0
  9 10  2  0
 10 11  1  0
 11 12  2  0
 12 13  1  0
  9 14  1  0
 13 14  2  0
  3 15  1  0
 15 16  1  0
 16 17  2  0
 17 18  1  0
 18 19  2  0
 19 20  1  0
 16 21  1  0
 20 21  2  0
 21 22  1  0
M  END
