pyridine_urea_1028
     RDKit          3D

 22 23  0  0  0  0  0  0  0  0999 V2000
   13.4470   -2.6480   24.2670 C   0  0  0  0  0  0  0  0  0  0  0  0
   12.5030   -1.5660   23.8420 C   0  0  0  0  0  0  0  0  0  0  0  0
   11.1460   -1.7380   24.0710 C   0  0  0  0  0  0  0  0  0  0  0  0
   10.2260   -0.7490   23.7100 C   0  0  0  0  0  0  0  0  0  0  0  0
   10.6500    0.4510   23.1050 C   0  0  0  0  0  0  0  0  0  0  0  0
    9.6890    1.5610   22.7240 C   0  0  0  0  0  0  0  0  0  0  0  0
   10.1170    2.6700   22.4300 O   0  0  0  0  0  0  0  0  0  0  0  0
    8.2630    1.2550   22.7400 N   0  0  0  0  0  0  0  0  0  0  0  0
    7.3410    1.2990   23.7470 C   0  0  0  0  0  0  0  0  0  0  0  0
    7.2950   -0.2400   23.7790 C   0  0  0  0  0  0  0  0  0  0  0  0
    8.0550   -0.7840   22.6670 N   0  0  0  0  0  0  0  0  0  0  0  0
    7.8210   -0.4780   21.3710 C   0  0  0  0  0  0  0  0  0  0  0  0
    8.5170    0.4260   20.9530 O   0  0  0  0  0  0  0  0  0  0  0  0
    6.8680   -1.1870   20.8260 N   0  0  0  0  0  0  0  0  0  0  0  0
    6.3130   -0.3140   19.8810 C   0  0  0  0  0  0  0  0  0  0  0  0
    5.1210    0.3540   20.1820 C   0  0  0  0  0  0  0  0  0  0  0  0
    4.5660    1.2160   19.2450 C   0  0  0  0  0  0  0  0  0  0  0  0
    5.2220    1.3830   18.0460 C   0  0  0  0  0  0  0  0  0  0  0  0
    6.3660    0.7590   17.7320 N   0  0  0  0  0  0  0  0  0  0  0  0
    6.8830   -0.0760   18.6570 C   0  0  0  0  0  0  0  0  0  0  0  0
   12.0270    0.5840   22.8790 C   0  0  0  0  0  0  0  0  0  0  0  0
   12.9450   -0.3910   23.2300 C   0  0  0  0  0  0  0  0  0  0  0  0
  1  2  1  0
  2  3  2  0
  3  4  1  0
  4  5  2  0
  5  6  1  0
  6  7  2  0
  6  8  1  0
  8  9  1  0
  9 10  1  0
 10 11  1  0
 11 12  1  0
 12 13  2  0
 12 14  1  0
 14 15  1  0
 15 16  2  0
 16 17  1  0
 17 18  2  0
 18 19  1  0
 15 20  1  0
 19 20  2  0
  5 21  1  0
  2 22  1  0
 21 22  2  0
M  END
