pyridine_urea_10155
     RDKit          3D

 23 25  0  0  0  0  0  0  0  0999 V2000
    9.9660    0.4820   23.0940 C   0  0  0  0  0  0  0  0  0  0  0  0
    9.7180   -0.9980   22.7260 C   0  0  2  0  0  0  0  0  0  0  0  0
   10.4550   -1.4990   21.6660 C   0  0  0  0  0  0  0  0  0  0  0  0
   11.7200   -1.4240   22.0420 C   0  0  0  0  0  0  0  0  0  0  0  0
   12.9020   -1.5280   21.6820 C   0  0  0  0  0  0  0  0  0  0  0  0
   13.6270   -1.2510   22.7530 N   0  0  0  0  0  0  0  0  0  0  0  0
   13.0070   -0.8960   24.1130 C   0  0  0  0  0  0  0  0  0  0  0  0
   12.1230   -0.5800   25.3400 C   0  0  0  0  0  0  0  0  0  0  0  0
   10.7640   -0.4870   25.7640 C   0  0  0  0  0  0  0  0  0  0  0  0
    9.8260   -0.7190   24.9260 C   0  0  0  0  0  0  0  0  0  0  0  0
    8.5070   -0.6720   25.1830 F   0  0  0  0  0  0  0  0  0  0  0  0
   10.3730   -1.0040   23.7830 C   0  0  0  0  0  0  0  0  0  0  0  0
   11.7220   -1.0800   23.4200 C   0  0  0  0  0  0  0  0  0  0  0  0
    8.3490   -1.2110   22.3110 N   0  0  0  0  0  0  0  0  0  0  0  0
    7.8160   -0.2600   21.3760 C   0  0  0  0  0  0  0  0  0  0  0  0
    8.4060    0.7660   21.0510 O   0  0  0  0  0  0  0  0  0  0  0  0
    6.6240   -0.6850   20.9570 N   0  0  0  0  0  0  0  0  0  0  0  0
    6.1700    0.0050   19.9220 C   0  0  0  0  0  0  0  0  0  0  0  0
    4.9950    0.7360   20.0750 C   0  0  0  0  0  0  0  0  0  0  0  0
    4.5050    1.4760   19.0040 C   0  0  0  0  0  0  0  0  0  0  0  0
    5.1980    1.4690   17.8070 C   0  0  0  0  0  0  0  0  0  0  0  0
    6.3300    0.7740   17.6230 N   0  0  0  0  0  0  0  0  0  0  0  0
    6.8020    0.0410   18.7020 C   0  0  0  0  0  0  0  0  0  0  0  0
  2  1  1  6
  2  3  1  0
  3  4  1  0
  4  5  2  0
  5  6  1  0
  6  7  1  0
  7  8  1  0
  8  9  2  0
  9 10  1  0
 10 11  1  0
 10 12  2  0
  4 13  1  0
  7 13  2  0
 12 13  1  0
  2 14  1  0
 14 15  1  0
 15 16  2  0
 15 17  1  0
 17 18  1  0
 18 19  2  0
 19 20  1  0
 20 21  2  0
 21 22  1  0
 18 23  1  0
 22 23  2  0
M  END
