pyridine_urea_8246
     RDKit          3D

 23 25  0  0  0  0  0  0  0  0999 V2000
    8.5970    0.7410   21.2220 O   0  0  0  0  0  0  0  0  0  0  0  0
    8.2600   -0.4070   21.4880 C   0  0  0  0  0  0  0  0  0  0  0  0
    7.0500   -0.9120   21.0620 N   0  0  0  0  0  0  0  0  0  0  0  0
    6.3950   -0.1420   20.0260 C   0  0  0  0  0  0  0  0  0  0  0  0
    5.0680    0.6310   20.3300 C   0  0  0  0  0  0  0  0  0  0  0  0
    4.5010    1.3580   19.2910 C   0  0  0  0  0  0  0  0  0  0  0  0
    5.2330    1.3350   17.9440 C   0  0  0  0  0  0  0  0  0  0  0  0
    6.3780    0.6430   17.7370 N   0  0  0  0  0  0  0  0  0  0  0  0
    6.9160   -0.0610   18.7550 C   0  0  0  0  0  0  0  0  0  0  0  0
    9.0030   -1.3110   22.2100 N   0  0  0  0  0  0  0  0  0  0  0  0
   10.2920   -0.7640   22.5690 C   0  0  0  0  0  0  0  0  0  0  0  0
   11.4920   -1.4830   21.9820 C   0  0  0  0  0  0  0  0  0  0  0  0
   12.8580   -0.9060   22.3130 C   0  0  0  0  0  0  0  0  0  0  0  0
   12.9390    0.3390   23.1960 C   0  0  0  0  0  0  0  0  0  0  0  0
   11.6740    0.9820   23.7530 C   0  0  0  0  0  0  0  0  0  0  0  0
   10.3550    0.3600   23.3900 C   0  0  0  0  0  0  0  0  0  0  0  0
    9.2680    0.7800   23.7700 O   0  0  0  0  0  0  0  0  0  0  0  0
    9.2490    0.9310   25.2010 C   0  0  0  0  0  0  0  0  0  0  0  0
    7.9750    1.0610   25.7560 C   0  0  0  0  0  0  0  0  0  0  0  0
    7.5430    0.1480   26.7240 C   0  0  0  0  0  0  0  0  0  0  0  0
    5.8880    0.5690   27.2520 S   0  0  0  0  0  0  0  0  0  0  0  0
    5.9620    1.8740   26.1540 C   0  0  0  0  0  0  0  0  0  0  0  0
    7.0880    2.0350   25.4320 N   0  0  0  0  0  0  0  0  0  0  0  0
  1  2  2  0
  2  3  1  0
  3  4  1  0
  4  5  2  0
  5  6  1  0
  6  7  2  0
  7  8  1  0
  4  9  1  0
  8  9  2  0
  2 10  1  0
 10 11  1  0
 11 12  2  0
 12 13  1  0
 13 14  2  0
 14 15  1  0
 11 16  1  0
 15 16  2  0
 16 17  1  0
 17 18  1  0
 18 19  1  0
 19 20  2  0
 20 21  1  0
 21 22  1  0
 19 23  1  0
 22 23  2  0
M  END
