pyridine_urea_1155
     RDKit          3D

 21 23  0  0  0  0  0  0  0  0999 V2000
    9.0440    1.0890   21.2930 O   0  0  0  0  0  0  0  0  0  0  0  0
    8.5100    0.0200   21.6250 C   0  0  0  0  0  0  0  0  0  0  0  0
    9.0040   -0.7680   22.6470 N   0  0  0  0  0  0  0  0  0  0  0  0
    9.1100   -2.2130   22.5030 C   0  0  0  0  0  0  0  0  0  0  0  0
    7.9830   -2.9790   23.2540 C   0  0  0  0  0  0  0  0  0  0  0  0
    7.4810   -4.2100   22.8440 C   0  0  0  0  0  0  0  0  0  0  0  0
    6.5130   -4.5670   23.7430 N   0  0  0  0  0  0  0  0  0  0  0  0
    5.6990   -5.7180   23.7850 C   0  0  0  0  0  0  0  0  0  0  0  0
    4.7850   -5.8210   24.8350 C   0  0  0  0  0  0  0  0  0  0  0  0
    4.7410   -4.7840   25.7660 C   0  0  0  0  0  0  0  0  0  0  0  0
    5.5550   -3.6530   25.7030 C   0  0  0  0  0  0  0  0  0  0  0  0
    5.3990   -2.7180   26.6860 F   0  0  0  0  0  0  0  0  0  0  0  0
    6.4650   -3.5350   24.6690 C   0  0  0  0  0  0  0  0  0  0  0  0
    7.3480   -2.5410   24.4070 N   0  0  0  0  0  0  0  0  0  0  0  0
    7.3660   -0.5180   21.0700 N   0  0  0  0  0  0  0  0  0  0  0  0
    6.6100    0.0870   20.0610 C   0  0  0  0  0  0  0  0  0  0  0  0
    5.4460    0.8020   20.3980 C   0  0  0  0  0  0  0  0  0  0  0  0
    4.7000    1.4410   19.2760 C   0  0  0  0  0  0  0  0  0  0  0  0
    5.1440    1.3230   17.9920 C   0  0  0  0  0  0  0  0  0  0  0  0
    6.2550    0.6260   17.6990 N   0  0  0  0  0  0  0  0  0  0  0  0
    6.9420    0.0390   18.7140 C   0  0  0  0  0  0  0  0  0  0  0  0
  1  2  2  0
  2  3  1  0
  3  4  1  0
  4  5  1  0
  5  6  2  0
  6  7  1  0
  7  8  1  0
  8  9  2  0
  9 10  1  0
 10 11  2  0
 11 12  1  0
  7 13  1  0
 11 13  1  0
  5 14  1  0
 13 14  2  0
  2 15  1  0
 15 16  1  0
 16 17  2  0
 17 18  1  0
 18 19  2  0
 19 20  1  0
 16 21  1  0
 20 21  2  0
M  END
