pyridine_urea_10072
     RDKit          3D

 24 26  0  0  0  0  0  0  0  0999 V2000
    8.3580    0.9120   21.1240 O   0  0  0  0  0  0  0  0  0  0  0  0
    7.8610   -0.0890   21.6310 C   0  0  0  0  0  0  0  0  0  0  0  0
    6.8150   -0.7470   21.0460 N   0  0  0  0  0  0  0  0  0  0  0  0
    6.1700   -0.0480   20.0200 C   0  0  0  0  0  0  0  0  0  0  0  0
    4.9720    0.6480   20.1470 C   0  0  0  0  0  0  0  0  0  0  0  0
    4.4570    1.3340   19.0510 C   0  0  0  0  0  0  0  0  0  0  0  0
    5.1580    1.2890   17.8630 C   0  0  0  0  0  0  0  0  0  0  0  0
    6.3130    0.6170   17.7060 N   0  0  0  0  0  0  0  0  0  0  0  0
    6.7880   -0.0280   18.7810 C   0  0  0  0  0  0  0  0  0  0  0  0
    8.3000   -0.6150   22.8250 N   0  0  0  0  0  0  0  0  0  0  0  0
    9.6030   -0.2750   23.1200 C   0  0  0  0  0  0  0  0  0  0  0  0
   10.5030   -0.5310   23.9600 C   0  0  0  0  0  0  0  0  0  0  0  0
   11.6100    0.1540   23.6410 N   0  0  0  0  0  0  0  0  0  0  0  0
   11.6060    1.0230   22.4820 N   0  0  0  0  0  0  0  0  0  0  0  0
   12.8060    0.9470   23.1240 C   0  0  0  0  0  0  0  0  0  0  0  0
   13.1940   -0.3340   22.8400 C   0  0  0  0  0  0  0  0  0  0  0  0
   13.6520   -0.4610   21.7290 O   0  0  0  0  0  0  0  0  0  0  0  0
   12.9720   -1.3100   23.7040 N   0  0  0  0  0  0  0  0  0  0  0  0
   12.2340   -2.4600   23.5050 C   0  0  0  0  0  0  0  0  0  0  0  0
   12.4340   -3.2690   24.7170 C   0  0  0  0  0  0  0  0  0  0  0  0
   12.6200   -2.8340   25.7790 O   0  0  0  0  0  0  0  0  0  0  0  0
   13.6570   -1.9400   25.6150 C   0  0  0  0  0  0  0  0  0  0  0  0
   12.9140   -0.9870   24.9950 C   0  0  0  0  0  0  0  0  0  0  0  0
   10.2840    0.6970   22.2510 C   0  0  0  0  0  0  0  0  0  0  0  0
  1  2  2  0
  2  3  1  0
  3  4  1  0
  4  5  2  0
  5  6  1  0
  6  7  2  0
  7  8  1  0
  4  9  1  0
  8  9  2  0
  2 10  1  0
 10 11  1  0
 11 12  1  0
 12 13  2  0
 13 14  1  0
 14 15  1  0
 15 16  1  0
 16 17  2  0
 16 18  1  0
 18 19  1  0
 19 20  1  0
 20 21  1  0
 21 22  1  0
 18 23  1  0
 22 23  1  0
 11 24  2  0
 14 24  1  0
M  END
