pyridine_urea_8544
     RDKit          3D

 22 24  0  0  0  0  0  0  0  0999 V2000
    8.9600    0.6740   21.3540 O   0  0  0  0  0  0  0  0  0  0  0  0
    8.3830   -0.3880   21.5260 C   0  0  0  0  0  0  0  0  0  0  0  0
    7.1160   -0.6870   21.0920 N   0  0  0  0  0  0  0  0  0  0  0  0
    6.4690   -0.0200   20.0410 C   0  0  0  0  0  0  0  0  0  0  0  0
    5.2780    0.6750   20.2880 C   0  0  0  0  0  0  0  0  0  0  0  0
    4.6350    1.3500   19.2460 C   0  0  0  0  0  0  0  0  0  0  0  0
    5.2110    1.3090   17.9920 C   0  0  0  0  0  0  0  0  0  0  0  0
    6.3480    0.6440   17.7370 N   0  0  0  0  0  0  0  0  0  0  0  0
    6.9470   -0.0020   18.7530 C   0  0  0  0  0  0  0  0  0  0  0  0
    8.9580   -1.4510   22.1950 N   0  0  0  0  0  0  0  0  0  0  0  0
   10.0540   -1.2420   23.1250 C   0  0  0  0  0  0  0  0  0  0  0  0
   11.4380   -1.4620   22.4570 C   0  0  0  0  0  0  0  0  0  0  0  0
   12.3550   -0.4560   22.6880 C   0  0  0  0  0  0  0  0  0  0  0  0
   11.8750    0.7670   22.9110 N   0  0  0  0  0  0  0  0  0  0  0  0
   12.8010    1.7000   23.0180 C   0  0  0  0  0  0  0  0  0  0  0  0
   12.4980    3.0410   22.7860 C   0  0  0  0  0  0  0  0  0  0  0  0
   11.3350    3.7180   23.2060 C   0  0  0  0  0  0  0  0  0  0  0  0
   11.1970    5.0520   22.9080 C   0  0  0  0  0  0  0  0  0  0  0  0
   12.4800    5.7570   22.0440 S   0  0  0  0  0  0  0  0  0  0  0  0
   13.2440    4.2310   22.0590 C   0  0  0  0  0  0  0  0  0  0  0  0
   11.1690    0.6710   24.0460 C   0  0  0  0  0  0  0  0  0  0  0  0
    9.9160    0.1550   23.7740 C   0  0  0  0  0  0  0  0  0  0  0  0
  1  2  2  0
  2  3  1  0
  3  4  1  0
  4  5  2  0
  5  6  1  0
  6  7  2  0
  7  8  1  0
  4  9  1  0
  8  9  2  0
  2 10  1  0
 10 11  1  0
 11 12  1  0
 12 13  1  0
 13 14  1  0
 14 15  1  0
 15 16  1  0
 16 17  1  0
 17 18  2  0
 18 19  1  0
 16 20  2  0
 19 20  1  0
 14 21  1  0
 11 22  1  0
 21 22  1  0
M  END
