pyridine_urea_2934
     RDKit          3D

 22 23  0  0  0  0  0  0  0  0999 V2000
    8.8990    1.3390   21.1270 O   0  0  0  0  0  0  0  0  0  0  0  0
    8.2430    0.3940   21.5760 C   0  0  0  0  0  0  0  0  0  0  0  0
    8.3800   -0.0620   22.8370 N   0  0  0  0  0  0  0  0  0  0  0  0
    8.8480   -1.3930   23.0150 C   0  0  0  0  0  0  0  0  0  0  0  0
    9.9230   -1.3850   24.0930 C   0  0  0  0  0  0  0  0  0  0  0  0
   10.4570   -1.4470   22.7860 C   0  0  0  0  0  0  0  0  0  0  0  0
   11.8220   -1.5050   22.1500 C   0  0  0  0  0  0  0  0  0  0  0  0
   12.9180   -1.4980   22.8980 C   0  0  0  0  0  0  0  0  0  0  0  0
   13.8600   -1.5620   22.2510 O   0  0  0  0  0  0  0  0  0  0  0  0
   13.3960   -1.9640   21.0070 C   0  0  0  0  0  0  0  0  0  0  0  0
   12.0740   -1.8900   21.0200 F   0  0  0  0  0  0  0  0  0  0  0  0
   13.9540   -1.1010   20.1570 F   0  0  0  0  0  0  0  0  0  0  0  0
   13.6520   -3.2270   20.6870 F   0  0  0  0  0  0  0  0  0  0  0  0
   12.7180   -1.4310   24.3200 C   0  0  0  0  0  0  0  0  0  0  0  0
   11.2920   -1.3930   24.7490 C   0  0  0  0  0  0  0  0  0  0  0  0
    7.2770   -0.3380   20.9600 N   0  0  0  0  0  0  0  0  0  0  0  0
    6.5720    0.2150   19.9520 C   0  0  0  0  0  0  0  0  0  0  0  0
    5.3070    1.0140   20.2800 C   0  0  0  0  0  0  0  0  0  0  0  0
    4.6160    1.6240   19.0850 C   0  0  0  0  0  0  0  0  0  0  0  0
    5.1280    1.4400   17.8300 C   0  0  0  0  0  0  0  0  0  0  0  0
    6.2460    0.7060   17.6030 N   0  0  0  0  0  0  0  0  0  0  0  0
    6.9510    0.1060   18.6340 C   0  0  0  0  0  0  0  0  0  0  0  0
  1  2  2  0
  2  3  1  0
  3  4  1  0
  4  5  1  0
  5  6  2  0
  6  7  1  0
  7  8  2  0
  8  9  1  0
  9 10  1  0
 10 11  1  0
 10 12  1  0
 10 13  1  0
  8 14  1  0
  5 15  1  0
 14 15  2  0
  2 16  1  0
 16 17  1  0
 17 18  2  0
 18 19  1  0
 19 20  2  0
 20 21  1  0
 17 22  1  0
 21 22  2  0
M  END
