pyridine_urea_6379
     RDKit          3D

 23 25  0  0  0  0  0  0  0  0999 V2000
    8.9650    1.2670   21.2180 O   0  0  0  0  0  0  0  0  0  0  0  0
    8.5260    0.1430   21.4830 C   0  0  0  0  0  0  0  0  0  0  0  0
    9.1520   -0.6860   22.3950 N   0  0  0  0  0  0  0  0  0  0  0  0
    8.4110   -1.7170   23.0960 C   0  0  0  0  0  0  0  0  0  0  0  0
    7.2590   -1.1560   23.9370 C   0  0  0  0  0  0  0  0  0  0  0  0
    7.0330   -1.9240   25.1390 N   0  0  0  0  0  0  0  0  0  0  0  0
    6.1550   -2.9570   25.2640 C   0  0  0  0  0  0  0  0  0  0  0  0
    5.1910   -2.8640   26.2100 N   0  0  0  0  0  0  0  0  0  0  0  0
    4.2990   -3.9220   26.3080 C   0  0  0  0  0  0  0  0  0  0  0  0
    4.3270   -5.0160   25.5400 N   0  0  0  0  0  0  0  0  0  0  0  0
    5.2960   -5.1130   24.5920 C   0  0  0  0  0  0  0  0  0  0  0  0
    5.2780   -6.3480   23.7650 C   0  0  0  0  0  0  0  0  0  0  0  0
    6.1300   -6.6900   22.7620 C   0  0  0  0  0  0  0  0  0  0  0  0
    7.1470   -5.6010   22.5790 C   0  0  0  0  0  0  0  0  0  0  0  0
    7.1880   -4.4460   23.3260 C   0  0  0  0  0  0  0  0  0  0  0  0
    6.2990   -4.1580   24.3270 C   0  0  0  0  0  0  0  0  0  0  0  0
    7.3860   -0.4370   20.9550 N   0  0  0  0  0  0  0  0  0  0  0  0
    6.5570    0.1620   20.0690 C   0  0  0  0  0  0  0  0  0  0  0  0
    5.3130    0.8520   20.6980 C   0  0  0  0  0  0  0  0  0  0  0  0
    4.7150    1.3880   19.4020 C   0  0  0  0  0  0  0  0  0  0  0  0
    5.1840    1.2720   18.0000 C   0  0  0  0  0  0  0  0  0  0  0  0
    6.3130    0.5980   17.6970 N   0  0  0  0  0  0  0  0  0  0  0  0
    6.9240    0.0910   18.7310 C   0  0  0  0  0  0  0  0  0  0  0  0
  1  2  2  0
  2  3  1  0
  3  4  1  0
  4  5  1  0
  5  6  1  0
  6  7  1  0
  7  8  2  0
  8  9  1  0
  9 10  2  0
 10 11  1  0
 11 12  1  0
 12 13  2  0
 13 14  1  0
 14 15  2  0
  7 16  1  0
 11 16  2  0
 15 16  1  0
  2 17  1  0
 17 18  1  0
 18 19  2  0
 19 20  1  0
 20 21  2  0
 21 22  1  0
 18 23  1  0
 22 23  2  0
M  END
