pyridine_urea_4126
     RDKit          3D

 25 27  0  0  0  0  0  0  0  0999 V2000
    8.7990    1.1480   21.1110 O   0  0  0  0  0  0  0  0  0  0  0  0
    8.3580    0.0130   21.3590 C   0  0  0  0  0  0  0  0  0  0  0  0
    9.0010   -1.0050   21.9770 N   0  0  0  0  0  0  0  0  0  0  0  0
   10.2070   -0.8860   22.6560 C   0  0  0  0  0  0  0  0  0  0  0  0
   10.1670   -0.2060   23.8610 C   0  0  2  0  0  0  0  0  0  0  0  0
   11.3840    0.2090   24.3890 C   0  0  0  0  0  0  0  0  0  0  0  0
   12.4850    0.3460   23.5610 C   0  0  0  0  0  0  0  0  0  0  0  0
   12.2610   -0.7140   22.8780 C   0  0  0  0  0  0  0  0  0  0  0  0
   11.4800   -1.7550   22.6870 C   0  0  0  0  0  0  0  0  0  0  0  0
   12.3410   -2.1700   21.5960 C   0  0  0  0  0  0  0  0  0  0  0  0
   13.3510   -1.1760   21.5550 C   0  0  0  0  0  0  0  0  0  0  0  0
   13.4140    0.0130   22.4910 C   0  0  0  0  0  0  0  0  0  0  0  0
    9.4030   -1.0800   24.9050 C   0  0  0  0  0  0  0  0  0  0  0  0
    9.4210   -0.2390   26.0420 C   0  0  0  0  0  0  0  0  0  0  0  0
    8.6130   -0.7250   27.0610 C   0  0  0  0  0  0  0  0  0  0  0  0
    8.0520   -1.9760   26.8110 N   0  0  0  0  0  0  0  0  0  0  0  0
    8.0220   -2.4590   25.5350 C   0  0  0  0  0  0  0  0  0  0  0  0
    8.1370   -1.4490   24.3890 C   0  0  0  0  0  0  0  0  0  0  0  0
    7.0980   -0.3710   21.0120 N   0  0  0  0  0  0  0  0  0  0  0  0
    6.3940    0.2140   20.0490 C   0  0  0  0  0  0  0  0  0  0  0  0
    5.2280    0.9510   20.2260 C   0  0  0  0  0  0  0  0  0  0  0  0
    4.5810    1.5420   19.1490 C   0  0  0  0  0  0  0  0  0  0  0  0
    5.1280    1.3790   17.8860 C   0  0  0  0  0  0  0  0  0  0  0  0
    6.2370    0.6780   17.6210 N   0  0  0  0  0  0  0  0  0  0  0  0
    6.8470    0.1020   18.7630 C   0  0  0  0  0  0  0  0  0  0  0  0
  1  2  2  0
  2  3  1  0
  3  4  1  0
  5  4  1  6
  5  6  1  0
  6  7  1  0
  7  8  2  0
  8  9  1  0
  9 10  2  0
 10 11  1  0
  7 12  1  0
 11 12  2  0
  5 13  1  0
 13 14  1  0
 14 15  1  0
 15 16  1  0
 16 17  1  0
 13 18  1  0
 17 18  1  0
  2 19  1  0
 19 20  1  0
 20 21  2  0
 21 22  1  0
 22 23  2  0
 23 24  1  0
 20 25  1  0
 24 25  2  0
M  END
