pyridine_urea_3001
     RDKit          3D

 21 23  0  0  0  0  0  0  0  0999 V2000
    9.0460    1.1730   21.2620 O   0  0  0  0  0  0  0  0  0  0  0  0
    8.6050    0.0520   21.5480 C   0  0  0  0  0  0  0  0  0  0  0  0
    9.1950   -0.7510   22.5140 N   0  0  0  0  0  0  0  0  0  0  0  0
    9.2190   -2.2010   22.3560 C   0  0  0  0  0  0  0  0  0  0  0  0
    8.0850   -2.9390   23.1530 C   0  0  0  0  0  0  0  0  0  0  0  0
    7.5360   -2.4510   24.4600 N   0  0  0  0  0  0  0  0  0  0  0  0
    6.5990   -3.5180   24.6110 C   0  0  0  0  0  0  0  0  0  0  0  0
    5.6450   -3.6690   25.7840 C   0  0  0  0  0  0  0  0  0  0  0  0
    4.8000   -4.7660   25.7590 C   0  0  0  0  0  0  0  0  0  0  0  0
    4.8080   -5.7930   24.6120 C   0  0  0  0  0  0  0  0  0  0  0  0
    3.5930   -7.2320   24.6970 Br  0  0  0  0  0  0  0  0  0  0  0  0
    5.7710   -5.6650   23.4150 C   0  0  0  0  0  0  0  0  0  0  0  0
    6.6430   -4.4130   23.5690 C   0  0  0  0  0  0  0  0  0  0  0  0
    7.4730   -4.1800   22.6620 O   0  0  0  0  0  0  0  0  0  0  0  0
    7.4880   -0.5430   20.9940 N   0  0  0  0  0  0  0  0  0  0  0  0
    6.6210    0.0890   20.0890 C   0  0  0  0  0  0  0  0  0  0  0  0
    5.3320    0.8240   20.4510 C   0  0  0  0  0  0  0  0  0  0  0  0
    4.6190    1.4250   19.2490 C   0  0  0  0  0  0  0  0  0  0  0  0
    5.1610    1.2720   17.9820 C   0  0  0  0  0  0  0  0  0  0  0  0
    6.2960    0.6050   17.7280 N   0  0  0  0  0  0  0  0  0  0  0  0
    6.9650    0.0530   18.7550 C   0  0  0  0  0  0  0  0  0  0  0  0
  1  2  2  0
  2  3  1  0
  3  4  1  0
  4  5  1  0
  5  6  2  0
  6  7  1  0
  7  8  2  0
  8  9  1  0
  9 10  2  0
 10 11  1  0
 10 12  1  0
  7 13  1  0
 12 13  2  0
  5 14  1  0
 13 14  1  0
  2 15  1  0
 15 16  1  0
 16 17  2  0
 17 18  1  0
 18 19  2  0
 19 20  1  0
 16 21  1  0
 20 21  2  0
M  END
