pyridine_urea_14511
     RDKit          3D

 21 23  0  0  0  0  0  0  0  0999 V2000
    7.2150   -5.3070   22.7920 C   0  0  0  0  0  0  0  0  0  0  0  0
    7.0670   -4.1570   23.6740 N   0  0  0  0  0  0  0  0  0  0  0  0
    7.7650   -2.9930   23.6340 C   0  0  0  0  0  0  0  0  0  0  0  0
    8.7920   -2.5310   22.7960 C   0  0  0  0  0  0  0  0  0  0  0  0
    8.9780   -1.1700   22.6130 N   0  0  0  0  0  0  0  0  0  0  0  0
    8.3440   -0.2660   21.5990 C   0  0  0  0  0  0  0  0  0  0  0  0
    8.8110    0.8060   21.2260 O   0  0  0  0  0  0  0  0  0  0  0  0
    7.1980   -0.7410   21.1460 N   0  0  0  0  0  0  0  0  0  0  0  0
    6.5820   -0.1150   20.1850 C   0  0  0  0  0  0  0  0  0  0  0  0
    5.3080    0.6750   20.4430 C   0  0  0  0  0  0  0  0  0  0  0  0
    4.5880    1.4170   19.3130 C   0  0  0  0  0  0  0  0  0  0  0  0
    5.2360    1.2930   17.9540 C   0  0  0  0  0  0  0  0  0  0  0  0
    6.3640    0.5550   17.8550 N   0  0  0  0  0  0  0  0  0  0  0  0
    7.0230   -0.1240   18.8800 C   0  0  0  0  0  0  0  0  0  0  0  0
    7.3160   -2.1570   24.6580 N   0  0  0  0  0  0  0  0  0  0  0  0
    6.3180   -2.8660   25.3110 N   0  0  0  0  0  0  0  0  0  0  0  0
    6.1520   -4.1510   24.6810 C   0  0  0  0  0  0  0  0  0  0  0  0
    5.2250   -5.1140   25.0910 C   0  0  0  0  0  0  0  0  0  0  0  0
    4.4020   -5.6940   24.1340 C   0  0  0  0  0  0  0  0  0  0  0  0
    3.4640   -4.7530   24.2080 C   0  0  0  0  0  0  0  0  0  0  0  0
    4.0750   -3.9850   25.1750 C   0  0  0  0  0  0  0  0  0  0  0  0
  1  2  1  0
  2  3  1  0
  3  4  1  0
  4  5  1  0
  5  6  1  0
  6  7  2  0
  6  8  1  0
  8  9  1  0
  9 10  2  0
 10 11  1  0
 11 12  2  0
 12 13  1  0
  9 14  1  0
 13 14  2  0
  3 15  2  0
 15 16  1  0
  2 17  1  0
 16 17  2  0
 17 18  1  0
 18 19  1  0
 19 20  1  0
 18 21  1  0
 20 21  1  0
M  END
