pyridine_urea_1226
     RDKit          3D

 21 22  0  0  0  0  0  0  0  0999 V2000
   11.4300    4.1800   22.7790 C   0  0  0  0  0  0  0  0  0  0  0  0
   11.3520    3.0320   23.6220 O   0  0  0  0  0  0  0  0  0  0  0  0
   12.1890    2.0210   23.2680 C   0  0  0  0  0  0  0  0  0  0  0  0
   10.8880    1.2980   23.4840 C   0  0  0  0  0  0  0  0  0  0  0  0
   10.5040   -0.0030   23.3910 C   0  0  0  0  0  0  0  0  0  0  0  0
   11.0980   -1.2000   23.0660 C   0  0  0  0  0  0  0  0  0  0  0  0
    9.7750   -1.4540   23.3620 C   0  0  1  0  0  0  0  0  0  0  0  0
    9.2400   -0.4780   24.2230 C   0  0  0  0  0  0  0  0  0  0  0  0
    9.0000   -1.4520   22.0960 N   0  0  0  0  0  0  0  0  0  0  0  0
    8.4130   -0.3290   21.5400 C   0  0  0  0  0  0  0  0  0  0  0  0
    9.0280    0.9540   21.3970 O   0  0  0  0  0  0  0  0  0  0  0  0
    7.1210   -0.6160   21.1240 N   0  0  0  0  0  0  0  0  0  0  0  0
    6.4670    0.0240   20.0800 C   0  0  0  0  0  0  0  0  0  0  0  0
    5.2930    0.7330   20.3660 C   0  0  0  0  0  0  0  0  0  0  0  0
    4.6190    1.3970   19.3260 C   0  0  0  0  0  0  0  0  0  0  0  0
    5.2040    1.3070   17.9560 C   0  0  0  0  0  0  0  0  0  0  0  0
    6.3240    0.6170   17.7240 N   0  0  0  0  0  0  0  0  0  0  0  0
    6.9180    0.0010   18.7700 C   0  0  0  0  0  0  0  0  0  0  0  0
   12.3440   -0.6160   22.8400 C   0  0  0  0  0  0  0  0  0  0  0  0
   12.8180    0.6640   22.9130 C   0  0  0  0  0  0  0  0  0  0  0  0
   14.0680    0.7160   22.6070 F   0  0  0  0  0  0  0  0  0  0  0  0
  1  2  1  0
  2  3  1  0
  3  4  2  0
  4  5  1  0
  5  6  2  0
  6  7  1  0
  7  8  1  1
  7  9  1  0
  9 10  1  0
 10 11  2  0
 10 12  1  0
 12 13  1  0
 13 14  2  0
 14 15  1  0
 15 16  2  0
 16 17  1  0
 13 18  1  0
 17 18  2  0
  6 19  1  0
  3 20  1  0
 19 20  2  0
 20 21  1  0
M  END
