pyridine_urea_8031
     RDKit          3D

 24 25  0  0  0  0  0  0  0  0999 V2000
    8.8030    1.0570   21.1320 O   0  0  0  0  0  0  0  0  0  0  0  0
    8.2950   -0.0390   21.4150 C   0  0  0  0  0  0  0  0  0  0  0  0
    8.8590   -0.9200   22.2980 N   0  0  0  0  0  0  0  0  0  0  0  0
   10.0680   -0.4970   22.9460 C   0  0  0  0  0  0  0  0  0  0  0  0
    9.9880    0.9790   23.4820 C   0  0  1  0  0  0  0  0  0  0  0  0
    9.3940    1.1810   24.7250 C   0  0  0  0  0  0  0  0  0  0  0  0
    8.0840    0.8190   24.9380 O   0  0  0  0  0  0  0  0  0  0  0  0
   11.4410    1.4600   23.5920 C   0  0  0  0  0  0  0  0  0  0  0  0
   12.0750    0.2830   23.8760 C   0  0  0  0  0  0  0  0  0  0  0  0
   12.4280   -0.5810   25.0510 C   0  0  0  0  0  0  0  0  0  0  0  0
   13.2060   -1.9320   24.7230 C   0  0  0  0  0  0  0  0  0  0  0  0
   13.5510   -2.7360   25.7510 F   0  0  0  0  0  0  0  0  0  0  0  0
   13.5600   -2.3070   23.2050 C   0  0  0  0  0  0  0  0  0  0  0  0
   14.1780   -3.4010   23.0500 F   0  0  0  0  0  0  0  0  0  0  0  0
   13.1510   -1.3670   22.1080 C   0  0  0  0  0  0  0  0  0  0  0  0
   13.3090   -1.4180   20.7720 F   0  0  0  0  0  0  0  0  0  0  0  0
   12.6950   -0.7280   23.2210 C   0  0  0  0  0  0  0  0  0  0  0  0
    7.1230   -0.5430   20.9260 N   0  0  0  0  0  0  0  0  0  0  0  0
    6.3810    0.1130   19.9820 C   0  0  0  0  0  0  0  0  0  0  0  0
    5.1890    0.7940   20.2140 C   0  0  0  0  0  0  0  0  0  0  0  0
    4.5660    1.4300   19.1410 C   0  0  0  0  0  0  0  0  0  0  0  0
    5.1580    1.3590   17.8930 C   0  0  0  0  0  0  0  0  0  0  0  0
    6.2990    0.6980   17.6570 N   0  0  0  0  0  0  0  0  0  0  0  0
    6.8790    0.0940   18.6990 C   0  0  0  0  0  0  0  0  0  0  0  0
  1  2  2  0
  2  3  1  0
  3  4  1  0
  5  4  1  1
  5  6  1  0
  6  7  1  0
  5  8  1  0
  8  9  1  0
  9 10  2  0
 10 11  1  0
 11 12  1  0
 11 13  2  0
 13 14  1  0
 13 15  1  0
 15 16  1  0
  9 17  1  0
 15 17  2  0
  2 18  1  0
 18 19  1  0
 19 20  2  0
 20 21  1  0
 21 22  2  0
 22 23  1  0
 19 24  1  0
 23 24  2  0
M  END
