pyridine_urea_10096
     RDKit          3D

 23 25  0  0  0  0  0  0  0  0999 V2000
    8.6040    1.2960   20.9720 O   0  0  0  0  0  0  0  0  0  0  0  0
    7.9520    0.3680   21.4720 C   0  0  0  0  0  0  0  0  0  0  0  0
    6.9840   -0.3760   20.8710 N   0  0  0  0  0  0  0  0  0  0  0  0
    6.2610    0.2430   19.8940 C   0  0  0  0  0  0  0  0  0  0  0  0
    5.0540    0.8920   20.0670 C   0  0  0  0  0  0  0  0  0  0  0  0
    4.4670    1.5060   18.9730 C   0  0  0  0  0  0  0  0  0  0  0  0
    5.1240    1.4370   17.7640 C   0  0  0  0  0  0  0  0  0  0  0  0
    6.2870    0.7950   17.5870 N   0  0  0  0  0  0  0  0  0  0  0  0
    6.8200    0.2180   18.6500 C   0  0  0  0  0  0  0  0  0  0  0  0
    8.1240   -0.0440   22.7350 N   0  0  0  0  0  0  0  0  0  0  0  0
    9.4030   -0.2080   23.1170 C   0  0  0  0  0  0  0  0  0  0  0  0
   10.1820   -1.1660   22.9120 C   0  0  0  0  0  0  0  0  0  0  0  0
   11.3160   -0.8970   23.4500 N   0  0  0  0  0  0  0  0  0  0  0  0
   11.5110    0.3460   24.1390 N   0  0  0  0  0  0  0  0  0  0  0  0
   12.3300   -0.7170   23.9150 C   0  0  0  0  0  0  0  0  0  0  0  0
   12.2800   -1.3160   22.6920 C   0  0  0  0  0  0  0  0  0  0  0  0
   11.4490   -0.8300   21.8140 F   0  0  0  0  0  0  0  0  0  0  0  0
   13.0460   -2.3800   22.3890 C   0  0  0  0  0  0  0  0  0  0  0  0
   13.9110   -2.8790   23.4450 C   0  0  0  0  0  0  0  0  0  0  0  0
   13.9120   -2.2750   24.6780 C   0  0  0  0  0  0  0  0  0  0  0  0
   13.1200   -1.2050   24.8460 C   0  0  0  0  0  0  0  0  0  0  0  0
   13.1800   -0.6620   26.0130 F   0  0  0  0  0  0  0  0  0  0  0  0
   10.2160    0.7880   23.8970 C   0  0  0  0  0  0  0  0  0  0  0  0
  1  2  2  0
  2  3  1  0
  3  4  1  0
  4  5  2  0
  5  6  1  0
  6  7  2  0
  7  8  1  0
  4  9  1  0
  8  9  2  0
  2 10  1  0
 10 11  1  0
 11 12  1  0
 12 13  2  0
 13 14  1  0
 14 15  1  0
 15 16  2  0
 16 17  1  0
 16 18  1  0
 18 19  2  0
 19 20  1  0
 15 21  1  0
 20 21  2  0
 21 22  1  0
 11 23  2  0
 14 23  1  0
M  END
