pyridine_urea_8204
     RDKit          3D

 23 24  0  0  0  0  0  0  0  0999 V2000
    8.7660   -4.1510   24.8910 C   0  0  0  0  0  0  0  0  0  0  0  0
    8.4320   -2.6640   24.7780 C   0  0  0  0  0  0  0  0  0  0  0  0
    9.4370   -1.9540   24.0240 O   0  0  0  0  0  0  0  0  0  0  0  0
    9.7820   -0.7010   24.4640 C   0  0  0  0  0  0  0  0  0  0  0  0
    9.4810   -1.2640   25.7450 O   0  0  0  0  0  0  0  0  0  0  0  0
    9.9120   -0.7550   23.0610 C   0  0  1  0  0  0  0  0  0  0  0  0
   11.2030   -1.3570   22.4730 C   0  0  0  0  0  0  0  0  0  0  0  0
   12.2130   -0.4330   22.6660 C   0  0  0  0  0  0  0  0  0  0  0  0
   13.0180    0.8440   22.9030 C   0  0  0  0  0  0  0  0  0  0  0  0
   12.6430    2.2840   23.0990 C   0  0  0  0  0  0  0  0  0  0  0  0
   11.2830    2.6210   23.0810 N   0  0  0  0  0  0  0  0  0  0  0  0
   10.4470    1.6040   22.8800 C   0  0  0  0  0  0  0  0  0  0  0  0
   10.8860    0.1280   22.6760 C   0  0  0  0  0  0  0  0  0  0  0  0
    8.6930   -1.2720   22.4760 N   0  0  0  0  0  0  0  0  0  0  0  0
    8.1110   -0.3820   21.5440 C   0  0  0  0  0  0  0  0  0  0  0  0
    8.6490    0.8280   21.1840 O   0  0  0  0  0  0  0  0  0  0  0  0
    6.9460   -0.8620   21.0620 N   0  0  0  0  0  0  0  0  0  0  0  0
    6.3960   -0.1490   20.0470 C   0  0  0  0  0  0  0  0  0  0  0  0
    5.2150    0.5760   20.2830 C   0  0  0  0  0  0  0  0  0  0  0  0
    4.6340    1.3270   19.2430 C   0  0  0  0  0  0  0  0  0  0  0  0
    5.2420    1.3410   17.9990 C   0  0  0  0  0  0  0  0  0  0  0  0
    6.3590    0.6870   17.6820 N   0  0  0  0  0  0  0  0  0  0  0  0
    6.9350   -0.0880   18.7800 C   0  0  0  0  0  0  0  0  0  0  0  0
  1  2  1  0
  2  3  1  0
  3  4  1  0
  4  5  2  0
  4  6  1  0
  6  7  1  1
  7  8  1  0
  8  9  2  0
  9 10  1  0
 10 11  2  0
 11 12  1  0
  8 13  1  0
 12 13  2  0
  6 14  1  0
 14 15  1  0
 15 16  2  0
 15 17  1  0
 17 18  1  0
 18 19  2  0
 19 20  1  0
 20 21  2  0
 21 22  1  0
 18 23  1  0
 22 23  2  0
M  END
