pyridine_urea_12708
     RDKit          3D

 20 21  0  0  0  0  0  0  0  0999 V2000
   10.3730    0.7880   22.7930 C   0  0  0  0  0  0  0  0  0  0  0  0
   11.5170    0.8100   23.7960 C   0  0  0  0  0  0  0  0  0  0  0  0
   11.1890   -0.0380   24.8150 F   0  0  0  0  0  0  0  0  0  0  0  0
   11.4280    2.0770   24.2470 F   0  0  0  0  0  0  0  0  0  0  0  0
   12.8800    0.4910   23.1320 C   0  0  0  0  0  0  0  0  0  0  0  0
   12.4990   -0.5180   22.6430 C   0  0  0  0  0  0  0  0  0  0  0  0
   11.5460   -1.2790   22.5040 C   0  0  0  0  0  0  0  0  0  0  0  0
   10.1910   -1.5460   22.8090 C   0  0  0  0  0  0  0  0  0  0  0  0
    9.3150   -1.3990   21.6050 N   0  0  0  0  0  0  0  0  0  0  0  0
    8.4810   -0.3130   21.3630 C   0  0  0  0  0  0  0  0  0  0  0  0
    8.8440    0.8510   21.4200 O   0  0  0  0  0  0  0  0  0  0  0  0
    7.2230   -0.6940   21.0030 N   0  0  0  0  0  0  0  0  0  0  0  0
    6.4730   -0.0320   20.0770 C   0  0  0  0  0  0  0  0  0  0  0  0
    5.2980    0.6610   20.2940 C   0  0  0  0  0  0  0  0  0  0  0  0
    4.6050    1.3260   19.2870 C   0  0  0  0  0  0  0  0  0  0  0  0
    5.1600    1.2680   18.0040 C   0  0  0  0  0  0  0  0  0  0  0  0
    6.3000    0.5980   17.7410 N   0  0  0  0  0  0  0  0  0  0  0  0
    6.9190   -0.0280   18.7680 C   0  0  0  0  0  0  0  0  0  0  0  0
   12.5950   -1.7750   21.8380 N   0  0  0  0  0  0  0  0  0  0  0  0
   13.4660   -0.6970   22.2020 O   0  0  0  0  0  0  0  0  0  0  0  0
  1  2  1  0
  2  3  1  0
  2  4  1  0
  2  5  1  0
  5  6  2  0
  6  7  1  0
  7  8  1  0
  8  9  1  0
  9 10  1  0
 10 11  2  0
 10 12  1  0
 12 13  1  0
 13 14  2  0
 14 15  1  0
 15 16  2  0
 16 17  1  0
 13 18  1  0
 17 18  2  0
  7 19  2  0
  5 20  1  0
 19 20  1  0
M  END
