pyridine_urea_9676
     RDKit          3D

 30 33  0  0  0  0  0  0  0  0999 V2000
    8.7800    1.2430   20.9900 O   0  0  0  0  0  0  0  0  0  0  0  0
    8.3250    0.1330   21.2890 C   0  0  0  0  0  0  0  0  0  0  0  0
    8.8860   -0.6090   22.2400 N   0  0  0  0  0  0  0  0  0  0  0  0
    8.8340    0.1130   23.4420 C   0  0  0  0  0  0  0  0  0  0  0  0
    7.4060    0.4990   23.8770 C   0  0  0  0  0  0  0  0  0  0  0  0
    6.7730    1.7150   23.2140 C   0  0  0  0  0  0  0  0  0  0  0  0
    5.3630    2.0300   23.7250 C   0  0  0  0  0  0  0  0  0  0  0  0
    4.7660    1.2290   24.7200 N   0  0  0  0  0  0  0  0  0  0  0  0
    5.4230    0.1370   25.2640 C   0  0  0  0  0  0  0  0  0  0  0  0
    4.7260   -0.5710   26.2390 N   0  0  0  0  0  0  0  0  0  0  0  0
    5.2990   -1.5920   26.9990 C   0  0  0  0  0  0  0  0  0  0  0  0
    5.5560   -2.7720   26.3030 C   0  0  0  0  0  0  0  0  0  0  0  0
    4.5880   -3.3010   25.5420 N   0  0  0  0  0  0  0  0  0  0  0  0
    5.1640   -4.2090   24.6810 C   0  0  0  0  0  0  0  0  0  0  0  0
    6.5240   -4.4830   24.8660 C   0  0  0  0  0  0  0  0  0  0  0  0
    7.2000   -5.3710   24.0450 C   0  0  0  0  0  0  0  0  0  0  0  0
    6.4910   -5.9860   23.0300 C   0  0  0  0  0  0  0  0  0  0  0  0
    7.1080   -6.8460   22.2160 F   0  0  0  0  0  0  0  0  0  0  0  0
    5.0590   -5.7310   22.8000 C   0  0  0  0  0  0  0  0  0  0  0  0
    4.4150   -4.8310   23.6460 C   0  0  0  0  0  0  0  0  0  0  0  0
    4.1900   -2.1660   24.8880 C   0  0  0  0  0  0  0  0  0  0  0  0
    3.6530   -1.1510   25.6760 C   0  0  0  0  0  0  0  0  0  0  0  0
    6.7160   -0.2410   24.8640 C   0  0  0  0  0  0  0  0  0  0  0  0
    7.2240   -0.4860   20.8040 N   0  0  0  0  0  0  0  0  0  0  0  0
    6.5010    0.1230   19.8770 C   0  0  0  0  0  0  0  0  0  0  0  0
    5.3290    0.7770   20.2170 C   0  0  0  0  0  0  0  0  0  0  0  0
    4.6210    1.4230   19.2200 C   0  0  0  0  0  0  0  0  0  0  0  0
    5.1110    1.3870   17.9290 C   0  0  0  0  0  0  0  0  0  0  0  0
    6.2250    0.7510   17.5950 N   0  0  0  0  0  0  0  0  0  0  0  0
    6.8940    0.1340   18.5810 C   0  0  0  0  0  0  0  0  0  0  0  0
  1  2  2  0
  2  3  1  0
  3  4  1  0
  4  5  1  0
  5  6  2  0
  6  7  1  0
  7  8  2  0
  8  9  1  0
  9 10  1  0
 10 11  1  0
 11 12  1  0
 12 13  1  0
 13 14  1  0
 14 15  2  0
 15 16  1  0
 16 17  2  0
 17 18  1  0
 17 19  1  0
 14 20  1  0
 19 20  2  0
 13 21  1  0
 10 22  1  0
 21 22  1  0
  5 23  1  0
  9 23  2  0
  2 24  1  0
 24 25  1  0
 25 26  2  0
 26 27  1  0
 27 28  2  0
 28 29  1  0
 25 30  1  0
 29 30  2  0
M  END
