pyridine_urea_14638
     RDKit          3D

 21 23  0  0  0  0  0  0  0  0999 V2000
    8.3870    0.2630   20.9070 O   0  0  0  0  0  0  0  0  0  0  0  0
    7.8630   -0.7630   21.3120 C   0  0  0  0  0  0  0  0  0  0  0  0
    6.6610   -1.1670   20.8400 N   0  0  0  0  0  0  0  0  0  0  0  0
    6.0680   -0.2980   19.9200 C   0  0  0  0  0  0  0  0  0  0  0  0
    4.8980    0.4280   20.1040 C   0  0  0  0  0  0  0  0  0  0  0  0
    4.4400    1.2710   19.0880 C   0  0  0  0  0  0  0  0  0  0  0  0
    5.1770    1.3540   17.9240 C   0  0  0  0  0  0  0  0  0  0  0  0
    6.3080    0.6640   17.7160 N   0  0  0  0  0  0  0  0  0  0  0  0
    6.7220   -0.1370   18.7120 C   0  0  0  0  0  0  0  0  0  0  0  0
    8.4650   -1.4960   22.3020 N   0  0  0  0  0  0  0  0  0  0  0  0
    9.3720   -0.6050   22.7550 C   0  0  0  0  0  0  0  0  0  0  0  0
    8.7750    0.4910   23.3200 C   0  0  0  0  0  0  0  0  0  0  0  0
    9.3650    1.5650   23.7890 C   0  0  0  0  0  0  0  0  0  0  0  0
    8.5500    2.9220   24.4090 Cl  0  0  0  0  0  0  0  0  0  0  0  0
   10.7020    1.4170   23.6510 N   0  0  0  0  0  0  0  0  0  0  0  0
   11.3350    0.3040   23.0730 C   0  0  0  0  0  0  0  0  0  0  0  0
   12.6770    0.7860   23.1940 C   0  0  0  0  0  0  0  0  0  0  0  0
   13.7670    0.0480   22.6920 C   0  0  0  0  0  0  0  0  0  0  0  0
   12.5870   -0.2930   22.6690 C   0  0  0  0  0  0  0  0  0  0  0  0
   12.0800   -1.3150   22.2400 C   0  0  0  0  0  0  0  0  0  0  0  0
   10.8130   -1.0440   22.4510 C   0  0  0  0  0  0  0  0  0  0  0  0
  1  2  2  0
  2  3  1  0
  3  4  1  0
  4  5  2  0
  5  6  1  0
  6  7  2  0
  7  8  1  0
  4  9  1  0
  8  9  2  0
  2 10  1  0
 10 11  1  0
 11 12  2  0
 12 13  1  0
 13 14  1  0
 13 15  2  0
 15 16  1  0
 16 17  1  0
 17 18  2  0
 18 19  1  0
 19 20  2  0
 11 21  1  0
 16 21  2  0
 20 21  1  0
M  END
