pyridine_urea_2176
     RDKit          3D

 27 29  0  0  0  0  0  0  0  0999 V2000
   10.2820   -0.3710   24.9430 C   0  0  0  0  0  0  0  0  0  0  0  0
   10.3980   -0.1830   23.3930 C   0  0  2  0  0  0  0  0  0  0  0  0
    9.2120   -0.6470   22.5910 N   0  0  0  0  0  0  0  0  0  0  0  0
    8.6220    0.1320   21.5890 C   0  0  0  0  0  0  0  0  0  0  0  0
    9.0530    1.2420   21.2470 O   0  0  0  0  0  0  0  0  0  0  0  0
    7.5000   -0.4790   21.0670 N   0  0  0  0  0  0  0  0  0  0  0  0
    6.7280    0.0880   20.0470 C   0  0  0  0  0  0  0  0  0  0  0  0
    5.5180    0.9060   20.3740 C   0  0  0  0  0  0  0  0  0  0  0  0
    4.7560    1.4950   19.3790 C   0  0  0  0  0  0  0  0  0  0  0  0
    5.0940    1.3490   18.0310 C   0  0  0  0  0  0  0  0  0  0  0  0
    6.2560    0.5450   17.7410 N   0  0  0  0  0  0  0  0  0  0  0  0
    7.0040   -0.0370   18.7210 C   0  0  0  0  0  0  0  0  0  0  0  0
   11.7170   -0.7510   22.7810 C   0  0  0  0  0  0  0  0  0  0  0  0
   11.7000   -1.9750   22.3090 C   0  0  0  0  0  0  0  0  0  0  0  0
   12.8060   -1.2120   22.2470 C   0  0  0  0  0  0  0  0  0  0  0  0
   11.9320   -0.1730   23.0360 C   0  0  0  0  0  0  0  0  0  0  0  0
   10.5080   -0.6770   23.4760 C   0  0  0  0  0  0  0  0  0  0  0  0
   10.3160   -2.0120   23.8690 C   0  0  0  0  0  0  0  0  0  0  0  0
    9.0750   -2.5080   24.2910 C   0  0  0  0  0  0  0  0  0  0  0  0
    7.8980   -1.7640   24.3760 C   0  0  0  0  0  0  0  0  0  0  0  0
    6.7180   -2.2710   24.7920 N   0  0  0  0  0  0  0  0  0  0  0  0
    6.7410   -2.9860   26.0970 C   0  0  0  0  0  0  0  0  0  0  0  0
    5.9340   -2.7740   23.7960 C   0  0  0  0  0  0  0  0  0  0  0  0
    8.0150   -0.4080   23.9960 C   0  0  0  0  0  0  0  0  0  0  0  0
    9.2200    0.1820   23.5580 C   0  0  0  0  0  0  0  0  0  0  0  0
   12.5940    1.0700   23.2570 C   0  0  0  0  0  0  0  0  0  0  0  0
   12.9570   -0.0210   22.6720 C   0  0  0  0  0  0  0  0  0  0  0  0
  2  1  1  1
  2  3  1  0
  3  4  1  0
  4  5  2  0
  4  6  1  0
  6  7  1  0
  7  8  2  0
  8  9  1  0
  9 10  2  0
 10 11  1  0
  7 12  1  0
 11 12  2  0
  2 13  1  0
 13 14  2  0
 14 15  1  0
 15 16  2  0
 16 17  1  0
 17 18  2  0
 18 19  1  0
 19 20  2  0
 20 21  1  0
 21 22  1  0
 21 23  1  0
 20 24  1  0
 17 25  1  0
 24 25  2  0
 16 26  1  0
 13 27  1  0
 26 27  2  0
M  END
