pyridine_urea_15126
     RDKit          3D

 17 20  0  0  0  0  0  0  0  0999 V2000
    9.0130    0.7370   21.4140 O   0  0  0  0  0  0  0  0  0  0  0  0
    8.6290   -0.4160   21.5370 C   0  0  0  0  0  0  0  0  0  0  0  0
    7.3330   -0.8140   21.1900 N   0  0  0  0  0  0  0  0  0  0  0  0
    6.6210   -0.1050   20.1310 C   0  0  0  0  0  0  0  0  0  0  0  0
    5.3600    0.6840   20.5110 C   0  0  0  0  0  0  0  0  0  0  0  0
    4.6190    1.4340   19.3960 C   0  0  0  0  0  0  0  0  0  0  0  0
    5.2280    1.3150   18.0010 C   0  0  0  0  0  0  0  0  0  0  0  0
    6.3850    0.5500   17.8170 N   0  0  0  0  0  0  0  0  0  0  0  0
    7.0370   -0.1200   18.8170 C   0  0  0  0  0  0  0  0  0  0  0  0
    9.4070   -1.4760   22.0400 N   0  0  0  0  0  0  0  0  0  0  0  0
   10.7620   -1.3320   22.5110 C   0  0  2  0  0  0  0  0  0  0  0  0
   11.6470   -2.3490   22.6060 C   0  0  0  0  0  0  0  0  0  0  0  0
   12.6250   -1.6880   23.2240 C   0  0  2  0  0  0  0  0  0  0  0  0
   12.0840   -1.0020   24.2270 C   0  0  0  0  0  0  0  0  0  0  0  0
   10.9990   -0.3600   23.6030 C   0  0  1  0  0  0  0  0  0  0  0  0
   11.3850   -0.0020   22.5330 C   0  0  1  0  0  0  0  0  0  0  0  0
   12.5260   -0.9410   22.0680 C   0  0  0  0  0  0  0  0  0  0  0  0
  1  2  2  0
  2  3  1  0
  3  4  1  0
  4  5  2  0
  5  6  1  0
  6  7  2  0
  7  8  1  0
  4  9  1  0
  8  9  2  0
  2 10  1  0
 11 10  1  6
 11 12  1  0
 13 12  1  6
 13 14  1  0
 11 15  1  0
 15 14  1  1
 11 16  1  0
 15 16  1  0
 13 17  1  0
 16 17  1  1
M  END
