pyridine_urea_6266
     RDKit          3D

 24 25  0  0  0  0  0  0  0  0999 V2000
   12.7740   -2.8520   24.9780 C   0  0  0  0  0  0  0  0  0  0  0  0
   13.4050   -1.8700   25.0220 C   0  0  0  0  0  0  0  0  0  0  0  0
   12.5150   -0.8150   25.4590 O   0  0  0  0  0  0  0  0  0  0  0  0
   11.9530    0.0070   24.5360 C   0  0  0  0  0  0  0  0  0  0  0  0
   12.5990    0.7520   23.8030 O   0  0  0  0  0  0  0  0  0  0  0  0
   10.4710   -0.0970   24.5330 C   0  0  0  0  0  0  0  0  0  0  0  0
   10.0270    0.3590   23.3400 C   0  0  2  0  0  0  0  0  0  0  0  0
    8.6770    0.0170   22.9480 N   0  0  0  0  0  0  0  0  0  0  0  0
    8.3180    0.4290   21.6730 C   0  0  0  0  0  0  0  0  0  0  0  0
    8.8860    1.3910   21.1470 O   0  0  0  0  0  0  0  0  0  0  0  0
    7.2990   -0.3130   21.1070 N   0  0  0  0  0  0  0  0  0  0  0  0
    6.4480    0.2410   20.1400 C   0  0  0  0  0  0  0  0  0  0  0  0
    5.3010    0.8930   20.5070 C   0  0  0  0  0  0  0  0  0  0  0  0
    4.6470    1.3890   19.2330 C   0  0  0  0  0  0  0  0  0  0  0  0
    5.1760    1.1730   17.9890 C   0  0  0  0  0  0  0  0  0  0  0  0
    6.2800    0.5240   17.7270 N   0  0  0  0  0  0  0  0  0  0  0  0
    6.8810    0.0750   18.8230 C   0  0  0  0  0  0  0  0  0  0  0  0
   11.0080   -0.6310   22.7190 C   0  0  0  0  0  0  0  0  0  0  0  0
   10.0030   -1.5080   22.0420 C   0  0  0  0  0  0  0  0  0  0  0  0
   11.1550   -2.3940   21.3910 C   0  0  0  0  0  0  0  0  0  0  0  0
   12.7060   -2.4600   21.5740 C   0  0  0  0  0  0  0  0  0  0  0  0
   13.5620   -3.8520   20.6540 Br  0  0  0  0  0  0  0  0  0  0  0  0
   13.0790   -1.5210   22.4920 C   0  0  0  0  0  0  0  0  0  0  0  0
   12.0760   -0.8580   22.0850 C   0  0  0  0  0  0  0  0  0  0  0  0
  1  2  1  0
  2  3  1  0
  3  4  1  0
  4  5  2  0
  4  6  1  0
  7  6  1  1
  7  8  1  0
  8  9  1  0
  9 10  2  0
  9 11  1  0
 11 12  1  0
 12 13  2  0
 13 14  1  0
 14 15  2  0
 15 16  1  0
 12 17  1  0
 16 17  2  0
  7 18  1  0
 18 19  2  0
 19 20  1  0
 20 21  2  0
 21 22  1  0
 21 23  1  0
 18 24  1  0
 23 24  2  0
M  END
