pyridine_urea_12329
     RDKit          3D

 22 23  0  0  0  0  0  0  0  0999 V2000
    8.7340    1.3230   21.0980 O   0  0  0  0  0  0  0  0  0  0  0  0
    8.0970    0.3810   21.5900 C   0  0  0  0  0  0  0  0  0  0  0  0
    8.3340   -0.0660   22.8360 N   0  0  0  0  0  0  0  0  0  0  0  0
    9.6850   -0.4310   22.9700 C   0  0  0  0  0  0  0  0  0  0  0  0
   10.2760   -1.2920   21.8260 C   0  0  0  0  0  0  0  0  0  0  0  0
   11.5710   -1.6780   21.8990 C   0  0  0  0  0  0  0  0  0  0  0  0
   12.2540   -1.1950   23.1220 C   0  0  0  0  0  0  0  0  0  0  0  0
   13.4680   -1.3940   23.5420 C   0  0  1  0  0  0  0  0  0  0  0  0
   13.8140   -0.2450   23.6240 O   0  0  0  0  0  0  0  0  0  0  0  0
   13.3270   -1.9930   24.9200 C   0  0  0  0  0  0  0  0  0  0  0  0
   14.3410   -2.5890   25.5340 F   0  0  0  0  0  0  0  0  0  0  0  0
   13.0280   -0.9300   25.6610 F   0  0  0  0  0  0  0  0  0  0  0  0
   12.3250   -2.8620   25.0170 F   0  0  0  0  0  0  0  0  0  0  0  0
   11.8050   -0.3980   24.2110 C   0  0  0  0  0  0  0  0  0  0  0  0
   10.3870    0.0640   24.2000 C   0  0  0  0  0  0  0  0  0  0  0  0
    7.1030   -0.3450   21.0140 N   0  0  0  0  0  0  0  0  0  0  0  0
    6.4640    0.2100   19.9690 C   0  0  0  0  0  0  0  0  0  0  0  0
    5.1770    0.9950   20.2260 C   0  0  0  0  0  0  0  0  0  0  0  0
    4.5540    1.6150   18.9960 C   0  0  0  0  0  0  0  0  0  0  0  0
    5.1440    1.4490   17.7750 C   0  0  0  0  0  0  0  0  0  0  0  0
    6.2800    0.7270   17.6110 N   0  0  0  0  0  0  0  0  0  0  0  0
    6.9270    0.1170   18.6730 C   0  0  0  0  0  0  0  0  0  0  0  0
  1  2  2  0
  2  3  1  0
  3  4  1  0
  4  5  2  0
  5  6  1  0
  6  7  2  0
  7  8  1  0
  8  9  1  1
  8 10  1  0
 10 11  1  0
 10 12  1  0
 10 13  1  0
  7 14  1  0
  4 15  1  0
 14 15  2  0
  2 16  1  0
 16 17  1  0
 17 18  2  0
 18 19  1  0
 19 20  2  0
 20 21  1  0
 17 22  1  0
 21 22  2  0
M  END
