pyridine_urea_11866
     RDKit          3D

 24 25  0  0  0  0  0  0  0  0999 V2000
    8.6780    0.8400   21.1400 O   0  0  0  0  0  0  0  0  0  0  0  0
    8.1590   -0.1830   21.5450 C   0  0  0  0  0  0  0  0  0  0  0  0
    6.9460   -0.6250   21.1210 N   0  0  0  0  0  0  0  0  0  0  0  0
    6.3360    0.0020   20.0360 C   0  0  0  0  0  0  0  0  0  0  0  0
    5.1350    0.6860   20.2260 C   0  0  0  0  0  0  0  0  0  0  0  0
    4.5340    1.3360   19.1480 C   0  0  0  0  0  0  0  0  0  0  0  0
    5.1620    1.2750   17.9230 C   0  0  0  0  0  0  0  0  0  0  0  0
    6.3100    0.6170   17.7200 N   0  0  0  0  0  0  0  0  0  0  0  0
    6.8690   -0.0050   18.7710 C   0  0  0  0  0  0  0  0  0  0  0  0
    8.7720   -0.9790   22.4730 N   0  0  0  0  0  0  0  0  0  0  0  0
   10.2260   -0.8080   22.4650 C   0  0  2  0  0  0  0  0  0  0  0  0
   10.9060   -1.9880   23.1180 C   0  0  0  0  0  0  0  0  0  0  0  0
   12.2950   -1.9240   23.3340 C   0  0  0  0  0  0  0  0  0  0  0  0
   12.6510   -0.8660   24.1000 F   0  0  0  0  0  0  0  0  0  0  0  0
   13.0260   -1.8620   22.1870 F   0  0  0  0  0  0  0  0  0  0  0  0
   12.7630   -2.9980   24.0200 F   0  0  0  0  0  0  0  0  0  0  0  0
   10.5050    0.6110   22.7730 C   0  0  0  0  0  0  0  0  0  0  0  0
    9.5960    1.5900   22.9550 C   0  0  0  0  0  0  0  0  0  0  0  0
   10.2170    2.8270   23.2000 C   0  0  0  0  0  0  0  0  0  0  0  0
    9.2360    4.2180   23.4570 Cl  0  0  0  0  0  0  0  0  0  0  0  0
   11.6600    2.9820   23.2500 C   0  0  0  0  0  0  0  0  0  0  0  0
   12.6890    1.9790   23.0820 C   0  0  0  0  0  0  0  0  0  0  0  0
   13.3550    0.4300   22.8070 Cl  0  0  0  0  0  0  0  0  0  0  0  0
   11.7210    1.1050   22.8930 C   0  0  0  0  0  0  0  0  0  0  0  0
  1  2  2  0
  2  3  1  0
  3  4  1  0
  4  5  2  0
  5  6  1  0
  6  7  2  0
  7  8  1  0
  4  9  1  0
  8  9  2  0
  2 10  1  0
 10 11  1  0
 11 12  1  1
 12 13  1  0
 13 14  1  0
 13 15  1  0
 13 16  1  0
 11 17  1  0
 17 18  2  0
 18 19  1  0
 19 20  1  0
 19 21  2  0
 21 22  1  0
 22 23  1  0
 17 24  1  0
 22 24  2  0
M  END
