pyridine_urea_2977
     RDKit          3D

 21 23  0  0  0  0  0  0  0  0999 V2000
    8.4460    1.2520   20.9550 O   0  0  0  0  0  0  0  0  0  0  0  0
    7.9740    0.2270   21.4680 C   0  0  0  0  0  0  0  0  0  0  0  0
    6.9630   -0.5250   20.9420 N   0  0  0  0  0  0  0  0  0  0  0  0
    6.3070    0.1460   19.8820 C   0  0  0  0  0  0  0  0  0  0  0  0
    4.9640    0.8740   20.1600 C   0  0  0  0  0  0  0  0  0  0  0  0
    4.3950    1.5280   19.0860 C   0  0  0  0  0  0  0  0  0  0  0  0
    5.1540    1.4590   17.7590 C   0  0  0  0  0  0  0  0  0  0  0  0
    6.3170    0.7950   17.5870 N   0  0  0  0  0  0  0  0  0  0  0  0
    6.8550    0.1650   18.6360 C   0  0  0  0  0  0  0  0  0  0  0  0
    8.3880   -0.3400   22.6220 N   0  0  0  0  0  0  0  0  0  0  0  0
    9.7760   -0.6740   22.5470 C   0  0  0  0  0  0  0  0  0  0  0  0
    9.7590   -1.7560   21.8550 C   0  0  0  0  0  0  0  0  0  0  0  0
    8.6010   -0.7780   22.3810 O   0  0  0  0  0  0  0  0  0  0  0  0
    8.9460    0.5310   23.2500 N   0  0  0  0  0  0  0  0  0  0  0  0
   10.2710    0.2950   23.2080 C   0  0  0  0  0  0  0  0  0  0  0  0
   11.7060    0.3960   23.3930 C   0  0  0  0  0  0  0  0  0  0  0  0
   13.0800   -0.1220   23.7070 C   0  0  0  0  0  0  0  0  0  0  0  0
   13.4170   -1.5430   24.1110 C   0  0  0  0  0  0  0  0  0  0  0  0
   12.5460   -2.5160   24.2400 C   0  0  0  0  0  0  0  0  0  0  0  0
   11.3150   -2.1570   23.9800 C   0  0  0  0  0  0  0  0  0  0  0  0
   11.0170   -0.8590   23.6140 C   0  0  0  0  0  0  0  0  0  0  0  0
  1  2  2  0
  2  3  1  0
  3  4  1  0
  4  5  2  0
  5  6  1  0
  6  7  2  0
  7  8  1  0
  4  9  1  0
  8  9  2  0
  2 10  1  0
 10 11  1  0
 11 12  2  0
 12 13  1  0
 13 14  1  0
 11 15  1  0
 14 15  2  0
 15 16  1  0
 16 17  2  0
 17 18  1  0
 18 19  2  0
 19 20  1  0
 16 21  1  0
 20 21  2  0
M  END
