pyridine_urea_11767
     RDKit          3D

 27 29  0  0  0  0  0  0  0  0999 V2000
    8.8060    1.0220   25.2060 C   0  0  0  0  0  0  0  0  0  0  0  0
    9.2650    0.7060   23.8970 O   0  0  0  0  0  0  0  0  0  0  0  0
   10.5130    1.2240   23.6510 C   0  0  0  0  0  0  0  0  0  0  0  0
   10.5930   -0.1620   23.3200 C   0  0  0  0  0  0  0  0  0  0  0  0
   11.4130   -1.2440   22.8460 C   0  0  0  0  0  0  0  0  0  0  0  0
   10.1210   -1.6710   23.0990 C   0  0  0  0  0  0  0  0  0  0  0  0
    9.2460   -1.5850   21.9200 N   0  0  0  0  0  0  0  0  0  0  0  0
    8.5910   -0.4240   21.5390 C   0  0  0  0  0  0  0  0  0  0  0  0
    9.0680    0.6980   21.5730 O   0  0  0  0  0  0  0  0  0  0  0  0
    7.2310   -0.6970   21.0640 N   0  0  0  0  0  0  0  0  0  0  0  0
    6.5700   -0.0600   20.0620 C   0  0  0  0  0  0  0  0  0  0  0  0
    5.2800    0.7290   20.3490 C   0  0  0  0  0  0  0  0  0  0  0  0
    4.6390    1.3760   19.3110 C   0  0  0  0  0  0  0  0  0  0  0  0
    5.1930    1.2860   18.0340 C   0  0  0  0  0  0  0  0  0  0  0  0
    6.3190    0.5950   17.7520 N   0  0  0  0  0  0  0  0  0  0  0  0
    6.9740   -0.0530   18.7420 C   0  0  0  0  0  0  0  0  0  0  0  0
   12.6320   -0.5680   22.6690 C   0  0  0  0  0  0  0  0  0  0  0  0
   12.9280    0.7260   22.8730 C   0  0  0  0  0  0  0  0  0  0  0  0
   11.8110    1.5300   23.3480 C   0  0  0  0  0  0  0  0  0  0  0  0
   12.1740    2.8830   23.5110 O   0  0  0  0  0  0  0  0  0  0  0  0
   11.7840    3.8570   22.5460 C   0  0  0  0  0  0  0  0  0  0  0  0
   11.3390    4.9280   23.3290 C   0  0  0  0  0  0  0  0  0  0  0  0
   10.0870    4.8720   23.9420 C   0  0  0  0  0  0  0  0  0  0  0  0
    9.6450    5.9400   24.7250 C   0  0  0  0  0  0  0  0  0  0  0  0
   10.4570    7.0580   24.8930 C   0  0  0  0  0  0  0  0  0  0  0  0
   11.6740    7.1900   24.3380 N   0  0  0  0  0  0  0  0  0  0  0  0
   12.1000    6.0720   23.5350 C   0  0  0  0  0  0  0  0  0  0  0  0
  1  2  1  0
  2  3  1  0
  3  4  2  0
  4  5  1  0
  5  6  1  0
  6  7  1  0
  7  8  1  0
  8  9  2  0
  8 10  1  0
 10 11  1  0
 11 12  2  0
 12 13  1  0
 13 14  2  0
 14 15  1  0
 11 16  1  0
 15 16  2  0
  5 17  2  0
 17 18  1  0
  3 19  1  0
 18 19  2  0
 19 20  1  0
 20 21  1  0
 21 22  1  0
 22 23  2  0
 23 24  1  0
 24 25  2  0
 25 26  1  0
 22 27  1  0
 26 27  2  0
M  END
