pyridine_urea_9038
     RDKit          3D

 19 20  0  0  0  0  0  0  0  0999 V2000
   11.5450    1.2520   24.0540 C   0  0  0  0  0  0  0  0  0  0  0  0
   10.2210    0.5060   24.2930 C   0  0  0  0  0  0  0  0  0  0  0  0
    9.8400    0.0830   22.8870 C   0  0  2  0  0  0  0  0  0  0  0  0
    8.5140   -0.3640   22.6940 N   0  0  0  0  0  0  0  0  0  0  0  0
    8.0490    0.1890   21.5460 C   0  0  0  0  0  0  0  0  0  0  0  0
    8.5750    1.2080   21.0640 O   0  0  0  0  0  0  0  0  0  0  0  0
    6.9830   -0.4740   21.0260 N   0  0  0  0  0  0  0  0  0  0  0  0
    6.3470    0.1230   19.9570 C   0  0  0  0  0  0  0  0  0  0  0  0
    5.1520    0.8040   20.1710 C   0  0  0  0  0  0  0  0  0  0  0  0
    4.5350    1.4260   19.0960 C   0  0  0  0  0  0  0  0  0  0  0  0
    5.1370    1.3410   17.8510 C   0  0  0  0  0  0  0  0  0  0  0  0
    6.2760    0.6790   17.6360 N   0  0  0  0  0  0  0  0  0  0  0  0
    6.8550    0.0850   18.6870 C   0  0  0  0  0  0  0  0  0  0  0  0
   10.7860   -0.9200   22.3940 C   0  0  0  0  0  0  0  0  0  0  0  0
   12.0460   -0.8760   22.4090 C   0  0  0  0  0  0  0  0  0  0  0  0
   12.9870   -0.0060   22.8300 C   0  0  0  0  0  0  0  0  0  0  0  0
   13.3610   -1.2250   22.2210 C   0  0  0  0  0  0  0  0  0  0  0  0
   12.2620   -2.1920   21.7510 C   0  0  0  0  0  0  0  0  0  0  0  0
   10.8560   -2.0450   21.8400 N   0  0  0  0  0  0  0  0  0  0  0  0
  1  2  1  0
  3  2  1  1
  3  4  1  0
  4  5  1  0
  5  6  2  0
  5  7  1  0
  7  8  1  0
  8  9  2  0
  9 10  1  0
 10 11  2  0
 11 12  1  0
  8 13  1  0
 12 13  2  0
  3 14  1  0
 14 15  2  0
 15 16  1  0
 16 17  2  0
 17 18  1  0
 14 19  1  0
 18 19  2  0
M  END
