pyridine_urea_8746
     RDKit          3D

 20 22  0  0  0  0  0  0  0  0999 V2000
   14.0750   -2.8560   25.7580 C   0  0  0  0  0  0  0  0  0  0  0  0
   13.3280   -2.1980   24.8800 N   0  0  0  0  0  0  0  0  0  0  0  0
   12.9390   -0.8700   24.9420 C   0  0  0  0  0  0  0  0  0  0  0  0
   12.1990   -0.4950   23.9070 C   0  0  0  0  0  0  0  0  0  0  0  0
   12.0430   -1.5870   23.1330 C   0  0  0  0  0  0  0  0  0  0  0  0
   12.7800   -2.7040   23.7400 N   0  0  0  0  0  0  0  0  0  0  0  0
   11.3070   -1.6010   22.0220 C   0  0  0  0  0  0  0  0  0  0  0  0
   10.2480   -0.5170   22.2260 C   0  0  1  0  0  0  0  0  0  0  0  0
    8.9180   -1.0470   22.2180 N   0  0  0  0  0  0  0  0  0  0  0  0
    8.0860   -0.1440   21.4980 C   0  0  0  0  0  0  0  0  0  0  0  0
    8.4290    1.0200   21.3260 O   0  0  0  0  0  0  0  0  0  0  0  0
    6.9360   -0.6920   21.0300 N   0  0  0  0  0  0  0  0  0  0  0  0
    6.3310   -0.0270   19.9740 C   0  0  0  0  0  0  0  0  0  0  0  0
    5.1460    0.6690   20.1630 C   0  0  0  0  0  0  0  0  0  0  0  0
    4.5430    1.3580   19.1390 C   0  0  0  0  0  0  0  0  0  0  0  0
    5.1490    1.3460   17.8950 C   0  0  0  0  0  0  0  0  0  0  0  0
    6.2950    0.6750   17.6690 N   0  0  0  0  0  0  0  0  0  0  0  0
    6.8580    0.0070   18.7010 C   0  0  0  0  0  0  0  0  0  0  0  0
   10.4040    0.3610   23.4520 C   0  0  0  0  0  0  0  0  0  0  0  0
   11.6830    0.7760   23.7060 C   0  0  0  0  0  0  0  0  0  0  0  0
  1  2  1  0
  2  3  1  0
  3  4  2  0
  4  5  1  0
  2  6  1  0
  5  6  2  0
  5  7  1  0
  7  8  1  0
  8  9  1  1
  9 10  1  0
 10 11  2  0
 10 12  1  0
 12 13  1  0
 13 14  2  0
 14 15  1  0
 15 16  2  0
 16 17  1  0
 13 18  1  0
 17 18  2  0
  8 19  1  0
  4 20  1  0
 19 20  1  0
M  END
