pyridine_urea_10244
     RDKit          3D

 23 25  0  0  0  0  0  0  0  0999 V2000
    8.5860   -1.0480   20.5170 O   0  0  0  0  0  0  0  0  0  0  0  0
    7.6710   -0.6750   21.1690 C   0  0  0  0  0  0  0  0  0  0  0  0
    6.3710   -0.7840   20.8440 N   0  0  0  0  0  0  0  0  0  0  0  0
    5.8730    0.0280   19.8590 C   0  0  0  0  0  0  0  0  0  0  0  0
    4.7360    0.8060   19.9530 C   0  0  0  0  0  0  0  0  0  0  0  0
    4.3680    1.5870   18.8690 C   0  0  0  0  0  0  0  0  0  0  0  0
    5.1550    1.5550   17.7380 C   0  0  0  0  0  0  0  0  0  0  0  0
    6.2640    0.8000   17.6240 N   0  0  0  0  0  0  0  0  0  0  0  0
    6.5930    0.0620   18.6840 C   0  0  0  0  0  0  0  0  0  0  0  0
    7.8340   -0.0540   22.3260 N   0  0  0  0  0  0  0  0  0  0  0  0
    9.0710   -0.1050   22.8450 C   0  0  0  0  0  0  0  0  0  0  0  0
   10.2180   -0.2160   22.1370 C   0  0  0  0  0  0  0  0  0  0  0  0
   11.4030   -0.2690   22.7780 C   0  0  0  0  0  0  0  0  0  0  0  0
   11.4510   -0.2290   24.1510 C   0  0  0  0  0  0  0  0  0  0  0  0
   12.7640   -0.3400   24.3510 N   0  0  0  0  0  0  0  0  0  0  0  0
   13.2450   -0.0500   23.0860 C   0  0  0  0  0  0  0  0  0  0  0  0
   13.3490   -1.3550   22.3700 C   0  0  0  0  0  0  0  0  0  0  0  0
   11.9320   -2.4250   22.7380 S   0  0  0  0  0  0  0  0  0  0  0  0
   12.0910   -2.4380   24.5610 C   0  0  0  0  0  0  0  0  0  0  0  0
   13.1490   -1.5890   24.8710 C   0  0  0  0  0  0  0  0  0  0  0  0
   10.2480   -0.1120   24.9370 C   0  0  0  0  0  0  0  0  0  0  0  0
    9.8150   -0.0460   26.5920 Cl  0  0  0  0  0  0  0  0  0  0  0  0
    9.0930   -0.0460   24.3030 C   0  0  0  0  0  0  0  0  0  0  0  0
  1  2  2  0
  2  3  1  0
  3  4  1  0
  4  5  2  0
  5  6  1  0
  6  7  2  0
  7  8  1  0
  4  9  1  0
  8  9  2  0
  2 10  1  0
 10 11  1  0
 11 12  2  0
 12 13  1  0
 13 14  2  0
 14 15  1  0
 15 16  1  0
 16 17  1  0
 17 18  1  0
 18 19  1  0
 15 20  1  0
 19 20  1  0
 14 21  1  0
 21 22  1  0
 11 23  1  0
 21 23  2  0
M  END
