pyridine_urea_14041
     RDKit          3D

 23 25  0  0  0  0  0  0  0  0999 V2000
    8.7440    1.4070   21.2340 O   0  0  0  0  0  0  0  0  0  0  0  0
    8.3320    0.2410   21.2530 C   0  0  0  0  0  0  0  0  0  0  0  0
    7.0180   -0.1290   21.2280 N   0  0  0  0  0  0  0  0  0  0  0  0
    6.3780    0.3540   20.0520 C   0  0  0  0  0  0  0  0  0  0  0  0
    5.1020    1.1380   20.2800 C   0  0  0  0  0  0  0  0  0  0  0  0
    4.4870    1.6500   19.0350 C   0  0  0  0  0  0  0  0  0  0  0  0
    5.1090    1.3790   17.8370 C   0  0  0  0  0  0  0  0  0  0  0  0
    6.2370    0.6670   17.6850 N   0  0  0  0  0  0  0  0  0  0  0  0
    6.8410    0.1720   18.7730 C   0  0  0  0  0  0  0  0  0  0  0  0
    9.1180   -0.8490   21.2460 N   0  0  0  0  0  0  0  0  0  0  0  0
   10.0660   -1.0760   22.3000 C   0  0  0  0  0  0  0  0  0  0  0  0
   10.5400   -2.1600   22.5910 C   0  0  0  0  0  0  0  0  0  0  0  0
   11.3640   -1.9910   23.6110 N   0  0  0  0  0  0  0  0  0  0  0  0
   11.5890   -0.7430   24.1860 N   0  0  0  0  0  0  0  0  0  0  0  0
   12.3670   -1.6980   24.8970 C   0  0  0  0  0  0  0  0  0  0  0  0
   12.9210   -2.7790   24.2590 C   0  0  0  0  0  0  0  0  0  0  0  0
   13.7180   -2.3180   23.3140 N   0  0  0  0  0  0  0  0  0  0  0  0
   13.1330   -2.4810   22.1760 C   0  0  0  0  0  0  0  0  0  0  0  0
   12.9850   -1.2250   21.7330 C   0  0  0  0  0  0  0  0  0  0  0  0
   13.3200    0.0490   22.5270 C   0  0  0  0  0  0  0  0  0  0  0  0
   13.4620   -0.9880   23.5720 C   0  0  0  0  0  0  0  0  0  0  0  0
   13.3200   -0.4800   24.6450 O   0  0  0  0  0  0  0  0  0  0  0  0
   10.7190   -0.1390   23.2890 C   0  0  0  0  0  0  0  0  0  0  0  0
  1  2  2  0
  2  3  1  0
  3  4  1  0
  4  5  2  0
  5  6  1  0
  6  7  2  0
  7  8  1  0
  4  9  1  0
  8  9  2  0
  2 10  1  0
 10 11  1  0
 11 12  1  0
 12 13  2  0
 13 14  1  0
 14 15  1  0
 15 16  1  0
 16 17  1  0
 17 18  1  0
 18 19  1  0
 19 20  1  0
 17 21  1  0
 20 21  1  0
 21 22  2  0
 11 23  2  0
 14 23  1  0
M  END
