pyridine_urea_4958
     RDKit          3D

 21 22  0  0  0  0  0  0  0  0999 V2000
    8.7250    1.1740   20.9650 O   0  0  0  0  0  0  0  0  0  0  0  0
    8.0630    0.2690   21.4850 C   0  0  0  0  0  0  0  0  0  0  0  0
    8.2570    0.0010   22.7790 N   0  0  0  0  0  0  0  0  0  0  0  0
    9.1320    0.9980   23.2980 C   0  0  0  0  0  0  0  0  0  0  0  0
   10.5240    0.6430   22.7800 C   0  0  0  0  0  0  0  0  0  0  0  0
   10.5790   -0.4810   21.9950 N   0  0  0  0  0  0  0  0  0  0  0  0
   11.4180   -1.2080   22.7640 C   0  0  0  0  0  0  0  0  0  0  0  0
   10.9100   -1.3090   24.0050 N   0  0  0  0  0  0  0  0  0  0  0  0
   11.6100   -1.9680   24.9550 C   0  0  0  0  0  0  0  0  0  0  0  0
   12.8300   -2.5280   24.6810 C   0  0  0  0  0  0  0  0  0  0  0  0
   13.7560   -3.3180   25.8410 Cl  0  0  0  0  0  0  0  0  0  0  0  0
   13.3210   -2.4420   23.4270 C   0  0  0  0  0  0  0  0  0  0  0  0
   12.6360   -1.7870   22.4270 C   0  0  0  0  0  0  0  0  0  0  0  0
   13.3480   -1.7460   20.9150 Cl  0  0  0  0  0  0  0  0  0  0  0  0
    7.0940   -0.4790   20.9040 N   0  0  0  0  0  0  0  0  0  0  0  0
    6.3520    0.1290   19.9490 C   0  0  0  0  0  0  0  0  0  0  0  0
    5.1430    0.7630   20.2300 C   0  0  0  0  0  0  0  0  0  0  0  0
    4.4690    1.3990   19.1830 C   0  0  0  0  0  0  0  0  0  0  0  0
    5.1110    1.3430   17.8380 C   0  0  0  0  0  0  0  0  0  0  0  0
    6.2630    0.7150   17.5970 N   0  0  0  0  0  0  0  0  0  0  0  0
    6.8530    0.1210   18.6700 C   0  0  0  0  0  0  0  0  0  0  0  0
  1  2  2  0
  2  3  1  0
  3  4  1  0
  4  5  1  0
  5  6  1  0
  6  7  1  0
  7  8  2  0
  8  9  1  0
  9 10  2  0
 10 11  1  0
 10 12  1  0
  7 13  1  0
 12 13  2  0
 13 14  1  0
  2 15  1  0
 15 16  1  0
 16 17  2  0
 17 18  1  0
 18 19  2  0
 19 20  1  0
 16 21  1  0
 20 21  2  0
M  END
