pyridine_urea_2730
     RDKit          3D

 23 25  0  0  0  0  0  0  0  0999 V2000
    8.7950    1.1850   21.1590 O   0  0  0  0  0  0  0  0  0  0  0  0
    8.0420    0.3220   21.6040 C   0  0  0  0  0  0  0  0  0  0  0  0
    7.9990   -0.0160   22.9250 N   0  0  0  0  0  0  0  0  0  0  0  0
    9.1540    0.2630   23.7120 C   0  0  0  0  0  0  0  0  0  0  0  0
   10.0780   -0.9360   23.6000 C   0  0  0  0  0  0  0  0  0  0  0  0
    9.8680   -2.2800   23.7330 C   0  0  0  0  0  0  0  0  0  0  0  0
   11.1070   -2.9620   23.5000 N   0  0  0  0  0  0  0  0  0  0  0  0
   11.9890   -1.9390   23.2300 N   0  0  0  0  0  0  0  0  0  0  0  0
   13.2730   -2.0990   22.9200 C   0  0  0  0  0  0  0  0  0  0  0  0
   13.7080   -1.1080   22.0470 C   0  0  0  0  0  0  0  0  0  0  0  0
   13.8080   -1.3880   20.6220 C   0  0  0  0  0  0  0  0  0  0  0  0
   14.3560   -0.3520   19.5850 C   0  0  0  0  0  0  0  0  0  0  0  0
   14.8500    1.0550   20.0370 C   0  0  0  0  0  0  0  0  0  0  0  0
   14.7410    1.3300   21.5460 C   0  0  0  0  0  0  0  0  0  0  0  0
   14.1050    0.2200   22.5670 C   0  0  0  0  0  0  0  0  0  0  0  0
   11.5190   -0.7230   23.2720 C   0  0  0  0  0  0  0  0  0  0  0  0
    7.1290   -0.4030   20.9070 N   0  0  0  0  0  0  0  0  0  0  0  0
    6.4150    0.1740   19.9650 C   0  0  0  0  0  0  0  0  0  0  0  0
    5.2050    0.8350   20.1780 C   0  0  0  0  0  0  0  0  0  0  0  0
    4.5650    1.4270   19.1020 C   0  0  0  0  0  0  0  0  0  0  0  0
    5.1600    1.3310   17.8670 C   0  0  0  0  0  0  0  0  0  0  0  0
    6.3150    0.6890   17.6460 N   0  0  0  0  0  0  0  0  0  0  0  0
    6.9190    0.1220   18.6930 C   0  0  0  0  0  0  0  0  0  0  0  0
  1  2  2  0
  2  3  1  0
  3  4  1  0
  4  5  1  0
  5  6  1  0
  6  7  2  0
  7  8  1  0
  8  9  1  0
  9 10  1  0
 10 11  2  0
 11 12  1  0
 12 13  2  0
 13 14  1  0
 10 15  1  0
 14 15  2  0
  5 16  2  0
  8 16  1  0
  2 17  1  0
 17 18  1  0
 18 19  2  0
 19 20  1  0
 20 21  2  0
 21 22  1  0
 18 23  1  0
 22 23  2  0
M  END
