pyridine_urea_13711
     RDKit          3D

 25 27  0  0  0  0  0  0  0  0999 V2000
   19.4860    5.8490   24.2700 N   0  0  0  0  0  0  0  0  0  0  0  0
   19.0810    4.5690   24.5450 C   0  0  0  0  0  0  0  0  0  0  0  0
   17.5730    4.0400   24.2270 C   0  0  0  0  0  0  0  0  0  0  0  0
   16.2370    4.8430   24.4000 C   0  0  0  0  0  0  0  0  0  0  0  0
   14.3820    4.6710   23.6930 C   0  0  0  0  0  0  0  0  0  0  0  0
   14.1020    3.4620   22.6180 C   0  0  0  0  0  0  0  0  0  0  0  0
   12.9430    3.2450   22.1450 O   0  0  0  0  0  0  0  0  0  0  0  0
   12.3900    1.9560   22.8270 C   0  0  1  0  0  0  0  0  0  0  0  0
   11.0160    2.0530   22.9640 C   0  0  0  0  0  0  0  0  0  0  0  0
   10.3620    0.8360   23.2540 C   0  0  0  0  0  0  0  0  0  0  0  0
   10.3160   -0.0110   22.2380 C   0  0  2  0  0  0  0  0  0  0  0  0
    9.1880   -0.7610   22.1880 N   0  0  0  0  0  0  0  0  0  0  0  0
    8.2200   -0.1200   21.3900 C   0  0  0  0  0  0  0  0  0  0  0  0
    8.4480    1.2190   20.9710 O   0  0  0  0  0  0  0  0  0  0  0  0
    7.1350   -0.8350   21.0560 N   0  0  0  0  0  0  0  0  0  0  0  0
    6.4000   -0.1370   20.1420 C   0  0  0  0  0  0  0  0  0  0  0  0
    5.1690    0.5350   20.4410 C   0  0  0  0  0  0  0  0  0  0  0  0
    4.5790    1.2620   19.2080 C   0  0  0  0  0  0  0  0  0  0  0  0
    5.2070    1.2370   17.9790 C   0  0  0  0  0  0  0  0  0  0  0  0
    6.3480    0.5960   17.7450 N   0  0  0  0  0  0  0  0  0  0  0  0
    6.9130   -0.0860   18.8610 C   0  0  0  0  0  0  0  0  0  0  0  0
   11.7810   -0.5290   22.5350 C   0  0  0  0  0  0  0  0  0  0  0  0
   12.7480    0.5350   22.6990 C   0  0  0  0  0  0  0  0  0  0  0  0
   15.3980    2.5620   22.3600 N   0  0  0  0  0  0  0  0  0  0  0  0
   17.1800    2.8090   23.4390 C   0  0  0  0  0  0  0  0  0  0  0  0
  1  2  3  0
  2  3  1  0
  3  4  2  0
  4  5  1  0
  5  6  2  0
  6  7  1  0
  8  7  1  6
  8  9  1  0
  9 10  1  0
 10 11  1  0
 11 12  1  1
 12 13  1  0
 13 14  2  0
 13 15  1  0
 15 16  1  0
 16 17  2  0
 17 18  1  0
 18 19  2  0
 19 20  1  0
 16 21  1  0
 20 21  2  0
 11 22  1  0
  8 23  1  0
 22 23  1  0
  6 24  1  0
  3 25  1  0
 24 25  2  0
M  END
