pyridine_urea_441
     RDKit          3D

 25 26  0  0  0  0  0  0  0  0999 V2000
   13.3430   -2.3370   22.9460 C   0  0  0  0  0  0  0  0  0  0  0  0
   12.6720   -2.2270   24.2890 C   0  0  0  0  0  0  0  0  0  0  0  0
   13.5270   -2.3690   25.3550 C   0  0  0  0  0  0  0  0  0  0  0  0
   11.5170   -3.1840   24.3710 C   0  0  0  0  0  0  0  0  0  0  0  0
   11.9250   -1.0600   24.4910 O   0  0  0  0  0  0  0  0  0  0  0  0
   10.6320   -1.1270   23.9970 C   0  0  0  0  0  0  0  0  0  0  0  0
    9.4410   -1.5890   24.6240 O   0  0  0  0  0  0  0  0  0  0  0  0
   10.6580   -0.7010   22.7080 C   0  0  1  0  0  0  0  0  0  0  0  0
   11.5830   -1.6020   21.8590 C   0  0  0  0  0  0  0  0  0  0  0  0
    9.2560   -0.8220   22.2750 N   0  0  0  0  0  0  0  0  0  0  0  0
    8.5170    0.0420   21.4720 C   0  0  0  0  0  0  0  0  0  0  0  0
    8.8580    1.1710   21.0970 O   0  0  0  0  0  0  0  0  0  0  0  0
    7.2440   -0.6180   21.1480 N   0  0  0  0  0  0  0  0  0  0  0  0
    6.5110    0.0660   20.0640 C   0  0  0  0  0  0  0  0  0  0  0  0
    5.3650    0.7860   20.3990 C   0  0  0  0  0  0  0  0  0  0  0  0
    4.6670    1.4390   19.3850 C   0  0  0  0  0  0  0  0  0  0  0  0
    5.2050    1.3150   18.0160 C   0  0  0  0  0  0  0  0  0  0  0  0
    6.3090    0.6130   17.7140 N   0  0  0  0  0  0  0  0  0  0  0  0
    6.9340    0.0030   18.7440 C   0  0  0  0  0  0  0  0  0  0  0  0
   11.0610    0.7780   22.8280 C   0  0  0  0  0  0  0  0  0  0  0  0
   10.2870    1.7540   22.8430 C   0  0  0  0  0  0  0  0  0  0  0  0
   11.7220    1.8700   22.9320 C   0  0  0  0  0  0  0  0  0  0  0  0
   11.7750    0.3340   22.8340 C   0  0  0  0  0  0  0  0  0  0  0  0
   13.1620    0.4700   22.9280 C   0  0  0  0  0  0  0  0  0  0  0  0
   12.3380    1.4070   22.9470 C   0  0  0  0  0  0  0  0  0  0  0  0
  1  2  1  0
  2  3  1  0
  2  4  1  0
  2  5  1  0
  5  6  1  0
  6  7  2  0
  8  6  1  0
  8  9  1  6
  8 10  1  0
 10 11  1  0
 11 12  2  0
 11 13  1  0
 13 14  1  0
 14 15  2  0
 15 16  1  0
 16 17  2  0
 17 18  1  0
 14 19  1  0
 18 19  2  0
  8 20  1  0
 20 21  2  0
 21 22  1  0
 22 23  2  0
 23 24  1  0
 20 25  1  0
 24 25  2  0
M  END
