pyridine_urea_8648
     RDKit          3D

 21 23  0  0  0  0  0  0  0  0999 V2000
    8.7720    1.1570   21.1160 O   0  0  0  0  0  0  0  0  0  0  0  0
    8.1540    0.1530   21.5030 C   0  0  0  0  0  0  0  0  0  0  0  0
    8.3820   -0.5330   22.6430 N   0  0  0  0  0  0  0  0  0  0  0  0
    9.6260   -0.6910   23.1990 C   0  0  0  0  0  0  0  0  0  0  0  0
   10.0280    0.2790   24.0970 C   0  0  1  0  0  0  0  0  0  0  0  0
   10.8440   -0.3080   24.9680 C   0  0  0  0  0  0  0  0  0  0  0  0
   11.8450    0.2130   24.2260 C   0  0  1  0  0  0  0  0  0  0  0  0
   12.2740   -0.8990   23.3580 C   0  0  0  0  0  0  0  0  0  0  0  0
   13.2600   -1.6560   23.9020 C   0  0  0  0  0  0  0  0  0  0  0  0
   13.7730   -2.7740   23.1840 C   0  0  0  0  0  0  0  0  0  0  0  0
   13.2090   -2.9460   22.0110 C   0  0  0  0  0  0  0  0  0  0  0  0
   12.2190   -2.1420   21.5550 C   0  0  0  0  0  0  0  0  0  0  0  0
   11.5600   -0.9970   22.1090 C   0  0  0  0  0  0  0  0  0  0  0  0
   11.1150    1.2100   23.5310 C   0  0  0  0  0  0  0  0  0  0  0  0
    7.1080   -0.4550   20.8820 N   0  0  0  0  0  0  0  0  0  0  0  0
    6.3580    0.1950   19.9310 C   0  0  0  0  0  0  0  0  0  0  0  0
    5.1860    0.8940   20.1640 C   0  0  0  0  0  0  0  0  0  0  0  0
    4.5580    1.5230   19.1010 C   0  0  0  0  0  0  0  0  0  0  0  0
    5.1550    1.4040   17.8600 C   0  0  0  0  0  0  0  0  0  0  0  0
    6.2770    0.7290   17.5970 N   0  0  0  0  0  0  0  0  0  0  0  0
    6.8470    0.1410   18.6490 C   0  0  0  0  0  0  0  0  0  0  0  0
  1  2  2  0
  2  3  1  0
  3  4  1  0
  5  4  1  6
  5  6  1  0
  6  7  1  0
  7  8  1  6
  8  9  2  0
  9 10  1  0
 10 11  2  0
 11 12  1  0
  8 13  1  0
 12 13  2  0
  5 14  1  0
  7 14  1  0
  2 15  1  0
 15 16  1  0
 16 17  2  0
 17 18  1  0
 18 19  2  0
 19 20  1  0
 16 21  1  0
 20 21  2  0
M  END
