pyridine_urea_2493
     RDKit          3D

 24 25  0  0  0  0  0  0  0  0999 V2000
    7.1740    5.0940   26.1570 C   0  0  0  0  0  0  0  0  0  0  0  0
    8.1520    4.3830   25.2300 C   0  0  0  0  0  0  0  0  0  0  0  0
    7.9500    3.0780   24.7860 C   0  0  0  0  0  0  0  0  0  0  0  0
    8.7900    2.3450   23.9430 C   0  0  0  0  0  0  0  0  0  0  0  0
    9.9590    2.9790   23.4950 C   0  0  0  0  0  0  0  0  0  0  0  0
   10.7990    2.1310   22.6270 N   0  0  0  0  0  0  0  0  0  0  0  0
   11.5740    1.0280   22.9580 C   0  0  0  0  0  0  0  0  0  0  0  0
   10.7260    0.0200   23.4420 C   0  0  0  0  0  0  0  0  0  0  0  0
   10.4020   -1.0490   22.4100 C   0  0  0  0  0  0  0  0  0  0  0  0
    9.0590   -1.1990   22.1860 N   0  0  0  0  0  0  0  0  0  0  0  0
    8.2530   -0.3270   21.4320 C   0  0  0  0  0  0  0  0  0  0  0  0
    8.6450    0.8030   21.1820 O   0  0  0  0  0  0  0  0  0  0  0  0
    7.0630   -0.8130   21.0210 N   0  0  0  0  0  0  0  0  0  0  0  0
    6.4170   -0.0920   20.0740 C   0  0  0  0  0  0  0  0  0  0  0  0
    5.2430    0.6680   20.2770 C   0  0  0  0  0  0  0  0  0  0  0  0
    4.6490    1.3870   19.2210 C   0  0  0  0  0  0  0  0  0  0  0  0
    5.2490    1.3370   17.9650 C   0  0  0  0  0  0  0  0  0  0  0  0
    6.3680    0.6050   17.7960 N   0  0  0  0  0  0  0  0  0  0  0  0
    6.9510   -0.0960   18.7930 C   0  0  0  0  0  0  0  0  0  0  0  0
   10.2530    4.3170   23.8870 C   0  0  0  0  0  0  0  0  0  0  0  0
   11.3570    4.9810   23.4840 N   0  0  0  0  0  0  0  0  0  0  0  0
   11.3600    6.2130   23.6320 O   0  0  0  0  0  0  0  0  0  0  0  0
   12.2020    4.2990   22.6120 O   0  0  0  0  0  0  0  0  0  0  0  0
    9.4340    5.0590   24.7210 C   0  0  0  0  0  0  0  0  0  0  0  0
  1  2  1  0
  2  3  2  0
  3  4  1  0
  4  5  2  0
  5  6  1  0
  6  7  1  0
  7  8  1  0
  8  9  1  0
  9 10  1  0
 10 11  1  0
 11 12  2  0
 11 13  1  0
 13 14  1  0
 14 15  2  0
 15 16  1  0
 16 17  2  0
 17 18  1  0
 14 19  1  0
 18 19  2  0
  5 20  1  0
 20 21  1  0
 21 22  2  0
 21 23  1  0
  2 24  1  0
 20 24  2  0
M  CHG  2  21   1  23  -1
M  END
