pyridine_urea_4979
     RDKit          3D

 21 22  0  0  0  0  0  0  0  0999 V2000
   10.6930   -1.2040   21.8070 C   0  0  0  0  0  0  0  0  0  0  0  0
   10.4020   -0.0750   22.7410 C   0  0  1  0  0  0  0  0  0  0  0  0
    8.9520   -0.0970   22.7910 N   0  0  0  0  0  0  0  0  0  0  0  0
    8.4030    0.4420   21.5450 C   0  0  0  0  0  0  0  0  0  0  0  0
    8.9100    1.4830   21.0780 O   0  0  0  0  0  0  0  0  0  0  0  0
    7.3560   -0.2900   21.0510 N   0  0  0  0  0  0  0  0  0  0  0  0
    6.5920    0.2250   20.0190 C   0  0  0  0  0  0  0  0  0  0  0  0
    5.4380    0.9170   20.3160 C   0  0  0  0  0  0  0  0  0  0  0  0
    4.6300    1.5050   19.1880 C   0  0  0  0  0  0  0  0  0  0  0  0
    5.1080    1.3110   17.9070 C   0  0  0  0  0  0  0  0  0  0  0  0
    6.2290    0.6180   17.6590 N   0  0  0  0  0  0  0  0  0  0  0  0
    6.9330    0.0990   18.6910 C   0  0  0  0  0  0  0  0  0  0  0  0
   10.9760   -0.4650   24.1160 C   0  0  0  0  0  0  0  0  0  0  0  0
   10.2080   -0.1800   25.1460 C   0  0  0  0  0  0  0  0  0  0  0  0
    8.8950    0.6130   24.3860 Cl  0  0  0  0  0  0  0  0  0  0  0  0
   11.3700   -0.7720   25.0280 C   0  0  0  0  0  0  0  0  0  0  0  0
   11.2730   -0.4780   23.4870 C   0  0  0  0  0  0  0  0  0  0  0  0
   12.4090   -1.0110   22.9760 C   0  0  0  0  0  0  0  0  0  0  0  0
   13.1690   -1.2370   21.8930 F   0  0  0  0  0  0  0  0  0  0  0  0
   12.3020   -1.1610   24.1800 C   0  0  0  0  0  0  0  0  0  0  0  0
   13.3750   -1.9200   25.3130 Cl  0  0  0  0  0  0  0  0  0  0  0  0
  2  1  1  6
  2  3  1  0
  3  4  1  0
  4  5  2  0
  4  6  1  0
  6  7  1  0
  7  8  2  0
  8  9  1  0
  9 10  2  0
 10 11  1  0
  7 12  1  0
 11 12  2  0
  2 13  1  0
 13 14  2  0
 14 15  1  0
 14 16  1  0
 16 17  2  0
 17 18  1  0
 18 19  1  0
 13 20  1  0
 18 20  2  0
 20 21  1  0
M  END
