pyridine_urea_4718
     RDKit          3D

 22 24  0  0  0  0  0  0  0  0999 V2000
   13.4390    1.3500   22.8310 C   0  0  0  0  0  0  0  0  0  0  0  0
   12.9110    2.6200   22.9410 N   0  0  0  0  0  0  0  0  0  0  0  0
   13.2870    3.9700   22.9970 C   0  0  0  0  0  0  0  0  0  0  0  0
   12.2450    4.7990   23.1300 N   0  0  0  0  0  0  0  0  0  0  0  0
   11.1720    3.9110   23.1490 N   0  0  0  0  0  0  0  0  0  0  0  0
   11.6830    2.6150   23.0210 C   0  0  0  0  0  0  0  0  0  0  0  0
   11.1680    1.3960   22.9320 C   0  0  0  0  0  0  0  0  0  0  0  0
    9.8550    1.4570   23.0290 C   0  0  0  0  0  0  0  0  0  0  0  0
    9.1720    0.3350   22.8660 C   0  0  0  0  0  0  0  0  0  0  0  0
    9.8110   -0.8460   22.6050 C   0  0  0  0  0  0  0  0  0  0  0  0
    8.8150   -1.6050   22.4230 N   0  0  0  0  0  0  0  0  0  0  0  0
    8.0580   -0.8750   21.4570 C   0  0  0  0  0  0  0  0  0  0  0  0
    8.5560    0.1660   21.0340 O   0  0  0  0  0  0  0  0  0  0  0  0
    6.8320   -1.2610   21.0310 N   0  0  0  0  0  0  0  0  0  0  0  0
    6.2310   -0.4110   20.0510 C   0  0  0  0  0  0  0  0  0  0  0  0
    5.0420    0.2860   20.3090 C   0  0  0  0  0  0  0  0  0  0  0  0
    4.4930    1.1260   19.3180 C   0  0  0  0  0  0  0  0  0  0  0  0
    5.2180    1.2370   18.0160 C   0  0  0  0  0  0  0  0  0  0  0  0
    6.3510    0.5620   17.7870 N   0  0  0  0  0  0  0  0  0  0  0  0
    6.8380   -0.2490   18.8060 C   0  0  0  0  0  0  0  0  0  0  0  0
   11.1980   -0.9760   22.5470 C   0  0  0  0  0  0  0  0  0  0  0  0
   11.8910    0.1860   22.7180 C   0  0  0  0  0  0  0  0  0  0  0  0
  1  2  1  0
  2  3  1  0
  3  4  2  0
  4  5  1  0
  2  6  1  0
  5  6  2  0
  6  7  1  0
  7  8  2  0
  8  9  1  0
  9 10  2  0
 10 11  1  0
 11 12  1  0
 12 13  2  0
 12 14  1  0
 14 15  1  0
 15 16  2  0
 16 17  1  0
 17 18  2  0
 18 19  1  0
 15 20  1  0
 19 20  2  0
 10 21  1  0
  7 22  1  0
 21 22  2  0
M  END
