pyridine_urea_13264
     RDKit          3D

 15 16  0  0  0  0  0  0  0  0999 V2000
    9.0560    1.1450   21.2450 O   0  0  0  0  0  0  0  0  0  0  0  0
    8.5800    0.0340   21.5160 C   0  0  0  0  0  0  0  0  0  0  0  0
    7.3600   -0.4480   21.0920 N   0  0  0  0  0  0  0  0  0  0  0  0
    6.6100    0.1170   20.0510 C   0  0  0  0  0  0  0  0  0  0  0  0
    5.4560    0.8470   20.3570 C   0  0  0  0  0  0  0  0  0  0  0  0
    4.7120    1.4310   19.3320 C   0  0  0  0  0  0  0  0  0  0  0  0
    5.1520    1.2610   18.0380 C   0  0  0  0  0  0  0  0  0  0  0  0
    6.2460    0.5590   17.7180 N   0  0  0  0  0  0  0  0  0  0  0  0
    6.9470    0.0050   18.7240 C   0  0  0  0  0  0  0  0  0  0  0  0
    9.2520   -0.8970   22.2920 N   0  0  0  0  0  0  0  0  0  0  0  0
   10.4020   -0.4990   23.0910 C   0  0  2  0  0  0  0  0  0  0  0  0
   11.7630   -0.5950   22.3980 C   0  0  0  0  0  0  0  0  0  0  0  0
   12.6750   -1.0430   23.2830 C   0  0  0  0  0  0  0  0  0  0  0  0
   12.0570   -1.5710   24.3250 N   0  0  0  0  0  0  0  0  0  0  0  0
   10.6850   -1.5110   24.1770 C   0  0  0  0  0  0  0  0  0  0  0  0
  1  2  2  0
  2  3  1  0
  3  4  1  0
  4  5  2  0
  5  6  1  0
  6  7  2  0
  7  8  1  0
  4  9  1  0
  8  9  2  0
  2 10  1  0
 11 10  1  6
 11 12  1  0
 12 13  1  0
 13 14  1  0
 11 15  1  0
 14 15  1  0
M  END
