pyridine_urea_12958
     RDKit          3D

 19 20  0  0  0  0  0  0  0  0999 V2000
   12.5570    2.0340   22.8770 C   0  0  0  0  0  0  0  0  0  0  0  0
   12.1750    0.5460   23.0530 C   0  0  0  0  0  0  0  0  0  0  0  0
   13.0790   -0.4610   22.3650 C   0  0  0  0  0  0  0  0  0  0  0  0
   13.1550   -1.8710   22.2670 C   0  0  0  0  0  0  0  0  0  0  0  0
   12.1640   -2.1720   23.2480 C   0  0  0  0  0  0  0  0  0  0  0  0
   11.3850   -1.2030   23.9970 N   0  0  0  0  0  0  0  0  0  0  0  0
   11.1340    0.0850   23.6450 C   0  0  0  0  0  0  0  0  0  0  0  0
   10.7590   -1.2040   23.4100 C   0  0  0  0  0  0  0  0  0  0  0  0
   10.0870   -1.3560   22.2160 C   0  0  0  0  0  0  0  0  0  0  0  0
    8.8690   -0.7450   22.4000 N   0  0  0  0  0  0  0  0  0  0  0  0
    8.2620    0.1040   21.4940 C   0  0  0  0  0  0  0  0  0  0  0  0
    8.7850    1.1580   21.1030 O   0  0  0  0  0  0  0  0  0  0  0  0
    7.0580   -0.3920   21.1460 N   0  0  0  0  0  0  0  0  0  0  0  0
    6.4510    0.1660   20.0910 C   0  0  0  0  0  0  0  0  0  0  0  0
    5.2650    0.8880   20.3190 C   0  0  0  0  0  0  0  0  0  0  0  0
    4.6430    1.5000   19.1150 C   0  0  0  0  0  0  0  0  0  0  0  0
    5.1810    1.3740   17.8770 C   0  0  0  0  0  0  0  0  0  0  0  0
    6.3250    0.6620   17.6900 N   0  0  0  0  0  0  0  0  0  0  0  0
    6.9060    0.0920   18.7800 C   0  0  0  0  0  0  0  0  0  0  0  0
  1  2  1  0
  2  3  2  0
  3  4  1  0
  4  5  2  0
  5  6  1  0
  2  7  1  0
  6  7  2  0
  7  8  1  0
  8  9  1  0
  9 10  1  0
 10 11  1  0
 11 12  2  0
 11 13  1  0
 13 14  1  0
 14 15  2  0
 15 16  1  0
 16 17  2  0
 17 18  1  0
 14 19  1  0
 18 19  2  0
M  END
