pyridine_urea_2877
     RDKit          3D

 22 23  0  0  0  0  0  0  0  0999 V2000
    9.3370    1.4110   23.4730 C   0  0  0  0  0  0  0  0  0  0  0  0
   10.5800    0.5530   23.0740 C   0  0  0  0  0  0  0  0  0  0  0  0
   11.2040    1.7390   23.0930 C   0  0  0  0  0  0  0  0  0  0  0  0
   12.3860    1.2330   22.7480 C   0  0  0  0  0  0  0  0  0  0  0  0
   12.5530    2.7610   22.9240 C   0  0  0  0  0  0  0  0  0  0  0  0
   11.7620   -0.3000   22.6450 C   0  0  0  0  0  0  0  0  0  0  0  0
   10.2690   -0.0180   22.9360 C   0  0  2  0  0  0  0  0  0  0  0  0
   10.0960   -0.2180   24.4400 C   0  0  0  0  0  0  0  0  0  0  0  0
   11.1380   -0.0220   25.0120 O   0  0  0  0  0  0  0  0  0  0  0  0
    9.1310   -0.2830   22.7290 N   0  0  0  0  0  0  0  0  0  0  0  0
    8.5280    0.2730   21.6030 C   0  0  0  0  0  0  0  0  0  0  0  0
    8.9150    1.3400   21.1230 O   0  0  0  0  0  0  0  0  0  0  0  0
    7.4390   -0.4680   21.0990 N   0  0  0  0  0  0  0  0  0  0  0  0
    6.6820    0.0620   20.0820 C   0  0  0  0  0  0  0  0  0  0  0  0
    5.4210    0.8650   20.4200 C   0  0  0  0  0  0  0  0  0  0  0  0
    4.6360    1.4600   19.2530 C   0  0  0  0  0  0  0  0  0  0  0  0
    5.1080    1.2430   17.9730 C   0  0  0  0  0  0  0  0  0  0  0  0
    6.2300    0.5110   17.7460 N   0  0  0  0  0  0  0  0  0  0  0  0
    6.9980   -0.0660   18.7480 C   0  0  0  0  0  0  0  0  0  0  0  0
   13.0230   -0.2090   22.4470 C   0  0  0  0  0  0  0  0  0  0  0  0
   13.1700   -1.5540   22.1740 C   0  0  0  0  0  0  0  0  0  0  0  0
   12.0880    0.7610   22.7930 C   0  0  0  0  0  0  0  0  0  0  0  0
  1  2  1  0
  2  3  2  0
  3  4  1  0
  4  5  1  0
  4  6  2  0
  6  7  1  0
  7  8  1  1
  8  9  1  0
  7 10  1  0
 10 11  1  0
 11 12  2  0
 11 13  1  0
 13 14  1  0
 14 15  2  0
 15 16  1  0
 16 17  2  0
 17 18  1  0
 14 19  1  0
 18 19  2  0
  6 20  1  0
 20 21  1  0
  2 22  1  0
 20 22  2  0
M  END
