pyridine_urea_8742
     RDKit          3D

 21 22  0  0  0  0  0  0  0  0999 V2000
    8.7340    1.6930   24.9080 C   0  0  0  0  0  0  0  0  0  0  0  0
    9.3770    2.8470   24.3680 O   0  0  0  0  0  0  0  0  0  0  0  0
   10.5270    2.6380   23.6530 C   0  0  0  0  0  0  0  0  0  0  0  0
   10.8770    1.3740   23.2080 C   0  0  0  0  0  0  0  0  0  0  0  0
    9.9070    0.5020   22.9150 C   0  0  0  0  0  0  0  0  0  0  0  0
   10.2000   -0.7230   22.4520 C   0  0  0  0  0  0  0  0  0  0  0  0
    9.0990   -1.4900   22.1210 N   0  0  0  0  0  0  0  0  0  0  0  0
    8.2450   -0.6600   21.3940 C   0  0  0  0  0  0  0  0  0  0  0  0
    8.5490    0.5010   21.1440 O   0  0  0  0  0  0  0  0  0  0  0  0
    7.0440   -1.1480   20.9510 N   0  0  0  0  0  0  0  0  0  0  0  0
    6.3380   -0.3350   20.0380 C   0  0  0  0  0  0  0  0  0  0  0  0
    5.0220    0.4160   20.2380 C   0  0  0  0  0  0  0  0  0  0  0  0
    4.5110    1.1790   19.2040 C   0  0  0  0  0  0  0  0  0  0  0  0
    5.1880    1.2590   18.0070 C   0  0  0  0  0  0  0  0  0  0  0  0
    6.3550    0.6190   17.7600 N   0  0  0  0  0  0  0  0  0  0  0  0
    6.8680   -0.1380   18.7680 C   0  0  0  0  0  0  0  0  0  0  0  0
   11.5340   -1.0920   22.3120 C   0  0  0  0  0  0  0  0  0  0  0  0
   12.5680   -0.1960   22.6210 C   0  0  0  0  0  0  0  0  0  0  0  0
   12.2180    1.0880   23.0680 C   0  0  0  0  0  0  0  0  0  0  0  0
   13.1310    2.0720   23.3500 O   0  0  0  0  0  0  0  0  0  0  0  0
   12.8980    3.3510   22.7410 C   0  0  0  0  0  0  0  0  0  0  0  0
  1  2  1  0
  2  3  1  0
  3  4  1  0
  4  5  2  0
  5  6  1  0
  6  7  1  0
  7  8  1  0
  8  9  2  0
  8 10  1  0
 10 11  1  0
 11 12  2  0
 12 13  1  0
 13 14  2  0
 14 15  1  0
 11 16  1  0
 15 16  2  0
  6 17  2  0
 17 18  1  0
  4 19  1  0
 18 19  2  0
 19 20  1  0
 20 21  1  0
M  END
