pyridine_urea_12460
     RDKit          3D

 22 24  0  0  0  0  0  0  0  0999 V2000
    8.5840    1.0810   21.3200 O   0  0  0  0  0  0  0  0  0  0  0  0
    8.3750   -0.1180   21.1990 C   0  0  0  0  0  0  0  0  0  0  0  0
    7.1160   -0.6420   21.0450 N   0  0  0  0  0  0  0  0  0  0  0  0
    6.3980    0.0370   20.0080 C   0  0  0  0  0  0  0  0  0  0  0  0
    5.0670    0.7860   20.3200 C   0  0  0  0  0  0  0  0  0  0  0  0
    4.4550    1.4320   19.2560 C   0  0  0  0  0  0  0  0  0  0  0  0
    5.1570    1.3400   17.8920 C   0  0  0  0  0  0  0  0  0  0  0  0
    6.3080    0.6680   17.6880 N   0  0  0  0  0  0  0  0  0  0  0  0
    6.8870    0.0460   18.7230 C   0  0  0  0  0  0  0  0  0  0  0  0
    9.3300   -1.0740   21.1530 N   0  0  0  0  0  0  0  0  0  0  0  0
   10.3950   -0.9270   22.0930 C   0  0  0  0  0  0  0  0  0  0  0  0
   10.0930   -0.2950   23.2890 C   0  0  0  0  0  0  0  0  0  0  0  0
   11.1340   -0.2540   24.0500 N   0  0  0  0  0  0  0  0  0  0  0  0
   12.2990   -0.8750   23.4270 N   0  0  0  0  0  0  0  0  0  0  0  0
   12.3470   -0.3600   24.7240 C   0  0  0  0  0  0  0  0  0  0  0  0
   10.8390   -0.7250   24.9640 C   0  0  0  0  0  0  0  0  0  0  0  0
   10.2450   -1.9290   24.2080 C   0  0  0  0  0  0  0  0  0  0  0  0
    8.7670   -2.2170   24.4080 C   0  0  0  0  0  0  0  0  0  0  0  0
    7.9880   -1.4270   25.2490 C   0  0  0  0  0  0  0  0  0  0  0  0
    8.5150   -0.3320   25.9650 C   0  0  0  0  0  0  0  0  0  0  0  0
    9.9400    0.0540   25.8560 N   0  0  0  0  0  0  0  0  0  0  0  0
   11.7220   -1.2430   22.1740 C   0  0  0  0  0  0  0  0  0  0  0  0
  1  2  2  0
  2  3  1  0
  3  4  1  0
  4  5  2  0
  5  6  1  0
  6  7  2  0
  7  8  1  0
  4  9  1  0
  8  9  2  0
  2 10  1  0
 10 11  1  0
 11 12  1  0
 12 13  2  0
 13 14  1  0
 14 15  1  0
 15 16  1  0
 16 17  2  0
 17 18  1  0
 18 19  2  0
 19 20  1  0
 16 21  1  0
 20 21  2  0
 11 22  2  0
 14 22  1  0
M  END
