pyridine_urea_11956
     RDKit          3D

 24 26  0  0  0  0  0  0  0  0999 V2000
   14.7870   -2.9460   26.2200 N   0  0  0  0  0  0  0  0  0  0  0  0
   13.8520   -3.8790   26.0030 C   0  0  0  0  0  0  0  0  0  0  0  0
   13.1270   -3.1100   25.0370 C   0  0  0  0  0  0  0  0  0  0  0  0
   11.8810   -3.3280   24.5710 C   0  0  0  0  0  0  0  0  0  0  0  0
   11.4610   -2.4520   23.6320 C   0  0  0  0  0  0  0  0  0  0  0  0
   12.3140   -1.4240   23.2290 C   0  0  0  0  0  0  0  0  0  0  0  0
   12.0180   -0.6200   22.3550 N   0  0  0  0  0  0  0  0  0  0  0  0
   11.2700   -1.4520   21.6750 C   0  0  0  0  0  0  0  0  0  0  0  0
    9.9550   -1.2080   21.6860 C   0  0  0  0  0  0  0  0  0  0  0  0
    9.4580   -0.5390   22.9260 C   0  0  0  0  0  0  0  0  0  0  0  0
    8.1460   -0.4770   22.8780 N   0  0  0  0  0  0  0  0  0  0  0  0
    7.8040    0.0080   21.6590 C   0  0  0  0  0  0  0  0  0  0  0  0
    8.3730    0.9690   21.1540 O   0  0  0  0  0  0  0  0  0  0  0  0
    6.8030   -0.6810   21.0920 N   0  0  0  0  0  0  0  0  0  0  0  0
    6.2390   -0.0130   20.0640 C   0  0  0  0  0  0  0  0  0  0  0  0
    5.0550    0.7100   20.2120 C   0  0  0  0  0  0  0  0  0  0  0  0
    4.5380    1.3860   19.1120 C   0  0  0  0  0  0  0  0  0  0  0  0
    5.2370    1.3050   17.9160 C   0  0  0  0  0  0  0  0  0  0  0  0
    6.3710    0.6170   17.7390 N   0  0  0  0  0  0  0  0  0  0  0  0
    6.8480   -0.0300   18.8170 C   0  0  0  0  0  0  0  0  0  0  0  0
   10.2420    0.7420   22.9050 C   0  0  0  0  0  0  0  0  0  0  0  0
   11.6240    0.5980   22.9340 C   0  0  0  0  0  0  0  0  0  0  0  0
   13.5510   -1.2750   23.7870 N   0  0  0  0  0  0  0  0  0  0  0  0
   13.8290   -2.1600   24.6520 C   0  0  0  0  0  0  0  0  0  0  0  0
  1  2  3  0
  2  3  1  0
  3  4  2  0
  4  5  1  0
  5  6  2  0
  6  7  1  0
  7  8  1  0
  8  9  1  0
  9 10  1  0
 10 11  1  0
 11 12  1  0
 12 13  2  0
 12 14  1  0
 14 15  1  0
 15 16  2  0
 16 17  1  0
 17 18  2  0
 18 19  1  0
 15 20  1  0
 19 20  2  0
 10 21  1  0
  7 22  1  0
 21 22  1  0
  6 23  1  0
  3 24  1  0
 23 24  2  0
M  END
