pyridine_urea_6117
     RDKit          3D

 25 27  0  0  0  0  0  0  0  0999 V2000
    8.6800    1.2660   21.0910 O   0  0  0  0  0  0  0  0  0  0  0  0
    8.2550    0.1040   21.0550 C   0  0  0  0  0  0  0  0  0  0  0  0
    6.8590   -0.2180   21.1150 N   0  0  0  0  0  0  0  0  0  0  0  0
    6.2320    0.3240   20.0390 C   0  0  0  0  0  0  0  0  0  0  0  0
    5.0480    1.0240   20.1840 C   0  0  0  0  0  0  0  0  0  0  0  0
    4.4800    1.5750   19.0460 C   0  0  0  0  0  0  0  0  0  0  0  0
    5.1280    1.3990   17.8180 C   0  0  0  0  0  0  0  0  0  0  0  0
    6.2670    0.7150   17.6720 N   0  0  0  0  0  0  0  0  0  0  0  0
    6.7980    0.1860   18.7870 C   0  0  0  0  0  0  0  0  0  0  0  0
    8.9780   -1.0260   20.9190 N   0  0  0  0  0  0  0  0  0  0  0  0
    9.7540   -1.3480   22.0140 C   0  0  0  0  0  0  0  0  0  0  0  0
   11.2000   -1.7490   22.0070 C   0  0  0  0  0  0  0  0  0  0  0  0
   11.7410   -1.9630   23.2320 C   0  0  0  0  0  0  0  0  0  0  0  0
   10.9630   -1.7900   24.3910 C   0  0  0  0  0  0  0  0  0  0  0  0
   11.8690   -1.9440   25.4390 O   0  0  0  0  0  0  0  0  0  0  0  0
    9.5630   -1.5010   24.4250 N   0  0  0  0  0  0  0  0  0  0  0  0
    8.7500   -0.7610   25.4090 C   0  0  0  0  0  0  0  0  0  0  0  0
    7.5980   -1.5390   25.5110 C   0  0  0  0  0  0  0  0  0  0  0  0
    6.6250   -1.1670   26.4260 C   0  0  0  0  0  0  0  0  0  0  0  0
    5.4610   -1.9270   26.5600 C   0  0  0  0  0  0  0  0  0  0  0  0
    5.3010   -3.0580   25.7640 C   0  0  0  0  0  0  0  0  0  0  0  0
    6.2640   -3.4510   24.8380 C   0  0  0  0  0  0  0  0  0  0  0  0
    6.0370   -4.8560   23.8730 Cl  0  0  0  0  0  0  0  0  0  0  0  0
    7.4290   -2.6840   24.7050 C   0  0  0  0  0  0  0  0  0  0  0  0
    8.9980   -1.2590   23.2900 C   0  0  0  0  0  0  0  0  0  0  0  0
  1  2  2  0
  2  3  1  0
  3  4  1  0
  4  5  2  0
  5  6  1  0
  6  7  2  0
  7  8  1  0
  4  9  1  0
  8  9  2  0
  2 10  1  0
 10 11  1  0
 11 12  1  0
 12 13  2  0
 13 14  1  0
 14 15  2  0
 14 16  1  0
 16 17  1  0
 17 18  1  0
 18 19  2  0
 19 20  1  0
 20 21  2  0
 21 22  1  0
 22 23  1  0
 18 24  1  0
 22 24  2  0
 11 25  2  0
 16 25  1  0
M  END
