pyridine_urea_983
     RDKit          3D

 22 23  0  0  0  0  0  0  0  0999 V2000
    7.1850   -5.9790   28.5140 C   0  0  0  0  0  0  0  0  0  0  0  0
    6.9860   -4.5510   28.1010 C   0  0  0  0  0  0  0  0  0  0  0  0
    7.8790   -4.1580   27.0190 N   0  0  0  0  0  0  0  0  0  0  0  0
    9.0070   -4.8800   26.7110 C   0  0  0  0  0  0  0  0  0  0  0  0
    9.8260   -4.3580   25.6980 C   0  0  0  0  0  0  0  0  0  0  0  0
    9.2030   -3.3490   24.8230 N   0  0  0  0  0  0  0  0  0  0  0  0
    9.9460   -2.2790   24.3630 C   0  0  0  0  0  0  0  0  0  0  0  0
    9.5170   -1.6610   23.0540 C   0  0  0  0  0  0  0  0  0  0  0  0
   10.6390   -1.5730   22.0230 C   0  0  0  0  0  0  0  0  0  0  0  0
    9.4730   -2.5040   21.8190 C   0  0  0  0  0  0  0  0  0  0  0  0
    8.6330   -0.6390   22.9690 N   0  0  0  0  0  0  0  0  0  0  0  0
    8.2510   -0.1430   21.6950 C   0  0  0  0  0  0  0  0  0  0  0  0
    8.8940    0.7950   21.2460 O   0  0  0  0  0  0  0  0  0  0  0  0
    7.1910   -0.7450   21.0990 N   0  0  0  0  0  0  0  0  0  0  0  0
    6.5370   -0.0690   20.1120 C   0  0  0  0  0  0  0  0  0  0  0  0
    5.3890    0.6650   20.4200 C   0  0  0  0  0  0  0  0  0  0  0  0
    4.7630    1.3360   19.3790 C   0  0  0  0  0  0  0  0  0  0  0  0
    5.2600    1.2780   18.0960 C   0  0  0  0  0  0  0  0  0  0  0  0
    6.3650    0.5720   17.7910 N   0  0  0  0  0  0  0  0  0  0  0  0
    6.9770   -0.0880   18.8040 C   0  0  0  0  0  0  0  0  0  0  0  0
    7.8270   -3.0450   24.9730 C   0  0  0  0  0  0  0  0  0  0  0  0
    7.1100   -3.8880   25.8060 C   0  0  0  0  0  0  0  0  0  0  0  0
  1  2  1  0
  2  3  1  0
  3  4  1  0
  4  5  1  0
  5  6  1  0
  6  7  1  0
  7  8  1  0
  8  9  1  0
  8 10  1  0
  8 11  1  0
 11 12  1  0
 12 13  2  0
 12 14  1  0
 14 15  1  0
 15 16  2  0
 16 17  1  0
 17 18  2  0
 18 19  1  0
 15 20  1  0
 19 20  2  0
  6 21  1  0
  3 22  1  0
 21 22  1  0
M  END
