pyridine_urea_5412
     RDKit          3D

 18 19  0  0  0  0  0  0  0  0999 V2000
    8.6500    0.9090   21.0970 O   0  0  0  0  0  0  0  0  0  0  0  0
    8.3770   -0.2240   21.4670 C   0  0  0  0  0  0  0  0  0  0  0  0
    7.2080   -0.8320   21.0590 N   0  0  0  0  0  0  0  0  0  0  0  0
    6.4940   -0.1140   20.0150 C   0  0  0  0  0  0  0  0  0  0  0  0
    5.1590    0.6340   20.3460 C   0  0  0  0  0  0  0  0  0  0  0  0
    4.5320    1.3150   19.3050 C   0  0  0  0  0  0  0  0  0  0  0  0
    5.2150    1.2700   17.9350 C   0  0  0  0  0  0  0  0  0  0  0  0
    6.3670    0.6040   17.7080 N   0  0  0  0  0  0  0  0  0  0  0  0
    6.9660   -0.0580   18.7240 C   0  0  0  0  0  0  0  0  0  0  0  0
    9.1500   -1.0000   22.3000 N   0  0  0  0  0  0  0  0  0  0  0  0
   10.4310   -0.4000   22.6730 C   0  0  2  0  0  0  0  0  0  0  0  0
   11.5990   -1.3060   22.3130 C   0  0  0  0  0  0  0  0  0  0  0  0
   12.7460   -0.5230   22.9690 C   0  0  0  0  0  0  0  0  0  0  0  0
   12.1120    0.3410   24.0760 C   0  0  0  0  0  0  0  0  0  0  0  0
   10.6240    0.0480   23.9640 C   0  0  1  0  0  0  0  0  0  0  0  0
    9.8570    1.3570   24.1430 C   0  0  0  0  0  0  0  0  0  0  0  0
    8.8020    1.1540   25.0370 C   0  0  0  0  0  0  0  0  0  0  0  0
    7.7860    2.0730   25.0960 O   0  0  0  0  0  0  0  0  0  0  0  0
  1  2  2  0
  2  3  1  0
  3  4  1  0
  4  5  2  0
  5  6  1  0
  6  7  2  0
  7  8  1  0
  4  9  1  0
  8  9  2  0
  2 10  1  0
 11 10  1  1
 11 12  1  0
 12 13  1  0
 13 14  1  0
 11 15  1  0
 14 15  1  0
 15 16  1  6
 16 17  1  0
 17 18  1  0
M  END
