pyridine_urea_11179
     RDKit          3D

 18 19  0  0  0  0  0  0  0  0999 V2000
    8.9730    0.7860   21.4370 O   0  0  0  0  0  0  0  0  0  0  0  0
    8.4720   -0.3190   21.4910 C   0  0  0  0  0  0  0  0  0  0  0  0
    9.2110   -1.4370   21.7540 N   0  0  0  0  0  0  0  0  0  0  0  0
   10.1590   -1.4150   22.8610 C   0  0  0  0  0  0  0  0  0  0  0  0
   11.5800   -1.7020   22.3730 C   0  0  0  0  0  0  0  0  0  0  0  0
   12.5640   -0.6210   22.6170 C   0  0  0  0  0  0  0  0  0  0  0  0
   13.0240    0.6440   22.8560 C   0  0  0  0  0  0  0  0  0  0  0  0
   12.2540    1.8630   23.0060 C   0  0  0  0  0  0  0  0  0  0  0  0
   10.9300    1.4600   22.8560 C   0  0  0  0  0  0  0  0  0  0  0  0
    9.3930    2.5670   22.9420 Br  0  0  0  0  0  0  0  0  0  0  0  0
   11.1640    0.0080   22.6280 O   0  0  0  0  0  0  0  0  0  0  0  0
    7.1520   -0.6060   21.2560 N   0  0  0  0  0  0  0  0  0  0  0  0
    6.4990    0.0100   20.1110 C   0  0  0  0  0  0  0  0  0  0  0  0
    5.2600    0.8090   20.3660 C   0  0  0  0  0  0  0  0  0  0  0  0
    4.5920    1.4480   19.3270 C   0  0  0  0  0  0  0  0  0  0  0  0
    5.0880    1.3400   18.0300 C   0  0  0  0  0  0  0  0  0  0  0  0
    6.2840    0.5520   17.7870 N   0  0  0  0  0  0  0  0  0  0  0  0
    6.9260   -0.0690   18.8200 C   0  0  0  0  0  0  0  0  0  0  0  0
  1  2  2  0
  2  3  1  0
  3  4  1  0
  4  5  1  0
  5  6  1  0
  6  7  2  0
  7  8  1  0
  8  9  2  0
  9 10  1  0
  6 11  1  0
  9 11  1  0
  2 12  1  0
 12 13  1  0
 13 14  2  0
 14 15  1  0
 15 16  2  0
 16 17  1  0
 13 18  1  0
 17 18  2  0
M  END
