pyridine_urea_3520
     RDKit          3D

 18 19  0  0  0  0  0  0  0  0999 V2000
   10.0760    2.1370   23.6180 C   0  0  0  0  0  0  0  0  0  0  0  0
   10.9420    1.0740   23.7380 N   0  0  0  0  0  0  0  0  0  0  0  0
   11.8430    0.8170   22.6700 C   0  0  0  0  0  0  0  0  0  0  0  0
   12.9130   -0.2060   22.9530 C   0  0  0  0  0  0  0  0  0  0  0  0
   12.7980   -0.8200   24.3310 C   0  0  0  0  0  0  0  0  0  0  0  0
   11.3580   -0.8800   24.8160 C   0  0  0  0  0  0  0  0  0  0  0  0
   10.3570   -0.1220   24.0140 C   0  0  2  0  0  0  0  0  0  0  0  0
   10.0350   -0.9850   22.7940 C   0  0  0  0  0  0  0  0  0  0  0  0
    8.6130   -1.0090   22.5340 N   0  0  0  0  0  0  0  0  0  0  0  0
    8.0790   -0.1530   21.5620 C   0  0  0  0  0  0  0  0  0  0  0  0
    8.6580    0.8510   21.1660 O   0  0  0  0  0  0  0  0  0  0  0  0
    6.8720   -0.5820   21.1550 N   0  0  0  0  0  0  0  0  0  0  0  0
    6.3610    0.0190   20.0610 C   0  0  0  0  0  0  0  0  0  0  0  0
    5.2140    0.7770   20.2470 C   0  0  0  0  0  0  0  0  0  0  0  0
    4.6220    1.4440   19.1910 C   0  0  0  0  0  0  0  0  0  0  0  0
    5.1950    1.3430   17.9450 C   0  0  0  0  0  0  0  0  0  0  0  0
    6.3190    0.6100   17.6940 N   0  0  0  0  0  0  0  0  0  0  0  0
    6.9460   -0.1000   18.8050 C   0  0  0  0  0  0  0  0  0  0  0  0
  1  2  1  0
  2  3  1  0
  3  4  1  0
  4  5  1  0
  5  6  1  0
  2  7  1  0
  6  7  1  0
  7  8  1  6
  8  9  1  0
  9 10  1  0
 10 11  2  0
 10 12  1  0
 12 13  1  0
 13 14  2  0
 14 15  1  0
 15 16  2  0
 16 17  1  0
 13 18  1  0
 17 18  2  0
M  END
