pyridine_urea_6074
     RDKit          3D

 25 26  0  0  0  0  0  0  0  0999 V2000
   14.5130    2.6200   18.7660 C   0  0  0  0  0  0  0  0  0  0  0  0
   14.9500    1.1640   18.8730 C   0  0  0  0  0  0  0  0  0  0  0  0
   16.1880    1.6420   18.9210 C   0  0  0  0  0  0  0  0  0  0  0  0
   14.2920   -0.0070   19.9250 C   0  0  0  0  0  0  0  0  0  0  0  0
   14.3270   -1.3100   20.1720 N   0  0  0  0  0  0  0  0  0  0  0  0
   13.1800   -2.2180   21.1250 S   0  0  0  0  0  0  0  0  0  0  0  0
   13.7180   -3.1570   22.0530 O   0  0  0  0  0  0  0  0  0  0  0  0
   12.1980   -2.7960   20.2950 O   0  0  0  0  0  0  0  0  0  0  0  0
   12.3180   -1.2360   22.2370 C   0  0  0  0  0  0  0  0  0  0  0  0
   12.7530   -0.1440   23.0740 C   0  0  0  0  0  0  0  0  0  0  0  0
   11.7290    0.4780   23.9440 C   0  0  0  0  0  0  0  0  0  0  0  0
   10.2340    0.1180   24.0980 C   0  0  0  0  0  0  0  0  0  0  0  0
    8.9900   -0.4500   23.9880 C   0  0  0  0  0  0  0  0  0  0  0  0
    8.0810    0.1070   23.1140 N   0  0  0  0  0  0  0  0  0  0  0  0
    8.0940    0.2860   21.7080 C   0  0  0  0  0  0  0  0  0  0  0  0
    8.7630    1.1780   21.1920 O   0  0  0  0  0  0  0  0  0  0  0  0
    7.2830   -0.5600   21.0340 N   0  0  0  0  0  0  0  0  0  0  0  0
    6.5820    0.0360   20.0440 C   0  0  0  0  0  0  0  0  0  0  0  0
    5.4480    0.7700   20.3680 C   0  0  0  0  0  0  0  0  0  0  0  0
    4.7290    1.4000   19.3630 C   0  0  0  0  0  0  0  0  0  0  0  0
    5.1840    1.2620   18.0670 C   0  0  0  0  0  0  0  0  0  0  0  0
    6.2630    0.5620   17.7080 N   0  0  0  0  0  0  0  0  0  0  0  0
    6.9350   -0.0380   18.7120 C   0  0  0  0  0  0  0  0  0  0  0  0
   10.1210   -0.9560   23.1750 C   0  0  0  0  0  0  0  0  0  0  0  0
   11.0280   -1.5680   22.3420 C   0  0  0  0  0  0  0  0  0  0  0  0
  1  2  1  0
  2  3  1  0
  2  4  1  0
  4  5  1  0
  6  5  1  0
  6  7  2  0
  6  8  2  0
  6  9  1  0
  9 10  2  0
 10 11  1  0
 11 12  2  0
 12 13  1  0
 13 14  1  0
 14 15  1  0
 15 16  2  0
 15 17  1  0
 17 18  1  0
 18 19  2  0
 19 20  1  0
 20 21  2  0
 21 22  1  0
 18 23  1  0
 22 23  2  0
 12 24  1  0
  9 25  1  0
 24 25  2  0
M  END
