pyridine_urea_13138
     RDKit          3D

 18 19  0  0  0  0  0  0  0  0999 V2000
    8.9850   -3.1780   23.4490 C   0  0  0  0  0  0  0  0  0  0  0  0
   10.2150   -2.5520   22.8680 C   0  0  0  0  0  0  0  0  0  0  0  0
   11.0530   -2.0260   23.9070 N   0  0  0  0  0  0  0  0  0  0  0  0
   11.0920   -0.6040   23.6510 C   0  0  0  0  0  0  0  0  0  0  0  0
   10.5800   -0.2550   22.4380 C   0  0  0  0  0  0  0  0  0  0  0  0
    9.1280   -0.4150   22.4130 N   0  0  0  0  0  0  0  0  0  0  0  0
    8.4390    0.3010   21.4900 C   0  0  0  0  0  0  0  0  0  0  0  0
    8.8260    1.4150   21.1230 O   0  0  0  0  0  0  0  0  0  0  0  0
    7.3150   -0.3530   21.0530 N   0  0  0  0  0  0  0  0  0  0  0  0
    6.5590    0.1910   20.0260 C   0  0  0  0  0  0  0  0  0  0  0  0
    5.3890    0.8820   20.3380 C   0  0  0  0  0  0  0  0  0  0  0  0
    4.6000    1.4940   19.1840 C   0  0  0  0  0  0  0  0  0  0  0  0
    5.1160    1.3110   17.9150 C   0  0  0  0  0  0  0  0  0  0  0  0
    6.2370    0.6260   17.6690 N   0  0  0  0  0  0  0  0  0  0  0  0
    6.9190    0.0920   18.7020 C   0  0  0  0  0  0  0  0  0  0  0  0
   12.2070   -2.6680   24.2710 C   0  0  0  0  0  0  0  0  0  0  0  0
   13.1450   -2.0510   24.8100 C   0  0  0  0  0  0  0  0  0  0  0  0
   13.4060   -2.4440   23.4330 C   0  0  0  0  0  0  0  0  0  0  0  0
  1  2  1  0
  2  3  1  0
  3  4  1  0
  4  5  1  0
  5  6  1  0
  6  7  1  0
  7  8  2  0
  7  9  1  0
  9 10  1  0
 10 11  2  0
 11 12  1  0
 12 13  2  0
 13 14  1  0
 10 15  1  0
 14 15  2  0
  3 16  1  0
 16 17  1  0
 16 18  1  0
 17 18  1  0
M  END
