pyridine_urea_12651
     RDKit          3D

 21 22  0  0  0  0  0  0  0  0999 V2000
   11.1330    0.5980   23.4190 C   0  0  0  0  0  0  0  0  0  0  0  0
   10.4020   -0.7780   23.3050 C   0  0  1  0  0  0  0  0  0  0  0  0
    8.9620   -0.4630   22.9520 N   0  0  0  0  0  0  0  0  0  0  0  0
    8.5080    0.0820   21.7080 C   0  0  0  0  0  0  0  0  0  0  0  0
    8.9960    1.3300   21.1780 O   0  0  0  0  0  0  0  0  0  0  0  0
    7.5460   -0.7400   21.1290 N   0  0  0  0  0  0  0  0  0  0  0  0
    6.7550   -0.0340   20.2150 C   0  0  0  0  0  0  0  0  0  0  0  0
    5.6510    0.7860   20.4780 C   0  0  0  0  0  0  0  0  0  0  0  0
    4.9220    1.4420   19.4800 C   0  0  0  0  0  0  0  0  0  0  0  0
    5.3120    1.2720   18.1680 C   0  0  0  0  0  0  0  0  0  0  0  0
    6.3560    0.5030   17.8410 N   0  0  0  0  0  0  0  0  0  0  0  0
    7.0390   -0.1230   18.8480 C   0  0  0  0  0  0  0  0  0  0  0  0
   10.8810   -1.5130   22.1150 C   0  0  0  0  0  0  0  0  0  0  0  0
   11.9450   -0.7090   22.4560 C   0  0  0  0  0  0  0  0  0  0  0  0
   11.6490   -0.0810   23.6870 C   0  0  0  0  0  0  0  0  0  0  0  0
   12.5180    0.7420   24.2590 F   0  0  0  0  0  0  0  0  0  0  0  0
   10.2590   -0.4500   24.3120 C   0  0  0  0  0  0  0  0  0  0  0  0
    9.6510    0.1140   25.8120 Cl  0  0  0  0  0  0  0  0  0  0  0  0
    9.2910   -1.3050   23.7680 C   0  0  0  0  0  0  0  0  0  0  0  0
    9.6160   -1.9110   22.5390 C   0  0  0  0  0  0  0  0  0  0  0  0
    8.4060   -2.9690   21.9750 Cl  0  0  0  0  0  0  0  0  0  0  0  0
  2  1  1  6
  2  3  1  0
  3  4  1  0
  4  5  2  0
  4  6  1  0
  6  7  1  0
  7  8  2  0
  8  9  1  0
  9 10  2  0
 10 11  1  0
  7 12  1  0
 11 12  2  0
  2 13  1  0
 13 14  2  0
 14 15  1  0
 15 16  1  0
 15 17  2  0
 17 18  1  0
 17 19  1  0
 13 20  1  0
 19 20  2  0
 20 21  1  0
M  END
