pyridine_urea_6521
     RDKit          3D

 22 23  0  0  0  0  0  0  0  0999 V2000
   13.3680   -1.5410   21.6100 C   0  0  0  0  0  0  0  0  0  0  0  0
   13.4800   -0.5300   22.6210 O   0  0  0  0  0  0  0  0  0  0  0  0
   12.2670   -0.5100   23.1770 C   0  0  0  0  0  0  0  0  0  0  0  0
   11.1660   -0.9550   22.2470 C   0  0  0  0  0  0  0  0  0  0  0  0
    9.7200   -1.0300   22.6260 C   0  0  0  0  0  0  0  0  0  0  0  0
    8.7360   -1.4260   21.6930 N   0  0  0  0  0  0  0  0  0  0  0  0
    8.0080   -0.3590   21.2730 C   0  0  0  0  0  0  0  0  0  0  0  0
    8.5770    0.9420   21.1050 O   0  0  0  0  0  0  0  0  0  0  0  0
    6.7290   -0.6800   21.0650 N   0  0  0  0  0  0  0  0  0  0  0  0
    6.1680    0.0050   20.0670 C   0  0  0  0  0  0  0  0  0  0  0  0
    4.9820    0.7300   20.1870 C   0  0  0  0  0  0  0  0  0  0  0  0
    4.5140    1.4150   19.0620 C   0  0  0  0  0  0  0  0  0  0  0  0
    5.2180    1.3670   17.8780 C   0  0  0  0  0  0  0  0  0  0  0  0
    6.3570    0.6930   17.6810 N   0  0  0  0  0  0  0  0  0  0  0  0
    6.8410    0.0170   18.7370 C   0  0  0  0  0  0  0  0  0  0  0  0
    9.3570   -0.6580   24.0480 C   0  0  0  0  0  0  0  0  0  0  0  0
   10.3250   -0.2630   24.9440 C   0  0  0  0  0  0  0  0  0  0  0  0
    9.4620   -0.0570   26.2340 C   0  0  0  0  0  0  0  0  0  0  0  0
    8.6690   -1.0980   26.5380 F   0  0  0  0  0  0  0  0  0  0  0  0
   10.1040    0.1160   27.4000 F   0  0  0  0  0  0  0  0  0  0  0  0
    8.5830    0.9520   26.0960 F   0  0  0  0  0  0  0  0  0  0  0  0
   11.8300   -0.1310   24.6090 C   0  0  0  0  0  0  0  0  0  0  0  0
  1  2  1  0
  2  3  1  0
  3  4  2  0
  4  5  1  0
  5  6  1  0
  6  7  1  0
  7  8  2  0
  7  9  1  0
  9 10  1  0
 10 11  2  0
 11 12  1  0
 12 13  2  0
 13 14  1  0
 10 15  1  0
 14 15  2  0
  5 16  2  0
 16 17  1  0
 17 18  1  0
 18 19  1  0
 18 20  1  0
 18 21  1  0
  3 22  1  0
 17 22  2  0
M  END
