pyridine_urea_8377
     RDKit          3D

 22 23  0  0  0  0  0  0  0  0999 V2000
   13.5130   -2.2510   25.3730 C   0  0  0  0  0  0  0  0  0  0  0  0
   13.4670   -1.6080   24.0140 C   0  0  1  0  0  0  0  0  0  0  0  0
   13.3830   -2.6980   22.9530 C   0  0  0  0  0  0  0  0  0  0  0  0
   13.3300   -2.1800   21.6860 C   0  0  0  0  0  0  0  0  0  0  0  0
   13.4900   -0.8090   21.5670 N   0  0  0  0  0  0  0  0  0  0  0  0
   13.1790   -2.8380   20.6880 O   0  0  0  0  0  0  0  0  0  0  0  0
   12.1310   -1.0670   23.8200 C   0  0  0  0  0  0  0  0  0  0  0  0
   11.4420   -0.4590   24.8230 C   0  0  0  0  0  0  0  0  0  0  0  0
   10.0650    0.0180   24.5090 C   0  0  0  0  0  0  0  0  0  0  0  0
    9.5740   -0.2230   23.1150 C   0  0  0  0  0  0  0  0  0  0  0  0
    8.2770    0.2100   22.8480 N   0  0  0  0  0  0  0  0  0  0  0  0
    8.1320    0.5360   21.5550 C   0  0  0  0  0  0  0  0  0  0  0  0
    8.7540    1.4520   21.0200 O   0  0  0  0  0  0  0  0  0  0  0  0
    7.2170   -0.2750   20.9550 N   0  0  0  0  0  0  0  0  0  0  0  0
    6.4230    0.2820   19.9920 C   0  0  0  0  0  0  0  0  0  0  0  0
    5.1080    0.9860   20.2670 C   0  0  0  0  0  0  0  0  0  0  0  0
    4.4700    1.5420   19.0170 C   0  0  0  0  0  0  0  0  0  0  0  0
    5.1080    1.3680   17.8050 C   0  0  0  0  0  0  0  0  0  0  0  0
    6.2670    0.7160   17.6350 N   0  0  0  0  0  0  0  0  0  0  0  0
    6.8800    0.2020   18.7000 C   0  0  0  0  0  0  0  0  0  0  0  0
   10.3710   -0.8350   22.1880 C   0  0  0  0  0  0  0  0  0  0  0  0
   11.6000   -1.2300   22.5600 C   0  0  0  0  0  0  0  0  0  0  0  0
  2  1  1  1
  2  3  1  0
  3  4  1  0
  4  5  1  0
  4  6  2  0
  2  7  1  0
  7  8  2  0
  8  9  1  0
  9 10  2  0
 10 11  1  0
 11 12  1  0
 12 13  2  0
 12 14  1  0
 14 15  1  0
 15 16  2  0
 16 17  1  0
 17 18  2  0
 18 19  1  0
 15 20  1  0
 19 20  2  0
 10 21  1  0
  7 22  1  0
 21 22  2  0
M  END
