pyridine_urea_1037
     RDKit          3D

 22 24  0  0  0  0  0  0  0  0999 V2000
    8.7820    0.8030   21.3080 O   0  0  0  0  0  0  0  0  0  0  0  0
    8.5070   -0.3650   21.5610 C   0  0  0  0  0  0  0  0  0  0  0  0
    9.2690   -1.1250   22.5210 N   0  0  0  0  0  0  0  0  0  0  0  0
   10.5720   -0.7010   22.6070 C   0  0  0  0  0  0  0  0  0  0  0  0
   10.8050    0.6150   22.9680 C   0  0  0  0  0  0  0  0  0  0  0  0
   12.1190    1.0510   23.0470 C   0  0  0  0  0  0  0  0  0  0  0  0
   13.1430    0.1660   22.7670 C   0  0  0  0  0  0  0  0  0  0  0  0
   12.9500   -1.1190   22.4130 N   0  0  0  0  0  0  0  0  0  0  0  0
   11.6550   -1.5270   22.3390 C   0  0  0  0  0  0  0  0  0  0  0  0
    7.4940   -1.0860   21.0060 N   0  0  0  0  0  0  0  0  0  0  0  0
    6.6510   -0.3230   20.1320 C   0  0  0  0  0  0  0  0  0  0  0  0
    5.4220    0.1770   20.8230 C   0  0  0  0  0  0  0  0  0  0  0  0
    4.5730    0.9260   20.1120 C   0  0  0  0  0  0  0  0  0  0  0  0
    4.8370    1.2140   18.8020 C   0  0  0  0  0  0  0  0  0  0  0  0
    3.7550    2.0320   18.3980 O   0  0  0  0  0  0  0  0  0  0  0  0
    2.9040    2.5140   19.4800 C   0  0  0  0  0  0  0  0  0  0  0  0
    3.6140    3.0750   20.5230 C   0  0  0  0  0  0  0  0  0  0  0  0
    3.0280    4.2720   20.8010 C   0  0  0  0  0  0  0  0  0  0  0  0
    2.0070    4.4640   19.8760 C   0  0  0  0  0  0  0  0  0  0  0  0
    1.9620    3.4100   18.9340 C   0  0  0  0  0  0  0  0  0  0  0  0
    5.9690    0.7580   18.0860 N   0  0  0  0  0  0  0  0  0  0  0  0
    6.9380   -0.0620   18.8110 C   0  0  0  0  0  0  0  0  0  0  0  0
  1  2  2  0
  2  3  1  0
  3  4  1  0
  4  5  2  0
  5  6  1  0
  6  7  2  0
  7  8  1  0
  4  9  1  0
  8  9  2  0
  2 10  1  0
 10 11  1  0
 11 12  2  0
 12 13  1  0
 13 14  2  0
 14 15  1  0
 15 16  1  0
 16 17  1  0
 17 18  1  0
 18 19  1  0
 16 20  1  0
 19 20  1  0
 14 21  1  0
 11 22  1  0
 21 22  2  0
M  END
