pyridine_urea_6373
     RDKit          3D

 23 25  0  0  0  0  0  0  0  0999 V2000
    8.5340    0.9680   21.0910 O   0  0  0  0  0  0  0  0  0  0  0  0
    8.2460   -0.1930   21.3680 C   0  0  0  0  0  0  0  0  0  0  0  0
    7.0380   -0.7440   21.0440 N   0  0  0  0  0  0  0  0  0  0  0  0
    6.3990   -0.0450   19.9680 C   0  0  0  0  0  0  0  0  0  0  0  0
    5.1030    0.6870   20.2890 C   0  0  0  0  0  0  0  0  0  0  0  0
    4.5070    1.4090   19.1340 C   0  0  0  0  0  0  0  0  0  0  0  0
    5.1570    1.3560   17.9130 C   0  0  0  0  0  0  0  0  0  0  0  0
    6.3020    0.6850   17.6900 N   0  0  0  0  0  0  0  0  0  0  0  0
    6.8870    0.0130   18.6920 C   0  0  0  0  0  0  0  0  0  0  0  0
    9.0910   -1.0360   22.0230 N   0  0  0  0  0  0  0  0  0  0  0  0
   10.2110   -0.3560   22.6810 C   0  0  1  0  0  0  0  0  0  0  0  0
   10.0490   -0.2940   24.0010 C   0  0  0  0  0  0  0  0  0  0  0  0
    8.6000    0.0450   24.0470 C   0  0  0  0  0  0  0  0  0  0  0  0
    7.9590    0.2140   25.2670 C   0  0  0  0  0  0  0  0  0  0  0  0
    8.6770    0.0670   26.4620 C   0  0  0  0  0  0  0  0  0  0  0  0
   10.1270   -0.2710   26.3930 N   0  0  0  0  0  0  0  0  0  0  0  0
   10.7520   -0.4340   25.1450 C   0  0  0  0  0  0  0  0  0  0  0  0
   11.5130   -1.2220   22.6220 C   0  0  0  0  0  0  0  0  0  0  0  0
   11.8110    0.0840   22.7740 C   0  0  0  0  0  0  0  0  0  0  0  0
   11.3440    1.3730   22.9330 C   0  0  0  0  0  0  0  0  0  0  0  0
   12.5850    1.7260   22.9430 C   0  0  0  0  0  0  0  0  0  0  0  0
   13.3560    0.4670   22.7810 C   0  0  0  0  0  0  0  0  0  0  0  0
   12.9730   -0.9720   22.6410 N   0  0  0  0  0  0  0  0  0  0  0  0
  1  2  2  0
  2  3  1  0
  3  4  1  0
  4  5  2  0
  5  6  1  0
  6  7  2  0
  7  8  1  0
  4  9  1  0
  8  9  2  0
  2 10  1  0
 11 10  1  6
 11 12  1  0
 12 13  2  0
 13 14  1  0
 14 15  2  0
 15 16  1  0
 12 17  1  0
 16 17  2  0
 11 18  1  0
 18 19  2  0
 19 20  1  0
 20 21  2  0
 21 22  1  0
 18 23  1  0
 22 23  2  0
M  END
