pyridine_urea_13659
     RDKit          3D

 29 30  0  0  0  0  0  0  0  0999 V2000
    7.4570   -2.2620   24.4610 C   0  0  0  0  0  0  0  0  0  0  0  0
    7.4060   -0.7670   24.8540 C   0  0  0  0  0  0  0  0  0  0  0  0
    6.1100   -0.1860   24.2510 C   0  0  0  0  0  0  0  0  0  0  0  0
    7.4760   -0.5890   26.4040 C   0  0  0  0  0  0  0  0  0  0  0  0
    8.4690   -0.0450   24.2110 O   0  0  0  0  0  0  0  0  0  0  0  0
    9.7500   -0.4930   24.2630 C   0  0  0  0  0  0  0  0  0  0  0  0
   10.6530   -0.3070   25.3500 O   0  0  0  0  0  0  0  0  0  0  0  0
   10.0970   -1.2010   23.1270 C   0  0  2  0  0  0  0  0  0  0  0  0
   11.0150   -0.6450   22.2710 C   0  0  0  0  0  0  0  0  0  0  0  0
   12.3530   -0.6470   22.6790 C   0  0  0  0  0  0  0  0  0  0  0  0
   13.4230   -0.1180   22.9090 O   0  0  0  0  0  0  0  0  0  0  0  0
   12.0570    0.5170   22.3880 O   0  0  0  0  0  0  0  0  0  0  0  0
   12.7110    1.5310   23.1440 C   0  0  0  0  0  0  0  0  0  0  0  0
   12.1240    2.7910   22.9910 C   0  0  0  0  0  0  0  0  0  0  0  0
   10.7670    3.0350   23.3320 C   0  0  0  0  0  0  0  0  0  0  0  0
   10.1470    4.3340   23.1930 C   0  0  0  0  0  0  0  0  0  0  0  0
   11.0860    5.4210   22.6450 C   0  0  0  0  0  0  0  0  0  0  0  0
   12.3790    5.1160   22.3370 C   0  0  0  0  0  0  0  0  0  0  0  0
   12.8910    3.8550   22.5010 C   0  0  0  0  0  0  0  0  0  0  0  0
    8.9420   -1.5150   22.4450 N   0  0  0  0  0  0  0  0  0  0  0  0
    8.4390   -0.4640   21.6740 C   0  0  0  0  0  0  0  0  0  0  0  0
    9.0920    0.7950   21.4850 O   0  0  0  0  0  0  0  0  0  0  0  0
    7.2200   -0.8100   21.1360 N   0  0  0  0  0  0  0  0  0  0  0  0
    6.5190   -0.0850   20.0720 C   0  0  0  0  0  0  0  0  0  0  0  0
    5.2460    0.6790   20.3970 C   0  0  0  0  0  0  0  0  0  0  0  0
    4.6140    1.4000   19.2320 C   0  0  0  0  0  0  0  0  0  0  0  0
    5.2140    1.3210   17.9910 C   0  0  0  0  0  0  0  0  0  0  0  0
    6.3490    0.6230   17.7410 N   0  0  0  0  0  0  0  0  0  0  0  0
    6.9630   -0.0520   18.7590 C   0  0  0  0  0  0  0  0  0  0  0  0
  1  2  1  0
  2  3  1  0
  2  4  1  0
  2  5  1  0
  5  6  1  0
  6  7  2  0
  6  8  1  0
  8  9  1  6
  9 10  1  0
 10 11  2  0
 10 12  1  0
 12 13  1  0
 13 14  1  0
 14 15  2  0
 15 16  1  0
 16 17  2  0
 17 18  1  0
 14 19  1  0
 18 19  2  0
  8 20  1  0
 20 21  1  0
 21 22  2  0
 21 23  1  0
 23 24  1  0
 24 25  2  0
 25 26  1  0
 26 27  2  0
 27 28  1  0
 24 29  1  0
 28 29  2  0
M  END
