pyridine_urea_9722
     RDKit          3D

 27 30  0  0  0  0  0  0  0  0999 V2000
   14.0390   -4.0630   26.1400 C   0  0  0  0  0  0  0  0  0  0  0  0
   14.9560   -3.1200   25.8170 O   0  0  0  0  0  0  0  0  0  0  0  0
   14.0990   -2.5380   24.9640 C   0  0  0  0  0  0  0  0  0  0  0  0
   14.0530   -2.9960   23.5220 C   0  0  0  0  0  0  0  0  0  0  0  0
   13.1150   -2.3820   22.6310 C   0  0  0  0  0  0  0  0  0  0  0  0
   12.4100   -1.3980   23.4020 C   0  0  0  0  0  0  0  0  0  0  0  0
   11.4930   -0.5400   23.1300 C   0  0  0  0  0  0  0  0  0  0  0  0
   12.1220    0.6870   23.0260 N   0  0  0  0  0  0  0  0  0  0  0  0
   11.1400    1.4320   22.9600 C   0  0  0  0  0  0  0  0  0  0  0  0
    9.9130    0.7030   22.9940 C   0  0  0  0  0  0  0  0  0  0  0  0
    9.8180   -1.0040   23.0910 S   0  0  0  0  0  0  0  0  0  0  0  0
    8.7220    1.3030   22.9840 C   0  0  2  0  0  0  0  0  0  0  0  0
    7.7880    0.6900   22.2330 N   0  0  0  0  0  0  0  0  0  0  0  0
    8.0200   -0.3490   21.3470 C   0  0  0  0  0  0  0  0  0  0  0  0
    9.2450   -0.7420   20.9840 O   0  0  0  0  0  0  0  0  0  0  0  0
    6.8670   -0.8740   20.9210 N   0  0  0  0  0  0  0  0  0  0  0  0
    6.2390   -0.1100   20.0100 C   0  0  0  0  0  0  0  0  0  0  0  0
    5.0600    0.6020   20.2340 C   0  0  0  0  0  0  0  0  0  0  0  0
    4.5410    1.3880   19.0940 C   0  0  0  0  0  0  0  0  0  0  0  0
    5.2130    1.3920   17.8860 C   0  0  0  0  0  0  0  0  0  0  0  0
    6.3460    0.6920   17.6990 N   0  0  0  0  0  0  0  0  0  0  0  0
    6.8160   -0.0250   18.7470 C   0  0  0  0  0  0  0  0  0  0  0  0
    8.9920    2.7550   22.6440 C   0  0  0  0  0  0  0  0  0  0  0  0
   10.0040    3.2490   23.4390 C   0  0  0  0  0  0  0  0  0  0  0  0
   11.1860    2.8640   22.9060 C   0  0  0  0  0  0  0  0  0  0  0  0
   12.5380   -1.0570   24.7070 C   0  0  0  0  0  0  0  0  0  0  0  0
   13.3720   -1.6260   25.4500 C   0  0  0  0  0  0  0  0  0  0  0  0
  1  2  1  0
  2  3  1  0
  3  4  2  0
  4  5  1  0
  5  6  2  0
  6  7  1  0
  7  8  2  0
  8  9  1  0
  9 10  2  0
  7 11  1  0
 10 11  1  0
 10 12  1  0
 12 13  1  6
 13 14  1  0
 14 15  2  0
 14 16  1  0
 16 17  1  0
 17 18  2  0
 18 19  1  0
 19 20  2  0
 20 21  1  0
 17 22  1  0
 21 22  2  0
 12 23  1  0
 23 24  1  0
  9 25  1  0
 24 25  1  0
  6 26  1  0
  3 27  1  0
 26 27  2  0
M  END
