pyridine_urea_7840
     RDKit          3D

 28 29  0  0  0  0  0  0  0  0999 V2000
   13.4120   -1.4850   20.7530 C   0  0  0  0  0  0  0  0  0  0  0  0
   13.0350   -2.7930   21.8260 S   0  0  0  0  0  0  0  0  0  0  0  0
   11.6040   -2.7910   21.9570 O   0  0  0  0  0  0  0  0  0  0  0  0
   13.8260   -3.8820   21.3430 O   0  0  0  0  0  0  0  0  0  0  0  0
   13.5870   -2.0990   23.2440 N   0  0  0  0  0  0  0  0  0  0  0  0
   12.8290   -0.9620   23.4020 C   0  0  0  0  0  0  0  0  0  0  0  0
   13.1770    0.2980   22.9320 C   0  0  0  0  0  0  0  0  0  0  0  0
   12.4090    1.4450   23.0960 C   0  0  0  0  0  0  0  0  0  0  0  0
   11.2300    1.2300   23.7910 C   0  0  0  0  0  0  0  0  0  0  0  0
   10.5070    2.1490   23.9690 O   0  0  0  0  0  0  0  0  0  0  0  0
    9.2460    1.5220   24.2000 C   0  0  0  0  0  0  0  0  0  0  0  0
    9.3340    0.1520   23.8400 C   0  0  0  0  0  0  0  0  0  0  0  0
    8.7830   -0.0420   22.6730 N   0  0  0  0  0  0  0  0  0  0  0  0
    8.2640    0.3400   21.4790 C   0  0  0  0  0  0  0  0  0  0  0  0
    8.6870    1.3470   20.9110 O   0  0  0  0  0  0  0  0  0  0  0  0
    7.2710   -0.4810   21.0930 N   0  0  0  0  0  0  0  0  0  0  0  0
    6.5630    0.0900   20.1130 C   0  0  0  0  0  0  0  0  0  0  0  0
    5.4150    0.8210   20.3640 C   0  0  0  0  0  0  0  0  0  0  0  0
    4.7140    1.4240   19.3320 C   0  0  0  0  0  0  0  0  0  0  0  0
    5.1290    1.3240   18.0030 C   0  0  0  0  0  0  0  0  0  0  0  0
    6.2470    0.6100   17.6500 N   0  0  0  0  0  0  0  0  0  0  0  0
    6.9360    0.0170   18.6600 C   0  0  0  0  0  0  0  0  0  0  0  0
   10.8620   -0.0130   24.2760 C   0  0  0  0  0  0  0  0  0  0  0  0
   11.6450   -1.0940   24.0800 C   0  0  0  0  0  0  0  0  0  0  0  0
   13.2570   -2.7570   24.7080 S   0  0  0  0  0  0  0  0  0  0  0  0
   12.9550   -1.1560   25.3770 C   0  0  0  0  0  0  0  0  0  0  0  0
   11.9670   -3.3980   24.6740 O   0  0  0  0  0  0  0  0  0  0  0  0
   14.3480   -3.3460   25.4190 O   0  0  0  0  0  0  0  0  0  0  0  0
  1  2  1  0
  2  3  2  0
  2  4  2  0
  2  5  1  0
  5  6  1  0
  6  7  2  0
  7  8  1  0
  8  9  2  0
  9 10  1  0
 10 11  1  0
 11 12  1  0
 12 13  1  0
 13 14  1  0
 14 15  2  0
 14 16  1  0
 16 17  1  0
 17 18  2  0
 18 19  1  0
 19 20  2  0
 20 21  1  0
 17 22  1  0
 21 22  2  0
  9 23  1  0
  6 24  1  0
 23 24  2  0
 25  5  1  0
 25 26  1  0
 25 27  2  0
 25 28  2  0
M  END
