pyridine_urea_5540
     RDKit          3D

 17 17  0  0  0  0  0  0  0  0999 V2000
   12.0390    0.2730   24.4200 C   0  0  0  0  0  0  0  0  0  0  0  0
   10.6340   -0.2530   24.2330 C   0  0  0  0  0  0  0  0  0  0  0  0
   10.5030   -0.5000   22.7060 C   0  0  1  0  0  0  0  0  0  0  0  0
   11.3950   -1.4300   22.1640 C   0  0  0  0  0  0  0  0  0  0  0  0
   12.8750   -1.0870   22.4420 C   0  0  1  0  0  0  0  0  0  0  0  0
   13.0410    0.2380   22.8750 C   0  0  0  0  0  0  0  0  0  0  0  0
   13.3320   -1.7180   23.3910 O   0  0  0  0  0  0  0  0  0  0  0  0
    9.1370   -0.8840   22.3920 N   0  0  0  0  0  0  0  0  0  0  0  0
    8.3790   -0.0270   21.4780 C   0  0  0  0  0  0  0  0  0  0  0  0
    8.8170    1.2360   21.0960 O   0  0  0  0  0  0  0  0  0  0  0  0
    7.1710   -0.6970   21.0960 N   0  0  0  0  0  0  0  0  0  0  0  0
    6.5220   -0.0220   20.0740 C   0  0  0  0  0  0  0  0  0  0  0  0
    5.2510    0.7520   20.4010 C   0  0  0  0  0  0  0  0  0  0  0  0
    4.5780    1.4790   19.2610 C   0  0  0  0  0  0  0  0  0  0  0  0
    5.2440    1.3570   17.9210 C   0  0  0  0  0  0  0  0  0  0  0  0
    6.3660    0.6480   17.7090 N   0  0  0  0  0  0  0  0  0  0  0  0
    6.9560   -0.0050   18.7540 C   0  0  0  0  0  0  0  0  0  0  0  0
  1  2  1  0
  3  2  1  1
  3  4  1  0
  4  5  1  0
  5  6  1  1
  5  7  1  0
  3  8  1  0
  8  9  1  0
  9 10  2  0
  9 11  1  0
 11 12  1  0
 12 13  2  0
 13 14  1  0
 14 15  2  0
 15 16  1  0
 12 17  1  0
 16 17  2  0
M  END
