pyridine_urea_3602
     RDKit          3D

 17 18  0  0  0  0  0  0  0  0999 V2000
   13.7390   -0.7040   22.5000 O   0  0  0  0  0  0  0  0  0  0  0  0
   12.5700   -0.4160   22.5720 C   0  0  0  0  0  0  0  0  0  0  0  0
   11.4460   -1.4530   22.4200 C   0  0  0  0  0  0  0  0  0  0  0  0
   10.2580   -0.7590   23.0520 C   0  0  2  0  0  0  0  0  0  0  0  0
    9.0240   -0.9400   22.5270 N   0  0  0  0  0  0  0  0  0  0  0  0
    8.4810   -0.0820   21.6270 C   0  0  0  0  0  0  0  0  0  0  0  0
    9.0370    1.1870   21.2270 O   0  0  0  0  0  0  0  0  0  0  0  0
    7.2260   -0.6510   21.1530 N   0  0  0  0  0  0  0  0  0  0  0  0
    6.5560   -0.0090   20.1460 C   0  0  0  0  0  0  0  0  0  0  0  0
    5.2690    0.7960   20.3900 C   0  0  0  0  0  0  0  0  0  0  0  0
    4.5960    1.4910   19.2010 C   0  0  0  0  0  0  0  0  0  0  0  0
    5.2020    1.3400   17.9670 C   0  0  0  0  0  0  0  0  0  0  0  0
    6.3040    0.6540   17.6910 N   0  0  0  0  0  0  0  0  0  0  0  0
    6.9470    0.0210   18.6790 C   0  0  0  0  0  0  0  0  0  0  0  0
   10.6740    0.6720   22.9780 C   0  0  0  0  0  0  0  0  0  0  0  0
    9.8980    1.6100   23.0760 O   0  0  0  0  0  0  0  0  0  0  0  0
   12.0030    0.8300   22.7940 N   0  0  0  0  0  0  0  0  0  0  0  0
  1  2  2  0
  2  3  1  0
  3  4  1  0
  4  5  1  6
  5  6  1  0
  6  7  2  0
  6  8  1  0
  8  9  1  0
  9 10  2  0
 10 11  1  0
 11 12  2  0
 12 13  1  0
  9 14  1  0
 13 14  2  0
  4 15  1  0
 15 16  2  0
  2 17  1  0
 15 17  1  0
M  END
