pyridine_urea_7046
     RDKit          3D

 20 21  0  0  0  0  0  0  0  0999 V2000
   13.3580   -3.5320   20.6500 C   0  0  0  0  0  0  0  0  0  0  0  0
   13.0990   -2.0870   20.9600 C   0  0  0  0  0  0  0  0  0  0  0  0
   11.7240   -1.8310   21.1360 O   0  0  0  0  0  0  0  0  0  0  0  0
   11.5000   -1.4070   22.3660 C   0  0  0  0  0  0  0  0  0  0  0  0
   12.4780   -1.6360   23.2760 C   0  0  0  0  0  0  0  0  0  0  0  0
   12.3150   -1.2530   24.5380 C   0  0  0  0  0  0  0  0  0  0  0  0
   13.3380   -1.6000   25.3460 C   0  0  0  0  0  0  0  0  0  0  0  0
   11.1370   -0.5830   24.8700 C   0  0  0  0  0  0  0  0  0  0  0  0
   10.1190   -0.3210   23.9890 C   0  0  0  0  0  0  0  0  0  0  0  0
   10.3230   -0.7800   22.6890 C   0  0  0  0  0  0  0  0  0  0  0  0
    9.4220   -0.6840   21.6420 N   0  0  0  0  0  0  0  0  0  0  0  0
    8.4970    0.3830   21.3210 C   0  0  0  0  0  0  0  0  0  0  0  0
    8.8310    1.5610   21.2210 O   0  0  0  0  0  0  0  0  0  0  0  0
    7.2390   -0.1480   21.1100 N   0  0  0  0  0  0  0  0  0  0  0  0
    6.4520    0.3620   20.0890 C   0  0  0  0  0  0  0  0  0  0  0  0
    5.2060    1.1450   20.2730 C   0  0  0  0  0  0  0  0  0  0  0  0
    4.5880    1.5860   19.1160 C   0  0  0  0  0  0  0  0  0  0  0  0
    5.1380    1.2830   17.8860 C   0  0  0  0  0  0  0  0  0  0  0  0
    6.2480    0.5730   17.6850 N   0  0  0  0  0  0  0  0  0  0  0  0
    6.8770    0.1280   18.7870 C   0  0  0  0  0  0  0  0  0  0  0  0
  1  2  1  0
  2  3  1  0
  3  4  1  0
  4  5  2  0
  5  6  1  0
  6  7  1  0
  6  8  2  0
  8  9  1  0
  4 10  1  0
  9 10  2  0
 10 11  1  0
 11 12  1  0
 12 13  2  0
 12 14  1  0
 14 15  1  0
 15 16  2  0
 16 17  1  0
 17 18  2  0
 18 19  1  0
 15 20  1  0
 19 20  2  0
M  END
