pyridine_urea_2210
     RDKit          3D

 27 29  0  0  0  0  0  0  0  0999 V2000
   19.3830    3.1790   25.6310 C   0  0  0  0  0  0  0  0  0  0  0  0
   18.0590    3.2610   24.8180 C   0  0  0  0  0  0  0  0  0  0  0  0
   16.8530    3.6820   25.4170 O   0  0  0  0  0  0  0  0  0  0  0  0
   16.5130    4.5580   24.4800 C   0  0  0  0  0  0  0  0  0  0  0  0
   17.6580    4.9230   24.2790 O   0  0  0  0  0  0  0  0  0  0  0  0
   14.6360    4.6360   23.6550 C   0  0  0  0  0  0  0  0  0  0  0  0
   13.7410    5.7150   23.0990 N   0  0  0  0  0  0  0  0  0  0  0  0
   12.5150    5.0320   22.6820 O   0  0  0  0  0  0  0  0  0  0  0  0
   12.7040    3.7020   22.9580 C   0  0  0  0  0  0  0  0  0  0  0  0
   11.9000    2.5310   22.9090 C   0  0  0  0  0  0  0  0  0  0  0  0
   10.5810    2.6010   23.1110 C   0  0  0  0  0  0  0  0  0  0  0  0
   10.0230    1.4260   23.0680 C   0  0  0  0  0  0  0  0  0  0  0  0
   10.2820    0.1640   22.8900 C   0  0  0  0  0  0  0  0  0  0  0  0
   11.5400   -0.3590   22.6410 C   0  0  0  0  0  0  0  0  0  0  0  0
   10.5380   -1.3720   22.6660 C   0  0  0  0  0  0  0  0  0  0  0  0
    9.6540   -1.2060   21.5810 N   0  0  0  0  0  0  0  0  0  0  0  0
    8.5980   -0.2620   21.3430 C   0  0  0  0  0  0  0  0  0  0  0  0
    8.8620    0.9410   21.3150 O   0  0  0  0  0  0  0  0  0  0  0  0
    7.3720   -0.8000   21.1200 N   0  0  0  0  0  0  0  0  0  0  0  0
    6.6080   -0.1220   20.2060 C   0  0  0  0  0  0  0  0  0  0  0  0
    5.4440    0.6040   20.4530 C   0  0  0  0  0  0  0  0  0  0  0  0
    4.7600    1.2610   19.4260 C   0  0  0  0  0  0  0  0  0  0  0  0
    5.2090    1.2200   18.1200 C   0  0  0  0  0  0  0  0  0  0  0  0
    6.3080    0.5560   17.7370 N   0  0  0  0  0  0  0  0  0  0  0  0
    6.9880   -0.1190   18.8700 C   0  0  0  0  0  0  0  0  0  0  0  0
   12.3120    0.9440   22.6810 C   0  0  0  0  0  0  0  0  0  0  0  0
   13.8800    3.5240   23.4230 N   0  0  0  0  0  0  0  0  0  0  0  0
  1  2  1  0
  2  3  1  0
  3  4  1  0
  4  5  2  0
  4  6  1  0
  6  7  2  0
  7  8  1  0
  8  9  1  0
  9 10  1  0
 10 11  2  0
 11 12  1  0
 12 13  2  0
 13 14  1  0
 14 15  1  0
 15 16  1  0
 16 17  1  0
 17 18  2  0
 17 19  1  0
 19 20  1  0
 20 21  2  0
 21 22  1  0
 22 23  2  0
 23 24  1  0
 20 25  1  0
 24 25  2  0
 10 26  1  0
 14 26  2  0
  6 27  1  0
  9 27  2  0
M  END
