pyridine_urea_799
     RDKit          3D

 23 25  0  0  0  0  0  0  0  0999 V2000
    8.7370    1.5410   20.9120 O   0  0  0  0  0  0  0  0  0  0  0  0
    8.1110    0.7430   21.5880 C   0  0  0  0  0  0  0  0  0  0  0  0
    7.2040   -0.2520   21.0410 N   0  0  0  0  0  0  0  0  0  0  0  0
    6.4820    0.2610   20.0040 C   0  0  0  0  0  0  0  0  0  0  0  0
    5.3160    0.9760   20.2640 C   0  0  0  0  0  0  0  0  0  0  0  0
    4.6250    1.5090   19.1840 C   0  0  0  0  0  0  0  0  0  0  0  0
    5.1320    1.3030   17.9010 C   0  0  0  0  0  0  0  0  0  0  0  0
    6.2430    0.6050   17.6460 N   0  0  0  0  0  0  0  0  0  0  0  0
    6.8980    0.0950   18.7060 C   0  0  0  0  0  0  0  0  0  0  0  0
    8.1690    0.6810   22.9300 N   0  0  0  0  0  0  0  0  0  0  0  0
    9.3810    0.1580   23.4170 C   0  0  0  0  0  0  0  0  0  0  0  0
    9.6120    0.2220   24.8910 C   0  0  0  0  0  0  0  0  0  0  0  0
   10.7690   -0.3170   25.3620 C   0  0  0  0  0  0  0  0  0  0  0  0
   11.6870   -0.8860   24.5070 C   0  0  0  0  0  0  0  0  0  0  0  0
   13.1310   -1.6070   25.0790 Cl  0  0  0  0  0  0  0  0  0  0  0  0
   11.4230   -0.9030   23.1900 C   0  0  0  0  0  0  0  0  0  0  0  0
   12.2350   -1.4630   22.3620 N   0  0  0  0  0  0  0  0  0  0  0  0
   11.5590   -2.3020   21.5230 C   0  0  0  0  0  0  0  0  0  0  0  0
   10.3690   -2.5720   21.5340 O   0  0  0  0  0  0  0  0  0  0  0  0
   12.3560   -2.8240   20.6880 C   0  0  0  0  0  0  0  0  0  0  0  0
   13.5010   -2.3010   20.9020 C   0  0  0  0  0  0  0  0  0  0  0  0
   13.5310   -3.4970   21.3580 C   0  0  0  0  0  0  0  0  0  0  0  0
   10.3050   -0.3950   22.6360 C   0  0  0  0  0  0  0  0  0  0  0  0
  1  2  2  0
  2  3  1  0
  3  4  1  0
  4  5  2  0
  5  6  1  0
  6  7  2  0
  7  8  1  0
  4  9  1  0
  8  9  2  0
  2 10  1  0
 10 11  1  0
 11 12  2  0
 12 13  1  0
 13 14  2  0
 14 15  1  0
 14 16  1  0
 16 17  1  0
 17 18  1  0
 18 19  2  0
 18 20  1  0
 20 21  1  0
 20 22  1  0
 21 22  1  0
 11 23  1  0
 16 23  2  0
M  END
