pyridine_urea_9133
     RDKit          3D

 19 19  0  0  0  0  0  0  0  0999 V2000
    6.8130   -1.4860   19.4270 C   0  0  0  0  0  0  0  0  0  0  0  0
    6.1370   -2.3670   20.4960 C   0  0  0  0  0  0  0  0  0  0  0  0
    5.2040   -1.5100   21.3690 C   0  0  0  0  0  0  0  0  0  0  0  0
    5.3250   -3.3440   19.6520 C   0  0  0  0  0  0  0  0  0  0  0  0
    7.1910   -3.0240   21.4110 C   0  0  0  0  0  0  0  0  0  0  0  0
    6.9260   -4.0230   22.0720 O   0  0  0  0  0  0  0  0  0  0  0  0
    8.5440   -2.4890   21.5200 N   0  0  0  0  0  0  0  0  0  0  0  0
    9.2400   -2.5090   22.7040 C   0  0  0  0  0  0  0  0  0  0  0  0
    8.9790   -1.3540   23.4200 C   0  0  0  0  0  0  0  0  0  0  0  0
    9.0890   -0.1420   22.8000 N   0  0  0  0  0  0  0  0  0  0  0  0
    8.5030    0.4140   21.6720 C   0  0  0  0  0  0  0  0  0  0  0  0
    8.9930    1.6330   21.1050 O   0  0  0  0  0  0  0  0  0  0  0  0
    7.4420   -0.2480   21.1680 N   0  0  0  0  0  0  0  0  0  0  0  0
    6.6980    0.3150   20.1520 C   0  0  0  0  0  0  0  0  0  0  0  0
    5.5550    1.0540   20.4910 C   0  0  0  0  0  0  0  0  0  0  0  0
    4.7980    1.6220   19.4590 C   0  0  0  0  0  0  0  0  0  0  0  0
    5.2160    1.4360   18.0440 C   0  0  0  0  0  0  0  0  0  0  0  0
    6.3040    0.7260   17.7440 N   0  0  0  0  0  0  0  0  0  0  0  0
    7.0000    0.1950   18.7810 C   0  0  0  0  0  0  0  0  0  0  0  0
  1  2  1  0
  2  3  1  0
  2  4  1  0
  2  5  1  0
  5  6  2  0
  5  7  1  0
  7  8  1  0
  8  9  1  0
  9 10  1  0
 10 11  1  0
 11 12  2  0
 11 13  1  0
 13 14  1  0
 14 15  2  0
 15 16  1  0
 16 17  2  0
 17 18  1  0
 14 19  1  0
 18 19  2  0
M  END
