pyridine_urea_10725
     RDKit          3D

 20 21  0  0  0  0  0  0  0  0999 V2000
   11.6210   -2.7310   24.6680 C   0  0  0  0  0  0  0  0  0  0  0  0
   12.7730   -1.7950   24.7430 C   0  0  0  0  0  0  0  0  0  0  0  0
   12.6300   -0.5980   25.3350 C   0  0  0  0  0  0  0  0  0  0  0  0
   13.8820   -2.6410   25.3010 C   0  0  0  0  0  0  0  0  0  0  0  0
   12.8280   -1.6120   23.2670 C   0  0  0  0  0  0  0  0  0  0  0  0
   12.1550   -1.2810   21.9800 C   0  0  0  0  0  0  0  0  0  0  0  0
   10.6960   -0.8730   21.8080 C   0  0  0  0  0  0  0  0  0  0  0  0
    9.8220   -0.7320   22.9540 C   0  0  0  0  0  0  0  0  0  0  0  0
    8.4750   -0.3420   22.7530 N   0  0  0  0  0  0  0  0  0  0  0  0
    8.2050    0.2720   21.5750 C   0  0  0  0  0  0  0  0  0  0  0  0
    8.8500    1.2420   21.1530 O   0  0  0  0  0  0  0  0  0  0  0  0
    7.1460   -0.3520   20.9900 N   0  0  0  0  0  0  0  0  0  0  0  0
    6.4570    0.2190   19.9440 C   0  0  0  0  0  0  0  0  0  0  0  0
    5.2910    0.9330   20.2140 C   0  0  0  0  0  0  0  0  0  0  0  0
    4.6200    1.5210   19.1600 C   0  0  0  0  0  0  0  0  0  0  0  0
    5.1350    1.3740   17.8930 C   0  0  0  0  0  0  0  0  0  0  0  0
    6.2450    0.6850   17.6150 N   0  0  0  0  0  0  0  0  0  0  0  0
    6.8820    0.1210   18.6480 C   0  0  0  0  0  0  0  0  0  0  0  0
   10.4530   -1.0020   24.0430 C   0  0  0  0  0  0  0  0  0  0  0  0
   11.7430   -1.3820   24.0930 N   0  0  0  0  0  0  0  0  0  0  0  0
  2  1  1  0
  2  3  1  0
  2  4  1  0
  2  5  1  0
  5  6  2  0
  6  7  1  0
  7  8  2  0
  8  9  1  0
  9 10  1  0
 10 11  2  0
 10 12  1  0
 12 13  1  0
 13 14  2  0
 14 15  1  0
 15 16  2  0
 16 17  1  0
 13 18  1  0
 17 18  2  0
  8 19  1  0
  5 20  1  0
 19 20  2  0
M  END
