pyridine_urea_14419
     RDKit          3D

 21 23  0  0  0  0  0  0  0  0999 V2000
    9.0920    1.0650   21.8990 O   0  0  0  0  0  0  0  0  0  0  0  0
    8.7690   -0.0350   21.4690 C   0  0  0  0  0  0  0  0  0  0  0  0
    9.7540   -1.0880   21.2730 N   0  0  0  0  0  0  0  0  0  0  0  0
   10.6550   -1.5240   22.2320 C   0  0  0  0  0  0  0  0  0  0  0  0
   12.0920   -1.4410   22.1330 C   0  0  0  0  0  0  0  0  0  0  0  0
   12.5840   -2.0330   23.0960 C   0  0  0  0  0  0  0  0  0  0  0  0
   12.1390   -2.0910   24.1540 C   0  0  0  0  0  0  0  0  0  0  0  0
   11.0910   -1.6890   24.8330 C   0  0  0  0  0  0  0  0  0  0  0  0
   11.9480   -2.3910   25.5500 N   0  0  0  0  0  0  0  0  0  0  0  0
   13.1820   -2.9470   24.9790 C   0  0  0  0  0  0  0  0  0  0  0  0
   13.6110   -2.7710   23.4960 C   0  0  0  0  0  0  0  0  0  0  0  0
   12.7140   -2.0660   20.9630 C   0  0  0  0  0  0  0  0  0  0  0  0
   13.5640   -1.1820   21.2500 C   0  0  0  0  0  0  0  0  0  0  0  0
   12.9090   -0.2840   22.1020 C   0  0  0  0  0  0  0  0  0  0  0  0
    7.4930   -0.4520   21.0990 N   0  0  0  0  0  0  0  0  0  0  0  0
    6.6960    0.1250   20.1510 C   0  0  0  0  0  0  0  0  0  0  0  0
    5.5580    0.8980   20.4010 C   0  0  0  0  0  0  0  0  0  0  0  0
    4.8000    1.4710   19.3580 C   0  0  0  0  0  0  0  0  0  0  0  0
    5.1890    1.2660   18.0400 C   0  0  0  0  0  0  0  0  0  0  0  0
    6.2750    0.5200   17.7510 N   0  0  0  0  0  0  0  0  0  0  0  0
    7.0230   -0.0510   18.8190 C   0  0  0  0  0  0  0  0  0  0  0  0
  1  2  2  0
  2  3  1  0
  3  4  1  0
  5  4  1  0
  5  6  1  0
  6  7  2  0
  7  8  1  0
  8  9  2  0
  9 10  1  0
  6 11  1  0
 10 11  2  0
  5 12  1  0
 12 13  1  0
  5 14  1  0
 13 14  1  0
  2 15  1  0
 15 16  1  0
 16 17  2  0
 17 18  1  0
 18 19  2  0
 19 20  1  0
 16 21  1  0
 20 21  2  0
M  END
