pyridine_urea_15007
     RDKit          3D

 19 20  0  0  0  0  0  0  0  0999 V2000
   13.5940    0.6540   22.8030 C   0  0  0  0  0  0  0  0  0  0  0  0
   12.2030    0.3580   22.8470 C   0  0  0  0  0  0  0  0  0  0  0  0
   11.2730    1.4870   22.9210 C   0  0  0  0  0  0  0  0  0  0  0  0
   10.0380    0.8340   22.9660 C   0  0  0  0  0  0  0  0  0  0  0  0
    9.6760   -0.5860   22.9350 C   0  0  0  0  0  0  0  0  0  0  0  0
   10.6440   -1.8040   22.8380 C   0  0  0  0  0  0  0  0  0  0  0  0
    9.1750   -2.0050   22.8860 C   0  0  0  0  0  0  0  0  0  0  0  0
    8.7340   -1.6120   21.5400 N   0  0  0  0  0  0  0  0  0  0  0  0
    8.1300   -0.4120   21.2900 C   0  0  0  0  0  0  0  0  0  0  0  0
    8.7110    0.6660   21.2800 O   0  0  0  0  0  0  0  0  0  0  0  0
    6.8120   -0.6040   21.0320 N   0  0  0  0  0  0  0  0  0  0  0  0
    6.1880    0.0920   20.0120 C   0  0  0  0  0  0  0  0  0  0  0  0
    5.0100    0.7960   20.1340 C   0  0  0  0  0  0  0  0  0  0  0  0
    4.4940    1.4640   19.0380 C   0  0  0  0  0  0  0  0  0  0  0  0
    5.1880    1.4010   17.8410 C   0  0  0  0  0  0  0  0  0  0  0  0
    6.3330    0.7170   17.6920 N   0  0  0  0  0  0  0  0  0  0  0  0
    6.8060    0.0790   18.7750 C   0  0  0  0  0  0  0  0  0  0  0  0
   12.0200   -1.0240   22.8100 C   0  0  0  0  0  0  0  0  0  0  0  0
   13.1670   -1.9650   22.7270 C   0  0  0  0  0  0  0  0  0  0  0  0
  1  2  1  0
  2  3  2  0
  3  4  1  0
  4  5  2  0
  5  6  1  0
  6  7  1  0
  7  8  1  0
  8  9  1  0
  9 10  2  0
  9 11  1  0
 11 12  1  0
 12 13  2  0
 13 14  1  0
 14 15  2  0
 15 16  1  0
 12 17  1  0
 16 17  2  0
  2 18  1  0
  6 18  2  0
 18 19  1  0
M  END
