pyridine_urea_11773
     RDKit          3D

 26 28  0  0  0  0  0  0  0  0999 V2000
   10.0080    4.3920   23.5930 N   0  0  0  0  0  0  0  0  0  0  0  0
   11.3350    4.2860   23.2700 C   0  0  0  0  0  0  0  0  0  0  0  0
   12.0640    5.4500   22.8910 O   0  0  0  0  0  0  0  0  0  0  0  0
   11.9340    2.9020   23.3470 C   0  0  0  0  0  0  0  0  0  0  0  0
   13.0390    2.5110   22.7010 C   0  0  0  0  0  0  0  0  0  0  0  0
   13.5900    1.2090   22.7740 C   0  0  0  0  0  0  0  0  0  0  0  0
   13.0240    0.2710   23.5220 C   0  0  0  0  0  0  0  0  0  0  0  0
   11.9310    0.5660   24.2170 C   0  0  0  0  0  0  0  0  0  0  0  0
   11.4250    1.8660   24.1100 C   0  0  0  0  0  0  0  0  0  0  0  0
   10.3800    1.8060   24.8870 O   0  0  0  0  0  0  0  0  0  0  0  0
   10.2120    0.8040   24.1080 C   0  0  0  0  0  0  0  0  0  0  0  0
    8.9700    0.5610   24.0080 C   0  0  0  0  0  0  0  0  0  0  0  0
    8.6200   -0.3930   23.1840 C   0  0  0  0  0  0  0  0  0  0  0  0
    9.5780   -1.0850   22.4740 C   0  0  0  0  0  0  0  0  0  0  0  0
    8.8640   -1.9320   21.6650 N   0  0  0  0  0  0  0  0  0  0  0  0
    7.9870   -1.0150   21.0560 C   0  0  0  0  0  0  0  0  0  0  0  0
    8.3730    0.2830   20.8940 O   0  0  0  0  0  0  0  0  0  0  0  0
    6.7640   -1.3850   20.7040 N   0  0  0  0  0  0  0  0  0  0  0  0
    6.1940   -0.4710   19.8920 C   0  0  0  0  0  0  0  0  0  0  0  0
    4.9670    0.3570   20.1720 C   0  0  0  0  0  0  0  0  0  0  0  0
    4.4590    1.3540   19.1220 C   0  0  0  0  0  0  0  0  0  0  0  0
    5.1760    1.4420   17.9360 C   0  0  0  0  0  0  0  0  0  0  0  0
    6.2950    0.6590   17.7330 N   0  0  0  0  0  0  0  0  0  0  0  0
    6.7900   -0.2570   18.6650 C   0  0  0  0  0  0  0  0  0  0  0  0
   10.9410   -0.8780   22.5790 C   0  0  0  0  0  0  0  0  0  0  0  0
   11.2770    0.1330   23.4500 C   0  0  0  0  0  0  0  0  0  0  0  0
  1  2  1  0
  2  3  2  0
  2  4  1  0
  4  5  2  0
  5  6  1  0
  6  7  2  0
  7  8  1  0
  4  9  1  0
  8  9  2  0
  9 10  1  0
 10 11  1  0
 11 12  2  0
 12 13  1  0
 13 14  2  0
 14 15  1  0
 15 16  1  0
 16 17  2  0
 16 18  1  0
 18 19  1  0
 19 20  2  0
 20 21  1  0
 21 22  2  0
 22 23  1  0
 19 24  1  0
 23 24  2  0
 14 25  1  0
 11 26  1  0
 25 26  2  0
M  END
