pyridine_urea_8939
     RDKit          3D

 20 22  0  0  0  0  0  0  0  0999 V2000
    8.1580    1.5690   20.8790 O   0  0  0  0  0  0  0  0  0  0  0  0
    8.1410    0.3970   21.2330 C   0  0  0  0  0  0  0  0  0  0  0  0
    7.0740   -0.4130   21.0220 N   0  0  0  0  0  0  0  0  0  0  0  0
    6.4450    0.1320   19.8910 C   0  0  0  0  0  0  0  0  0  0  0  0
    5.1770    0.9480   20.1530 C   0  0  0  0  0  0  0  0  0  0  0  0
    4.5280    1.5550   19.0920 C   0  0  0  0  0  0  0  0  0  0  0  0
    5.0800    1.3830   17.8300 C   0  0  0  0  0  0  0  0  0  0  0  0
    6.2070    0.6310   17.6480 N   0  0  0  0  0  0  0  0  0  0  0  0
    6.9070   -0.0060   18.6590 C   0  0  0  0  0  0  0  0  0  0  0  0
    9.1700   -0.1760   21.8010 N   0  0  0  0  0  0  0  0  0  0  0  0
   10.2840   -0.5550   22.3330 C   0  0  1  0  0  0  0  0  0  0  0  0
   10.9460    0.5250   22.8360 C   0  0  0  0  0  0  0  0  0  0  0  0
   12.2820    0.3370   23.0240 C   0  0  0  0  0  0  0  0  0  0  0  0
   12.4750   -0.8200   23.7140 C   0  0  0  0  0  0  0  0  0  0  0  0
   13.6540   -1.0620   24.1710 N   0  0  0  0  0  0  0  0  0  0  0  0
   13.8280   -2.2800   24.8920 C   0  0  0  0  0  0  0  0  0  0  0  0
   12.6770   -3.1350   25.0170 C   0  0  0  0  0  0  0  0  0  0  0  0
   11.4640   -2.8720   24.5260 C   0  0  0  0  0  0  0  0  0  0  0  0
   11.3990   -1.6600   23.8740 C   0  0  0  0  0  0  0  0  0  0  0  0
   10.1710   -1.4320   23.4250 C   0  0  0  0  0  0  0  0  0  0  0  0
  1  2  2  0
  2  3  1  0
  3  4  1  0
  4  5  2  0
  5  6  1  0
  6  7  2  0
  7  8  1  0
  4  9  1  0
  8  9  2  0
  2 10  1  0
 11 10  1  1
 11 12  1  0
 12 13  1  0
 13 14  1  0
 14 15  2  0
 15 16  1  0
 16 17  2  0
 17 18  1  0
 14 19  1  0
 18 19  2  0
 11 20  1  0
 19 20  1  0
M  END
