pyridine_urea_1305
     RDKit          3D

 20 21  0  0  0  0  0  0  0  0999 V2000
   12.5820   -0.6250   24.8870 C   0  0  0  0  0  0  0  0  0  0  0  0
   12.3760    0.0800   23.5170 C   0  0  0  0  0  0  0  0  0  0  0  0
   12.3380    1.5980   23.4170 C   0  0  0  0  0  0  0  0  0  0  0  0
   11.0370   -0.3170   23.0560 C   0  0  0  0  0  0  0  0  0  0  0  0
   11.1870   -1.6260   22.8570 C   0  0  1  0  0  0  0  0  0  0  0  0
   10.0780   -2.1340   22.2070 C   0  0  0  0  0  0  0  0  0  0  0  0
    9.5000   -1.1610   21.2660 N   0  0  0  0  0  0  0  0  0  0  0  0
    8.5560   -0.1870   21.5100 C   0  0  0  0  0  0  0  0  0  0  0  0
    8.8280    0.8770   22.0340 O   0  0  0  0  0  0  0  0  0  0  0  0
    7.3240   -0.5650   21.0480 N   0  0  0  0  0  0  0  0  0  0  0  0
    6.5470    0.0590   20.1080 C   0  0  0  0  0  0  0  0  0  0  0  0
    5.3840    0.7680   20.3520 C   0  0  0  0  0  0  0  0  0  0  0  0
    4.6690    1.3850   19.3280 C   0  0  0  0  0  0  0  0  0  0  0  0
    5.1710    1.2640   18.0290 C   0  0  0  0  0  0  0  0  0  0  0  0
    6.2930    0.5770   17.7490 N   0  0  0  0  0  0  0  0  0  0  0  0
    6.9430   -0.0030   18.7830 C   0  0  0  0  0  0  0  0  0  0  0  0
   12.5940   -1.6810   22.6710 C   0  0  0  0  0  0  0  0  0  0  0  0
   12.6420   -2.1500   21.3360 C   0  0  0  0  0  0  0  0  0  0  0  0
   13.3640   -2.5850   23.6280 C   0  0  0  0  0  0  0  0  0  0  0  0
   13.0660   -0.5190   22.7260 O   0  0  0  0  0  0  0  0  0  0  0  0
  2  1  1  0
  2  3  1  0
  2  4  1  0
  4  5  1  0
  5  6  1  6
  6  7  1  0
  7  8  1  0
  8  9  2  0
  8 10  1  0
 10 11  1  0
 11 12  2  0
 12 13  1  0
 13 14  2  0
 14 15  1  0
 11 16  1  0
 15 16  2  0
  5 17  1  0
 17 18  1  0
 17 19  1  0
  2 20  1  0
 17 20  1  0
M  END
