pyridine_urea_5521
     RDKit          3D

 18 19  0  0  0  0  0  0  0  0999 V2000
    8.8550    1.1860   21.1380 O   0  0  0  0  0  0  0  0  0  0  0  0
    8.3640    0.0930   21.4590 C   0  0  0  0  0  0  0  0  0  0  0  0
    9.0130   -0.7730   22.2840 N   0  0  0  0  0  0  0  0  0  0  0  0
   10.2570   -0.2750   22.8000 C   0  0  0  0  0  0  0  0  0  0  0  0
   10.1110    0.5320   24.1330 C   0  0  0  0  0  0  0  0  0  0  0  0
   10.7600   -0.2060   25.1480 O   0  0  0  0  0  0  0  0  0  0  0  0
   11.6260   -0.8590   24.3180 C   0  0  2  0  0  0  0  0  0  0  0  0
   11.4620   -2.3070   23.9260 C   0  0  0  0  0  0  0  0  0  0  0  0
   12.4790   -3.0150   24.5330 C   0  0  0  0  0  0  0  0  0  0  0  0
   13.0610   -2.2600   25.3010 O   0  0  0  0  0  0  0  0  0  0  0  0
   12.8460   -0.9010   24.9040 C   0  0  0  0  0  0  0  0  0  0  0  0
    7.1540   -0.3940   21.0700 N   0  0  0  0  0  0  0  0  0  0  0  0
    6.4610    0.1710   20.0390 C   0  0  0  0  0  0  0  0  0  0  0  0
    5.1740    0.9140   20.3480 C   0  0  0  0  0  0  0  0  0  0  0  0
    4.4790    1.5430   19.1680 C   0  0  0  0  0  0  0  0  0  0  0  0
    5.1580    1.3490   17.8400 C   0  0  0  0  0  0  0  0  0  0  0  0
    6.2930    0.6660   17.6500 N   0  0  0  0  0  0  0  0  0  0  0  0
    6.8970    0.1070   18.7260 C   0  0  0  0  0  0  0  0  0  0  0  0
  1  2  2  0
  2  3  1  0
  3  4  1  0
  4  5  1  0
  5  6  1  0
  7  6  1  1
  7  8  1  0
  8  9  1  0
  9 10  1  0
  7 11  1  0
 10 11  1  0
  2 12  1  0
 12 13  1  0
 13 14  2  0
 14 15  1  0
 15 16  2  0
 16 17  1  0
 13 18  1  0
 17 18  2  0
M  END
