pyridine_urea_12357
     RDKit          3D

 22 24  0  0  0  0  0  0  0  0999 V2000
   13.6640   -2.2410   25.4260 C   0  0  0  0  0  0  0  0  0  0  0  0
   13.1590   -0.9040   25.5130 O   0  0  0  0  0  0  0  0  0  0  0  0
   12.0890   -0.8500   24.6060 C   0  0  0  0  0  0  0  0  0  0  0  0
   12.6210   -1.2110   23.1790 C   0  0  0  0  0  0  0  0  0  0  0  0
   11.7430   -1.2590   22.1560 C   0  0  0  0  0  0  0  0  0  0  0  0
   10.3000   -0.9420   22.4800 C   0  0  0  0  0  0  0  0  0  0  0  0
    9.3340   -0.9670   21.5350 N   0  0  0  0  0  0  0  0  0  0  0  0
    8.4880    0.0910   21.2700 C   0  0  0  0  0  0  0  0  0  0  0  0
    8.8420    1.2720   21.1840 O   0  0  0  0  0  0  0  0  0  0  0  0
    7.1800   -0.3610   21.0720 N   0  0  0  0  0  0  0  0  0  0  0  0
    6.4750    0.2250   19.9540 C   0  0  0  0  0  0  0  0  0  0  0  0
    5.2160    1.0010   20.3450 C   0  0  0  0  0  0  0  0  0  0  0  0
    4.4950    1.6560   19.1750 C   0  0  0  0  0  0  0  0  0  0  0  0
    5.1150    1.4510   17.8100 C   0  0  0  0  0  0  0  0  0  0  0  0
    6.2400    0.7170   17.6090 N   0  0  0  0  0  0  0  0  0  0  0  0
    6.9040    0.1180   18.6550 C   0  0  0  0  0  0  0  0  0  0  0  0
    9.8350   -0.6150   23.7290 C   0  0  0  0  0  0  0  0  0  0  0  0
    8.4780   -0.3400   23.9410 C   0  0  0  0  0  0  0  0  0  0  0  0
    7.9180   -0.0250   25.1250 N   0  0  0  0  0  0  0  0  0  0  0  0
    8.7500    0.0190   26.1810 C   0  0  0  0  0  0  0  0  0  0  0  0
   10.0960   -0.2480   26.0010 C   0  0  0  0  0  0  0  0  0  0  0  0
   10.7040   -0.5670   24.8010 C   0  0  0  0  0  0  0  0  0  0  0  0
  1  2  1  0
  2  3  1  0
  3  4  2  0
  4  5  1  0
  5  6  2  0
  6  7  1  0
  7  8  1  0
  8  9  2  0
  8 10  1  0
 10 11  1  0
 11 12  2  0
 12 13  1  0
 13 14  2  0
 14 15  1  0
 11 16  1  0
 15 16  2  0
  6 17  1  0
 17 18  1  0
 18 19  2  0
 19 20  1  0
 20 21  2  0
  3 22  1  0
 17 22  2  0
 21 22  1  0
M  END
