pyridine_urea_13310
     RDKit          3D

 20 22  0  0  0  0  0  0  0  0999 V2000
    8.6860    0.7000   21.2540 O   0  0  0  0  0  0  0  0  0  0  0  0
    8.3220   -0.4660   21.3230 C   0  0  0  0  0  0  0  0  0  0  0  0
    7.0910   -0.8970   20.9320 N   0  0  0  0  0  0  0  0  0  0  0  0
    6.4090   -0.1620   19.9550 C   0  0  0  0  0  0  0  0  0  0  0  0
    5.1930    0.4690   20.2400 C   0  0  0  0  0  0  0  0  0  0  0  0
    4.5490    1.2130   19.2460 C   0  0  0  0  0  0  0  0  0  0  0  0
    5.1470    1.2950   18.0020 C   0  0  0  0  0  0  0  0  0  0  0  0
    6.3100    0.6900   17.7150 N   0  0  0  0  0  0  0  0  0  0  0  0
    6.9070   -0.0190   18.6880 C   0  0  0  0  0  0  0  0  0  0  0  0
    9.1760   -1.4310   21.8240 N   0  0  0  0  0  0  0  0  0  0  0  0
   10.2330   -0.7840   22.5390 C   0  0  1  0  0  0  0  0  0  0  0  0
    9.8360   -0.6000   23.9620 C   0  0  0  0  0  0  0  0  0  0  0  0
   10.6320    0.3580   24.5320 C   0  0  2  0  0  0  0  0  0  0  0  0
   10.1130    1.6430   24.3340 C   0  0  0  0  0  0  0  0  0  0  0  0
   11.0450    2.4730   23.1840 S   0  0  0  0  0  0  0  0  0  0  0  0
   11.5940    3.6800   23.7710 O   0  0  0  0  0  0  0  0  0  0  0  0
   10.2280    2.5160   22.0060 O   0  0  0  0  0  0  0  0  0  0  0  0
   12.2580    1.1760   23.1180 C   0  0  0  0  0  0  0  0  0  0  0  0
   11.8700   -0.0740   23.5960 C   0  0  2  0  0  0  0  0  0  0  0  0
   11.5560   -1.0620   22.6550 C   0  0  0  0  0  0  0  0  0  0  0  0
  1  2  2  0
  2  3  1  0
  3  4  1  0
  4  5  2  0
  5  6  1  0
  6  7  2  0
  7  8  1  0
  4  9  1  0
  8  9  2  0
  2 10  1  0
 11 10  1  1
 11 12  1  0
 13 12  1  6
 13 14  1  0
 15 14  1  0
 15 16  2  0
 15 17  2  0
 15 18  1  0
 13 19  1  0
 19 18  1  6
 11 20  1  0
 19 20  1  0
M  END
