pyridine_urea_10090
     RDKit          3D

 24 26  0  0  0  0  0  0  0  0999 V2000
    8.7870    0.8300   21.4350 O   0  0  0  0  0  0  0  0  0  0  0  0
    8.4580   -0.3250   21.4870 C   0  0  0  0  0  0  0  0  0  0  0  0
    9.2970   -1.2920   21.9950 N   0  0  0  0  0  0  0  0  0  0  0  0
   10.5660   -0.9710   22.5360 C   0  0  0  0  0  0  0  0  0  0  0  0
   10.6970    0.0950   23.4210 C   0  0  0  0  0  0  0  0  0  0  0  0
   11.3540    1.3050   23.0760 C   0  0  0  0  0  0  0  0  0  0  0  0
   10.4750    2.4390   23.1720 N   0  0  0  0  0  0  0  0  0  0  0  0
   10.0730    2.9990   21.9300 C   0  0  0  0  0  0  0  0  0  0  0  0
    8.9890    2.5530   21.1270 O   0  0  0  0  0  0  0  0  0  0  0  0
   10.9890    4.0930   21.7490 N   0  0  0  0  0  0  0  0  0  0  0  0
   11.1350    4.6560   22.9590 C   0  0  0  0  0  0  0  0  0  0  0  0
   12.4350    5.4050   23.2330 C   0  0  0  0  0  0  0  0  0  0  0  0
   12.1730    6.7030   23.6180 C   0  0  0  0  0  0  0  0  0  0  0  0
   10.7870    6.8640   23.4530 C   0  0  0  0  0  0  0  0  0  0  0  0
   10.1630    5.6380   23.2000 C   0  0  0  0  0  0  0  0  0  0  0  0
   10.7940    3.6700   23.9010 C   0  0  0  0  0  0  0  0  0  0  0  0
   10.7240    3.8990   25.0870 O   0  0  0  0  0  0  0  0  0  0  0  0
    7.2400   -0.7870   21.0430 N   0  0  0  0  0  0  0  0  0  0  0  0
    6.5850   -0.1430   20.0430 C   0  0  0  0  0  0  0  0  0  0  0  0
    5.4530    0.5820   20.4270 C   0  0  0  0  0  0  0  0  0  0  0  0
    4.7220    1.2960   19.4750 C   0  0  0  0  0  0  0  0  0  0  0  0
    5.0730    1.3220   18.1260 C   0  0  0  0  0  0  0  0  0  0  0  0
    6.2530    0.5600   17.6900 N   0  0  0  0  0  0  0  0  0  0  0  0
    6.9680   -0.1590   18.7320 C   0  0  0  0  0  0  0  0  0  0  0  0
  1  2  2  0
  2  3  1  0
  3  4  1  0
  4  5  1  0
  5  6  1  0
  6  7  1  0
  7  8  1  0
  8  9  2  0
  8 10  1  0
 10 11  1  0
 11 12  1  0
 12 13  1  0
 13 14  1  0
 11 15  1  0
 14 15  1  0
  7 16  1  0
 11 16  1  0
 16 17  2  0
  2 18  1  0
 18 19  1  0
 19 20  2  0
 20 21  1  0
 21 22  2  0
 22 23  1  0
 19 24  1  0
 23 24  2  0
M  END
