pyridine_urea_6492
     RDKit          3D

 22 24  0  0  0  0  0  0  0  0999 V2000
    8.6360    0.9210   21.1080 O   0  0  0  0  0  0  0  0  0  0  0  0
    8.4550   -0.2760   21.2910 C   0  0  0  0  0  0  0  0  0  0  0  0
    7.2350   -0.8530   21.0290 N   0  0  0  0  0  0  0  0  0  0  0  0
    6.5130   -0.1390   20.0020 C   0  0  0  0  0  0  0  0  0  0  0  0
    5.2310    0.5880   20.4010 C   0  0  0  0  0  0  0  0  0  0  0  0
    4.5610    1.3170   19.2850 C   0  0  0  0  0  0  0  0  0  0  0  0
    5.1350    1.2750   18.0250 C   0  0  0  0  0  0  0  0  0  0  0  0
    6.2650    0.6090   17.7280 N   0  0  0  0  0  0  0  0  0  0  0  0
    6.9150   -0.0670   18.6950 C   0  0  0  0  0  0  0  0  0  0  0  0
    9.4540   -1.1150   21.7350 N   0  0  0  0  0  0  0  0  0  0  0  0
   10.3980   -0.4670   22.6890 C   0  0  0  0  0  0  0  0  0  0  0  0
   10.2150    0.8490   22.7980 C   0  0  0  0  0  0  0  0  0  0  0  0
    8.8460    0.5590   23.3910 C   0  0  0  0  0  0  0  0  0  0  0  0
    8.2690   -0.5370   23.9350 C   0  0  0  0  0  0  0  0  0  0  0  0
    6.9700   -0.3740   24.3530 C   0  0  0  0  0  0  0  0  0  0  0  0
    6.2860    0.8530   24.2260 C   0  0  0  0  0  0  0  0  0  0  0  0
    6.7220    2.2360   23.6490 C   0  0  0  0  0  0  0  0  0  0  0  0
    6.0310    3.3990   23.5450 F   0  0  0  0  0  0  0  0  0  0  0  0
    8.1450    1.8710   23.2450 C   0  0  0  0  0  0  0  0  0  0  0  0
   10.8140   -1.2760   23.9330 C   0  0  0  0  0  0  0  0  0  0  0  0
   12.1430   -1.3250   23.5940 C   0  0  0  0  0  0  0  0  0  0  0  0
   11.9280   -0.6860   22.3690 C   0  0  0  0  0  0  0  0  0  0  0  0
  1  2  2  0
  2  3  1  0
  3  4  1  0
  4  5  2  0
  5  6  1  0
  6  7  2  0
  7  8  1  0
  4  9  1  0
  8  9  2  0
  2 10  1  0
 11 10  1  0
 11 12  1  0
 12 13  1  0
 13 14  2  0
 14 15  1  0
 15 16  2  0
 16 17  1  0
 17 18  1  0
 13 19  1  0
 17 19  2  0
 11 20  1  0
 20 21  1  0
 11 22  1  0
 21 22  1  0
M  END
