pyridine_urea_10540
     RDKit          3D

 21 23  0  0  0  0  0  0  0  0999 V2000
    8.4600    0.8080   20.9750 O   0  0  0  0  0  0  0  0  0  0  0  0
    8.1720   -0.3530   21.2300 C   0  0  0  0  0  0  0  0  0  0  0  0
    7.0170   -0.9260   20.8330 N   0  0  0  0  0  0  0  0  0  0  0  0
    6.2690   -0.1530   19.9540 C   0  0  0  0  0  0  0  0  0  0  0  0
    4.9320    0.5180   20.2710 C   0  0  0  0  0  0  0  0  0  0  0  0
    4.3660    1.3310   19.1100 C   0  0  0  0  0  0  0  0  0  0  0  0
    5.1610    1.3750   17.8440 C   0  0  0  0  0  0  0  0  0  0  0  0
    6.3270    0.7340   17.6840 N   0  0  0  0  0  0  0  0  0  0  0  0
    6.8270    0.0150   18.7040 C   0  0  0  0  0  0  0  0  0  0  0  0
    9.0170   -1.1230   21.9560 N   0  0  0  0  0  0  0  0  0  0  0  0
    9.9400   -0.2600   22.5860 C   0  0  2  0  0  0  0  0  0  0  0  0
   10.7510   -0.7740   23.5190 C   0  0  0  0  0  0  0  0  0  0  0  0
   11.2320    0.2850   24.2700 C   0  0  0  0  0  0  0  0  0  0  0  0
   12.1820    1.0250   23.6190 C   0  0  0  0  0  0  0  0  0  0  0  0
   13.0170    1.9540   22.9490 C   0  0  0  0  0  0  0  0  0  0  0  0
   12.9090    3.3410   22.5130 C   0  0  0  0  0  0  0  0  0  0  0  0
   11.6040    3.9420   22.8200 C   0  0  0  0  0  0  0  0  0  0  0  0
   10.7290    3.1740   23.4280 C   0  0  0  0  0  0  0  0  0  0  0  0
   11.0260    1.8680   23.7710 C   0  0  0  0  0  0  0  0  0  0  0  0
    9.8570    1.3420   24.3850 O   0  0  0  0  0  0  0  0  0  0  0  0
    9.2210    0.6490   23.3090 C   0  0  0  0  0  0  0  0  0  0  0  0
  1  2  2  0
  2  3  1  0
  3  4  1  0
  4  5  2  0
  5  6  1  0
  6  7  2  0
  7  8  1  0
  4  9  1  0
  8  9  2  0
  2 10  1  0
 11 10  1  1
 11 12  1  0
 12 13  1  0
 13 14  1  0
 14 15  1  0
 15 16  2  0
 16 17  1  0
 17 18  2  0
 14 19  2  0
 18 19  1  0
 19 20  1  0
 11 21  1  0
 20 21  1  0
M  END
