pyridine_urea_11607
     RDKit          3D

 16 17  0  0  0  0  0  0  0  0999 V2000
    8.9310    1.0750   21.2240 O   0  0  0  0  0  0  0  0  0  0  0  0
    8.3780   -0.0010   21.5130 C   0  0  0  0  0  0  0  0  0  0  0  0
    7.1560   -0.4320   21.0780 N   0  0  0  0  0  0  0  0  0  0  0  0
    6.4730    0.1460   20.0160 C   0  0  0  0  0  0  0  0  0  0  0  0
    5.3070    0.8680   20.2770 C   0  0  0  0  0  0  0  0  0  0  0  0
    4.6250    1.4700   19.2250 C   0  0  0  0  0  0  0  0  0  0  0  0
    5.1360    1.3220   17.9540 C   0  0  0  0  0  0  0  0  0  0  0  0
    6.2450    0.6260   17.6780 N   0  0  0  0  0  0  0  0  0  0  0  0
    6.8900    0.0530   18.7120 C   0  0  0  0  0  0  0  0  0  0  0  0
    8.9520   -0.9340   22.3300 N   0  0  0  0  0  0  0  0  0  0  0  0
   10.3850   -1.1520   22.2480 C   0  0  2  0  0  0  0  0  0  0  0  0
   11.0730   -1.8320   23.2220 C   0  0  0  0  0  0  0  0  0  0  0  0
   11.1200   -0.3900   23.4280 C   0  0  1  0  0  0  0  0  0  0  0  0
   12.3640    0.2030   23.2520 C   0  0  0  0  0  0  0  0  0  0  0  0
   13.1620   -0.3350   22.3220 F   0  0  0  0  0  0  0  0  0  0  0  0
   12.1400    1.4650   22.8390 F   0  0  0  0  0  0  0  0  0  0  0  0
  1  2  2  0
  2  3  1  0
  3  4  1  0
  4  5  2  0
  5  6  1  0
  6  7  2  0
  7  8  1  0
  4  9  1  0
  8  9  2  0
  2 10  1  0
 11 10  1  1
 11 12  1  0
 11 13  1  0
 12 13  1  0
 13 14  1  6
 14 15  1  0
 14 16  1  0
M  END
