pyridine_urea_8679
     RDKit          3D

 21 21  0  0  0  0  0  0  0  0999 V2000
   13.9440   -2.7500   25.8420 C   0  0  0  0  0  0  0  0  0  0  0  0
   12.7350   -2.9340   25.1640 O   0  0  0  0  0  0  0  0  0  0  0  0
   12.8960   -2.7690   23.8390 C   0  0  0  0  0  0  0  0  0  0  0  0
   13.9520   -3.0600   23.3290 O   0  0  0  0  0  0  0  0  0  0  0  0
   11.9090   -2.2640   23.0540 C   0  0  0  0  0  0  0  0  0  0  0  0
   12.3350   -1.1050   22.4430 C   0  0  0  0  0  0  0  0  0  0  0  0
   12.7140   -0.0510   23.1790 N   0  0  0  0  0  0  0  0  0  0  0  0
   11.9230    1.0270   23.1110 C   0  0  0  0  0  0  0  0  0  0  0  0
   12.3570    2.1700   23.1320 O   0  0  0  0  0  0  0  0  0  0  0  0
   10.4080    0.8350   22.9850 C   0  0  0  0  0  0  0  0  0  0  0  0
   10.0380   -0.5050   22.9000 C   0  0  0  0  0  0  0  0  0  0  0  0
    8.6420   -0.5750   22.5720 N   0  0  0  0  0  0  0  0  0  0  0  0
    8.1810    0.0920   21.4610 C   0  0  0  0  0  0  0  0  0  0  0  0
    8.6740    1.1580   21.0670 O   0  0  0  0  0  0  0  0  0  0  0  0
    7.1480   -0.5930   20.9370 N   0  0  0  0  0  0  0  0  0  0  0  0
    6.4270    0.0740   20.0190 C   0  0  0  0  0  0  0  0  0  0  0  0
    5.2630    0.7890   20.2870 C   0  0  0  0  0  0  0  0  0  0  0  0
    4.6270    1.4420   19.2320 C   0  0  0  0  0  0  0  0  0  0  0  0
    5.2040    1.3340   17.9760 C   0  0  0  0  0  0  0  0  0  0  0  0
    6.3120    0.6540   17.6790 N   0  0  0  0  0  0  0  0  0  0  0  0
    6.8970    0.0360   18.7170 C   0  0  0  0  0  0  0  0  0  0  0  0
  1  2  1  0
  2  3  1  0
  3  4  2  0
  3  5  1  0
  5  6  1  0
  6  7  1  0
  7  8  1  0
  8  9  2  0
  8 10  1  0
 10 11  1  0
 11 12  1  0
 12 13  1  0
 13 14  2  0
 13 15  1  0
 15 16  1  0
 16 17  2  0
 17 18  1  0
 18 19  2  0
 19 20  1  0
 16 21  1  0
 20 21  2  0
M  END
