pyridine_urea_14052
     RDKit          3D

 23 25  0  0  0  0  0  0  0  0999 V2000
   13.3710   -0.6630   22.1900 C   0  0  0  0  0  0  0  0  0  0  0  0
   12.8460   -1.0000   23.1860 C   0  0  0  0  0  0  0  0  0  0  0  0
   13.4160   -0.8430   24.5350 N   0  0  0  0  0  0  0  0  0  0  0  0
   12.2610   -1.3830   24.2570 C   0  0  0  0  0  0  0  0  0  0  0  0
   12.1210   -1.2960   22.7760 C   0  0  0  0  0  0  0  0  0  0  0  0
   10.9920   -1.8260   22.2390 C   0  0  0  0  0  0  0  0  0  0  0  0
    9.8830   -2.4750   23.0360 C   0  0  0  0  0  0  0  0  0  0  0  0
   10.0920   -2.5040   24.4750 C   0  0  0  0  0  0  0  0  0  0  0  0
    8.8790   -3.2280   25.4730 Cl  0  0  0  0  0  0  0  0  0  0  0  0
   11.2600   -1.9530   24.9220 C   0  0  0  0  0  0  0  0  0  0  0  0
   11.4070   -1.7210   23.4340 C   0  0  0  0  0  0  0  0  0  0  0  0
   10.8020   -1.8730   22.2290 C   0  0  0  0  0  0  0  0  0  0  0  0
    9.9120   -0.8170   22.2490 C   0  0  0  0  0  0  0  0  0  0  0  0
    8.7200   -1.1100   21.7270 N   0  0  0  0  0  0  0  0  0  0  0  0
    7.9370   -0.1170   21.2330 C   0  0  0  0  0  0  0  0  0  0  0  0
    8.3060    1.0370   21.0370 O   0  0  0  0  0  0  0  0  0  0  0  0
    6.7230   -0.6000   20.9910 N   0  0  0  0  0  0  0  0  0  0  0  0
    6.1610    0.0800   20.0110 C   0  0  0  0  0  0  0  0  0  0  0  0
    4.9130    0.8720   20.1110 C   0  0  0  0  0  0  0  0  0  0  0  0
    4.4130    1.6060   18.9170 C   0  0  0  0  0  0  0  0  0  0  0  0
    5.1680    1.5010   17.7480 C   0  0  0  0  0  0  0  0  0  0  0  0
    6.3010    0.7850   17.6160 N   0  0  0  0  0  0  0  0  0  0  0  0
    6.7900    0.0660   18.7850 C   0  0  0  0  0  0  0  0  0  0  0  0
  1  2  1  0
  2  3  1  0
  3  4  1  0
  4  5  2  0
  5  6  1  0
  6  7  2  0
  7  8  1  0
  8  9  1  0
  4 10  1  0
  8 10  2  0
  2 11  2  0
 10 11  1  0
 11 12  1  0
 12 13  1  0
 13 14  1  0
 14 15  1  0
 15 16  2  0
 15 17  1  0
 17 18  1  0
 18 19  2  0
 19 20  1  0
 20 21  2  0
 21 22  1  0
 18 23  1  0
 22 23  2  0
M  END
