pyridine_urea_12715
     RDKit          3D

 20 21  0  0  0  0  0  0  0  0999 V2000
    8.3920    1.4640   20.9570 O   0  0  0  0  0  0  0  0  0  0  0  0
    8.3760    0.3150   21.3990 C   0  0  0  0  0  0  0  0  0  0  0  0
    7.3310   -0.5160   21.1080 N   0  0  0  0  0  0  0  0  0  0  0  0
    6.6240    0.0180   19.9800 C   0  0  0  0  0  0  0  0  0  0  0  0
    5.3760    0.8560   20.3020 C   0  0  0  0  0  0  0  0  0  0  0  0
    4.6460    1.4440   19.2770 C   0  0  0  0  0  0  0  0  0  0  0  0
    5.0930    1.2430   17.9780 C   0  0  0  0  0  0  0  0  0  0  0  0
    6.2030    0.4810   17.7330 N   0  0  0  0  0  0  0  0  0  0  0  0
    6.9840   -0.1440   18.7060 C   0  0  0  0  0  0  0  0  0  0  0  0
    9.3910   -0.1880   22.1410 N   0  0  0  0  0  0  0  0  0  0  0  0
   10.5470   -0.4340   22.7980 C   0  0  2  0  0  0  0  0  0  0  0  0
   10.3540   -1.2310   23.9230 C   0  0  0  0  0  0  0  0  0  0  0  0
    8.9770   -1.2530   24.2960 O   0  0  0  0  0  0  0  0  0  0  0  0
   11.4820    0.6410   22.8520 C   0  0  0  0  0  0  0  0  0  0  0  0
   11.0570    1.8780   22.5280 C   0  0  0  0  0  0  0  0  0  0  0  0
   12.2960    1.5840   22.8660 C   0  0  0  0  0  0  0  0  0  0  0  0
   11.6400    0.0890   23.0430 C   0  0  0  0  0  0  0  0  0  0  0  0
   12.6180   -0.7290   23.4660 C   0  0  0  0  0  0  0  0  0  0  0  0
   13.1860   -2.5920   24.0840 I   0  0  0  0  0  0  0  0  0  0  0  0
   12.9210    0.4440   23.2380 C   0  0  0  0  0  0  0  0  0  0  0  0
  1  2  2  0
  2  3  1  0
  3  4  1  0
  4  5  2  0
  5  6  1  0
  6  7  2  0
  7  8  1  0
  4  9  1  0
  8  9  2  0
  2 10  1  0
 10 11  1  0
 11 12  1  1
 12 13  1  0
 11 14  1  0
 14 15  2  0
 15 16  1  0
 16 17  2  0
 17 18  1  0
 18 19  1  0
 14 20  1  0
 18 20  2  0
M  END
