pyridine_urea_12632
     RDKit          3D

 21 22  0  0  0  0  0  0  0  0999 V2000
   13.4270   -1.8700   25.3760 C   0  0  0  0  0  0  0  0  0  0  0  0
   13.1940   -1.5190   23.9150 C   0  0  0  0  0  0  0  0  0  0  0  0
   13.4170   -2.7110   23.0270 C   0  0  0  0  0  0  0  0  0  0  0  0
   13.6680   -0.2410   23.3120 C   0  0  0  0  0  0  0  0  0  0  0  0
   13.4780   -0.3410   21.9010 N   0  0  0  0  0  0  0  0  0  0  0  0
   11.8550   -1.0990   23.7100 C   0  0  0  0  0  0  0  0  0  0  0  0
   11.0830   -0.4950   24.6800 C   0  0  0  0  0  0  0  0  0  0  0  0
    9.8140   -0.1100   24.3690 C   0  0  0  0  0  0  0  0  0  0  0  0
    9.3660   -0.3510   23.0820 C   0  0  0  0  0  0  0  0  0  0  0  0
    8.1310    0.0260   22.7780 N   0  0  0  0  0  0  0  0  0  0  0  0
    7.9060    0.3720   21.4880 C   0  0  0  0  0  0  0  0  0  0  0  0
    8.5150    1.3130   20.9600 O   0  0  0  0  0  0  0  0  0  0  0  0
    6.9860   -0.4380   20.9540 N   0  0  0  0  0  0  0  0  0  0  0  0
    6.3800    0.1560   19.9450 C   0  0  0  0  0  0  0  0  0  0  0  0
    5.1870    0.8450   20.1960 C   0  0  0  0  0  0  0  0  0  0  0  0
    4.5630    1.5170   19.0230 C   0  0  0  0  0  0  0  0  0  0  0  0
    5.1500    1.4430   17.7990 C   0  0  0  0  0  0  0  0  0  0  0  0
    6.3020    0.7550   17.6030 N   0  0  0  0  0  0  0  0  0  0  0  0
    6.8740    0.1400   18.6620 C   0  0  0  0  0  0  0  0  0  0  0  0
   10.0890   -0.9460   22.0760 C   0  0  0  0  0  0  0  0  0  0  0  0
   11.4280   -1.3420   22.4250 C   0  0  0  0  0  0  0  0  0  0  0  0
  1  2  1  0
  2  3  1  0
  2  4  1  0
  4  5  3  0
  2  6  1  0
  6  7  2  0
  7  8  1  0
  8  9  2  0
  9 10  1  0
 10 11  1  0
 11 12  2  0
 11 13  1  0
 13 14  1  0
 14 15  2  0
 15 16  1  0
 16 17  2  0
 17 18  1  0
 14 19  1  0
 18 19  2  0
  9 20  1  0
  6 21  1  0
 20 21  2  0
M  END
