pyridine_urea_8284
     RDKit          3D

 23 25  0  0  0  0  0  0  0  0999 V2000
    8.9560    0.6970   21.4450 O   0  0  0  0  0  0  0  0  0  0  0  0
    8.5480   -0.4510   21.3750 C   0  0  0  0  0  0  0  0  0  0  0  0
    9.3620   -1.5740   21.5570 N   0  0  0  0  0  0  0  0  0  0  0  0
   10.3200   -1.7510   22.6770 C   0  0  0  0  0  0  0  0  0  0  0  0
   11.5540   -0.7850   22.6330 C   0  0  0  0  0  0  0  0  0  0  0  0
   10.3350   -0.1490   22.9000 C   0  0  0  0  0  0  0  0  0  0  0  0
   10.2080    1.2740   23.1000 C   0  0  0  0  0  0  0  0  0  0  0  0
   10.8710    2.3700   23.1400 C   0  0  0  0  0  0  0  0  0  0  0  0
   12.2500    1.8790   22.8790 C   0  0  0  0  0  0  0  0  0  0  0  0
   13.3240    2.7290   22.8240 O   0  0  0  0  0  0  0  0  0  0  0  0
   13.0700    4.0600   22.3100 C   0  0  0  0  0  0  0  0  0  0  0  0
   13.3760    5.1000   23.3260 C   0  0  0  0  0  0  0  0  0  0  0  0
   12.0190    5.6310   23.7180 C   0  0  0  0  0  0  0  0  0  0  0  0
   11.0630    5.2990   22.5930 C   0  0  0  0  0  0  0  0  0  0  0  0
   11.7740    4.1270   21.8720 C   0  0  0  0  0  0  0  0  0  0  0  0
   12.4290    0.4300   22.6710 C   0  0  0  0  0  0  0  0  0  0  0  0
    7.2450   -0.7700   21.0580 N   0  0  0  0  0  0  0  0  0  0  0  0
    6.4740   -0.0680   20.1060 C   0  0  0  0  0  0  0  0  0  0  0  0
    5.2850    0.6300   20.3590 C   0  0  0  0  0  0  0  0  0  0  0  0
    4.6470    1.2920   19.3160 C   0  0  0  0  0  0  0  0  0  0  0  0
    5.2170    1.2400   18.0430 C   0  0  0  0  0  0  0  0  0  0  0  0
    6.3490    0.5760   17.7740 N   0  0  0  0  0  0  0  0  0  0  0  0
    6.9390   -0.0570   18.8050 C   0  0  0  0  0  0  0  0  0  0  0  0
  1  2  2  0
  2  3  1  0
  3  4  1  0
  4  5  1  0
  5  6  2  0
  6  7  1  0
  7  8  2  0
  8  9  1  0
  9 10  1  0
 10 11  1  0
 11 12  1  0
 12 13  1  0
 13 14  1  0
 11 15  1  0
 14 15  1  0
  5 16  1  0
  9 16  2  0
  2 17  1  0
 17 18  1  0
 18 19  2  0
 19 20  1  0
 20 21  2  0
 21 22  1  0
 18 23  1  0
 22 23  2  0
M  END
