pyridine_urea_15176
     RDKit          3D

 17 18  0  0  0  0  0  0  0  0999 V2000
    8.9350    0.6810   21.4580 O   0  0  0  0  0  0  0  0  0  0  0  0
    8.3650   -0.4000   21.4870 C   0  0  0  0  0  0  0  0  0  0  0  0
    8.9550   -1.5620   21.9120 N   0  0  0  0  0  0  0  0  0  0  0  0
    9.6760   -1.5840   23.1480 C   0  0  0  0  0  0  0  0  0  0  0  0
   11.0570   -1.0210   22.9900 C   0  0  0  0  0  0  0  0  0  0  0  0
   12.5110   -1.4860   22.8200 C   0  0  0  0  0  0  0  0  0  0  0  0
   13.5330    0.1440   22.7090 S   0  0  0  0  0  0  0  0  0  0  0  0
   12.1630    1.2570   22.8690 C   0  0  0  0  0  0  0  0  0  0  0  0
   11.5020    3.0340   22.9420 Br  0  0  0  0  0  0  0  0  0  0  0  0
   11.8470   -0.0590   22.9020 C   0  0  0  0  0  0  0  0  0  0  0  0
    7.0700   -0.6370   21.1020 N   0  0  0  0  0  0  0  0  0  0  0  0
    6.4420    0.0150   20.0410 C   0  0  0  0  0  0  0  0  0  0  0  0
    5.2720    0.7380   20.2350 C   0  0  0  0  0  0  0  0  0  0  0  0
    4.6180    1.4120   19.2120 C   0  0  0  0  0  0  0  0  0  0  0  0
    5.1770    1.3470   17.9520 C   0  0  0  0  0  0  0  0  0  0  0  0
    6.3110    0.6540   17.7060 N   0  0  0  0  0  0  0  0  0  0  0  0
    6.8930    0.0200   18.7450 C   0  0  0  0  0  0  0  0  0  0  0  0
  1  2  2  0
  2  3  1  0
  3  4  1  0
  4  5  1  0
  5  6  2  0
  6  7  1  0
  7  8  1  0
  8  9  1  0
  5 10  1  0
  8 10  2  0
  2 11  1  0
 11 12  1  0
 12 13  2  0
 13 14  1  0
 14 15  2  0
 15 16  1  0
 12 17  1  0
 16 17  2  0
M  END
