pyridine_urea_8099
     RDKit          3D

 24 25  0  0  0  0  0  0  0  0999 V2000
    7.5920   -0.3390   26.6860 C   0  0  0  0  0  0  0  0  0  0  0  0
    8.5620   -1.5020   26.8610 C   0  0  0  0  0  0  0  0  0  0  0  0
    8.6180   -2.3190   25.5130 C   0  0  0  0  0  0  0  0  0  0  0  0
    9.1220   -1.5440   24.3850 N   0  0  0  0  0  0  0  0  0  0  0  0
    8.2790   -0.4830   24.1210 C   0  0  0  0  0  0  0  0  0  0  0  0
    9.7830   -2.2170   23.3620 C   0  0  1  0  0  0  0  0  0  0  0  0
    8.9420   -2.2730   22.3140 C   0  0  0  0  0  0  0  0  0  0  0  0
    9.0500   -1.2890   21.3480 N   0  0  0  0  0  0  0  0  0  0  0  0
    8.3250   -0.0350   21.3040 C   0  0  0  0  0  0  0  0  0  0  0  0
    8.8140    1.0820   21.3930 O   0  0  0  0  0  0  0  0  0  0  0  0
    6.9990   -0.3130   21.1080 N   0  0  0  0  0  0  0  0  0  0  0  0
    6.3560    0.2620   20.0360 C   0  0  0  0  0  0  0  0  0  0  0  0
    5.0700    1.0180   20.2810 C   0  0  0  0  0  0  0  0  0  0  0  0
    4.4320    1.6470   19.0790 C   0  0  0  0  0  0  0  0  0  0  0  0
    5.1590    1.4410   17.7790 C   0  0  0  0  0  0  0  0  0  0  0  0
    6.2930    0.7430   17.6420 N   0  0  0  0  0  0  0  0  0  0  0  0
    6.8540    0.1800   18.7400 C   0  0  0  0  0  0  0  0  0  0  0  0
   11.0700   -1.8930   22.7310 C   0  0  0  0  0  0  0  0  0  0  0  0
   12.3600   -1.2100   22.9310 C   0  0  0  0  0  0  0  0  0  0  0  0
   13.3020   -0.9970   22.1940 C   0  0  0  0  0  0  0  0  0  0  0  0
   13.1180   -1.5050   21.1120 C   0  0  0  0  0  0  0  0  0  0  0  0
   14.2450   -1.1340   20.0590 Cl  0  0  0  0  0  0  0  0  0  0  0  0
   12.0860   -2.2360   20.7930 C   0  0  0  0  0  0  0  0  0  0  0  0
   11.0310   -2.4500   21.5420 C   0  0  0  0  0  0  0  0  0  0  0  0
  1  2  1  0
  2  3  1  0
  3  4  1  0
  4  5  1  0
  4  6  1  0
  6  7  1  6
  7  8  1  0
  8  9  1  0
  9 10  2  0
  9 11  1  0
 11 12  1  0
 12 13  2  0
 13 14  1  0
 14 15  2  0
 15 16  1  0
 12 17  1  0
 16 17  2  0
  6 18  1  0
 18 19  2  0
 19 20  1  0
 20 21  2  0
 21 22  1  0
 21 23  1  0
 18 24  1  0
 23 24  2  0
M  END
