pyridine_urea_1286
     RDKit          3D

 20 22  0  0  0  0  0  0  0  0999 V2000
    8.6460    1.4070   20.9370 O   0  0  0  0  0  0  0  0  0  0  0  0
    8.5300    0.3840   21.6080 C   0  0  0  0  0  0  0  0  0  0  0  0
    7.5380   -0.5110   21.2560 N   0  0  0  0  0  0  0  0  0  0  0  0
    6.7780   -0.0240   20.1060 C   0  0  0  0  0  0  0  0  0  0  0  0
    5.5320    0.8220   20.4360 C   0  0  0  0  0  0  0  0  0  0  0  0
    4.7470    1.3600   19.4170 C   0  0  0  0  0  0  0  0  0  0  0  0
    5.1280    1.1110   18.1050 C   0  0  0  0  0  0  0  0  0  0  0  0
    6.2350    0.3490   17.8410 N   0  0  0  0  0  0  0  0  0  0  0  0
    7.0720   -0.2320   18.8090 C   0  0  0  0  0  0  0  0  0  0  0  0
    9.3500    0.1460   22.7070 N   0  0  0  0  0  0  0  0  0  0  0  0
   10.2360    0.2900   23.7570 C   0  0  2  0  0  0  0  0  0  0  0  0
   11.1630    1.2490   23.4200 C   0  0  0  0  0  0  0  0  0  0  0  0
   12.1550    0.3190   23.4320 C   0  0  0  0  0  0  0  0  0  0  0  0
   11.3100   -0.6020   24.0650 C   0  0  2  0  0  0  0  0  0  0  0  0
   11.2250   -1.8470   23.6880 N   0  0  0  0  0  0  0  0  0  0  0  0
   12.5270   -2.3070   23.3100 C   0  0  0  0  0  0  0  0  0  0  0  0
   12.7120   -2.2150   21.8220 C   0  0  0  0  0  0  0  0  0  0  0  0
   11.7100   -2.4640   21.1600 O   0  0  0  0  0  0  0  0  0  0  0  0
   10.4470   -2.0300   21.6980 C   0  0  0  0  0  0  0  0  0  0  0  0
   10.1900   -2.3730   23.0360 C   0  0  0  0  0  0  0  0  0  0  0  0
  1  2  2  0
  2  3  1  0
  3  4  1  0
  4  5  2  0
  5  6  1  0
  6  7  2  0
  7  8  1  0
  4  9  1  0
  8  9  2  0
  2 10  1  0
 11 10  1  6
 11 12  1  0
 12 13  1  0
 11 14  1  0
 13 14  1  0
 14 15  1  6
 15 16  1  0
 16 17  1  0
 17 18  1  0
 18 19  1  0
 15 20  1  0
 19 20  1  0
M  END
