pyridine_urea_3189
     RDKit          3D

 20 22  0  0  0  0  0  0  0  0999 V2000
    8.7660    0.5080   21.2420 O   0  0  0  0  0  0  0  0  0  0  0  0
    8.2850   -0.6200   21.2760 C   0  0  0  0  0  0  0  0  0  0  0  0
    6.9920   -0.8920   20.9400 N   0  0  0  0  0  0  0  0  0  0  0  0
    6.3490   -0.1460   19.9470 C   0  0  0  0  0  0  0  0  0  0  0  0
    5.1420    0.5070   20.2110 C   0  0  0  0  0  0  0  0  0  0  0  0
    4.5330    1.2610   19.2030 C   0  0  0  0  0  0  0  0  0  0  0  0
    5.1560    1.3330   17.9720 C   0  0  0  0  0  0  0  0  0  0  0  0
    6.3120    0.7080   17.7060 N   0  0  0  0  0  0  0  0  0  0  0  0
    6.8760   -0.0120   18.6890 C   0  0  0  0  0  0  0  0  0  0  0  0
    9.0430   -1.7050   21.6680 N   0  0  0  0  0  0  0  0  0  0  0  0
   10.3230   -1.2540   22.1180 C   0  0  0  0  0  0  0  0  0  0  0  0
   11.6600   -1.8530   21.6670 C   0  0  0  0  0  0  0  0  0  0  0  0
   12.8350   -1.2830   22.1790 C   0  0  0  0  0  0  0  0  0  0  0  0
   12.7470   -0.2200   23.0560 C   0  0  0  0  0  0  0  0  0  0  0  0
   11.4860    0.2510   23.4130 C   0  0  0  0  0  0  0  0  0  0  0  0
   10.3080   -0.2210   22.9880 C   0  0  0  0  0  0  0  0  0  0  0  0
    9.1250    0.3560   23.4420 C   0  0  0  0  0  0  0  0  0  0  0  0
    9.1230    0.3790   24.8200 C   0  0  0  0  0  0  0  0  0  0  0  0
   10.4000    0.8240   25.2660 O   0  0  0  0  0  0  0  0  0  0  0  0
   11.3120    1.2400   24.2350 C   0  0  0  0  0  0  0  0  0  0  0  0
  1  2  2  0
  2  3  1  0
  3  4  1  0
  4  5  2  0
  5  6  1  0
  6  7  2  0
  7  8  1  0
  4  9  1  0
  8  9  2  0
  2 10  1  0
 10 11  1  0
 11 12  2  0
 12 13  1  0
 13 14  2  0
 14 15  1  0
 11 16  1  0
 15 16  2  0
 16 17  1  0
 17 18  1  0
 18 19  1  0
 15 20  1  0
 19 20  1  0
M  END
