pyridine_urea_977
     RDKit          3D

 22 23  0  0  0  0  0  0  0  0999 V2000
    9.4730    0.1630   25.0550 C   0  0  0  0  0  0  0  0  0  0  0  0
   10.3090    0.6320   23.8800 C   0  0  1  0  0  0  0  0  0  0  0  0
   11.6320    0.4230   23.8740 C   0  0  0  0  0  0  0  0  0  0  0  0
   12.8920   -0.1700   23.9090 C   0  0  0  0  0  0  0  0  0  0  0  0
   13.3040   -1.4910   24.0520 C   0  0  0  0  0  0  0  0  0  0  0  0
   12.4060   -2.6000   24.2070 C   0  0  0  0  0  0  0  0  0  0  0  0
   11.0130   -2.2370   24.1920 C   0  0  0  0  0  0  0  0  0  0  0  0
   10.8010   -0.7450   24.0290 C   0  0  0  0  0  0  0  0  0  0  0  0
   10.0100   -0.0880   22.5750 C   0  0  2  0  0  0  0  0  0  0  0  0
    8.6760   -0.3850   22.4500 N   0  0  0  0  0  0  0  0  0  0  0  0
    8.0570    0.2560   21.4330 C   0  0  0  0  0  0  0  0  0  0  0  0
    8.4750    1.3430   20.9950 O   0  0  0  0  0  0  0  0  0  0  0  0
    6.9580   -0.4140   20.9650 N   0  0  0  0  0  0  0  0  0  0  0  0
    6.2560    0.1840   19.9760 C   0  0  0  0  0  0  0  0  0  0  0  0
    5.0410    0.8350   20.1330 C   0  0  0  0  0  0  0  0  0  0  0  0
    4.4850    1.4230   19.0210 C   0  0  0  0  0  0  0  0  0  0  0  0
    5.1630    1.3300   17.8240 C   0  0  0  0  0  0  0  0  0  0  0  0
    6.3230    0.7020   17.6410 N   0  0  0  0  0  0  0  0  0  0  0  0
    6.8380    0.1420   18.7310 C   0  0  0  0  0  0  0  0  0  0  0  0
   10.9890   -1.0410   22.2160 C   0  0  0  0  0  0  0  0  0  0  0  0
   10.5400   -2.2600   21.8760 N   0  0  0  0  0  0  0  0  0  0  0  0
   12.3340   -0.8700   22.1460 O   0  0  0  0  0  0  0  0  0  0  0  0
  2  1  1  1
  2  3  1  0
  3  4  2  0
  4  5  1  0
  5  6  2  0
  6  7  1  0
  3  8  1  0
  7  8  2  0
  2  9  1  0
  9 10  1  1
 10 11  1  0
 11 12  2  0
 11 13  1  0
 13 14  1  0
 14 15  2  0
 15 16  1  0
 16 17  2  0
 17 18  1  0
 14 19  1  0
 18 19  2  0
  9 20  1  0
 20 21  1  0
 20 22  2  0
M  END
