pyridine_urea_3985
     RDKit          3D

 27 29  0  0  0  0  0  0  0  0999 V2000
   13.6410   -2.2720   25.4690 C   0  0  0  0  0  0  0  0  0  0  0  0
   12.8540   -1.9580   24.2040 C   0  0  0  0  0  0  0  0  0  0  0  0
   11.7220   -1.1210   24.3100 C   0  0  0  0  0  0  0  0  0  0  0  0
   11.2970   -1.1200   22.9510 C   0  0  0  0  0  0  0  0  0  0  0  0
   10.2030   -0.3670   22.8560 C   0  0  1  0  0  0  0  0  0  0  0  0
   10.6440    0.9110   22.9970 C   0  0  0  0  0  0  0  0  0  0  0  0
   11.7730    0.7860   23.8100 C   0  0  0  0  0  0  0  0  0  0  0  0
   11.5680   -0.6170   24.4240 C   0  0  0  0  0  0  0  0  0  0  0  0
   10.3490   -1.0920   24.9320 C   0  0  0  0  0  0  0  0  0  0  0  0
   10.2090   -2.3890   25.4310 C   0  0  0  0  0  0  0  0  0  0  0  0
   11.2830   -3.2600   25.4520 C   0  0  0  0  0  0  0  0  0  0  0  0
   12.5410   -2.8700   24.9810 C   0  0  0  0  0  0  0  0  0  0  0  0
   12.7950   -1.5800   24.4490 C   0  0  0  0  0  0  0  0  0  0  0  0
    9.4140   -0.6510   21.6820 N   0  0  0  0  0  0  0  0  0  0  0  0
    8.4780    0.3040   21.2960 C   0  0  0  0  0  0  0  0  0  0  0  0
    8.7660    1.4900   21.1490 O   0  0  0  0  0  0  0  0  0  0  0  0
    7.2410   -0.2590   21.0690 N   0  0  0  0  0  0  0  0  0  0  0  0
    6.4970    0.2540   19.9670 C   0  0  0  0  0  0  0  0  0  0  0  0
    5.3440    0.9500   20.2690 C   0  0  0  0  0  0  0  0  0  0  0  0
    4.5920    1.5060   19.2410 C   0  0  0  0  0  0  0  0  0  0  0  0
    5.0800    1.3120   17.9460 C   0  0  0  0  0  0  0  0  0  0  0  0
    6.2000    0.6210   17.6530 N   0  0  0  0  0  0  0  0  0  0  0  0
    6.8870    0.1030   18.6730 C   0  0  0  0  0  0  0  0  0  0  0  0
   11.7900   -1.7040   21.8210 C   0  0  0  0  0  0  0  0  0  0  0  0
   12.8690   -2.4410   21.8550 C   0  0  0  0  0  0  0  0  0  0  0  0
   13.3610   -2.5500   23.0930 C   0  0  0  0  0  0  0  0  0  0  0  0
   14.3910   -3.2610   23.3100 F   0  0  0  0  0  0  0  0  0  0  0  0
  1  2  1  0
  2  3  2  0
  3  4  1  0
  4  5  1  0
  5  6  1  6
  6  7  1  0
  7  8  1  0
  8  9  2  0
  9 10  1  0
 10 11  2  0
 11 12  1  0
  8 13  1  0
 12 13  2  0
  5 14  1  0
 14 15  1  0
 15 16  2  0
 15 17  1  0
 17 18  1  0
 18 19  2  0
 19 20  1  0
 20 21  2  0
 21 22  1  0
 18 23  1  0
 22 23  2  0
  4 24  2  0
 24 25  1  0
  2 26  1  0
 25 26  2  0
 26 27  1  0
M  END
