pyridine_urea_8937
     RDKit          3D

 20 21  0  0  0  0  0  0  0  0999 V2000
   13.2360   -2.2040   24.8440 C   0  0  0  0  0  0  0  0  0  0  0  0
   13.4210   -2.5660   23.3450 C   0  0  0  0  0  0  0  0  0  0  0  0
   13.9550   -1.4950   22.5560 O   0  0  0  0  0  0  0  0  0  0  0  0
   13.5060   -0.3740   23.1600 C   0  0  0  0  0  0  0  0  0  0  0  0
   12.2390   -0.2740   23.1590 C   0  0  0  0  0  0  0  0  0  0  0  0
   11.5570    0.5830   23.9660 C   0  0  0  0  0  0  0  0  0  0  0  0
   10.1880    0.5620   23.8640 C   0  0  0  0  0  0  0  0  0  0  0  0
    9.6160   -0.3200   22.9480 C   0  0  0  0  0  0  0  0  0  0  0  0
    8.2880   -0.4400   22.7090 N   0  0  0  0  0  0  0  0  0  0  0  0
    7.9110    0.1580   21.5570 C   0  0  0  0  0  0  0  0  0  0  0  0
    8.5730    1.3300   21.0280 O   0  0  0  0  0  0  0  0  0  0  0  0
    6.8540   -0.4800   20.9780 N   0  0  0  0  0  0  0  0  0  0  0  0
    6.2660    0.1390   19.9290 C   0  0  0  0  0  0  0  0  0  0  0  0
    5.0570    0.7960   20.1530 C   0  0  0  0  0  0  0  0  0  0  0  0
    4.4530    1.4630   19.0860 C   0  0  0  0  0  0  0  0  0  0  0  0
    5.1540    1.4220   17.7710 C   0  0  0  0  0  0  0  0  0  0  0  0
    6.3070    0.7670   17.6070 N   0  0  0  0  0  0  0  0  0  0  0  0
    6.8250    0.1500   18.6770 C   0  0  0  0  0  0  0  0  0  0  0  0
   10.3640   -1.1590   22.1600 C   0  0  0  0  0  0  0  0  0  0  0  0
   11.6660   -1.1300   22.2730 C   0  0  0  0  0  0  0  0  0  0  0  0
  1  2  1  0
  2  3  1  0
  3  4  1  0
  4  5  1  0
  5  6  2  0
  6  7  1  0
  7  8  2  0
  8  9  1  0
  9 10  1  0
 10 11  2  0
 10 12  1  0
 12 13  1  0
 13 14  2  0
 14 15  1  0
 15 16  2  0
 16 17  1  0
 13 18  1  0
 17 18  2  0
  8 19  1  0
  5 20  1  0
 19 20  2  0
M  END
