pyridine_urea_10580
     RDKit          3D

 21 22  0  0  0  0  0  0  0  0999 V2000
    9.4380    3.3440   22.1920 C   0  0  0  0  0  0  0  0  0  0  0  0
   10.6820    3.3900   23.0990 C   0  0  0  0  0  0  0  0  0  0  0  0
   10.4150    4.5400   24.0710 C   0  0  0  0  0  0  0  0  0  0  0  0
   12.0150    3.6350   22.3160 C   0  0  0  0  0  0  0  0  0  0  0  0
   10.7360    2.1810   23.8750 O   0  0  0  0  0  0  0  0  0  0  0  0
    9.7490    1.2460   23.7380 C   0  0  0  0  0  0  0  0  0  0  0  0
    8.4080    1.4010   24.2090 O   0  0  0  0  0  0  0  0  0  0  0  0
   10.1980    0.0990   23.0840 C   0  0  0  0  0  0  0  0  0  0  0  0
    9.1950   -0.6670   22.5350 N   0  0  0  0  0  0  0  0  0  0  0  0
    8.5480    0.0680   21.5630 C   0  0  0  0  0  0  0  0  0  0  0  0
    9.0080    1.2950   21.1690 O   0  0  0  0  0  0  0  0  0  0  0  0
    7.4110   -0.5450   21.0710 N   0  0  0  0  0  0  0  0  0  0  0  0
    6.6350    0.0530   20.0590 C   0  0  0  0  0  0  0  0  0  0  0  0
    5.4850    0.7680   20.4000 C   0  0  0  0  0  0  0  0  0  0  0  0
    4.7350    1.3710   19.4010 C   0  0  0  0  0  0  0  0  0  0  0  0
    5.1480    1.2520   18.0750 C   0  0  0  0  0  0  0  0  0  0  0  0
    6.2430    0.5630   17.7290 N   0  0  0  0  0  0  0  0  0  0  0  0
    6.9560   -0.0180   18.7210 C   0  0  0  0  0  0  0  0  0  0  0  0
   10.6700   -0.3230   24.4630 C   0  0  0  0  0  0  0  0  0  0  0  0
   11.9130   -0.2920   24.0870 C   0  0  0  0  0  0  0  0  0  0  0  0
   11.6320   -0.1080   22.7260 C   0  0  0  0  0  0  0  0  0  0  0  0
  1  2  1  0
  2  3  1  0
  2  4  1  0
  2  5  1  0
  5  6  1  0
  6  7  2  0
  8  6  1  0
  8  9  1  0
  9 10  1  0
 10 11  2  0
 10 12  1  0
 12 13  1  0
 13 14  2  0
 14 15  1  0
 15 16  2  0
 16 17  1  0
 13 18  1  0
 17 18  2  0
  8 19  1  0
 19 20  1  0
  8 21  1  0
 20 21  1  0
M  END
