pyridine_urea_6391
     RDKit          3D

 18 19  0  0  0  0  0  0  0  0999 V2000
    8.7330    1.1420   21.0900 O   0  0  0  0  0  0  0  0  0  0  0  0
    8.3110   -0.0020   21.3360 C   0  0  0  0  0  0  0  0  0  0  0  0
    9.0570   -0.9060   22.0310 N   0  0  0  0  0  0  0  0  0  0  0  0
   10.3360   -0.4120   22.4510 C   0  0  0  0  0  0  0  0  0  0  0  0
   11.4280   -1.4600   22.5700 C   0  0  2  0  0  0  0  0  0  0  0  0
   11.0950   -2.0130   23.8720 C   0  0  0  0  0  0  0  0  0  0  0  0
   11.0740   -0.8740   24.6260 C   0  0  0  0  0  0  0  0  0  0  0  0
   12.0060    0.3100   24.2860 C   0  0  2  0  0  0  0  0  0  0  0  0
   11.2210    1.4320   24.2210 F   0  0  0  0  0  0  0  0  0  0  0  0
   12.7430    0.2710   22.9960 C   0  0  0  0  0  0  0  0  0  0  0  0
   12.7480   -0.9620   22.4690 C   0  0  0  0  0  0  0  0  0  0  0  0
    7.1010   -0.5160   20.9700 N   0  0  0  0  0  0  0  0  0  0  0  0
    6.3500    0.1300   19.9970 C   0  0  0  0  0  0  0  0  0  0  0  0
    5.1500    0.8000   20.2040 C   0  0  0  0  0  0  0  0  0  0  0  0
    4.5370    1.4220   19.1180 C   0  0  0  0  0  0  0  0  0  0  0  0
    5.1480    1.3430   17.8860 C   0  0  0  0  0  0  0  0  0  0  0  0
    6.2970    0.6910   17.6710 N   0  0  0  0  0  0  0  0  0  0  0  0
    6.8660    0.1030   18.7260 C   0  0  0  0  0  0  0  0  0  0  0  0
  1  2  2  0
  2  3  1  0
  3  4  1  0
  5  4  1  1
  5  6  1  0
  6  7  1  0
  7  8  1  0
  8  9  1  6
  8 10  1  0
  5 11  1  0
 10 11  1  0
  2 12  1  0
 12 13  1  0
 13 14  2  0
 14 15  1  0
 15 16  2  0
 16 17  1  0
 13 18  1  0
 17 18  2  0
M  END
