pyridine_urea_13821
     RDKit          3D

 25 26  0  0  0  0  0  0  0  0999 V2000
   15.1620    2.6930   18.9570 C   0  0  0  0  0  0  0  0  0  0  0  0
   15.2520    1.5080   18.9440 C   0  0  0  0  0  0  0  0  0  0  0  0
   14.6210    0.8290   20.0910 N   0  0  0  0  0  0  0  0  0  0  0  0
   14.4850    1.6240   21.3140 C   0  0  0  0  0  0  0  0  0  0  0  0
   14.3410    3.0610   20.8720 C   0  0  0  0  0  0  0  0  0  0  0  0
   14.2280   -0.5590   19.9310 C   0  0  0  0  0  0  0  0  0  0  0  0
   13.3850   -1.5550   20.8730 C   0  0  0  0  0  0  0  0  0  0  0  0
   12.5380   -2.2740   20.4740 O   0  0  0  0  0  0  0  0  0  0  0  0
   13.6750   -1.5190   22.1830 N   0  0  0  0  0  0  0  0  0  0  0  0
   12.6120   -1.5230   23.0610 C   0  0  0  0  0  0  0  0  0  0  0  0
   12.7680   -1.1060   24.3260 C   0  0  0  0  0  0  0  0  0  0  0  0
   11.4210   -1.1630   24.9460 C   0  0  0  0  0  0  0  0  0  0  0  0
   10.2240   -1.5530   24.4010 C   0  0  0  0  0  0  0  0  0  0  0  0
    9.9520   -1.9930   23.1230 C   0  0  0  0  0  0  0  0  0  0  0  0
    8.6040   -2.3260   22.6290 N   0  0  0  0  0  0  0  0  0  0  0  0
    8.1530   -1.5250   21.5740 C   0  0  0  0  0  0  0  0  0  0  0  0
    9.0930   -1.0500   20.7040 O   0  0  0  0  0  0  0  0  0  0  0  0
    6.8220   -1.2060   21.4270 N   0  0  0  0  0  0  0  0  0  0  0  0
    6.2920   -0.3750   20.3700 C   0  0  0  0  0  0  0  0  0  0  0  0
    5.0720    0.4830   20.4800 C   0  0  0  0  0  0  0  0  0  0  0  0
    4.6540    1.2880   19.2830 C   0  0  0  0  0  0  0  0  0  0  0  0
    5.4170    1.2040   18.1240 C   0  0  0  0  0  0  0  0  0  0  0  0
    6.5200    0.4290   18.0240 N   0  0  0  0  0  0  0  0  0  0  0  0
    6.9270   -0.3210   19.1100 C   0  0  0  0  0  0  0  0  0  0  0  0
   11.3680   -1.9700   22.4160 C   0  0  0  0  0  0  0  0  0  0  0  0
  1  2  1  0
  2  3  1  0
  3  4  1  0
  4  5  1  0
  3  6  1  0
  6  7  1  0
  7  8  2  0
  7  9  1  0
  9 10  1  0
 10 11  2  0
 11 12  1  0
 12 13  2  0
 13 14  1  0
 14 15  1  0
 15 16  1  0
 16 17  2  0
 16 18  1  0
 18 19  1  0
 19 20  2  0
 20 21  1  0
 21 22  2  0
 22 23  1  0
 19 24  1  0
 23 24  2  0
 10 25  1  0
 14 25  2  0
M  END
