pyridine_urea_4810
     RDKit          3D

 22 23  0  0  0  0  0  0  0  0999 V2000
   13.0800    6.4990   22.5090 C   0  0  0  0  0  0  0  0  0  0  0  0
   12.4160    5.4520   23.0440 N   0  0  0  0  0  0  0  0  0  0  0  0
   11.7180    5.6260   24.3030 C   0  0  0  0  0  0  0  0  0  0  0  0
   13.2110    4.3620   22.8380 C   0  0  0  0  0  0  0  0  0  0  0  0
   12.4590    3.2160   22.9060 C   0  0  0  0  0  0  0  0  0  0  0  0
   13.0780    2.1780   23.1770 O   0  0  0  0  0  0  0  0  0  0  0  0
   12.2490    1.1710   22.9550 C   0  0  0  0  0  0  0  0  0  0  0  0
   10.9100    1.4290   22.9960 C   0  0  0  0  0  0  0  0  0  0  0  0
    9.9350    0.5470   22.7620 C   0  0  0  0  0  0  0  0  0  0  0  0
   10.2210   -0.7450   22.4360 C   0  0  0  0  0  0  0  0  0  0  0  0
    9.0450   -1.3950   22.1890 N   0  0  0  0  0  0  0  0  0  0  0  0
    8.1630   -0.5900   21.4390 C   0  0  0  0  0  0  0  0  0  0  0  0
    8.5200    0.7230   21.0940 O   0  0  0  0  0  0  0  0  0  0  0  0
    6.9940   -1.1240   21.0700 N   0  0  0  0  0  0  0  0  0  0  0  0
    6.4100   -0.3580   20.1040 C   0  0  0  0  0  0  0  0  0  0  0  0
    5.2290    0.3500   20.3770 C   0  0  0  0  0  0  0  0  0  0  0  0
    4.6620    1.1660   19.2710 C   0  0  0  0  0  0  0  0  0  0  0  0
    5.2110    1.2690   18.0340 C   0  0  0  0  0  0  0  0  0  0  0  0
    6.3600    0.5680   17.7950 N   0  0  0  0  0  0  0  0  0  0  0  0
    6.9120   -0.2020   18.7990 C   0  0  0  0  0  0  0  0  0  0  0  0
   11.5590   -1.1830   22.3740 C   0  0  0  0  0  0  0  0  0  0  0  0
   12.6540   -0.1600   22.6560 C   0  0  0  0  0  0  0  0  0  0  0  0
  1  2  1  0
  2  3  1  0
  2  4  1  0
  4  5  1  0
  5  6  1  0
  6  7  1  0
  7  8  2  0
  8  9  1  0
  9 10  2  0
 10 11  1  0
 11 12  1  0
 12 13  2  0
 12 14  1  0
 14 15  1  0
 15 16  2  0
 16 17  1  0
 17 18  2  0
 18 19  1  0
 15 20  1  0
 19 20  2  0
 10 21  1  0
  7 22  1  0
 21 22  2  0
M  END
