pyridine_urea_810
     RDKit          3D

 23 25  0  0  0  0  0  0  0  0999 V2000
    8.3120    0.9350   21.1060 O   0  0  0  0  0  0  0  0  0  0  0  0
    7.7400   -0.0820   21.4830 C   0  0  0  0  0  0  0  0  0  0  0  0
    8.1990   -0.8250   22.5840 N   0  0  0  0  0  0  0  0  0  0  0  0
    9.5090   -0.5760   22.6240 C   0  0  0  0  0  0  0  0  0  0  0  0
    9.9210    0.6960   23.0440 C   0  0  0  0  0  0  0  0  0  0  0  0
   11.2510    1.0460   23.1130 C   0  0  0  0  0  0  0  0  0  0  0  0
   12.1990    0.1250   22.7730 C   0  0  0  0  0  0  0  0  0  0  0  0
   13.5800    0.3030   22.8370 C   0  0  0  0  0  0  0  0  0  0  0  0
   13.8770   -0.7160   22.3040 O   0  0  0  0  0  0  0  0  0  0  0  0
   12.8190   -1.5490   22.7200 C   0  0  0  0  0  0  0  0  0  0  0  0
   12.2850   -0.8860   23.9660 C   0  0  0  0  0  0  0  0  0  0  0  0
   12.6370   -1.7050   24.9830 C   0  0  0  0  0  0  0  0  0  0  0  0
   13.3910   -2.6970   24.4610 C   0  0  0  0  0  0  0  0  0  0  0  0
   13.1230   -2.8290   23.0970 C   0  0  0  0  0  0  0  0  0  0  0  0
   11.8260   -1.2380   22.2980 C   0  0  0  0  0  0  0  0  0  0  0  0
   10.5550   -1.5990   22.2150 C   0  0  0  0  0  0  0  0  0  0  0  0
    6.6330   -0.6230   20.9170 N   0  0  0  0  0  0  0  0  0  0  0  0
    6.1200    0.0700   19.8560 C   0  0  0  0  0  0  0  0  0  0  0  0
    4.9260    0.7570   20.0190 C   0  0  0  0  0  0  0  0  0  0  0  0
    4.4230    1.4800   18.9500 C   0  0  0  0  0  0  0  0  0  0  0  0
    5.1400    1.4870   17.7550 C   0  0  0  0  0  0  0  0  0  0  0  0
    6.2910    0.8170   17.5940 N   0  0  0  0  0  0  0  0  0  0  0  0
    6.7500    0.1270   18.6450 C   0  0  0  0  0  0  0  0  0  0  0  0
  1  2  2  0
  2  3  1  0
  3  4  1  0
  4  5  2  0
  5  6  1  0
  6  7  2  0
  7  8  1  0
  8  9  1  0
  9 10  1  0
 10 11  1  0
 11 12  1  0
 12 13  1  0
 10 14  1  0
 13 14  1  0
  7 15  1  0
  4 16  1  0
 15 16  2  0
  2 17  1  0
 17 18  1  0
 18 19  2  0
 19 20  1  0
 20 21  2  0
 21 22  1  0
 18 23  1  0
 22 23  2  0
M  END
