pyridine_urea_4346
     RDKit          3D

 24 26  0  0  0  0  0  0  0  0999 V2000
    4.6950   -1.6050   24.0270 C   0  0  0  0  0  0  0  0  0  0  0  0
    5.5700   -0.9820   22.9290 C   0  0  0  0  0  0  0  0  0  0  0  0
    5.6880   -1.9920   21.7850 C   0  0  0  0  0  0  0  0  0  0  0  0
    6.9180   -0.6340   23.5840 C   0  0  2  0  0  0  0  0  0  0  0  0
    7.7630    0.4310   22.9830 N   0  0  0  0  0  0  0  0  0  0  0  0
    8.1090    0.5080   21.6530 C   0  0  0  0  0  0  0  0  0  0  0  0
    8.9880    1.2570   21.2230 O   0  0  0  0  0  0  0  0  0  0  0  0
    7.2860   -0.3360   20.9030 N   0  0  0  0  0  0  0  0  0  0  0  0
    6.4890    0.2210   19.9590 C   0  0  0  0  0  0  0  0  0  0  0  0
    5.1790    0.9450   20.2540 C   0  0  0  0  0  0  0  0  0  0  0  0
    4.5500    1.4680   19.1300 C   0  0  0  0  0  0  0  0  0  0  0  0
    5.1150    1.3090   17.8750 C   0  0  0  0  0  0  0  0  0  0  0  0
    6.2580    0.6600   17.6270 N   0  0  0  0  0  0  0  0  0  0  0  0
    6.9100    0.1350   18.6650 C   0  0  0  0  0  0  0  0  0  0  0  0
    7.8200   -1.7950   23.7490 C   0  0  0  0  0  0  0  0  0  0  0  0
    9.0860   -1.4760   23.6440 N   0  0  0  0  0  0  0  0  0  0  0  0
    9.6680   -2.6200   23.8150 C   0  0  0  0  0  0  0  0  0  0  0  0
   11.1470   -2.4740   23.7260 C   0  0  0  0  0  0  0  0  0  0  0  0
   11.8310   -2.2190   22.6250 N   0  0  0  0  0  0  0  0  0  0  0  0
   13.1230   -2.1460   22.9540 C   0  0  0  0  0  0  0  0  0  0  0  0
   13.3390   -2.3570   24.2750 N   0  0  0  0  0  0  0  0  0  0  0  0
   12.0540   -2.5620   24.7370 N   0  0  0  0  0  0  0  0  0  0  0  0
    8.7940   -3.6210   24.0250 N   0  0  0  0  0  0  0  0  0  0  0  0
    7.5390   -2.9710   23.9620 O   0  0  0  0  0  0  0  0  0  0  0  0
  1  2  1  0
  2  3  1  0
  2  4  1  0
  4  5  1  6
  5  6  1  0
  6  7  2  0
  6  8  1  0
  8  9  1  0
  9 10  2  0
 10 11  1  0
 11 12  2  0
 12 13  1  0
  9 14  1  0
 13 14  2  0
  4 15  1  0
 15 16  2  0
 16 17  1  0
 17 18  1  0
 18 19  2  0
 19 20  1  0
 20 21  2  0
 18 22  1  0
 21 22  1  0
 17 23  2  0
 15 24  1  0
 23 24  1  0
M  END
