pyridine_urea_8073
     RDKit          3D

 24 26  0  0  0  0  0  0  0  0999 V2000
    8.9600    1.1350   21.1520 O   0  0  0  0  0  0  0  0  0  0  0  0
    8.3610    0.1240   21.5440 C   0  0  0  0  0  0  0  0  0  0  0  0
    8.6810   -0.5190   22.7170 N   0  0  0  0  0  0  0  0  0  0  0  0
    8.1080    0.0280   23.9380 C   0  0  0  0  0  0  0  0  0  0  0  0
    8.4550    1.5450   24.2070 C   0  0  0  0  0  0  0  0  0  0  0  0
    9.7630    1.7140   23.9960 C   0  0  0  0  0  0  0  0  0  0  0  0
   10.2480    0.4660   23.9780 N   0  0  0  0  0  0  0  0  0  0  0  0
   11.4780    0.6490   23.7600 C   0  0  0  0  0  0  0  0  0  0  0  0
   12.2090   -0.4330   23.6840 C   0  0  0  0  0  0  0  0  0  0  0  0
   12.3470   -1.0850   22.3890 C   0  0  0  0  0  0  0  0  0  0  0  0
   13.1270   -2.2840   22.1110 C   0  0  0  0  0  0  0  0  0  0  0  0
   13.7780   -2.8110   23.3630 C   0  0  0  0  0  0  0  0  0  0  0  0
   13.5930   -2.1470   24.7230 C   0  0  0  0  0  0  0  0  0  0  0  0
   14.2950   -2.7990   26.0780 Cl  0  0  0  0  0  0  0  0  0  0  0  0
   12.8000   -0.9140   24.9090 C   0  0  0  0  0  0  0  0  0  0  0  0
   11.8880    1.9720   23.6220 N   0  0  0  0  0  0  0  0  0  0  0  0
   10.6780    2.7110   23.7950 O   0  0  0  0  0  0  0  0  0  0  0  0
    7.2910   -0.4900   20.9400 N   0  0  0  0  0  0  0  0  0  0  0  0
    6.5230    0.1220   20.0200 C   0  0  0  0  0  0  0  0  0  0  0  0
    5.3620    0.8410   20.2550 C   0  0  0  0  0  0  0  0  0  0  0  0
    4.6460    1.4570   19.2400 C   0  0  0  0  0  0  0  0  0  0  0  0
    5.1490    1.3200   17.9550 C   0  0  0  0  0  0  0  0  0  0  0  0
    6.2660    0.6220   17.6740 N   0  0  0  0  0  0  0  0  0  0  0  0
    6.9170    0.0460   18.7030 C   0  0  0  0  0  0  0  0  0  0  0  0
  1  2  2  0
  2  3  1  0
  3  4  1  0
  4  5  1  0
  5  6  1  0
  6  7  2  0
  7  8  1  0
  8  9  1  0
  9 10  2  0
 10 11  1  0
 11 12  2  0
 12 13  1  0
 13 14  1  0
  9 15  1  0
 13 15  2  0
  8 16  2  0
  6 17  1  0
 16 17  1  0
  2 18  1  0
 18 19  1  0
 19 20  2  0
 20 21  1  0
 21 22  2  0
 22 23  1  0
 19 24  1  0
 23 24  2  0
M  END
