pyridine_urea_13054
     RDKit          3D

 21 23  0  0  0  0  0  0  0  0999 V2000
   13.3040   -2.0340   21.1690 C   0  0  0  0  0  0  0  0  0  0  0  0
   13.2280   -2.7800   22.4650 C   0  0  0  0  0  0  0  0  0  0  0  0
   12.9100   -1.8910   23.4850 N   0  0  0  0  0  0  0  0  0  0  0  0
   13.6040   -1.6520   24.6130 N   0  0  0  0  0  0  0  0  0  0  0  0
   12.7240   -0.6840   25.1440 C   0  0  0  0  0  0  0  0  0  0  0  0
   11.6100   -0.3660   24.4290 C   0  0  0  0  0  0  0  0  0  0  0  0
   10.5360    0.4460   24.5300 C   0  0  0  0  0  0  0  0  0  0  0  0
    9.5820    0.3560   23.4340 C   0  0  0  0  0  0  0  0  0  0  0  0
    9.8270   -0.5140   22.3980 C   0  0  0  0  0  0  0  0  0  0  0  0
    9.0240   -0.6740   21.4030 N   0  0  0  0  0  0  0  0  0  0  0  0
    8.2380    0.3520   21.2200 C   0  0  0  0  0  0  0  0  0  0  0  0
    8.6550    1.5090   21.1590 O   0  0  0  0  0  0  0  0  0  0  0  0
    6.9780   -0.0710   21.0800 N   0  0  0  0  0  0  0  0  0  0  0  0
    6.3520    0.4050   19.9310 C   0  0  0  0  0  0  0  0  0  0  0  0
    5.2090    1.1330   20.1430 C   0  0  0  0  0  0  0  0  0  0  0  0
    4.5540    1.6720   19.0570 C   0  0  0  0  0  0  0  0  0  0  0  0
    5.1010    1.4420   17.7990 C   0  0  0  0  0  0  0  0  0  0  0  0
    6.2050    0.7180   17.5810 N   0  0  0  0  0  0  0  0  0  0  0  0
    6.8120    0.2120   18.6590 C   0  0  0  0  0  0  0  0  0  0  0  0
   10.9520   -1.4150   22.1680 C   0  0  0  0  0  0  0  0  0  0  0  0
   11.7860   -1.2680   23.2440 C   0  0  0  0  0  0  0  0  0  0  0  0
  1  2  1  0
  2  3  1  0
  3  4  1  0
  4  5  2  0
  5  6  1  0
  6  7  1  0
  7  8  2  0
  8  9  1  0
  9 10  1  0
 10 11  1  0
 11 12  2  0
 11 13  1  0
 13 14  1  0
 14 15  2  0
 15 16  1  0
 16 17  2  0
 17 18  1  0
 14 19  1  0
 18 19  2  0
  9 20  2  0
  3 21  1  0
  6 21  2  0
 20 21  1  0
M  END
