pyridine_urea_4215
     RDKit          3D

 25 26  0  0  0  0  0  0  0  0999 V2000
    8.2040   -2.7700   25.4630 C   0  0  0  0  0  0  0  0  0  0  0  0
    7.9150   -1.5940   24.5140 C   0  0  0  0  0  0  0  0  0  0  0  0
    8.7780   -0.4260   24.7210 N   0  0  0  0  0  0  0  0  0  0  0  0
    9.5910   -0.4090   25.8340 C   0  0  0  0  0  0  0  0  0  0  0  0
    9.0140    0.3450   27.0130 C   0  0  0  0  0  0  0  0  0  0  0  0
    9.0950    0.4360   23.6760 C   0  0  0  0  0  0  0  0  0  0  0  0
    8.8250    1.6180   23.5400 O   0  0  0  0  0  0  0  0  0  0  0  0
    9.8740   -0.1850   22.5230 C   0  0  1  0  0  0  0  0  0  0  0  0
   10.7570   -1.1650   23.1530 C   0  0  0  0  0  0  0  0  0  0  0  0
   11.9960   -1.2720   22.5750 C   0  0  0  0  0  0  0  0  0  0  0  0
   12.2190   -0.0560   22.9390 C   0  0  0  0  0  0  0  0  0  0  0  0
   11.5620    0.8780   23.5700 C   0  0  0  0  0  0  0  0  0  0  0  0
   12.5970    1.6210   23.3760 C   0  0  0  0  0  0  0  0  0  0  0  0
   13.5340    0.7880   22.6890 C   0  0  0  0  0  0  0  0  0  0  0  0
   13.2490   -0.7020   22.2550 C   0  0  0  0  0  0  0  0  0  0  0  0
    9.0130   -0.8040   21.7080 N   0  0  0  0  0  0  0  0  0  0  0  0
    8.0980    0.0560   21.1560 C   0  0  0  0  0  0  0  0  0  0  0  0
    8.4180    1.3660   20.8820 O   0  0  0  0  0  0  0  0  0  0  0  0
    6.9280   -0.5470   20.9420 N   0  0  0  0  0  0  0  0  0  0  0  0
    6.3270    0.0740   19.9370 C   0  0  0  0  0  0  0  0  0  0  0  0
    5.1320    0.7430   20.1720 C   0  0  0  0  0  0  0  0  0  0  0  0
    4.5360    1.4050   19.1160 C   0  0  0  0  0  0  0  0  0  0  0  0
    5.1500    1.3790   17.8670 C   0  0  0  0  0  0  0  0  0  0  0  0
    6.2980    0.7260   17.6410 N   0  0  0  0  0  0  0  0  0  0  0  0
    6.8560    0.0910   18.6750 C   0  0  0  0  0  0  0  0  0  0  0  0
  1  2  1  0
  2  3  1  0
  3  4  1  0
  4  5  1  0
  3  6  1  0
  6  7  2  0
  6  8  1  0
  8  9  1  1
  9 10  1  0
 10 11  2  0
 11 12  1  0
 12 13  2  0
 13 14  1  0
 10 15  1  0
 14 15  2  0
  8 16  1  0
 16 17  1  0
 17 18  2  0
 17 19  1  0
 19 20  1  0
 20 21  2  0
 21 22  1  0
 22 23  2  0
 23 24  1  0
 20 25  1  0
 24 25  2  0
M  END
