pyridine_urea_10824
     RDKit          3D

 20 21  0  0  0  0  0  0  0  0999 V2000
    6.5800   -6.6420   22.5560 C   0  0  0  0  0  0  0  0  0  0  0  0
    5.8670   -5.9090   23.5570 O   0  0  0  0  0  0  0  0  0  0  0  0
    6.4050   -4.6880   23.8190 C   0  0  0  0  0  0  0  0  0  0  0  0
    7.7050   -4.4770   23.3690 C   0  0  0  0  0  0  0  0  0  0  0  0
    8.0960   -3.0490   23.4930 N   0  0  0  0  0  0  0  0  0  0  0  0
    7.1640   -2.0780   23.3680 C   0  0  0  0  0  0  0  0  0  0  0  0
    7.6080   -0.7700   23.5740 C   0  0  0  0  0  0  0  0  0  0  0  0
    8.6700   -0.2700   22.9090 N   0  0  0  0  0  0  0  0  0  0  0  0
    8.3780    0.2240   21.6840 C   0  0  0  0  0  0  0  0  0  0  0  0
    8.8970    1.2080   21.1360 O   0  0  0  0  0  0  0  0  0  0  0  0
    7.4100   -0.4000   20.9890 N   0  0  0  0  0  0  0  0  0  0  0  0
    6.6410    0.2090   19.9510 C   0  0  0  0  0  0  0  0  0  0  0  0
    5.4220    1.0580   20.2590 C   0  0  0  0  0  0  0  0  0  0  0  0
    4.7030    1.6580   19.2450 C   0  0  0  0  0  0  0  0  0  0  0  0
    5.1010    1.4840   17.9140 C   0  0  0  0  0  0  0  0  0  0  0  0
    6.1950    0.7090   17.5960 N   0  0  0  0  0  0  0  0  0  0  0  0
    6.9550    0.0750   18.6400 C   0  0  0  0  0  0  0  0  0  0  0  0
    9.3250   -2.6050   22.9940 C   0  0  0  0  0  0  0  0  0  0  0  0
   10.4500   -2.8960   23.5170 C   0  0  0  0  0  0  0  0  0  0  0  0
   10.1910   -1.5470   23.8530 C   0  0  0  0  0  0  0  0  0  0  0  0
  1  2  1  0
  2  3  1  0
  3  4  1  0
  4  5  1  0
  5  6  1  0
  6  7  1  0
  7  8  1  0
  8  9  1  0
  9 10  2  0
  9 11  1  0
 11 12  1  0
 12 13  2  0
 13 14  1  0
 14 15  2  0
 15 16  1  0
 12 17  1  0
 16 17  2  0
  5 18  1  0
 18 19  1  0
 18 20  1  0
 19 20  1  0
M  END
