pyridine_urea_13621
     RDKit          3D

 27 29  0  0  0  0  0  0  0  0999 V2000
    9.0200    1.5360   21.2560 O   0  0  0  0  0  0  0  0  0  0  0  0
    8.6760    0.5150   21.8580 C   0  0  0  0  0  0  0  0  0  0  0  0
    9.3310    0.0090   22.9830 N   0  0  0  0  0  0  0  0  0  0  0  0
   10.6340   -0.5180   23.0190 C   0  0  0  0  0  0  0  0  0  0  0  0
   10.8830   -1.8970   22.4300 C   0  0  0  0  0  0  0  0  0  0  0  0
    9.5510   -2.4330   21.9210 C   0  0  0  0  0  0  0  0  0  0  0  0
    8.7540   -3.2520   22.9000 C   0  0  0  0  0  0  0  0  0  0  0  0
    9.4560   -3.3400   24.1240 O   0  0  0  0  0  0  0  0  0  0  0  0
    7.5610   -3.8310   22.6240 N   0  0  0  0  0  0  0  0  0  0  0  0
    7.1970   -4.9010   23.3830 C   0  0  0  0  0  0  0  0  0  0  0  0
    6.2160   -4.7970   24.3680 C   0  0  0  0  0  0  0  0  0  0  0  0
    5.0120   -4.4320   23.6650 N   0  0  0  0  0  0  0  0  0  0  0  0
    3.9090   -5.2400   23.7890 C   0  0  0  0  0  0  0  0  0  0  0  0
    2.7120   -4.6360   24.1420 C   0  0  0  0  0  0  0  0  0  0  0  0
    1.5580   -5.3890   24.2820 C   0  0  0  0  0  0  0  0  0  0  0  0
    1.5590   -6.7820   24.0780 C   0  0  0  0  0  0  0  0  0  0  0  0
    2.7200   -7.5270   23.7160 C   0  0  0  0  0  0  0  0  0  0  0  0
    3.9570   -6.6320   23.5750 C   0  0  0  0  0  0  0  0  0  0  0  0
    5.2100   -3.6080   22.5450 C   0  0  0  0  0  0  0  0  0  0  0  0
    6.4170   -2.9070   22.5830 C   0  0  0  0  0  0  0  0  0  0  0  0
    7.5660   -0.1560   21.3960 N   0  0  0  0  0  0  0  0  0  0  0  0
    6.7370    0.2870   20.2440 C   0  0  0  0  0  0  0  0  0  0  0  0
    5.6240    1.0550   20.5510 C   0  0  0  0  0  0  0  0  0  0  0  0
    4.7190    1.5790   19.4350 C   0  0  0  0  0  0  0  0  0  0  0  0
    5.1650    1.1800   18.0450 C   0  0  0  0  0  0  0  0  0  0  0  0
    6.2300    0.4300   17.7360 N   0  0  0  0  0  0  0  0  0  0  0  0
    7.0000   -0.0170   18.7570 C   0  0  0  0  0  0  0  0  0  0  0  0
  1  2  2  0
  2  3  1  0
  3  4  1  0
  4  5  1  0
  5  6  1  0
  6  7  1  0
  7  8  2  0
  7  9  1  0
  9 10  1  0
 10 11  1  0
 11 12  1  0
 12 13  1  0
 13 14  2  0
 14 15  1  0
 15 16  2  0
 16 17  1  0
 13 18  1  0
 17 18  2  0
 12 19  1  0
  9 20  1  0
 19 20  1  0
  2 21  1  0
 21 22  1  0
 22 23  2  0
 23 24  1  0
 24 25  2  0
 25 26  1  0
 22 27  1  0
 26 27  2  0
M  END
