pyridine_urea_12836
     RDKit          3D

 20 21  0  0  0  0  0  0  0  0999 V2000
   13.2220   -2.5810   24.5980 C   0  0  0  0  0  0  0  0  0  0  0  0
   13.4920   -1.1890   24.7650 O   0  0  0  0  0  0  0  0  0  0  0  0
   13.0870   -0.2730   23.8170 C   0  0  0  0  0  0  0  0  0  0  0  0
   13.7720    0.2650   22.9620 O   0  0  0  0  0  0  0  0  0  0  0  0
   11.6390    0.0130   23.9890 C   0  0  0  0  0  0  0  0  0  0  0  0
   10.3160   -0.0960   23.7210 C   0  0  0  0  0  0  0  0  0  0  0  0
    9.9560   -0.9190   22.7310 C   0  0  0  0  0  0  0  0  0  0  0  0
    8.5580   -1.0120   22.4810 N   0  0  0  0  0  0  0  0  0  0  0  0
    8.1000   -0.1720   21.5190 C   0  0  0  0  0  0  0  0  0  0  0  0
    8.6640    0.8760   21.2300 O   0  0  0  0  0  0  0  0  0  0  0  0
    6.9580   -0.6590   20.9620 N   0  0  0  0  0  0  0  0  0  0  0  0
    6.2950    0.0400   19.9680 C   0  0  0  0  0  0  0  0  0  0  0  0
    5.0960    0.7560   20.1430 C   0  0  0  0  0  0  0  0  0  0  0  0
    4.5290    1.4400   19.0690 C   0  0  0  0  0  0  0  0  0  0  0  0
    5.1600    1.4060   17.8330 C   0  0  0  0  0  0  0  0  0  0  0  0
    6.3170    0.7050   17.6650 N   0  0  0  0  0  0  0  0  0  0  0  0
    6.8760    0.0270   18.7240 C   0  0  0  0  0  0  0  0  0  0  0  0
   10.9080   -1.5870   22.0440 C   0  0  0  0  0  0  0  0  0  0  0  0
   11.8430   -0.9970   22.8290 N   0  0  0  0  0  0  0  0  0  0  0  0
   13.0550   -1.4790   22.3830 C   0  0  0  0  0  0  0  0  0  0  0  0
  1  2  1  0
  2  3  1  0
  3  4  2  0
  3  5  1  0
  5  6  2  0
  6  7  1  0
  7  8  1  0
  8  9  1  0
  9 10  2  0
  9 11  1  0
 11 12  1  0
 12 13  2  0
 13 14  1  0
 14 15  2  0
 15 16  1  0
 12 17  1  0
 16 17  2  0
  7 18  2  0
  5 19  1  0
 18 19  1  0
 19 20  1  0
M  END
