pyridine_urea_10095
     RDKit          3D

 23 24  0  0  0  0  0  0  0  0999 V2000
   11.3940   -3.1590   24.3610 C   0  0  0  0  0  0  0  0  0  0  0  0
   10.3470   -2.4900   23.5130 C   0  0  1  0  0  0  0  0  0  0  0  0
   10.9820   -2.1740   22.3060 O   0  0  0  0  0  0  0  0  0  0  0  0
   11.5050   -0.9720   22.5230 C   0  0  0  0  0  0  0  0  0  0  0  0
   12.8500   -0.6150   22.6020 C   0  0  0  0  0  0  0  0  0  0  0  0
   13.1320    0.7030   22.8670 C   0  0  0  0  0  0  0  0  0  0  0  0
   12.1780    1.6820   23.0590 C   0  0  0  0  0  0  0  0  0  0  0  0
   10.7150    1.2770   22.9660 C   0  0  0  0  0  0  0  0  0  0  0  0
   10.4860   -0.0480   22.6990 C   0  0  0  0  0  0  0  0  0  0  0  0
    9.0680   -0.4380   22.6030 N   0  0  0  0  0  0  0  0  0  0  0  0
    8.3150    0.2320   21.5190 C   0  0  0  0  0  0  0  0  0  0  0  0
    8.7340    1.5280   21.0450 O   0  0  0  0  0  0  0  0  0  0  0  0
    7.1800   -0.5380   21.0500 N   0  0  0  0  0  0  0  0  0  0  0  0
    6.4790    0.0920   20.0300 C   0  0  0  0  0  0  0  0  0  0  0  0
    5.2880    0.7950   20.2540 C   0  0  0  0  0  0  0  0  0  0  0  0
    4.5990    1.4720   19.1240 C   0  0  0  0  0  0  0  0  0  0  0  0
    5.1370    1.4090   17.8470 C   0  0  0  0  0  0  0  0  0  0  0  0
    6.3180    0.6810   17.6990 N   0  0  0  0  0  0  0  0  0  0  0  0
    6.9400    0.0640   18.7280 C   0  0  0  0  0  0  0  0  0  0  0  0
    9.0120   -2.9770   23.4800 C   0  0  0  0  0  0  0  0  0  0  0  0
    8.5040   -2.9040   22.2490 F   0  0  0  0  0  0  0  0  0  0  0  0
    8.1810   -2.2020   24.2420 F   0  0  0  0  0  0  0  0  0  0  0  0
    8.7960   -4.2160   23.9350 F   0  0  0  0  0  0  0  0  0  0  0  0
  2  1  1  6
  2  3  1  0
  3  4  1  0
  4  5  2  0
  5  6  1  0
  6  7  2  0
  7  8  1  0
  4  9  1  0
  8  9  2  0
  9 10  1  0
 10 11  1  0
 11 12  2  0
 11 13  1  0
 13 14  1  0
 14 15  2  0
 15 16  1  0
 16 17  2  0
 17 18  1  0
 14 19  1  0
 18 19  2  0
  2 20  1  0
 20 21  1  0
 20 22  1  0
 20 23  1  0
M  END
