pyridine_urea_1069
     RDKit          3D

 21 22  0  0  0  0  0  0  0  0999 V2000
    9.4880   -0.0110   25.4140 C   0  0  0  0  0  0  0  0  0  0  0  0
    9.5330    1.1720   24.5590 N   0  0  0  0  0  0  0  0  0  0  0  0
    8.4560    2.0450   24.6450 C   0  0  0  0  0  0  0  0  0  0  0  0
   10.7690    1.6590   24.1460 C   0  0  0  0  0  0  0  0  0  0  0  0
   11.8410    1.0930   23.5490 N   0  0  0  0  0  0  0  0  0  0  0  0
   11.9300   -0.4840   23.1250 C   0  0  0  0  0  0  0  0  0  0  0  0
   13.1040   -0.4130   22.6300 C   0  0  0  0  0  0  0  0  0  0  0  0
   12.8280    0.8810   23.0680 C   0  0  0  0  0  0  0  0  0  0  0  0
   11.3100    0.5690   23.6570 C   0  0  0  0  0  0  0  0  0  0  0  0
   10.6670   -0.8150   23.6080 C   0  0  0  0  0  0  0  0  0  0  0  0
   10.1300   -1.0570   22.3600 C   0  0  0  0  0  0  0  0  0  0  0  0
    8.8590   -1.3670   22.3230 N   0  0  0  0  0  0  0  0  0  0  0  0
    8.2730   -0.3360   21.5640 C   0  0  0  0  0  0  0  0  0  0  0  0
    8.8550    0.7150   21.3080 O   0  0  0  0  0  0  0  0  0  0  0  0
    6.9960   -0.6290   21.1480 N   0  0  0  0  0  0  0  0  0  0  0  0
    6.4320    0.0170   19.9830 C   0  0  0  0  0  0  0  0  0  0  0  0
    5.2920    0.7320   20.3150 C   0  0  0  0  0  0  0  0  0  0  0  0
    4.6720    1.4000   19.2790 C   0  0  0  0  0  0  0  0  0  0  0  0
    5.1910    1.3350   18.0010 C   0  0  0  0  0  0  0  0  0  0  0  0
    6.2890    0.6420   17.6730 N   0  0  0  0  0  0  0  0  0  0  0  0
    6.8950   -0.0120   18.6880 C   0  0  0  0  0  0  0  0  0  0  0  0
  1  2  1  0
  2  3  1  0
  2  4  1  0
  4  5  2  0
  5  6  1  0
  6  7  2  0
  7  8  1  0
  4  9  1  0
  8  9  2  0
  9 10  1  0
 10 11  1  0
 11 12  1  0
 12 13  1  0
 13 14  2  0
 13 15  1  0
 15 16  1  0
 16 17  2  0
 17 18  1  0
 18 19  2  0
 19 20  1  0
 16 21  1  0
 20 21  2  0
M  END
