pyridine_urea_8707
     RDKit          3D

 21 23  0  0  0  0  0  0  0  0999 V2000
    8.9140    1.1650   21.8890 O   0  0  0  0  0  0  0  0  0  0  0  0
    8.7700    0.0300   21.4810 C   0  0  0  0  0  0  0  0  0  0  0  0
    9.8030   -0.8860   21.3640 N   0  0  0  0  0  0  0  0  0  0  0  0
   10.5070   -1.6140   22.3660 C   0  0  0  0  0  0  0  0  0  0  0  0
   11.8620   -1.3450   22.7970 C   0  0  0  0  0  0  0  0  0  0  0  0
   11.9370   -0.9410   24.0250 C   0  0  0  0  0  0  0  0  0  0  0  0
   11.5940   -0.4480   25.2610 C   0  0  0  0  0  0  0  0  0  0  0  0
   10.1760   -0.0430   25.6100 C   0  0  0  0  0  0  0  0  0  0  0  0
    9.6250   -0.3010   24.5030 C   0  0  0  0  0  0  0  0  0  0  0  0
   10.2740   -0.8940   23.1540 S   0  0  0  0  0  0  0  0  0  0  0  0
   12.7580   -0.4430   22.2690 C   0  0  0  0  0  0  0  0  0  0  0  0
   13.4120   -1.1870   21.4140 C   0  0  0  0  0  0  0  0  0  0  0  0
   12.6790   -2.2720   21.4510 C   0  0  0  0  0  0  0  0  0  0  0  0
   12.6880   -2.6560   22.7990 C   0  0  0  0  0  0  0  0  0  0  0  0
    7.5550   -0.4680   21.0370 N   0  0  0  0  0  0  0  0  0  0  0  0
    6.7160    0.0820   20.0510 C   0  0  0  0  0  0  0  0  0  0  0  0
    5.5600    0.7820   20.4300 C   0  0  0  0  0  0  0  0  0  0  0  0
    4.7560    1.3380   19.4420 C   0  0  0  0  0  0  0  0  0  0  0  0
    5.1210    1.1830   18.1160 C   0  0  0  0  0  0  0  0  0  0  0  0
    6.2120    0.5140   17.7340 N   0  0  0  0  0  0  0  0  0  0  0  0
    6.9790   -0.0200   18.7060 C   0  0  0  0  0  0  0  0  0  0  0  0
  1  2  2  0
  2  3  1  0
  3  4  1  0
  5  4  1  0
  5  6  1  0
  6  7  2  0
  7  8  1  0
  8  9  2  0
  6 10  1  0
  9 10  1  0
  5 11  1  0
 11 12  1  0
 12 13  1  0
  5 14  1  0
 13 14  1  0
  2 15  1  0
 15 16  1  0
 16 17  2  0
 17 18  1  0
 18 19  2  0
 19 20  1  0
 16 21  1  0
 20 21  2  0
M  END
