pyridine_urea_1733
     RDKit          3D

 18 19  0  0  0  0  0  0  0  0999 V2000
    8.7130    1.1910   21.0560 O   0  0  0  0  0  0  0  0  0  0  0  0
    8.0100    0.2460   21.4510 C   0  0  0  0  0  0  0  0  0  0  0  0
    7.0090   -0.4020   20.8260 N   0  0  0  0  0  0  0  0  0  0  0  0
    6.3530    0.2160   19.8150 C   0  0  0  0  0  0  0  0  0  0  0  0
    5.1480    0.8590   20.0660 C   0  0  0  0  0  0  0  0  0  0  0  0
    4.5120    1.5080   19.0190 C   0  0  0  0  0  0  0  0  0  0  0  0
    5.1190    1.4740   17.7850 C   0  0  0  0  0  0  0  0  0  0  0  0
    6.2720    0.8440   17.5430 N   0  0  0  0  0  0  0  0  0  0  0  0
    6.8580    0.2320   18.5650 C   0  0  0  0  0  0  0  0  0  0  0  0
    8.1530   -0.3020   22.6440 N   0  0  0  0  0  0  0  0  0  0  0  0
    9.4680   -0.6090   23.0100 C   0  0  0  0  0  0  0  0  0  0  0  0
    9.6770   -1.9710   23.5620 C   0  0  0  0  0  0  0  0  0  0  0  0
   10.9160   -2.2640   23.9310 C   0  0  0  0  0  0  0  0  0  0  0  0
   11.9050   -1.3700   23.7950 C   0  0  0  0  0  0  0  0  0  0  0  0
   13.5010   -2.3910   24.5550 I   0  0  0  0  0  0  0  0  0  0  0  0
   11.7130   -0.0990   23.2510 C   0  0  0  0  0  0  0  0  0  0  0  0
   13.0000    1.1490   22.9920 Br  0  0  0  0  0  0  0  0  0  0  0  0
   10.4740    0.2820   22.8640 C   0  0  0  0  0  0  0  0  0  0  0  0
  1  2  2  0
  2  3  1  0
  3  4  1  0
  4  5  2  0
  5  6  1  0
  6  7  2  0
  7  8  1  0
  4  9  1  0
  8  9  2  0
  2 10  1  0
 10 11  1  0
 11 12  2  0
 12 13  1  0
 13 14  2  0
 14 15  1  0
 14 16  1  0
 16 17  1  0
 11 18  1  0
 16 18  2  0
M  END
