pyridine_urea_3839
     RDKit          3D

 19 21  0  0  0  0  0  0  0  0999 V2000
    8.7360    1.3100   21.0910 O   0  0  0  0  0  0  0  0  0  0  0  0
    8.3100    0.2010   21.4420 C   0  0  0  0  0  0  0  0  0  0  0  0
    8.9870   -0.6370   22.2510 N   0  0  0  0  0  0  0  0  0  0  0  0
   10.3660   -0.5290   22.3380 C   0  0  0  0  0  0  0  0  0  0  0  0
   10.8910   -0.5250   23.5960 C   0  0  2  0  0  0  0  0  0  0  0  0
   12.2270   -0.2080   23.8900 C   0  0  0  0  0  0  0  0  0  0  0  0
   13.1860   -0.7870   23.2360 C   0  0  2  0  0  0  0  0  0  0  0  0
   12.7220   -0.9720   22.0420 C   0  0  0  0  0  0  0  0  0  0  0  0
   12.0190   -2.1350   22.0430 C   0  0  0  0  0  0  0  0  0  0  0  0
   11.9260   -2.6260   23.5180 C   0  0  2  0  0  0  0  0  0  0  0  0
   11.0340   -1.9060   24.2580 C   0  0  0  0  0  0  0  0  0  0  0  0
   13.4330   -2.2110   24.1560 S   0  0  0  0  0  0  0  0  0  0  0  0
    7.1160   -0.3370   21.0670 N   0  0  0  0  0  0  0  0  0  0  0  0
    6.3640    0.2350   20.0550 C   0  0  0  0  0  0  0  0  0  0  0  0
    5.1740    0.9280   20.2140 C   0  0  0  0  0  0  0  0  0  0  0  0
    4.5670    1.4640   19.1070 C   0  0  0  0  0  0  0  0  0  0  0  0
    5.1400    1.3090   17.8770 C   0  0  0  0  0  0  0  0  0  0  0  0
    6.2770    0.6420   17.6620 N   0  0  0  0  0  0  0  0  0  0  0  0
    6.8540    0.1220   18.7610 C   0  0  0  0  0  0  0  0  0  0  0  0
  1  2  2  0
  2  3  1  0
  3  4  1  0
  5  4  1  6
  5  6  1  0
  7  6  1  1
  7  8  1  0
  8  9  1  0
 10  9  1  6
  5 11  1  0
 10 11  1  0
  7 12  1  0
 10 12  1  0
  2 13  1  0
 13 14  1  0
 14 15  2  0
 15 16  1  0
 16 17  2  0
 17 18  1  0
 14 19  1  0
 18 19  2  0
M  END
