pyridine_urea_12027
     RDKit          3D

 23 25  0  0  0  0  0  0  0  0999 V2000
   13.1910   -2.3490   21.1670 C   0  0  0  0  0  0  0  0  0  0  0  0
   13.8580   -1.3810   21.5060 O   0  0  0  0  0  0  0  0  0  0  0  0
   13.0790   -0.6040   22.2160 C   0  0  0  0  0  0  0  0  0  0  0  0
   13.3310    0.4890   22.8690 C   0  0  0  0  0  0  0  0  0  0  0  0
   12.2470    1.0480   23.4960 C   0  0  0  0  0  0  0  0  0  0  0  0
   10.9740    0.3840   23.3530 C   0  0  0  0  0  0  0  0  0  0  0  0
   10.5950   -0.8210   22.6210 C   0  0  0  0  0  0  0  0  0  0  0  0
    9.4670   -0.3830   23.1720 C   0  0  0  0  0  0  0  0  0  0  0  0
    8.2490   -1.0750   22.8810 N   0  0  0  0  0  0  0  0  0  0  0  0
    7.8230   -0.4460   21.7400 C   0  0  0  0  0  0  0  0  0  0  0  0
    8.5370    0.6880   21.2030 O   0  0  0  0  0  0  0  0  0  0  0  0
    6.6980   -0.9100   21.1500 N   0  0  0  0  0  0  0  0  0  0  0  0
    6.1930   -0.1720   20.0790 C   0  0  0  0  0  0  0  0  0  0  0  0
    5.0000    0.5570   20.1860 C   0  0  0  0  0  0  0  0  0  0  0  0
    4.5160    1.3060   19.1130 C   0  0  0  0  0  0  0  0  0  0  0  0
    5.2110    1.3430   17.9140 C   0  0  0  0  0  0  0  0  0  0  0  0
    6.3570    0.6800   17.7050 N   0  0  0  0  0  0  0  0  0  0  0  0
    6.8490   -0.0500   18.7170 C   0  0  0  0  0  0  0  0  0  0  0  0
    9.6860    0.8320   24.0000 C   0  0  0  0  0  0  0  0  0  0  0  0
    8.8000    1.6050   24.7370 C   0  0  0  0  0  0  0  0  0  0  0  0
   11.1710    1.1240   23.8820 C   0  0  0  0  0  0  0  0  0  0  0  0
   12.0270    0.3120   23.1100 N   0  0  0  0  0  0  0  0  0  0  0  0
   11.8570   -0.8870   22.2970 C   0  0  0  0  0  0  0  0  0  0  0  0
  1  2  1  0
  2  3  1  0
  3  4  2  0
  4  5  1  0
  5  6  2  0
  6  7  1  0
  7  8  1  0
  8  9  1  0
  9 10  1  0
 10 11  2  0
 10 12  1  0
 12 13  1  0
 13 14  2  0
 14 15  1  0
 15 16  2  0
 16 17  1  0
 13 18  1  0
 17 18  2  0
  8 19  2  0
 19 20  1  0
 19 21  1  0
 21 22  2  0
  3 23  1  0
  7 23  2  0
 22 23  1  0
M  END
