pyridine_urea_1605
     RDKit          3D

 19 20  0  0  0  0  0  0  0  0999 V2000
    8.9420    1.2220   21.2590 O   0  0  0  0  0  0  0  0  0  0  0  0
    8.2620    0.2820   21.7080 C   0  0  0  0  0  0  0  0  0  0  0  0
    8.3350   -0.2450   22.9800 N   0  0  0  0  0  0  0  0  0  0  0  0
    9.4310   -0.8860   23.5780 C   0  0  0  0  0  0  0  0  0  0  0  0
   10.6080   -0.1820   23.5880 C   0  0  0  0  0  0  0  0  0  0  0  0
   11.9880    0.3370   23.3620 C   0  0  0  0  0  0  0  0  0  0  0  0
   13.0560   -0.0830   22.5540 C   0  0  0  0  0  0  0  0  0  0  0  0
   12.9680   -1.1670   21.7510 C   0  0  0  0  0  0  0  0  0  0  0  0
   13.8840   -1.6290   20.9320 F   0  0  0  0  0  0  0  0  0  0  0  0
   11.8030   -1.6240   21.9470 C   0  0  0  0  0  0  0  0  0  0  0  0
   10.5910   -1.3960   22.6850 C   0  0  0  0  0  0  0  0  0  0  0  0
    9.2400   -2.4620   22.5050 Cl  0  0  0  0  0  0  0  0  0  0  0  0
    7.2820   -0.3900   21.0180 N   0  0  0  0  0  0  0  0  0  0  0  0
    6.5710    0.1590   20.0110 C   0  0  0  0  0  0  0  0  0  0  0  0
    5.4120    0.8750   20.3140 C   0  0  0  0  0  0  0  0  0  0  0  0
    4.6930    1.4590   19.2760 C   0  0  0  0  0  0  0  0  0  0  0  0
    5.1590    1.3050   17.9870 C   0  0  0  0  0  0  0  0  0  0  0  0
    6.2610    0.6130   17.6770 N   0  0  0  0  0  0  0  0  0  0  0  0
    6.9370    0.0570   18.6930 C   0  0  0  0  0  0  0  0  0  0  0  0
  1  2  2  0
  2  3  1  0
  3  4  1  0
  4  5  1  0
  5  6  2  0
  6  7  1  0
  7  8  2  0
  8  9  1  0
  8 10  1  0
  5 11  1  0
 10 11  2  0
 11 12  1  0
  2 13  1  0
 13 14  1  0
 14 15  2  0
 15 16  1  0
 16 17  2  0
 17 18  1  0
 14 19  1  0
 18 19  2  0
M  END
