pyridine_urea_15246
     RDKit          3D

 16 17  0  0  0  0  0  0  0  0999 V2000
    8.4950    0.9280   21.0800 O   0  0  0  0  0  0  0  0  0  0  0  0
    8.2390   -0.1970   21.4820 C   0  0  0  0  0  0  0  0  0  0  0  0
    7.1170   -0.8660   21.0680 N   0  0  0  0  0  0  0  0  0  0  0  0
    6.4430   -0.1360   20.0300 C   0  0  0  0  0  0  0  0  0  0  0  0
    5.1580    0.6050   20.3890 C   0  0  0  0  0  0  0  0  0  0  0  0
    4.4690    1.3940   19.2720 C   0  0  0  0  0  0  0  0  0  0  0  0
    5.1630    1.3490   17.9100 C   0  0  0  0  0  0  0  0  0  0  0  0
    6.3400    0.6120   17.7530 N   0  0  0  0  0  0  0  0  0  0  0  0
    6.9420   -0.0910   18.7530 C   0  0  0  0  0  0  0  0  0  0  0  0
    9.0370   -0.8740   22.3730 N   0  0  0  0  0  0  0  0  0  0  0  0
   10.1840   -0.1710   22.7590 C   0  0  0  0  0  0  0  0  0  0  0  0
   10.3520    1.2140   22.6790 C   0  0  0  0  0  0  0  0  0  0  0  0
    9.5770    1.8400   23.6020 F   0  0  0  0  0  0  0  0  0  0  0  0
   11.6450    1.5810   22.8880 F   0  0  0  0  0  0  0  0  0  0  0  0
   11.4280   -0.9800   22.3920 C   0  0  0  0  0  0  0  0  0  0  0  0
   11.2280   -0.9940   23.6800 C   0  0  0  0  0  0  0  0  0  0  0  0
  1  2  2  0
  2  3  1  0
  3  4  1  0
  4  5  2  0
  5  6  1  0
  6  7  2  0
  7  8  1  0
  4  9  1  0
  8  9  2  0
  2 10  1  0
 11 10  1  0
 11 12  1  0
 12 13  1  0
 12 14  1  0
 11 15  1  0
 11 16  1  0
 15 16  1  0
M  END
