pyridine_urea_2762
     RDKit          3D

 22 24  0  0  0  0  0  0  0  0999 V2000
   13.1710   -1.7620   22.2760 C   0  0  0  0  0  0  0  0  0  0  0  0
   12.0820   -0.7640   22.6570 C   0  0  0  0  0  0  0  0  0  0  0  0
   12.6370    0.6610   22.7800 C   0  0  0  0  0  0  0  0  0  0  0  0
   11.7190    1.5660   23.0630 C   0  0  0  0  0  0  0  0  0  0  0  0
   10.3080    1.0160   23.2240 C   0  0  0  0  0  0  0  0  0  0  0  0
    9.4190   -0.1040   23.2330 C   0  0  0  0  0  0  0  0  0  0  0  0
   10.6690   -1.0830   22.8760 C   0  0  0  0  0  0  0  0  0  0  0  0
   10.3380   -2.5780   22.7410 C   0  0  0  0  0  0  0  0  0  0  0  0
    9.0370   -1.3090   23.1500 O   0  0  0  0  0  0  0  0  0  0  0  0
    9.8170   -2.0320   22.1420 C   0  0  0  0  0  0  0  0  0  0  0  0
   10.9100   -1.0910   21.7880 C   0  0  0  0  0  0  0  0  0  0  0  0
   10.6930   -0.3370   23.0240 C   0  0  2  0  0  0  0  0  0  0  0  0
    9.2160   -0.5080   22.7980 N   0  0  0  0  0  0  0  0  0  0  0  0
    8.6050    0.1820   21.7040 C   0  0  0  0  0  0  0  0  0  0  0  0
    9.0290    1.2790   21.2950 O   0  0  0  0  0  0  0  0  0  0  0  0
    7.5050   -0.4760   21.1660 N   0  0  0  0  0  0  0  0  0  0  0  0
    6.6200    0.1270   20.1440 C   0  0  0  0  0  0  0  0  0  0  0  0
    5.4550    0.8580   20.4150 C   0  0  0  0  0  0  0  0  0  0  0  0
    4.7360    1.3840   19.3490 C   0  0  0  0  0  0  0  0  0  0  0  0
    5.1780    1.1770   18.0710 C   0  0  0  0  0  0  0  0  0  0  0  0
    6.2710    0.4830   17.7580 N   0  0  0  0  0  0  0  0  0  0  0  0
    6.9650   -0.0270   18.8030 C   0  0  0  0  0  0  0  0  0  0  0  0
  1  2  1  0
  2  3  2  0
  3  4  1  0
  4  5  2  0
  5  6  1  0
  2  7  1  0
  6  7  2  0
  7  8  1  0
  6  9  1  0
  9 10  1  0
 10 11  1  0
  5 12  1  0
 11 12  1  0
 12 13  1  6
 13 14  1  0
 14 15  2  0
 14 16  1  0
 16 17  1  0
 17 18  2  0
 18 19  1  0
 19 20  2  0
 20 21  1  0
 17 22  1  0
 21 22  2  0
M  END
