pyridine_urea_9189
     RDKit          3D

 18 18  0  0  0  0  0  0  0  0999 V2000
   10.1030   -0.2310   25.3180 C   0  0  0  0  0  0  0  0  0  0  0  0
   10.5370    0.1450   23.9280 C   0  0  0  0  0  0  0  0  0  0  0  0
   10.0690    1.3320   23.3650 C   0  0  0  0  0  0  0  0  0  0  0  0
   12.0590    0.3220   23.9440 C   0  0  0  0  0  0  0  0  0  0  0  0
   12.7800   -0.6210   24.2450 O   0  0  0  0  0  0  0  0  0  0  0  0
   10.2760   -1.1150   23.0470 C   0  0  0  0  0  0  0  0  0  0  0  0
   10.1330   -2.2640   23.8450 C   0  0  0  0  0  0  0  0  0  0  0  0
   11.5390   -1.3730   22.1950 C   0  0  0  0  0  0  0  0  0  0  0  0
    9.1190   -1.1490   22.1590 N   0  0  0  0  0  0  0  0  0  0  0  0
    8.5210   -0.1130   21.4780 C   0  0  0  0  0  0  0  0  0  0  0  0
    9.1290    1.1710   21.2310 O   0  0  0  0  0  0  0  0  0  0  0  0
    7.1970   -0.5020   21.0440 N   0  0  0  0  0  0  0  0  0  0  0  0
    6.5210    0.0870   20.0300 C   0  0  0  0  0  0  0  0  0  0  0  0
    5.3570    0.8040   20.3160 C   0  0  0  0  0  0  0  0  0  0  0  0
    4.6710    1.4230   19.2760 C   0  0  0  0  0  0  0  0  0  0  0  0
    5.1620    1.3110   17.9900 C   0  0  0  0  0  0  0  0  0  0  0  0
    6.2700    0.6200   17.6980 N   0  0  0  0  0  0  0  0  0  0  0  0
    6.9220    0.0260   18.7150 C   0  0  0  0  0  0  0  0  0  0  0  0
  2  1  1  0
  2  3  1  0
  2  4  1  0
  4  5  1  0
  2  6  1  0
  6  7  1  0
  6  8  1  0
  6  9  1  0
  9 10  1  0
 10 11  2  0
 10 12  1  0
 12 13  1  0
 13 14  2  0
 14 15  1  0
 15 16  2  0
 16 17  1  0
 13 18  1  0
 17 18  2  0
M  END
