pyridine_urea_12272
     RDKit          3D

 22 23  0  0  0  0  0  0  0  0999 V2000
   12.7540   -2.5010   21.3910 C   0  0  0  0  0  0  0  0  0  0  0  0
   11.5370   -2.1770   22.2460 C   0  0  0  0  0  0  0  0  0  0  0  0
   11.7050   -0.7230   22.8050 C   0  0  0  0  0  0  0  0  0  0  0  0
   10.7460    0.1710   23.5500 C   0  0  0  0  0  0  0  0  0  0  0  0
   11.3110    1.5520   23.9140 C   0  0  0  0  0  0  0  0  0  0  0  0
   11.7520    0.4960   23.3090 C   0  0  0  0  0  0  0  0  0  0  0  0
   10.3100    0.1790   23.7260 C   0  0  0  0  0  0  0  0  0  0  0  0
    9.3950    1.3760   23.4190 C   0  0  0  0  0  0  0  0  0  0  0  0
   10.3260   -0.3370   25.1460 C   0  0  0  0  0  0  0  0  0  0  0  0
    9.8040   -0.9210   23.0470 C   0  0  0  0  0  0  0  0  0  0  0  0
    8.4370   -0.7700   22.6290 N   0  0  0  0  0  0  0  0  0  0  0  0
    8.1700   -0.0240   21.5120 C   0  0  0  0  0  0  0  0  0  0  0  0
    8.8120    0.9830   21.1630 O   0  0  0  0  0  0  0  0  0  0  0  0
    7.0540   -0.5760   20.8750 N   0  0  0  0  0  0  0  0  0  0  0  0
    6.3360    0.1020   19.9430 C   0  0  0  0  0  0  0  0  0  0  0  0
    5.1440    0.7780   20.1670 C   0  0  0  0  0  0  0  0  0  0  0  0
    4.5450    1.4440   19.1000 C   0  0  0  0  0  0  0  0  0  0  0  0
    5.1620    1.4060   17.8580 C   0  0  0  0  0  0  0  0  0  0  0  0
    6.3090    0.7480   17.6360 N   0  0  0  0  0  0  0  0  0  0  0  0
    6.8570    0.1180   18.6760 C   0  0  0  0  0  0  0  0  0  0  0  0
   12.8930    1.0350   23.0970 C   0  0  0  0  0  0  0  0  0  0  0  0
   13.1910   -0.1060   22.5090 C   0  0  0  0  0  0  0  0  0  0  0  0
  1  2  1  0
  2  3  1  0
  3  4  2  0
  4  5  1  0
  5  6  2  0
  6  7  1  0
  7  8  1  0
  7  9  1  0
  7 10  1  0
 10 11  1  0
 11 12  1  0
 12 13  2  0
 12 14  1  0
 14 15  1  0
 15 16  2  0
 16 17  1  0
 17 18  2  0
 18 19  1  0
 15 20  1  0
 19 20  2  0
  6 21  1  0
  3 22  1  0
 21 22  2  0
M  END
