pyridine_urea_9825
     RDKit          3D

 28 31  0  0  0  0  0  0  0  0999 V2000
    8.4260    0.7880   21.2700 O   0  0  0  0  0  0  0  0  0  0  0  0
    8.1570   -0.3590   21.5890 C   0  0  0  0  0  0  0  0  0  0  0  0
    7.0430   -0.9810   21.0910 N   0  0  0  0  0  0  0  0  0  0  0  0
    6.4110   -0.2120   20.0460 C   0  0  0  0  0  0  0  0  0  0  0  0
    5.1340    0.5450   20.3970 C   0  0  0  0  0  0  0  0  0  0  0  0
    4.4750    1.3730   19.2930 C   0  0  0  0  0  0  0  0  0  0  0  0
    5.1840    1.3480   17.9400 C   0  0  0  0  0  0  0  0  0  0  0  0
    6.3540    0.5950   17.7780 N   0  0  0  0  0  0  0  0  0  0  0  0
    6.9310   -0.1430   18.7740 C   0  0  0  0  0  0  0  0  0  0  0  0
    8.9460   -1.1170   22.4430 N   0  0  0  0  0  0  0  0  0  0  0  0
   10.3000   -0.8110   22.2600 C   0  0  2  0  0  0  0  0  0  0  0  0
   11.3580   -1.5140   22.7760 C   0  0  0  0  0  0  0  0  0  0  0  0
   12.3300   -0.6120   23.2010 C   0  0  0  0  0  0  0  0  0  0  0  0
   11.8270   -0.0370   24.1890 O   0  0  0  0  0  0  0  0  0  0  0  0
   11.2170    1.0920   23.6180 C   0  0  0  0  0  0  0  0  0  0  0  0
   10.1530    1.7460   24.2060 C   0  0  0  0  0  0  0  0  0  0  0  0
   10.2000    3.1040   23.9140 C   0  0  0  0  0  0  0  0  0  0  0  0
   10.4420    3.5540   22.7070 N   0  0  0  0  0  0  0  0  0  0  0  0
   10.3210    5.0270   22.7100 C   0  0  0  0  0  0  0  0  0  0  0  0
   10.3760    5.6230   23.9810 C   0  0  0  0  0  0  0  0  0  0  0  0
    9.1950    5.9620   24.8420 C   0  0  0  0  0  0  0  0  0  0  0  0
    9.3460    6.5660   26.0910 C   0  0  0  0  0  0  0  0  0  0  0  0
   10.6050    6.8680   26.5680 C   0  0  0  0  0  0  0  0  0  0  0  0
   11.7180    6.5650   25.7900 C   0  0  0  0  0  0  0  0  0  0  0  0
   11.6250    5.9640   24.5410 C   0  0  0  0  0  0  0  0  0  0  0  0
   11.7290    3.2130   22.5690 C   0  0  0  0  0  0  0  0  0  0  0  0
   12.1760    1.9500   23.0190 C   0  0  0  0  0  0  0  0  0  0  0  0
   10.4980    0.5480   22.4420 C   0  0  0  0  0  0  0  0  0  0  0  0
  1  2  2  0
  2  3  1  0
  3  4  1  0
  4  5  2  0
  5  6  1  0
  6  7  2  0
  7  8  1  0
  4  9  1  0
  8  9  2  0
  2 10  1  0
 11 10  1  1
 11 12  1  0
 12 13  1  0
 13 14  1  0
 15 14  1  0
 15 16  1  0
 16 17  1  0
 17 18  1  0
 18 19  1  0
 19 20  1  0
 20 21  2  0
 21 22  1  0
 22 23  2  0
 23 24  1  0
 20 25  1  0
 24 25  2  0
 18 26  1  0
 15 27  1  0
 26 27  1  0
 11 28  1  0
 15 28  1  0
M  END
