pyridine_urea_4476
     RDKit          3D

 23 25  0  0  0  0  0  0  0  0999 V2000
    8.6080    0.9460   20.9790 O   0  0  0  0  0  0  0  0  0  0  0  0
    8.1620   -0.0860   21.4360 C   0  0  0  0  0  0  0  0  0  0  0  0
    8.7240   -0.6730   22.5160 N   0  0  0  0  0  0  0  0  0  0  0  0
    9.1400    0.2880   23.4980 C   0  0  0  0  0  0  0  0  0  0  0  0
    9.4810    1.6660   22.8890 C   0  0  0  0  0  0  0  0  0  0  0  0
   10.9420    1.7290   22.8400 C   0  0  0  0  0  0  0  0  0  0  0  0
   11.9910    2.7190   22.7620 N   0  0  0  0  0  0  0  0  0  0  0  0
   13.1590    1.9560   22.7920 N   0  0  0  0  0  0  0  0  0  0  0  0
   12.7170    0.6320   22.8700 C   0  0  0  0  0  0  0  0  0  0  0  0
   13.1140   -0.7410   22.9730 C   0  0  0  0  0  0  0  0  0  0  0  0
   13.2960   -0.8810   24.4000 C   0  0  0  0  0  0  0  0  0  0  0  0
   13.5890   -2.0650   24.8740 C   0  0  0  0  0  0  0  0  0  0  0  0
   13.7340   -3.0760   24.0700 C   0  0  0  0  0  0  0  0  0  0  0  0
   13.5870   -2.9190   22.6980 C   0  0  0  0  0  0  0  0  0  0  0  0
   13.2640   -1.7430   22.0890 C   0  0  0  0  0  0  0  0  0  0  0  0
   11.4670    0.6130   22.8910 N   0  0  0  0  0  0  0  0  0  0  0  0
    7.0610   -0.7140   20.9550 N   0  0  0  0  0  0  0  0  0  0  0  0
    6.4020   -0.0730   19.9830 C   0  0  0  0  0  0  0  0  0  0  0  0
    5.1140    0.6210   20.2970 C   0  0  0  0  0  0  0  0  0  0  0  0
    4.5170    1.2900   19.2320 C   0  0  0  0  0  0  0  0  0  0  0  0
    5.1610    1.2820   17.8970 C   0  0  0  0  0  0  0  0  0  0  0  0
    6.3000    0.6370   17.6860 N   0  0  0  0  0  0  0  0  0  0  0  0
    6.9120   -0.0300   18.7020 C   0  0  0  0  0  0  0  0  0  0  0  0
  1  2  2  0
  2  3  1  0
  3  4  1  0
  4  5  1  0
  5  6  1  0
  6  7  2  0
  7  8  1  0
  8  9  2  0
  9 10  1  0
 10 11  2  0
 11 12  1  0
 12 13  2  0
 13 14  1  0
 10 15  1  0
 14 15  2  0
  6 16  1  0
  9 16  1  0
  2 17  1  0
 17 18  1  0
 18 19  2  0
 19 20  1  0
 20 21  2  0
 21 22  1  0
 18 23  1  0
 22 23  2  0
M  END
