pyridine_urea_6918
     RDKit          3D

 20 20  0  0  0  0  0  0  0  0999 V2000
   13.4050   -2.4280   24.3250 C   0  0  0  0  0  0  0  0  0  0  0  0
   11.9180   -2.6200   24.4820 C   0  0  0  0  0  0  0  0  0  0  0  0
   11.2120   -2.6370   23.2530 O   0  0  0  0  0  0  0  0  0  0  0  0
   11.3600   -1.5860   22.4010 C   0  0  0  0  0  0  0  0  0  0  0  0
   12.2060   -1.6400   21.5040 O   0  0  0  0  0  0  0  0  0  0  0  0
   10.5440   -0.4660   22.5810 C   0  0  1  0  0  0  0  0  0  0  0  0
    9.1340   -0.8050   22.3740 N   0  0  0  0  0  0  0  0  0  0  0  0
    8.3830   -0.0290   21.4830 C   0  0  0  0  0  0  0  0  0  0  0  0
    8.8250    1.2980   21.0940 O   0  0  0  0  0  0  0  0  0  0  0  0
    7.2440   -0.6360   21.0650 N   0  0  0  0  0  0  0  0  0  0  0  0
    6.5950   -0.0110   20.0620 C   0  0  0  0  0  0  0  0  0  0  0  0
    5.3240    0.8290   20.2770 C   0  0  0  0  0  0  0  0  0  0  0  0
    4.6460    1.4910   19.2540 C   0  0  0  0  0  0  0  0  0  0  0  0
    5.1860    1.3620   17.9710 C   0  0  0  0  0  0  0  0  0  0  0  0
    6.3160    0.6120   17.7510 N   0  0  0  0  0  0  0  0  0  0  0  0
    7.0150   -0.0680   18.7540 C   0  0  0  0  0  0  0  0  0  0  0  0
   10.6890    0.0360   24.0090 C   0  0  2  0  0  0  0  0  0  0  0  0
    9.5890    0.9140   24.4960 C   0  0  0  0  0  0  0  0  0  0  0  0
   11.9660    0.5990   24.1320 C   0  0  0  0  0  0  0  0  0  0  0  0
   12.8650    0.4740   23.0800 C   0  0  0  0  0  0  0  0  0  0  0  0
  1  2  1  0
  2  3  1  0
  3  4  1  0
  4  5  2  0
  4  6  1  0
  6  7  1  1
  7  8  1  0
  8  9  2  0
  8 10  1  0
 10 11  1  0
 11 12  2  0
 12 13  1  0
 13 14  2  0
 14 15  1  0
 11 16  1  0
 15 16  2  0
  6 17  1  0
 17 18  1  6
 17 19  1  0
 19 20  1  0
M  END
