pyridine_urea_3609
     RDKit          3D

 16 16  0  0  0  0  0  0  0  0999 V2000
   12.2870    1.1830   22.9790 C   0  0  0  0  0  0  0  0  0  0  0  0
   13.1930   -0.0050   22.6650 C   0  0  0  0  0  0  0  0  0  0  0  0
   12.6530   -1.1870   23.2330 O   0  0  0  0  0  0  0  0  0  0  0  0
   11.5300   -1.6190   22.4970 C   0  0  0  0  0  0  0  0  0  0  0  0
   10.2750   -0.8300   22.7210 C   0  0  2  0  0  0  0  0  0  0  0  0
    9.7070   -1.1210   24.0940 C   0  0  0  0  0  0  0  0  0  0  0  0
    9.2860   -1.1290   21.6830 N   0  0  0  0  0  0  0  0  0  0  0  0
    8.4490   -0.0870   21.3950 C   0  0  0  0  0  0  0  0  0  0  0  0
    8.8410    1.0660   21.3910 O   0  0  0  0  0  0  0  0  0  0  0  0
    7.1770   -0.4850   21.0950 N   0  0  0  0  0  0  0  0  0  0  0  0
    6.4780    0.0920   20.0370 C   0  0  0  0  0  0  0  0  0  0  0  0
    5.3040    0.7940   20.3030 C   0  0  0  0  0  0  0  0  0  0  0  0
    4.6110    1.3970   19.2560 C   0  0  0  0  0  0  0  0  0  0  0  0
    5.1260    1.2700   17.9840 C   0  0  0  0  0  0  0  0  0  0  0  0
    6.2460    0.5920   17.7040 N   0  0  0  0  0  0  0  0  0  0  0  0
    6.8940    0.0190   18.7290 C   0  0  0  0  0  0  0  0  0  0  0  0
  1  2  1  0
  2  3  1  0
  3  4  1  0
  4  5  1  0
  5  6  1  1
  5  7  1  0
  7  8  1  0
  8  9  2  0
  8 10  1  0
 10 11  1  0
 11 12  2  0
 12 13  1  0
 13 14  2  0
 14 15  1  0
 11 16  1  0
 15 16  2  0
M  END
