pyridine_urea_14775
     RDKit          3D

 20 22  0  0  0  0  0  0  0  0999 V2000
    8.4290   -0.9460   20.6180 O   0  0  0  0  0  0  0  0  0  0  0  0
    7.5370   -0.6180   21.3550 C   0  0  0  0  0  0  0  0  0  0  0  0
    6.2370   -0.6940   21.0320 N   0  0  0  0  0  0  0  0  0  0  0  0
    5.8000    0.0720   19.9690 C   0  0  0  0  0  0  0  0  0  0  0  0
    4.6850    0.8760   19.9940 C   0  0  0  0  0  0  0  0  0  0  0  0
    4.3540    1.6110   18.8710 C   0  0  0  0  0  0  0  0  0  0  0  0
    5.1590    1.5090   17.7570 C   0  0  0  0  0  0  0  0  0  0  0  0
    6.2530    0.7300   17.6900 N   0  0  0  0  0  0  0  0  0  0  0  0
    6.5500    0.0310   18.7970 C   0  0  0  0  0  0  0  0  0  0  0  0
    7.7810   -0.0710   22.5680 N   0  0  0  0  0  0  0  0  0  0  0  0
    9.0820    0.2740   22.5640 C   0  0  1  0  0  0  0  0  0  0  0  0
    9.7830    0.9590   23.4520 C   0  0  0  0  0  0  0  0  0  0  0  0
   11.0460    0.5080   23.0980 C   0  0  0  0  0  0  0  0  0  0  0  0
   12.3300    1.2820   23.1760 C   0  0  0  0  0  0  0  0  0  0  0  0
   13.5630    0.6670   22.7060 C   0  0  0  0  0  0  0  0  0  0  0  0
   13.1090   -0.5760   22.2850 C   0  0  0  0  0  0  0  0  0  0  0  0
   13.3620   -2.1000   21.5880 Cl  0  0  0  0  0  0  0  0  0  0  0  0
   12.0510   -0.1820   22.6620 C   0  0  0  0  0  0  0  0  0  0  0  0
   11.0760   -0.8510   22.5680 C   0  0  0  0  0  0  0  0  0  0  0  0
    9.7800   -1.0450   22.7150 C   0  0  0  0  0  0  0  0  0  0  0  0
  1  2  2  0
  2  3  1  0
  3  4  1  0
  4  5  2  0
  5  6  1  0
  6  7  2  0
  7  8  1  0
  4  9  1  0
  8  9  2  0
  2 10  1  0
 11 10  1  1
 11 12  1  0
 12 13  1  0
 13 14  1  0
 14 15  2  0
 15 16  1  0
 16 17  1  0
 16 18  2  0
 13 19  2  0
 18 19  1  0
 11 20  1  0
 19 20  1  0
M  END
