pyridine_urea_5114
     RDKit          3D

 20 21  0  0  0  0  0  0  0  0999 V2000
   12.9660   -2.6480   21.0620 C   0  0  0  0  0  0  0  0  0  0  0  0
   13.5330   -1.0810   21.3670 S   0  0  0  0  0  0  0  0  0  0  0  0
   12.4800   -0.6640   22.7270 C   0  0  0  0  0  0  0  0  0  0  0  0
   13.2410   -1.1080   23.7340 C   0  0  0  0  0  0  0  0  0  0  0  0
   13.1300   -1.1460   25.0710 C   0  0  0  0  0  0  0  0  0  0  0  0
   11.9180   -0.5680   25.0070 C   0  0  0  0  0  0  0  0  0  0  0  0
   11.0940   -0.0910   23.9010 C   0  0  0  0  0  0  0  0  0  0  0  0
   11.2400   -0.0570   22.5730 C   0  0  0  0  0  0  0  0  0  0  0  0
    9.9200    0.5520   22.9140 C   0  0  2  0  0  0  0  0  0  0  0  0
    9.6560    0.7000   24.2790 C   0  0  0  0  0  0  0  0  0  0  0  0
    8.8900   -0.3910   22.3870 N   0  0  0  0  0  0  0  0  0  0  0  0
    8.2280    0.2340   21.4040 C   0  0  0  0  0  0  0  0  0  0  0  0
    8.6240    1.3070   20.9470 O   0  0  0  0  0  0  0  0  0  0  0  0
    7.0920   -0.4040   20.9980 N   0  0  0  0  0  0  0  0  0  0  0  0
    6.3980    0.1460   19.9520 C   0  0  0  0  0  0  0  0  0  0  0  0
    5.2120    0.8310   20.2150 C   0  0  0  0  0  0  0  0  0  0  0  0
    4.5330    1.4230   19.1550 C   0  0  0  0  0  0  0  0  0  0  0  0
    5.0880    1.2900   17.8990 C   0  0  0  0  0  0  0  0  0  0  0  0
    6.2160    0.6240   17.6290 N   0  0  0  0  0  0  0  0  0  0  0  0
    6.8570    0.0590   18.6580 C   0  0  0  0  0  0  0  0  0  0  0  0
  1  2  1  0
  2  3  1  0
  3  4  2  0
  4  5  1  0
  5  6  2  0
  6  7  1  0
  3  8  1  0
  7  8  2  0
  8  9  1  0
  9 10  1  1
  9 11  1  0
 11 12  1  0
 12 13  2  0
 12 14  1  0
 14 15  1  0
 15 16  2  0
 16 17  1  0
 17 18  2  0
 18 19  1  0
 15 20  1  0
 19 20  2  0
M  END
