pyridine_urea_4091
     RDKit          3D

 26 28  0  0  0  0  0  0  0  0999 V2000
    9.4020    4.2760   25.2990 N   0  0  0  0  0  0  0  0  0  0  0  0
   10.0710    3.5630   24.3460 C   0  0  0  0  0  0  0  0  0  0  0  0
   11.1190    4.3360   23.6200 C   0  0  0  0  0  0  0  0  0  0  0  0
   10.8060    5.6640   23.4670 C   0  0  0  0  0  0  0  0  0  0  0  0
   11.6780    6.4910   22.8200 C   0  0  0  0  0  0  0  0  0  0  0  0
   12.8630    6.0120   22.3070 C   0  0  0  0  0  0  0  0  0  0  0  0
   13.2100    4.6760   22.4450 C   0  0  0  0  0  0  0  0  0  0  0  0
   12.3700    3.7980   23.1060 C   0  0  0  0  0  0  0  0  0  0  0  0
   12.7850    2.6100   23.2090 O   0  0  0  0  0  0  0  0  0  0  0  0
   12.0210    1.5360   22.9640 C   0  0  0  0  0  0  0  0  0  0  0  0
   12.5320    0.2590   22.7390 C   0  0  0  0  0  0  0  0  0  0  0  0
   11.6090   -0.7800   22.4560 C   0  0  0  0  0  0  0  0  0  0  0  0
   10.2380   -0.4610   22.4260 C   0  0  0  0  0  0  0  0  0  0  0  0
    9.1650   -1.3480   22.1100 N   0  0  0  0  0  0  0  0  0  0  0  0
    8.1890   -0.6410   21.3500 C   0  0  0  0  0  0  0  0  0  0  0  0
    8.4760    0.6500   20.9930 O   0  0  0  0  0  0  0  0  0  0  0  0
    7.0260   -1.1900   20.9900 N   0  0  0  0  0  0  0  0  0  0  0  0
    6.3860   -0.3870   20.0840 C   0  0  0  0  0  0  0  0  0  0  0  0
    5.1220    0.4020   20.3310 C   0  0  0  0  0  0  0  0  0  0  0  0
    4.5360    1.2750   19.2050 C   0  0  0  0  0  0  0  0  0  0  0  0
    5.2130    1.2960   17.9900 C   0  0  0  0  0  0  0  0  0  0  0  0
    6.3590    0.5520   17.8190 N   0  0  0  0  0  0  0  0  0  0  0  0
    6.9300   -0.2570   18.8110 C   0  0  0  0  0  0  0  0  0  0  0  0
    9.8140    0.8080   22.6860 C   0  0  0  0  0  0  0  0  0  0  0  0
   10.7000    1.7710   22.9390 C   0  0  0  0  0  0  0  0  0  0  0  0
   10.1320    2.9710   23.1530 F   0  0  0  0  0  0  0  0  0  0  0  0
  1  2  3  0
  2  3  1  0
  3  4  2  0
  4  5  1  0
  5  6  2  0
  6  7  1  0
  3  8  1  0
  7  8  2  0
  8  9  1  0
  9 10  1  0
 10 11  2  0
 11 12  1  0
 12 13  2  0
 13 14  1  0
 14 15  1  0
 15 16  2  0
 15 17  1  0
 17 18  1  0
 18 19  2  0
 19 20  1  0
 20 21  2  0
 21 22  1  0
 18 23  1  0
 22 23  2  0
 13 24  1  0
 10 25  1  0
 24 25  2  0
 25 26  1  0
M  END
