pyridine_urea_11269
     RDKit          3D

 16 17  0  0  0  0  0  0  0  0999 V2000
    9.0100    1.2520   21.2700 O   0  0  0  0  0  0  0  0  0  0  0  0
    8.5430    0.1600   21.6250 C   0  0  0  0  0  0  0  0  0  0  0  0
    9.1480   -0.6020   22.6060 N   0  0  0  0  0  0  0  0  0  0  0  0
   10.6010   -0.5460   22.7310 C   0  0  0  0  0  0  0  0  0  0  0  0
   11.1380   -1.3660   23.9040 C   0  0  0  0  0  0  0  0  0  0  0  0
   12.5570   -1.8170   23.8200 C   0  0  0  0  0  0  0  0  0  0  0  0
   12.9560   -2.4000   22.6400 C   0  0  0  0  0  0  0  0  0  0  0  0
   12.2480   -2.5550   21.4760 C   0  0  0  0  0  0  0  0  0  0  0  0
   13.1820   -1.3260   21.7000 C   0  0  0  0  0  0  0  0  0  0  0  0
    7.3980   -0.4380   21.1490 N   0  0  0  0  0  0  0  0  0  0  0  0
    6.6640    0.1270   20.0230 C   0  0  0  0  0  0  0  0  0  0  0  0
    5.4450    0.9260   20.3890 C   0  0  0  0  0  0  0  0  0  0  0  0
    4.7240    1.5090   19.3490 C   0  0  0  0  0  0  0  0  0  0  0  0
    5.1030    1.3690   18.0220 C   0  0  0  0  0  0  0  0  0  0  0  0
    6.2690    0.5870   17.6930 N   0  0  0  0  0  0  0  0  0  0  0  0
    6.9830    0.0080   18.7000 C   0  0  0  0  0  0  0  0  0  0  0  0
  1  2  2  0
  2  3  1  0
  3  4  1  0
  4  5  1  0
  5  6  3  0
  6  7  1  0
  7  8  1  0
  7  9  1  0
  8  9  1  0
  2 10  1  0
 10 11  1  0
 11 12  2  0
 12 13  1  0
 13 14  2  0
 14 15  1  0
 11 16  1  0
 15 16  2  0
M  END
