pyridine_urea_4713
     RDKit          3D

 22 24  0  0  0  0  0  0  0  0999 V2000
    8.5430    1.6060   20.7690 O   0  0  0  0  0  0  0  0  0  0  0  0
    8.5360    0.5400   21.3540 C   0  0  0  0  0  0  0  0  0  0  0  0
    7.5640   -0.3860   21.0710 N   0  0  0  0  0  0  0  0  0  0  0  0
    6.7720    0.0800   19.9740 C   0  0  0  0  0  0  0  0  0  0  0  0
    5.5420    0.9250   20.3460 C   0  0  0  0  0  0  0  0  0  0  0  0
    4.7320    1.4520   19.3460 C   0  0  0  0  0  0  0  0  0  0  0  0
    5.0860    1.1820   18.0350 C   0  0  0  0  0  0  0  0  0  0  0  0
    6.1820    0.4160   17.7480 N   0  0  0  0  0  0  0  0  0  0  0  0
    7.0360   -0.1490   18.6940 C   0  0  0  0  0  0  0  0  0  0  0  0
    9.4190    0.2100   22.3160 N   0  0  0  0  0  0  0  0  0  0  0  0
   10.1700   -0.0300   23.3980 C   0  0  2  0  0  0  0  0  0  0  0  0
   11.2750   -0.9150   23.2210 C   0  0  0  0  0  0  0  0  0  0  0  0
   11.2170   -2.1280   23.1150 C   0  0  0  0  0  0  0  0  0  0  0  0
   12.3290   -1.2580   23.0940 C   0  0  0  0  0  0  0  0  0  0  0  0
   11.3460    0.0040   23.3210 C   0  0  0  0  0  0  0  0  0  0  0  0
   12.6640    0.5680   23.2360 C   0  0  0  0  0  0  0  0  0  0  0  0
   12.9020   -0.5980   23.0980 C   0  0  0  0  0  0  0  0  0  0  0  0
    9.3800   -0.3260   24.5020 C   0  0  0  0  0  0  0  0  0  0  0  0
    8.5730   -1.3810   24.7470 N   0  0  0  0  0  0  0  0  0  0  0  0
    7.9770   -1.1370   25.9470 N   0  0  0  0  0  0  0  0  0  0  0  0
    8.4330    0.0820   26.4830 N   0  0  0  0  0  0  0  0  0  0  0  0
    9.2780    0.5360   25.5580 N   0  0  0  0  0  0  0  0  0  0  0  0
  1  2  2  0
  2  3  1  0
  3  4  1  0
  4  5  2  0
  5  6  1  0
  6  7  2  0
  7  8  1  0
  4  9  1  0
  8  9  2  0
  2 10  1  0
 11 10  1  6
 11 12  1  0
 12 13  2  0
 13 14  1  0
 14 15  2  0
 15 16  1  0
 12 17  1  0
 16 17  2  0
 11 18  1  0
 18 19  2  0
 19 20  1  0
 20 21  2  0
 18 22  1  0
 21 22  1  0
M  END
