pyridine_urea_13552
     RDKit          3D

 33 35  0  0  0  0  0  0  0  0999 V2000
    8.0430   -0.2760   27.0200 C   0  0  0  0  0  0  0  0  0  0  0  0
    8.6600   -0.9940   25.8000 C   0  0  0  0  0  0  0  0  0  0  0  0
    8.0300   -0.6640   24.5260 O   0  0  0  0  0  0  0  0  0  0  0  0
    8.0250    0.6320   24.0440 C   0  0  0  0  0  0  0  0  0  0  0  0
    7.8520    0.9350   25.2170 O   0  0  0  0  0  0  0  0  0  0  0  0
    8.2220   -0.1900   22.7520 C   0  0  1  0  0  0  0  0  0  0  0  0
    9.2140    0.2300   21.9160 N   0  0  0  0  0  0  0  0  0  0  0  0
    8.3910    0.8010   21.0840 C   0  0  0  0  0  0  0  0  0  0  0  0
    8.5400    1.9210   20.6940 O   0  0  0  0  0  0  0  0  0  0  0  0
    7.3960   -0.0740   20.8420 N   0  0  0  0  0  0  0  0  0  0  0  0
    6.5630    0.4230   19.9680 C   0  0  0  0  0  0  0  0  0  0  0  0
    5.3980    1.1130   20.2600 C   0  0  0  0  0  0  0  0  0  0  0  0
    4.6550    1.6010   19.1950 C   0  0  0  0  0  0  0  0  0  0  0  0
    5.0730    1.3970   17.8960 C   0  0  0  0  0  0  0  0  0  0  0  0
    6.1740    0.7250   17.5620 N   0  0  0  0  0  0  0  0  0  0  0  0
    6.9100    0.2440   18.5580 C   0  0  0  0  0  0  0  0  0  0  0  0
    8.4330   -1.4140   23.3780 C   0  0  0  0  0  0  0  0  0  0  0  0
    7.3440   -1.7510   24.1190 C   0  0  0  0  0  0  0  0  0  0  0  0
    6.1360   -0.7910   24.0330 C   0  0  0  0  0  0  0  0  0  0  0  0
    7.4880   -2.7980   24.7740 N   0  0  0  0  0  0  0  0  0  0  0  0
    8.7450   -3.1950   24.4670 N   0  0  0  0  0  0  0  0  0  0  0  0
    8.7020   -4.2320   25.3130 C   0  0  0  0  0  0  0  0  0  0  0  0
    9.6140   -5.2380   25.5790 C   0  0  0  0  0  0  0  0  0  0  0  0
    9.3930   -6.2080   26.5680 C   0  0  0  0  0  0  0  0  0  0  0  0
    8.2510   -6.2180   27.3520 C   0  0  0  0  0  0  0  0  0  0  0  0
    7.2200   -5.1740   27.1070 C   0  0  0  0  0  0  0  0  0  0  0  0
    5.8880   -5.0330   27.8620 C   0  0  0  0  0  0  0  0  0  0  0  0
    5.8260   -5.7870   28.9930 F   0  0  0  0  0  0  0  0  0  0  0  0
    5.6260   -3.7520   28.2530 F   0  0  0  0  0  0  0  0  0  0  0  0
    4.8080   -5.4030   27.1150 F   0  0  0  0  0  0  0  0  0  0  0  0
    7.4920   -4.1660   26.0420 C   0  0  0  0  0  0  0  0  0  0  0  0
    9.4610   -2.2710   23.4040 C   0  0  0  0  0  0  0  0  0  0  0  0
   10.6820   -2.1300   22.6740 C   0  0  0  0  0  0  0  0  0  0  0  0
  1  2  1  0
  2  3  1  0
  3  4  1  0
  4  5  2  0
  4  6  1  0
  6  7  1  1
  7  8  1  0
  8  9  2  0
  8 10  1  0
 10 11  1  0
 11 12  2  0
 12 13  1  0
 13 14  2  0
 14 15  1  0
 11 16  1  0
 15 16  2  0
  6 17  1  0
 17 18  1  0
 18 19  1  0
 18 20  2  0
 20 21  1  0
 21 22  1  0
 22 23  2  0
 23 24  1  0
 24 25  2  0
 25 26  1  0
 26 27  1  0
 27 28  1  0
 27 29  1  0
 27 30  1  0
 22 31  1  0
 26 31  2  0
 17 32  2  0
 21 32  1  0
 32 33  1  0
M  END
