pyridine_urea_5813
     RDKit          3D

 24 26  0  0  0  0  0  0  0  0999 V2000
    8.7720    1.4400   21.2020 O   0  0  0  0  0  0  0  0  0  0  0  0
    7.9510    0.5980   21.6030 C   0  0  0  0  0  0  0  0  0  0  0  0
    7.5110    0.4470   22.9610 N   0  0  0  0  0  0  0  0  0  0  0  0
    6.8260   -0.7280   23.2230 C   0  0  0  0  0  0  0  0  0  0  0  0
    7.6970   -1.7520   23.4880 C   0  0  0  0  0  0  0  0  0  0  0  0
    7.4120   -3.0750   23.8160 N   0  0  0  0  0  0  0  0  0  0  0  0
    8.6270   -3.6820   23.9970 N   0  0  0  0  0  0  0  0  0  0  0  0
    9.5820   -2.5940   23.7590 C   0  0  0  0  0  0  0  0  0  0  0  0
    8.9910   -1.5060   23.4430 N   0  0  0  0  0  0  0  0  0  0  0  0
    9.6970   -0.2720   23.1130 C   0  0  0  0  0  0  0  0  0  0  0  0
   11.1960   -0.3920   23.0520 C   0  0  0  0  0  0  0  0  0  0  0  0
   11.5630   -1.8360   22.8180 C   0  0  1  0  0  0  0  0  0  0  0  0
   13.0430   -1.7880   22.9770 C   0  0  0  0  0  0  0  0  0  0  0  0
   13.6710   -0.9330   22.1720 F   0  0  0  0  0  0  0  0  0  0  0  0
   13.3660   -1.4160   24.2470 F   0  0  0  0  0  0  0  0  0  0  0  0
   13.6210   -2.9920   22.8060 F   0  0  0  0  0  0  0  0  0  0  0  0
   10.9550   -2.7710   23.8750 C   0  0  0  0  0  0  0  0  0  0  0  0
    7.3450   -0.2520   20.7660 N   0  0  0  0  0  0  0  0  0  0  0  0
    6.5830    0.2720   19.8410 C   0  0  0  0  0  0  0  0  0  0  0  0
    5.4170    0.9430   20.1980 C   0  0  0  0  0  0  0  0  0  0  0  0
    4.6540    1.5120   19.1990 C   0  0  0  0  0  0  0  0  0  0  0  0
    5.0970    1.3760   17.9050 C   0  0  0  0  0  0  0  0  0  0  0  0
    6.2080    0.7170   17.5610 N   0  0  0  0  0  0  0  0  0  0  0  0
    6.9220    0.1830   18.5430 C   0  0  0  0  0  0  0  0  0  0  0  0
  1  2  2  0
  2  3  1  0
  3  4  1  0
  4  5  1  0
  5  6  2  0
  6  7  1  0
  7  8  2  0
  5  9  1  0
  8  9  1  0
  9 10  1  0
 10 11  1  0
 11 12  1  0
 12 13  1  1
 13 14  1  0
 13 15  1  0
 13 16  1  0
  8 17  1  0
 12 17  1  0
  2 18  1  0
 18 19  1  0
 19 20  2  0
 20 21  1  0
 21 22  2  0
 22 23  1  0
 19 24  1  0
 23 24  2  0
M  END
