pyridine_urea_12533
     RDKit          3D

 21 22  0  0  0  0  0  0  0  0999 V2000
   11.5490    1.7410   23.1560 C   0  0  0  0  0  0  0  0  0  0  0  0
   11.1620    0.3310   23.6060 C   0  0  1  0  0  0  0  0  0  0  0  0
   11.6620    0.0920   24.9120 O   0  0  0  0  0  0  0  0  0  0  0  0
    9.6010    0.2030   23.6950 C   0  0  0  0  0  0  0  0  0  0  0  0
    9.0030   -0.5430   22.6000 N   0  0  0  0  0  0  0  0  0  0  0  0
    8.4080    0.1040   21.5560 C   0  0  0  0  0  0  0  0  0  0  0  0
    8.8300    1.3380   21.0890 O   0  0  0  0  0  0  0  0  0  0  0  0
    7.2730   -0.6100   21.0190 N   0  0  0  0  0  0  0  0  0  0  0  0
    6.5260    0.0330   20.0720 C   0  0  0  0  0  0  0  0  0  0  0  0
    5.3560    0.7130   20.4230 C   0  0  0  0  0  0  0  0  0  0  0  0
    4.6050    1.4170   19.3150 C   0  0  0  0  0  0  0  0  0  0  0  0
    5.1730    1.3290   17.9310 C   0  0  0  0  0  0  0  0  0  0  0  0
    6.3060    0.6390   17.6940 N   0  0  0  0  0  0  0  0  0  0  0  0
    6.9290    0.0280   18.7400 C   0  0  0  0  0  0  0  0  0  0  0  0
   11.6960   -0.6260   22.8220 C   0  0  0  0  0  0  0  0  0  0  0  0
   12.8900    0.3530   23.1520 C   0  0  0  0  0  0  0  0  0  0  0  0
   12.8730   -0.7900   22.3920 C   0  0  0  0  0  0  0  0  0  0  0  0
   11.5380   -1.2520   22.4470 C   0  0  0  0  0  0  0  0  0  0  0  0
   11.5000   -2.2980   21.7540 C   0  0  0  0  0  0  0  0  0  0  0  0
   12.6360   -1.4920   21.9890 C   0  0  0  0  0  0  0  0  0  0  0  0
   13.1830   -2.7510   20.9970 Cl  0  0  0  0  0  0  0  0  0  0  0  0
  2  1  1  6
  2  3  1  0
  2  4  1  0
  4  5  1  0
  5  6  1  0
  6  7  2  0
  6  8  1  0
  8  9  1  0
  9 10  2  0
 10 11  1  0
 11 12  2  0
 12 13  1  0
  9 14  1  0
 13 14  2  0
  2 15  1  0
 15 16  2  0
 16 17  1  0
 17 18  2  0
 18 19  1  0
 15 20  1  0
 19 20  2  0
 20 21  1  0
M  END
