pyridine_urea_4540
     RDKit          3D

 23 25  0  0  0  0  0  0  0  0999 V2000
    8.6400    1.4260   21.1370 O   0  0  0  0  0  0  0  0  0  0  0  0
    8.8090    0.2220   21.3150 C   0  0  0  0  0  0  0  0  0  0  0  0
    7.7550   -0.6490   21.0880 N   0  0  0  0  0  0  0  0  0  0  0  0
    6.8400   -0.0740   20.1090 C   0  0  0  0  0  0  0  0  0  0  0  0
    5.6010    0.6770   20.6110 C   0  0  0  0  0  0  0  0  0  0  0  0
    4.6780    1.3010   19.5620 C   0  0  0  0  0  0  0  0  0  0  0  0
    5.1010    1.1020   18.1080 C   0  0  0  0  0  0  0  0  0  0  0  0
    6.2550    0.3820   17.8100 N   0  0  0  0  0  0  0  0  0  0  0  0
    7.0730   -0.1740   18.7560 C   0  0  0  0  0  0  0  0  0  0  0  0
   10.0850   -0.2340   21.6940 N   0  0  0  0  0  0  0  0  0  0  0  0
   10.7240   -1.5050   21.5850 C   0  0  0  0  0  0  0  0  0  0  0  0
   12.0740   -1.9230   21.1920 C   0  0  0  0  0  0  0  0  0  0  0  0
   13.1730   -1.0590   21.4790 C   0  0  0  0  0  0  0  0  0  0  0  0
   12.6700   -0.0560   22.1600 N   0  0  0  0  0  0  0  0  0  0  0  0
   13.4000    1.1580   22.4930 C   0  0  0  0  0  0  0  0  0  0  0  0
   14.6480    1.0990   22.6400 O   0  0  0  0  0  0  0  0  0  0  0  0
   12.8390    2.6270   22.4700 C   0  0  0  0  0  0  0  0  0  0  0  0
   11.6440    3.3170   22.1320 C   0  0  0  0  0  0  0  0  0  0  0  0
   11.6660    4.7710   22.3120 C   0  0  0  0  0  0  0  0  0  0  0  0
   12.7150    5.1440   22.7250 O   0  0  0  0  0  0  0  0  0  0  0  0
   13.4930    4.0250   22.8710 C   0  0  0  0  0  0  0  0  0  0  0  0
   12.4180   -1.0130   22.9850 C   0  0  0  0  0  0  0  0  0  0  0  0
   11.0630   -1.5400   22.9440 C   0  0  0  0  0  0  0  0  0  0  0  0
  1  2  2  0
  2  3  1  0
  3  4  1  0
  4  5  2  0
  5  6  1  0
  6  7  2  0
  7  8  1  0
  4  9  1  0
  8  9  2  0
  2 10  1  0
 10 11  1  0
 11 12  1  0
 12 13  1  0
 13 14  1  0
 14 15  1  0
 15 16  2  0
 15 17  1  0
 17 18  1  0
 18 19  2  0
 19 20  1  0
 17 21  2  0
 20 21  1  0
 14 22  1  0
 11 23  1  0
 22 23  1  0
M  END
