pyridine_urea_10104
     RDKit          3D

 24 26  0  0  0  0  0  0  0  0999 V2000
    9.0810    1.2290   21.2860 O   0  0  0  0  0  0  0  0  0  0  0  0
    8.5600    0.1430   21.5570 C   0  0  0  0  0  0  0  0  0  0  0  0
    8.6530   -0.5490   22.7470 N   0  0  0  0  0  0  0  0  0  0  0  0
    7.5560   -0.6810   23.6230 C   0  0  0  0  0  0  0  0  0  0  0  0
    6.8460    0.4440   24.0580 C   0  0  0  0  0  0  0  0  0  0  0  0
    5.5060    0.3470   24.4170 C   0  0  0  0  0  0  0  0  0  0  0  0
    4.8590    1.4910   24.8430 C   0  0  0  0  0  0  0  0  0  0  0  0
    5.3900    2.7270   24.9580 N   0  0  0  0  0  0  0  0  0  0  0  0
    6.6970    2.8820   24.6200 C   0  0  0  0  0  0  0  0  0  0  0  0
    7.2170    4.0020   24.7130 O   0  0  0  0  0  0  0  0  0  0  0  0
    8.5510    4.1480   24.3790 C   0  0  0  0  0  0  0  0  0  0  0  0
    9.4470    4.7440   25.2690 C   0  0  0  0  0  0  0  0  0  0  0  0
   10.7990    4.9020   24.9350 C   0  0  0  0  0  0  0  0  0  0  0  0
   11.2830    4.4630   23.7010 C   0  0  0  0  0  0  0  0  0  0  0  0
   10.4290    3.8600   22.7800 C   0  0  0  0  0  0  0  0  0  0  0  0
    8.9920    3.6880   23.1190 C   0  0  0  0  0  0  0  0  0  0  0  0
    7.4870    1.6990   24.1410 C   0  0  0  0  0  0  0  0  0  0  0  0
    7.7760   -0.5680   20.6860 N   0  0  0  0  0  0  0  0  0  0  0  0
    6.8220    0.0360   19.9290 C   0  0  0  0  0  0  0  0  0  0  0  0
    5.7020    0.6380   20.4930 C   0  0  0  0  0  0  0  0  0  0  0  0
    4.8100    1.2380   19.6100 C   0  0  0  0  0  0  0  0  0  0  0  0
    5.0660    1.2110   18.2460 C   0  0  0  0  0  0  0  0  0  0  0  0
    6.1520    0.6200   17.6680 N   0  0  0  0  0  0  0  0  0  0  0  0
    6.9910    0.0520   18.5820 C   0  0  0  0  0  0  0  0  0  0  0  0
  1  2  2  0
  2  3  1  0
  3  4  1  0
  4  5  1  0
  5  6  2  0
  6  7  1  0
  7  8  2  0
  8  9  1  0
  9 10  1  0
 10 11  1  0
 11 12  2  0
 12 13  1  0
 13 14  2  0
 14 15  1  0
 11 16  1  0
 15 16  2  0
  5 17  1  0
  9 17  2  0
  2 18  1  0
 18 19  1  0
 19 20  2  0
 20 21  1  0
 21 22  2  0
 22 23  1  0
 19 24  1  0
 23 24  2  0
M  END
