pyridine_urea_6442
     RDKit          3D

 18 19  0  0  0  0  0  0  0  0999 V2000
    8.9640    0.7030   21.3860 O   0  0  0  0  0  0  0  0  0  0  0  0
    8.5060   -0.4290   21.4730 C   0  0  0  0  0  0  0  0  0  0  0  0
    9.2350   -1.5380   21.8700 N   0  0  0  0  0  0  0  0  0  0  0  0
   10.4600   -1.3690   22.6360 C   0  0  0  0  0  0  0  0  0  0  0  0
   11.6870   -1.5160   21.7500 C   0  0  0  0  0  0  0  0  0  0  0  0
   12.9750   -1.3410   22.3600 C   0  0  0  0  0  0  0  0  0  0  0  0
   12.9030   -1.0880   23.6530 C   0  0  0  0  0  0  0  0  0  0  0  0
   11.7590   -1.0060   24.3300 N   0  0  0  0  0  0  0  0  0  0  0  0
   10.4130   -1.1120   24.0090 C   0  0  0  0  0  0  0  0  0  0  0  0
    7.1900   -0.7320   21.1730 N   0  0  0  0  0  0  0  0  0  0  0  0
    6.5060    0.0100   20.0830 C   0  0  0  0  0  0  0  0  0  0  0  0
    6.9150   -0.0450   18.8000 C   0  0  0  0  0  0  0  0  0  0  0  0
    6.3680    0.5990   17.7240 N   0  0  0  0  0  0  0  0  0  0  0  0
    5.2950    1.3860   17.9100 C   0  0  0  0  0  0  0  0  0  0  0  0
    4.7720    1.5340   19.1540 C   0  0  0  0  0  0  0  0  0  0  0  0
    3.7760    2.1510   19.9130 C   0  0  0  0  0  0  0  0  0  0  0  0
    3.1840    1.3550   20.8300 O   0  0  0  0  0  0  0  0  0  0  0  0
    5.2940    0.8820   20.3830 C   0  0  0  0  0  0  0  0  0  0  0  0
  1  2  2  0
  2  3  1  0
  3  4  1  0
  4  5  2  0
  5  6  1  0
  6  7  2  0
  7  8  1  0
  4  9  1  0
  8  9  2  0
  2 10  1  0
 10 11  1  0
 11 12  2  0
 12 13  1  0
 13 14  2  0
 14 15  1  0
 15 16  1  0
 16 17  1  0
 11 18  1  0
 15 18  2  0
M  END
