pyridine_urea_1907
     RDKit          3D

 16 16  0  0  0  0  0  0  0  0999 V2000
   13.1260   -1.4580   21.8280 C   0  0  0  0  0  0  0  0  0  0  0  0
   13.0090   -0.1830   22.5900 C   0  0  0  0  0  0  0  0  0  0  0  0
   12.1980   -0.0630   23.6610 C   0  0  0  0  0  0  0  0  0  0  0  0
   10.8930   -0.5710   23.6460 C   0  0  2  0  0  0  0  0  0  0  0  0
   10.8270   -1.3830   24.5530 O   0  0  0  0  0  0  0  0  0  0  0  0
   10.4080   -1.0680   22.4710 C   0  0  0  0  0  0  0  0  0  0  0  0
    8.9810   -0.8350   22.4780 N   0  0  0  0  0  0  0  0  0  0  0  0
    8.4840    0.0720   21.5780 C   0  0  0  0  0  0  0  0  0  0  0  0
    9.0080    1.1550   21.2860 O   0  0  0  0  0  0  0  0  0  0  0  0
    7.2330   -0.4060   21.0220 N   0  0  0  0  0  0  0  0  0  0  0  0
    6.5570    0.1400   20.0020 C   0  0  0  0  0  0  0  0  0  0  0  0
    5.2770    0.9290   20.2540 C   0  0  0  0  0  0  0  0  0  0  0  0
    4.5950    1.5090   19.2190 C   0  0  0  0  0  0  0  0  0  0  0  0
    5.1240    1.3420   17.9430 C   0  0  0  0  0  0  0  0  0  0  0  0
    6.2470    0.6410   17.6740 N   0  0  0  0  0  0  0  0  0  0  0  0
    6.9340    0.0600   18.6830 C   0  0  0  0  0  0  0  0  0  0  0  0
  1  2  1  0
  2  3  1  0
  3  4  1  0
  4  5  1  1
  4  6  1  0
  6  7  1  0
  7  8  1  0
  8  9  2  0
  8 10  1  0
 10 11  1  0
 11 12  2  0
 12 13  1  0
 13 14  2  0
 14 15  1  0
 11 16  1  0
 15 16  2  0
M  END
