pyridine_urea_9863
     RDKit          3D

 25 27  0  0  0  0  0  0  0  0999 V2000
    8.7600    0.8140   21.2670 O   0  0  0  0  0  0  0  0  0  0  0  0
    8.3540   -0.2560   21.6980 C   0  0  0  0  0  0  0  0  0  0  0  0
    7.2450   -0.8850   21.1550 N   0  0  0  0  0  0  0  0  0  0  0  0
    6.5540   -0.1580   20.0970 C   0  0  0  0  0  0  0  0  0  0  0  0
    5.2830    0.6010   20.4710 C   0  0  0  0  0  0  0  0  0  0  0  0
    4.5620    1.3810   19.3610 C   0  0  0  0  0  0  0  0  0  0  0  0
    5.2130    1.3100   17.9800 C   0  0  0  0  0  0  0  0  0  0  0  0
    6.3810    0.5630   17.7990 N   0  0  0  0  0  0  0  0  0  0  0  0
    7.0120   -0.1340   18.7990 C   0  0  0  0  0  0  0  0  0  0  0  0
    8.9570   -0.9260   22.7750 N   0  0  0  0  0  0  0  0  0  0  0  0
   10.0980   -0.3030   23.3570 C   0  0  1  0  0  0  0  0  0  0  0  0
   11.0090    0.1470   22.4500 C   0  0  0  0  0  0  0  0  0  0  0  0
   12.2610    0.4880   22.9330 C   0  0  0  0  0  0  0  0  0  0  0  0
   12.7120   -0.6360   23.4230 C   0  0  0  0  0  0  0  0  0  0  0  0
   12.8370   -0.7770   24.7880 C   0  0  0  0  0  0  0  0  0  0  0  0
   13.2990   -1.9370   25.3280 C   0  0  0  0  0  0  0  0  0  0  0  0
   13.6370   -3.0160   24.4420 C   0  0  0  0  0  0  0  0  0  0  0  0
   13.5070   -2.8450   23.0840 C   0  0  0  0  0  0  0  0  0  0  0  0
   13.0290   -1.6200   22.5150 C   0  0  0  0  0  0  0  0  0  0  0  0
    9.5060    0.9450   23.9930 C   0  0  0  0  0  0  0  0  0  0  0  0
   10.6810    1.5340   23.6140 C   0  0  0  0  0  0  0  0  0  0  0  0
   11.8330    1.1080   22.9820 C   0  0  0  0  0  0  0  0  0  0  0  0
   11.8730    2.4520   23.2800 C   0  0  0  0  0  0  0  0  0  0  0  0
   10.7460    2.9820   23.9310 C   0  0  0  0  0  0  0  0  0  0  0  0
    9.6180    2.2780   24.2890 N   0  0  0  0  0  0  0  0  0  0  0  0
  1  2  2  0
  2  3  1  0
  3  4  1  0
  4  5  2  0
  5  6  1  0
  6  7  2  0
  7  8  1  0
  4  9  1  0
  8  9  2  0
  2 10  1  0
 10 11  1  0
 11 12  1  6
 12 13  1  0
 13 14  1  0
 14 15  2  0
 15 16  1  0
 16 17  2  0
 17 18  1  0
 14 19  1  0
 18 19  2  0
 11 20  1  0
 20 21  2  0
 21 22  1  0
 22 23  2  0
 23 24  1  0
 20 25  1  0
 24 25  2  0
M  END
