pyridine_urea_1773
     RDKit          3D

 17 18  0  0  0  0  0  0  0  0999 V2000
   10.6320    0.8120   22.7270 C   0  0  0  0  0  0  0  0  0  0  0  0
   10.4990   -0.6790   22.7620 C   0  0  2  0  0  0  0  0  0  0  0  0
    9.1560   -1.0830   22.3600 N   0  0  0  0  0  0  0  0  0  0  0  0
    8.4310   -0.1920   21.5830 C   0  0  0  0  0  0  0  0  0  0  0  0
    8.8480    0.9240   21.3100 O   0  0  0  0  0  0  0  0  0  0  0  0
    7.2170   -0.6590   21.1450 N   0  0  0  0  0  0  0  0  0  0  0  0
    6.5170   -0.0310   20.0970 C   0  0  0  0  0  0  0  0  0  0  0  0
    5.3640    0.6850   20.3530 C   0  0  0  0  0  0  0  0  0  0  0  0
    4.6800    1.3280   19.3350 C   0  0  0  0  0  0  0  0  0  0  0  0
    5.1580    1.2480   18.0490 C   0  0  0  0  0  0  0  0  0  0  0  0
    6.2660    0.5630   17.7370 N   0  0  0  0  0  0  0  0  0  0  0  0
    6.9200   -0.0600   18.7630 C   0  0  0  0  0  0  0  0  0  0  0  0
   10.9510   -1.2700   24.0470 C   0  0  0  0  0  0  0  0  0  0  0  0
   12.2800   -1.0790   23.9030 C   0  0  0  0  0  0  0  0  0  0  0  0
   12.4460   -0.6630   22.6240 O   0  0  0  0  0  0  0  0  0  0  0  0
   11.5590   -1.4120   21.8590 C   0  0  0  0  0  0  0  0  0  0  0  0
   12.7530   -1.8950   21.2250 O   0  0  0  0  0  0  0  0  0  0  0  0
  2  1  1  1
  2  3  1  0
  3  4  1  0
  4  5  2  0
  4  6  1  0
  6  7  1  0
  7  8  2  0
  8  9  1  0
  9 10  2  0
 10 11  1  0
  7 12  1  0
 11 12  2  0
  2 13  1  0
 13 14  1  0
 14 15  1  0
  2 16  1  0
 15 16  1  0
 16 17  2  0
M  END
