pyridine_urea_4966
     RDKit          3D

 21 22  0  0  0  0  0  0  0  0999 V2000
   13.3450   -0.7880   22.0200 C   0  0  0  0  0  0  0  0  0  0  0  0
   13.4390    0.6060   22.7230 C   0  0  0  0  0  0  0  0  0  0  0  0
   13.2020    0.4230   24.0970 O   0  0  0  0  0  0  0  0  0  0  0  0
   12.0820   -0.0830   23.7520 C   0  0  0  0  0  0  0  0  0  0  0  0
   11.8790   -1.4450   23.6910 C   0  0  0  0  0  0  0  0  0  0  0  0
   13.1230   -2.5550   24.1430 Cl  0  0  0  0  0  0  0  0  0  0  0  0
   10.6830   -1.9720   23.2630 C   0  0  0  0  0  0  0  0  0  0  0  0
    9.7250   -1.0420   22.9240 C   0  0  0  0  0  0  0  0  0  0  0  0
    8.4030   -1.3460   22.4280 N   0  0  0  0  0  0  0  0  0  0  0  0
    7.9860   -0.4480   21.4790 C   0  0  0  0  0  0  0  0  0  0  0  0
    8.5780    0.5770   21.1740 O   0  0  0  0  0  0  0  0  0  0  0  0
    6.8240   -0.8130   20.9160 N   0  0  0  0  0  0  0  0  0  0  0  0
    6.2110   -0.0800   19.9670 C   0  0  0  0  0  0  0  0  0  0  0  0
    5.0390    0.6210   20.1060 C   0  0  0  0  0  0  0  0  0  0  0  0
    4.4790    1.3660   19.0830 C   0  0  0  0  0  0  0  0  0  0  0  0
    5.1750    1.3780   17.8690 C   0  0  0  0  0  0  0  0  0  0  0  0
    6.3260    0.7000   17.6870 N   0  0  0  0  0  0  0  0  0  0  0  0
    6.8120   -0.0060   18.7270 C   0  0  0  0  0  0  0  0  0  0  0  0
    9.9310    0.4620   23.0100 C   0  0  0  0  0  0  0  0  0  0  0  0
   11.1540    0.8890   23.4300 C   0  0  0  0  0  0  0  0  0  0  0  0
   11.3850    2.5950   23.4790 Cl  0  0  0  0  0  0  0  0  0  0  0  0
  1  2  1  0
  2  3  1  0
  3  4  1  0
  4  5  2  0
  5  6  1  0
  5  7  1  0
  7  8  2  0
  8  9  1  0
  9 10  1  0
 10 11  2  0
 10 12  1  0
 12 13  1  0
 13 14  2  0
 14 15  1  0
 15 16  2  0
 16 17  1  0
 13 18  1  0
 17 18  2  0
  8 19  1  0
  4 20  1  0
 19 20  2  0
 20 21  1  0
M  END
