pyridine_urea_12307
     RDKit          3D

 22 24  0  0  0  0  0  0  0  0999 V2000
    8.9350    1.4780   21.1280 O   0  0  0  0  0  0  0  0  0  0  0  0
    8.2740    0.5680   21.6260 C   0  0  0  0  0  0  0  0  0  0  0  0
    8.3840    0.2390   22.9520 N   0  0  0  0  0  0  0  0  0  0  0  0
    7.3670   -0.5790   23.5700 C   0  0  0  0  0  0  0  0  0  0  0  0
    7.9310   -2.0060   23.7550 C   0  0  0  0  0  0  0  0  0  0  0  0
    7.1630   -3.0490   24.1480 C   0  0  0  0  0  0  0  0  0  0  0  0
    8.0860   -4.2140   24.1940 C   0  0  0  0  0  0  0  0  0  0  0  0
    9.3420   -3.8330   23.8400 N   0  0  0  0  0  0  0  0  0  0  0  0
    9.2450   -2.4580   23.5640 N   0  0  0  0  0  0  0  0  0  0  0  0
   10.3800   -1.7020   23.1500 C   0  0  0  0  0  0  0  0  0  0  0  0
   11.3390   -1.4600   24.2840 C   0  0  0  0  0  0  0  0  0  0  0  0
   12.2690   -2.6350   24.3920 C   0  0  0  0  0  0  0  0  0  0  0  0
   13.2660   -2.2280   23.3270 C   0  0  0  0  0  0  0  0  0  0  0  0
   12.6240   -1.9390   21.9480 C   0  0  0  0  0  0  0  0  0  0  0  0
   11.0850   -2.0800   21.8750 C   0  0  0  0  0  0  0  0  0  0  0  0
    7.3450   -0.2140   20.9880 N   0  0  0  0  0  0  0  0  0  0  0  0
    6.5510    0.2930   20.0400 C   0  0  0  0  0  0  0  0  0  0  0  0
    5.3900    1.0100   20.2820 C   0  0  0  0  0  0  0  0  0  0  0  0
    4.6720    1.5130   19.2050 C   0  0  0  0  0  0  0  0  0  0  0  0
    5.1340    1.2820   17.9200 C   0  0  0  0  0  0  0  0  0  0  0  0
    6.2450    0.5780   17.6740 N   0  0  0  0  0  0  0  0  0  0  0  0
    6.9200    0.1030   18.7260 C   0  0  0  0  0  0  0  0  0  0  0  0
  1  2  2  0
  2  3  1  0
  3  4  1  0
  4  5  1  0
  5  6  2  0
  6  7  1  0
  7  8  2  0
  5  9  1  0
  8  9  1  0
  9 10  1  0
 10 11  1  0
 11 12  1  0
 12 13  1  0
 13 14  1  0
 10 15  1  0
 14 15  1  0
  2 16  1  0
 16 17  1  0
 17 18  2  0
 18 19  1  0
 19 20  2  0
 20 21  1  0
 17 22  1  0
 21 22  2  0
M  END
