pyridine_urea_4282
     RDKit          3D

 24 26  0  0  0  0  0  0  0  0999 V2000
    8.5450    1.1840   20.9590 O   0  0  0  0  0  0  0  0  0  0  0  0
    8.0030    0.2690   21.5920 C   0  0  0  0  0  0  0  0  0  0  0  0
    7.0740   -0.5790   21.0580 N   0  0  0  0  0  0  0  0  0  0  0  0
    6.4080    0.0660   19.9810 C   0  0  0  0  0  0  0  0  0  0  0  0
    5.1140    0.7930   20.3070 C   0  0  0  0  0  0  0  0  0  0  0  0
    4.4210    1.5150   19.1600 C   0  0  0  0  0  0  0  0  0  0  0  0
    5.1280    1.4150   17.8100 C   0  0  0  0  0  0  0  0  0  0  0  0
    6.3150    0.6920   17.6840 N   0  0  0  0  0  0  0  0  0  0  0  0
    6.9190    0.0490   18.7160 C   0  0  0  0  0  0  0  0  0  0  0  0
    8.2670    0.0240   22.9110 N   0  0  0  0  0  0  0  0  0  0  0  0
    9.5910    0.2910   23.2450 C   0  0  1  0  0  0  0  0  0  0  0  0
   10.3080    1.2120   22.4860 C   0  0  0  0  0  0  0  0  0  0  0  0
   11.0640    1.8820   23.3900 C   0  0  0  0  0  0  0  0  0  0  0  0
   11.5160    2.9970   23.1440 O   0  0  0  0  0  0  0  0  0  0  0  0
   11.1490    1.1300   24.4200 N   0  0  0  0  0  0  0  0  0  0  0  0
   11.5060    0.1800   23.6740 C   0  0  0  0  0  0  0  0  0  0  0  0
   12.7590    0.3800   23.2390 C   0  0  0  0  0  0  0  0  0  0  0  0
   13.2480   -0.5320   22.3870 C   0  0  0  0  0  0  0  0  0  0  0  0
   12.4460   -1.6700   21.9610 C   0  0  0  0  0  0  0  0  0  0  0  0
   13.1870   -2.6990   20.8990 Cl  0  0  0  0  0  0  0  0  0  0  0  0
   11.1850   -1.8140   22.4360 C   0  0  0  0  0  0  0  0  0  0  0  0
   10.4130   -2.8310   22.0690 F   0  0  0  0  0  0  0  0  0  0  0  0
   10.6390   -0.8580   23.3560 C   0  0  0  0  0  0  0  0  0  0  0  0
    9.7410    0.8400   24.6790 C   0  0  0  0  0  0  0  0  0  0  0  0
  1  2  2  0
  2  3  1  0
  3  4  1  0
  4  5  2  0
  5  6  1  0
  6  7  2  0
  7  8  1  0
  4  9  1  0
  8  9  2  0
  2 10  1  0
 11 10  1  6
 11 12  1  0
 12 13  1  0
 13 14  2  0
 13 15  1  0
 15 16  1  0
 16 17  2  0
 17 18  1  0
 18 19  2  0
 19 20  1  0
 19 21  1  0
 21 22  1  0
 16 23  1  0
 21 23  2  0
 11 24  1  0
 15 24  1  0
M  END
