pyridine_urea_3793
     RDKit          3D

 18 19  0  0  0  0  0  0  0  0999 V2000
    9.8010   -2.4580   21.8020 C   0  0  0  0  0  0  0  0  0  0  0  0
   10.8450   -1.6120   22.5070 C   0  0  1  0  0  0  0  0  0  0  0  0
   10.2210   -0.2590   22.7120 C   0  0  0  0  0  0  0  0  0  0  0  0
    8.8890   -0.2570   22.6940 N   0  0  0  0  0  0  0  0  0  0  0  0
    8.3660    0.2990   21.6050 C   0  0  0  0  0  0  0  0  0  0  0  0
    8.8120    1.3500   21.1250 O   0  0  0  0  0  0  0  0  0  0  0  0
    7.2460   -0.4790   21.1280 N   0  0  0  0  0  0  0  0  0  0  0  0
    6.5480    0.0950   20.1190 C   0  0  0  0  0  0  0  0  0  0  0  0
    5.2540    0.8700   20.3610 C   0  0  0  0  0  0  0  0  0  0  0  0
    4.5470    1.5070   19.1630 C   0  0  0  0  0  0  0  0  0  0  0  0
    5.1330    1.3350   17.9170 C   0  0  0  0  0  0  0  0  0  0  0  0
    6.2500    0.6590   17.6560 N   0  0  0  0  0  0  0  0  0  0  0  0
    6.9200    0.0790   18.6500 C   0  0  0  0  0  0  0  0  0  0  0  0
   11.1340   -2.1120   23.8560 C   0  0  0  0  0  0  0  0  0  0  0  0
   12.0880   -1.4480   24.5340 C   0  0  0  0  0  0  0  0  0  0  0  0
   12.6570   -0.3790   23.8520 C   0  0  0  0  0  0  0  0  0  0  0  0
   12.9760   -0.7000   22.4580 C   0  0  0  0  0  0  0  0  0  0  0  0
   12.1140   -1.6610   21.9310 C   0  0  0  0  0  0  0  0  0  0  0  0
  2  1  1  6
  2  3  1  0
  3  4  1  0
  4  5  1  0
  5  6  2  0
  5  7  1  0
  7  8  1  0
  8  9  2  0
  9 10  1  0
 10 11  2  0
 11 12  1  0
  8 13  1  0
 12 13  2  0
  2 14  1  0
 14 15  2  0
 15 16  1  0
 16 17  1  0
  2 18  1  0
 17 18  1  0
M  END
