pyridine_urea_11241
     RDKit          3D

 17 18  0  0  0  0  0  0  0  0999 V2000
   10.8590    0.6320   22.6440 C   0  0  0  0  0  0  0  0  0  0  0  0
   10.5580   -0.5080   22.8000 C   0  0  2  0  0  0  0  0  0  0  0  0
    9.1040   -0.7180   22.6950 N   0  0  0  0  0  0  0  0  0  0  0  0
    8.4510    0.0820   21.6570 C   0  0  0  0  0  0  0  0  0  0  0  0
    8.9460    1.3730   21.2450 O   0  0  0  0  0  0  0  0  0  0  0  0
    7.2770   -0.5480   21.1150 N   0  0  0  0  0  0  0  0  0  0  0  0
    6.6450    0.0000   20.0610 C   0  0  0  0  0  0  0  0  0  0  0  0
    5.5310    0.7400   20.3530 C   0  0  0  0  0  0  0  0  0  0  0  0
    4.6890    1.4690   19.3130 C   0  0  0  0  0  0  0  0  0  0  0  0
    5.1380    1.3470   17.9200 C   0  0  0  0  0  0  0  0  0  0  0  0
    6.2660    0.5700   17.7240 N   0  0  0  0  0  0  0  0  0  0  0  0
    7.0060   -0.0900   18.7350 C   0  0  0  0  0  0  0  0  0  0  0  0
   11.1440   -1.1920   24.0570 C   0  0  0  0  0  0  0  0  0  0  0  0
   12.3670   -0.5140   23.8720 C   0  0  0  0  0  0  0  0  0  0  0  0
   13.1950   -0.8310   22.8250 C   0  0  0  0  0  0  0  0  0  0  0  0
   12.5980   -1.2800   21.7270 O   0  0  0  0  0  0  0  0  0  0  0  0
   11.3130   -1.6160   22.0270 C   0  0  0  0  0  0  0  0  0  0  0  0
  2  1  1  6
  2  3  1  0
  3  4  1  0
  4  5  2  0
  4  6  1  0
  6  7  1  0
  7  8  2  0
  8  9  1  0
  9 10  2  0
 10 11  1  0
  7 12  1  0
 11 12  2  0
  2 13  1  0
 13 14  1  0
 14 15  1  0
 15 16  1  0
  2 17  1  0
 16 17  1  0
M  END
