pyridine_urea_6658
     RDKit          3D

 22 23  0  0  0  0  0  0  0  0999 V2000
   13.1080   -1.8370   21.5120 C   0  0  0  0  0  0  0  0  0  0  0  0
   13.3830   -2.9110   22.3290 N   0  0  0  0  0  0  0  0  0  0  0  0
   12.9620   -2.6530   23.9460 S   0  0  0  0  0  0  0  0  0  0  0  0
   11.8730   -3.5010   24.3370 O   0  0  0  0  0  0  0  0  0  0  0  0
   14.0850   -2.3440   24.7790 O   0  0  0  0  0  0  0  0  0  0  0  0
   12.0920   -1.1380   23.6540 C   0  0  0  0  0  0  0  0  0  0  0  0
   12.7300    0.2070   23.7100 C   0  0  0  0  0  0  0  0  0  0  0  0
   11.8790    1.3970   23.4730 C   0  0  0  0  0  0  0  0  0  0  0  0
   10.4350    1.2490   23.1760 C   0  0  0  0  0  0  0  0  0  0  0  0
    9.7460    0.0440   23.0820 C   0  0  0  0  0  0  0  0  0  0  0  0
    8.3720   -0.0820   22.7830 N   0  0  0  0  0  0  0  0  0  0  0  0
    8.0490    0.3220   21.5430 C   0  0  0  0  0  0  0  0  0  0  0  0
    8.6870    1.3960   20.9710 O   0  0  0  0  0  0  0  0  0  0  0  0
    7.0090   -0.4940   20.9940 N   0  0  0  0  0  0  0  0  0  0  0  0
    6.3920    0.1090   19.9600 C   0  0  0  0  0  0  0  0  0  0  0  0
    5.2130    0.8060   20.1760 C   0  0  0  0  0  0  0  0  0  0  0  0
    4.5970    1.4380   19.1320 C   0  0  0  0  0  0  0  0  0  0  0  0
    5.1510    1.3830   17.8590 C   0  0  0  0  0  0  0  0  0  0  0  0
    6.2870    0.7040   17.6280 N   0  0  0  0  0  0  0  0  0  0  0  0
    6.8780    0.0860   18.6740 C   0  0  0  0  0  0  0  0  0  0  0  0
   10.6410   -1.1630   23.3330 C   0  0  0  0  0  0  0  0  0  0  0  0
   10.0450   -2.4050   23.2570 C   0  0  0  0  0  0  0  0  0  0  0  0
  1  2  1  0
  3  2  1  0
  3  4  2  0
  3  5  2  0
  3  6  1  0
  6  7  2  0
  7  8  1  0
  8  9  2  0
  9 10  1  0
 10 11  1  0
 11 12  1  0
 12 13  2  0
 12 14  1  0
 14 15  1  0
 15 16  2  0
 16 17  1  0
 17 18  2  0
 18 19  1  0
 15 20  1  0
 19 20  2  0
  6 21  1  0
 10 21  2  0
 21 22  1  0
M  END
