pyridine_urea_6931
     RDKit          3D

 21 22  0  0  0  0  0  0  0  0999 V2000
   11.7470    1.3620   23.4750 C   0  0  0  0  0  0  0  0  0  0  0  0
   10.3460    0.9640   23.0230 C   0  0  0  0  0  0  0  0  0  0  0  0
   10.0670   -0.3860   22.8010 C   0  0  1  0  0  0  0  0  0  0  0  0
    9.4220   -0.7310   21.5600 N   0  0  0  0  0  0  0  0  0  0  0  0
    8.2890    0.1050   21.2700 C   0  0  0  0  0  0  0  0  0  0  0  0
    8.6130    1.3130   21.1240 O   0  0  0  0  0  0  0  0  0  0  0  0
    7.0350   -0.4410   21.1410 N   0  0  0  0  0  0  0  0  0  0  0  0
    6.3670    0.1850   20.0390 C   0  0  0  0  0  0  0  0  0  0  0  0
    5.1950    0.9110   20.2180 C   0  0  0  0  0  0  0  0  0  0  0  0
    4.5700    1.5820   18.9940 C   0  0  0  0  0  0  0  0  0  0  0  0
    5.1290    1.4890   17.7380 C   0  0  0  0  0  0  0  0  0  0  0  0
    6.2630    0.7430   17.6830 N   0  0  0  0  0  0  0  0  0  0  0  0
    6.8960    0.0980   18.7410 C   0  0  0  0  0  0  0  0  0  0  0  0
   11.2710   -1.1570   22.9530 C   0  0  0  0  0  0  0  0  0  0  0  0
   11.7950   -2.1670   22.3010 C   0  0  0  0  0  0  0  0  0  0  0  0
   13.0830   -2.4770   23.0610 C   0  0  0  0  0  0  0  0  0  0  0  0
   13.4570   -1.6430   24.2720 C   0  0  0  0  0  0  0  0  0  0  0  0
   12.6980   -0.5120   24.8060 C   0  0  0  0  0  0  0  0  0  0  0  0
   12.2580   -1.1230   23.8050 C   0  0  0  0  0  0  0  0  0  0  0  0
   13.1890   -2.1300   23.5730 O   0  0  0  0  0  0  0  0  0  0  0  0
   13.2070   -2.8920   24.7920 C   0  0  0  0  0  0  0  0  0  0  0  0
  1  2  1  0
  3  2  1  6
  3  4  1  0
  4  5  1  0
  5  6  2  0
  5  7  1  0
  7  8  1  0
  8  9  2  0
  9 10  1  0
 10 11  2  0
 11 12  1  0
  8 13  1  0
 12 13  2  0
  3 14  1  0
 14 15  2  0
 15 16  1  0
 16 17  2  0
 17 18  1  0
 14 19  1  0
 18 19  2  0
 19 20  1  0
 20 21  1  0
M  END
