pyridine_urea_86
     RDKit          3D

 17 18  0  0  0  0  0  0  0  0999 V2000
    8.8860    1.2050   21.1470 O   0  0  0  0  0  0  0  0  0  0  0  0
    8.5040    0.0710   21.4700 C   0  0  0  0  0  0  0  0  0  0  0  0
    7.2660   -0.4550   21.1510 N   0  0  0  0  0  0  0  0  0  0  0  0
    6.5660    0.1310   20.0360 C   0  0  0  0  0  0  0  0  0  0  0  0
    5.3040    0.9100   20.3780 C   0  0  0  0  0  0  0  0  0  0  0  0
    4.6180    1.5150   19.2050 C   0  0  0  0  0  0  0  0  0  0  0  0
    5.1620    1.3300   17.9510 C   0  0  0  0  0  0  0  0  0  0  0  0
    6.2760    0.6240   17.6980 N   0  0  0  0  0  0  0  0  0  0  0  0
    6.9440    0.0480   18.7170 C   0  0  0  0  0  0  0  0  0  0  0  0
    9.2650   -0.8350   22.1720 N   0  0  0  0  0  0  0  0  0  0  0  0
   10.4230   -0.4090   22.9890 C   0  0  1  0  0  0  0  0  0  0  0  0
   10.6600   -1.3020   23.9510 C   0  0  0  0  0  0  0  0  0  0  0  0
   10.1210   -2.5080   23.5750 F   0  0  0  0  0  0  0  0  0  0  0  0
   11.9740   -1.5400   24.1600 F   0  0  0  0  0  0  0  0  0  0  0  0
   11.7860   -1.1010   23.0020 C   0  0  0  0  0  0  0  0  0  0  0  0
   12.7680   -0.6290   23.6640 C   0  0  0  0  0  0  0  0  0  0  0  0
   13.0850   -0.5750   22.2750 C   0  0  0  0  0  0  0  0  0  0  0  0
  1  2  2  0
  2  3  1  0
  3  4  1  0
  4  5  2  0
  5  6  1  0
  6  7  2  0
  7  8  1  0
  4  9  1  0
  8  9  2  0
  2 10  1  0
 11 10  1  6
 11 12  1  0
 12 13  1  0
 12 14  1  0
 11 15  1  0
 15 16  1  0
 15 17  1  0
 16 17  1  0
M  END
