pyridine_urea_1674
     RDKit          3D

 18 19  0  0  0  0  0  0  0  0999 V2000
   13.1150   -1.1580   24.7770 C   0  0  0  0  0  0  0  0  0  0  0  0
   12.6360   -0.3760   23.5880 C   0  0  0  0  0  0  0  0  0  0  0  0
   13.1420    0.8090   23.0830 C   0  0  0  0  0  0  0  0  0  0  0  0
   11.3610    0.2020   24.2080 C   0  0  0  0  0  0  0  0  0  0  0  0
   10.2390    0.0800   23.4690 C   0  0  0  0  0  0  0  0  0  0  0  0
    9.9500   -1.1660   22.9790 C   0  0  0  0  0  0  0  0  0  0  0  0
    8.7270   -1.2690   22.3320 N   0  0  0  0  0  0  0  0  0  0  0  0
    8.2110   -0.2990   21.5090 C   0  0  0  0  0  0  0  0  0  0  0  0
    8.7340    0.7830   21.2800 O   0  0  0  0  0  0  0  0  0  0  0  0
    7.0100   -0.7160   20.9900 N   0  0  0  0  0  0  0  0  0  0  0  0
    6.2860    0.0350   19.9770 C   0  0  0  0  0  0  0  0  0  0  0  0
    5.0980    0.7160   20.1650 C   0  0  0  0  0  0  0  0  0  0  0  0
    4.5270    1.4060   19.1000 C   0  0  0  0  0  0  0  0  0  0  0  0
    5.1800    1.3850   17.8750 C   0  0  0  0  0  0  0  0  0  0  0  0
    6.3310    0.7230   17.6770 N   0  0  0  0  0  0  0  0  0  0  0  0
    6.8470    0.0710   18.7210 C   0  0  0  0  0  0  0  0  0  0  0  0
   11.0050   -1.6710   22.2220 C   0  0  0  0  0  0  0  0  0  0  0  0
   12.3880   -1.2450   22.5390 C   0  0  0  0  0  0  0  0  0  0  0  0
  2  1  1  0
  2  3  1  0
  2  4  1  0
  4  5  1  0
  5  6  1  0
  6  7  1  0
  7  8  1  0
  8  9  2  0
  8 10  1  0
 10 11  1  0
 11 12  2  0
 12 13  1  0
 13 14  2  0
 14 15  1  0
 11 16  1  0
 15 16  2  0
  6 17  1  0
  2 18  1  0
 17 18  1  0
M  END
