pyridine_urea_4507
     RDKit          3D

 23 25  0  0  0  0  0  0  0  0999 V2000
   10.8310   -2.2260   21.2740 N   0  0  0  0  0  0  0  0  0  0  0  0
   11.2860   -1.1090   21.8830 C   0  0  0  0  0  0  0  0  0  0  0  0
   12.1700   -1.4100   23.0380 C   0  0  0  0  0  0  0  0  0  0  0  0
   13.0720   -2.4630   22.6260 C   0  0  0  0  0  0  0  0  0  0  0  0
   13.9720   -2.9080   23.6810 C   0  0  0  0  0  0  0  0  0  0  0  0
   13.8910   -2.2630   25.0650 C   0  0  0  0  0  0  0  0  0  0  0  0
   12.9790   -1.2410   25.2970 N   0  0  0  0  0  0  0  0  0  0  0  0
   12.1800   -0.8680   24.2840 C   0  0  0  0  0  0  0  0  0  0  0  0
   11.2810    0.0640   24.4940 N   0  0  0  0  0  0  0  0  0  0  0  0
   10.0590    0.7380   24.2850 C   0  0  0  0  0  0  0  0  0  0  0  0
    9.2350    0.2440   23.3430 C   0  0  0  0  0  0  0  0  0  0  0  0
    8.0740    0.6450   22.9700 N   0  0  0  0  0  0  0  0  0  0  0  0
    8.0300    0.6070   21.6130 C   0  0  0  0  0  0  0  0  0  0  0  0
    8.6970    1.3970   20.9530 O   0  0  0  0  0  0  0  0  0  0  0  0
    7.2030   -0.3240   21.0600 N   0  0  0  0  0  0  0  0  0  0  0  0
    6.5580    0.1750   20.0000 C   0  0  0  0  0  0  0  0  0  0  0  0
    5.4170    0.8940   20.3250 C   0  0  0  0  0  0  0  0  0  0  0  0
    4.6530    1.4960   19.3360 C   0  0  0  0  0  0  0  0  0  0  0  0
    5.1430    1.3120   17.9510 C   0  0  0  0  0  0  0  0  0  0  0  0
    6.2440    0.6040   17.6560 N   0  0  0  0  0  0  0  0  0  0  0  0
    6.9270    0.0500   18.6800 C   0  0  0  0  0  0  0  0  0  0  0  0
    9.8470   -0.7940   22.8250 C   0  0  0  0  0  0  0  0  0  0  0  0
   10.9850   -0.8840   23.4740 N   0  0  0  0  0  0  0  0  0  0  0  0
  1  2  3  0
  2  3  1  0
  3  4  2  0
  4  5  1  0
  5  6  2  0
  6  7  1  0
  3  8  1  0
  7  8  2  0
  8  9  1  0
  9 10  1  0
 10 11  2  0
 11 12  1  0
 12 13  1  0
 13 14  2  0
 13 15  1  0
 15 16  1  0
 16 17  2  0
 17 18  1  0
 18 19  2  0
 19 20  1  0
 16 21  1  0
 20 21  2  0
 11 22  1  0
  9 23  1  0
 22 23  2  0
M  END
