pyridine_urea_15068
     RDKit          3D

 18 19  0  0  0  0  0  0  0  0999 V2000
   11.9770    1.4810   23.2100 C   0  0  0  0  0  0  0  0  0  0  0  0
   12.8440    0.2590   22.9030 C   0  0  0  0  0  0  0  0  0  0  0  0
   12.4010   -0.9800   23.5130 N   0  0  0  0  0  0  0  0  0  0  0  0
   13.1890   -1.4020   24.5690 N   0  0  0  0  0  0  0  0  0  0  0  0
   12.6880   -2.5620   25.0460 N   0  0  0  0  0  0  0  0  0  0  0  0
   11.5200   -2.7620   24.1580 C   0  0  0  0  0  0  0  0  0  0  0  0
   11.3270   -1.7060   23.1260 C   0  0  0  0  0  0  0  0  0  0  0  0
   10.2040   -1.6820   22.0780 C   0  0  0  0  0  0  0  0  0  0  0  0
    9.2520   -0.7770   22.4600 N   0  0  0  0  0  0  0  0  0  0  0  0
    8.5730    0.0800   21.5570 C   0  0  0  0  0  0  0  0  0  0  0  0
    9.0030    1.2060   21.2700 O   0  0  0  0  0  0  0  0  0  0  0  0
    7.4400   -0.4840   21.0830 N   0  0  0  0  0  0  0  0  0  0  0  0
    6.6050    0.1280   20.1320 C   0  0  0  0  0  0  0  0  0  0  0  0
    5.4600    0.8570   20.4080 C   0  0  0  0  0  0  0  0  0  0  0  0
    4.7310    1.4340   19.3700 C   0  0  0  0  0  0  0  0  0  0  0  0
    5.1180    1.3010   18.0450 C   0  0  0  0  0  0  0  0  0  0  0  0
    6.2350    0.5870   17.6760 N   0  0  0  0  0  0  0  0  0  0  0  0
    6.9400    0.0150   18.8160 C   0  0  0  0  0  0  0  0  0  0  0  0
  1  2  1  0
  2  3  1  0
  3  4  1  0
  4  5  2  0
  5  6  1  0
  3  7  1  0
  6  7  2  0
  7  8  1  0
  8  9  1  0
  9 10  1  0
 10 11  2  0
 10 12  1  0
 12 13  1  0
 13 14  2  0
 14 15  1  0
 15 16  2  0
 16 17  1  0
 13 18  1  0
 17 18  2  0
M  END
