pyridine_urea_12104
     RDKit          3D

 23 24  0  0  0  0  0  0  0  0999 V2000
    8.8620    1.4660   21.1630 O   0  0  0  0  0  0  0  0  0  0  0  0
    8.4360    0.4020   21.6100 C   0  0  0  0  0  0  0  0  0  0  0  0
    7.3550   -0.3010   21.1300 N   0  0  0  0  0  0  0  0  0  0  0  0
    6.5980    0.1940   20.0620 C   0  0  0  0  0  0  0  0  0  0  0  0
    5.4290    0.9100   20.3360 C   0  0  0  0  0  0  0  0  0  0  0  0
    4.6760    1.4330   19.2870 C   0  0  0  0  0  0  0  0  0  0  0  0
    5.1270    1.2180   18.0040 C   0  0  0  0  0  0  0  0  0  0  0  0
    6.2340    0.5290   17.7140 N   0  0  0  0  0  0  0  0  0  0  0  0
    6.9430    0.0310   18.7420 C   0  0  0  0  0  0  0  0  0  0  0  0
    9.0610   -0.1960   22.6780 N   0  0  0  0  0  0  0  0  0  0  0  0
   10.5220    0.0160   22.7160 C   0  0  1  0  0  0  0  0  0  0  0  0
   11.0510    0.3430   24.0950 C   0  0  0  0  0  0  0  0  0  0  0  0
   11.9060   -0.7140   24.3200 C   0  0  0  0  0  0  0  0  0  0  0  0
   12.7220   -0.8850   25.3910 C   0  0  0  0  0  0  0  0  0  0  0  0
   13.5250   -1.9330   25.6030 C   0  0  0  0  0  0  0  0  0  0  0  0
   13.4750   -2.8310   24.6560 C   0  0  0  0  0  0  0  0  0  0  0  0
   12.6590   -2.6340   23.5720 C   0  0  0  0  0  0  0  0  0  0  0  0
   11.7640   -1.5920   23.2160 C   0  0  0  0  0  0  0  0  0  0  0  0
   11.3890   -1.2140   22.2930 C   0  0  1  0  0  0  0  0  0  0  0  0
   10.8890   -1.7900   21.1540 O   0  0  0  0  0  0  0  0  0  0  0  0
   12.7420   -0.8300   22.1500 C   0  0  0  0  0  0  0  0  0  0  0  0
   13.3290   -1.5290   21.1350 F   0  0  0  0  0  0  0  0  0  0  0  0
   13.4920   -1.1760   23.2200 F   0  0  0  0  0  0  0  0  0  0  0  0
  1  2  2  0
  2  3  1  0
  3  4  1  0
  4  5  2  0
  5  6  1  0
  6  7  2  0
  7  8  1  0
  4  9  1  0
  8  9  2  0
  2 10  1  0
 10 11  1  0
 11 12  1  1
 12 13  1  0
 13 14  2  0
 14 15  1  0
 15 16  2  0
 16 17  1  0
 13 18  1  0
 17 18  2  0
 11 19  1  0
 19 20  1  6
 19 21  1  0
 21 22  1  0
 21 23  1  0
M  END
