pyridine_urea_8759
     RDKit          3D

 20 20  0  0  0  0  0  0  0  0999 V2000
    8.8970    3.9300   24.1330 C   0  0  0  0  0  0  0  0  0  0  0  0
   10.1290    3.6700   23.3090 C   0  0  0  0  0  0  0  0  0  0  0  0
   10.8410    2.5680   23.8980 O   0  0  0  0  0  0  0  0  0  0  0  0
   10.1690    1.3970   24.1450 C   0  0  0  0  0  0  0  0  0  0  0  0
    8.9910    1.2440   24.4350 O   0  0  0  0  0  0  0  0  0  0  0  0
   10.8560    0.1880   24.0730 C   0  0  0  0  0  0  0  0  0  0  0  0
   10.3600   -0.7530   24.9510 C   0  0  0  0  0  0  0  0  0  0  0  0
   12.2630    0.3590   24.0860 C   0  0  0  0  0  0  0  0  0  0  0  0
   10.5710   -0.3160   22.6360 C   0  0  1  0  0  0  0  0  0  0  0  0
   11.4300   -1.5560   22.3010 C   0  0  0  0  0  0  0  0  0  0  0  0
    9.1750   -0.6420   22.4520 N   0  0  0  0  0  0  0  0  0  0  0  0
    8.4890    0.1260   21.5320 C   0  0  0  0  0  0  0  0  0  0  0  0
    8.9260    1.2300   21.1740 O   0  0  0  0  0  0  0  0  0  0  0  0
    7.3170   -0.4470   21.0880 N   0  0  0  0  0  0  0  0  0  0  0  0
    6.5670    0.1100   20.0490 C   0  0  0  0  0  0  0  0  0  0  0  0
    5.3930    0.8070   20.3480 C   0  0  0  0  0  0  0  0  0  0  0  0
    4.6680    1.3830   19.2980 C   0  0  0  0  0  0  0  0  0  0  0  0
    5.1330    1.2450   17.9990 C   0  0  0  0  0  0  0  0  0  0  0  0
    6.2460    0.5730   17.7020 N   0  0  0  0  0  0  0  0  0  0  0  0
    6.9320    0.0230   18.7210 C   0  0  0  0  0  0  0  0  0  0  0  0
  1  2  1  0
  2  3  1  0
  3  4  1  0
  4  5  2  0
  6  4  1  0
  6  7  1  0
  6  8  1  0
  6  9  1  0
  9 10  1  1
  9 11  1  0
 11 12  1  0
 12 13  2  0
 12 14  1  0
 14 15  1  0
 15 16  2  0
 16 17  1  0
 17 18  2  0
 18 19  1  0
 15 20  1  0
 19 20  2  0
M  END
