pyridine_urea_7131
     RDKit          3D

 20 21  0  0  0  0  0  0  0  0999 V2000
    9.4150   -6.0070   26.8810 C   0  0  0  0  0  0  0  0  0  0  0  0
    7.9670   -5.7940   27.2680 C   0  0  0  0  0  0  0  0  0  0  0  0
    7.4930   -4.4950   27.3130 C   0  0  0  0  0  0  0  0  0  0  0  0
    7.9400   -3.5960   26.3470 C   0  0  0  0  0  0  0  0  0  0  0  0
    7.1860   -3.7000   25.1090 N   0  0  0  0  0  0  0  0  0  0  0  0
    7.7910   -4.4450   24.0910 C   0  0  0  0  0  0  0  0  0  0  0  0
    8.0030   -3.6020   23.0250 C   0  0  0  0  0  0  0  0  0  0  0  0
    7.3770   -2.2280   23.3080 C   0  0  2  0  0  0  0  0  0  0  0  0
    8.1900   -1.1160   23.5470 C   0  0  0  0  0  0  0  0  0  0  0  0
    9.1420   -0.8580   22.4770 N   0  0  0  0  0  0  0  0  0  0  0  0
    8.5630    0.0530   21.4670 C   0  0  0  0  0  0  0  0  0  0  0  0
    9.0360    1.1710   21.2150 O   0  0  0  0  0  0  0  0  0  0  0  0
    7.4540   -0.5210   20.8990 N   0  0  0  0  0  0  0  0  0  0  0  0
    6.6010    0.1210   20.0000 C   0  0  0  0  0  0  0  0  0  0  0  0
    5.4340    0.8130   20.3170 C   0  0  0  0  0  0  0  0  0  0  0  0
    4.6570    1.4590   19.2200 C   0  0  0  0  0  0  0  0  0  0  0  0
    5.1460    1.3400   17.9180 C   0  0  0  0  0  0  0  0  0  0  0  0
    6.2630    0.6720   17.6100 N   0  0  0  0  0  0  0  0  0  0  0  0
    6.9440    0.0910   18.6750 C   0  0  0  0  0  0  0  0  0  0  0  0
    6.5340   -2.4930   24.5970 C   0  0  0  0  0  0  0  0  0  0  0  0
  1  2  1  0
  2  3  1  0
  3  4  1  0
  4  5  1  0
  5  6  1  0
  6  7  1  0
  7  8  1  0
  8  9  1  1
  9 10  1  0
 10 11  1  0
 11 12  2  0
 11 13  1  0
 13 14  1  0
 14 15  2  0
 15 16  1  0
 16 17  2  0
 17 18  1  0
 14 19  1  0
 18 19  2  0
  5 20  1  0
  8 20  1  0
M  END
