pyridine_urea_2515
     RDKit          3D

 24 26  0  0  0  0  0  0  0  0999 V2000
    8.8190    0.8710   21.4090 O   0  0  0  0  0  0  0  0  0  0  0  0
    8.4010   -0.2630   21.5970 C   0  0  0  0  0  0  0  0  0  0  0  0
    8.9740   -1.2120   22.4050 N   0  0  0  0  0  0  0  0  0  0  0  0
    9.7190   -0.9660   23.5710 C   0  0  0  0  0  0  0  0  0  0  0  0
   10.9790   -1.5670   23.6840 C   0  0  0  0  0  0  0  0  0  0  0  0
   11.7800   -1.6780   22.5490 C   0  0  0  0  0  0  0  0  0  0  0  0
   12.7610   -2.6470   22.6050 C   0  0  0  0  0  0  0  0  0  0  0  0
   13.4540   -2.7210   23.6100 O   0  0  0  0  0  0  0  0  0  0  0  0
   12.9410   -3.5180   21.5790 N   0  0  0  0  0  0  0  0  0  0  0  0
   12.1260   -3.4480   20.4590 C   0  0  0  0  0  0  0  0  0  0  0  0
   12.5150   -4.4420   19.4750 C   0  0  0  0  0  0  0  0  0  0  0  0
   13.8970   -4.8120   19.9730 C   0  0  0  0  0  0  0  0  0  0  0  0
   15.0310   -5.5240   19.5260 C   0  0  0  0  0  0  0  0  0  0  0  0
   16.1490   -5.5630   20.1710 C   0  0  0  0  0  0  0  0  0  0  0  0
   16.3040   -5.0600   21.3090 C   0  0  0  0  0  0  0  0  0  0  0  0
   15.2590   -4.4870   21.6840 C   0  0  0  0  0  0  0  0  0  0  0  0
   14.0430   -4.2920   21.0690 C   0  0  0  0  0  0  0  0  0  0  0  0
    7.2480   -0.7330   21.0020 N   0  0  0  0  0  0  0  0  0  0  0  0
    6.4610   -0.0360   20.0690 C   0  0  0  0  0  0  0  0  0  0  0  0
    5.3880    0.8030   20.3910 C   0  0  0  0  0  0  0  0  0  0  0  0
    4.7000    1.4490   19.3710 C   0  0  0  0  0  0  0  0  0  0  0  0
    5.0980    1.2430   18.0650 C   0  0  0  0  0  0  0  0  0  0  0  0
    6.1120    0.4430   17.7230 N   0  0  0  0  0  0  0  0  0  0  0  0
    6.7660   -0.1770   18.7250 C   0  0  0  0  0  0  0  0  0  0  0  0
  1  2  2  0
  2  3  1  0
  3  4  1  0
  4  5  1  0
  5  6  1  0
  6  7  1  0
  7  8  2  0
  7  9  1  0
  9 10  1  0
 10 11  1  0
 11 12  1  0
 12 13  1  0
 13 14  2  0
 14 15  1  0
 15 16  2  0
  9 17  1  0
 12 17  2  0
 16 17  1  0
  2 18  1  0
 18 19  1  0
 19 20  2  0
 20 21  1  0
 21 22  2  0
 22 23  1  0
 19 24  1  0
 23 24  2  0
M  END
