pyridine_urea_689
     RDKit          3D

 23 25  0  0  0  0  0  0  0  0999 V2000
    8.6370    0.5320   21.1410 O   0  0  0  0  0  0  0  0  0  0  0  0
    8.3100   -0.5940   21.4920 C   0  0  0  0  0  0  0  0  0  0  0  0
    9.1650   -1.3860   22.2620 N   0  0  0  0  0  0  0  0  0  0  0  0
   10.3160   -0.6390   22.5020 C   0  0  0  0  0  0  0  0  0  0  0  0
   10.0710    0.6540   22.8180 C   0  0  0  0  0  0  0  0  0  0  0  0
   11.0420    1.5410   23.0230 C   0  0  0  0  0  0  0  0  0  0  0  0
   12.3470    1.2170   22.9380 C   0  0  0  0  0  0  0  0  0  0  0  0
   13.1270    2.2720   23.1370 N   0  0  0  0  0  0  0  0  0  0  0  0
   12.2870    3.7980   23.1110 S   0  0  0  0  0  0  0  0  0  0  0  0
   10.8450    3.7700   23.1170 O   0  0  0  0  0  0  0  0  0  0  0  0
   12.9240    5.1310   24.1160 C   0  0  0  0  0  0  0  0  0  0  0  0
   12.7720    6.2830   23.1560 C   0  0  0  0  0  0  0  0  0  0  0  0
   12.7040    5.8730   21.8690 C   0  0  0  0  0  0  0  0  0  0  0  0
   12.9220    4.5200   21.6260 C   0  0  0  0  0  0  0  0  0  0  0  0
   12.8070   -0.0940   22.6540 C   0  0  0  0  0  0  0  0  0  0  0  0
   11.7840   -1.0620   22.4250 C   0  0  0  0  0  0  0  0  0  0  0  0
    7.0800   -1.0700   21.1000 N   0  0  0  0  0  0  0  0  0  0  0  0
    6.4480   -0.2920   20.0180 C   0  0  0  0  0  0  0  0  0  0  0  0
    5.2150    0.3480   20.2710 C   0  0  0  0  0  0  0  0  0  0  0  0
    4.5980    1.1140   19.2700 C   0  0  0  0  0  0  0  0  0  0  0  0
    5.1640    1.2730   18.0140 C   0  0  0  0  0  0  0  0  0  0  0  0
    6.3590    0.6430   17.7740 N   0  0  0  0  0  0  0  0  0  0  0  0
    6.9920   -0.1280   18.7560 C   0  0  0  0  0  0  0  0  0  0  0  0
  1  2  2  0
  2  3  1  0
  3  4  1  0
  4  5  2  0
  5  6  1  0
  6  7  2  0
  7  8  1  0
  8  9  2  0
  9 10  2  0
  9 11  1  0
 11 12  1  0
 12 13  1  0
  9 14  1  0
 13 14  1  0
  7 15  1  0
  4 16  1  0
 15 16  2  0
  2 17  1  0
 17 18  1  0
 18 19  2  0
 19 20  1  0
 20 21  2  0
 21 22  1  0
 18 23  1  0
 22 23  2  0
M  END
