pyridine_urea_6450
     RDKit          3D

 23 25  0  0  0  0  0  0  0  0999 V2000
    8.9830    0.6290   21.3830 O   0  0  0  0  0  0  0  0  0  0  0  0
    8.4850   -0.4510   21.6650 C   0  0  0  0  0  0  0  0  0  0  0  0
    7.2400   -0.8530   21.1800 N   0  0  0  0  0  0  0  0  0  0  0  0
    6.5850   -0.1380   20.0880 C   0  0  0  0  0  0  0  0  0  0  0  0
    5.3190    0.6460   20.4420 C   0  0  0  0  0  0  0  0  0  0  0  0
    4.6810    1.3700   19.3000 C   0  0  0  0  0  0  0  0  0  0  0  0
    5.2620    1.2800   18.0500 C   0  0  0  0  0  0  0  0  0  0  0  0
    6.3780    0.5720   17.7860 N   0  0  0  0  0  0  0  0  0  0  0  0
    7.0020   -0.1080   18.7780 C   0  0  0  0  0  0  0  0  0  0  0  0
    9.0790   -1.4050   22.5050 N   0  0  0  0  0  0  0  0  0  0  0  0
   10.4420   -1.2220   23.1100 C   0  0  0  0  0  0  0  0  0  0  0  0
   10.5990   -2.1680   24.0570 C   0  0  0  0  0  0  0  0  0  0  0  0
   12.0910   -2.1690   24.2380 C   0  0  0  0  0  0  0  0  0  0  0  0
   12.6800   -3.0360   25.1530 C   0  0  0  0  0  0  0  0  0  0  0  0
   11.8750   -3.9100   25.9050 C   0  0  0  0  0  0  0  0  0  0  0  0
   10.5010   -3.9120   25.7370 C   0  0  0  0  0  0  0  0  0  0  0  0
    9.7670   -3.0220   24.7860 C   0  0  0  0  0  0  0  0  0  0  0  0
    7.8830   -3.1390   24.6660 Br  0  0  0  0  0  0  0  0  0  0  0  0
   10.3960    0.2560   23.6610 C   0  0  0  0  0  0  0  0  0  0  0  0
   11.8500    0.3990   24.0170 C   0  0  0  0  0  0  0  0  0  0  0  0
   12.7290    0.4010   22.9560 C   0  0  0  0  0  0  0  0  0  0  0  0
   12.7250   -0.8190   22.3300 C   0  0  0  0  0  0  0  0  0  0  0  0
   11.4380   -1.3430   22.1200 C   0  0  0  0  0  0  0  0  0  0  0  0
  1  2  2  0
  2  3  1  0
  3  4  1  0
  4  5  2  0
  5  6  1  0
  6  7  2  0
  7  8  1  0
  4  9  1  0
  8  9  2  0
  2 10  1  0
 11 10  1  0
 11 12  1  0
 12 13  2  0
 13 14  1  0
 14 15  2  0
 15 16  1  0
 12 17  1  0
 16 17  2  0
 17 18  1  0
 11 19  1  0
 19 20  1  0
 20 21  1  0
 21 22  1  0
 11 23  1  0
 22 23  1  0
M  END
