pyridine_urea_11247
     RDKit          3D

 17 17  0  0  0  0  0  0  0  0999 V2000
   12.8950    0.9340   22.9410 C   0  0  0  0  0  0  0  0  0  0  0  0
   11.8360    0.4560   23.1810 C   0  0  0  0  0  0  0  0  0  0  0  0
   10.4950   -0.1850   23.5190 C   0  0  0  0  0  0  0  0  0  0  0  0
   10.3580   -1.4040   22.7410 C   0  0  2  0  0  0  0  0  0  0  0  0
   11.5260   -1.9190   22.2090 C   0  0  0  0  0  0  0  0  0  0  0  0
   12.6560   -1.5300   23.0530 O   0  0  0  0  0  0  0  0  0  0  0  0
   12.7060   -2.3580   24.2460 C   0  0  0  0  0  0  0  0  0  0  0  0
    9.3690   -1.2050   21.7080 N   0  0  0  0  0  0  0  0  0  0  0  0
    8.5340   -0.1540   21.3780 C   0  0  0  0  0  0  0  0  0  0  0  0
    8.9950    1.2100   21.2520 O   0  0  0  0  0  0  0  0  0  0  0  0
    7.1760   -0.6060   21.1550 N   0  0  0  0  0  0  0  0  0  0  0  0
    6.5190    0.0290   20.0170 C   0  0  0  0  0  0  0  0  0  0  0  0
    5.2820    0.8120   20.3420 C   0  0  0  0  0  0  0  0  0  0  0  0
    4.6420    1.4510   19.2910 C   0  0  0  0  0  0  0  0  0  0  0  0
    5.0860    1.4020   17.9810 C   0  0  0  0  0  0  0  0  0  0  0  0
    6.2810    0.6260   17.7010 N   0  0  0  0  0  0  0  0  0  0  0  0
    6.9390   -0.0200   18.7120 C   0  0  0  0  0  0  0  0  0  0  0  0
  1  2  3  0
  2  3  1  0
  4  3  1  6
  4  5  1  0
  5  6  1  0
  6  7  1  0
  4  8  1  0
  8  9  1  0
  9 10  2  0
  9 11  1  0
 11 12  1  0
 12 13  2  0
 13 14  1  0
 14 15  2  0
 15 16  1  0
 12 17  1  0
 16 17  2  0
M  END
