pyridine_urea_717
     RDKit          3D

 23 25  0  0  0  0  0  0  0  0999 V2000
    8.5680    0.5900   21.1050 O   0  0  0  0  0  0  0  0  0  0  0  0
    7.6540   -0.0920   21.5470 C   0  0  0  0  0  0  0  0  0  0  0  0
    6.7480   -0.7520   20.7910 N   0  0  0  0  0  0  0  0  0  0  0  0
    6.1180    0.0010   19.8370 C   0  0  0  0  0  0  0  0  0  0  0  0
    4.9090    0.6600   20.0020 C   0  0  0  0  0  0  0  0  0  0  0  0
    4.4110    1.4080   18.9460 C   0  0  0  0  0  0  0  0  0  0  0  0
    5.1430    1.4590   17.7800 C   0  0  0  0  0  0  0  0  0  0  0  0
    6.3110    0.8180   17.6060 N   0  0  0  0  0  0  0  0  0  0  0  0
    6.7630    0.1090   18.6370 C   0  0  0  0  0  0  0  0  0  0  0  0
    7.3830   -0.2590   22.8680 N   0  0  0  0  0  0  0  0  0  0  0  0
    8.4340   -0.1890   23.7100 C   0  0  0  0  0  0  0  0  0  0  0  0
    8.3120   -0.0770   25.0880 C   0  0  0  0  0  0  0  0  0  0  0  0
    9.4440   -0.0280   25.8890 C   0  0  0  0  0  0  0  0  0  0  0  0
   10.6240   -0.0930   25.2670 C   0  0  0  0  0  0  0  0  0  0  0  0
   10.6370   -0.1760   23.9750 C   0  0  0  0  0  0  0  0  0  0  0  0
   11.7010   -0.2360   23.2960 C   0  0  0  0  0  0  0  0  0  0  0  0
   12.6070    0.7490   23.3520 C   0  0  0  0  0  0  0  0  0  0  0  0
   13.6330    0.5410   22.5600 C   0  0  0  0  0  0  0  0  0  0  0  0
   13.5950   -0.6220   21.8250 C   0  0  0  0  0  0  0  0  0  0  0  0
   12.6880   -1.4760   21.8890 C   0  0  0  0  0  0  0  0  0  0  0  0
   13.0040   -2.8470   20.8630 Br  0  0  0  0  0  0  0  0  0  0  0  0
   11.6900   -1.3550   22.6010 C   0  0  0  0  0  0  0  0  0  0  0  0
    9.6200   -0.2280   23.1850 C   0  0  0  0  0  0  0  0  0  0  0  0
  1  2  2  0
  2  3  1  0
  3  4  1  0
  4  5  2  0
  5  6  1  0
  6  7  2  0
  7  8  1  0
  4  9  1  0
  8  9  2  0
  2 10  1  0
 10 11  1  0
 11 12  2  0
 12 13  1  0
 13 14  2  0
 14 15  1  0
 15 16  1  0
 16 17  2  0
 17 18  1  0
 18 19  2  0
 19 20  1  0
 20 21  1  0
 16 22  1  0
 20 22  2  0
 11 23  1  0
 15 23  2  0
M  END
