pyridine_urea_13704
     RDKit          3D

 26 28  0  0  0  0  0  0  0  0999 V2000
   11.2680    6.9420   25.7630 C   0  0  0  0  0  0  0  0  0  0  0  0
   11.8860    6.2520   24.5340 C   0  0  0  0  0  0  0  0  0  0  0  0
   12.5540    7.1370   23.4980 C   0  0  0  0  0  0  0  0  0  0  0  0
   13.2350    6.2470   22.1520 S   0  0  0  0  0  0  0  0  0  0  0  0
   12.6720    4.7670   22.9340 C   0  0  0  0  0  0  0  0  0  0  0  0
   12.8630    3.4210   22.4470 N   0  0  0  0  0  0  0  0  0  0  0  0
   12.4040    2.3840   23.2020 C   0  0  0  0  0  0  0  0  0  0  0  0
   11.3790    2.4990   23.8560 O   0  0  0  0  0  0  0  0  0  0  0  0
   12.9640    1.1100   23.3620 C   0  0  0  0  0  0  0  0  0  0  0  0
   11.9850    0.3530   23.0900 C   0  0  0  0  0  0  0  0  0  0  0  0
   12.0800   -0.7560   22.2830 C   0  0  0  0  0  0  0  0  0  0  0  0
   10.9250   -1.4510   22.0000 C   0  0  0  0  0  0  0  0  0  0  0  0
    9.6780   -1.0850   22.4980 C   0  0  0  0  0  0  0  0  0  0  0  0
    8.6090   -1.7560   22.1040 N   0  0  0  0  0  0  0  0  0  0  0  0
    7.8640   -0.8420   21.3330 C   0  0  0  0  0  0  0  0  0  0  0  0
    8.4040    0.4460   21.0640 O   0  0  0  0  0  0  0  0  0  0  0  0
    6.6760   -1.2480   20.9100 N   0  0  0  0  0  0  0  0  0  0  0  0
    6.1570   -0.3810   20.0050 C   0  0  0  0  0  0  0  0  0  0  0  0
    4.8890    0.4590   20.1940 C   0  0  0  0  0  0  0  0  0  0  0  0
    4.5260    1.2860   19.1510 C   0  0  0  0  0  0  0  0  0  0  0  0
    5.2650    1.3640   17.9830 C   0  0  0  0  0  0  0  0  0  0  0  0
    6.3860    0.6820   17.7090 N   0  0  0  0  0  0  0  0  0  0  0  0
    6.8200   -0.2210   18.7950 C   0  0  0  0  0  0  0  0  0  0  0  0
    9.5860    0.0960   23.4280 C   0  0  0  0  0  0  0  0  0  0  0  0
   10.8440    0.7880   23.6760 C   0  0  0  0  0  0  0  0  0  0  0  0
   11.9820    4.9240   24.1410 N   0  0  0  0  0  0  0  0  0  0  0  0
  1  2  1  0
  2  3  2  0
  3  4  1  0
  4  5  1  0
  5  6  1  0
  6  7  1  0
  7  8  2  0
  7  9  1  0
  9 10  1  0
 10 11  2  0
 11 12  1  0
 12 13  2  0
 13 14  1  0
 14 15  1  0
 15 16  2  0
 15 17  1  0
 17 18  1  0
 18 19  2  0
 19 20  1  0
 20 21  2  0
 21 22  1  0
 18 23  1  0
 22 23  2  0
 13 24  1  0
 10 25  1  0
 24 25  2  0
  2 26  1  0
  5 26  2  0
M  END
