pyridine_urea_5217
     RDKit          3D

 19 20  0  0  0  0  0  0  0  0999 V2000
    8.9120    0.6940   21.3450 O   0  0  0  0  0  0  0  0  0  0  0  0
    8.3040   -0.3170   21.6710 C   0  0  0  0  0  0  0  0  0  0  0  0
    8.6570   -1.1470   22.7140 N   0  0  0  0  0  0  0  0  0  0  0  0
    9.3730   -0.7240   23.8570 C   0  0  0  0  0  0  0  0  0  0  0  0
    9.9620    0.5090   23.6760 C   0  0  0  0  0  0  0  0  0  0  0  0
   10.7940    1.6390   23.4170 C   0  0  0  0  0  0  0  0  0  0  0  0
   12.0990    1.7780   23.0080 C   0  0  0  0  0  0  0  0  0  0  0  0
   12.6630    3.5790   22.7590 Br  0  0  0  0  0  0  0  0  0  0  0  0
   12.9740    0.5990   22.7650 C   0  0  0  0  0  0  0  0  0  0  0  0
   12.3260   -0.5540   22.9750 C   0  0  0  0  0  0  0  0  0  0  0  0
   13.1370   -2.2160   22.7540 Br  0  0  0  0  0  0  0  0  0  0  0  0
   10.8820   -0.5420   23.4090 C   0  0  0  0  0  0  0  0  0  0  0  0
    7.1570   -0.7640   21.0520 N   0  0  0  0  0  0  0  0  0  0  0  0
    6.4270   -0.0480   20.0820 C   0  0  0  0  0  0  0  0  0  0  0  0
    5.2510    0.6570   20.3150 C   0  0  0  0  0  0  0  0  0  0  0  0
    4.6360    1.3340   19.2570 C   0  0  0  0  0  0  0  0  0  0  0  0
    5.2260    1.2820   17.9940 C   0  0  0  0  0  0  0  0  0  0  0  0
    6.3540    0.6050   17.7530 N   0  0  0  0  0  0  0  0  0  0  0  0
    6.9220   -0.0400   18.7890 C   0  0  0  0  0  0  0  0  0  0  0  0
  1  2  2  0
  2  3  1  0
  3  4  1  0
  4  5  1  0
  5  6  2  0
  6  7  1  0
  7  8  1  0
  7  9  2  0
  9 10  1  0
 10 11  1  0
  5 12  1  0
 10 12  2  0
  2 13  1  0
 13 14  1  0
 14 15  2  0
 15 16  1  0
 16 17  2  0
 17 18  1  0
 14 19  1  0
 18 19  2  0
M  END
