pyridine_urea_14771
     RDKit          3D

 20 22  0  0  0  0  0  0  0  0999 V2000
    8.6750    1.2490   21.0600 O   0  0  0  0  0  0  0  0  0  0  0  0
    8.4140    0.0560   21.2650 C   0  0  0  0  0  0  0  0  0  0  0  0
    7.1740   -0.4880   21.0330 N   0  0  0  0  0  0  0  0  0  0  0  0
    6.3900    0.1250   20.0560 C   0  0  0  0  0  0  0  0  0  0  0  0
    5.1850    0.7880   20.2570 C   0  0  0  0  0  0  0  0  0  0  0  0
    4.5420    1.3780   19.1690 C   0  0  0  0  0  0  0  0  0  0  0  0
    5.1320    1.2750   17.9260 C   0  0  0  0  0  0  0  0  0  0  0  0
    6.2860    0.6300   17.7070 N   0  0  0  0  0  0  0  0  0  0  0  0
    6.8780    0.0750   18.7670 C   0  0  0  0  0  0  0  0  0  0  0  0
    9.3300   -0.8690   21.6940 N   0  0  0  0  0  0  0  0  0  0  0  0
   10.3660   -0.5100   22.5650 C   0  0  0  0  0  0  0  0  0  0  0  0
   10.7510    0.8190   22.7280 C   0  0  0  0  0  0  0  0  0  0  0  0
    9.7780    1.8240   22.8450 C   0  0  0  0  0  0  0  0  0  0  0  0
   10.1440    3.1590   22.9820 C   0  0  0  0  0  0  0  0  0  0  0  0
   11.4860    3.5210   23.0050 C   0  0  0  0  0  0  0  0  0  0  0  0
   12.5190    2.4650   22.8880 C   0  0  0  0  0  0  0  0  0  0  0  0
   12.1080    1.1370   22.7590 C   0  0  0  0  0  0  0  0  0  0  0  0
   13.2720   -0.1130   22.6320 Cl  0  0  0  0  0  0  0  0  0  0  0  0
   11.4460   -1.4130   23.0660 C   0  0  0  0  0  0  0  0  0  0  0  0
   10.4790   -1.3940   23.8480 C   0  0  0  0  0  0  0  0  0  0  0  0
  1  2  2  0
  2  3  1  0
  3  4  1  0
  4  5  2  0
  5  6  1  0
  6  7  2  0
  7  8  1  0
  4  9  1  0
  8  9  2  0
  2 10  1  0
 11 10  1  0
 11 12  1  0
 12 13  2  0
 13 14  1  0
 14 15  2  0
 15 16  1  0
 12 17  1  0
 16 17  2  0
 17 18  1  0
 11 19  1  0
 11 20  1  0
 19 20  1  0
M  END
