pyridine_urea_11039
     RDKit          3D

 19 20  0  0  0  0  0  0  0  0999 V2000
    8.0800   -5.4440   28.2150 C   0  0  0  0  0  0  0  0  0  0  0  0
    8.2890   -5.0310   26.8010 C   0  0  0  0  0  0  0  0  0  0  0  0
    9.1890   -5.8690   26.0550 N   0  0  0  0  0  0  0  0  0  0  0  0
    9.1740   -5.2330   24.8250 O   0  0  0  0  0  0  0  0  0  0  0  0
    8.3350   -4.1580   24.9220 C   0  0  0  0  0  0  0  0  0  0  0  0
    8.2720   -3.4630   23.7190 C   0  0  0  0  0  0  0  0  0  0  0  0
    9.4190   -2.6750   23.5930 C   0  0  0  0  0  0  0  0  0  0  0  0
    9.5710   -1.9440   22.2860 C   0  0  0  0  0  0  0  0  0  0  0  0
    9.0070   -0.7070   22.4570 N   0  0  0  0  0  0  0  0  0  0  0  0
    8.3570    0.0570   21.4750 C   0  0  0  0  0  0  0  0  0  0  0  0
    8.8450    1.3050   21.1350 O   0  0  0  0  0  0  0  0  0  0  0  0
    7.2660   -0.5810   20.9850 N   0  0  0  0  0  0  0  0  0  0  0  0
    6.5320    0.0690   20.0570 C   0  0  0  0  0  0  0  0  0  0  0  0
    5.3640    0.7990   20.3090 C   0  0  0  0  0  0  0  0  0  0  0  0
    4.6660    1.4530   19.2730 C   0  0  0  0  0  0  0  0  0  0  0  0
    5.1420    1.3760   17.9760 C   0  0  0  0  0  0  0  0  0  0  0  0
    6.3020    0.6420   17.7370 N   0  0  0  0  0  0  0  0  0  0  0  0
    6.9770    0.0000   18.7570 C   0  0  0  0  0  0  0  0  0  0  0  0
    7.7500   -3.9600   26.0950 N   0  0  0  0  0  0  0  0  0  0  0  0
  1  2  1  0
  2  3  2  0
  3  4  1  0
  4  5  1  0
  5  6  1  0
  6  7  1  0
  7  8  1  0
  8  9  1  0
  9 10  1  0
 10 11  2  0
 10 12  1  0
 12 13  1  0
 13 14  2  0
 14 15  1  0
 15 16  2  0
 16 17  1  0
 13 18  1  0
 17 18  2  0
  2 19  1  0
  5 19  2  0
M  END
