pyridine_urea_14408
     RDKit          3D

 22 23  0  0  0  0  0  0  0  0999 V2000
   13.4440   -2.5540   24.1090 C   0  0  0  0  0  0  0  0  0  0  0  0
   12.1920   -2.6900   23.4450 O   0  0  0  0  0  0  0  0  0  0  0  0
   11.1890   -2.8260   24.3330 C   0  0  0  0  0  0  0  0  0  0  0  0
    9.8400   -2.8030   23.9230 C   0  0  0  0  0  0  0  0  0  0  0  0
    9.5430   -2.6280   22.5960 C   0  0  0  0  0  0  0  0  0  0  0  0
   10.8010   -2.3210   22.0020 O   0  0  0  0  0  0  0  0  0  0  0  0
   11.2080   -1.0060   22.3420 C   0  0  0  0  0  0  0  0  0  0  0  0
   12.6970   -0.7700   22.3900 C   0  0  0  0  0  0  0  0  0  0  0  0
   13.1330    0.6230   22.7440 C   0  0  0  0  0  0  0  0  0  0  0  0
   12.0570    1.6430   23.0060 C   0  0  0  0  0  0  0  0  0  0  0  0
   10.7300    1.2740   22.9290 C   0  0  0  0  0  0  0  0  0  0  0  0
   10.2680    0.0090   22.6200 C   0  0  0  0  0  0  0  0  0  0  0  0
    8.9410   -0.2630   22.5800 N   0  0  0  0  0  0  0  0  0  0  0  0
    8.2190   -0.4940   21.4420 C   0  0  0  0  0  0  0  0  0  0  0  0
    8.6550   -1.0310   20.4970 O   0  0  0  0  0  0  0  0  0  0  0  0
    6.9250   -0.0750   21.4480 N   0  0  0  0  0  0  0  0  0  0  0  0
    6.2790    0.4060   20.2970 C   0  0  0  0  0  0  0  0  0  0  0  0
    5.1170    1.1420   20.2970 C   0  0  0  0  0  0  0  0  0  0  0  0
    4.5450    1.5940   19.1230 C   0  0  0  0  0  0  0  0  0  0  0  0
    5.1830    1.2790   17.9340 C   0  0  0  0  0  0  0  0  0  0  0  0
    6.3140    0.5580   17.8700 N   0  0  0  0  0  0  0  0  0  0  0  0
    6.8380    0.1350   19.0410 C   0  0  0  0  0  0  0  0  0  0  0  0
  1  2  1  0
  2  3  1  0
  3  4  1  0
  4  5  1  0
  5  6  1  0
  6  7  1  0
  7  8  2  0
  8  9  1  0
  9 10  2  0
 10 11  1  0
  7 12  1  0
 11 12  2  0
 12 13  1  0
 13 14  1  0
 14 15  2  0
 14 16  1  0
 16 17  1  0
 17 18  2  0
 18 19  1  0
 19 20  2  0
 20 21  1  0
 17 22  1  0
 21 22  2  0
M  END
