pyridine_urea_11600
     RDKit          3D

 30 33  0  0  0  0  0  0  0  0999 V2000
   12.7380    3.3670   22.6900 C   0  0  0  0  0  0  0  0  0  0  0  0
   11.6720    3.0140   23.4680 N   0  0  0  0  0  0  0  0  0  0  0  0
   10.3970    3.5740   23.4130 C   0  0  0  0  0  0  0  0  0  0  0  0
   10.0110    4.9580   23.5420 O   0  0  0  0  0  0  0  0  0  0  0  0
    9.4790    2.5790   23.2080 C   0  0  0  0  0  0  0  0  0  0  0  0
   10.1800    1.3790   23.1070 C   0  0  2  0  0  0  0  0  0  0  0  0
    9.4740    0.2690   23.4800 C   0  0  0  0  0  0  0  0  0  0  0  0
    8.9800   -0.5180   22.5090 N   0  0  0  0  0  0  0  0  0  0  0  0
    8.4030    0.1560   21.4970 C   0  0  0  0  0  0  0  0  0  0  0  0
    8.8020    1.2470   21.0730 O   0  0  0  0  0  0  0  0  0  0  0  0
    7.2940   -0.4990   21.0130 N   0  0  0  0  0  0  0  0  0  0  0  0
    6.5150    0.1080   19.9700 C   0  0  0  0  0  0  0  0  0  0  0  0
    5.2390    0.8660   20.3330 C   0  0  0  0  0  0  0  0  0  0  0  0
    4.5770    1.4400   19.2680 C   0  0  0  0  0  0  0  0  0  0  0  0
    5.0980    1.2950   17.9790 C   0  0  0  0  0  0  0  0  0  0  0  0
    6.2210    0.6130   17.6750 N   0  0  0  0  0  0  0  0  0  0  0  0
    6.9110    0.0300   18.6690 C   0  0  0  0  0  0  0  0  0  0  0  0
   11.4710    1.5560   23.6310 C   0  0  1  0  0  0  0  0  0  0  0  0
   12.4330    0.8330   22.9720 C   0  0  0  0  0  0  0  0  0  0  0  0
   13.1250   -0.4190   22.4780 C   0  0  0  0  0  0  0  0  0  0  0  0
   12.7910   -1.6990   22.6680 N   0  0  0  0  0  0  0  0  0  0  0  0
   11.7670   -1.4800   23.3600 N   0  0  0  0  0  0  0  0  0  0  0  0
   10.9850   -2.5750   23.8470 C   0  0  0  0  0  0  0  0  0  0  0  0
    9.6080   -2.3030   23.9600 C   0  0  0  0  0  0  0  0  0  0  0  0
    9.1190   -1.2610   24.7960 C   0  0  0  0  0  0  0  0  0  0  0  0
    7.7370   -1.0020   24.9110 C   0  0  0  0  0  0  0  0  0  0  0  0
    6.8620   -1.7900   24.1840 C   0  0  0  0  0  0  0  0  0  0  0  0
    7.3040   -2.8010   23.3680 C   0  0  0  0  0  0  0  0  0  0  0  0
    8.6540   -3.0640   23.2490 C   0  0  0  0  0  0  0  0  0  0  0  0
   11.5480   -0.1480   23.5460 C   0  0  0  0  0  0  0  0  0  0  0  0
  1  2  1  0
  2  3  1  0
  3  4  2  0
  3  5  1  0
  5  6  1  0
  6  7  1  1
  7  8  1  0
  8  9  1  0
  9 10  2  0
  9 11  1  0
 11 12  1  0
 12 13  2  0
 13 14  1  0
 14 15  2  0
 15 16  1  0
 12 17  1  0
 16 17  2  0
  2 18  1  0
  6 18  1  0
 18 19  1  6
 19 20  1  0
 20 21  2  0
 21 22  1  0
 22 23  1  0
 23 24  1  0
 24 25  2  0
 25 26  1  0
 26 27  2  0
 27 28  1  0
 24 29  1  0
 28 29  2  0
 19 30  2  0
 22 30  1  0
M  END
