pyridine_urea_10790
     RDKit          3D

 20 21  0  0  0  0  0  0  0  0999 V2000
   13.1620   -2.5160   20.9220 N   0  0  0  0  0  0  0  0  0  0  0  0
   13.6120   -1.3710   21.4680 C   0  0  0  0  0  0  0  0  0  0  0  0
   12.6480   -0.7130   22.3330 C   0  0  0  0  0  0  0  0  0  0  0  0
   12.7490    0.4210   23.0650 C   0  0  0  0  0  0  0  0  0  0  0  0
   11.5970    0.8420   23.8290 C   0  0  0  0  0  0  0  0  0  0  0  0
   10.2230    0.2910   24.0240 C   0  0  0  0  0  0  0  0  0  0  0  0
    9.0610   -0.6390   23.8740 C   0  0  0  0  0  0  0  0  0  0  0  0
    8.1330   -0.0140   23.0620 N   0  0  0  0  0  0  0  0  0  0  0  0
    8.1990    0.2950   21.6760 C   0  0  0  0  0  0  0  0  0  0  0  0
    8.8840    1.2130   21.1980 O   0  0  0  0  0  0  0  0  0  0  0  0
    7.3800   -0.5310   20.9840 N   0  0  0  0  0  0  0  0  0  0  0  0
    6.6080    0.0870   20.0630 C   0  0  0  0  0  0  0  0  0  0  0  0
    5.4430    0.8200   20.3220 C   0  0  0  0  0  0  0  0  0  0  0  0
    4.7090    1.4490   19.2900 C   0  0  0  0  0  0  0  0  0  0  0  0
    5.1490    1.3420   17.9780 C   0  0  0  0  0  0  0  0  0  0  0  0
    6.2990    0.6060   17.7290 N   0  0  0  0  0  0  0  0  0  0  0  0
    6.9990   -0.0040   18.7510 C   0  0  0  0  0  0  0  0  0  0  0  0
   10.3340   -0.9860   23.1160 C   0  0  0  0  0  0  0  0  0  0  0  0
   11.4710   -1.1460   22.5310 C   0  0  0  0  0  0  0  0  0  0  0  0
   11.5920   -0.0160   23.2530 F   0  0  0  0  0  0  0  0  0  0  0  0
  1  2  3  0
  2  3  1  0
  3  4  2  0
  4  5  1  0
  5  6  2  0
  6  7  1  0
  7  8  1  0
  8  9  1  0
  9 10  2  0
  9 11  1  0
 11 12  1  0
 12 13  2  0
 13 14  1  0
 14 15  2  0
 15 16  1  0
 12 17  1  0
 16 17  2  0
  6 18  1  0
  3 19  1  0
 18 19  2  0
 19 20  1  0
M  END
