pyridine_urea_13848
     RDKit          3D

 24 26  0  0  0  0  0  0  0  0999 V2000
   13.5700   -2.3030   24.1530 C   0  0  0  0  0  0  0  0  0  0  0  0
   13.5600   -0.9550   23.6350 O   0  0  0  0  0  0  0  0  0  0  0  0
   12.8790   -0.7510   22.3770 C   0  0  0  0  0  0  0  0  0  0  0  0
   13.3080   -1.1700   21.3040 O   0  0  0  0  0  0  0  0  0  0  0  0
   11.5700    0.0510   22.6810 C   0  0  0  0  0  0  0  0  0  0  0  0
   11.4240   -1.3790   22.9170 C   0  0  0  0  0  0  0  0  0  0  0  0
   10.3670   -2.0810   23.3730 C   0  0  0  0  0  0  0  0  0  0  0  0
    8.9350   -1.9450   23.8540 C   0  0  0  0  0  0  0  0  0  0  0  0
    9.1210   -0.5190   23.5850 C   0  0  0  0  0  0  0  0  0  0  0  0
   10.1590    0.3380   23.1020 C   0  0  0  0  0  0  0  0  0  0  0  0
   10.3730   -0.7810   23.0450 C   0  0  2  0  0  0  0  0  0  0  0  0
   10.1790   -0.2420   21.7050 N   0  0  0  0  0  0  0  0  0  0  0  0
    8.9830    0.4630   21.4090 C   0  0  0  0  0  0  0  0  0  0  0  0
    8.9700    1.7390   21.3680 O   0  0  0  0  0  0  0  0  0  0  0  0
    7.8580   -0.3000   21.0970 N   0  0  0  0  0  0  0  0  0  0  0  0
    6.9440    0.1190   20.0820 C   0  0  0  0  0  0  0  0  0  0  0  0
    5.8320    0.8820   20.4210 C   0  0  0  0  0  0  0  0  0  0  0  0
    4.6840    1.5020   19.6050 C   0  0  0  0  0  0  0  0  0  0  0  0
    5.1740    1.0000   18.2570 C   0  0  0  0  0  0  0  0  0  0  0  0
    6.2190    0.2640   17.8560 N   0  0  0  0  0  0  0  0  0  0  0  0
    7.0860   -0.1710   18.7670 C   0  0  0  0  0  0  0  0  0  0  0  0
   11.2360   -1.4470   23.8710 C   0  0  0  0  0  0  0  0  0  0  0  0
   10.9850   -2.8420   23.6710 C   0  0  0  0  0  0  0  0  0  0  0  0
    9.7220   -3.1650   23.7610 O   0  0  0  0  0  0  0  0  0  0  0  0
  1  2  1  0
  2  3  1  0
  3  4  2  0
  3  5  1  0
  5  6  2  0
  6  7  1  0
  7  8  2  0
  8  9  1  0
  5 10  1  0
  9 10  2  0
  9 11  1  0
 11 12  1  6
 12 13  1  0
 13 14  2  0
 13 15  1  0
 15 16  1  0
 16 17  2  0
 17 18  1  0
 18 19  2  0
 19 20  1  0
 16 21  1  0
 20 21  2  0
 11 22  1  0
 22 23  1  0
  8 24  1  0
 23 24  1  0
M  END
