pyridine_urea_1035
     RDKit          3D

 22 24  0  0  0  0  0  0  0  0999 V2000
    8.8970    1.4180   21.1520 O   0  0  0  0  0  0  0  0  0  0  0  0
    8.2050    0.5080   21.6210 C   0  0  0  0  0  0  0  0  0  0  0  0
    8.3010    0.0990   22.9980 N   0  0  0  0  0  0  0  0  0  0  0  0
    9.4610   -0.5040   23.3880 C   0  0  0  0  0  0  0  0  0  0  0  0
   10.5930    0.2440   23.3710 C   0  0  0  0  0  0  0  0  0  0  0  0
   11.9270    0.7530   23.1970 C   0  0  0  0  0  0  0  0  0  0  0  0
   13.0760    0.2130   22.6470 C   0  0  0  0  0  0  0  0  0  0  0  0
   13.1920   -1.1170   22.0510 C   0  0  0  0  0  0  0  0  0  0  0  0
   11.8790   -1.7630   22.1620 C   0  0  0  0  0  0  0  0  0  0  0  0
   10.7120   -1.0650   22.7980 C   0  0  0  0  0  0  0  0  0  0  0  0
    9.5370   -1.9710   22.7860 N   0  0  0  0  0  0  0  0  0  0  0  0
    8.6060   -2.1910   21.7980 C   0  0  0  0  0  0  0  0  0  0  0  0
    7.6780   -3.1100   22.2340 C   0  0  0  0  0  0  0  0  0  0  0  0
    8.0550   -3.4530   23.4900 C   0  0  0  0  0  0  0  0  0  0  0  0
    9.1630   -2.8050   23.8820 N   0  0  0  0  0  0  0  0  0  0  0  0
    7.2510   -0.2300   20.9810 N   0  0  0  0  0  0  0  0  0  0  0  0
    6.4740    0.3160   19.9860 C   0  0  0  0  0  0  0  0  0  0  0  0
    5.3110    1.0280   20.1780 C   0  0  0  0  0  0  0  0  0  0  0  0
    4.6080    1.5670   19.1230 C   0  0  0  0  0  0  0  0  0  0  0  0
    5.1430    1.3490   17.8690 C   0  0  0  0  0  0  0  0  0  0  0  0
    6.2580    0.6560   17.6180 N   0  0  0  0  0  0  0  0  0  0  0  0
    6.8940    0.1550   18.6860 C   0  0  0  0  0  0  0  0  0  0  0  0
  1  2  2  0
  2  3  1  0
  3  4  1  0
  4  5  1  0
  5  6  2  0
  6  7  1  0
  7  8  2  0
  8  9  1  0
  5 10  1  0
  9 10  2  0
 10 11  1  0
 11 12  1  0
 12 13  2  0
 13 14  1  0
 11 15  1  0
 14 15  2  0
  2 16  1  0
 16 17  1  0
 17 18  2  0
 18 19  1  0
 19 20  2  0
 20 21  1  0
 17 22  1  0
 21 22  2  0
M  END
