pyridine_urea_428
     RDKit          3D

 25 27  0  0  0  0  0  0  0  0999 V2000
   10.3010   -3.0140   23.4950 C   0  0  0  0  0  0  0  0  0  0  0  0
    9.0640   -3.4370   23.9540 N   0  0  0  0  0  0  0  0  0  0  0  0
    8.1440   -4.3590   23.3880 C   0  0  0  0  0  0  0  0  0  0  0  0
    6.7680   -4.2700   23.6110 C   0  0  0  0  0  0  0  0  0  0  0  0
    6.1760   -3.0120   23.5680 N   0  0  0  0  0  0  0  0  0  0  0  0
    4.8100   -2.7770   23.1140 C   0  0  0  0  0  0  0  0  0  0  0  0
    3.9680   -3.8060   23.4810 C   0  0  0  0  0  0  0  0  0  0  0  0
    4.0420   -5.0610   22.9040 C   0  0  0  0  0  0  0  0  0  0  0  0
    3.1150   -6.2090   23.2940 C   0  0  0  0  0  0  0  0  0  0  0  0
    2.1630   -5.9510   24.2770 C   0  0  0  0  0  0  0  0  0  0  0  0
    2.0990   -4.6680   24.8600 C   0  0  0  0  0  0  0  0  0  0  0  0
    2.9770   -3.6450   24.4650 C   0  0  0  0  0  0  0  0  0  0  0  0
    7.1490   -2.0380   23.2630 C   0  0  1  0  0  0  0  0  0  0  0  0
    7.0620   -0.5640   23.2800 C   0  0  0  0  0  0  0  0  0  0  0  0
    8.1950    0.0750   22.8840 N   0  0  0  0  0  0  0  0  0  0  0  0
    8.2360    0.4300   21.5830 C   0  0  0  0  0  0  0  0  0  0  0  0
    8.8950    1.3850   21.1580 O   0  0  0  0  0  0  0  0  0  0  0  0
    7.4550   -0.4040   20.8780 N   0  0  0  0  0  0  0  0  0  0  0  0
    6.6010    0.2240   19.9720 C   0  0  0  0  0  0  0  0  0  0  0  0
    5.4510    0.9430   20.2970 C   0  0  0  0  0  0  0  0  0  0  0  0
    4.7210    1.5260   19.2680 C   0  0  0  0  0  0  0  0  0  0  0  0
    5.1510    1.3750   17.9680 C   0  0  0  0  0  0  0  0  0  0  0  0
    6.2430    0.6810   17.6360 N   0  0  0  0  0  0  0  0  0  0  0  0
    6.9380    0.1240   18.6460 C   0  0  0  0  0  0  0  0  0  0  0  0
    8.2730   -2.2790   24.2760 C   0  0  0  0  0  0  0  0  0  0  0  0
  1  2  1  0
  2  3  1  0
  3  4  1  0
  4  5  1  0
  5  6  1  0
  6  7  1  0
  7  8  2  0
  8  9  1  0
  9 10  2  0
 10 11  1  0
  7 12  1  0
 11 12  2  0
  5 13  1  0
 13 14  1  1
 14 15  1  0
 15 16  1  0
 16 17  2  0
 16 18  1  0
 18 19  1  0
 19 20  2  0
 20 21  1  0
 21 22  2  0
 22 23  1  0
 19 24  1  0
 23 24  2  0
  2 25  1  0
 13 25  1  0
M  END
