pyridine_urea_744
     RDKit          3D

 23 25  0  0  0  0  0  0  0  0999 V2000
   13.2190    0.2340   22.3370 C   0  0  0  0  0  0  0  0  0  0  0  0
   12.3460   -0.6560   23.0820 C   0  0  2  0  0  0  0  0  0  0  0  0
   11.3350   -1.3100   22.3570 C   0  0  0  0  0  0  0  0  0  0  0  0
   10.1900   -0.5740   22.0720 C   0  0  1  0  0  0  0  0  0  0  0  0
    8.9170   -1.2370   22.0390 N   0  0  0  0  0  0  0  0  0  0  0  0
    8.0320   -0.4210   21.3600 C   0  0  0  0  0  0  0  0  0  0  0  0
    8.3590    0.7420   21.1000 O   0  0  0  0  0  0  0  0  0  0  0  0
    6.8610   -0.9400   20.9950 N   0  0  0  0  0  0  0  0  0  0  0  0
    6.3350   -0.2150   19.9940 C   0  0  0  0  0  0  0  0  0  0  0  0
    5.0530    0.6130   20.1550 C   0  0  0  0  0  0  0  0  0  0  0  0
    4.4930    1.3820   19.1410 C   0  0  0  0  0  0  0  0  0  0  0  0
    5.1700    1.3750   17.9150 C   0  0  0  0  0  0  0  0  0  0  0  0
    6.3200    0.6380   17.7440 N   0  0  0  0  0  0  0  0  0  0  0  0
    6.9070   -0.1490   18.7450 C   0  0  0  0  0  0  0  0  0  0  0  0
   10.0500    0.5770   23.0060 C   0  0  0  0  0  0  0  0  0  0  0  0
   10.6340    0.3230   24.2850 C   0  0  1  0  0  0  0  0  0  0  0  0
    9.8240   -0.5860   25.0240 C   0  0  0  0  0  0  0  0  0  0  0  0
    9.4510   -0.2800   26.3350 C   0  0  0  0  0  0  0  0  0  0  0  0
    8.6430   -1.0940   27.1050 C   0  0  0  0  0  0  0  0  0  0  0  0
    8.1600   -2.2800   26.5840 C   0  0  0  0  0  0  0  0  0  0  0  0
    8.5000   -2.6420   25.2810 C   0  0  0  0  0  0  0  0  0  0  0  0
    9.3190   -1.8150   24.5030 C   0  0  0  0  0  0  0  0  0  0  0  0
   11.9960    0.1790   24.1420 C   0  0  0  0  0  0  0  0  0  0  0  0
  2  1  1  6
  2  3  1  0
  3  4  1  0
  4  5  1  1
  5  6  1  0
  6  7  2  0
  6  8  1  0
  8  9  1  0
  9 10  2  0
 10 11  1  0
 11 12  2  0
 12 13  1  0
  9 14  1  0
 13 14  2  0
  4 15  1  0
 15 16  1  0
 16 17  1  6
 17 18  2  0
 18 19  1  0
 19 20  2  0
 20 21  1  0
 17 22  1  0
 21 22  2  0
  2 23  1  0
 16 23  1  0
M  END
