pyridine_urea_735
     RDKit          3D

 23 25  0  0  0  0  0  0  0  0999 V2000
    3.7150    1.4650   21.8350 C   0  0  0  0  0  0  0  0  0  0  0  0
    4.8070    1.1120   20.8350 C   0  0  0  0  0  0  0  0  0  0  0  0
    5.6800    0.1440   21.1390 C   0  0  0  0  0  0  0  0  0  0  0  0
    6.6650   -0.1780   20.2730 C   0  0  0  0  0  0  0  0  0  0  0  0
    7.6010   -1.1770   20.6960 N   0  0  0  0  0  0  0  0  0  0  0  0
    8.6010   -0.5460   21.4300 C   0  0  0  0  0  0  0  0  0  0  0  0
    8.8120    0.6520   21.2490 O   0  0  0  0  0  0  0  0  0  0  0  0
    9.2950   -1.2690   22.3160 N   0  0  0  0  0  0  0  0  0  0  0  0
   10.4950   -0.6990   22.5050 C   0  0  0  0  0  0  0  0  0  0  0  0
   11.7980   -1.4960   22.3520 C   0  0  0  0  0  0  0  0  0  0  0  0
   13.0150   -0.8840   22.5370 C   0  0  0  0  0  0  0  0  0  0  0  0
   13.0720    0.4630   22.8590 C   0  0  0  0  0  0  0  0  0  0  0  0
   11.9380    1.2090   23.0020 N   0  0  0  0  0  0  0  0  0  0  0  0
   10.6520    0.6490   22.8380 C   0  0  0  0  0  0  0  0  0  0  0  0
    6.7830    0.5130   18.9310 C   0  0  0  0  0  0  0  0  0  0  0  0
    5.8680    1.4850   18.6670 N   0  0  0  0  0  0  0  0  0  0  0  0
    4.9120    1.7860   19.6340 C   0  0  0  0  0  0  0  0  0  0  0  0
    4.0000    2.7690   19.5180 N   0  0  0  0  0  0  0  0  0  0  0  0
    4.2500    3.7580   20.4060 C   0  0  0  0  0  0  0  0  0  0  0  0
    3.1850    4.6560   20.5720 C   0  0  0  0  0  0  0  0  0  0  0  0
    1.9390    4.0340   20.4100 C   0  0  0  0  0  0  0  0  0  0  0  0
    1.9180    3.2840   19.2360 C   0  0  0  0  0  0  0  0  0  0  0  0
    2.7290    2.1650   19.3520 C   0  0  0  0  0  0  0  0  0  0  0  0
  1  2  1  0
  2  3  2  0
  3  4  1  0
  4  5  1  0
  5  6  1  0
  6  7  2  0
  6  8  1  0
  8  9  1  0
  9 10  2  0
 10 11  1  0
 11 12  2  0
 12 13  1  0
  9 14  1  0
 13 14  2  0
  4 15  2  0
 15 16  1  0
  2 17  1  0
 16 17  2  0
 17 18  1  0
 18 19  1  0
 19 20  1  0
 20 21  1  0
 21 22  1  0
 18 23  1  0
 22 23  1  0
M  END
