pyridine_urea_9729
     RDKit          3D

 27 30  0  0  0  0  0  0  0  0999 V2000
    8.6890    1.5530   21.0810 O   0  0  0  0  0  0  0  0  0  0  0  0
    8.1980    0.5710   21.6350 C   0  0  0  0  0  0  0  0  0  0  0  0
    8.6790    0.1110   22.8210 N   0  0  0  0  0  0  0  0  0  0  0  0
    9.9640   -0.3880   22.5520 C   0  0  0  0  0  0  0  0  0  0  0  0
    9.9280   -1.5950   21.7380 C   0  0  0  0  0  0  0  0  0  0  0  0
   11.2010   -2.2010   21.3550 C   0  0  0  0  0  0  0  0  0  0  0  0
   12.4390   -1.6390   21.7740 C   0  0  0  0  0  0  0  0  0  0  0  0
   13.4840   -2.2430   21.4130 O   0  0  0  0  0  0  0  0  0  0  0  0
   13.4520   -1.4390   22.3820 C   0  0  0  0  0  0  0  0  0  0  0  0
   13.3420   -0.1030   22.0010 C   0  0  0  0  0  0  0  0  0  0  0  0
   13.1370    0.8980   22.8980 C   0  0  0  0  0  0  0  0  0  0  0  0
   13.1090    0.4620   24.1510 N   0  0  0  0  0  0  0  0  0  0  0  0
   13.3160   -0.8460   24.5450 C   0  0  0  0  0  0  0  0  0  0  0  0
   13.4380   -1.3920   25.6950 C   0  0  0  0  0  0  0  0  0  0  0  0
   13.6690   -2.6520   25.8440 C   0  0  0  0  0  0  0  0  0  0  0  0
   13.7660   -3.4650   24.9240 C   0  0  0  0  0  0  0  0  0  0  0  0
   13.6390   -2.9690   23.5810 C   0  0  0  0  0  0  0  0  0  0  0  0
   13.4470   -1.6930   23.6970 C   0  0  0  0  0  0  0  0  0  0  0  0
   12.3440   -0.3050   22.6790 C   0  0  0  0  0  0  0  0  0  0  0  0
   11.0910    0.2260   22.9970 C   0  0  0  0  0  0  0  0  0  0  0  0
    7.1480   -0.1610   21.1250 N   0  0  0  0  0  0  0  0  0  0  0  0
    6.4090    0.3070   20.1160 C   0  0  0  0  0  0  0  0  0  0  0  0
    5.2030    0.9920   20.2530 C   0  0  0  0  0  0  0  0  0  0  0  0
    4.5600    1.4480   19.1180 C   0  0  0  0  0  0  0  0  0  0  0  0
    5.1380    1.2090   17.8930 C   0  0  0  0  0  0  0  0  0  0  0  0
    6.2780    0.5480   17.7320 N   0  0  0  0  0  0  0  0  0  0  0  0
    6.8910    0.1070   18.8350 C   0  0  0  0  0  0  0  0  0  0  0  0
  1  2  2  0
  2  3  1  0
  3  4  1  0
  4  5  2  0
  5  6  1  0
  6  7  2  0
  7  8  1  0
  8  9  1  0
  9 10  2  0
 10 11  1  0
 11 12  2  0
 12 13  1  0
 13 14  1  0
 14 15  2  0
 15 16  1  0
 16 17  2  0
  9 18  1  0
 13 18  2  0
 17 18  1  0
  7 19  1  0
  4 20  1  0
 19 20  2  0
  2 21  1  0
 21 22  1  0
 22 23  2  0
 23 24  1  0
 24 25  2  0
 25 26  1  0
 22 27  1  0
 26 27  2  0
M  END
