pyridine_urea_1768
     RDKit          3D

 17 18  0  0  0  0  0  0  0  0999 V2000
   13.4720   -2.5910   25.1150 C   0  0  0  0  0  0  0  0  0  0  0  0
   12.6300   -2.3830   23.9010 C   0  0  0  0  0  0  0  0  0  0  0  0
   11.1670   -2.3910   23.9940 N   0  0  0  0  0  0  0  0  0  0  0  0
   10.7780   -2.1850   22.7370 C   0  0  0  0  0  0  0  0  0  0  0  0
    9.5030   -2.0920   22.2060 C   0  0  0  0  0  0  0  0  0  0  0  0
    9.1040   -0.7930   22.4710 N   0  0  0  0  0  0  0  0  0  0  0  0
    8.5090    0.0900   21.5490 C   0  0  0  0  0  0  0  0  0  0  0  0
    8.9980    1.1880   21.2540 O   0  0  0  0  0  0  0  0  0  0  0  0
    7.3380   -0.4460   21.0650 N   0  0  0  0  0  0  0  0  0  0  0  0
    6.5810    0.1370   20.0520 C   0  0  0  0  0  0  0  0  0  0  0  0
    5.4320    0.8390   20.3810 C   0  0  0  0  0  0  0  0  0  0  0  0
    4.6310    1.4840   19.2570 C   0  0  0  0  0  0  0  0  0  0  0  0
    5.1070    1.3210   17.9870 C   0  0  0  0  0  0  0  0  0  0  0  0
    6.2330    0.6180   17.6900 N   0  0  0  0  0  0  0  0  0  0  0  0
    6.9140    0.0620   18.7090 C   0  0  0  0  0  0  0  0  0  0  0  0
   12.0850   -2.0710   21.9960 C   0  0  0  0  0  0  0  0  0  0  0  0
   13.1930   -2.2010   22.7770 O   0  0  0  0  0  0  0  0  0  0  0  0
  1  2  1  0
  2  3  2  0
  3  4  1  0
  4  5  1  0
  5  6  1  0
  6  7  1  0
  7  8  2  0
  7  9  1  0
  9 10  1  0
 10 11  2  0
 11 12  1  0
 12 13  2  0
 13 14  1  0
 10 15  1  0
 14 15  2  0
  4 16  2  0
  2 17  1  0
 16 17  1  0
M  END
