pyridine_urea_3802
     RDKit          3D

 21 22  0  0  0  0  0  0  0  0999 V2000
   12.3800   -2.9680   24.7660 C   0  0  0  0  0  0  0  0  0  0  0  0
   13.6740   -2.2310   24.5470 C   0  0  0  0  0  0  0  0  0  0  0  0
   14.0510   -2.5200   23.2030 O   0  0  0  0  0  0  0  0  0  0  0  0
   13.3700   -1.7120   22.2670 C   0  0  0  0  0  0  0  0  0  0  0  0
   13.7760   -1.4570   20.9860 O   0  0  0  0  0  0  0  0  0  0  0  0
   12.1300   -1.1850   22.7680 C   0  0  1  0  0  0  0  0  0  0  0  0
   11.0290   -1.4720   21.8560 C   0  0  0  0  0  0  0  0  0  0  0  0
    9.8900   -0.5780   22.2200 C   0  0  1  0  0  0  0  0  0  0  0  0
    8.7130   -1.1340   21.6650 N   0  0  0  0  0  0  0  0  0  0  0  0
    7.9100   -0.1810   21.1900 C   0  0  0  0  0  0  0  0  0  0  0  0
    8.2980    0.9770   21.0560 O   0  0  0  0  0  0  0  0  0  0  0  0
    6.6120   -0.6980   20.8840 N   0  0  0  0  0  0  0  0  0  0  0  0
    6.0190    0.0560   19.9000 C   0  0  0  0  0  0  0  0  0  0  0  0
    4.8280    0.7610   20.0370 C   0  0  0  0  0  0  0  0  0  0  0  0
    4.4160    1.4710   18.9390 C   0  0  0  0  0  0  0  0  0  0  0  0
    5.1590    1.4640   17.7820 C   0  0  0  0  0  0  0  0  0  0  0  0
    6.3030    0.7920   17.6190 N   0  0  0  0  0  0  0  0  0  0  0  0
    6.6990    0.1020   18.6960 C   0  0  0  0  0  0  0  0  0  0  0  0
    9.7040   -0.6980   23.6970 C   0  0  0  0  0  0  0  0  0  0  0  0
   10.8340   -0.8350   24.4280 C   0  0  0  0  0  0  0  0  0  0  0  0
   11.6660   -1.7950   23.9200 O   0  0  0  0  0  0  0  0  0  0  0  0
  1  2  1  0
  2  3  1  0
  3  4  1  0
  4  5  2  0
  6  4  1  6
  6  7  1  0
  7  8  1  0
  8  9  1  6
  9 10  1  0
 10 11  2  0
 10 12  1  0
 12 13  1  0
 13 14  2  0
 14 15  1  0
 15 16  2  0
 16 17  1  0
 13 18  1  0
 17 18  2  0
  8 19  1  0
 19 20  1  0
  6 21  1  0
 20 21  1  0
M  END
