pyridine_urea_7196
     RDKit          3D

 19 20  0  0  0  0  0  0  0  0999 V2000
    8.7950    1.0750   21.1740 O   0  0  0  0  0  0  0  0  0  0  0  0
    8.1320    0.1070   21.5840 C   0  0  0  0  0  0  0  0  0  0  0  0
    8.3290   -0.5460   22.7640 N   0  0  0  0  0  0  0  0  0  0  0  0
    9.5590   -0.8010   23.3210 C   0  0  0  0  0  0  0  0  0  0  0  0
   10.5760    0.1060   23.1980 C   0  0  0  0  0  0  0  0  0  0  0  0
   10.9460   -1.2850   23.0840 C   0  0  0  0  0  0  0  0  0  0  0  0
   12.1870   -1.6660   22.8800 C   0  0  0  0  0  0  0  0  0  0  0  0
   12.2800    0.1780   22.9560 Br  0  0  0  0  0  0  0  0  0  0  0  0
   13.3950   -1.2550   22.7170 C   0  0  0  0  0  0  0  0  0  0  0  0
   13.1890    0.2270   22.8100 C   0  0  0  0  0  0  0  0  0  0  0  0
   11.9010    0.7590   23.0200 C   0  0  0  0  0  0  0  0  0  0  0  0
   11.9630    2.0050   23.0460 O   0  0  0  0  0  0  0  0  0  0  0  0
    7.0770   -0.4890   20.9690 N   0  0  0  0  0  0  0  0  0  0  0  0
    6.3660    0.1790   19.9010 C   0  0  0  0  0  0  0  0  0  0  0  0
    5.1850    0.8440   20.1840 C   0  0  0  0  0  0  0  0  0  0  0  0
    4.5460    1.4920   19.1390 C   0  0  0  0  0  0  0  0  0  0  0  0
    5.1660    1.4370   17.7930 C   0  0  0  0  0  0  0  0  0  0  0  0
    6.3120    0.7620   17.5940 N   0  0  0  0  0  0  0  0  0  0  0  0
    6.8780    0.1530   18.6360 C   0  0  0  0  0  0  0  0  0  0  0  0
  1  2  2  0
  2  3  1  0
  3  4  1  0
  4  5  1  0
  5  6  2  0
  6  7  1  0
  7  8  1  0
  7  9  2  0
  9 10  1  0
  5 11  1  0
 10 11  2  0
 11 12  1  0
  2 13  1  0
 13 14  1  0
 14 15  2  0
 15 16  1  0
 16 17  2  0
 17 18  1  0
 14 19  1  0
 18 19  2  0
M  END
