pyridine_urea_3984
     RDKit          3D

 28 30  0  0  0  0  0  0  0  0999 V2000
    9.6680    5.4500   27.0410 C   0  0  0  0  0  0  0  0  0  0  0  0
    8.5550    5.4330   26.0290 C   0  0  0  0  0  0  0  0  0  0  0  0
    8.6720    4.3190   25.0970 N   0  0  0  0  0  0  0  0  0  0  0  0
    8.3820    3.0200   25.4730 C   0  0  0  0  0  0  0  0  0  0  0  0
    8.5220    2.0070   24.5060 C   0  0  0  0  0  0  0  0  0  0  0  0
    9.6550    2.1280   23.7000 N   0  0  0  0  0  0  0  0  0  0  0  0
   10.5430    1.1240   23.2130 C   0  0  0  0  0  0  0  0  0  0  0  0
   11.9200    1.3820   23.2610 C   0  0  0  0  0  0  0  0  0  0  0  0
   12.8920    0.5280   22.8190 C   0  0  0  0  0  0  0  0  0  0  0  0
   12.3860   -0.7800   22.2260 C   0  0  0  0  0  0  0  0  0  0  0  0
   13.0190   -1.8160   21.6530 C   0  0  0  0  0  0  0  0  0  0  0  0
   13.8750   -1.5180   20.6870 F   0  0  0  0  0  0  0  0  0  0  0  0
   13.6100   -2.5890   22.5470 F   0  0  0  0  0  0  0  0  0  0  0  0
   12.1000   -2.5460   21.0460 F   0  0  0  0  0  0  0  0  0  0  0  0
   10.8980   -1.0680   22.1890 C   0  0  0  0  0  0  0  0  0  0  0  0
   10.0650   -0.1000   22.6870 C   0  0  0  0  0  0  0  0  0  0  0  0
    8.7470   -0.2780   22.6770 N   0  0  0  0  0  0  0  0  0  0  0  0
    8.1890    0.1470   21.5320 C   0  0  0  0  0  0  0  0  0  0  0  0
    8.5110    1.1880   20.9320 O   0  0  0  0  0  0  0  0  0  0  0  0
    7.2010   -0.6180   21.0230 N   0  0  0  0  0  0  0  0  0  0  0  0
    6.5170    0.0180   20.0620 C   0  0  0  0  0  0  0  0  0  0  0  0
    5.2500    0.7640   20.3180 C   0  0  0  0  0  0  0  0  0  0  0  0
    4.6170    1.4460   19.1140 C   0  0  0  0  0  0  0  0  0  0  0  0
    5.1820    1.3810   17.8430 C   0  0  0  0  0  0  0  0  0  0  0  0
    6.3110    0.6870   17.6870 N   0  0  0  0  0  0  0  0  0  0  0  0
    6.9420    0.0350   18.7560 C   0  0  0  0  0  0  0  0  0  0  0  0
    9.9600    3.4150   23.2920 C   0  0  0  0  0  0  0  0  0  0  0  0
    9.8980    4.3980   24.2750 C   0  0  0  0  0  0  0  0  0  0  0  0
  1  2  1  0
  2  3  1  0
  3  4  1  0
  4  5  1  0
  5  6  1  0
  6  7  1  0
  7  8  2  0
  8  9  1  0
  9 10  2  0
 10 11  1  0
 11 12  1  0
 11 13  1  0
 11 14  1  0
 10 15  1  0
  7 16  1  0
 15 16  2  0
 16 17  1  0
 17 18  1  0
 18 19  2  0
 18 20  1  0
 20 21  1  0
 21 22  2  0
 22 23  1  0
 23 24  2  0
 24 25  1  0
 21 26  1  0
 25 26  2  0
  6 27  1  0
  3 28  1  0
 27 28  1  0
M  END
