pyridine_urea_13433
     RDKit          3D

 19 20  0  0  0  0  0  0  0  0999 V2000
   12.4000   -0.5920   25.2040 C   0  0  0  0  0  0  0  0  0  0  0  0
   12.0670    0.0010   23.8510 C   0  0  0  0  0  0  0  0  0  0  0  0
   12.1320    1.5050   23.5990 C   0  0  0  0  0  0  0  0  0  0  0  0
   12.9990   -0.6800   22.8470 C   0  0  0  0  0  0  0  0  0  0  0  0
   12.3520   -1.8090   22.1670 C   0  0  0  0  0  0  0  0  0  0  0  0
   11.0000   -1.9390   22.3840 C   0  0  2  0  0  0  0  0  0  0  0  0
   10.2290   -0.9440   21.8830 C   0  0  0  0  0  0  0  0  0  0  0  0
    8.8490   -1.0260   22.2430 N   0  0  0  0  0  0  0  0  0  0  0  0
    8.1140   -0.0860   21.6060 C   0  0  0  0  0  0  0  0  0  0  0  0
    8.5330    1.0510   21.4090 O   0  0  0  0  0  0  0  0  0  0  0  0
    6.9050   -0.5570   21.1990 N   0  0  0  0  0  0  0  0  0  0  0  0
    6.3100    0.0600   20.1160 C   0  0  0  0  0  0  0  0  0  0  0  0
    5.1170    0.7710   20.2190 C   0  0  0  0  0  0  0  0  0  0  0  0
    4.5330    1.4170   19.1210 C   0  0  0  0  0  0  0  0  0  0  0  0
    5.1580    1.3560   17.8630 C   0  0  0  0  0  0  0  0  0  0  0  0
    6.2940    0.6930   17.6580 N   0  0  0  0  0  0  0  0  0  0  0  0
    6.8500    0.0760   18.7040 C   0  0  0  0  0  0  0  0  0  0  0  0
   10.7090   -1.7900   23.5390 O   0  0  0  0  0  0  0  0  0  0  0  0
   10.5960   -0.3590   23.7240 C   0  0  0  0  0  0  0  0  0  0  0  0
  2  1  1  0
  2  3  1  0
  2  4  1  0
  4  5  1  0
  5  6  1  0
  6  7  1  6
  7  8  1  0
  8  9  1  0
  9 10  2  0
  9 11  1  0
 11 12  1  0
 12 13  2  0
 13 14  1  0
 14 15  2  0
 15 16  1  0
 12 17  1  0
 16 17  2  0
  6 18  1  0
  2 19  1  0
 18 19  1  0
M  END
