pyridine_urea_1473
     RDKit          3D

 20 21  0  0  0  0  0  0  0  0999 V2000
   13.8200   -2.5040   25.0060 C   0  0  0  0  0  0  0  0  0  0  0  0
   13.8900   -1.4350   24.0640 O   0  0  0  0  0  0  0  0  0  0  0  0
   12.6690   -1.0700   23.7520 C   0  0  0  0  0  0  0  0  0  0  0  0
   12.0610   -1.5270   22.4570 C   0  0  0  0  0  0  0  0  0  0  0  0
   10.7730   -1.1950   22.1870 C   0  0  0  0  0  0  0  0  0  0  0  0
   10.0140   -0.4390   23.0740 C   0  0  0  0  0  0  0  0  0  0  0  0
    8.6580   -0.1960   22.6950 N   0  0  0  0  0  0  0  0  0  0  0  0
    8.3630    0.3660   21.5100 C   0  0  0  0  0  0  0  0  0  0  0  0
    8.9420    1.3700   21.0890 O   0  0  0  0  0  0  0  0  0  0  0  0
    7.3460   -0.3400   20.9280 N   0  0  0  0  0  0  0  0  0  0  0  0
    6.5550    0.2430   19.9690 C   0  0  0  0  0  0  0  0  0  0  0  0
    5.3890    0.9780   20.1780 C   0  0  0  0  0  0  0  0  0  0  0  0
    4.6730    1.5560   19.1600 C   0  0  0  0  0  0  0  0  0  0  0  0
    5.0990    1.4230   17.8580 C   0  0  0  0  0  0  0  0  0  0  0  0
    6.2310    0.6930   17.6160 N   0  0  0  0  0  0  0  0  0  0  0  0
    6.9480    0.1100   18.6560 C   0  0  0  0  0  0  0  0  0  0  0  0
   10.5500    0.0350   24.2720 C   0  0  0  0  0  0  0  0  0  0  0  0
    9.6610    0.8150   25.0690 O   0  0  0  0  0  0  0  0  0  0  0  0
    8.9980    0.0460   26.0630 C   0  0  0  0  0  0  0  0  0  0  0  0
   11.9650   -0.3040   24.6390 C   0  0  0  0  0  0  0  0  0  0  0  0
  1  2  1  0
  2  3  1  0
  3  4  2  0
  4  5  1  0
  5  6  2  0
  6  7  1  0
  7  8  1  0
  8  9  2  0
  8 10  1  0
 10 11  1  0
 11 12  2  0
 12 13  1  0
 13 14  2  0
 14 15  1  0
 11 16  1  0
 15 16  2  0
  6 17  1  0
 17 18  1  0
 18 19  1  0
  3 20  1  0
 17 20  2  0
M  END
