pyridine_urea_2582
     RDKit          3D

 23 24  0  0  0  0  0  0  0  0999 V2000
   11.4740    3.7980   22.8570 C   0  0  0  0  0  0  0  0  0  0  0  0
   11.1410    3.0920   23.8170 O   0  0  0  0  0  0  0  0  0  0  0  0
   10.9460    1.7780   23.5230 C   0  0  0  0  0  0  0  0  0  0  0  0
   12.3280    1.6270   23.2510 C   0  0  0  0  0  0  0  0  0  0  0  0
   13.0880    0.4070   22.8070 C   0  0  0  0  0  0  0  0  0  0  0  0
   12.6240   -0.9930   22.5270 C   0  0  0  0  0  0  0  0  0  0  0  0
   11.4430   -0.4920   22.8650 C   0  0  0  0  0  0  0  0  0  0  0  0
   10.1690   -1.0490   22.9690 C   0  0  2  0  0  0  0  0  0  0  0  0
    9.4340   -0.9880   21.6920 N   0  0  0  0  0  0  0  0  0  0  0  0
    8.5640    0.0220   21.3850 C   0  0  0  0  0  0  0  0  0  0  0  0
    8.9570    1.4080   21.2300 O   0  0  0  0  0  0  0  0  0  0  0  0
    7.2780   -0.4090   21.1820 N   0  0  0  0  0  0  0  0  0  0  0  0
    6.5440    0.1380   20.1370 C   0  0  0  0  0  0  0  0  0  0  0  0
    5.3720    0.8660   20.3200 C   0  0  0  0  0  0  0  0  0  0  0  0
    4.6310    1.4450   19.3050 C   0  0  0  0  0  0  0  0  0  0  0  0
    5.0900    1.2880   18.0090 C   0  0  0  0  0  0  0  0  0  0  0  0
    6.1950    0.6030   17.6790 N   0  0  0  0  0  0  0  0  0  0  0  0
    6.9110    0.0400   18.6690 C   0  0  0  0  0  0  0  0  0  0  0  0
    9.3980   -0.4720   24.1920 C   0  0  0  0  0  0  0  0  0  0  0  0
   10.2230   -0.1730   25.2220 F   0  0  0  0  0  0  0  0  0  0  0  0
    8.4880   -1.3550   24.6910 F   0  0  0  0  0  0  0  0  0  0  0  0
    8.7140    0.6560   23.8730 F   0  0  0  0  0  0  0  0  0  0  0  0
   11.6480    0.7050   23.1300 N   0  0  0  0  0  0  0  0  0  0  0  0
  1  2  1  0
  2  3  1  0
  3  4  2  0
  4  5  1  0
  5  6  2  0
  6  7  1  0
  7  8  1  0
  8  9  1  6
  9 10  1  0
 10 11  2  0
 10 12  1  0
 12 13  1  0
 13 14  2  0
 14 15  1  0
 15 16  2  0
 16 17  1  0
 13 18  1  0
 17 18  2  0
  8 19  1  0
 19 20  1  0
 19 21  1  0
 19 22  1  0
  3 23  1  0
  7 23  2  0
M  END
