pyridine_urea_1551
     RDKit          3D

 19 20  0  0  0  0  0  0  0  0999 V2000
   12.1790    0.1640   24.4010 C   0  0  0  0  0  0  0  0  0  0  0  0
   11.0000   -0.2510   23.6090 C   0  0  0  0  0  0  0  0  0  0  0  0
   10.0970   -0.9040   22.7700 C   0  0  0  0  0  0  0  0  0  0  0  0
    8.8330   -0.3430   22.6230 N   0  0  0  0  0  0  0  0  0  0  0  0
    8.3730    0.3410   21.5410 C   0  0  0  0  0  0  0  0  0  0  0  0
    8.8580    1.3940   21.1180 O   0  0  0  0  0  0  0  0  0  0  0  0
    7.2760   -0.3130   21.0170 N   0  0  0  0  0  0  0  0  0  0  0  0
    6.5270    0.2410   19.9940 C   0  0  0  0  0  0  0  0  0  0  0  0
    5.3610    0.9460   20.3300 C   0  0  0  0  0  0  0  0  0  0  0  0
    4.6260    1.5240   19.3120 C   0  0  0  0  0  0  0  0  0  0  0  0
    5.1500    1.3430   17.8980 C   0  0  0  0  0  0  0  0  0  0  0  0
    6.2500    0.6580   17.6170 N   0  0  0  0  0  0  0  0  0  0  0  0
    6.9040    0.1280   18.6670 C   0  0  0  0  0  0  0  0  0  0  0  0
   10.4290   -2.0310   22.1270 C   0  0  0  0  0  0  0  0  0  0  0  0
   11.6040   -2.3670   22.4260 N   0  0  0  0  0  0  0  0  0  0  0  0
   11.9010   -1.3450   23.2760 N   0  0  0  0  0  0  0  0  0  0  0  0
   13.2300   -1.5000   23.8060 C   0  0  0  0  0  0  0  0  0  0  0  0
   13.2180   -1.7740   25.1190 F   0  0  0  0  0  0  0  0  0  0  0  0
   13.7910   -2.5870   23.2310 F   0  0  0  0  0  0  0  0  0  0  0  0
  1  2  1  0
  2  3  2  0
  3  4  1  0
  4  5  1  0
  5  6  2  0
  5  7  1  0
  7  8  1  0
  8  9  2  0
  9 10  1  0
 10 11  2  0
 11 12  1  0
  8 13  1  0
 12 13  2  0
  3 14  1  0
 14 15  2  0
  2 16  1  0
 15 16  1  0
 16 17  1  0
 17 18  1  0
 17 19  1  0
M  END
