pyridine_urea_3855
     RDKit          3D

 19 20  0  0  0  0  0  0  0  0999 V2000
    9.0020    1.3160   21.2100 O   0  0  0  0  0  0  0  0  0  0  0  0
    8.7020    0.1630   21.5420 C   0  0  0  0  0  0  0  0  0  0  0  0
    9.4530   -0.6770   22.3610 N   0  0  0  0  0  0  0  0  0  0  0  0
   10.3600   -0.3050   23.4290 C   0  0  0  0  0  0  0  0  0  0  0  0
   11.6930    0.1550   23.1260 C   0  0  0  0  0  0  0  0  0  0  0  0
   12.7990   -0.7490   22.9480 C   0  0  0  0  0  0  0  0  0  0  0  0
   12.5610    0.4580   22.9310 C   0  0  0  0  0  0  0  0  0  0  0  0
   11.1340    0.5500   23.2700 C   0  0  0  0  0  0  0  0  0  0  0  0
   10.3420   -0.5140   23.5490 F   0  0  0  0  0  0  0  0  0  0  0  0
   10.8800    1.8320   23.2260 N   0  0  0  0  0  0  0  0  0  0  0  0
   12.1160    1.7070   22.9380 C   0  0  0  0  0  0  0  0  0  0  0  0
   11.8920    3.5900   22.8640 Br  0  0  0  0  0  0  0  0  0  0  0  0
    7.5170   -0.4140   21.1020 N   0  0  0  0  0  0  0  0  0  0  0  0
    6.7440    0.0990   20.1030 C   0  0  0  0  0  0  0  0  0  0  0  0
    5.6150    0.8340   20.4200 C   0  0  0  0  0  0  0  0  0  0  0  0
    4.8000    1.3940   19.4350 C   0  0  0  0  0  0  0  0  0  0  0  0
    5.1650    1.1850   18.1160 C   0  0  0  0  0  0  0  0  0  0  0  0
    6.2430    0.4740   17.7650 N   0  0  0  0  0  0  0  0  0  0  0  0
    7.0040   -0.0520   18.7530 C   0  0  0  0  0  0  0  0  0  0  0  0
  1  2  2  0
  2  3  1  0
  3  4  1  0
  4  5  1  0
  5  6  2  0
  6  7  1  0
  7  8  2  0
  8  9  1  0
  8 10  1  0
  5 11  1  0
 10 11  2  0
 11 12  1  0
  2 13  1  0
 13 14  1  0
 14 15  2  0
 15 16  1  0
 16 17  2  0
 17 18  1  0
 14 19  1  0
 18 19  2  0
M  END
