pyridine_urea_2299
     RDKit          3D

 25 30  0  0  0  0  0  0  0  0999 V2000
   13.9690    1.0340   22.8360 N   0  0  0  0  0  0  0  0  0  0  0  0
   12.9790    0.2790   23.2200 C   0  0  1  0  0  0  0  0  0  0  0  0
   12.9130   -0.5920   24.4500 C   0  0  0  0  0  0  0  0  0  0  0  0
   11.7310   -1.2990   24.4110 C   0  0  2  0  0  0  0  0  0  0  0  0
   11.4620   -2.0900   23.2840 C   0  0  1  0  0  0  0  0  0  0  0  0
   10.1730   -2.5330   23.0800 C   0  0  0  0  0  0  0  0  0  0  0  0
    9.2000   -1.5590   23.2050 C   0  0  1  0  0  0  0  0  0  0  0  0
    7.8690   -1.7130   22.6900 N   0  0  0  0  0  0  0  0  0  0  0  0
    7.5740   -0.7630   21.6970 C   0  0  0  0  0  0  0  0  0  0  0  0
    8.2430    0.2450   21.4490 O   0  0  0  0  0  0  0  0  0  0  0  0
    6.4530   -1.0540   20.9980 N   0  0  0  0  0  0  0  0  0  0  0  0
    6.0500   -0.2340   19.9400 C   0  0  0  0  0  0  0  0  0  0  0  0
    4.8910    0.5400   20.1030 C   0  0  0  0  0  0  0  0  0  0  0  0
    4.4870    1.3630   19.0580 C   0  0  0  0  0  0  0  0  0  0  0  0
    5.2370    1.3920   17.9020 C   0  0  0  0  0  0  0  0  0  0  0  0
    6.3470    0.6680   17.7080 N   0  0  0  0  0  0  0  0  0  0  0  0
    6.7330   -0.1320   18.7350 C   0  0  0  0  0  0  0  0  0  0  0  0
    9.3640   -0.8500   24.5480 C   0  0  0  0  0  0  0  0  0  0  0  0
   10.5930   -0.2450   24.5350 C   0  0  2  0  0  0  0  0  0  0  0  0
   10.7030    0.6830   23.5360 C   0  0  1  0  0  0  0  0  0  0  0  0
   11.8690    1.3100   23.3150 C   0  0  0  0  0  0  0  0  0  0  0  0
   10.6530   -0.1030   22.2720 C   0  0  2  0  0  0  0  0  0  0  0  0
    9.4730   -0.6010   22.1090 C   0  0  0  0  0  0  0  0  0  0  0  0
   11.6950   -1.2290   22.0930 C   0  0  1  0  0  0  0  0  0  0  0  0
   12.9620   -0.8050   22.1840 C   0  0  0  0  0  0  0  0  0  0  0  0
  2  1  1  1
  2  3  1  0
  4  3  1  6
  4  5  1  0
  5  6  1  1
  6  7  1  0
  7  8  1  6
  8  9  1  0
  9 10  2  0
  9 11  1  0
 11 12  1  0
 12 13  2  0
 13 14  1  0
 14 15  2  0
 15 16  1  0
 12 17  1  0
 16 17  2  0
  7 18  1  0
  4 19  1  0
 19 18  1  6
 19 20  1  0
  2 21  1  0
 20 21  1  1
 20 22  1  0
  7 23  1  0
 22 23  1  1
  5 24  1  0
 22 24  1  0
  2 25  1  0
 24 25  1  1
M  END
