pyridine_urea_14405
     RDKit          3D

 22 23  0  0  0  0  0  0  0  0999 V2000
    9.2130    0.0060   26.2960 C   0  0  0  0  0  0  0  0  0  0  0  0
   10.5910   -0.2480   26.0220 O   0  0  0  0  0  0  0  0  0  0  0  0
   10.8590   -0.5610   24.7400 C   0  0  0  0  0  0  0  0  0  0  0  0
    9.8120   -0.5910   23.8260 C   0  0  0  0  0  0  0  0  0  0  0  0
   10.0220   -0.9520   22.4920 C   0  0  0  0  0  0  0  0  0  0  0  0
    9.2050   -1.0810   21.4810 N   0  0  0  0  0  0  0  0  0  0  0  0
    8.4060    0.0100   21.4070 C   0  0  0  0  0  0  0  0  0  0  0  0
    8.8170    1.1590   21.4270 O   0  0  0  0  0  0  0  0  0  0  0  0
    7.1140   -0.3370   21.2800 N   0  0  0  0  0  0  0  0  0  0  0  0
    6.5130    0.1680   20.1780 C   0  0  0  0  0  0  0  0  0  0  0  0
    5.2660    0.9660   20.4140 C   0  0  0  0  0  0  0  0  0  0  0  0
    4.6250    1.5290   19.1910 C   0  0  0  0  0  0  0  0  0  0  0  0
    5.1770    1.3060   17.9520 C   0  0  0  0  0  0  0  0  0  0  0  0
    6.2750    0.5970   17.6950 N   0  0  0  0  0  0  0  0  0  0  0  0
    6.9100    0.0430   18.8490 C   0  0  0  0  0  0  0  0  0  0  0  0
   11.2800   -1.2640   22.0600 C   0  0  0  0  0  0  0  0  0  0  0  0
   12.3420   -1.2410   22.8870 C   0  0  0  0  0  0  0  0  0  0  0  0
   13.4130   -1.5400   22.4230 O   0  0  0  0  0  0  0  0  0  0  0  0
   13.2120   -2.2250   21.1930 C   0  0  0  0  0  0  0  0  0  0  0  0
   12.1530   -0.8740   24.3450 C   0  0  0  0  0  0  0  0  0  0  0  0
   13.1980   -0.8900   25.2040 O   0  0  0  0  0  0  0  0  0  0  0  0
   13.5790   -2.2690   25.3290 C   0  0  0  0  0  0  0  0  0  0  0  0
  1  2  1  0
  2  3  1  0
  3  4  2  0
  4  5  1  0
  5  6  1  0
  6  7  1  0
  7  8  2  0
  7  9  1  0
  9 10  1  0
 10 11  2  0
 11 12  1  0
 12 13  2  0
 13 14  1  0
 10 15  1  0
 14 15  2  0
  5 16  2  0
 16 17  1  0
 17 18  1  0
 18 19  1  0
  3 20  1  0
 17 20  2  0
 20 21  1  0
 21 22  1  0
M  END
