pyridine_urea_13049
     RDKit          3D

 21 22  0  0  0  0  0  0  0  0999 V2000
   11.7820   -1.7610   21.6380 C   0  0  0  0  0  0  0  0  0  0  0  0
   10.2720   -1.5790   21.5140 C   0  0  0  0  0  0  0  0  0  0  0  0
    9.6090   -1.3460   22.6410 C   0  0  2  0  0  0  0  0  0  0  0  0
    8.8260   -2.4000   23.1160 C   0  0  0  0  0  0  0  0  0  0  0  0
    8.8380   -0.1350   22.6350 N   0  0  0  0  0  0  0  0  0  0  0  0
    8.3460    0.3600   21.5030 C   0  0  0  0  0  0  0  0  0  0  0  0
    8.7640    1.4140   21.0240 O   0  0  0  0  0  0  0  0  0  0  0  0
    7.3670   -0.4460   21.0260 N   0  0  0  0  0  0  0  0  0  0  0  0
    6.6030    0.1410   20.0900 C   0  0  0  0  0  0  0  0  0  0  0  0
    5.4380    0.8840   20.3300 C   0  0  0  0  0  0  0  0  0  0  0  0
    4.6450    1.5370   19.1790 C   0  0  0  0  0  0  0  0  0  0  0  0
    5.1510    1.3490   17.9030 C   0  0  0  0  0  0  0  0  0  0  0  0
    6.2710    0.6140   17.7390 N   0  0  0  0  0  0  0  0  0  0  0  0
    6.9870    0.0200   18.7700 C   0  0  0  0  0  0  0  0  0  0  0  0
   10.7990   -1.0850   23.3740 C   0  0  0  0  0  0  0  0  0  0  0  0
   10.0730   -0.9180   24.4820 C   0  0  0  0  0  0  0  0  0  0  0  0
   10.9210   -0.6660   25.5430 C   0  0  0  0  0  0  0  0  0  0  0  0
   12.3310   -0.6580   25.1620 C   0  0  0  0  0  0  0  0  0  0  0  0
   13.2470   -0.4990   26.0490 F   0  0  0  0  0  0  0  0  0  0  0  0
   12.6120   -0.8380   23.8650 C   0  0  0  0  0  0  0  0  0  0  0  0
   11.4300   -0.8150   24.4720 C   0  0  0  0  0  0  0  0  0  0  0  0
  1  2  1  0
  2  3  1  0
  3  4  1  1
  3  5  1  0
  5  6  1  0
  6  7  2  0
  6  8  1  0
  8  9  1  0
  9 10  2  0
 10 11  1  0
 11 12  2  0
 12 13  1  0
  9 14  1  0
 13 14  2  0
  3 15  1  0
 15 16  2  0
 16 17  1  0
 17 18  2  0
 18 19  1  0
 18 20  1  0
 15 21  1  0
 20 21  2  0
M  END
