pyridine_urea_12960
     RDKit          3D

 19 20  0  0  0  0  0  0  0  0999 V2000
   13.2740   -2.1880   20.9660 C   0  0  0  0  0  0  0  0  0  0  0  0
   13.3640   -2.2430   22.7330 S   0  0  0  0  0  0  0  0  0  0  0  0
   12.2240   -0.9190   22.9980 C   0  0  0  0  0  0  0  0  0  0  0  0
   12.6750    0.4440   23.4240 C   0  0  0  0  0  0  0  0  0  0  0  0
   11.7540    1.4420   23.6160 C   0  0  0  0  0  0  0  0  0  0  0  0
   10.3910    1.2690   23.4300 C   0  0  0  0  0  0  0  0  0  0  0  0
    9.9850   -0.0070   23.0160 C   0  0  0  0  0  0  0  0  0  0  0  0
    8.6030   -0.3480   22.7360 N   0  0  0  0  0  0  0  0  0  0  0  0
    8.1920    0.2340   21.5690 C   0  0  0  0  0  0  0  0  0  0  0  0
    8.7590    1.2410   21.1210 O   0  0  0  0  0  0  0  0  0  0  0  0
    7.1310   -0.4000   21.0180 N   0  0  0  0  0  0  0  0  0  0  0  0
    6.4020    0.1690   20.0420 C   0  0  0  0  0  0  0  0  0  0  0  0
    5.2140    0.8420   20.1970 C   0  0  0  0  0  0  0  0  0  0  0  0
    4.5390    1.4290   19.1400 C   0  0  0  0  0  0  0  0  0  0  0  0
    5.1330    1.3060   17.8830 C   0  0  0  0  0  0  0  0  0  0  0  0
    6.2880    0.6470   17.6830 N   0  0  0  0  0  0  0  0  0  0  0  0
    6.8900    0.0960   18.7530 C   0  0  0  0  0  0  0  0  0  0  0  0
   10.9210   -1.1860   22.7830 C   0  0  0  0  0  0  0  0  0  0  0  0
   10.4370   -2.4460   22.3700 C   0  0  0  0  0  0  0  0  0  0  0  0
  1  2  1  0
  2  3  1  0
  3  4  2  0
  4  5  1  0
  5  6  2  0
  6  7  1  0
  7  8  1  0
  8  9  1  0
  9 10  2  0
  9 11  1  0
 11 12  1  0
 12 13  2  0
 13 14  1  0
 14 15  2  0
 15 16  1  0
 12 17  1  0
 16 17  2  0
  3 18  1  0
  7 18  2  0
 18 19  1  0
M  END
