pyridine_urea_13777
     RDKit          3D

 25 27  0  0  0  0  0  0  0  0999 V2000
   12.3700    3.8780   22.4410 C   0  0  0  0  0  0  0  0  0  0  0  0
   12.4080    2.8660   23.4490 O   0  0  0  0  0  0  0  0  0  0  0  0
   11.4450    1.8290   23.3090 C   0  0  0  0  0  0  0  0  0  0  0  0
   11.4300    0.1710   23.6370 C   0  0  0  0  0  0  0  0  0  0  0  0
   12.7130    0.3290   24.0930 C   0  0  0  0  0  0  0  0  0  0  0  0
   12.0440    1.3580   23.6410 C   0  0  0  0  0  0  0  0  0  0  0  0
   10.6340    0.5810   23.2220 C   0  0  0  0  0  0  0  0  0  0  0  0
   10.1910   -0.8040   23.2530 C   0  0  1  0  0  0  0  0  0  0  0  0
    8.8160   -0.9090   22.7650 N   0  0  0  0  0  0  0  0  0  0  0  0
    8.3590   -0.1560   21.6840 C   0  0  0  0  0  0  0  0  0  0  0  0
    8.9040    0.8740   21.3130 O   0  0  0  0  0  0  0  0  0  0  0  0
    7.2240   -0.6810   21.0970 N   0  0  0  0  0  0  0  0  0  0  0  0
    6.4750   -0.0100   20.1090 C   0  0  0  0  0  0  0  0  0  0  0  0
    5.2840    0.6850   20.3160 C   0  0  0  0  0  0  0  0  0  0  0  0
    4.6260    1.3300   19.2670 C   0  0  0  0  0  0  0  0  0  0  0  0
    5.2040    1.2520   18.0160 C   0  0  0  0  0  0  0  0  0  0  0  0
    6.3480    0.5880   17.7730 N   0  0  0  0  0  0  0  0  0  0  0  0
    6.9510   -0.0250   18.8090 C   0  0  0  0  0  0  0  0  0  0  0  0
   11.3160   -1.4010   22.3480 C   0  0  0  0  0  0  0  0  0  0  0  0
   11.2720   -2.4930   21.5710 N   0  0  0  0  0  0  0  0  0  0  0  0
   12.5590   -2.5180   20.9780 C   0  0  0  0  0  0  0  0  0  0  0  0
   13.2720   -1.5130   21.4050 C   0  0  0  0  0  0  0  0  0  0  0  0
   12.5710   -0.7970   22.2440 N   0  0  0  0  0  0  0  0  0  0  0  0
   13.1940    0.2820   22.7570 C   0  0  0  0  0  0  0  0  0  0  0  0
   10.2190    1.8550   22.8650 C   0  0  0  0  0  0  0  0  0  0  0  0
  1  2  1  0
  2  3  1  0
  3  4  2  0
  4  5  1  0
  5  6  2  0
  6  7  1  0
  7  8  1  0
  8  9  1  6
  9 10  1  0
 10 11  2  0
 10 12  1  0
 12 13  1  0
 13 14  2  0
 14 15  1  0
 15 16  2  0
 16 17  1  0
 13 18  1  0
 17 18  2  0
  8 19  1  0
 19 20  2  0
 20 21  1  0
 21 22  2  0
 19 23  1  0
 22 23  1  0
 23 24  1  0
  3 25  1  0
  7 25  2  0
M  END
