pyridine_urea_5847
     RDKit          3D

 22 24  0  0  0  0  0  0  0  0999 V2000
   13.3410   -2.3920   20.9100 C   0  0  0  0  0  0  0  0  0  0  0  0
   12.5840   -1.6760   21.8040 N   0  0  0  0  0  0  0  0  0  0  0  0
   12.8560   -0.6510   22.5820 C   0  0  0  0  0  0  0  0  0  0  0  0
   11.7030   -0.4480   23.1900 C   0  0  0  0  0  0  0  0  0  0  0  0
   11.2890    0.4370   24.1190 C   0  0  2  0  0  0  0  0  0  0  0  0
   11.1220   -0.0460   25.2580 O   0  0  0  0  0  0  0  0  0  0  0  0
    9.8400   -0.0820   25.7040 C   0  0  0  0  0  0  0  0  0  0  0  0
    9.0800    0.8330   24.8540 C   0  0  0  0  0  0  0  0  0  0  0  0
    9.8560    0.6520   23.5810 C   0  0  2  0  0  0  0  0  0  0  0  0
    9.3810   -0.6760   22.9950 C   0  0  0  0  0  0  0  0  0  0  0  0
    9.1060   -0.4870   21.6040 N   0  0  0  0  0  0  0  0  0  0  0  0
    8.0740    0.2200   21.1420 C   0  0  0  0  0  0  0  0  0  0  0  0
    8.3610    1.3880   20.8670 O   0  0  0  0  0  0  0  0  0  0  0  0
    6.9620   -0.4710   21.0820 N   0  0  0  0  0  0  0  0  0  0  0  0
    6.3630    0.1410   19.9940 C   0  0  0  0  0  0  0  0  0  0  0  0
    5.1890    0.8610   20.1960 C   0  0  0  0  0  0  0  0  0  0  0  0
    4.5930    1.4900   19.1190 C   0  0  0  0  0  0  0  0  0  0  0  0
    5.1840    1.3810   17.8800 C   0  0  0  0  0  0  0  0  0  0  0  0
    6.3090    0.6850   17.6710 N   0  0  0  0  0  0  0  0  0  0  0  0
    6.8720    0.0800   18.7250 C   0  0  0  0  0  0  0  0  0  0  0  0
   10.6290   -1.2710   22.8800 C   0  0  0  0  0  0  0  0  0  0  0  0
   11.3170   -2.0380   21.9630 N   0  0  0  0  0  0  0  0  0  0  0  0
  1  2  1  0
  2  3  1  0
  3  4  2  0
  5  4  1  6
  5  6  1  0
  6  7  1  0
  7  8  1  0
  5  9  1  0
  8  9  1  0
  9 10  1  1
 10 11  1  0
 11 12  1  0
 12 13  2  0
 12 14  1  0
 14 15  1  0
 15 16  2  0
 16 17  1  0
 17 18  2  0
 18 19  1  0
 15 20  1  0
 19 20  2  0
  4 21  1  0
  2 22  1  0
 21 22  2  0
M  END
