pyridine_urea_9714
     RDKit          3D

 17 18  0  0  0  0  0  0  0  0999 V2000
    8.9160    0.7990   21.3630 O   0  0  0  0  0  0  0  0  0  0  0  0
    8.4180   -0.2590   21.7290 C   0  0  0  0  0  0  0  0  0  0  0  0
    7.2950   -0.8270   21.1320 N   0  0  0  0  0  0  0  0  0  0  0  0
    6.5940   -0.1010   20.0880 C   0  0  0  0  0  0  0  0  0  0  0  0
    5.3350    0.6750   20.4800 C   0  0  0  0  0  0  0  0  0  0  0  0
    4.5960    1.4460   19.3810 C   0  0  0  0  0  0  0  0  0  0  0  0
    5.2120    1.3520   17.9840 C   0  0  0  0  0  0  0  0  0  0  0  0
    6.3690    0.5930   17.7880 N   0  0  0  0  0  0  0  0  0  0  0  0
    7.0180   -0.0950   18.7780 C   0  0  0  0  0  0  0  0  0  0  0  0
    8.8890   -1.0220   22.8010 N   0  0  0  0  0  0  0  0  0  0  0  0
   10.2440   -1.0050   23.2560 C   0  0  1  0  0  0  0  0  0  0  0  0
   11.2080   -1.1760   22.2620 C   0  0  0  0  0  0  0  0  0  0  0  0
   12.5230   -0.8300   22.5930 C   0  0  0  0  0  0  0  0  0  0  0  0
   12.5450    0.4710   23.0090 C   0  0  0  0  0  0  0  0  0  0  0  0
   11.7560    0.6550   24.1160 C   0  0  0  0  0  0  0  0  0  0  0  0
   10.4830    0.0710   24.1550 C   0  0  2  0  0  0  0  0  0  0  0  0
   10.3860   -0.2720   25.3340 O   0  0  0  0  0  0  0  0  0  0  0  0
  1  2  2  0
  2  3  1  0
  3  4  1  0
  4  5  2  0
  5  6  1  0
  6  7  2  0
  7  8  1  0
  4  9  1  0
  8  9  2  0
  2 10  1  0
 11 10  1  6
 11 12  1  0
 12 13  1  0
 13 14  1  0
 14 15  1  0
 11 16  1  0
 15 16  1  0
 16 17  1  1
M  END
