pyridine_urea_14109
     RDKit          3D

 23 24  0  0  0  0  0  0  0  0999 V2000
    8.7080    0.9960   21.4530 O   0  0  0  0  0  0  0  0  0  0  0  0
    8.3190   -0.1510   21.3530 C   0  0  0  0  0  0  0  0  0  0  0  0
    7.0050   -0.4890   21.1720 N   0  0  0  0  0  0  0  0  0  0  0  0
    6.3810    0.1090   20.0240 C   0  0  0  0  0  0  0  0  0  0  0  0
    5.1040    0.8880   20.3000 C   0  0  0  0  0  0  0  0  0  0  0  0
    4.5040    1.5150   19.0980 C   0  0  0  0  0  0  0  0  0  0  0  0
    5.1350    1.3460   17.8820 C   0  0  0  0  0  0  0  0  0  0  0  0
    6.2620    0.6380   17.6910 N   0  0  0  0  0  0  0  0  0  0  0  0
    6.8510    0.0420   18.7390 C   0  0  0  0  0  0  0  0  0  0  0  0
    9.1450   -1.2250   21.3800 N   0  0  0  0  0  0  0  0  0  0  0  0
   10.0310   -1.4050   22.5150 C   0  0  0  0  0  0  0  0  0  0  0  0
    9.5500   -0.9840   23.6740 C   0  0  0  0  0  0  0  0  0  0  0  0
   10.6200   -1.2840   24.6660 C   0  0  0  0  0  0  0  0  0  0  0  0
   11.8130   -1.8250   24.5200 C   0  0  0  0  0  0  0  0  0  0  0  0
   12.2080   -2.2170   23.3340 C   0  0  0  0  0  0  0  0  0  0  0  0
   13.4190   -2.7310   23.3610 C   0  0  0  0  0  0  0  0  0  0  0  0
   13.9290   -1.4410   23.5050 O   0  0  0  0  0  0  0  0  0  0  0  0
   13.3130   -0.6980   22.5730 C   0  0  0  0  0  0  0  0  0  0  0  0
   13.0970   -1.4700   21.3130 C   0  0  0  0  0  0  0  0  0  0  0  0
   13.6940   -0.9800   20.2280 F   0  0  0  0  0  0  0  0  0  0  0  0
   11.7950   -1.6560   21.0760 F   0  0  0  0  0  0  0  0  0  0  0  0
   13.4630   -2.7550   21.4140 F   0  0  0  0  0  0  0  0  0  0  0  0
   11.4110   -2.0700   22.2260 C   0  0  0  0  0  0  0  0  0  0  0  0
  1  2  2  0
  2  3  1  0
  3  4  1  0
  4  5  2  0
  5  6  1  0
  6  7  2  0
  7  8  1  0
  4  9  1  0
  8  9  2  0
  2 10  1  0
 10 11  1  0
 11 12  2  0
 12 13  1  0
 13 14  2  0
 14 15  1  0
 15 16  1  0
 16 17  1  0
 17 18  1  0
 18 19  1  0
 19 20  1  0
 19 21  1  0
 19 22  1  0
 11 23  1  0
 15 23  2  0
M  END
