pyridine_urea_12740
     RDKit          3D

 20 22  0  0  0  0  0  0  0  0999 V2000
    8.5920    1.2320   20.9800 O   0  0  0  0  0  0  0  0  0  0  0  0
    8.2220    0.1800   21.5180 C   0  0  0  0  0  0  0  0  0  0  0  0
    7.1730   -0.5590   21.0490 N   0  0  0  0  0  0  0  0  0  0  0  0
    6.5450    0.0440   19.9230 C   0  0  0  0  0  0  0  0  0  0  0  0
    5.2770    0.8560   20.2210 C   0  0  0  0  0  0  0  0  0  0  0  0
    4.6090    1.5030   19.1890 C   0  0  0  0  0  0  0  0  0  0  0  0
    5.1350    1.3820   17.9070 C   0  0  0  0  0  0  0  0  0  0  0  0
    6.2660    0.6360   17.6910 N   0  0  0  0  0  0  0  0  0  0  0  0
    6.9850   -0.0410   18.6710 C   0  0  0  0  0  0  0  0  0  0  0  0
    8.7870   -0.3590   22.6210 N   0  0  0  0  0  0  0  0  0  0  0  0
    9.4300   -0.7440   23.7280 C   0  0  1  0  0  0  0  0  0  0  0  0
    9.7380   -2.0810   23.9280 C   0  0  0  0  0  0  0  0  0  0  0  0
    9.9240   -2.7130   22.7210 O   0  0  0  0  0  0  0  0  0  0  0  0
   10.4990   -1.7660   22.0060 C   0  0  0  0  0  0  0  0  0  0  0  0
   11.0040   -0.7590   22.8700 C   0  0  0  0  0  0  0  0  0  0  0  0
   12.1240   -0.3050   22.8210 C   0  0  0  0  0  0  0  0  0  0  0  0
   13.0950   -0.6510   21.9890 C   0  0  0  0  0  0  0  0  0  0  0  0
   13.2180    0.3380   22.9340 C   0  0  0  0  0  0  0  0  0  0  0  0
   12.0050    0.6290   23.8520 C   0  0  0  0  0  0  0  0  0  0  0  0
   10.6310    0.0260   23.9230 C   0  0  0  0  0  0  0  0  0  0  0  0
  1  2  2  0
  2  3  1  0
  3  4  1  0
  4  5  2  0
  5  6  1  0
  6  7  2  0
  7  8  1  0
  4  9  1  0
  8  9  2  0
  2 10  1  0
 11 10  1  6
 11 12  1  0
 12 13  1  0
 13 14  1  0
 14 15  1  0
 15 16  2  0
 16 17  1  0
 17 18  2  0
 18 19  1  0
 11 20  1  0
 15 20  1  0
 19 20  2  0
M  END
