pyridine_urea_329
     RDKit          3D

 26 28  0  0  0  0  0  0  0  0999 V2000
   10.6490   -2.2170   23.4510 C   0  0  0  0  0  0  0  0  0  0  0  0
    9.6630   -2.4100   22.7860 C   0  0  2  0  0  0  0  0  0  0  0  0
    8.7210   -1.2770   22.9260 N   0  0  0  0  0  0  0  0  0  0  0  0
    8.4310   -0.3970   21.7880 C   0  0  0  0  0  0  0  0  0  0  0  0
    9.2730    0.6940   21.4220 O   0  0  0  0  0  0  0  0  0  0  0  0
    7.1930   -0.7600   21.1230 N   0  0  0  0  0  0  0  0  0  0  0  0
    6.6170   -0.1190   20.0680 C   0  0  0  0  0  0  0  0  0  0  0  0
    5.4780    0.5890   20.3680 C   0  0  0  0  0  0  0  0  0  0  0  0
    4.6820    1.3900   19.3280 C   0  0  0  0  0  0  0  0  0  0  0  0
    5.2060    1.3720   17.9530 C   0  0  0  0  0  0  0  0  0  0  0  0
    6.3560    0.6240   17.7640 N   0  0  0  0  0  0  0  0  0  0  0  0
    7.0530   -0.1050   18.7560 C   0  0  0  0  0  0  0  0  0  0  0  0
    8.8310   -3.6690   23.2190 C   0  0  0  0  0  0  0  0  0  0  0  0
    7.6090   -3.6110   23.2090 O   0  0  0  0  0  0  0  0  0  0  0  0
    9.5660   -4.7580   23.5810 N   0  0  0  0  0  0  0  0  0  0  0  0
    8.8550   -5.9200   23.5590 C   0  0  0  0  0  0  0  0  0  0  0  0
    7.6660   -6.0680   24.1500 C   0  0  0  0  0  0  0  0  0  0  0  0
    6.9860   -7.2080   24.1070 C   0  0  0  0  0  0  0  0  0  0  0  0
    7.3040   -8.5120   23.4270 C   0  0  0  0  0  0  0  0  0  0  0  0
    8.5890   -8.2400   22.7500 C   0  0  0  0  0  0  0  0  0  0  0  0
    9.0120   -9.3870   21.8070 N   0  0  0  0  0  0  0  0  0  0  0  0
    8.1210  -10.5610   21.9880 C   0  0  0  0  0  0  0  0  0  0  0  0
    8.4810  -11.6410   20.7770 C   0  0  0  0  0  0  0  0  0  0  0  0
    9.5280  -11.0210   19.8070 C   0  0  0  0  0  0  0  0  0  0  0  0
    9.9130   -9.5800   20.3500 C   0  0  0  0  0  0  0  0  0  0  0  0
    9.2680   -7.0160   22.8970 C   0  0  0  0  0  0  0  0  0  0  0  0
  2  1  1  1
  2  3  1  0
  3  4  1  0
  4  5  2  0
  4  6  1  0
  6  7  1  0
  7  8  2  0
  8  9  1  0
  9 10  2  0
 10 11  1  0
  7 12  1  0
 11 12  2  0
  2 13  1  0
 13 14  2  0
 13 15  1  0
 15 16  1  0
 16 17  2  0
 17 18  1  0
 18 19  2  0
 19 20  1  0
 20 21  1  0
 21 22  1  0
 22 23  1  0
 23 24  1  0
 21 25  1  0
 24 25  1  0
 16 26  1  0
 20 26  2  0
M  END
