pyridine_urea_8109
     RDKit          3D

 24 25  0  0  0  0  0  0  0  0999 V2000
   12.1400   -0.8060   25.0370 C   0  0  0  0  0  0  0  0  0  0  0  0
   12.2320   -2.3120   24.8530 C   0  0  0  0  0  0  0  0  0  0  0  0
   10.9610   -2.7920   24.0690 C   0  0  0  0  0  0  0  0  0  0  0  0
   13.4890   -2.6590   24.1000 C   0  0  0  0  0  0  0  0  0  0  0  0
   13.3910   -2.4280   22.7360 N   0  0  0  0  0  0  0  0  0  0  0  0
   13.4250   -1.2180   22.1240 C   0  0  0  0  0  0  0  0  0  0  0  0
   13.7210   -1.0790   20.9410 O   0  0  0  0  0  0  0  0  0  0  0  0
   13.1430   -0.0540   22.8310 C   0  0  0  0  0  0  0  0  0  0  0  0
   12.3370    1.0250   23.5050 C   0  0  0  0  0  0  0  0  0  0  0  0
   10.8840    1.2760   23.6910 C   0  0  0  0  0  0  0  0  0  0  0  0
    9.8020    0.4010   23.1380 C   0  0  0  0  0  0  0  0  0  0  0  0
    8.9510   -0.5260   22.5480 N   0  0  0  0  0  0  0  0  0  0  0  0
    8.2860    0.0360   21.4920 C   0  0  0  0  0  0  0  0  0  0  0  0
    8.6630    1.2660   20.9930 O   0  0  0  0  0  0  0  0  0  0  0  0
    7.2120   -0.6630   21.0060 N   0  0  0  0  0  0  0  0  0  0  0  0
    6.5020   -0.0380   19.9830 C   0  0  0  0  0  0  0  0  0  0  0  0
    5.2160    0.7040   20.2890 C   0  0  0  0  0  0  0  0  0  0  0  0
    4.5600    1.3370   19.2400 C   0  0  0  0  0  0  0  0  0  0  0  0
    5.1220    1.2530   17.9680 C   0  0  0  0  0  0  0  0  0  0  0  0
    6.2560    0.5900   17.6880 N   0  0  0  0  0  0  0  0  0  0  0  0
    6.9150   -0.0350   18.6830 C   0  0  0  0  0  0  0  0  0  0  0  0
   10.6320   -0.5690   22.5210 C   0  0  0  0  0  0  0  0  0  0  0  0
   12.0200   -0.7500   22.4050 C   0  0  0  0  0  0  0  0  0  0  0  0
   12.2320   -2.2010   21.4970 Cl  0  0  0  0  0  0  0  0  0  0  0  0
  1  2  1  0
  2  3  1  0
  2  4  1  0
  4  5  1  0
  5  6  1  0
  6  7  2  0
  6  8  1  0
  8  9  2  0
  9 10  1  0
 10 11  2  0
 11 12  1  0
 12 13  1  0
 13 14  2  0
 13 15  1  0
 15 16  1  0
 16 17  2  0
 17 18  1  0
 18 19  2  0
 19 20  1  0
 16 21  1  0
 20 21  2  0
 11 22  1  0
  8 23  1  0
 22 23  2  0
 23 24  1  0
M  END
