pyridine_urea_2006
     RDKit          3D

 20 22  0  0  0  0  0  0  0  0999 V2000
   10.2680   -1.7190   21.4780 C   0  0  0  0  0  0  0  0  0  0  0  0
   10.4480   -0.9470   22.7050 C   0  0  1  0  0  0  0  0  0  0  0  0
    9.1500   -0.3120   22.9530 N   0  0  0  0  0  0  0  0  0  0  0  0
    8.5590    0.3100   21.8270 C   0  0  0  0  0  0  0  0  0  0  0  0
    9.0080    1.3630   21.3470 O   0  0  0  0  0  0  0  0  0  0  0  0
    7.4500   -0.3580   21.3180 N   0  0  0  0  0  0  0  0  0  0  0  0
    6.7340    0.1140   20.1930 C   0  0  0  0  0  0  0  0  0  0  0  0
    5.5200    0.9740   20.3990 C   0  0  0  0  0  0  0  0  0  0  0  0
    4.7730    1.4980   19.3660 C   0  0  0  0  0  0  0  0  0  0  0  0
    5.1480    1.2290   18.0570 C   0  0  0  0  0  0  0  0  0  0  0  0
    6.3030    0.3990   17.8180 N   0  0  0  0  0  0  0  0  0  0  0  0
    7.0350   -0.1190   18.8630 C   0  0  0  0  0  0  0  0  0  0  0  0
   11.1940   -1.9400   23.6680 C   0  0  0  0  0  0  0  0  0  0  0  0
   12.5030   -2.0350   23.1300 C   0  0  0  0  0  0  0  0  0  0  0  0
   12.7590   -0.8180   22.5500 O   0  0  0  0  0  0  0  0  0  0  0  0
   11.7000   -0.1120   22.9860 C   0  0  1  0  0  0  0  0  0  0  0  0
   11.7720    1.1580   23.2800 C   0  0  0  0  0  0  0  0  0  0  0  0
   11.8410    0.1110   24.4870 C   0  0  0  0  0  0  0  0  0  0  0  0
   12.9120   -0.3750   25.1080 F   0  0  0  0  0  0  0  0  0  0  0  0
   10.7200   -0.1010   25.2310 F   0  0  0  0  0  0  0  0  0  0  0  0
  2  1  1  6
  2  3  1  0
  3  4  1  0
  4  5  2  0
  4  6  1  0
  6  7  1  0
  7  8  2  0
  8  9  1  0
  9 10  2  0
 10 11  1  0
  7 12  1  0
 11 12  2  0
  2 13  1  0
 13 14  1  0
 14 15  1  0
  2 16  1  0
 16 15  1  0
 16 17  1  6
 16 18  1  0
 17 18  1  0
 18 19  1  0
 18 20  1  0
M  END
