pyridine_urea_11698
     RDKit          3D

 27 29  0  0  0  0  0  0  0  0999 V2000
    8.4880    0.8990   21.1580 O   0  0  0  0  0  0  0  0  0  0  0  0
    8.0410   -0.2340   21.3150 C   0  0  0  0  0  0  0  0  0  0  0  0
    6.8000   -0.6170   20.9550 N   0  0  0  0  0  0  0  0  0  0  0  0
    6.2160    0.0520   19.9070 C   0  0  0  0  0  0  0  0  0  0  0  0
    5.0020    0.7090   20.0880 C   0  0  0  0  0  0  0  0  0  0  0  0
    4.4440    1.4030   19.0220 C   0  0  0  0  0  0  0  0  0  0  0  0
    5.1280    1.4090   17.8240 C   0  0  0  0  0  0  0  0  0  0  0  0
    6.2930    0.7730   17.6370 N   0  0  0  0  0  0  0  0  0  0  0  0
    6.8060    0.1120   18.6750 C   0  0  0  0  0  0  0  0  0  0  0  0
    8.7870   -1.1950   21.8700 N   0  0  0  0  0  0  0  0  0  0  0  0
    9.9460   -0.6250   22.4550 C   0  0  2  0  0  0  0  0  0  0  0  0
   11.2620   -1.2800   22.0410 C   0  0  0  0  0  0  0  0  0  0  0  0
   12.0380   -0.5020   22.7720 C   0  0  0  0  0  0  0  0  0  0  0  0
   12.7830   -0.1940   23.8810 C   0  0  0  0  0  0  0  0  0  0  0  0
   13.0320   -0.9660   24.9720 C   0  0  0  0  0  0  0  0  0  0  0  0
   12.6260   -2.2230   25.1510 C   0  0  0  0  0  0  0  0  0  0  0  0
   11.8820   -2.8040   24.2480 C   0  0  0  0  0  0  0  0  0  0  0  0
   11.5840   -1.9470   23.0730 C   0  0  0  0  0  0  0  0  0  0  0  0
    9.8420   -0.5040   23.9860 C   0  0  0  0  0  0  0  0  0  0  0  0
   10.7520    0.1240   24.5140 O   0  0  0  0  0  0  0  0  0  0  0  0
    8.7650   -1.1010   24.5430 N   0  0  0  0  0  0  0  0  0  0  0  0
    8.3840   -0.6710   25.7760 C   0  0  0  0  0  0  0  0  0  0  0  0
    9.3680   -0.1660   26.6130 C   0  0  0  0  0  0  0  0  0  0  0  0
    9.1000    0.2960   27.8980 C   0  0  0  0  0  0  0  0  0  0  0  0
    7.7980    0.2590   28.3750 C   0  0  0  0  0  0  0  0  0  0  0  0
    6.7760   -0.2410   27.5630 C   0  0  0  0  0  0  0  0  0  0  0  0
    7.0680   -0.7040   26.2680 C   0  0  0  0  0  0  0  0  0  0  0  0
  1  2  2  0
  2  3  1  0
  3  4  1  0
  4  5  2  0
  5  6  1  0
  6  7  2  0
  7  8  1  0
  4  9  1  0
  8  9  2  0
  2 10  1  0
 10 11  1  0
 11 12  1  1
 12 13  1  0
 13 14  2  0
 14 15  1  0
 15 16  2  0
 16 17  1  0
 13 18  1  0
 17 18  2  0
 11 19  1  0
 19 20  2  0
 19 21  1  0
 21 22  1  0
 22 23  2  0
 23 24  1  0
 24 25  2  0
 25 26  1  0
 22 27  1  0
 26 27  2  0
M  END
