pyridine_urea_8518
     RDKit          3D

 22 23  0  0  0  0  0  0  0  0999 V2000
    8.8880    1.4560   21.0900 O   0  0  0  0  0  0  0  0  0  0  0  0
    8.2240    0.5530   21.6030 C   0  0  0  0  0  0  0  0  0  0  0  0
    8.3000    0.1770   22.8990 N   0  0  0  0  0  0  0  0  0  0  0  0
    9.2840   -0.6320   23.4380 C   0  0  0  0  0  0  0  0  0  0  0  0
   10.0120   -0.0760   24.4680 C   0  0  0  0  0  0  0  0  0  0  0  0
   11.2270    0.3210   24.0340 C   0  0  0  0  0  0  0  0  0  0  0  0
   12.4420    0.4890   23.4360 C   0  0  0  0  0  0  0  0  0  0  0  0
   13.2290   -0.2820   22.4170 C   0  0  0  0  0  0  0  0  0  0  0  0
   13.0420   -1.4430   21.6940 C   0  0  0  0  0  0  0  0  0  0  0  0
   11.6960   -1.6130   22.3620 C   0  0  0  0  0  0  0  0  0  0  0  0
   10.9390   -0.9170   23.3110 C   0  0  0  0  0  0  0  0  0  0  0  0
    9.7350   -1.6540   23.5090 C   0  0  0  0  0  0  0  0  0  0  0  0
    8.6800   -1.4360   22.7090 F   0  0  0  0  0  0  0  0  0  0  0  0
    9.9620   -2.9710   23.2970 F   0  0  0  0  0  0  0  0  0  0  0  0
    9.2680   -1.5870   24.7820 F   0  0  0  0  0  0  0  0  0  0  0  0
    7.2850   -0.2200   20.9830 N   0  0  0  0  0  0  0  0  0  0  0  0
    6.5400    0.3000   19.9490 C   0  0  0  0  0  0  0  0  0  0  0  0
    5.3830    1.0290   20.2520 C   0  0  0  0  0  0  0  0  0  0  0  0
    4.6720    1.5650   19.1870 C   0  0  0  0  0  0  0  0  0  0  0  0
    5.1350    1.3540   17.9100 C   0  0  0  0  0  0  0  0  0  0  0  0
    6.2240    0.6550   17.5870 N   0  0  0  0  0  0  0  0  0  0  0  0
    6.8900    0.1490   18.6280 C   0  0  0  0  0  0  0  0  0  0  0  0
  1  2  2  0
  2  3  1  0
  3  4  1  0
  4  5  1  0
  5  6  1  0
  6  7  2  0
  7  8  1  0
  8  9  2  0
  9 10  1  0
  6 11  1  0
 10 11  2  0
 11 12  1  0
 12 13  1  0
 12 14  1  0
 12 15  1  0
  2 16  1  0
 16 17  1  0
 17 18  2  0
 18 19  1  0
 19 20  2  0
 20 21  1  0
 17 22  1  0
 21 22  2  0
M  END
