pyridine_urea_11189
     RDKit          3D

 18 18  0  0  0  0  0  0  0  0999 V2000
   12.3430    4.2490   21.6960 C   0  0  0  0  0  0  0  0  0  0  0  0
   11.4920    3.3290   22.3780 O   0  0  0  0  0  0  0  0  0  0  0  0
   12.1830    2.1880   22.8860 C   0  0  0  0  0  0  0  0  0  0  0  0
   11.3080    1.4310   23.8800 C   0  0  0  0  0  0  0  0  0  0  0  0
   10.3560    0.6410   23.0880 N   0  0  0  0  0  0  0  0  0  0  0  0
   11.0970   -0.5710   22.6760 C   0  0  0  0  0  0  0  0  0  0  0  0
   12.5210   -0.5860   22.6330 O   0  0  0  0  0  0  0  0  0  0  0  0
   10.2170   -1.5900   22.3590 C   0  0  0  0  0  0  0  0  0  0  0  0
    8.8810   -1.3840   22.3710 N   0  0  0  0  0  0  0  0  0  0  0  0
    8.3820   -0.4020   21.5670 C   0  0  0  0  0  0  0  0  0  0  0  0
    8.9790    0.6450   21.3680 O   0  0  0  0  0  0  0  0  0  0  0  0
    7.1500   -0.7490   21.0520 N   0  0  0  0  0  0  0  0  0  0  0  0
    6.4330   -0.0100   19.9880 C   0  0  0  0  0  0  0  0  0  0  0  0
    5.2750    0.5770   20.4140 C   0  0  0  0  0  0  0  0  0  0  0  0
    4.6880    1.2900   19.2040 C   0  0  0  0  0  0  0  0  0  0  0  0
    5.2390    1.3230   17.9430 C   0  0  0  0  0  0  0  0  0  0  0  0
    6.3690    0.7020   17.6740 N   0  0  0  0  0  0  0  0  0  0  0  0
    6.9270    0.0580   18.6980 C   0  0  0  0  0  0  0  0  0  0  0  0
  1  2  1  0
  2  3  1  0
  3  4  1  0
  4  5  1  0
  5  6  1  0
  6  7  2  0
  6  8  1  0
  8  9  1  0
  9 10  1  0
 10 11  2  0
 10 12  1  0
 12 13  1  0
 13 14  2  0
 14 15  1  0
 15 16  2  0
 16 17  1  0
 13 18  1  0
 17 18  2  0
M  END
