pyridine_urea_9710
     RDKit          3D

 21 22  0  0  0  0  0  0  0  0999 V2000
    8.4990    0.8920   21.1410 O   0  0  0  0  0  0  0  0  0  0  0  0
    8.0840   -0.1620   21.6050 C   0  0  0  0  0  0  0  0  0  0  0  0
    7.0270   -0.8390   21.0690 N   0  0  0  0  0  0  0  0  0  0  0  0
    6.4000   -0.1080   20.0120 C   0  0  0  0  0  0  0  0  0  0  0  0
    5.1160    0.6460   20.3440 C   0  0  0  0  0  0  0  0  0  0  0  0
    4.4580    1.4430   19.2210 C   0  0  0  0  0  0  0  0  0  0  0  0
    5.1770    1.3920   17.8710 C   0  0  0  0  0  0  0  0  0  0  0  0
    6.3500    0.6420   17.7290 N   0  0  0  0  0  0  0  0  0  0  0  0
    6.9260   -0.0670   18.7420 C   0  0  0  0  0  0  0  0  0  0  0  0
    8.6480   -0.7460   22.7030 N   0  0  0  0  0  0  0  0  0  0  0  0
    9.9210   -0.2370   22.9050 C   0  0  0  0  0  0  0  0  0  0  0  0
   10.2010    0.9780   23.5370 C   0  0  0  0  0  0  0  0  0  0  0  0
   11.4540    1.5680   23.7480 C   0  0  0  0  0  0  0  0  0  0  0  0
   12.5970    0.9320   23.3100 C   0  0  0  0  0  0  0  0  0  0  0  0
   12.4550   -0.2620   22.6950 C   0  0  0  0  0  0  0  0  0  0  0  0
   13.2300   -1.2030   22.1470 C   0  0  0  0  0  0  0  0  0  0  0  0
   13.8090   -1.0030   21.0970 O   0  0  0  0  0  0  0  0  0  0  0  0
   13.3360   -2.5220   22.7450 C   0  0  0  0  0  0  0  0  0  0  0  0
   12.3090   -2.9270   23.5060 F   0  0  0  0  0  0  0  0  0  0  0  0
   13.4230   -3.3420   21.7000 F   0  0  0  0  0  0  0  0  0  0  0  0
   11.1410   -0.9750   22.4210 C   0  0  0  0  0  0  0  0  0  0  0  0
  1  2  2  0
  2  3  1  0
  3  4  1  0
  4  5  2  0
  5  6  1  0
  6  7  2  0
  7  8  1  0
  4  9  1  0
  8  9  2  0
  2 10  1  0
 10 11  1  0
 11 12  2  0
 12 13  1  0
 13 14  2  0
 14 15  1  0
 15 16  1  0
 16 17  2  0
 16 18  1  0
 18 19  1  0
 18 20  1  0
 11 21  1  0
 15 21  2  0
M  END
