pyridine_urea_7859
     RDKit          3D

 26 28  0  0  0  0  0  0  0  0999 V2000
   17.4290   -5.0960   20.5760 C   0  0  0  0  0  0  0  0  0  0  0  0
   16.4470   -4.9750   19.7800 N   0  0  0  0  0  0  0  0  0  0  0  0
   16.1520   -4.1080   19.0040 C   0  0  0  0  0  0  0  0  0  0  0  0
   14.8780   -3.8100   19.3580 C   0  0  0  0  0  0  0  0  0  0  0  0
   14.3800   -4.1650   20.5020 N   0  0  0  0  0  0  0  0  0  0  0  0
   13.0780   -3.8030   21.0310 C   0  0  0  0  0  0  0  0  0  0  0  0
   12.3660   -2.6690   20.8280 C   0  0  0  0  0  0  0  0  0  0  0  0
   11.5280   -2.3990   21.6880 O   0  0  0  0  0  0  0  0  0  0  0  0
   11.5260   -1.1220   22.1350 C   0  0  0  0  0  0  0  0  0  0  0  0
   12.7210   -0.5170   22.3710 C   0  0  0  0  0  0  0  0  0  0  0  0
   12.7980    0.8910   22.8340 C   0  0  0  0  0  0  0  0  0  0  0  0
   11.6180    1.5620   23.0290 C   0  0  0  0  0  0  0  0  0  0  0  0
   10.3940    0.9170   22.7940 C   0  0  0  0  0  0  0  0  0  0  0  0
   10.3330   -0.4070   22.3470 C   0  0  0  0  0  0  0  0  0  0  0  0
    9.1580   -1.0190   22.0960 N   0  0  0  0  0  0  0  0  0  0  0  0
    8.2790   -0.2120   21.4390 C   0  0  0  0  0  0  0  0  0  0  0  0
    8.4330    0.9890   21.2610 O   0  0  0  0  0  0  0  0  0  0  0  0
    7.1750   -0.8920   20.9870 N   0  0  0  0  0  0  0  0  0  0  0  0
    6.4070   -0.1230   20.1250 C   0  0  0  0  0  0  0  0  0  0  0  0
    5.3240    0.7510   20.4650 C   0  0  0  0  0  0  0  0  0  0  0  0
    4.7220    1.4010   19.4030 C   0  0  0  0  0  0  0  0  0  0  0  0
    5.3280    1.0340   18.2720 C   0  0  0  0  0  0  0  0  0  0  0  0
    6.1030    0.4470   17.7330 N   0  0  0  0  0  0  0  0  0  0  0  0
    6.7450   -0.2310   18.7350 C   0  0  0  0  0  0  0  0  0  0  0  0
   14.7200   -5.5500   20.6320 C   0  0  0  0  0  0  0  0  0  0  0  0
   15.4570   -5.8830   19.6370 C   0  0  0  0  0  0  0  0  0  0  0  0
  1  2  1  0
  2  3  1  0
  3  4  1  0
  4  5  1  0
  5  6  1  0
  6  7  1  0
  7  8  1  0
  8  9  1  0
  9 10  2  0
 10 11  1  0
 11 12  2  0
 12 13  1  0
  9 14  1  0
 13 14  2  0
 14 15  1  0
 15 16  1  0
 16 17  2  0
 16 18  1  0
 18 19  1  0
 19 20  2  0
 20 21  1  0
 21 22  2  0
 22 23  1  0
 19 24  1  0
 23 24  2  0
  5 25  1  0
  2 26  1  0
 25 26  1  0
M  END
