pyridine_urea_13587
     RDKit          3D

 27 29  0  0  0  0  0  0  0  0999 V2000
   12.7010    1.8290   22.8420 C   0  0  0  0  0  0  0  0  0  0  0  0
   13.0630    0.0670   22.7200 S   0  0  0  0  0  0  0  0  0  0  0  0
   11.8440   -0.2190   24.0400 C   0  0  0  0  0  0  0  0  0  0  0  0
   11.9430   -0.1950   25.4980 C   0  0  0  0  0  0  0  0  0  0  0  0
   10.4800   -0.4560   26.0440 C   0  0  0  0  0  0  0  0  0  0  0  0
    9.2160   -0.7570   25.1640 C   0  0  0  0  0  0  0  0  0  0  0  0
    9.2340   -0.8570   23.7600 C   0  0  0  0  0  0  0  0  0  0  0  0
    9.8480   -0.8350   22.5590 C   0  0  1  0  0  0  0  0  0  0  0  0
    9.8150    0.5000   22.1600 N   0  0  0  0  0  0  0  0  0  0  0  0
    8.7300    0.9380   21.4570 C   0  0  0  0  0  0  0  0  0  0  0  0
    8.7010    2.0730   21.0420 O   0  0  0  0  0  0  0  0  0  0  0  0
    7.7250    0.0200   21.2370 N   0  0  0  0  0  0  0  0  0  0  0  0
    6.8370    0.3050   20.1930 C   0  0  0  0  0  0  0  0  0  0  0  0
    5.6520    1.0130   20.4010 C   0  0  0  0  0  0  0  0  0  0  0  0
    4.7550    1.3460   19.3760 C   0  0  0  0  0  0  0  0  0  0  0  0
    5.0530    0.9510   18.0670 C   0  0  0  0  0  0  0  0  0  0  0  0
    6.1390    0.2640   17.7430 N   0  0  0  0  0  0  0  0  0  0  0  0
    6.9960   -0.0560   18.7270 C   0  0  0  0  0  0  0  0  0  0  0  0
   11.0660   -1.4560   22.6920 C   0  0  0  0  0  0  0  0  0  0  0  0
   11.7860   -2.0500   21.7010 C   0  0  0  0  0  0  0  0  0  0  0  0
   13.0170   -2.6950   21.8690 C   0  0  0  0  0  0  0  0  0  0  0  0
   13.5720   -3.2260   20.7780 F   0  0  0  0  0  0  0  0  0  0  0  0
   13.6790   -2.8090   23.1380 C   0  0  0  0  0  0  0  0  0  0  0  0
   13.0200   -2.1920   24.3660 C   0  0  0  0  0  0  0  0  0  0  0  0
   11.7730   -1.6100   23.8440 C   0  0  0  0  0  0  0  0  0  0  0  0
   12.5220   -2.2220   22.8830 F   0  0  0  0  0  0  0  0  0  0  0  0
   10.4110   -0.5500   24.3490 C   0  0  0  0  0  0  0  0  0  0  0  0
  1  2  1  0
  2  3  1  0
  3  4  2  0
  4  5  1  0
  5  6  2  0
  6  7  1  0
  7  8  1  0
  8  9  1  1
  9 10  1  0
 10 11  2  0
 10 12  1  0
 12 13  1  0
 13 14  2  0
 14 15  1  0
 15 16  2  0
 16 17  1  0
 13 18  1  0
 17 18  2  0
  8 19  1  0
 19 20  2  0
 20 21  1  0
 21 22  1  0
 21 23  2  0
 23 24  1  0
 19 25  1  0
 24 25  2  0
 25 26  1  0
  3 27  1  0
  7 27  2  0
M  END
