pyridine_urea_12659
     RDKit          3D

 20 22  0  0  0  0  0  0  0  0999 V2000
   13.7660   -2.6090   25.5450 C   0  0  0  0  0  0  0  0  0  0  0  0
   12.5520   -2.3240   24.6480 C   0  0  0  0  0  0  0  0  0  0  0  0
   12.2270   -1.0110   23.9880 N   0  0  0  0  0  0  0  0  0  0  0  0
   11.0610   -1.2100   23.2810 C   0  0  0  0  0  0  0  0  0  0  0  0
   11.0070   -2.3780   23.6360 N   0  0  0  0  0  0  0  0  0  0  0  0
   11.6130   -3.2790   24.3450 N   0  0  0  0  0  0  0  0  0  0  0  0
   11.9700   -1.3570   23.9620 C   0  0  0  0  0  0  0  0  0  0  0  0
   11.5740   -0.0170   24.4110 C   0  0  0  0  0  0  0  0  0  0  0  0
   10.8340    0.7260   23.4390 C   0  0  0  0  0  0  0  0  0  0  0  0
   10.4710   -0.2420   22.5760 C   0  0  2  0  0  0  0  0  0  0  0  0
    9.1830   -0.4220   22.4770 N   0  0  0  0  0  0  0  0  0  0  0  0
    8.4170    0.2570   21.5220 C   0  0  0  0  0  0  0  0  0  0  0  0
    8.7840    1.3810   21.1430 O   0  0  0  0  0  0  0  0  0  0  0  0
    7.2990   -0.4120   21.0900 N   0  0  0  0  0  0  0  0  0  0  0  0
    6.5130    0.1630   20.0740 C   0  0  0  0  0  0  0  0  0  0  0  0
    5.3310    0.8570   20.3770 C   0  0  0  0  0  0  0  0  0  0  0  0
    4.6250    1.4280   19.3140 C   0  0  0  0  0  0  0  0  0  0  0  0
    5.1510    1.2750   17.9380 C   0  0  0  0  0  0  0  0  0  0  0  0
    6.2620    0.6040   17.6630 N   0  0  0  0  0  0  0  0  0  0  0  0
    6.9220    0.0580   18.7500 C   0  0  0  0  0  0  0  0  0  0  0  0
  1  2  1  0
  2  3  1  0
  3  4  2  0
  4  5  1  0
  2  6  2  0
  5  6  1  0
  5  7  1  0
  7  8  1  0
  8  9  1  0
  4 10  1  0
  9 10  1  0
 10 11  1  1
 11 12  1  0
 12 13  2  0
 12 14  1  0
 14 15  1  0
 15 16  2  0
 16 17  1  0
 17 18  2  0
 18 19  1  0
 15 20  1  0
 19 20  2  0
M  END
