pyridine_urea_10388
     RDKit          3D

 23 25  0  0  0  0  0  0  0  0999 V2000
    3.9640   -7.1590   24.4700 C   0  0  0  0  0  0  0  0  0  0  0  0
    4.5170   -5.9890   24.9480 N   0  0  0  0  0  0  0  0  0  0  0  0
    3.9620   -5.4160   26.1710 N   0  0  0  0  0  0  0  0  0  0  0  0
    4.7280   -4.3240   26.3170 C   0  0  0  0  0  0  0  0  0  0  0  0
    5.7500   -4.1410   25.2720 C   0  0  0  0  0  0  0  0  0  0  0  0
    6.8320   -3.1200   24.9760 C   0  0  0  0  0  0  0  0  0  0  0  0
    6.8600   -2.1010   25.6490 O   0  0  0  0  0  0  0  0  0  0  0  0
    7.6780   -3.4880   23.9370 N   0  0  0  0  0  0  0  0  0  0  0  0
    8.9110   -2.8580   23.6660 C   0  0  0  0  0  0  0  0  0  0  0  0
    8.9870   -2.1550   22.4730 C   0  0  0  0  0  0  0  0  0  0  0  0
    9.1350   -0.8020   22.5670 N   0  0  0  0  0  0  0  0  0  0  0  0
    8.5560    0.0700   21.5610 C   0  0  0  0  0  0  0  0  0  0  0  0
    9.0500    1.1720   21.2730 O   0  0  0  0  0  0  0  0  0  0  0  0
    7.4160   -0.4820   21.0240 N   0  0  0  0  0  0  0  0  0  0  0  0
    6.5970    0.1370   20.0710 C   0  0  0  0  0  0  0  0  0  0  0  0
    5.4360    0.8810   20.3520 C   0  0  0  0  0  0  0  0  0  0  0  0
    4.7280    1.4610   19.3020 C   0  0  0  0  0  0  0  0  0  0  0  0
    5.1550    1.3110   17.9940 C   0  0  0  0  0  0  0  0  0  0  0  0
    6.2570    0.5940   17.7100 N   0  0  0  0  0  0  0  0  0  0  0  0
    6.9750    0.0070   18.7440 C   0  0  0  0  0  0  0  0  0  0  0  0
    7.3570   -4.5560   23.1130 C   0  0  0  0  0  0  0  0  0  0  0  0
    6.3570   -5.4740   23.2520 N   0  0  0  0  0  0  0  0  0  0  0  0
    5.5970   -5.2830   24.3450 C   0  0  0  0  0  0  0  0  0  0  0  0
  1  2  1  0
  2  3  1  0
  3  4  2  0
  4  5  1  0
  5  6  1  0
  6  7  2  0
  6  8  1  0
  8  9  1  0
  9 10  1  0
 10 11  1  0
 11 12  1  0
 12 13  2  0
 12 14  1  0
 14 15  1  0
 15 16  2  0
 16 17  1  0
 17 18  2  0
 18 19  1  0
 15 20  1  0
 19 20  2  0
  8 21  1  0
 21 22  2  0
  2 23  1  0
  5 23  2  0
 22 23  1  0
M  END
