pyridine_urea_13262
     RDKit          3D

 15 15  0  0  0  0  0  0  0  0999 V2000
    8.9510    1.2610   21.1870 O   0  0  0  0  0  0  0  0  0  0  0  0
    8.5430    0.1340   21.4930 C   0  0  0  0  0  0  0  0  0  0  0  0
    9.1550   -0.7010   22.3940 N   0  0  0  0  0  0  0  0  0  0  0  0
   10.3900   -0.4770   23.0390 C   0  0  0  0  0  0  0  0  0  0  0  0
   11.4910   -1.1800   22.5570 C   0  0  2  0  0  0  0  0  0  0  0  0
   11.6340   -2.3670   23.1630 F   0  0  0  0  0  0  0  0  0  0  0  0
   12.6650   -0.4460   22.7130 C   0  0  0  0  0  0  0  0  0  0  0  0
   13.5680   -1.0370   22.1530 O   0  0  0  0  0  0  0  0  0  0  0  0
    7.3990   -0.4550   20.9950 N   0  0  0  0  0  0  0  0  0  0  0  0
    6.6190    0.1100   20.0210 C   0  0  0  0  0  0  0  0  0  0  0  0
    5.3410    0.8360   20.4210 C   0  0  0  0  0  0  0  0  0  0  0  0
    4.6030    1.4100   19.3940 C   0  0  0  0  0  0  0  0  0  0  0  0
    5.1420    1.2580   17.9720 C   0  0  0  0  0  0  0  0  0  0  0  0
    6.2700    0.5970   17.6810 N   0  0  0  0  0  0  0  0  0  0  0  0
    6.9680    0.0510   18.6920 C   0  0  0  0  0  0  0  0  0  0  0  0
  1  2  2  0
  2  3  1  0
  3  4  1  0
  4  5  1  0
  5  6  1  1
  5  7  1  0
  7  8  1  0
  2  9  1  0
  9 10  1  0
 10 11  2  0
 11 12  1  0
 12 13  2  0
 13 14  1  0
 10 15  1  0
 14 15  2  0
M  END
