pyridine_urea_9046
     RDKit          3D

 19 20  0  0  0  0  0  0  0  0999 V2000
   13.6300   -0.8040   22.4540 N   0  0  0  0  0  0  0  0  0  0  0  0
   12.5230   -1.0200   22.4760 C   0  0  0  0  0  0  0  0  0  0  0  0
   11.1520   -1.3030   21.8370 C   0  0  0  0  0  0  0  0  0  0  0  0
    9.8440   -1.5270   22.5270 C   0  0  0  0  0  0  0  0  0  0  0  0
    8.6680   -1.7630   21.9270 N   0  0  0  0  0  0  0  0  0  0  0  0
    8.2400   -0.5390   21.4810 C   0  0  0  0  0  0  0  0  0  0  0  0
    8.9440    0.4590   21.3740 O   0  0  0  0  0  0  0  0  0  0  0  0
    6.9130   -0.5380   21.1560 N   0  0  0  0  0  0  0  0  0  0  0  0
    6.3510    0.1070   20.0540 C   0  0  0  0  0  0  0  0  0  0  0  0
    5.1940    0.8500   20.2290 C   0  0  0  0  0  0  0  0  0  0  0  0
    4.6850    1.4740   19.1180 C   0  0  0  0  0  0  0  0  0  0  0  0
    5.2710    1.3900   17.8660 C   0  0  0  0  0  0  0  0  0  0  0  0
    6.3680    0.6910   17.6620 N   0  0  0  0  0  0  0  0  0  0  0  0
    6.8820    0.0580   18.7800 C   0  0  0  0  0  0  0  0  0  0  0  0
    9.8350   -1.5020   23.9630 C   0  0  0  0  0  0  0  0  0  0  0  0
    8.6880   -1.7080   24.6220 F   0  0  0  0  0  0  0  0  0  0  0  0
   11.0180   -1.2820   24.5970 C   0  0  0  0  0  0  0  0  0  0  0  0
   12.3010   -1.0480   23.8610 C   0  0  0  0  0  0  0  0  0  0  0  0
   13.3480   -0.8560   24.6240 F   0  0  0  0  0  0  0  0  0  0  0  0
  1  2  1  0
  2  3  2  0
  3  4  1  0
  4  5  1  0
  5  6  1  0
  6  7  2  0
  6  8  1  0
  8  9  1  0
  9 10  2  0
 10 11  1  0
 11 12  2  0
 12 13  1  0
  9 14  1  0
 13 14  2  0
  4 15  2  0
 15 16  1  0
 15 17  1  0
  2 18  1  0
 17 18  2  0
 18 19  1  0
M  END
