pyridine_urea_10630
     RDKit          3D

 21 23  0  0  0  0  0  0  0  0999 V2000
    8.8380    1.3230   21.1260 O   0  0  0  0  0  0  0  0  0  0  0  0
    8.5360    0.1700   21.4570 C   0  0  0  0  0  0  0  0  0  0  0  0
    9.3080   -0.6000   22.2890 N   0  0  0  0  0  0  0  0  0  0  0  0
   10.4190   -0.0390   22.9500 C   0  0  0  0  0  0  0  0  0  0  0  0
   11.7430   -0.8000   23.2810 C   0  0  0  0  0  0  0  0  0  0  0  0
   12.9550   -0.5850   22.3720 C   0  0  0  0  0  0  0  0  0  0  0  0
   12.8550    0.6800   23.1110 C   0  0  0  0  0  0  0  0  0  0  0  0
   11.8150    0.7140   23.9380 C   0  0  0  0  0  0  0  0  0  0  0  0
   11.0920   -0.4850   23.8790 C   0  0  0  0  0  0  0  0  0  0  0  0
    9.9750   -0.6350   24.6650 F   0  0  0  0  0  0  0  0  0  0  0  0
   11.4400   -1.6250   23.0170 C   0  0  0  0  0  0  0  0  0  0  0  0
   12.5130   -1.8440   22.0660 C   0  0  0  0  0  0  0  0  0  0  0  0
   12.1670   -1.1100   24.7150 C   0  0  0  0  0  0  0  0  0  0  0  0
   11.6780   -2.2440   24.0820 C   0  0  0  0  0  0  0  0  0  0  0  0
    7.3920   -0.4720   21.0460 N   0  0  0  0  0  0  0  0  0  0  0  0
    6.6180    0.0880   20.0270 C   0  0  0  0  0  0  0  0  0  0  0  0
    5.3480    0.8630   20.3830 C   0  0  0  0  0  0  0  0  0  0  0  0
    4.6550    1.4100   19.3270 C   0  0  0  0  0  0  0  0  0  0  0  0
    5.1300    1.2340   18.0400 C   0  0  0  0  0  0  0  0  0  0  0  0
    6.2270    0.5540   17.6940 N   0  0  0  0  0  0  0  0  0  0  0  0
    6.9480   -0.0060   18.6940 C   0  0  0  0  0  0  0  0  0  0  0  0
  1  2  2  0
  2  3  1  0
  3  4  1  0
  5  4  1  0
  5  6  1  0
  6  7  2  0
  7  8  1  0
  8  9  2  0
  9 10  1  0
  9 11  1  0
  6 12  1  0
 11 12  2  0
  5 13  1  0
  5 14  1  0
 13 14  1  0
  2 15  1  0
 15 16  1  0
 16 17  2  0
 17 18  1  0
 18 19  2  0
 19 20  1  0
 16 21  1  0
 20 21  2  0
M  END
