pyridine_urea_14776
     RDKit          3D

 20 22  0  0  0  0  0  0  0  0999 V2000
    8.7190    1.2910   21.0880 O   0  0  0  0  0  0  0  0  0  0  0  0
    8.4850    0.0940   21.2840 C   0  0  0  0  0  0  0  0  0  0  0  0
    7.2540   -0.4790   21.0450 N   0  0  0  0  0  0  0  0  0  0  0  0
    6.4450    0.1240   20.0790 C   0  0  0  0  0  0  0  0  0  0  0  0
    5.2440    0.7850   20.2990 C   0  0  0  0  0  0  0  0  0  0  0  0
    4.5710    1.3590   19.2200 C   0  0  0  0  0  0  0  0  0  0  0  0
    5.1320    1.2460   17.9620 C   0  0  0  0  0  0  0  0  0  0  0  0
    6.2830    0.6060   17.7250 N   0  0  0  0  0  0  0  0  0  0  0  0
    6.9030    0.0650   18.7780 C   0  0  0  0  0  0  0  0  0  0  0  0
    9.4320   -0.8140   21.6930 N   0  0  0  0  0  0  0  0  0  0  0  0
   10.4950   -0.4260   22.5300 C   0  0  0  0  0  0  0  0  0  0  0  0
   10.8280    0.9210   22.7220 C   0  0  0  0  0  0  0  0  0  0  0  0
    9.8030    1.8700   22.8960 C   0  0  0  0  0  0  0  0  0  0  0  0
   10.1010    3.2190   23.0690 C   0  0  0  0  0  0  0  0  0  0  0  0
   11.4200    3.6540   23.0700 C   0  0  0  0  0  0  0  0  0  0  0  0
   12.5090    2.6680   22.8930 C   0  0  0  0  0  0  0  0  0  0  0  0
   12.1710    1.3210   22.7290 C   0  0  0  0  0  0  0  0  0  0  0  0
   13.1400    0.4100   22.5720 F   0  0  0  0  0  0  0  0  0  0  0  0
   11.6350   -1.2820   22.9880 C   0  0  0  0  0  0  0  0  0  0  0  0
   10.6850   -1.3360   23.7910 C   0  0  0  0  0  0  0  0  0  0  0  0
  1  2  2  0
  2  3  1  0
  3  4  1  0
  4  5  2  0
  5  6  1  0
  6  7  2  0
  7  8  1  0
  4  9  1  0
  8  9  2  0
  2 10  1  0
 11 10  1  0
 11 12  1  0
 12 13  2  0
 13 14  1  0
 14 15  2  0
 15 16  1  0
 12 17  1  0
 16 17  2  0
 17 18  1  0
 11 19  1  0
 11 20  1  0
 19 20  1  0
M  END
