pyridine_urea_4893
     RDKit          3D

 21 23  0  0  0  0  0  0  0  0999 V2000
    7.6370    1.3180   22.0030 O   0  0  0  0  0  0  0  0  0  0  0  0
    7.5110    0.1130   21.8890 C   0  0  0  0  0  0  0  0  0  0  0  0
    8.3450   -0.7450   22.4830 N   0  0  0  0  0  0  0  0  0  0  0  0
    9.4040   -0.9910   21.5900 C   0  0  0  0  0  0  0  0  0  0  0  0
   10.5890   -1.5340   22.2680 C   0  0  0  0  0  0  0  0  0  0  0  0
   11.7570   -1.9050   22.9490 C   0  0  0  0  0  0  0  0  0  0  0  0
   12.7180   -1.2380   23.5890 C   0  0  0  0  0  0  0  0  0  0  0  0
   13.6620   -2.0370   24.1370 C   0  0  0  0  0  0  0  0  0  0  0  0
   13.7470   -2.0790   25.3840 C   0  0  0  0  0  0  0  0  0  0  0  0
   12.9220   -3.1420   25.0050 C   0  0  0  0  0  0  0  0  0  0  0  0
   12.6390    0.0520   23.6220 C   0  0  0  0  0  0  0  0  0  0  0  0
   11.5410    0.3100   22.9810 C   0  0  0  0  0  0  0  0  0  0  0  0
   10.4220    0.0740   22.2910 C   0  0  0  0  0  0  0  0  0  0  0  0
    9.5260    0.9380   21.8120 F   0  0  0  0  0  0  0  0  0  0  0  0
    6.5990   -0.5330   21.1250 N   0  0  0  0  0  0  0  0  0  0  0  0
    6.1270    0.0930   19.9850 C   0  0  0  0  0  0  0  0  0  0  0  0
    4.9510    0.8010   20.1180 C   0  0  0  0  0  0  0  0  0  0  0  0
    4.4510    1.4790   18.9680 C   0  0  0  0  0  0  0  0  0  0  0  0
    5.1860    1.3710   17.8120 C   0  0  0  0  0  0  0  0  0  0  0  0
    6.3210    0.6760   17.6900 N   0  0  0  0  0  0  0  0  0  0  0  0
    6.7700    0.0490   18.7750 C   0  0  0  0  0  0  0  0  0  0  0  0
  1  2  2  0
  2  3  1  0
  3  4  1  0
  4  5  1  0
  5  6  2  0
  6  7  1  0
  7  8  1  0
  8  9  1  0
  8 10  1  0
  9 10  1  0
  7 11  2  0
 11 12  1  0
  5 13  1  0
 12 13  2  0
 13 14  1  0
  2 15  1  0
 15 16  1  0
 16 17  2  0
 17 18  1  0
 18 19  2  0
 19 20  1  0
 16 21  1  0
 20 21  2  0
M  END
