pyridine_urea_10413
     RDKit          3D

 23 25  0  0  0  0  0  0  0  0999 V2000
    8.5560    0.5130   21.0490 O   0  0  0  0  0  0  0  0  0  0  0  0
    8.3810   -0.6330   21.4410 C   0  0  0  0  0  0  0  0  0  0  0  0
    9.3320   -1.2620   22.2530 N   0  0  0  0  0  0  0  0  0  0  0  0
   10.2440   -0.2520   22.5350 C   0  0  0  0  0  0  0  0  0  0  0  0
    9.6010    1.0530   22.8010 C   0  0  0  0  0  0  0  0  0  0  0  0
   10.4060    2.2440   23.0340 C   0  0  0  0  0  0  0  0  0  0  0  0
   11.8630    2.3310   23.0450 C   0  0  0  0  0  0  0  0  0  0  0  0
   12.4030    3.5590   23.2520 N   0  0  0  0  0  0  0  0  0  0  0  0
   12.8790    4.1990   22.1640 C   0  0  0  0  0  0  0  0  0  0  0  0
   12.7400    5.5780   21.9580 C   0  0  0  0  0  0  0  0  0  0  0  0
   12.2510    6.3220   23.0370 C   0  0  0  0  0  0  0  0  0  0  0  0
   12.0190    5.6490   24.1620 N   0  0  0  0  0  0  0  0  0  0  0  0
   11.5140    4.4230   23.9530 C   0  0  0  0  0  0  0  0  0  0  0  0
   10.3910    4.1550   24.3700 O   0  0  0  0  0  0  0  0  0  0  0  0
   12.4440    0.8610   22.7910 C   0  0  0  0  0  0  0  0  0  0  0  0
   11.7970   -0.4220   22.5410 C   0  0  0  0  0  0  0  0  0  0  0  0
    7.1960   -1.1320   20.9980 N   0  0  0  0  0  0  0  0  0  0  0  0
    6.5000   -0.3870   20.0760 C   0  0  0  0  0  0  0  0  0  0  0  0
    5.1920    0.3390   20.3840 C   0  0  0  0  0  0  0  0  0  0  0  0
    4.5940    1.0740   19.3770 C   0  0  0  0  0  0  0  0  0  0  0  0
    5.1940    1.1350   18.1190 C   0  0  0  0  0  0  0  0  0  0  0  0
    6.3510    0.4940   17.8300 N   0  0  0  0  0  0  0  0  0  0  0  0
    6.9790   -0.2450   18.7850 C   0  0  0  0  0  0  0  0  0  0  0  0
  1  2  2  0
  2  3  1  0
  3  4  1  0
  4  5  2  0
  5  6  1  0
  6  7  2  0
  7  8  1  0
  8  9  1  0
  9 10  1  0
 10 11  1  0
 11 12  1  0
  8 13  1  0
 12 13  1  0
 13 14  2  0
  7 15  1  0
  4 16  1  0
 15 16  2  0
  2 17  1  0
 17 18  1  0
 18 19  2  0
 19 20  1  0
 20 21  2  0
 21 22  1  0
 18 23  1  0
 22 23  2  0
M  END
