pyridine_urea_8264
     RDKit          3D

 23 24  0  0  0  0  0  0  0  0999 V2000
    9.6230    6.7540   22.7150 C   0  0  0  0  0  0  0  0  0  0  0  0
   10.9640    6.5530   23.4230 C   0  0  0  0  0  0  0  0  0  0  0  0
   11.3850    5.1430   23.9750 C   0  0  0  0  0  0  0  0  0  0  0  0
   11.7310    4.1940   22.9200 N   0  0  0  0  0  0  0  0  0  0  0  0
   13.0280    3.7950   22.6890 C   0  0  0  0  0  0  0  0  0  0  0  0
   13.8510    4.5810   22.2450 O   0  0  0  0  0  0  0  0  0  0  0  0
   13.2630    2.3880   23.0360 N   0  0  0  0  0  0  0  0  0  0  0  0
   12.3130    1.4360   22.8930 C   0  0  0  0  0  0  0  0  0  0  0  0
   11.0260    1.8240   23.0050 C   0  0  0  0  0  0  0  0  0  0  0  0
    9.9050    0.8870   22.8300 C   0  0  0  0  0  0  0  0  0  0  0  0
   10.2210   -0.5370   22.5050 C   0  0  0  0  0  0  0  0  0  0  0  0
    9.1530   -1.3130   22.2960 N   0  0  0  0  0  0  0  0  0  0  0  0
    8.3440   -0.5300   21.5070 C   0  0  0  0  0  0  0  0  0  0  0  0
    8.6450    0.6030   21.1630 O   0  0  0  0  0  0  0  0  0  0  0  0
    7.0690   -1.1060   21.0690 N   0  0  0  0  0  0  0  0  0  0  0  0
    6.4300   -0.3260   20.0780 C   0  0  0  0  0  0  0  0  0  0  0  0
    5.1310    0.4210   20.4060 C   0  0  0  0  0  0  0  0  0  0  0  0
    4.5560    1.2300   19.2480 C   0  0  0  0  0  0  0  0  0  0  0  0
    5.2260    1.2300   18.0410 C   0  0  0  0  0  0  0  0  0  0  0  0
    6.3620    0.5580   17.8020 N   0  0  0  0  0  0  0  0  0  0  0  0
    6.9260   -0.1870   18.7900 C   0  0  0  0  0  0  0  0  0  0  0  0
   11.6010   -0.8690   22.4320 C   0  0  0  0  0  0  0  0  0  0  0  0
   12.6340    0.0840   22.6230 C   0  0  0  0  0  0  0  0  0  0  0  0
  1  2  2  3
  2  3  1  0
  3  4  1  0
  4  5  1  0
  5  6  2  0
  5  7  1  0
  7  8  1  0
  8  9  2  0
  9 10  1  0
 10 11  2  0
 11 12  1  0
 12 13  1  0
 13 14  2  0
 13 15  1  0
 15 16  1  0
 16 17  2  0
 17 18  1  0
 18 19  2  0
 19 20  1  0
 16 21  1  0
 20 21  2  0
 11 22  1  0
  8 23  1  0
 22 23  2  0
M  END
