pyridine_urea_5932
     RDKit          3D

 27 29  0  0  0  0  0  0  0  0999 V2000
    7.6900   -0.9180   24.1130 C   0  0  0  0  0  0  0  0  0  0  0  0
    8.9330   -1.6280   24.1210 O   0  0  0  0  0  0  0  0  0  0  0  0
   10.0150   -0.8800   23.7460 C   0  0  0  0  0  0  0  0  0  0  0  0
   10.8760   -1.3670   22.7860 C   0  0  0  0  0  0  0  0  0  0  0  0
   12.0600   -0.8660   22.2030 C   0  0  0  0  0  0  0  0  0  0  0  0
   11.6120   -2.0730   21.7870 C   0  0  0  0  0  0  0  0  0  0  0  0
   10.0790   -2.1010   21.9320 C   0  0  0  0  0  0  0  0  0  0  0  0
    9.3620   -0.8360   22.1980 N   0  0  0  0  0  0  0  0  0  0  0  0
    8.5240   -0.0780   21.4170 C   0  0  0  0  0  0  0  0  0  0  0  0
    8.9310    1.2000   21.0820 O   0  0  0  0  0  0  0  0  0  0  0  0
    7.2460   -0.6600   21.0170 N   0  0  0  0  0  0  0  0  0  0  0  0
    6.5520   -0.0080   20.0290 C   0  0  0  0  0  0  0  0  0  0  0  0
    5.4060    0.7110   20.3560 C   0  0  0  0  0  0  0  0  0  0  0  0
    4.7270    1.3730   19.3350 C   0  0  0  0  0  0  0  0  0  0  0  0
    5.1840    1.3140   18.0320 C   0  0  0  0  0  0  0  0  0  0  0  0
    6.2800    0.6190   17.7050 N   0  0  0  0  0  0  0  0  0  0  0  0
    6.9330   -0.0200   18.7010 C   0  0  0  0  0  0  0  0  0  0  0  0
   12.1810    0.3620   22.8660 C   0  0  0  0  0  0  0  0  0  0  0  0
   11.3880    0.9530   23.8070 C   0  0  0  0  0  0  0  0  0  0  0  0
   11.9310    2.1290   24.0640 O   0  0  0  0  0  0  0  0  0  0  0  0
   12.1530    3.0180   22.9730 C   0  0  0  0  0  0  0  0  0  0  0  0
   10.2570    0.2940   24.2850 C   0  0  0  0  0  0  0  0  0  0  0  0
    9.3660    0.7320   25.2510 O   0  0  0  0  0  0  0  0  0  0  0  0
    9.3440   -0.2060   26.3390 C   0  0  0  0  0  0  0  0  0  0  0  0
    8.4380    0.2430   27.3160 C   0  0  0  0  0  0  0  0  0  0  0  0
    8.0770   -0.4970   28.2570 C   0  0  0  0  0  0  0  0  0  0  0  0
    8.9260    0.6220   28.6590 C   0  0  0  0  0  0  0  0  0  0  0  0
  1  2  1  0
  2  3  1  0
  3  4  2  0
  4  5  1  0
  5  6  1  0
  6  7  1  0
  7  8  1  0
  8  9  1  0
  9 10  2  0
  9 11  1  0
 11 12  1  0
 12 13  2  0
 13 14  1  0
 14 15  2  0
 15 16  1  0
 12 17  1  0
 16 17  2  0
  5 18  2  0
 18 19  1  0
 19 20  1  0
 20 21  1  0
  3 22  1  0
 19 22  2  0
 22 23  1  0
 23 24  1  0
 24 25  1  0
 25 26  1  0
 25 27  1  0
 26 27  1  0
M  END
