pyridine_urea_3148
     RDKit          3D

 21 23  0  0  0  0  0  0  0  0999 V2000
   10.0690    1.7230   22.3880 C   0  0  0  0  0  0  0  0  0  0  0  0
   10.1690    0.3490   22.9750 C   0  0  1  0  0  0  0  0  0  0  0  0
    8.7820   -0.0520   23.0760 N   0  0  0  0  0  0  0  0  0  0  0  0
    8.2330    0.3310   21.7370 C   0  0  0  0  0  0  0  0  0  0  0  0
    8.7430    1.3140   21.1440 O   0  0  0  0  0  0  0  0  0  0  0  0
    7.1900   -0.4140   21.2460 N   0  0  0  0  0  0  0  0  0  0  0  0
    6.5000    0.1140   20.1500 C   0  0  0  0  0  0  0  0  0  0  0  0
    5.3300    0.8150   20.3730 C   0  0  0  0  0  0  0  0  0  0  0  0
    4.6130    1.4060   19.1870 C   0  0  0  0  0  0  0  0  0  0  0  0
    5.1630    1.2150   17.9440 C   0  0  0  0  0  0  0  0  0  0  0  0
    6.2900    0.5230   17.7390 N   0  0  0  0  0  0  0  0  0  0  0  0
    6.9230   -0.0050   18.8240 C   0  0  0  0  0  0  0  0  0  0  0  0
   10.7000   -0.8040   22.0460 C   0  0  0  0  0  0  0  0  0  0  0  0
   12.0540   -0.9860   21.9810 C   0  0  0  0  0  0  0  0  0  0  0  0
   12.4590   -1.3910   23.0820 C   0  0  0  0  0  0  0  0  0  0  0  0
   13.3290   -2.3980   23.2310 C   0  0  0  0  0  0  0  0  0  0  0  0
   13.6720   -2.6910   24.4950 C   0  0  0  0  0  0  0  0  0  0  0  0
   13.1750   -1.9870   25.5160 C   0  0  0  0  0  0  0  0  0  0  0  0
   12.2610   -0.9650   25.3140 C   0  0  0  0  0  0  0  0  0  0  0  0
   11.9460   -0.7400   24.0910 C   0  0  0  0  0  0  0  0  0  0  0  0
   10.9190    0.3560   24.1480 C   0  0  0  0  0  0  0  0  0  0  0  0
  2  1  1  6
  2  3  1  0
  3  4  1  0
  4  5  2  0
  4  6  1  0
  6  7  1  0
  7  8  2  0
  8  9  1  0
  9 10  2  0
 10 11  1  0
  7 12  1  0
 11 12  2  0
  2 13  1  0
 13 14  1  0
 14 15  1  0
 15 16  2  0
 16 17  1  0
 17 18  2  0
 18 19  1  0
 15 20  1  0
 19 20  2  0
  2 21  1  0
 20 21  1  0
M  END
