pyridine_urea_11393
     RDKit          3D

 16 17  0  0  0  0  0  0  0  0999 V2000
   13.3270   -2.4270   24.5400 C   0  0  0  0  0  0  0  0  0  0  0  0
   13.1360   -1.0400   24.2690 O   0  0  0  0  0  0  0  0  0  0  0  0
   12.9740   -0.7320   22.8810 C   0  0  0  0  0  0  0  0  0  0  0  0
   11.5800   -0.1690   22.6530 C   0  0  2  0  0  0  0  0  0  0  0  0
   10.7240   -0.4770   23.6210 C   0  0  0  0  0  0  0  0  0  0  0  0
   10.3440   -1.1970   22.4390 C   0  0  1  0  0  0  0  0  0  0  0  0
    8.9280   -0.9300   22.3730 N   0  0  0  0  0  0  0  0  0  0  0  0
    8.3950   -0.0310   21.4770 C   0  0  0  0  0  0  0  0  0  0  0  0
    8.9560    1.2020   21.2140 O   0  0  0  0  0  0  0  0  0  0  0  0
    7.2430   -0.5430   20.9280 N   0  0  0  0  0  0  0  0  0  0  0  0
    6.4120    0.1370   20.0300 C   0  0  0  0  0  0  0  0  0  0  0  0
    5.2700    0.7660   20.4280 C   0  0  0  0  0  0  0  0  0  0  0  0
    4.6480    1.4030   19.1950 C   0  0  0  0  0  0  0  0  0  0  0  0
    5.1920    1.3190   17.9300 C   0  0  0  0  0  0  0  0  0  0  0  0
    6.3050    0.6680   17.6750 N   0  0  0  0  0  0  0  0  0  0  0  0
    6.8710    0.1030   18.7270 C   0  0  0  0  0  0  0  0  0  0  0  0
  1  2  1  0
  2  3  1  0
  4  3  1  1
  4  5  1  0
  4  6  1  0
  5  6  1  0
  6  7  1  6
  7  8  1  0
  8  9  2  0
  8 10  1  0
 10 11  1  0
 11 12  2  0
 12 13  1  0
 13 14  2  0
 14 15  1  0
 11 16  1  0
 15 16  2  0
M  END
