pyridine_urea_11341
     RDKit          3D

 18 20  0  0  0  0  0  0  0  0999 V2000
    8.7710    0.9220   21.1250 O   0  0  0  0  0  0  0  0  0  0  0  0
    8.5550   -0.2560   21.3750 C   0  0  0  0  0  0  0  0  0  0  0  0
    7.3420   -0.8310   21.0770 N   0  0  0  0  0  0  0  0  0  0  0  0
    6.5970   -0.1380   20.0350 C   0  0  0  0  0  0  0  0  0  0  0  0
    5.3200    0.5960   20.4500 C   0  0  0  0  0  0  0  0  0  0  0  0
    4.6190    1.3010   19.3340 C   0  0  0  0  0  0  0  0  0  0  0  0
    5.1600    1.2350   18.0670 C   0  0  0  0  0  0  0  0  0  0  0  0
    6.2870    0.5670   17.7520 N   0  0  0  0  0  0  0  0  0  0  0  0
    6.9630   -0.0900   18.7180 C   0  0  0  0  0  0  0  0  0  0  0  0
    9.4950   -1.0740   21.9830 N   0  0  0  0  0  0  0  0  0  0  0  0
   10.1960   -0.4400   23.1200 C   0  0  0  0  0  0  0  0  0  0  0  0
    9.5530    0.7070   23.3320 C   0  0  0  0  0  0  0  0  0  0  0  0
   10.8860    1.3540   23.0180 C   0  0  0  0  0  0  0  0  0  0  0  0
   11.1440    2.7390   22.9300 C   0  0  0  0  0  0  0  0  0  0  0  0
   10.3640    3.8660   23.1040 C   0  0  0  0  0  0  0  0  0  0  0  0
   11.5000    4.6580   22.9460 C   0  0  0  0  0  0  0  0  0  0  0  0
   12.4290    3.5020   22.6100 C   0  0  0  0  0  0  0  0  0  0  0  0
   11.6470    0.0320   22.8860 C   0  0  0  0  0  0  0  0  0  0  0  0
  1  2  2  0
  2  3  1  0
  3  4  1  0
  4  5  2  0
  5  6  1  0
  6  7  2  0
  7  8  1  0
  4  9  1  0
  8  9  2  0
  2 10  1  0
 10 11  1  0
 11 12  1  0
 12 13  1  0
 13 14  2  3
 14 15  1  0
 15 16  1  0
 14 17  1  0
 16 17  1  0
 11 18  1  0
 13 18  1  0
M  END
