pyridine_urea_6466
     RDKit          3D

 18 19  0  0  0  0  0  0  0  0999 V2000
   13.4760   -2.3160   24.5800 C   0  0  0  0  0  0  0  0  0  0  0  0
   13.3230   -1.2130   24.1220 C   0  0  0  0  0  0  0  0  0  0  0  0
   13.1980   -0.0150   23.1720 C   0  0  0  0  0  0  0  0  0  0  0  0
   11.9080    0.4430   23.5640 N   0  0  0  0  0  0  0  0  0  0  0  0
   10.4180    0.3030   23.5080 C   0  0  0  0  0  0  0  0  0  0  0  0
    9.7800   -0.6520   22.7860 C   0  0  0  0  0  0  0  0  0  0  0  0
    8.5580   -1.0500   22.5050 N   0  0  0  0  0  0  0  0  0  0  0  0
    8.0540   -0.2410   21.5670 C   0  0  0  0  0  0  0  0  0  0  0  0
    8.6100    0.8100   21.2680 O   0  0  0  0  0  0  0  0  0  0  0  0
    6.9000   -0.7150   21.0310 N   0  0  0  0  0  0  0  0  0  0  0  0
    6.2640    0.0220   19.9390 C   0  0  0  0  0  0  0  0  0  0  0  0
    5.1040    0.6300   20.2870 C   0  0  0  0  0  0  0  0  0  0  0  0
    4.5720    1.3690   19.0730 C   0  0  0  0  0  0  0  0  0  0  0  0
    5.2200    1.3750   17.8520 C   0  0  0  0  0  0  0  0  0  0  0  0
    6.3500    0.7280   17.6490 N   0  0  0  0  0  0  0  0  0  0  0  0
    6.8390    0.0710   18.6910 C   0  0  0  0  0  0  0  0  0  0  0  0
   11.0180   -1.2650   22.2650 C   0  0  0  0  0  0  0  0  0  0  0  0
   12.0850   -0.6530   22.7050 N   0  0  0  0  0  0  0  0  0  0  0  0
  1  2  2  3
  2  3  1  0
  3  4  1  0
  4  5  1  0
  5  6  2  0
  6  7  1  0
  7  8  1  0
  8  9  2  0
  8 10  1  0
 10 11  1  0
 11 12  2  0
 12 13  1  0
 13 14  2  0
 14 15  1  0
 11 16  1  0
 15 16  2  0
  6 17  1  0
  4 18  1  0
 17 18  2  0
M  END
