pyridine_urea_592
     RDKit          3D

 24 25  0  0  0  0  0  0  0  0999 V2000
   13.3350   -2.4320   22.3960 C   0  0  0  0  0  0  0  0  0  0  0  0
   14.0630   -2.9160   23.4920 N   0  0  0  0  0  0  0  0  0  0  0  0
   13.3950   -2.6540   24.9650 S   0  0  0  0  0  0  0  0  0  0  0  0
   14.3510   -2.3090   25.9780 O   0  0  0  0  0  0  0  0  0  0  0  0
   12.3900   -3.6320   25.1150 O   0  0  0  0  0  0  0  0  0  0  0  0
   12.4370   -1.3810   24.3740 C   0  0  0  0  0  0  0  0  0  0  0  0
   12.2830   -0.1420   24.6780 C   0  0  0  0  0  0  0  0  0  0  0  0
   11.4100    0.6080   24.0220 C   0  0  0  0  0  0  0  0  0  0  0  0
   11.2260    1.9020   24.3030 F   0  0  0  0  0  0  0  0  0  0  0  0
   10.6640    0.0720   23.0310 C   0  0  0  0  0  0  0  0  0  0  0  0
    9.6660    1.3670   22.4710 Cl  0  0  0  0  0  0  0  0  0  0  0  0
   10.5590   -1.2570   22.4160 C   0  0  0  0  0  0  0  0  0  0  0  0
    9.6250   -0.3720   21.7880 C   0  0  0  0  0  0  0  0  0  0  0  0
    8.3370   -0.5590   22.4070 N   0  0  0  0  0  0  0  0  0  0  0  0
    7.6060    0.1150   21.4300 C   0  0  0  0  0  0  0  0  0  0  0  0
    7.9350    1.2240   21.0330 O   0  0  0  0  0  0  0  0  0  0  0  0
    6.5590   -0.5100   20.9020 N   0  0  0  0  0  0  0  0  0  0  0  0
    5.9760    0.1660   19.8860 C   0  0  0  0  0  0  0  0  0  0  0  0
    4.7750    0.8610   19.9840 C   0  0  0  0  0  0  0  0  0  0  0  0
    4.2970    1.5630   18.8880 C   0  0  0  0  0  0  0  0  0  0  0  0
    5.0820    1.5510   17.6400 C   0  0  0  0  0  0  0  0  0  0  0  0
    6.2660    0.8190   17.6010 N   0  0  0  0  0  0  0  0  0  0  0  0
    6.6790    0.1620   18.6960 C   0  0  0  0  0  0  0  0  0  0  0  0
   11.6010   -1.8720   23.2750 C   0  0  0  0  0  0  0  0  0  0  0  0
  1  2  1  0
  3  2  1  0
  3  4  2  0
  3  5  2  0
  3  6  1  0
  6  7  2  0
  7  8  1  0
  8  9  1  0
  8 10  2  0
 10 11  1  0
 10 12  1  0
 12 13  1  0
 13 14  1  0
 14 15  1  0
 15 16  2  0
 15 17  1  0
 17 18  1  0
 18 19  2  0
 19 20  1  0
 20 21  2  0
 21 22  1  0
 18 23  1  0
 22 23  2  0
  6 24  1  0
 12 24  2  0
M  END
