pyridine_urea_10517
     RDKit          3D

 22 24  0  0  0  0  0  0  0  0999 V2000
    2.0060    4.6810   18.4140 C   0  0  0  0  0  0  0  0  0  0  0  0
    2.7280    3.4760   19.0560 C   0  0  0  0  0  0  0  0  0  0  0  0
    2.2220    2.9410   20.3890 C   0  0  0  0  0  0  0  0  0  0  0  0
    3.0110    1.7490   20.9040 C   0  0  0  0  0  0  0  0  0  0  0  0
    4.1630    1.2150   20.0990 C   0  0  0  0  0  0  0  0  0  0  0  0
    4.5960    1.7410   18.8740 C   0  0  0  0  0  0  0  0  0  0  0  0
    5.6440    1.0670   18.3360 N   0  0  0  0  0  0  0  0  0  0  0  0
    5.2230   -0.1720   18.3680 C   0  0  0  0  0  0  0  0  0  0  0  0
    5.5780   -0.8320   19.5130 C   0  0  0  0  0  0  0  0  0  0  0  0
    6.3080    0.0030   20.3580 C   0  0  1  0  0  0  0  0  0  0  0  0
    7.4120   -0.6380   20.8510 N   0  0  0  0  0  0  0  0  0  0  0  0
    8.5030    0.0050   21.4500 C   0  0  0  0  0  0  0  0  0  0  0  0
    8.8370    1.1690   21.1740 O   0  0  0  0  0  0  0  0  0  0  0  0
    9.1230   -0.8100   22.3240 N   0  0  0  0  0  0  0  0  0  0  0  0
   10.3910   -0.4160   22.5160 C   0  0  0  0  0  0  0  0  0  0  0  0
   10.6920    0.9090   22.9060 C   0  0  0  0  0  0  0  0  0  0  0  0
   12.1760    1.1800   23.0510 C   0  0  0  0  0  0  0  0  0  0  0  0
   13.1180    0.2380   22.8350 C   0  0  0  0  0  0  0  0  0  0  0  0
   12.8520   -1.0180   22.4730 N   0  0  0  0  0  0  0  0  0  0  0  0
   11.4430   -1.3190   22.3170 C   0  0  0  0  0  0  0  0  0  0  0  0
    6.7080    1.0290   19.2140 C   0  0  0  0  0  0  0  0  0  0  0  0
    3.9460    2.8500   18.3080 C   0  0  0  0  0  0  0  0  0  0  0  0
  1  2  1  0
  2  3  2  0
  3  4  1  0
  4  5  2  0
  5  6  1  0
  6  7  1  0
  7  8  1  0
  8  9  1  0
  9 10  1  0
 10 11  1  6
 11 12  1  0
 12 13  2  0
 12 14  1  0
 14 15  1  0
 15 16  2  0
 16 17  1  0
 17 18  2  0
 18 19  1  0
 15 20  1  0
 19 20  2  0
  7 21  1  0
 10 21  1  0
  2 22  1  0
  6 22  2  0
M  END
