pyridine_urea_11100
     RDKit          3D

 18 19  0  0  0  0  0  0  0  0999 V2000
   13.4320   -2.0170   23.1420 C   0  0  0  0  0  0  0  0  0  0  0  0
   12.9160   -0.9400   23.0620 C   0  0  0  0  0  0  0  0  0  0  0  0
   12.9290    0.6060   23.0420 C   0  0  0  0  0  0  0  0  0  0  0  0
   11.7800    1.4720   22.8910 C   0  0  0  0  0  0  0  0  0  0  0  0
   11.8250    3.5610   22.8420 I   0  0  0  0  0  0  0  0  0  0  0  0
   10.6600    0.8020   22.7610 C   0  0  0  0  0  0  0  0  0  0  0  0
   10.2910   -0.6550   22.7240 C   0  0  0  0  0  0  0  0  0  0  0  0
    8.9080   -1.0840   22.5340 N   0  0  0  0  0  0  0  0  0  0  0  0
    8.2010   -0.3050   21.6560 C   0  0  0  0  0  0  0  0  0  0  0  0
    8.5100    0.9770   21.1110 O   0  0  0  0  0  0  0  0  0  0  0  0
    6.9470   -0.8190   21.1630 N   0  0  0  0  0  0  0  0  0  0  0  0
    6.4100   -0.1090   20.0030 C   0  0  0  0  0  0  0  0  0  0  0  0
    5.1520    0.6700   20.2350 C   0  0  0  0  0  0  0  0  0  0  0  0
    4.5550    1.3990   19.2080 C   0  0  0  0  0  0  0  0  0  0  0  0
    5.1430    1.4040   17.9400 C   0  0  0  0  0  0  0  0  0  0  0  0
    6.3640    0.6370   17.7310 N   0  0  0  0  0  0  0  0  0  0  0  0
    6.9380   -0.0760   18.7440 C   0  0  0  0  0  0  0  0  0  0  0  0
   11.5220   -1.5970   22.8870 C   0  0  0  0  0  0  0  0  0  0  0  0
  1  2  1  0
  2  3  2  0
  3  4  1  0
  4  5  1  0
  4  6  2  0
  6  7  1  0
  7  8  1  0
  8  9  1  0
  9 10  2  0
  9 11  1  0
 11 12  1  0
 12 13  2  0
 13 14  1  0
 14 15  2  0
 15 16  1  0
 12 17  1  0
 16 17  2  0
  2 18  1  0
  7 18  2  0
M  END
