pyridine_urea_4458
     RDKit          3D

 23 25  0  0  0  0  0  0  0  0999 V2000
    8.8220    1.1790   21.0990 O   0  0  0  0  0  0  0  0  0  0  0  0
    8.3790    0.0900   21.4960 C   0  0  0  0  0  0  0  0  0  0  0  0
    9.0710   -0.7370   22.3670 N   0  0  0  0  0  0  0  0  0  0  0  0
   10.5120   -0.6030   22.5180 C   0  0  0  0  0  0  0  0  0  0  0  0
   10.8750    0.8870   22.8850 C   0  0  0  0  0  0  0  0  0  0  0  0
   12.3270    1.2240   23.0830 C   0  0  0  0  0  0  0  0  0  0  0  0
   12.8960   -0.0730   22.8450 C   0  0  0  0  0  0  0  0  0  0  0  0
   12.6040   -1.3550   22.5300 N   0  0  0  0  0  0  0  0  0  0  0  0
   11.3030   -1.8280   22.3070 C   0  0  0  0  0  0  0  0  0  0  0  0
    7.1320   -0.4320   21.1340 N   0  0  0  0  0  0  0  0  0  0  0  0
    6.4290    0.1770   20.0670 C   0  0  0  0  0  0  0  0  0  0  0  0
    6.9160    0.0990   18.7840 C   0  0  0  0  0  0  0  0  0  0  0  0
    6.4470    0.5920   17.6880 N   0  0  0  0  0  0  0  0  0  0  0  0
    5.2940    1.2820   17.8630 C   0  0  0  0  0  0  0  0  0  0  0  0
    4.7480    1.3870   19.1210 C   0  0  0  0  0  0  0  0  0  0  0  0
    5.2270    0.8670   20.3360 C   0  0  0  0  0  0  0  0  0  0  0  0
    4.6020    1.0340   21.5240 N   0  0  0  0  0  0  0  0  0  0  0  0
    3.2710    1.3590   21.4880 C   0  0  0  0  0  0  0  0  0  0  0  0
    2.7710    2.0360   20.2400 C   0  0  0  0  0  0  0  0  0  0  0  0
    1.4320    2.3460   20.2350 C   0  0  0  0  0  0  0  0  0  0  0  0
    0.5400    2.0440   21.3670 C   0  0  0  0  0  0  0  0  0  0  0  0
    1.0160    1.4210   22.5150 C   0  0  0  0  0  0  0  0  0  0  0  0
    2.3780    1.0810   22.5670 C   0  0  0  0  0  0  0  0  0  0  0  0
  1  2  2  0
  2  3  1  0
  3  4  1  0
  4  5  2  0
  5  6  1  0
  6  7  2  0
  7  8  1  0
  4  9  1  0
  8  9  2  0
  2 10  1  0
 10 11  1  0
 11 12  2  0
 12 13  1  0
 13 14  2  0
 14 15  1  0
 11 16  1  0
 15 16  2  0
 16 17  1  0
 17 18  1  0
 18 19  2  0
 19 20  1  0
 20 21  2  0
 21 22  1  0
 18 23  1  0
 22 23  2  0
M  END
