pyridine_urea_320
     RDKit          3D

 27 29  0  0  0  0  0  0  0  0999 V2000
   13.6110   -1.7590   23.0640 C   0  0  0  0  0  0  0  0  0  0  0  0
   13.6080   -2.8390   23.5590 C   0  0  0  0  0  0  0  0  0  0  0  0
   13.4000   -2.7320   25.3440 S   0  0  0  0  0  0  0  0  0  0  0  0
   14.1330   -3.7720   26.0320 O   0  0  0  0  0  0  0  0  0  0  0  0
   13.4400   -1.3450   25.7050 O   0  0  0  0  0  0  0  0  0  0  0  0
   11.7640   -3.1970   25.2230 C   0  0  0  0  0  0  0  0  0  0  0  0
   11.0100   -4.2770   25.8970 C   0  0  0  0  0  0  0  0  0  0  0  0
    9.6980   -4.3980   25.5710 C   0  0  0  0  0  0  0  0  0  0  0  0
    9.0170   -3.4840   24.5700 C   0  0  0  0  0  0  0  0  0  0  0  0
    9.8410   -2.4190   23.9450 C   0  0  0  0  0  0  0  0  0  0  0  0
   11.1580   -2.3340   24.3090 C   0  0  0  0  0  0  0  0  0  0  0  0
   12.0520   -1.3000   23.7790 N   0  0  0  0  0  0  0  0  0  0  0  0
   11.7490   -0.1180   24.3070 C   0  0  0  0  0  0  0  0  0  0  0  0
   10.4120    0.0330   24.0630 C   0  0  0  0  0  0  0  0  0  0  0  0
    9.9280    0.0900   22.7440 C   0  0  0  0  0  0  0  0  0  0  0  0
    8.5930   -0.0040   22.6570 N   0  0  0  0  0  0  0  0  0  0  0  0
    8.0180    0.3710   21.4730 C   0  0  0  0  0  0  0  0  0  0  0  0
    8.4300    1.5560   20.7840 O   0  0  0  0  0  0  0  0  0  0  0  0
    7.0660   -0.4800   21.0620 N   0  0  0  0  0  0  0  0  0  0  0  0
    6.3900    0.1110   20.0830 C   0  0  0  0  0  0  0  0  0  0  0  0
    5.1170    0.8600   20.2300 C   0  0  0  0  0  0  0  0  0  0  0  0
    4.4890    1.5020   19.0410 C   0  0  0  0  0  0  0  0  0  0  0  0
    5.1400    1.3690   17.8170 C   0  0  0  0  0  0  0  0  0  0  0  0
    6.2900    0.6850   17.6480 N   0  0  0  0  0  0  0  0  0  0  0  0
    6.9060    0.0510   18.8090 C   0  0  0  0  0  0  0  0  0  0  0  0
   10.6990   -1.1020   22.1080 C   0  0  0  0  0  0  0  0  0  0  0  0
   12.0280   -1.1480   22.3570 C   0  0  0  0  0  0  0  0  0  0  0  0
  1  2  1  0
  3  2  1  0
  3  4  2  0
  3  5  2  0
  3  6  1  0
  6  7  2  0
  7  8  1  0
  8  9  2  0
  9 10  1  0
  6 11  1  0
 10 11  2  0
 11 12  1  0
 12 13  1  0
 13 14  1  0
 14 15  1  0
 15 16  1  0
 16 17  1  0
 17 18  2  0
 17 19  1  0
 19 20  1  0
 20 21  2  0
 21 22  1  0
 22 23  2  0
 23 24  1  0
 20 25  1  0
 24 25  2  0
 15 26  1  0
 12 27  1  0
 26 27  1  0
M  END
