pyridine_urea_11035
     RDKit          3D

 19 20  0  0  0  0  0  0  0  0999 V2000
   11.7400   -1.6110   23.6310 C   0  0  0  0  0  0  0  0  0  0  0  0
   11.7260   -0.1390   23.2570 C   0  0  0  0  0  0  0  0  0  0  0  0
   13.0720   -0.5260   23.2330 C   0  0  0  0  0  0  0  0  0  0  0  0
   12.6470    0.6010   22.9780 C   0  0  0  0  0  0  0  0  0  0  0  0
   11.2220    0.5510   23.0960 C   0  0  0  0  0  0  0  0  0  0  0  0
   10.2730   -0.5760   23.4440 C   0  0  1  0  0  0  0  0  0  0  0  0
    9.5710    0.0910   24.6180 C   0  0  0  0  0  0  0  0  0  0  0  0
    9.3730   -0.8420   22.3060 N   0  0  0  0  0  0  0  0  0  0  0  0
    8.6750    0.1020   21.5360 C   0  0  0  0  0  0  0  0  0  0  0  0
    9.0910    1.2430   21.2990 O   0  0  0  0  0  0  0  0  0  0  0  0
    7.4120   -0.4620   21.0680 N   0  0  0  0  0  0  0  0  0  0  0  0
    6.6340    0.1110   20.0990 C   0  0  0  0  0  0  0  0  0  0  0  0
    5.4950    0.8690   20.3760 C   0  0  0  0  0  0  0  0  0  0  0  0
    4.7380    1.4510   19.3590 C   0  0  0  0  0  0  0  0  0  0  0  0
    5.1500    1.2570   18.0570 C   0  0  0  0  0  0  0  0  0  0  0  0
    6.2300    0.5310   17.7250 N   0  0  0  0  0  0  0  0  0  0  0  0
    6.9670   -0.0430   18.7720 C   0  0  0  0  0  0  0  0  0  0  0  0
   10.8980    1.7250   22.8410 C   0  0  0  0  0  0  0  0  0  0  0  0
   12.2570    1.2670   22.8540 C   0  0  0  0  0  0  0  0  0  0  0  0
  1  2  1  0
  2  3  2  0
  3  4  1  0
  4  5  2  0
  5  6  1  0
  6  7  1  1
  6  8  1  0
  8  9  1  0
  9 10  2  0
  9 11  1  0
 11 12  1  0
 12 13  2  0
 13 14  1  0
 14 15  2  0
 15 16  1  0
 12 17  1  0
 16 17  2  0
  5 18  1  0
  2 19  1  0
 18 19  2  0
M  END
