pyridine_urea_547
     RDKit          3D

 24 26  0  0  0  0  0  0  0  0999 V2000
   11.4470    6.9670   25.7240 C   0  0  0  0  0  0  0  0  0  0  0  0
   11.0330    5.6720   25.0430 C   0  0  0  0  0  0  0  0  0  0  0  0
   11.7900    5.0820   24.0920 C   0  0  0  0  0  0  0  0  0  0  0  0
   11.1820    3.9370   23.6700 C   0  0  0  0  0  0  0  0  0  0  0  0
   11.6810    3.0710   22.7070 C   0  0  0  0  0  0  0  0  0  0  0  0
   12.2910    3.5480   21.7650 O   0  0  0  0  0  0  0  0  0  0  0  0
   11.4930    1.6610   22.8100 N   0  0  0  0  0  0  0  0  0  0  0  0
   12.7370    0.8720   23.0770 C   0  0  0  0  0  0  0  0  0  0  0  0
   12.4890   -0.6180   22.8080 C   0  0  0  0  0  0  0  0  0  0  0  0
   11.1960   -1.0470   23.1030 C   0  0  0  0  0  0  0  0  0  0  0  0
   10.2350   -0.2510   22.4790 C   0  0  1  0  0  0  0  0  0  0  0  0
    8.8780   -0.7290   22.7060 N   0  0  0  0  0  0  0  0  0  0  0  0
    8.1330   -0.7210   21.5200 C   0  0  0  0  0  0  0  0  0  0  0  0
    8.6750   -0.9630   20.5120 O   0  0  0  0  0  0  0  0  0  0  0  0
    6.8290   -0.4240   21.5770 N   0  0  0  0  0  0  0  0  0  0  0  0
    6.3220    0.1200   20.3080 C   0  0  0  0  0  0  0  0  0  0  0  0
    5.0830    0.9650   20.3800 C   0  0  0  0  0  0  0  0  0  0  0  0
    4.5810    1.5080   19.1770 C   0  0  0  0  0  0  0  0  0  0  0  0
    5.2260    1.2580   17.9740 C   0  0  0  0  0  0  0  0  0  0  0  0
    6.3370    0.4930   17.9200 N   0  0  0  0  0  0  0  0  0  0  0  0
    6.9070   -0.0900   19.0490 C   0  0  0  0  0  0  0  0  0  0  0  0
   10.2090    1.1050   22.8250 C   0  0  0  0  0  0  0  0  0  0  0  0
    9.9580    3.8640   24.4440 O   0  0  0  0  0  0  0  0  0  0  0  0
    9.8910    4.9910   25.3150 N   0  0  0  0  0  0  0  0  0  0  0  0
  1  2  1  0
  2  3  1  0
  3  4  2  0
  4  5  1  0
  5  6  2  0
  5  7  1  0
  7  8  1  0
  8  9  1  0
  9 10  1  0
 10 11  1  0
 11 12  1  1
 12 13  1  0
 13 14  2  0
 13 15  1  0
 15 16  1  0
 16 17  2  0
 17 18  1  0
 18 19  2  0
 19 20  1  0
 16 21  1  0
 20 21  2  0
  7 22  1  0
 11 22  1  0
  4 23  1  0
  2 24  2  0
 23 24  1  0
M  END
