pyridine_urea_15247
     RDKit          3D

 17 18  0  0  0  0  0  0  0  0999 V2000
   12.0300    3.0090   22.7680 C   0  0  0  0  0  0  0  0  0  0  0  0
   11.8940    1.5970   22.9160 O   0  0  0  0  0  0  0  0  0  0  0  0
   10.5430    1.1240   22.8120 C   0  0  0  0  0  0  0  0  0  0  0  0
   10.4650   -0.3450   22.4360 C   0  0  2  0  0  0  0  0  0  0  0  0
    9.2060   -0.8360   22.4670 N   0  0  0  0  0  0  0  0  0  0  0  0
    8.4330   -0.1180   21.6060 C   0  0  0  0  0  0  0  0  0  0  0  0
    8.8380    1.1730   21.1180 O   0  0  0  0  0  0  0  0  0  0  0  0
    7.1900   -0.7580   21.2200 N   0  0  0  0  0  0  0  0  0  0  0  0
    6.5250   -0.1120   20.1980 C   0  0  0  0  0  0  0  0  0  0  0  0
    5.2120    0.6580   20.4020 C   0  0  0  0  0  0  0  0  0  0  0  0
    4.5500    1.3670   19.2060 C   0  0  0  0  0  0  0  0  0  0  0  0
    5.1880    1.2760   17.9750 C   0  0  0  0  0  0  0  0  0  0  0  0
    6.3240    0.6140   17.7460 N   0  0  0  0  0  0  0  0  0  0  0  0
    6.9560   -0.0320   18.7380 C   0  0  0  0  0  0  0  0  0  0  0  0
   11.4300   -1.1550   23.2760 C   0  0  0  0  0  0  0  0  0  0  0  0
   12.5110   -1.3470   22.6400 C   0  0  0  0  0  0  0  0  0  0  0  0
   12.8100   -0.4930   23.7570 C   0  0  0  0  0  0  0  0  0  0  0  0
  1  2  1  0
  2  3  1  0
  4  3  1  1
  4  5  1  0
  5  6  1  0
  6  7  2  0
  6  8  1  0
  8  9  1  0
  9 10  2  0
 10 11  1  0
 11 12  2  0
 12 13  1  0
  9 14  1  0
 13 14  2  0
  4 15  1  0
 15 16  1  0
 15 17  1  0
 16 17  1  0
M  END
