pyridine_urea_6215
     RDKit          3D

 24 26  0  0  0  0  0  0  0  0999 V2000
    8.5260    0.9310   20.8840 O   0  0  0  0  0  0  0  0  0  0  0  0
    8.3010   -0.2710   21.0480 C   0  0  0  0  0  0  0  0  0  0  0  0
    7.0740   -0.8270   20.8120 N   0  0  0  0  0  0  0  0  0  0  0  0
    6.3780   -0.0660   19.8330 C   0  0  0  0  0  0  0  0  0  0  0  0
    5.0440    0.5550   20.2110 C   0  0  0  0  0  0  0  0  0  0  0  0
    4.4240    1.3440   19.1150 C   0  0  0  0  0  0  0  0  0  0  0  0
    5.0910    1.4390   17.9050 C   0  0  0  0  0  0  0  0  0  0  0  0
    6.2730    0.8560   17.6370 N   0  0  0  0  0  0  0  0  0  0  0  0
    6.8710    0.1320   18.5880 C   0  0  0  0  0  0  0  0  0  0  0  0
    9.2380   -1.1460   21.4940 N   0  0  0  0  0  0  0  0  0  0  0  0
    9.4000   -0.9390   22.8960 C   0  0  0  0  0  0  0  0  0  0  0  0
    8.9760   -2.0470   23.4340 C   0  0  0  0  0  0  0  0  0  0  0  0
    9.2250   -1.4640   24.7810 C   0  0  0  0  0  0  0  0  0  0  0  0
    8.3230   -0.6260   25.1850 N   0  0  0  0  0  0  0  0  0  0  0  0
    8.0670   -0.5060   26.5160 C   0  0  0  0  0  0  0  0  0  0  0  0
    8.8850   -1.1320   27.4920 O   0  0  0  0  0  0  0  0  0  0  0  0
    7.0020    0.2140   27.0630 C   0  0  0  0  0  0  0  0  0  0  0  0
    6.1120    1.0060   26.4070 C   0  0  0  0  0  0  0  0  0  0  0  0
    5.0170    1.6930   27.2360 C   0  0  0  0  0  0  0  0  0  0  0  0
    3.7090    2.7470   26.8850 Cl  0  0  0  0  0  0  0  0  0  0  0  0
    5.6950    0.9720   28.4200 C   0  0  0  0  0  0  0  0  0  0  0  0
    6.7710    0.1690   28.3300 N   0  0  0  0  0  0  0  0  0  0  0  0
    7.9310    0.3400   24.2620 C   0  0  0  0  0  0  0  0  0  0  0  0
    8.5160    0.3910   22.9940 C   0  0  0  0  0  0  0  0  0  0  0  0
  1  2  2  0
  2  3  1  0
  3  4  1  0
  4  5  2  0
  5  6  1  0
  6  7  2  0
  7  8  1  0
  4  9  1  0
  8  9  2  0
  2 10  1  0
 10 11  1  0
 11 12  1  0
 12 13  1  0
 13 14  1  0
 14 15  1  0
 15 16  2  0
 15 17  1  0
 17 18  2  0
 18 19  1  0
 19 20  1  0
 19 21  2  0
 17 22  1  0
 21 22  1  0
 14 23  1  0
 11 24  1  0
 23 24  1  0
M  END
