pyridine_urea_10043
     RDKit          3D

 24 26  0  0  0  0  0  0  0  0999 V2000
    8.6190    1.2410   21.0030 O   0  0  0  0  0  0  0  0  0  0  0  0
    8.1620    0.1570   21.3880 C   0  0  0  0  0  0  0  0  0  0  0  0
    8.7610   -0.6270   22.3100 N   0  0  0  0  0  0  0  0  0  0  0  0
    9.9200   -0.1910   22.9080 C   0  0  0  0  0  0  0  0  0  0  0  0
   10.8660   -1.0580   23.3260 C   0  0  2  0  0  0  0  0  0  0  0  0
   11.6070   -0.4050   24.3130 C   0  0  0  0  0  0  0  0  0  0  0  0
   12.1210    0.7070   23.7500 C   0  0  0  0  0  0  0  0  0  0  0  0
   12.9300    0.3540   22.7440 C   0  0  0  0  0  0  0  0  0  0  0  0
   12.8620   -1.0000   22.5690 N   0  0  0  0  0  0  0  0  0  0  0  0
   13.3700   -1.8530   23.4980 C   0  0  0  0  0  0  0  0  0  0  0  0
   12.5320   -2.5540   24.3350 C   0  0  0  0  0  0  0  0  0  0  0  0
   13.1280   -3.2770   25.3550 C   0  0  0  0  0  0  0  0  0  0  0  0
   12.3420   -4.0130   26.2020 C   0  0  0  0  0  0  0  0  0  0  0  0
   10.9640   -4.0350   26.0750 C   0  0  0  0  0  0  0  0  0  0  0  0
   10.3080   -3.2630   25.0300 C   0  0  0  0  0  0  0  0  0  0  0  0
   11.1190   -2.5390   24.1670 C   0  0  0  0  0  0  0  0  0  0  0  0
   11.5870   -1.5780   22.2440 C   0  0  0  0  0  0  0  0  0  0  0  0
    6.9910   -0.4030   20.9560 N   0  0  0  0  0  0  0  0  0  0  0  0
    6.3700    0.1680   19.9380 C   0  0  0  0  0  0  0  0  0  0  0  0
    5.1890    0.8660   20.1600 C   0  0  0  0  0  0  0  0  0  0  0  0
    4.5560    1.4890   19.0980 C   0  0  0  0  0  0  0  0  0  0  0  0
    5.1320    1.3870   17.8520 C   0  0  0  0  0  0  0  0  0  0  0  0
    6.2650    0.7060   17.6150 N   0  0  0  0  0  0  0  0  0  0  0  0
    6.8540    0.1140   18.6600 C   0  0  0  0  0  0  0  0  0  0  0  0
  1  2  2  0
  2  3  1  0
  3  4  1  0
  5  4  1  6
  5  6  1  0
  6  7  1  0
  7  8  1  0
  8  9  1  0
  9 10  1  0
 10 11  1  0
 11 12  2  0
 12 13  1  0
 13 14  2  0
 14 15  1  0
 11 16  1  0
 15 16  2  0
  5 17  1  0
  9 17  1  0
  2 18  1  0
 18 19  1  0
 19 20  2  0
 20 21  1  0
 21 22  2  0
 22 23  1  0
 19 24  1  0
 23 24  2  0
M  END
