pyridine_urea_1
     RDKit          3D

 24 26  0  0  0  0  0  0  0  0999 V2000
    8.9340    1.2040   21.2000 O   0  0  0  0  0  0  0  0  0  0  0  0
    8.4670    0.1130   21.5520 C   0  0  0  0  0  0  0  0  0  0  0  0
    9.0120   -0.6120   22.5850 N   0  0  0  0  0  0  0  0  0  0  0  0
   10.3530   -1.1370   22.4280 C   0  0  0  0  0  0  0  0  0  0  0  0
   11.4660   -0.2520   22.9990 C   0  0  0  0  0  0  0  0  0  0  0  0
   11.2520    1.2210   22.9250 C   0  0  0  0  0  0  0  0  0  0  0  0
   12.2920    2.0950   22.7380 N   0  0  0  0  0  0  0  0  0  0  0  0
   11.7380    3.2840   22.7650 C   0  0  0  0  0  0  0  0  0  0  0  0
   12.3180    4.5190   22.6410 N   0  0  0  0  0  0  0  0  0  0  0  0
   11.5140    5.5430   22.7340 C   0  0  0  0  0  0  0  0  0  0  0  0
   10.0480    5.4610   22.9520 C   0  0  0  0  0  0  0  0  0  0  0  0
    9.2310    6.6470   23.0630 N   0  0  0  0  0  0  0  0  0  0  0  0
    9.7500    7.6370   23.5920 O   0  0  0  0  0  0  0  0  0  0  0  0
    8.0050    6.4640   23.0280 O   0  0  0  0  0  0  0  0  0  0  0  0
    9.5100    4.2350   23.0490 C   0  0  0  0  0  0  0  0  0  0  0  0
   10.3570    3.1320   22.9610 N   0  0  0  0  0  0  0  0  0  0  0  0
   10.0510    1.8130   23.0510 N   0  0  0  0  0  0  0  0  0  0  0  0
    7.3710   -0.5140   21.0110 N   0  0  0  0  0  0  0  0  0  0  0  0
    6.5680    0.0900   20.0450 C   0  0  0  0  0  0  0  0  0  0  0  0
    5.4220    0.7790   20.2210 C   0  0  0  0  0  0  0  0  0  0  0  0
    4.7510    1.3420   19.1300 C   0  0  0  0  0  0  0  0  0  0  0  0
    5.0620    1.3310   17.7400 C   0  0  0  0  0  0  0  0  0  0  0  0
    6.2270    0.5940   17.7660 N   0  0  0  0  0  0  0  0  0  0  0  0
    6.9170    0.0310   18.7620 C   0  0  0  0  0  0  0  0  0  0  0  0
  1  2  2  0
  2  3  1  0
  3  4  1  0
  4  5  1  0
  5  6  1  0
  6  7  1  0
  7  8  2  0
  8  9  1  0
  9 10  2  0
 10 11  1  0
 11 12  1  0
 12 13  2  0
 12 14  1  0
 11 15  2  0
  8 16  1  0
 15 16  1  0
  6 17  2  0
 16 17  1  0
  2 18  1  0
 18 19  1  0
 19 20  2  0
 20 21  1  0
 21 22  2  0
 22 23  1  0
 19 24  1  0
 23 24  2  0
M  CHG  2  12   1  14  -1
M  END
