pyridine_urea_5439
     RDKit          3D

 18 19  0  0  0  0  0  0  0  0999 V2000
   13.1650   -2.4090   20.9920 C   0  0  0  0  0  0  0  0  0  0  0  0
   12.4950   -1.7820   22.1650 C   0  0  0  0  0  0  0  0  0  0  0  0
   12.9860   -1.9330   23.5410 N   0  0  0  0  0  0  0  0  0  0  0  0
   12.0900   -1.2080   24.3000 N   0  0  0  0  0  0  0  0  0  0  0  0
   11.2080   -0.7490   23.1720 C   0  0  0  0  0  0  0  0  0  0  0  0
   10.1030    0.0440   23.3510 C   0  0  2  0  0  0  0  0  0  0  0  0
    9.8710    0.4250   24.8120 C   0  0  0  0  0  0  0  0  0  0  0  0
    9.1310   -0.5480   22.6240 N   0  0  0  0  0  0  0  0  0  0  0  0
    8.5270    0.1900   21.5890 C   0  0  0  0  0  0  0  0  0  0  0  0
    8.9700    1.2860   21.2250 O   0  0  0  0  0  0  0  0  0  0  0  0
    7.4120   -0.4490   21.0890 N   0  0  0  0  0  0  0  0  0  0  0  0
    6.6380    0.1120   20.0200 C   0  0  0  0  0  0  0  0  0  0  0  0
    5.4010    0.8990   20.4790 C   0  0  0  0  0  0  0  0  0  0  0  0
    4.6190    1.5090   19.3260 C   0  0  0  0  0  0  0  0  0  0  0  0
    5.1370    1.2760   17.9360 C   0  0  0  0  0  0  0  0  0  0  0  0
    6.2240    0.5590   17.7150 N   0  0  0  0  0  0  0  0  0  0  0  0
    7.0270   -0.0600   18.6990 C   0  0  0  0  0  0  0  0  0  0  0  0
   11.5160   -1.1440   21.8780 O   0  0  0  0  0  0  0  0  0  0  0  0
  1  2  1  0
  2  3  2  0
  3  4  1  0
  4  5  2  0
  5  6  1  0
  6  7  1  1
  6  8  1  0
  8  9  1  0
  9 10  2  0
  9 11  1  0
 11 12  1  0
 12 13  2  0
 13 14  1  0
 14 15  2  0
 15 16  1  0
 12 17  1  0
 16 17  2  0
  2 18  1  0
  5 18  1  0
M  END
