pyridine_urea_3898
     RDKit          3D

 20 22  0  0  0  0  0  0  0  0999 V2000
   10.3910    1.3410   22.8490 C   0  0  0  0  0  0  0  0  0  0  0  0
   10.0410   -0.0360   22.3910 C   0  0  2  0  0  0  0  0  0  0  0  0
    8.6540   -0.2680   22.4570 N   0  0  0  0  0  0  0  0  0  0  0  0
    8.0520    0.3500   21.4460 C   0  0  0  0  0  0  0  0  0  0  0  0
    8.5080    1.4110   21.0070 O   0  0  0  0  0  0  0  0  0  0  0  0
    6.9590   -0.3160   21.0080 N   0  0  0  0  0  0  0  0  0  0  0  0
    6.3290    0.2430   19.9300 C   0  0  0  0  0  0  0  0  0  0  0  0
    5.1480    0.9250   20.1260 C   0  0  0  0  0  0  0  0  0  0  0  0
    4.5340    1.5210   19.0350 C   0  0  0  0  0  0  0  0  0  0  0  0
    5.1350    1.4040   17.7990 C   0  0  0  0  0  0  0  0  0  0  0  0
    6.2760    0.7320   17.6000 N   0  0  0  0  0  0  0  0  0  0  0  0
    6.8440    0.1680   18.6670 C   0  0  0  0  0  0  0  0  0  0  0  0
   10.6280   -1.1040   23.1590 C   0  0  0  0  0  0  0  0  0  0  0  0
    9.9200   -2.1610   23.5420 C   0  0  0  0  0  0  0  0  0  0  0  0
   10.5800   -2.9820   24.1980 N   0  0  0  0  0  0  0  0  0  0  0  0
   11.7510   -2.2740   24.1500 N   0  0  0  0  0  0  0  0  0  0  0  0
   12.8000   -2.9030   24.7910 C   0  0  0  0  0  0  0  0  0  0  0  0
   13.8130   -2.6430   24.2020 C   0  0  0  0  0  0  0  0  0  0  0  0
   13.8310   -2.2790   25.6390 C   0  0  0  0  0  0  0  0  0  0  0  0
   12.0570   -1.0220   23.5390 C   0  0  0  0  0  0  0  0  0  0  0  0
  2  1  1  1
  2  3  1  0
  3  4  1  0
  4  5  2  0
  4  6  1  0
  6  7  1  0
  7  8  2  0
  8  9  1  0
  9 10  2  0
 10 11  1  0
  7 12  1  0
 11 12  2  0
  2 13  1  0
 13 14  1  0
 14 15  2  0
 15 16  1  0
 16 17  1  0
 17 18  1  0
 17 19  1  0
 18 19  1  0
 13 20  2  0
 16 20  1  0
M  END
