pyridine_urea_1293
     RDKit          3D

 21 22  0  0  0  0  0  0  0  0999 V2000
   13.6300    0.9850   22.8410 C   0  0  0  0  0  0  0  0  0  0  0  0
   12.5280    0.5040   22.7290 N   0  0  0  0  0  0  0  0  0  0  0  0
   12.4740   -0.8450   22.5000 C   0  0  0  0  0  0  0  0  0  0  0  0
   11.0880   -1.0040   22.4850 C   0  0  0  0  0  0  0  0  0  0  0  0
   10.4910   -2.1820   22.3040 C   0  0  0  0  0  0  0  0  0  0  0  0
    9.2440   -2.1630   22.8390 C   0  0  1  0  0  0  0  0  0  0  0  0
    8.8850   -3.2580   23.6340 C   0  0  0  0  0  0  0  0  0  0  0  0
    7.9810   -4.1840   23.1870 O   0  0  0  0  0  0  0  0  0  0  0  0
    9.0740   -0.9750   23.5340 C   0  0  0  0  0  0  0  0  0  0  0  0
    8.1770   -0.1620   22.9300 N   0  0  0  0  0  0  0  0  0  0  0  0
    8.0420    0.2140   21.6250 C   0  0  0  0  0  0  0  0  0  0  0  0
    8.7620    1.3300   21.0530 O   0  0  0  0  0  0  0  0  0  0  0  0
    7.1540   -0.5470   20.9580 N   0  0  0  0  0  0  0  0  0  0  0  0
    6.4840    0.0820   19.9830 C   0  0  0  0  0  0  0  0  0  0  0  0
    5.3110    0.7760   20.3200 C   0  0  0  0  0  0  0  0  0  0  0  0
    4.6330    1.4340   19.2970 C   0  0  0  0  0  0  0  0  0  0  0  0
    5.1720    1.3750   17.9150 C   0  0  0  0  0  0  0  0  0  0  0  0
    6.2860    0.6950   17.6360 N   0  0  0  0  0  0  0  0  0  0  0  0
    6.9070    0.0730   18.6640 C   0  0  0  0  0  0  0  0  0  0  0  0
   10.4540    0.2180   22.6880 C   0  0  0  0  0  0  0  0  0  0  0  0
   11.3690    1.1810   22.8360 N   0  0  0  0  0  0  0  0  0  0  0  0
  1  2  1  0
  2  3  1  0
  3  4  2  0
  4  5  1  0
  6  5  1  1
  6  7  1  0
  7  8  1  0
  6  9  1  0
  9 10  1  0
 10 11  1  0
 11 12  2  0
 11 13  1  0
 13 14  1  0
 14 15  2  0
 15 16  1  0
 16 17  2  0
 17 18  1  0
 14 19  1  0
 18 19  2  0
  4 20  1  0
  2 21  1  0
 20 21  2  0
M  END
