pyridine_urea_214
     RDKit          3D

 23 25  0  0  0  0  0  0  0  0999 V2000
   13.7040    0.2240   22.5260 C   0  0  0  0  0  0  0  0  0  0  0  0
   13.1020   -0.5700   23.0620 C   0  0  0  0  0  0  0  0  0  0  0  0
   13.6070   -1.3380   24.3550 O   0  0  0  0  0  0  0  0  0  0  0  0
   12.5730   -2.2730   24.8340 C   0  0  0  0  0  0  0  0  0  0  0  0
   10.9660   -2.5290   24.1310 C   0  0  0  0  0  0  0  0  0  0  0  0
   10.5940   -3.5070   25.0550 C   0  0  0  0  0  0  0  0  0  0  0  0
    9.4410   -4.1990   25.1860 F   0  0  0  0  0  0  0  0  0  0  0  0
   11.7170   -3.4310   25.6240 C   0  0  0  0  0  0  0  0  0  0  0  0
   11.7930   -2.4230   24.4740 C   0  0  0  0  0  0  0  0  0  0  0  0
   12.5170   -1.5950   23.9370 C   0  0  0  0  0  0  0  0  0  0  0  0
   11.7820   -1.1810   22.8950 C   0  0  0  0  0  0  0  0  0  0  0  0
   10.7630   -1.0490   22.0110 C   0  0  0  0  0  0  0  0  0  0  0  0
    9.6250   -1.6440   22.4980 C   0  0  0  0  0  0  0  0  0  0  0  0
    8.6050   -0.6290   22.6780 N   0  0  0  0  0  0  0  0  0  0  0  0
    8.2730    0.1350   21.6020 C   0  0  0  0  0  0  0  0  0  0  0  0
    8.8890    1.3710   21.1440 O   0  0  0  0  0  0  0  0  0  0  0  0
    7.2140   -0.4780   20.9940 N   0  0  0  0  0  0  0  0  0  0  0  0
    6.4590    0.1570   20.0280 C   0  0  0  0  0  0  0  0  0  0  0  0
    5.1890    0.8900   20.2500 C   0  0  0  0  0  0  0  0  0  0  0  0
    4.5350    1.5300   19.0840 C   0  0  0  0  0  0  0  0  0  0  0  0
    5.1460    1.4120   17.8430 C   0  0  0  0  0  0  0  0  0  0  0  0
    6.3020    0.7270   17.6670 N   0  0  0  0  0  0  0  0  0  0  0  0
    6.9060    0.1360   18.7250 C   0  0  0  0  0  0  0  0  0  0  0  0
  1  2  1  0
  2  3  1  0
  3  4  1  0
  4  5  2  0
  5  6  1  0
  6  7  1  0
  6  8  2  0
  8  9  1  0
  4 10  1  0
  9 10  2  0
  2 11  2  0
 10 11  1  0
 11 12  1  0
 12 13  1  0
 13 14  1  0
 14 15  1  0
 15 16  2  0
 15 17  1  0
 17 18  1  0
 18 19  2  0
 19 20  1  0
 20 21  2  0
 21 22  1  0
 18 23  1  0
 22 23  2  0
M  END
