pyridine_urea_14037
     RDKit          3D

 23 25  0  0  0  0  0  0  0  0999 V2000
    9.9440    0.7010   24.8970 C   0  0  0  0  0  0  0  0  0  0  0  0
   10.1610   -0.1840   25.6980 C   0  0  0  0  0  0  0  0  0  0  0  0
   11.4130   -0.9220   25.4310 N   0  0  0  0  0  0  0  0  0  0  0  0
   12.7840   -0.5900   25.5660 C   0  0  0  0  0  0  0  0  0  0  0  0
   13.4420   -1.9090   25.4070 C   0  0  0  0  0  0  0  0  0  0  0  0
   13.4790   -2.0370   24.1200 C   0  0  0  0  0  0  0  0  0  0  0  0
   12.1780   -1.7760   23.4930 C   0  0  0  0  0  0  0  0  0  0  0  0
   11.9860   -2.1260   22.1410 C   0  0  0  0  0  0  0  0  0  0  0  0
   10.9430   -2.0710   21.2790 C   0  0  0  0  0  0  0  0  0  0  0  0
    9.5490   -1.5970   21.4530 C   0  0  0  0  0  0  0  0  0  0  0  0
    8.4920   -1.0680   22.0920 N   0  0  0  0  0  0  0  0  0  0  0  0
    7.7910    0.0270   21.4820 C   0  0  0  0  0  0  0  0  0  0  0  0
    8.2950    1.1160   21.2460 O   0  0  0  0  0  0  0  0  0  0  0  0
    6.5400   -0.3030   21.1790 N   0  0  0  0  0  0  0  0  0  0  0  0
    6.1480    0.2230   20.0250 C   0  0  0  0  0  0  0  0  0  0  0  0
    4.9950    0.9740   20.0790 C   0  0  0  0  0  0  0  0  0  0  0  0
    4.2430    1.7450   18.9820 C   0  0  0  0  0  0  0  0  0  0  0  0
    5.1820    1.4120   17.8250 C   0  0  0  0  0  0  0  0  0  0  0  0
    6.3070    0.6870   17.7190 N   0  0  0  0  0  0  0  0  0  0  0  0
    6.7910    0.0760   18.8620 C   0  0  0  0  0  0  0  0  0  0  0  0
   10.0240   -1.4480   22.3500 C   0  0  0  0  0  0  0  0  0  0  0  0
   10.3010   -1.1700   23.5020 C   0  0  0  0  0  0  0  0  0  0  0  0
   11.1480   -1.1940   24.2910 C   0  0  0  0  0  0  0  0  0  0  0  0
  1  2  1  0
  2  3  1  0
  3  4  1  0
  4  5  1  0
  5  6  1  0
  6  7  1  0
  7  8  1  0
  8  9  2  0
  9 10  1  0
 10 11  1  0
 11 12  1  0
 12 13  2  0
 12 14  1  0
 14 15  1  0
 15 16  2  0
 16 17  1  0
 17 18  2  0
 18 19  1  0
 15 20  1  0
 19 20  2  0
  9 21  1  0
 21 22  2  0
  3 23  1  0
  7 23  2  0
 22 23  1  0
M  END
