pyridine_urea_8243
     RDKit          3D

 23 25  0  0  0  0  0  0  0  0999 V2000
   11.5610   -2.0350   22.4710 C   0  0  0  0  0  0  0  0  0  0  0  0
   10.5290   -2.2220   23.5890 C   0  0  0  0  0  0  0  0  0  0  0  0
    9.1180   -1.8530   22.9960 C   0  0  2  0  0  0  0  0  0  0  0  0
    8.9730   -0.4080   22.8780 N   0  0  0  0  0  0  0  0  0  0  0  0
    8.4910    0.2410   21.7440 C   0  0  0  0  0  0  0  0  0  0  0  0
    9.0010    1.2780   21.2920 O   0  0  0  0  0  0  0  0  0  0  0  0
    7.3320   -0.4520   21.2060 N   0  0  0  0  0  0  0  0  0  0  0  0
    6.5860    0.1310   20.2100 C   0  0  0  0  0  0  0  0  0  0  0  0
    5.4420    0.8670   20.5220 C   0  0  0  0  0  0  0  0  0  0  0  0
    4.6800    1.4920   19.3710 C   0  0  0  0  0  0  0  0  0  0  0  0
    5.2120    1.2730   17.9900 C   0  0  0  0  0  0  0  0  0  0  0  0
    6.3230    0.5400   17.7920 N   0  0  0  0  0  0  0  0  0  0  0  0
    6.9580    0.0030   18.8750 C   0  0  0  0  0  0  0  0  0  0  0  0
    7.9590   -2.4530   23.7960 C   0  0  0  0  0  0  0  0  0  0  0  0
    7.4940   -1.8400   24.9740 N   0  0  0  0  0  0  0  0  0  0  0  0
    6.4540   -2.6790   25.3930 N   0  0  0  0  0  0  0  0  0  0  0  0
    6.2200   -3.8090   24.5380 C   0  0  0  0  0  0  0  0  0  0  0  0
    7.1500   -3.6470   23.5670 N   0  0  0  0  0  0  0  0  0  0  0  0
    7.1080   -4.6090   22.6400 C   0  0  0  0  0  0  0  0  0  0  0  0
    6.9190   -5.9110   23.0660 C   0  0  0  0  0  0  0  0  0  0  0  0
    5.5710   -6.2550   22.9250 C   0  0  0  0  0  0  0  0  0  0  0  0
    4.7380   -5.2750   23.4760 C   0  0  0  0  0  0  0  0  0  0  0  0
    5.2630   -4.8260   24.6790 C   0  0  0  0  0  0  0  0  0  0  0  0
  1  2  1  0
  3  2  1  1
  3  4  1  0
  4  5  1  0
  5  6  2  0
  5  7  1  0
  7  8  1  0
  8  9  2  0
  9 10  1  0
 10 11  2  0
 11 12  1  0
  8 13  1  0
 12 13  2  0
  3 14  1  0
 14 15  2  0
 15 16  1  0
 16 17  2  0
 14 18  1  0
 17 18  1  0
 18 19  1  0
 19 20  1  0
 20 21  1  0
 21 22  1  0
 17 23  1  0
 22 23  1  0
M  END
