pyridine_urea_4211
     RDKit          3D

 24 25  0  0  0  0  0  0  0  0999 V2000
   11.0340   -2.7970   23.3710 C   0  0  0  0  0  0  0  0  0  0  0  0
   11.5060   -2.6240   22.0480 O   0  0  0  0  0  0  0  0  0  0  0  0
   12.1070   -1.3500   21.9030 C   0  0  0  0  0  0  0  0  0  0  0  0
   13.1960   -1.9030   21.8440 O   0  0  0  0  0  0  0  0  0  0  0  0
   10.6060   -1.1560   22.0070 C   0  0  0  0  0  0  0  0  0  0  0  0
   10.0630   -0.4820   23.2490 C   0  0  1  0  0  0  0  0  0  0  0  0
   10.6030    0.9270   23.5250 C   0  0  0  0  0  0  0  0  0  0  0  0
   12.1120    1.0660   23.4200 C   0  0  0  0  0  0  0  0  0  0  0  0
   12.6710   -0.3150   23.6820 C   0  0  0  0  0  0  0  0  0  0  0  0
   12.8100   -0.7100   25.0060 C   0  0  0  0  0  0  0  0  0  0  0  0
   13.3020   -1.9570   25.3250 C   0  0  0  0  0  0  0  0  0  0  0  0
   13.6310   -2.7960   24.3360 C   0  0  0  0  0  0  0  0  0  0  0  0
   13.5140   -2.4580   23.0260 C   0  0  0  0  0  0  0  0  0  0  0  0
   13.0410   -1.2060   22.6890 C   0  0  0  0  0  0  0  0  0  0  0  0
    8.6420   -0.3420   22.8940 N   0  0  0  0  0  0  0  0  0  0  0  0
    8.3260    0.2440   21.6870 C   0  0  0  0  0  0  0  0  0  0  0  0
    8.9420    1.2170   21.2280 O   0  0  0  0  0  0  0  0  0  0  0  0
    7.2560   -0.3820   21.1000 N   0  0  0  0  0  0  0  0  0  0  0  0
    6.5580    0.1580   20.0240 C   0  0  0  0  0  0  0  0  0  0  0  0
    5.3130    0.9310   20.2800 C   0  0  0  0  0  0  0  0  0  0  0  0
    4.6360    1.4870   19.2100 C   0  0  0  0  0  0  0  0  0  0  0  0
    5.1410    1.3030   17.9440 C   0  0  0  0  0  0  0  0  0  0  0  0
    6.2550    0.6000   17.6810 N   0  0  0  0  0  0  0  0  0  0  0  0
    6.9360    0.0430   18.7100 C   0  0  0  0  0  0  0  0  0  0  0  0
  1  2  1  0
  2  3  1  0
  3  4  2  0
  3  5  1  0
  6  5  1  6
  6  7  1  0
  7  8  1  0
  8  9  1  0
  9 10  2  0
 10 11  1  0
 11 12  2  0
 12 13  1  0
  9 14  1  0
 13 14  2  0
  6 15  1  0
 15 16  1  0
 16 17  2  0
 16 18  1  0
 18 19  1  0
 19 20  2  0
 20 21  1  0
 21 22  2  0
 22 23  1  0
 19 24  1  0
 23 24  2  0
M  END
