pyridine_urea_14387
     RDKit          3D

 22 23  0  0  0  0  0  0  0  0999 V2000
    9.2500    3.0320   22.2230 C   0  0  0  0  0  0  0  0  0  0  0  0
   10.7590    3.0410   23.2060 S   0  0  0  0  0  0  0  0  0  0  0  0
   10.6930    4.2690   23.9600 O   0  0  0  0  0  0  0  0  0  0  0  0
   11.9000    2.7810   22.3640 O   0  0  0  0  0  0  0  0  0  0  0  0
   10.4910    1.6700   24.2310 N   0  0  0  0  0  0  0  0  0  0  0  0
   10.4690    0.3790   23.6660 C   0  0  0  0  0  0  0  0  0  0  0  0
    9.2540   -0.2620   23.7650 C   0  0  0  0  0  0  0  0  0  0  0  0
    8.7080   -0.8490   22.6490 N   0  0  0  0  0  0  0  0  0  0  0  0
    8.1550   -0.1240   21.4720 C   0  0  0  0  0  0  0  0  0  0  0  0
    8.7510    1.1260   21.0690 O   0  0  0  0  0  0  0  0  0  0  0  0
    7.1270   -0.7370   20.9430 N   0  0  0  0  0  0  0  0  0  0  0  0
    6.5060   -0.0840   20.0250 C   0  0  0  0  0  0  0  0  0  0  0  0
    5.2310    0.6810   20.3450 C   0  0  0  0  0  0  0  0  0  0  0  0
    4.5300    1.4590   19.2290 C   0  0  0  0  0  0  0  0  0  0  0  0
    5.1870    1.3990   17.8670 C   0  0  0  0  0  0  0  0  0  0  0  0
    6.3150    0.6750   17.7300 N   0  0  0  0  0  0  0  0  0  0  0  0
    6.9660   -0.0410   18.7240 C   0  0  0  0  0  0  0  0  0  0  0  0
   11.4890   -0.4270   24.4810 C   0  0  0  0  0  0  0  0  0  0  0  0
   12.7870   -0.3160   23.9990 C   0  0  0  0  0  0  0  0  0  0  0  0
   12.9070   -1.0440   22.8360 C   0  0  0  0  0  0  0  0  0  0  0  0
   11.6510   -1.1070   22.3060 C   0  0  0  0  0  0  0  0  0  0  0  0
   11.0600    0.1470   22.4510 C   0  0  0  0  0  0  0  0  0  0  0  0
  1  2  1  0
  2  3  2  0
  2  4  2  0
  2  5  1  0
  6  5  1  0
  6  7  1  0
  7  8  1  0
  8  9  1  0
  9 10  2  0
  9 11  1  0
 11 12  1  0
 12 13  2  0
 13 14  1  0
 14 15  2  0
 15 16  1  0
 12 17  1  0
 16 17  2  0
  6 18  1  0
 18 19  1  0
 19 20  1  0
 20 21  1  0
  6 22  1  0
 21 22  1  0
M  END
