pyridine_urea_14061
     RDKit          3D

 23 26  0  0  0  0  0  0  0  0999 V2000
    8.5410    1.3270   20.8430 O   0  0  0  0  0  0  0  0  0  0  0  0
    7.9140    0.3900   21.3460 C   0  0  0  0  0  0  0  0  0  0  0  0
    8.0840    0.0500   22.6000 N   0  0  0  0  0  0  0  0  0  0  0  0
    9.4390   -0.0380   22.8700 C   0  0  0  0  0  0  0  0  0  0  0  0
   10.0020    1.0240   23.7370 C   0  0  0  0  0  0  0  0  0  0  0  0
   11.4020    0.8720   24.0270 C   0  0  0  0  0  0  0  0  0  0  0  0
   12.1770   -0.1600   23.5690 C   0  0  0  0  0  0  0  0  0  0  0  0
   13.3370   -0.5110   23.7720 N   0  0  0  0  0  0  0  0  0  0  0  0
   13.3720   -1.5610   22.9870 C   0  0  0  0  0  0  0  0  0  0  0  0
   13.1270   -2.7200   23.8790 C   0  0  2  0  0  0  0  0  0  0  0  0
   11.7870   -2.8760   24.0800 C   0  0  0  0  0  0  0  0  0  0  0  0
   11.7670   -1.4810   24.7070 C   0  0  0  0  0  0  0  0  0  0  0  0
   13.0550   -1.1670   25.0560 C   0  0  1  0  0  0  0  0  0  0  0  0
   13.6700   -2.3730   25.1120 C   0  0  0  0  0  0  0  0  0  0  0  0
   11.6040   -1.2570   22.6050 C   0  0  0  0  0  0  0  0  0  0  0  0
   10.1920   -1.1320   22.2930 C   0  0  0  0  0  0  0  0  0  0  0  0
    6.9950   -0.3980   20.7440 N   0  0  0  0  0  0  0  0  0  0  0  0
    6.2830    0.2110   19.8400 C   0  0  0  0  0  0  0  0  0  0  0  0
    4.9570    0.8570   20.0290 C   0  0  0  0  0  0  0  0  0  0  0  0
    4.3740    1.4900   18.9510 C   0  0  0  0  0  0  0  0  0  0  0  0
    5.0780    1.4800   17.7510 C   0  0  0  0  0  0  0  0  0  0  0  0
    6.2720    0.8900   17.5520 N   0  0  0  0  0  0  0  0  0  0  0  0
    6.8230    0.2820   18.5980 C   0  0  0  0  0  0  0  0  0  0  0  0
  1  2  2  0
  2  3  1  0
  3  4  1  0
  4  5  2  0
  5  6  1  0
  6  7  2  0
  7  8  1  0
  8  9  1  0
 10  9  1  6
 10 11  1  0
 11 12  1  0
  8 13  1  0
 13 12  1  6
 10 14  1  0
 13 14  1  0
  7 15  1  0
  4 16  1  0
 15 16  2  0
  2 17  1  0
 17 18  1  0
 18 19  2  0
 19 20  1  0
 20 21  2  0
 21 22  1  0
 18 23  1  0
 22 23  2  0
M  END
