pyridine_urea_264
     RDKit          3D

 27 29  0  0  0  0  0  0  0  0999 V2000
    8.6600    0.9070   21.2200 O   0  0  0  0  0  0  0  0  0  0  0  0
    8.3040   -0.2200   21.5350 C   0  0  0  0  0  0  0  0  0  0  0  0
    7.0940   -0.7460   21.1490 N   0  0  0  0  0  0  0  0  0  0  0  0
    6.4620   -0.0660   20.0390 C   0  0  0  0  0  0  0  0  0  0  0  0
    5.1720    0.6830   20.3490 C   0  0  0  0  0  0  0  0  0  0  0  0
    4.5610    1.3820   19.1820 C   0  0  0  0  0  0  0  0  0  0  0  0
    5.1930    1.2990   17.9570 C   0  0  0  0  0  0  0  0  0  0  0  0
    6.3320    0.6180   17.7350 N   0  0  0  0  0  0  0  0  0  0  0  0
    6.9310   -0.0390   18.7490 C   0  0  0  0  0  0  0  0  0  0  0  0
    9.0690   -1.0670   22.2970 N   0  0  0  0  0  0  0  0  0  0  0  0
   10.4810   -0.6840   22.4590 C   0  0  0  0  0  0  0  0  0  0  0  0
   11.4430   -1.5910   22.1590 C   0  0  0  0  0  0  0  0  0  0  0  0
   12.7940   -0.9500   22.4000 C   0  0  0  0  0  0  0  0  0  0  0  0
   13.0460    0.3260   22.8420 C   0  0  0  0  0  0  0  0  0  0  0  0
   12.0290    1.1800   23.1220 C   0  0  0  0  0  0  0  0  0  0  0  0
   12.3350    2.4080   23.5640 O   0  0  0  0  0  0  0  0  0  0  0  0
   11.8610    3.6380   23.1550 C   0  0  0  0  0  0  0  0  0  0  0  0
   12.9240    4.3680   22.3010 C   0  0  0  0  0  0  0  0  0  0  0  0
   12.1360    5.6360   22.0810 C   0  0  0  0  0  0  0  0  0  0  0  0
   10.7680    6.0130   22.5550 C   0  0  0  0  0  0  0  0  0  0  0  0
    9.9810    5.1980   23.3070 C   0  0  0  0  0  0  0  0  0  0  0  0
    8.7030    5.5670   23.7410 C   0  0  0  0  0  0  0  0  0  0  0  0
    7.7490    4.6220   23.5030 F   0  0  0  0  0  0  0  0  0  0  0  0
    8.6620    5.8010   25.0830 F   0  0  0  0  0  0  0  0  0  0  0  0
    8.2450    6.7080   23.1560 F   0  0  0  0  0  0  0  0  0  0  0  0
   10.5630    3.9830   23.6040 C   0  0  0  0  0  0  0  0  0  0  0  0
   10.7360    0.7390   22.9550 C   0  0  0  0  0  0  0  0  0  0  0  0
  1  2  2  0
  2  3  1  0
  3  4  1  0
  4  5  2  0
  5  6  1  0
  6  7  2  0
  7  8  1  0
  4  9  1  0
  8  9  2  0
  2 10  1  0
 10 11  1  0
 11 12  2  0
 12 13  1  0
 13 14  2  0
 14 15  1  0
 15 16  1  0
 16 17  1  0
 17 18  2  0
 18 19  1  0
 19 20  2  0
 20 21  1  0
 21 22  1  0
 22 23  1  0
 22 24  1  0
 22 25  1  0
 17 26  1  0
 21 26  2  0
 11 27  1  0
 15 27  2  0
M  END
