pyridine_urea_10170
     RDKit          3D

 23 24  0  0  0  0  0  0  0  0999 V2000
   11.0800   -3.0850   24.0820 C   0  0  0  0  0  0  0  0  0  0  0  0
   12.3370   -2.3420   24.3730 C   0  0  0  0  0  0  0  0  0  0  0  0
   13.5190   -2.9230   24.7870 C   0  0  0  0  0  0  0  0  0  0  0  0
   12.6590   -1.7340   23.1720 O   0  0  0  0  0  0  0  0  0  0  0  0
   12.1950   -0.4200   23.3140 C   0  0  0  0  0  0  0  0  0  0  0  0
   13.2930   -0.2740   22.8410 C   0  0  0  0  0  0  0  0  0  0  0  0
   13.1830    1.0090   22.8620 C   0  0  0  0  0  0  0  0  0  0  0  0
   11.7060    0.5050   23.5130 C   0  0  0  0  0  0  0  0  0  0  0  0
   10.4390    0.7480   24.0520 C   0  0  2  0  0  0  0  0  0  0  0  0
   10.2240   -0.2190   24.7810 O   0  0  0  0  0  0  0  0  0  0  0  0
    9.4920    0.8810   23.0600 C   0  0  0  0  0  0  0  0  0  0  0  0
    8.5110   -0.1020   22.8800 N   0  0  0  0  0  0  0  0  0  0  0  0
    8.2290   -0.6320   21.5580 C   0  0  0  0  0  0  0  0  0  0  0  0
    9.0980   -0.9550   20.8310 O   0  0  0  0  0  0  0  0  0  0  0  0
    6.8860   -0.6860   21.2390 N   0  0  0  0  0  0  0  0  0  0  0  0
    6.2830    0.0010   20.1700 C   0  0  0  0  0  0  0  0  0  0  0  0
    5.0400    0.7980   20.2570 C   0  0  0  0  0  0  0  0  0  0  0  0
    4.5360    1.4460   19.1310 C   0  0  0  0  0  0  0  0  0  0  0  0
    5.2350    1.3190   17.9360 C   0  0  0  0  0  0  0  0  0  0  0  0
    6.3710    0.5970   17.8100 N   0  0  0  0  0  0  0  0  0  0  0  0
    6.8630   -0.0370   18.9060 C   0  0  0  0  0  0  0  0  0  0  0  0
   11.6640    1.9290   23.4780 C   0  0  0  0  0  0  0  0  0  0  0  0
   12.5970    1.0240   23.1010 C   0  0  0  0  0  0  0  0  0  0  0  0
  1  2  1  0
  2  3  1  0
  2  4  1  0
  4  5  1  0
  5  6  2  0
  6  7  1  0
  7  8  2  0
  8  9  1  0
  9 10  1  1
  9 11  1  0
 11 12  1  0
 12 13  1  0
 13 14  2  0
 13 15  1  0
 15 16  1  0
 16 17  2  0
 17 18  1  0
 18 19  2  0
 19 20  1  0
 16 21  1  0
 20 21  2  0
  8 22  1  0
  5 23  1  0
 22 23  2  0
M  END
