pyridine_urea_6526
     RDKit          3D

 22 24  0  0  0  0  0  0  0  0999 V2000
    8.8400    1.1050   21.1690 O   0  0  0  0  0  0  0  0  0  0  0  0
    8.2360    0.0970   21.5810 C   0  0  0  0  0  0  0  0  0  0  0  0
    8.4580   -0.6000   22.7300 N   0  0  0  0  0  0  0  0  0  0  0  0
    9.6720   -1.1250   23.1360 C   0  0  0  0  0  0  0  0  0  0  0  0
   10.2040   -2.4320   22.5560 C   0  0  0  0  0  0  0  0  0  0  0  0
   11.5360   -2.0990   21.9700 C   0  0  0  0  0  0  0  0  0  0  0  0
   12.6110   -2.4380   21.0110 C   0  0  0  0  0  0  0  0  0  0  0  0
   13.6350   -1.5430   21.0320 N   0  0  0  0  0  0  0  0  0  0  0  0
   13.3620   -0.5690   21.9670 C   0  0  0  0  0  0  0  0  0  0  0  0
   13.6690    0.5610   22.6290 C   0  0  0  0  0  0  0  0  0  0  0  0
   12.6350    0.7020   23.4330 C   0  0  0  0  0  0  0  0  0  0  0  0
   11.6910    0.9910   24.2890 C   0  0  0  0  0  0  0  0  0  0  0  0
   10.6210    0.5260   24.6690 O   0  0  0  0  0  0  0  0  0  0  0  0
   11.5240   -0.0860   23.5670 C   0  0  0  0  0  0  0  0  0  0  0  0
   12.0130   -0.9180   22.5910 C   0  0  0  0  0  0  0  0  0  0  0  0
    7.1970   -0.4920   20.9250 N   0  0  0  0  0  0  0  0  0  0  0  0
    6.4770    0.1360   20.0000 C   0  0  0  0  0  0  0  0  0  0  0  0
    5.2200    0.9650   20.2600 C   0  0  0  0  0  0  0  0  0  0  0  0
    4.6220    1.5610   19.1700 C   0  0  0  0  0  0  0  0  0  0  0  0
    5.1540    1.4010   17.9010 C   0  0  0  0  0  0  0  0  0  0  0  0
    6.2370    0.6860   17.5790 N   0  0  0  0  0  0  0  0  0  0  0  0
    6.9090    0.0340   18.7060 C   0  0  0  0  0  0  0  0  0  0  0  0
  1  2  2  0
  2  3  1  0
  3  4  1  0
  4  5  1  0
  5  6  1  0
  6  7  2  0
  7  8  1  0
  8  9  1  0
  9 10  1  0
 10 11  2  0
 11 12  1  0
 12 13  1  0
 12 14  2  0
  6 15  1  0
  9 15  2  0
 14 15  1  0
  2 16  1  0
 16 17  1  0
 17 18  2  0
 18 19  1  0
 19 20  2  0
 20 21  1  0
 17 22  1  0
 21 22  2  0
M  END
