pyridine_urea_4254
     RDKit          3D

 24 26  0  0  0  0  0  0  0  0999 V2000
    9.4830   -0.6100   24.8560 C   0  0  0  0  0  0  0  0  0  0  0  0
    9.7390   -0.4460   23.3690 C   0  0  2  0  0  0  0  0  0  0  0  0
    8.8860   -1.1770   22.4570 N   0  0  0  0  0  0  0  0  0  0  0  0
    8.3120   -0.3550   21.5190 C   0  0  0  0  0  0  0  0  0  0  0  0
    8.7980    0.7300   21.2350 O   0  0  0  0  0  0  0  0  0  0  0  0
    7.1620   -0.8530   20.9790 N   0  0  0  0  0  0  0  0  0  0  0  0
    6.4770   -0.1390   19.9950 C   0  0  0  0  0  0  0  0  0  0  0  0
    5.1770    0.5780   20.3510 C   0  0  0  0  0  0  0  0  0  0  0  0
    4.4640    1.3690   19.2660 C   0  0  0  0  0  0  0  0  0  0  0  0
    5.1810    1.3270   17.9240 C   0  0  0  0  0  0  0  0  0  0  0  0
    6.3260    0.6580   17.7090 N   0  0  0  0  0  0  0  0  0  0  0  0
    6.9270   -0.0340   18.7030 C   0  0  0  0  0  0  0  0  0  0  0  0
   11.1930   -0.6600   23.1340 C   0  0  0  0  0  0  0  0  0  0  0  0
   12.4900   -0.3450   22.9360 C   0  0  0  0  0  0  0  0  0  0  0  0
   13.1400    0.8680   22.8520 C   0  0  0  0  0  0  0  0  0  0  0  0
   12.8640    2.2610   22.9060 C   0  0  0  0  0  0  0  0  0  0  0  0
   12.3910    3.5670   22.9880 N   0  0  0  0  0  0  0  0  0  0  0  0
   10.9910    3.9740   23.3650 C   0  0  0  0  0  0  0  0  0  0  0  0
   10.9670    5.3710   23.3130 C   0  0  0  0  0  0  0  0  0  0  0  0
   12.3030    5.7890   22.9210 C   0  0  0  0  0  0  0  0  0  0  0  0
   13.0960    4.7590   22.7400 N   0  0  0  0  0  0  0  0  0  0  0  0
   11.5420    1.9620   23.1100 C   0  0  0  0  0  0  0  0  0  0  0  0
   10.7170    3.0010   23.2500 F   0  0  0  0  0  0  0  0  0  0  0  0
   10.8320    0.8210   23.2100 C   0  0  0  0  0  0  0  0  0  0  0  0
  2  1  1  1
  2  3  1  0
  3  4  1  0
  4  5  2  0
  4  6  1  0
  6  7  1  0
  7  8  2  0
  8  9  1  0
  9 10  2  0
 10 11  1  0
  7 12  1  0
 11 12  2  0
  2 13  1  0
 13 14  2  0
 14 15  1  0
 15 16  2  0
 16 17  1  0
 17 18  1  0
 18 19  2  0
 19 20  1  0
 17 21  1  0
 20 21  2  0
 16 22  1  0
 22 23  1  0
 13 24  1  0
 22 24  2  0
M  END
