pyridine_urea_9245
     RDKit          3D

 18 19  0  0  0  0  0  0  0  0999 V2000
   12.7520   -0.8290   25.2470 C   0  0  0  0  0  0  0  0  0  0  0  0
   11.9190   -0.8920   24.1100 C   0  0  0  0  0  0  0  0  0  0  0  0
   10.6250   -0.4900   24.0550 C   0  0  0  0  0  0  0  0  0  0  0  0
    9.9100   -0.6040   22.9160 C   0  0  0  0  0  0  0  0  0  0  0  0
    8.5920   -0.2380   22.7260 N   0  0  0  0  0  0  0  0  0  0  0  0
    8.1500    0.2900   21.5410 C   0  0  0  0  0  0  0  0  0  0  0  0
    8.6570    1.3100   21.0590 O   0  0  0  0  0  0  0  0  0  0  0  0
    7.1440   -0.4610   21.0580 N   0  0  0  0  0  0  0  0  0  0  0  0
    6.4910    0.1190   20.0430 C   0  0  0  0  0  0  0  0  0  0  0  0
    5.3250    0.8240   20.3100 C   0  0  0  0  0  0  0  0  0  0  0  0
    4.6020    1.4970   19.1450 C   0  0  0  0  0  0  0  0  0  0  0  0
    5.1550    1.3630   17.9000 C   0  0  0  0  0  0  0  0  0  0  0  0
    6.2820    0.6640   17.6820 N   0  0  0  0  0  0  0  0  0  0  0  0
    6.9110    0.0690   18.7260 C   0  0  0  0  0  0  0  0  0  0  0  0
   10.5290   -1.1340   21.8120 C   0  0  0  0  0  0  0  0  0  0  0  0
   11.8540   -1.5450   21.8480 C   0  0  0  0  0  0  0  0  0  0  0  0
   12.5270   -1.4120   23.0070 C   0  0  0  0  0  0  0  0  0  0  0  0
   13.8080   -1.8210   23.0220 O   0  0  0  0  0  0  0  0  0  0  0  0
  1  2  1  0
  2  3  2  0
  3  4  1  0
  4  5  1  0
  5  6  1  0
  6  7  2  0
  6  8  1  0
  8  9  1  0
  9 10  2  0
 10 11  1  0
 11 12  2  0
 12 13  1  0
  9 14  1  0
 13 14  2  0
  4 15  2  0
 15 16  1  0
  2 17  1  0
 16 17  2  0
 17 18  1  0
M  END
