pyridine_urea_11080
     RDKit          3D

 19 20  0  0  0  0  0  0  0  0999 V2000
   11.5210    4.0960   23.4060 C   0  0  0  0  0  0  0  0  0  0  0  0
   11.7850    2.7210   22.8600 C   0  0  0  0  0  0  0  0  0  0  0  0
   10.6900    1.8440   22.7600 C   0  0  0  0  0  0  0  0  0  0  0  0
   10.8890    0.4530   22.5650 C   0  0  1  0  0  0  0  0  0  0  0  0
   12.2300    0.0200   22.5190 C   0  0  0  0  0  0  0  0  0  0  0  0
   12.8970   -0.4670   23.7160 C   0  0  0  0  0  0  0  0  0  0  0  0
   12.0630   -1.5510   24.3320 C   0  0  0  0  0  0  0  0  0  0  0  0
   10.5700   -1.4740   24.0200 C   0  0  0  0  0  0  0  0  0  0  0  0
   10.0600   -0.4630   23.2360 C   0  0  2  0  0  0  0  0  0  0  0  0
    9.0320   -0.8790   22.3650 N   0  0  0  0  0  0  0  0  0  0  0  0
    8.3980   -0.0270   21.4670 C   0  0  0  0  0  0  0  0  0  0  0  0
    8.8110    1.1040   21.1570 O   0  0  0  0  0  0  0  0  0  0  0  0
    7.2320   -0.5830   20.9680 N   0  0  0  0  0  0  0  0  0  0  0  0
    6.4610    0.0640   20.0360 C   0  0  0  0  0  0  0  0  0  0  0  0
    5.2840    0.7520   20.2940 C   0  0  0  0  0  0  0  0  0  0  0  0
    4.6310    1.3730   19.2390 C   0  0  0  0  0  0  0  0  0  0  0  0
    5.1700    1.2870   17.9660 C   0  0  0  0  0  0  0  0  0  0  0  0
    6.2960    0.6190   17.7020 N   0  0  0  0  0  0  0  0  0  0  0  0
    6.9070    0.0290   18.7360 C   0  0  0  0  0  0  0  0  0  0  0  0
  1  2  1  0
  2  3  1  0
  4  3  1  1
  4  5  1  0
  5  6  1  0
  6  7  1  0
  7  8  1  0
  4  9  1  0
  8  9  1  0
  9 10  1  6
 10 11  1  0
 11 12  2  0
 11 13  1  0
 13 14  1  0
 14 15  2  0
 15 16  1  0
 16 17  2  0
 17 18  1  0
 14 19  1  0
 18 19  2  0
M  END
