pyridine_urea_1700
     RDKit          3D

 18 18  0  0  0  0  0  0  0  0999 V2000
    8.4610   -4.0520   23.8590 C   0  0  0  0  0  0  0  0  0  0  0  0
    9.3640   -3.4350   22.9510 O   0  0  0  0  0  0  0  0  0  0  0  0
   10.2530   -2.5480   23.5310 C   0  0  0  0  0  0  0  0  0  0  0  0
   10.1240   -1.2400   23.0780 C   0  0  2  0  0  0  0  0  0  0  0  0
   11.1580   -0.6450   22.3850 C   0  0  0  0  0  0  0  0  0  0  0  0
   10.6830    0.0080   23.7800 C   0  0  0  0  0  0  0  0  0  0  0  0
   12.0650    0.2260   23.8500 C   0  0  0  0  0  0  0  0  0  0  0  0
   12.2020    1.4300   23.6780 O   0  0  0  0  0  0  0  0  0  0  0  0
    8.8390   -0.8230   22.6510 N   0  0  0  0  0  0  0  0  0  0  0  0
    8.4860    0.0120   21.5980 C   0  0  0  0  0  0  0  0  0  0  0  0
    9.0680    1.0600   21.2850 O   0  0  0  0  0  0  0  0  0  0  0  0
    7.3630   -0.5260   20.9890 N   0  0  0  0  0  0  0  0  0  0  0  0
    6.5270    0.1530   20.0050 C   0  0  0  0  0  0  0  0  0  0  0  0
    5.3750    0.8670   20.2680 C   0  0  0  0  0  0  0  0  0  0  0  0
    4.6710    1.4880   19.2420 C   0  0  0  0  0  0  0  0  0  0  0  0
    5.1620    1.3560   17.9570 C   0  0  0  0  0  0  0  0  0  0  0  0
    6.2690    0.6620   17.6690 N   0  0  0  0  0  0  0  0  0  0  0  0
    6.9210    0.0820   18.6900 C   0  0  0  0  0  0  0  0  0  0  0  0
  1  2  1  0
  2  3  1  0
  3  4  1  0
  4  5  1  6
  4  6  1  0
  6  7  1  0
  7  8  1  0
  4  9  1  0
  9 10  1  0
 10 11  2  0
 10 12  1  0
 12 13  1  0
 13 14  2  0
 14 15  1  0
 15 16  2  0
 16 17  1  0
 13 18  1  0
 17 18  2  0
M  END
