pyridine_urea_622
     RDKit          3D

 24 26  0  0  0  0  0  0  0  0999 V2000
   13.2200    6.7120   22.4810 C   0  0  0  0  0  0  0  0  0  0  0  0
   12.5060    5.4300   22.6050 C   0  0  0  0  0  0  0  0  0  0  0  0
   11.1680    5.2660   22.5980 C   0  0  0  0  0  0  0  0  0  0  0  0
   10.6790    3.9980   22.7010 C   0  0  0  0  0  0  0  0  0  0  0  0
   11.5630    2.9320   22.8080 C   0  0  0  0  0  0  0  0  0  0  0  0
   10.9920    1.7240   22.8820 C   0  0  0  0  0  0  0  0  0  0  0  0
    9.5680    1.8560   23.3220 C   0  0  0  0  0  0  0  0  0  0  0  0
    8.6810    0.8710   23.4660 C   0  0  0  0  0  0  0  0  0  0  0  0
    9.1060   -0.3830   23.1830 C   0  0  0  0  0  0  0  0  0  0  0  0
   10.4080   -0.6340   22.7600 C   0  0  0  0  0  0  0  0  0  0  0  0
   10.5970   -1.9040   22.4620 C   0  0  0  0  0  0  0  0  0  0  0  0
    9.4250   -2.0800   21.6750 N   0  0  0  0  0  0  0  0  0  0  0  0
    8.6440   -0.9360   21.3050 C   0  0  0  0  0  0  0  0  0  0  0  0
    9.0990    0.2030   21.2650 O   0  0  0  0  0  0  0  0  0  0  0  0
    7.3100   -1.1790   20.9860 N   0  0  0  0  0  0  0  0  0  0  0  0
    6.5660   -0.3490   20.0250 C   0  0  0  0  0  0  0  0  0  0  0  0
    5.3850    0.3150   20.4060 C   0  0  0  0  0  0  0  0  0  0  0  0
    4.7020    1.1070   19.4690 C   0  0  0  0  0  0  0  0  0  0  0  0
    5.2130    1.2160   18.1840 C   0  0  0  0  0  0  0  0  0  0  0  0
    6.3320    0.5910   17.8030 N   0  0  0  0  0  0  0  0  0  0  0  0
    6.9780   -0.1710   18.7190 C   0  0  0  0  0  0  0  0  0  0  0  0
   11.4770    0.4600   22.6000 C   0  0  0  0  0  0  0  0  0  0  0  0
   12.8960    3.1220   22.8190 C   0  0  0  0  0  0  0  0  0  0  0  0
   13.3850    4.4000   22.7200 C   0  0  0  0  0  0  0  0  0  0  0  0
  1  2  1  0
  2  3  2  0
  3  4  1  0
  4  5  2  0
  5  6  1  0
  6  7  2  0
  7  8  1  0
  8  9  2  0
  9 10  1  0
 10 11  1  0
 11 12  1  0
 12 13  1  0
 13 14  2  0
 13 15  1  0
 15 16  1  0
 16 17  2  0
 17 18  1  0
 18 19  2  0
 19 20  1  0
 16 21  1  0
 20 21  2  0
  6 22  1  0
 10 22  2  0
  5 23  1  0
  2 24  1  0
 23 24  2  0
M  END
