pyridine_urea_4828
     RDKit          3D

 21 23  0  0  0  0  0  0  0  0999 V2000
    9.0190    0.7230   21.4330 O   0  0  0  0  0  0  0  0  0  0  0  0
    8.4340   -0.3500   21.5400 C   0  0  0  0  0  0  0  0  0  0  0  0
    9.0230   -1.4600   22.0950 N   0  0  0  0  0  0  0  0  0  0  0  0
    9.2060   -1.7050   23.5200 C   0  0  0  0  0  0  0  0  0  0  0  0
    8.2390   -0.9400   24.4650 C   0  0  0  0  0  0  0  0  0  0  0  0
    8.3180   -0.7810   25.7930 N   0  0  0  0  0  0  0  0  0  0  0  0
    7.1960   -0.0290   26.1120 C   0  0  0  0  0  0  0  0  0  0  0  0
    6.7910    0.4130   27.3730 C   0  0  2  0  0  0  0  0  0  0  0  0
    7.6730    1.3130   27.9860 C   0  0  0  0  0  0  0  0  0  0  0  0
    8.2050    0.6530   29.0750 C   0  0  0  0  0  0  0  0  0  0  0  0
    7.5730   -0.5720   29.1640 C   0  0  0  0  0  0  0  0  0  0  0  0
    6.6490   -0.6180   28.0580 O   0  0  0  0  0  0  0  0  0  0  0  0
    6.4180    0.2860   24.9830 N   0  0  0  0  0  0  0  0  0  0  0  0
    7.0620   -0.2760   23.9650 N   0  0  0  0  0  0  0  0  0  0  0  0
    7.1490   -0.6280   21.1210 N   0  0  0  0  0  0  0  0  0  0  0  0
    6.4670    0.0420   20.0730 C   0  0  0  0  0  0  0  0  0  0  0  0
    5.2730    0.7470   20.3200 C   0  0  0  0  0  0  0  0  0  0  0  0
    4.6530    1.3990   19.2450 C   0  0  0  0  0  0  0  0  0  0  0  0
    5.2660    1.3220   17.8970 C   0  0  0  0  0  0  0  0  0  0  0  0
    6.3920    0.6460   17.6790 N   0  0  0  0  0  0  0  0  0  0  0  0
    6.9650    0.0150   18.7740 C   0  0  0  0  0  0  0  0  0  0  0  0
  1  2  2  0
  2  3  1  0
  3  4  1  0
  4  5  1  0
  5  6  2  0
  6  7  1  0
  8  7  1  6
  8  9  1  0
  9 10  1  0
 10 11  1  0
  8 12  1  0
 11 12  1  0
  7 13  2  0
  5 14  1  0
 13 14  1  0
  2 15  1  0
 15 16  1  0
 16 17  2  0
 17 18  1  0
 18 19  2  0
 19 20  1  0
 16 21  1  0
 20 21  2  0
M  END
