pyridine_urea_8601
     RDKit          3D

 21 23  0  0  0  0  0  0  0  0999 V2000
    8.8780    1.0910   21.1470 O   0  0  0  0  0  0  0  0  0  0  0  0
    8.4040    0.0080   21.5020 C   0  0  0  0  0  0  0  0  0  0  0  0
    8.9000   -0.7990   22.5050 N   0  0  0  0  0  0  0  0  0  0  0  0
   10.2210   -0.8110   23.0070 C   0  0  0  0  0  0  0  0  0  0  0  0
   10.9130    0.3990   23.0230 C   0  0  0  0  0  0  0  0  0  0  0  0
   12.2820    0.5760   23.1740 C   0  0  0  0  0  0  0  0  0  0  0  0
   12.5980    1.9920   23.1160 N   0  0  0  0  0  0  0  0  0  0  0  0
   11.5060    2.7990   22.9370 C   0  0  0  0  0  0  0  0  0  0  0  0
   11.7130    4.1520   22.8730 N   0  0  0  0  0  0  0  0  0  0  0  0
   10.7410    5.1660   22.9880 C   0  0  0  0  0  0  0  0  0  0  0  0
   11.4030    6.3340   22.8660 C   0  0  0  0  0  0  0  0  0  0  0  0
   12.8780    6.1180   22.6580 C   0  0  0  0  0  0  0  0  0  0  0  0
   12.9940    4.7370   22.6730 N   0  0  0  0  0  0  0  0  0  0  0  0
    9.9960    1.9770   22.8220 S   0  0  0  0  0  0  0  0  0  0  0  0
    7.2760   -0.5500   20.9560 N   0  0  0  0  0  0  0  0  0  0  0  0
    6.5170    0.0710   20.0450 C   0  0  0  0  0  0  0  0  0  0  0  0
    5.3480    0.7630   20.3320 C   0  0  0  0  0  0  0  0  0  0  0  0
    4.6610    1.3820   19.2850 C   0  0  0  0  0  0  0  0  0  0  0  0
    5.1680    1.2840   17.9920 C   0  0  0  0  0  0  0  0  0  0  0  0
    6.2900    0.6110   17.7040 N   0  0  0  0  0  0  0  0  0  0  0  0
    6.9280    0.0250   18.7310 C   0  0  0  0  0  0  0  0  0  0  0  0
  1  2  2  0
  2  3  1  0
  3  4  1  0
  4  5  1  0
  5  6  2  0
  6  7  1  0
  7  8  2  0
  8  9  1  0
  9 10  1  0
 10 11  2  0
 11 12  1  0
  9 13  1  0
 12 13  2  0
  5 14  1  0
  8 14  1  0
  2 15  1  0
 15 16  1  0
 16 17  2  0
 17 18  1  0
 18 19  2  0
 19 20  1  0
 16 21  1  0
 20 21  2  0
M  END
