pyridine_urea_10914
     RDKit          3D

 19 20  0  0  0  0  0  0  0  0999 V2000
    8.8160    0.8130   21.3530 O   0  0  0  0  0  0  0  0  0  0  0  0
    8.3910   -0.3330   21.4140 C   0  0  0  0  0  0  0  0  0  0  0  0
    9.1980   -1.4390   21.8890 N   0  0  0  0  0  0  0  0  0  0  0  0
   10.4250   -1.0570   22.4050 C   0  0  0  0  0  0  0  0  0  0  0  0
   11.5220   -1.9280   22.4190 C   0  0  1  0  0  0  0  0  0  0  0  0
   12.5610   -1.8590   21.4970 C   0  0  0  0  0  0  0  0  0  0  0  0
   13.3840   -2.9910   21.8200 O   0  0  0  0  0  0  0  0  0  0  0  0
   12.7830   -1.2000   22.8190 C   0  0  0  0  0  0  0  0  0  0  0  0
   12.4380   -0.2250   23.8840 C   0  0  0  0  0  0  0  0  0  0  0  0
   12.1220    1.1490   23.2980 C   0  0  0  0  0  0  0  0  0  0  0  0
   10.8120    1.1730   24.0320 C   0  0  0  0  0  0  0  0  0  0  0  0
   11.0830   -0.0430   24.6240 C   0  0  0  0  0  0  0  0  0  0  0  0
    7.1180   -0.7050   21.0270 N   0  0  0  0  0  0  0  0  0  0  0  0
    6.4500   -0.0340   20.0020 C   0  0  0  0  0  0  0  0  0  0  0  0
    5.2730    0.6610   20.2690 C   0  0  0  0  0  0  0  0  0  0  0  0
    4.6160    1.3440   19.2580 C   0  0  0  0  0  0  0  0  0  0  0  0
    5.1680    1.3100   17.9940 C   0  0  0  0  0  0  0  0  0  0  0  0
    6.2940    0.6440   17.7070 N   0  0  0  0  0  0  0  0  0  0  0  0
    6.9070   -0.0110   18.7090 C   0  0  0  0  0  0  0  0  0  0  0  0
  1  2  2  0
  2  3  1  0
  3  4  1  0
  5  4  1  6
  5  6  1  0
  6  7  1  0
  5  8  1  0
  8  9  1  0
  9 10  1  0
 10 11  1  0
  9 12  1  0
 11 12  1  0
  2 13  1  0
 13 14  1  0
 14 15  2  0
 15 16  1  0
 16 17  2  0
 17 18  1  0
 14 19  1  0
 18 19  2  0
M  END
