pyridine_urea_13739
     RDKit          3D

 25 27  0  0  0  0  0  0  0  0999 V2000
    8.9880    1.1180   21.1940 O   0  0  0  0  0  0  0  0  0  0  0  0
    8.6790   -0.0590   21.4220 C   0  0  0  0  0  0  0  0  0  0  0  0
    7.4910   -0.6340   20.9950 N   0  0  0  0  0  0  0  0  0  0  0  0
    6.6120    0.0190   20.1060 C   0  0  0  0  0  0  0  0  0  0  0  0
    5.3120    0.7390   20.5060 C   0  0  0  0  0  0  0  0  0  0  0  0
    4.5640    1.3870   19.3370 C   0  0  0  0  0  0  0  0  0  0  0  0
    5.1680    1.2490   17.9770 C   0  0  0  0  0  0  0  0  0  0  0  0
    6.3070    0.5870   17.7410 N   0  0  0  0  0  0  0  0  0  0  0  0
    6.9690    0.0120   18.7670 C   0  0  0  0  0  0  0  0  0  0  0  0
    9.5230   -0.9550   22.1180 N   0  0  0  0  0  0  0  0  0  0  0  0
   10.4120   -0.5850   23.2590 C   0  0  2  0  0  0  0  0  0  0  0  0
   11.6380   -0.0880   22.8300 C   0  0  0  0  0  0  0  0  0  0  0  0
   11.6520    1.3160   22.8290 C   0  0  0  0  0  0  0  0  0  0  0  0
   10.4830    2.0860   22.8500 C   0  0  0  0  0  0  0  0  0  0  0  0
   10.4280    3.4880   22.8550 C   0  0  0  0  0  0  0  0  0  0  0  0
   11.5750    4.3230   22.8400 C   0  0  0  0  0  0  0  0  0  0  0  0
   11.5180    6.0470   22.8530 Cl  0  0  0  0  0  0  0  0  0  0  0  0
   12.8730    3.5250   22.8150 C   0  0  0  0  0  0  0  0  0  0  0  0
   12.9370    2.1330   22.8130 C   0  0  0  0  0  0  0  0  0  0  0  0
   10.6540   -1.6570   24.1230 C   0  0  0  0  0  0  0  0  0  0  0  0
   11.8690   -1.0640   23.9640 C   0  0  0  0  0  0  0  0  0  0  0  0
   12.1320    0.0730   23.2070 C   0  0  0  0  0  0  0  0  0  0  0  0
   10.5810    0.2160   22.7740 C   0  0  0  0  0  0  0  0  0  0  0  0
    9.3300   -0.6830   23.1460 C   0  0  0  0  0  0  0  0  0  0  0  0
    9.4070   -1.7460   23.9130 N   0  0  0  0  0  0  0  0  0  0  0  0
  1  2  2  0
  2  3  1  0
  3  4  1  0
  4  5  2  0
  5  6  1  0
  6  7  2  0
  7  8  1  0
  4  9  1  0
  8  9  2  0
  2 10  1  0
 10 11  1  0
 11 12  1  6
 12 13  1  0
 13 14  2  0
 14 15  1  0
 15 16  2  0
 16 17  1  0
 16 18  1  0
 13 19  1  0
 18 19  2  0
 11 20  1  0
 20 21  2  0
 21 22  1  0
 22 23  2  0
 23 24  1  0
 20 25  1  0
 24 25  2  0
M  END
