pyridine_urea_26
     RDKit          3D

 19 19  0  0  0  0  0  0  0  0999 V2000
   12.8010   -1.2720   22.4860 C   0  0  0  0  0  0  0  0  0  0  0  0
   11.6810   -0.8350   22.4880 C   0  0  0  0  0  0  0  0  0  0  0  0
   10.2610   -0.4610   22.9330 C   0  0  1  0  0  0  0  0  0  0  0  0
   10.2280    1.0210   23.1230 C   0  0  0  0  0  0  0  0  0  0  0  0
    9.6340    1.8050   22.1100 O   0  0  0  0  0  0  0  0  0  0  0  0
    9.4570    3.0850   22.5940 C   0  0  0  0  0  0  0  0  0  0  0  0
   10.5900    3.8020   22.4490 F   0  0  0  0  0  0  0  0  0  0  0  0
    8.4350    3.6890   21.9680 F   0  0  0  0  0  0  0  0  0  0  0  0
    9.1630    3.0500   23.9120 F   0  0  0  0  0  0  0  0  0  0  0  0
    9.3050   -0.9210   21.9040 N   0  0  0  0  0  0  0  0  0  0  0  0
    8.4030   -0.0710   21.2880 C   0  0  0  0  0  0  0  0  0  0  0  0
    8.6860    1.2360   20.9920 O   0  0  0  0  0  0  0  0  0  0  0  0
    7.1980   -0.6480   20.9670 N   0  0  0  0  0  0  0  0  0  0  0  0
    6.3550    0.0190   20.0620 C   0  0  0  0  0  0  0  0  0  0  0  0
    5.1650    0.5910   20.4370 C   0  0  0  0  0  0  0  0  0  0  0  0
    4.5760    1.2380   19.1890 C   0  0  0  0  0  0  0  0  0  0  0  0
    5.1890    1.2040   17.9610 C   0  0  0  0  0  0  0  0  0  0  0  0
    6.3320    0.6170   17.7060 N   0  0  0  0  0  0  0  0  0  0  0  0
    6.8710    0.0450   18.7710 C   0  0  0  0  0  0  0  0  0  0  0  0
  1  2  1  0
  3  2  1  6
  3  4  1  0
  4  5  1  0
  5  6  1  0
  6  7  1  0
  6  8  1  0
  6  9  1  0
  3 10  1  0
 10 11  1  0
 11 12  2  0
 11 13  1  0
 13 14  1  0
 14 15  2  0
 15 16  1  0
 16 17  2  0
 17 18  1  0
 14 19  1  0
 18 19  2  0
M  END
