pyridine_urea_90
     RDKit          3D

 20 21  0  0  0  0  0  0  0  0999 V2000
    7.0770    1.2760   27.0900 C   0  0  0  0  0  0  0  0  0  0  0  0
    7.7660    0.7730   26.2470 C   0  0  0  0  0  0  0  0  0  0  0  0
    8.1960    0.0700   24.9600 C   0  0  0  0  0  0  0  0  0  0  0  0
    9.4040    0.6670   24.4850 O   0  0  0  0  0  0  0  0  0  0  0  0
   10.4540   -0.3100   24.1650 C   0  0  2  0  0  0  0  0  0  0  0  0
   11.7070    0.0870   24.4980 C   0  0  0  0  0  0  0  0  0  0  0  0
   12.9380   -0.3430   23.7310 C   0  0  0  0  0  0  0  0  0  0  0  0
   12.5740   -0.7460   22.4020 C   0  0  0  0  0  0  0  0  0  0  0  0
   11.5220   -1.5770   22.2610 C   0  0  0  0  0  0  0  0  0  0  0  0
   10.4880   -0.5280   22.6440 C   0  0  1  0  0  0  0  0  0  0  0  0
    9.1700   -0.9200   22.1890 N   0  0  0  0  0  0  0  0  0  0  0  0
    8.4620   -0.0170   21.4310 C   0  0  0  0  0  0  0  0  0  0  0  0
    8.9560    1.3000   21.1540 O   0  0  0  0  0  0  0  0  0  0  0  0
    7.2660   -0.5240   20.9950 N   0  0  0  0  0  0  0  0  0  0  0  0
    6.5440    0.0660   19.9590 C   0  0  0  0  0  0  0  0  0  0  0  0
    5.3820    0.7550   20.2620 C   0  0  0  0  0  0  0  0  0  0  0  0
    4.4010    1.5120   19.3410 C   0  0  0  0  0  0  0  0  0  0  0  0
    5.1390    1.2440   18.0320 C   0  0  0  0  0  0  0  0  0  0  0  0
    6.2560    0.5750   17.7310 N   0  0  0  0  0  0  0  0  0  0  0  0
    6.9360   -0.0010   18.6850 C   0  0  0  0  0  0  0  0  0  0  0  0
  1  2  1  0
  2  3  1  0
  3  4  1  0
  5  4  1  6
  5  6  1  0
  6  7  1  0
  7  8  1  0
  8  9  1  0
  5 10  1  0
  9 10  1  0
 10 11  1  1
 11 12  1  0
 12 13  2  0
 12 14  1  0
 14 15  1  0
 15 16  2  0
 16 17  1  0
 17 18  2  0
 18 19  1  0
 15 20  1  0
 19 20  2  0
M  END
