pyridine_urea_6952
     RDKit          3D

 20 21  0  0  0  0  0  0  0  0999 V2000
    8.9150    0.5130   25.2940 C   0  0  0  0  0  0  0  0  0  0  0  0
    9.3680    1.0980   24.3120 O   0  0  0  0  0  0  0  0  0  0  0  0
   10.3290    0.4200   23.6180 C   0  0  0  0  0  0  0  0  0  0  0  0
   11.6460    0.7770   23.7360 C   0  0  0  0  0  0  0  0  0  0  0  0
   12.6340    0.1010   23.0390 C   0  0  0  0  0  0  0  0  0  0  0  0
   13.8410    0.4870   23.1520 F   0  0  0  0  0  0  0  0  0  0  0  0
   12.3840   -0.9640   22.2200 C   0  0  0  0  0  0  0  0  0  0  0  0
   13.3800   -1.5900   21.5820 F   0  0  0  0  0  0  0  0  0  0  0  0
   11.0900   -1.3860   22.0380 C   0  0  0  0  0  0  0  0  0  0  0  0
    9.9900   -0.6320   22.7770 C   0  0  0  0  0  0  0  0  0  0  0  0
    8.6830   -1.0170   22.5560 N   0  0  0  0  0  0  0  0  0  0  0  0
    8.0140   -0.3150   21.5700 C   0  0  0  0  0  0  0  0  0  0  0  0
    8.4360    0.7630   21.1460 O   0  0  0  0  0  0  0  0  0  0  0  0
    6.8080   -0.9790   21.1210 N   0  0  0  0  0  0  0  0  0  0  0  0
    6.2430   -0.1650   20.0250 C   0  0  0  0  0  0  0  0  0  0  0  0
    5.0730    0.5460   20.2680 C   0  0  0  0  0  0  0  0  0  0  0  0
    4.5390    1.3210   19.2400 C   0  0  0  0  0  0  0  0  0  0  0  0
    5.2550    1.3390   17.9450 C   0  0  0  0  0  0  0  0  0  0  0  0
    6.3880    0.6320   17.7500 N   0  0  0  0  0  0  0  0  0  0  0  0
    6.8580   -0.1020   18.7840 C   0  0  0  0  0  0  0  0  0  0  0  0
  1  2  1  0
  2  3  1  0
  3  4  2  0
  4  5  1  0
  5  6  1  0
  5  7  2  0
  7  8  1  0
  7  9  1  0
  3 10  1  0
  9 10  2  0
 10 11  1  0
 11 12  1  0
 12 13  2  0
 12 14  1  0
 14 15  1  0
 15 16  2  0
 16 17  1  0
 17 18  2  0
 18 19  1  0
 15 20  1  0
 19 20  2  0
M  END
