pyridine_urea_10460
     RDKit          3D

 22 23  0  0  0  0  0  0  0  0999 V2000
    8.6250    1.9610   24.3310 C   0  0  0  0  0  0  0  0  0  0  0  0
    9.9860    1.3870   23.8850 C   0  0  0  0  0  0  0  0  0  0  0  0
   11.3430    1.9850   23.7590 C   0  0  0  0  0  0  0  0  0  0  0  0
   11.4790    0.3190   23.2830 C   0  0  0  0  0  0  0  0  0  0  0  0
   12.8980    0.6470   23.0730 C   0  0  0  0  0  0  0  0  0  0  0  0
   11.8680    1.2640   23.4630 C   0  0  0  0  0  0  0  0  0  0  0  0
   10.6250    0.4320   23.4790 C   0  0  0  0  0  0  0  0  0  0  0  0
   10.3520   -0.9050   23.1420 C   0  0  2  0  0  0  0  0  0  0  0  0
   11.2500   -1.2920   22.1770 C   0  0  0  0  0  0  0  0  0  0  0  0
   12.1670   -2.3430   22.5360 N   0  0  0  0  0  0  0  0  0  0  0  0
   12.9830   -2.6860   21.4830 C   0  0  0  0  0  0  0  0  0  0  0  0
   12.7030   -2.4320   23.9170 C   0  0  0  0  0  0  0  0  0  0  0  0
    9.0160   -0.9620   22.7450 N   0  0  0  0  0  0  0  0  0  0  0  0
    8.4780   -0.1760   21.6750 C   0  0  0  0  0  0  0  0  0  0  0  0
    8.9570    0.8960   21.3380 O   0  0  0  0  0  0  0  0  0  0  0  0
    7.3800   -0.7680   21.1250 N   0  0  0  0  0  0  0  0  0  0  0  0
    6.6400   -0.0790   20.1980 C   0  0  0  0  0  0  0  0  0  0  0  0
    5.5270    0.7120   20.4610 C   0  0  0  0  0  0  0  0  0  0  0  0
    4.8340    1.3820   19.4530 C   0  0  0  0  0  0  0  0  0  0  0  0
    5.2370    1.2810   18.1400 C   0  0  0  0  0  0  0  0  0  0  0  0
    6.2910    0.5460   17.7540 N   0  0  0  0  0  0  0  0  0  0  0  0
    7.0050   -0.1570   18.8550 C   0  0  0  0  0  0  0  0  0  0  0  0
  1  2  1  0
  2  3  2  0
  3  4  1  0
  4  5  2  0
  5  6  1  0
  2  7  1  0
  6  7  2  0
  7  8  1  0
  8  9  1  6
  9 10  1  0
 10 11  1  0
 10 12  1  0
  8 13  1  0
 13 14  1  0
 14 15  2  0
 14 16  1  0
 16 17  1  0
 17 18  2  0
 18 19  1  0
 19 20  2  0
 20 21  1  0
 17 22  1  0
 21 22  2  0
M  END
