pyridine_urea_5500
     RDKit          3D

 18 19  0  0  0  0  0  0  0  0999 V2000
    8.8930    0.8130   21.4690 O   0  0  0  0  0  0  0  0  0  0  0  0
    8.4800   -0.3360   21.4980 C   0  0  0  0  0  0  0  0  0  0  0  0
    9.2090   -1.3740   22.0420 N   0  0  0  0  0  0  0  0  0  0  0  0
   10.6010   -1.1100   22.3870 C   0  0  0  0  0  0  0  0  0  0  0  0
   11.6740   -2.0130   21.6340 C   0  0  0  0  0  0  0  0  0  0  0  0
   12.9950   -1.9470   21.9920 C   0  0  0  0  0  0  0  0  0  0  0  0
   12.8540   -1.2120   23.1400 N   0  0  0  0  0  0  0  0  0  0  0  0
   12.9900   -1.5550   24.4680 C   0  0  0  0  0  0  0  0  0  0  0  0
   12.7000   -0.4500   25.1700 C   0  0  0  0  0  0  0  0  0  0  0  0
   12.3800    0.5730   24.1320 C   0  0  0  0  0  0  0  0  0  0  0  0
   12.4840    0.1100   22.8790 N   0  0  0  0  0  0  0  0  0  0  0  0
    7.2650   -0.7600   21.0090 N   0  0  0  0  0  0  0  0  0  0  0  0
    6.4860   -0.0420   20.0820 C   0  0  0  0  0  0  0  0  0  0  0  0
    5.1940    0.6980   20.3960 C   0  0  0  0  0  0  0  0  0  0  0  0
    4.5180    1.4200   19.2540 C   0  0  0  0  0  0  0  0  0  0  0  0
    5.2230    1.3140   17.9280 C   0  0  0  0  0  0  0  0  0  0  0  0
    6.3660    0.6290   17.7430 N   0  0  0  0  0  0  0  0  0  0  0  0
    6.9300    0.0060   18.7620 C   0  0  0  0  0  0  0  0  0  0  0  0
  1  2  2  0
  2  3  1  0
  3  4  1  0
  4  5  1  0
  5  6  1  0
  6  7  1  0
  7  8  1  0
  8  9  2  0
  9 10  1  0
  7 11  1  0
 10 11  2  0
  2 12  1  0
 12 13  1  0
 13 14  2  0
 14 15  1  0
 15 16  2  0
 16 17  1  0
 13 18  1  0
 17 18  2  0
M  END
