pyridine_urea_8313
     RDKit          3D

 23 24  0  0  0  0  0  0  0  0999 V2000
    9.3330    0.3540   29.9450 C   0  0  0  0  0  0  0  0  0  0  0  0
    8.3440   -0.2040   29.0870 O   0  0  0  0  0  0  0  0  0  0  0  0
    7.5910    0.8050   28.4030 C   0  0  0  0  0  0  0  0  0  0  0  0
    6.6100    0.0430   27.4330 C   0  0  0  0  0  0  0  0  0  0  0  0
    7.2190   -1.1410   26.9020 O   0  0  0  0  0  0  0  0  0  0  0  0
    8.4450   -0.6750   26.4810 C   0  0  0  0  0  0  0  0  0  0  0  0
    9.0630   -1.1870   25.1350 C   0  0  0  0  0  0  0  0  0  0  0  0
   10.4210   -1.8480   24.8620 C   0  0  0  0  0  0  0  0  0  0  0  0
   10.8230   -2.1720   23.5240 C   0  0  0  0  0  0  0  0  0  0  0  0
    9.8020   -1.7980   22.6200 C   0  0  0  0  0  0  0  0  0  0  0  0
   10.2100   -2.0550   21.3930 C   0  0  0  0  0  0  0  0  0  0  0  0
    9.0730   -1.4040   20.7790 N   0  0  0  0  0  0  0  0  0  0  0  0
    8.4820   -0.2450   21.2190 C   0  0  0  0  0  0  0  0  0  0  0  0
    9.2060    0.8970   21.6830 O   0  0  0  0  0  0  0  0  0  0  0  0
    7.0950   -0.3680   21.0840 N   0  0  0  0  0  0  0  0  0  0  0  0
    6.4350    0.2010   20.0120 C   0  0  0  0  0  0  0  0  0  0  0  0
    5.1680    0.9860   20.2530 C   0  0  0  0  0  0  0  0  0  0  0  0
    4.5520    1.5560   19.1540 C   0  0  0  0  0  0  0  0  0  0  0  0
    5.1290    1.3740   17.9020 C   0  0  0  0  0  0  0  0  0  0  0  0
    6.2510    0.6690   17.6710 N   0  0  0  0  0  0  0  0  0  0  0  0
    6.8740    0.1010   18.7170 C   0  0  0  0  0  0  0  0  0  0  0  0
    8.4780   -1.1960   22.8940 C   0  0  0  0  0  0  0  0  0  0  0  0
    8.1570   -0.9070   24.1590 C   0  0  0  0  0  0  0  0  0  0  0  0
  1  2  1  0
  2  3  1  0
  3  4  1  0
  4  5  1  0
  5  6  1  0
  6  7  1  0
  7  8  2  0
  8  9  1  0
  9 10  2  0
 10 11  1  0
 11 12  1  0
 12 13  1  0
 13 14  2  0
 13 15  1  0
 15 16  1  0
 16 17  2  0
 17 18  1  0
 18 19  2  0
 19 20  1  0
 16 21  1  0
 20 21  2  0
 10 22  1  0
  7 23  1  0
 22 23  2  0
M  END
