pyridine_urea_6334
     RDKit          3D

 23 25  0  0  0  0  0  0  0  0999 V2000
    4.7390   -1.2580   26.1820 C   0  0  0  0  0  0  0  0  0  0  0  0
    6.0910   -1.2230   25.8950 N   0  0  0  0  0  0  0  0  0  0  0  0
    7.1580   -1.1850   26.8930 C   0  0  0  0  0  0  0  0  0  0  0  0
    8.4090   -1.1580   26.1080 C   0  0  0  0  0  0  0  0  0  0  0  0
    7.9550   -1.1840   24.7130 C   0  0  0  0  0  0  0  0  0  0  0  0
    8.7460   -1.1790   23.5820 N   0  0  0  0  0  0  0  0  0  0  0  0
    9.8350   -1.6630   24.0200 C   0  0  0  0  0  0  0  0  0  0  0  0
   10.9670   -1.6320   22.9050 C   0  0  0  0  0  0  0  0  0  0  0  0
   10.5010   -0.8930   21.8470 C   0  0  0  0  0  0  0  0  0  0  0  0
    9.2340   -1.0670   21.9730 C   0  0  2  0  0  0  0  0  0  0  0  0
    8.5780   -1.1140   20.8980 N   0  0  0  0  0  0  0  0  0  0  0  0
    7.7920   -0.0750   20.9100 C   0  0  0  0  0  0  0  0  0  0  0  0
    8.2750    1.0540   20.9160 O   0  0  0  0  0  0  0  0  0  0  0  0
    6.5190   -0.4430   20.8990 N   0  0  0  0  0  0  0  0  0  0  0  0
    5.9790    0.2350   19.9230 C   0  0  0  0  0  0  0  0  0  0  0  0
    4.8250    0.9790   20.0100 C   0  0  0  0  0  0  0  0  0  0  0  0
    4.3450    1.6830   18.9470 C   0  0  0  0  0  0  0  0  0  0  0  0
    5.1010    1.6380   17.6510 C   0  0  0  0  0  0  0  0  0  0  0  0
    6.2950    0.8470   17.5720 N   0  0  0  0  0  0  0  0  0  0  0  0
    6.7210    0.1720   18.6600 C   0  0  0  0  0  0  0  0  0  0  0  0
    8.6950   -0.0140   22.9530 C   0  0  0  0  0  0  0  0  0  0  0  0
    8.1870    0.4180   24.2100 O   0  0  0  0  0  0  0  0  0  0  0  0
    6.5910   -1.2230   24.5960 N   0  0  0  0  0  0  0  0  0  0  0  0
  1  2  1  0
  2  3  1  0
  3  4  2  0
  4  5  1  0
  5  6  1  0
  6  7  1  0
  7  8  1  0
  8  9  1  0
  9 10  1  0
 10 11  1  6
 11 12  1  0
 12 13  2  0
 12 14  1  0
 14 15  1  0
 15 16  2  0
 16 17  1  0
 17 18  2  0
 18 19  1  0
 15 20  1  0
 19 20  2  0
  6 21  1  0
 10 21  1  0
 21 22  2  0
  2 23  1  0
  5 23  2  0
M  END
