pyridine_urea_2065
     RDKit          3D

 19 20  0  0  0  0  0  0  0  0999 V2000
   13.2680   -0.3600   22.2160 C   0  0  0  0  0  0  0  0  0  0  0  0
   13.0980   -1.3910   23.1570 O   0  0  0  0  0  0  0  0  0  0  0  0
   13.1050   -0.8480   24.3800 C   0  0  0  0  0  0  0  0  0  0  0  0
   11.7750   -0.8050   24.4090 C   0  0  0  0  0  0  0  0  0  0  0  0
   10.6250   -1.0930   23.7420 C   0  0  0  0  0  0  0  0  0  0  0  0
   10.1360   -1.6770   22.4930 C   0  0  2  0  0  0  0  0  0  0  0  0
   11.2730   -2.0890   21.8370 C   0  0  0  0  0  0  0  0  0  0  0  0
    9.3760   -1.1360   21.3900 N   0  0  0  0  0  0  0  0  0  0  0  0
    8.5360   -0.0740   21.4430 C   0  0  0  0  0  0  0  0  0  0  0  0
    8.8720    1.0780   21.6680 O   0  0  0  0  0  0  0  0  0  0  0  0
    7.2270   -0.4090   21.1620 N   0  0  0  0  0  0  0  0  0  0  0  0
    6.5220    0.1560   20.0920 C   0  0  0  0  0  0  0  0  0  0  0  0
    5.3600    0.8880   20.3620 C   0  0  0  0  0  0  0  0  0  0  0  0
    4.6920    1.4520   19.2930 C   0  0  0  0  0  0  0  0  0  0  0  0
    5.1730    1.2880   18.0080 C   0  0  0  0  0  0  0  0  0  0  0  0
    6.2660    0.5930   17.7090 N   0  0  0  0  0  0  0  0  0  0  0  0
    6.9190    0.0390   18.7620 C   0  0  0  0  0  0  0  0  0  0  0  0
   10.4330   -0.4030   25.2260 S   0  0  0  0  0  0  0  0  0  0  0  0
   12.2760   -0.3690   25.4140 N   0  0  0  0  0  0  0  0  0  0  0  0
  1  2  1  0
  2  3  1  0
  3  4  1  0
  4  5  2  0
  5  6  1  0
  6  7  1  6
  6  8  1  0
  8  9  1  0
  9 10  2  0
  9 11  1  0
 11 12  1  0
 12 13  2  0
 13 14  1  0
 14 15  2  0
 15 16  1  0
 12 17  1  0
 16 17  2  0
  5 18  1  0
  3 19  2  0
 18 19  1  0
M  END
