pyridine_urea_1734
     RDKit          3D

 18 18  0  0  0  0  0  0  0  0999 V2000
   13.3190   -0.2970   22.4380 C   0  0  0  0  0  0  0  0  0  0  0  0
   12.5540   -1.1000   23.4380 C   0  0  0  0  0  0  0  0  0  0  0  0
   11.2050   -1.4420   23.2680 C   0  0  0  0  0  0  0  0  0  0  0  0
   10.4980   -0.5090   22.5370 C   0  0  1  0  0  0  0  0  0  0  0  0
    9.0830   -0.5330   22.4880 N   0  0  0  0  0  0  0  0  0  0  0  0
    8.3550    0.1120   21.4920 C   0  0  0  0  0  0  0  0  0  0  0  0
    8.7190    1.2070   21.0520 O   0  0  0  0  0  0  0  0  0  0  0  0
    7.2620   -0.5840   21.1000 N   0  0  0  0  0  0  0  0  0  0  0  0
    6.5730    0.0100   20.0960 C   0  0  0  0  0  0  0  0  0  0  0  0
    5.4000    0.6980   20.3910 C   0  0  0  0  0  0  0  0  0  0  0  0
    4.6360    1.3860   19.2550 C   0  0  0  0  0  0  0  0  0  0  0  0
    5.1600    1.2800   17.9960 C   0  0  0  0  0  0  0  0  0  0  0  0
    6.2940    0.6000   17.7400 N   0  0  0  0  0  0  0  0  0  0  0  0
    6.9570   -0.0070   18.7640 C   0  0  0  0  0  0  0  0  0  0  0  0
   11.0320    0.7680   22.7330 C   0  0  0  0  0  0  0  0  0  0  0  0
   11.1760    2.0840   23.0040 O   0  0  0  0  0  0  0  0  0  0  0  0
    9.6430    0.9290   23.0340 O   0  0  0  0  0  0  0  0  0  0  0  0
    9.2920    2.3330   22.9620 C   0  0  0  0  0  0  0  0  0  0  0  0
  1  2  3  0
  2  3  1  0
  4  3  1  1
  4  5  1  0
  5  6  1  0
  6  7  2  0
  6  8  1  0
  8  9  1  0
  9 10  2  0
 10 11  1  0
 11 12  2  0
 12 13  1  0
  9 14  1  0
 13 14  2  0
  4 15  1  0
 15 16  2  0
 15 17  1  0
 17 18  1  0
M  END
