pyridine_urea_10272
     RDKit          3D

 22 24  0  0  0  0  0  0  0  0999 V2000
   13.4180   -3.1190   21.4600 O   0  0  0  0  0  0  0  0  0  0  0  0
   13.3640   -2.3430   22.3860 C   0  0  0  0  0  0  0  0  0  0  0  0
   13.0550   -0.9220   22.0790 C   0  0  0  0  0  0  0  0  0  0  0  0
   13.1010    0.0360   23.0710 C   0  0  0  0  0  0  0  0  0  0  0  0
   12.8010   -0.4740   24.3430 C   0  0  1  0  0  0  0  0  0  0  0  0
   11.4300   -0.1550   24.4900 N   0  0  0  0  0  0  0  0  0  0  0  0
   10.0870   -0.1180   24.1290 C   0  0  0  0  0  0  0  0  0  0  0  0
    9.7090   -0.6850   22.9660 C   0  0  0  0  0  0  0  0  0  0  0  0
    8.4600   -0.7070   22.5240 N   0  0  0  0  0  0  0  0  0  0  0  0
    8.0800    0.0770   21.4990 C   0  0  0  0  0  0  0  0  0  0  0  0
    8.7360    1.2450   21.1200 O   0  0  0  0  0  0  0  0  0  0  0  0
    6.9650   -0.4730   20.9440 N   0  0  0  0  0  0  0  0  0  0  0  0
    6.3390    0.1560   19.8980 C   0  0  0  0  0  0  0  0  0  0  0  0
    5.1500    0.8420   20.1370 C   0  0  0  0  0  0  0  0  0  0  0  0
    4.5390    1.4920   19.0810 C   0  0  0  0  0  0  0  0  0  0  0  0
    5.1470    1.4250   17.8370 C   0  0  0  0  0  0  0  0  0  0  0  0
    6.2790    0.7620   17.5950 N   0  0  0  0  0  0  0  0  0  0  0  0
    6.8510    0.1410   18.6310 C   0  0  0  0  0  0  0  0  0  0  0  0
   10.8780   -1.2110   22.3620 C   0  0  0  0  0  0  0  0  0  0  0  0
   11.8640   -0.8820   23.2770 N   0  0  0  0  0  0  0  0  0  0  0  0
   12.9320   -1.8550   24.6470 C   0  0  0  0  0  0  0  0  0  0  0  0
   13.5620   -2.5910   23.7160 N   0  0  0  0  0  0  0  0  0  0  0  0
  1  2  2  0
  2  3  1  0
  3  4  1  0
  4  5  1  0
  5  6  1  6
  6  7  1  0
  7  8  2  0
  8  9  1  0
  9 10  1  0
 10 11  2  0
 10 12  1  0
 12 13  1  0
 13 14  2  0
 14 15  1  0
 15 16  2  0
 16 17  1  0
 13 18  1  0
 17 18  2  0
  8 19  1  0
  6 20  1  0
 19 20  2  0
  5 21  1  0
  2 22  1  0
 21 22  1  0
M  END
