pyridine_urea_3582
     RDKit          3D

 17 17  0  0  0  0  0  0  0  0999 V2000
    7.4650   -1.8480   24.6000 C   0  0  0  0  0  0  0  0  0  0  0  0
    8.4320   -2.6640   24.0460 N   0  0  0  0  0  0  0  0  0  0  0  0
    8.0370   -3.6170   23.0410 C   0  0  0  0  0  0  0  0  0  0  0  0
    9.7090   -2.1210   24.0740 C   0  0  0  0  0  0  0  0  0  0  0  0
   10.0050   -1.1770   22.9440 C   0  0  0  0  0  0  0  0  0  0  0  0
   10.1810   -1.9740   21.6900 C   0  0  0  0  0  0  0  0  0  0  0  0
   11.3290   -0.4390   23.1890 C   0  0  0  0  0  0  0  0  0  0  0  0
    8.9730   -0.1750   22.7780 N   0  0  0  0  0  0  0  0  0  0  0  0
    8.4590    0.3340   21.5680 C   0  0  0  0  0  0  0  0  0  0  0  0
    8.8900    1.3780   21.0770 O   0  0  0  0  0  0  0  0  0  0  0  0
    7.4640   -0.4450   21.0700 N   0  0  0  0  0  0  0  0  0  0  0  0
    6.7180    0.0980   20.0770 C   0  0  0  0  0  0  0  0  0  0  0  0
    5.5790    0.8440   20.3930 C   0  0  0  0  0  0  0  0  0  0  0  0
    4.8040    1.4200   19.4040 C   0  0  0  0  0  0  0  0  0  0  0  0
    5.1790    1.2430   18.0890 C   0  0  0  0  0  0  0  0  0  0  0  0
    6.2590    0.5290   17.7440 N   0  0  0  0  0  0  0  0  0  0  0  0
    6.9990   -0.0270   18.7360 C   0  0  0  0  0  0  0  0  0  0  0  0
  1  2  1  0
  2  3  1  0
  2  4  1  0
  4  5  1  0
  5  6  1  0
  5  7  1  0
  5  8  1  0
  8  9  1  0
  9 10  2  0
  9 11  1  0
 11 12  1  0
 12 13  2  0
 13 14  1  0
 14 15  2  0
 15 16  1  0
 12 17  1  0
 16 17  2  0
M  END
