pyridine_urea_10093
     RDKit          3D

 24 25  0  0  0  0  0  0  0  0999 V2000
    9.4950    0.3400   23.6240 C   0  0  0  0  0  0  0  0  0  0  0  0
   10.2730    1.0310   22.9530 O   0  0  0  0  0  0  0  0  0  0  0  0
   11.6720    0.8770   22.9120 C   0  0  0  0  0  0  0  0  0  0  0  0
   12.3880   -0.3910   22.8570 C   0  0  0  0  0  0  0  0  0  0  0  0
   13.0560    0.5140   22.8430 C   0  0  0  0  0  0  0  0  0  0  0  0
   11.6270    0.9850   22.9550 C   0  0  0  0  0  0  0  0  0  0  0  0
   10.4930    0.1360   23.0500 C   0  0  0  0  0  0  0  0  0  0  0  0
   10.4400   -1.1900   22.2460 C   0  0  0  0  0  0  0  0  0  0  0  0
    9.1760   -1.4060   21.6690 N   0  0  0  0  0  0  0  0  0  0  0  0
    8.3030   -0.3940   21.3050 C   0  0  0  0  0  0  0  0  0  0  0  0
    8.6550    0.7820   21.1910 O   0  0  0  0  0  0  0  0  0  0  0  0
    6.9600   -0.9060   21.0860 N   0  0  0  0  0  0  0  0  0  0  0  0
    6.3280   -0.1060   20.0170 C   0  0  0  0  0  0  0  0  0  0  0  0
    5.1610    0.6000   20.3050 C   0  0  0  0  0  0  0  0  0  0  0  0
    4.6030    1.3430   19.2730 C   0  0  0  0  0  0  0  0  0  0  0  0
    5.2470    1.3590   17.9480 C   0  0  0  0  0  0  0  0  0  0  0  0
    6.3750    0.6580   17.7170 N   0  0  0  0  0  0  0  0  0  0  0  0
    6.8880   -0.0550   18.7440 C   0  0  0  0  0  0  0  0  0  0  0  0
   11.3240    2.3630   22.9920 C   0  0  0  0  0  0  0  0  0  0  0  0
   10.2950    3.2670   23.0850 O   0  0  0  0  0  0  0  0  0  0  0  0
    9.1720    3.0930   22.2380 C   0  0  0  0  0  0  0  0  0  0  0  0
   12.5270    2.2900   22.9150 C   0  0  0  0  0  0  0  0  0  0  0  0
   12.5470    3.6560   22.9560 O   0  0  0  0  0  0  0  0  0  0  0  0
   12.5990    4.3710   21.7150 C   0  0  0  0  0  0  0  0  0  0  0  0
  1  2  1  0
  2  3  1  0
  3  4  2  0
  4  5  1  0
  5  6  2  0
  6  7  1  0
  7  8  1  0
  8  9  1  0
  9 10  1  0
 10 11  2  0
 10 12  1  0
 12 13  1  0
 13 14  2  0
 14 15  1  0
 15 16  2  0
 16 17  1  0
 13 18  1  0
 17 18  2  0
  6 19  1  0
 19 20  1  0
 20 21  1  0
  3 22  1  0
 19 22  2  0
 22 23  1  0
 23 24  1  0
M  END
