pyridine_urea_13772
     RDKit          3D

 25 27  0  0  0  0  0  0  0  0999 V2000
   11.2800   -2.0660   21.9810 C   0  0  0  0  0  0  0  0  0  0  0  0
   10.7700   -1.8370   23.0440 C   0  0  0  0  0  0  0  0  0  0  0  0
   10.4470   -1.1030   24.3530 C   0  0  0  0  0  0  0  0  0  0  0  0
    9.3390   -1.9550   22.4590 C   0  0  2  0  0  0  0  0  0  0  0  0
    9.1520   -0.5150   22.5170 N   0  0  0  0  0  0  0  0  0  0  0  0
    8.4750    0.1710   21.5210 C   0  0  0  0  0  0  0  0  0  0  0  0
    8.8930    1.5020   21.0920 O   0  0  0  0  0  0  0  0  0  0  0  0
    7.4070   -0.5270   21.0490 N   0  0  0  0  0  0  0  0  0  0  0  0
    6.6830    0.0410   20.0420 C   0  0  0  0  0  0  0  0  0  0  0  0
    5.4690    0.8290   20.3800 C   0  0  0  0  0  0  0  0  0  0  0  0
    4.6310    1.4690   19.5180 C   0  0  0  0  0  0  0  0  0  0  0  0
    5.2000    1.2110   18.1380 C   0  0  0  0  0  0  0  0  0  0  0  0
    6.2780    0.5110   17.7700 N   0  0  0  0  0  0  0  0  0  0  0  0
    7.0070   -0.0680   18.7270 C   0  0  0  0  0  0  0  0  0  0  0  0
    8.2660   -2.6480   23.3070 C   0  0  0  0  0  0  0  0  0  0  0  0
    7.5680   -3.9050   23.1550 N   0  0  0  0  0  0  0  0  0  0  0  0
    6.7410   -3.8880   24.2440 C   0  0  0  0  0  0  0  0  0  0  0  0
    5.7630   -4.9920   24.5560 C   0  0  0  0  0  0  0  0  0  0  0  0
    5.7770   -5.2720   23.1090 C   0  0  0  0  0  0  0  0  0  0  0  0
    4.8690   -6.4080   22.8000 C   0  0  0  0  0  0  0  0  0  0  0  0
    4.1650   -7.0190   23.8710 C   0  0  0  0  0  0  0  0  0  0  0  0
    4.2160   -6.6880   25.2060 N   0  0  0  0  0  0  0  0  0  0  0  0
    5.0420   -5.6480   25.5290 C   0  0  0  0  0  0  0  0  0  0  0  0
    6.8540   -2.7910   25.0310 N   0  0  0  0  0  0  0  0  0  0  0  0
    7.8520   -1.9820   24.4160 O   0  0  0  0  0  0  0  0  0  0  0  0
  1  2  1  0
  2  3  1  0
  2  4  1  0
  4  5  1  1
  5  6  1  0
  6  7  2  0
  6  8  1  0
  8  9  1  0
  9 10  2  0
 10 11  1  0
 11 12  2  0
 12 13  1  0
  9 14  1  0
 13 14  2  0
  4 15  1  0
 15 16  2  0
 16 17  1  0
 17 18  1  0
 18 19  2  0
 19 20  1  0
 20 21  2  0
 21 22  1  0
 18 23  1  0
 22 23  2  0
 17 24  2  0
 15 25  1  0
 24 25  1  0
M  END
