pyridine_urea_5888
     RDKit          3D

 16 16  0  0  0  0  0  0  0  0999 V2000
   11.4840    5.2630   24.2870 C   0  0  0  0  0  0  0  0  0  0  0  0
   10.5150    4.2340   23.7650 C   0  0  0  0  0  0  0  0  0  0  0  0
   11.0050    3.2530   22.8900 C   0  0  0  0  0  0  0  0  0  0  0  0
   10.3820    1.9890   22.8650 C   0  0  0  0  0  0  0  0  0  0  0  0
   11.0360    0.7390   22.8850 C   0  0  0  0  0  0  0  0  0  0  0  0
   10.4510   -0.6510   22.8610 C   0  0  0  0  0  0  0  0  0  0  0  0
    9.0490   -0.6750   22.4980 N   0  0  0  0  0  0  0  0  0  0  0  0
    8.4070    0.0480   21.5370 C   0  0  0  0  0  0  0  0  0  0  0  0
    8.8570    1.1320   21.1420 O   0  0  0  0  0  0  0  0  0  0  0  0
    7.1730   -0.5690   21.0660 N   0  0  0  0  0  0  0  0  0  0  0  0
    6.5050    0.0450   20.0370 C   0  0  0  0  0  0  0  0  0  0  0  0
    5.3540    0.7650   20.3300 C   0  0  0  0  0  0  0  0  0  0  0  0
    4.6660    1.4020   19.3010 C   0  0  0  0  0  0  0  0  0  0  0  0
    5.1550    1.2980   18.0100 C   0  0  0  0  0  0  0  0  0  0  0  0
    6.2570    0.6030   17.7040 N   0  0  0  0  0  0  0  0  0  0  0  0
    6.9060   -0.0050   18.7160 C   0  0  0  0  0  0  0  0  0  0  0  0
  1  2  1  0
  2  3  1  0
  3  4  1  0
  4  5  2  3
  5  6  1  0
  6  7  1  0
  7  8  1  0
  8  9  2  0
  8 10  1  0
 10 11  1  0
 11 12  2  0
 12 13  1  0
 13 14  2  0
 14 15  1  0
 11 16  1  0
 15 16  2  0
M  END
