pyridine_urea_6272
     RDKit          3D

 23 24  0  0  0  0  0  0  0  0999 V2000
   13.2970   -2.8170   20.8960 C   0  0  0  0  0  0  0  0  0  0  0  0
   12.4930   -2.3300   22.3880 S   0  0  0  0  0  0  0  0  0  0  0  0
   13.6310   -2.5860   23.7650 C   0  0  0  0  0  0  0  0  0  0  0  0
   11.3000   -3.0750   22.6500 O   0  0  0  0  0  0  0  0  0  0  0  0
   12.3270   -0.8100   21.9990 N   0  0  0  0  0  0  0  0  0  0  0  0
   10.9140   -0.7250   21.9140 C   0  0  0  0  0  0  0  0  0  0  0  0
   10.1060   -0.7640   21.0440 O   0  0  0  0  0  0  0  0  0  0  0  0
   10.6930   -0.6030   23.1920 C   0  0  0  0  0  0  0  0  0  0  0  0
   11.8150   -0.5000   23.8530 C   0  0  0  0  0  0  0  0  0  0  0  0
   11.8260   -0.3740   25.2310 C   0  0  0  0  0  0  0  0  0  0  0  0
   10.4950   -0.3350   25.8400 C   0  0  0  0  0  0  0  0  0  0  0  0
    9.3000   -0.4240   25.2230 C   0  0  0  0  0  0  0  0  0  0  0  0
    9.2770   -0.6040   23.7150 C   0  0  0  0  0  0  0  0  0  0  0  0
    8.7460   -0.7770   22.4610 N   0  0  0  0  0  0  0  0  0  0  0  0
    8.1100    0.1520   21.5170 C   0  0  0  0  0  0  0  0  0  0  0  0
    8.7220    1.2370   21.1510 O   0  0  0  0  0  0  0  0  0  0  0  0
    6.9040   -0.3030   21.1340 N   0  0  0  0  0  0  0  0  0  0  0  0
    6.3860    0.2170   20.0200 C   0  0  0  0  0  0  0  0  0  0  0  0
    5.2410    0.9780   20.1680 C   0  0  0  0  0  0  0  0  0  0  0  0
    4.3690    1.7360   19.1510 C   0  0  0  0  0  0  0  0  0  0  0  0
    5.1870    1.3760   17.9170 C   0  0  0  0  0  0  0  0  0  0  0  0
    6.2900    0.6470   17.6990 N   0  0  0  0  0  0  0  0  0  0  0  0
    6.9030    0.0460   18.7930 C   0  0  0  0  0  0  0  0  0  0  0  0
  2  1  1  0
  2  3  1  0
  2  4  2  0
  2  5  2  0
  5  6  1  0
  6  7  2  0
  6  8  1  0
  8  9  2  0
  9 10  1  0
 10 11  2  0
 11 12  1  0
  8 13  1  0
 12 13  2  0
 13 14  1  0
 14 15  1  0
 15 16  2  0
 15 17  1  0
 17 18  1  0
 18 19  2  0
 19 20  1  0
 20 21  2  0
 21 22  1  0
 18 23  1  0
 22 23  2  0
M  END
