pyridine_urea_4481
     RDKit          3D

 23 24  0  0  0  0  0  0  0  0999 V2000
   13.3580   -2.4760   24.9420 C   0  0  0  0  0  0  0  0  0  0  0  0
   13.6850   -2.2800   23.5740 O   0  0  0  0  0  0  0  0  0  0  0  0
   12.8360   -1.3140   22.9650 C   0  0  0  0  0  0  0  0  0  0  0  0
   11.3810   -1.6470   23.2570 C   0  0  0  0  0  0  0  0  0  0  0  0
   10.4910   -0.6310   22.6270 C   0  0  1  0  0  0  0  0  0  0  0  0
    9.0790   -1.0280   22.4550 N   0  0  0  0  0  0  0  0  0  0  0  0
    8.3770   -0.2250   21.5700 C   0  0  0  0  0  0  0  0  0  0  0  0
    8.7780    0.9010   21.2970 O   0  0  0  0  0  0  0  0  0  0  0  0
    7.2030   -0.7970   21.0370 N   0  0  0  0  0  0  0  0  0  0  0  0
    6.4600   -0.1070   20.0950 C   0  0  0  0  0  0  0  0  0  0  0  0
    5.1490    0.6360   20.3690 C   0  0  0  0  0  0  0  0  0  0  0  0
    4.5850    1.2810   19.2550 C   0  0  0  0  0  0  0  0  0  0  0  0
    5.2080    1.2220   18.0120 C   0  0  0  0  0  0  0  0  0  0  0  0
    6.3540    0.5620   17.7800 N   0  0  0  0  0  0  0  0  0  0  0  0
    6.9430   -0.0780   18.8040 C   0  0  0  0  0  0  0  0  0  0  0  0
   10.6340    0.8210   23.0090 C   0  0  0  0  0  0  0  0  0  0  0  0
    9.5040    1.0630   23.6050 C   0  0  0  0  0  0  0  0  0  0  0  0
    9.7680    2.5740   23.8800 C   0  0  0  0  0  0  0  0  0  0  0  0
   11.0660    3.2630   23.4660 C   0  0  0  0  0  0  0  0  0  0  0  0
   11.1900    4.9560   23.8150 Cl  0  0  0  0  0  0  0  0  0  0  0  0
   12.2790    2.5700   22.7510 C   0  0  0  0  0  0  0  0  0  0  0  0
   13.1390    4.0780   22.7460 Cl  0  0  0  0  0  0  0  0  0  0  0  0
   11.2140    1.9690   23.0780 C   0  0  0  0  0  0  0  0  0  0  0  0
  1  2  1  0
  2  3  1  0
  3  4  1  0
  5  4  1  1
  5  6  1  0
  6  7  1  0
  7  8  2  0
  7  9  1  0
  9 10  1  0
 10 11  2  0
 11 12  1  0
 12 13  2  0
 13 14  1  0
 10 15  1  0
 14 15  2  0
  5 16  1  0
 16 17  2  0
 17 18  1  0
 18 19  2  0
 19 20  1  0
 19 21  1  0
 21 22  1  0
 16 23  1  0
 21 23  2  0
M  END
