pyridine_urea_11770
     RDKit          3D

 26 28  0  0  0  0  0  0  0  0999 V2000
    9.0320    1.1110   21.2020 O   0  0  0  0  0  0  0  0  0  0  0  0
    8.3930    0.1220   21.5880 C   0  0  0  0  0  0  0  0  0  0  0  0
    8.5970   -0.5470   22.7670 N   0  0  0  0  0  0  0  0  0  0  0  0
    7.8660   -0.2670   23.9440 C   0  0  0  0  0  0  0  0  0  0  0  0
    8.1380   -1.0110   25.0930 C   0  0  0  0  0  0  0  0  0  0  0  0
    8.6670   -2.3070   24.7490 O   0  0  0  0  0  0  0  0  0  0  0  0
    7.9000   -0.4990   26.3540 N   0  0  0  0  0  0  0  0  0  0  0  0
    7.3660    0.7940   26.6030 C   0  0  0  0  0  0  0  0  0  0  0  0
    6.6820    0.8530   27.8090 C   0  0  0  0  0  0  0  0  0  0  0  0
    7.6960    0.7900   28.7250 N   0  0  0  0  0  0  0  0  0  0  0  0
    8.3950    1.8950   29.2660 C   0  0  0  0  0  0  0  0  0  0  0  0
    8.9730    1.5230   30.4830 C   0  0  0  0  0  0  0  0  0  0  0  0
    8.1610    1.6860   31.7810 C   0  0  0  0  0  0  0  0  0  0  0  0
    8.7460    1.3120   32.9770 C   0  0  0  0  0  0  0  0  0  0  0  0
   10.0500    0.7950   33.0140 C   0  0  0  0  0  0  0  0  0  0  0  0
   10.7980    0.6410   31.8420 C   0  0  0  0  0  0  0  0  0  0  0  0
   10.2650    1.0000   30.6150 C   0  0  0  0  0  0  0  0  0  0  0  0
    8.3770   -0.3700   28.7730 C   0  0  0  0  0  0  0  0  0  0  0  0
    8.4510   -1.1190   27.4700 C   0  0  0  0  0  0  0  0  0  0  0  0
    7.3460   -0.4800   20.9300 N   0  0  0  0  0  0  0  0  0  0  0  0
    6.5560    0.1300   20.0260 C   0  0  0  0  0  0  0  0  0  0  0  0
    5.3850    0.8350   20.3220 C   0  0  0  0  0  0  0  0  0  0  0  0
    4.6710    1.4370   19.2840 C   0  0  0  0  0  0  0  0  0  0  0  0
    5.1680    1.3000   18.0030 C   0  0  0  0  0  0  0  0  0  0  0  0
    6.2750    0.6280   17.6810 N   0  0  0  0  0  0  0  0  0  0  0  0
    6.9390    0.0600   18.7020 C   0  0  0  0  0  0  0  0  0  0  0  0
  1  2  2  0
  2  3  1  0
  3  4  1  0
  4  5  1  0
  5  6  2  0
  5  7  1  0
  7  8  1  0
  8  9  1  0
  9 10  1  0
 10 11  1  0
 11 12  1  0
 12 13  2  0
 13 14  1  0
 14 15  2  0
 15 16  1  0
 12 17  1  0
 16 17  2  0
 10 18  1  0
  7 19  1  0
 18 19  1  0
  2 20  1  0
 20 21  1  0
 21 22  2  0
 22 23  1  0
 23 24  2  0
 24 25  1  0
 21 26  1  0
 25 26  2  0
M  END
