pyridine_urea_4916
     RDKit          3D

 21 22  0  0  0  0  0  0  0  0999 V2000
   13.0570   -2.3210   20.8890 C   0  0  0  0  0  0  0  0  0  0  0  0
   12.4860   -2.0630   22.2560 C   0  0  0  0  0  0  0  0  0  0  0  0
   13.5200   -1.7910   23.1510 O   0  0  0  0  0  0  0  0  0  0  0  0
   12.7230   -1.3090   24.1240 C   0  0  0  0  0  0  0  0  0  0  0  0
   11.9790   -2.1600   25.0490 O   0  0  0  0  0  0  0  0  0  0  0  0
   12.4940    0.0130   24.3720 C   0  0  0  0  0  0  0  0  0  0  0  0
   11.4000    0.0650   23.9230 C   0  0  0  0  0  0  0  0  0  0  0  0
   10.4720   -0.5170   23.3740 C   0  0  0  0  0  0  0  0  0  0  0  0
    9.9400   -1.6710   22.8390 C   0  0  0  0  0  0  0  0  0  0  0  0
    8.6150   -1.5920   22.3770 N   0  0  0  0  0  0  0  0  0  0  0  0
    8.0880   -0.5680   21.6070 C   0  0  0  0  0  0  0  0  0  0  0  0
    8.7070    0.6880   21.4730 O   0  0  0  0  0  0  0  0  0  0  0  0
    6.9010   -0.9220   21.0080 N   0  0  0  0  0  0  0  0  0  0  0  0
    6.3270   -0.1700   20.0010 C   0  0  0  0  0  0  0  0  0  0  0  0
    5.1350    0.5150   20.2750 C   0  0  0  0  0  0  0  0  0  0  0  0
    4.5460    1.2920   19.2670 C   0  0  0  0  0  0  0  0  0  0  0  0
    5.2310    1.3460   17.9450 C   0  0  0  0  0  0  0  0  0  0  0  0
    6.3670    0.6740   17.7200 N   0  0  0  0  0  0  0  0  0  0  0  0
    6.8810   -0.0580   18.7360 C   0  0  0  0  0  0  0  0  0  0  0  0
   10.1830    0.7990   23.6000 O   0  0  0  0  0  0  0  0  0  0  0  0
   11.5630    1.1330   24.2720 N   0  0  0  0  0  0  0  0  0  0  0  0
  1  2  1  0
  2  3  1  0
  3  4  1  0
  4  5  2  0
  4  6  1  0
  6  7  1  0
  7  8  2  0
  8  9  1  0
  9 10  1  0
 10 11  1  0
 11 12  2  0
 11 13  1  0
 13 14  1  0
 14 15  2  0
 15 16  1  0
 16 17  2  0
 17 18  1  0
 14 19  1  0
 18 19  2  0
  8 20  1  0
  6 21  2  0
 20 21  1  0
M  END
