pyridine_urea_8769
     RDKit          3D

 21 23  0  0  0  0  0  0  0  0999 V2000
    8.8360    1.2280   21.1360 O   0  0  0  0  0  0  0  0  0  0  0  0
    8.2340    0.1710   21.3550 C   0  0  0  0  0  0  0  0  0  0  0  0
    6.9420   -0.1340   21.0820 N   0  0  0  0  0  0  0  0  0  0  0  0
    6.3300    0.3800   19.9710 C   0  0  0  0  0  0  0  0  0  0  0  0
    5.1650    1.1160   20.1420 C   0  0  0  0  0  0  0  0  0  0  0  0
    4.5500    1.6650   19.0290 C   0  0  0  0  0  0  0  0  0  0  0  0
    5.1320    1.4500   17.8030 C   0  0  0  0  0  0  0  0  0  0  0  0
    6.2480    0.7320   17.6170 N   0  0  0  0  0  0  0  0  0  0  0  0
    6.8210    0.2120   18.7050 C   0  0  0  0  0  0  0  0  0  0  0  0
    8.7840   -0.9250   21.8940 N   0  0  0  0  0  0  0  0  0  0  0  0
    9.9330   -0.8450   22.7170 C   0  0  2  0  0  0  0  0  0  0  0  0
    9.6750   -0.7200   24.1740 C   0  0  0  0  0  0  0  0  0  0  0  0
   10.6360    0.2080   24.6500 C   0  0  0  0  0  0  0  0  0  0  0  0
   11.2550    1.1790   23.7740 C   0  0  0  0  0  0  0  0  0  0  0  0
   12.2250    0.7250   22.8930 C   0  0  0  0  0  0  0  0  0  0  0  0
   11.8620   -0.5690   22.6750 C   0  0  0  0  0  0  0  0  0  0  0  0
   13.3200   -0.6620   22.6990 C   0  0  0  0  0  0  0  0  0  0  0  0
   13.4410   -1.9200   22.5630 C   0  0  0  0  0  0  0  0  0  0  0  0
   12.5150   -0.9960   22.6270 C   0  0  0  0  0  0  0  0  0  0  0  0
   12.0650    0.3210   22.7340 C   0  0  0  0  0  0  0  0  0  0  0  0
   10.6920    0.2640   22.7310 C   0  0  0  0  0  0  0  0  0  0  0  0
  1  2  2  0
  2  3  1  0
  3  4  1  0
  4  5  2  0
  5  6  1  0
  6  7  2  0
  7  8  1  0
  4  9  1  0
  8  9  2  0
  2 10  1  0
 11 10  1  6
 11 12  1  0
 12 13  1  0
 13 14  1  0
 14 15  1  0
 15 16  1  0
 16 17  1  0
 17 18  2  0
 18 19  1  0
 19 20  2  0
 11 21  1  0
 16 21  2  0
 20 21  1  0
M  END
