pyridine_urea_12929
     RDKit          3D

 19 20  0  0  0  0  0  0  0  0999 V2000
    9.8490    0.5970   23.3850 C   0  0  0  0  0  0  0  0  0  0  0  0
    9.9890   -0.2080   22.1370 C   0  0  2  0  0  0  0  0  0  0  0  0
    8.8080   -0.9740   21.9320 N   0  0  0  0  0  0  0  0  0  0  0  0
    7.9060   -0.2570   21.2320 C   0  0  0  0  0  0  0  0  0  0  0  0
    8.1960    1.0880   20.8500 O   0  0  0  0  0  0  0  0  0  0  0  0
    6.7820   -0.9560   20.9710 N   0  0  0  0  0  0  0  0  0  0  0  0
    6.2040   -0.1670   20.0150 C   0  0  0  0  0  0  0  0  0  0  0  0
    5.0450    0.5940   20.1430 C   0  0  0  0  0  0  0  0  0  0  0  0
    4.5390    1.3700   19.1040 C   0  0  0  0  0  0  0  0  0  0  0  0
    5.2250    1.3750   17.9070 C   0  0  0  0  0  0  0  0  0  0  0  0
    6.3440    0.6590   17.7310 N   0  0  0  0  0  0  0  0  0  0  0  0
    6.8020   -0.0830   18.7680 C   0  0  0  0  0  0  0  0  0  0  0  0
   11.1940   -1.0400   22.2690 C   0  0  0  0  0  0  0  0  0  0  0  0
   11.7490   -2.1460   21.7270 C   0  0  0  0  0  0  0  0  0  0  0  0
   13.0630   -2.4350   22.4350 C   0  0  0  0  0  0  0  0  0  0  0  0
   13.7120   -1.6980   23.5280 N   0  0  0  0  0  0  0  0  0  0  0  0
   12.9400   -0.6490   23.7960 C   0  0  0  0  0  0  0  0  0  0  0  0
   12.2290   -1.1080   22.9280 C   0  0  0  0  0  0  0  0  0  0  0  0
   12.8540   -2.1890   22.4790 F   0  0  0  0  0  0  0  0  0  0  0  0
  2  1  1  1
  2  3  1  0
  3  4  1  0
  4  5  2  0
  4  6  1  0
  6  7  1  0
  7  8  2  0
  8  9  1  0
  9 10  2  0
 10 11  1  0
  7 12  1  0
 11 12  2  0
  2 13  1  0
 13 14  2  0
 14 15  1  0
 15 16  2  0
 16 17  1  0
 13 18  1  0
 17 18  2  0
 18 19  1  0
M  END
