pyridine_urea_5118
     RDKit          3D

 20 21  0  0  0  0  0  0  0  0999 V2000
   12.5460   -1.1780   22.1600 C   0  0  0  0  0  0  0  0  0  0  0  0
   11.2330   -1.6830   21.5790 C   0  0  0  0  0  0  0  0  0  0  0  0
   10.2130   -2.0090   22.3990 C   0  0  2  0  0  0  0  0  0  0  0  0
    8.8750   -1.7130   21.8940 N   0  0  0  0  0  0  0  0  0  0  0  0
    8.4270   -0.4780   21.4670 C   0  0  0  0  0  0  0  0  0  0  0  0
    9.0970    0.5390   21.3850 O   0  0  0  0  0  0  0  0  0  0  0  0
    7.0020   -0.6180   21.1390 N   0  0  0  0  0  0  0  0  0  0  0  0
    6.4190    0.0380   20.0870 C   0  0  0  0  0  0  0  0  0  0  0  0
    5.1400    0.8210   20.3580 C   0  0  0  0  0  0  0  0  0  0  0  0
    4.5680    1.4790   19.2750 C   0  0  0  0  0  0  0  0  0  0  0  0
    5.2730    1.3580   17.9200 C   0  0  0  0  0  0  0  0  0  0  0  0
    6.4030    0.6470   17.7420 N   0  0  0  0  0  0  0  0  0  0  0  0
    6.9410    0.0110   18.8060 C   0  0  0  0  0  0  0  0  0  0  0  0
   10.4110   -1.4240   23.5550 C   0  0  0  0  0  0  0  0  0  0  0  0
    9.0930   -1.3580   23.8640 C   0  0  0  0  0  0  0  0  0  0  0  0
    8.9290   -0.7490   25.1410 C   0  0  0  0  0  0  0  0  0  0  0  0
   10.0720   -0.2990   25.9290 C   0  0  0  0  0  0  0  0  0  0  0  0
    9.7950    0.2440   27.1290 F   0  0  0  0  0  0  0  0  0  0  0  0
   11.4280   -0.4580   25.4170 C   0  0  0  0  0  0  0  0  0  0  0  0
   11.3340   -0.9950   24.3100 C   0  0  0  0  0  0  0  0  0  0  0  0
  1  2  1  0
  3  2  1  6
  3  4  1  0
  4  5  1  0
  5  6  2  0
  5  7  1  0
  7  8  1  0
  8  9  2  0
  9 10  1  0
 10 11  2  0
 11 12  1  0
  8 13  1  0
 12 13  2  0
  3 14  1  0
 14 15  2  0
 15 16  1  0
 16 17  2  0
 17 18  1  0
 17 19  1  0
 14 20  1  0
 19 20  2  0
M  END
