pyridine_urea_9662
     RDKit          3D

 15 15  0  0  0  0  0  0  0  0999 V2000
   12.8620    0.8370   23.0080 C   0  0  0  0  0  0  0  0  0  0  0  0
   12.4250   -0.4970   23.5870 C   0  0  2  0  0  0  0  0  0  0  0  0
   12.8730   -1.4930   22.7700 F   0  0  0  0  0  0  0  0  0  0  0  0
   10.9180   -0.5380   23.6640 C   0  0  0  0  0  0  0  0  0  0  0  0
   10.3040   -1.2870   22.5220 C   0  0  0  0  0  0  0  0  0  0  0  0
    8.8910   -0.8890   22.4460 N   0  0  0  0  0  0  0  0  0  0  0  0
    8.4190   -0.0070   21.5000 C   0  0  0  0  0  0  0  0  0  0  0  0
    8.9590    1.0740   21.2300 O   0  0  0  0  0  0  0  0  0  0  0  0
    7.2380   -0.5330   20.9400 N   0  0  0  0  0  0  0  0  0  0  0  0
    6.4700    0.1200   20.0110 C   0  0  0  0  0  0  0  0  0  0  0  0
    5.1800    0.8900   20.3030 C   0  0  0  0  0  0  0  0  0  0  0  0
    4.5960    1.4820   19.1790 C   0  0  0  0  0  0  0  0  0  0  0  0
    5.1790    1.3490   17.9280 C   0  0  0  0  0  0  0  0  0  0  0  0
    6.3030    0.6640   17.6830 N   0  0  0  0  0  0  0  0  0  0  0  0
    6.9120    0.0740   18.7160 C   0  0  0  0  0  0  0  0  0  0  0  0
  2  1  1  6
  2  3  1  0
  2  4  1  0
  4  5  1  0
  5  6  1  0
  6  7  1  0
  7  8  2  0
  7  9  1  0
  9 10  1  0
 10 11  2  0
 11 12  1  0
 12 13  2  0
 13 14  1  0
 10 15  1  0
 14 15  2  0
M  END
