pyridine_urea_5073
     RDKit          3D

 20 22  0  0  0  0  0  0  0  0999 V2000
   12.9910   -2.4100   21.2560 C   0  0  0  0  0  0  0  0  0  0  0  0
   12.6250   -1.3570   22.0010 N   0  0  0  0  0  0  0  0  0  0  0  0
   13.5850   -0.3090   22.4800 N   0  0  0  0  0  0  0  0  0  0  0  0
   12.9490    0.7470   23.2410 C   0  0  0  0  0  0  0  0  0  0  0  0
   11.7370    1.2030   23.7220 C   0  0  0  0  0  0  0  0  0  0  0  0
   10.6440    0.8250   23.2110 C   0  0  0  0  0  0  0  0  0  0  0  0
   10.8330    0.1060   24.4440 C   0  0  0  0  0  0  0  0  0  0  0  0
   12.4800   -0.2350   22.7300 C   0  0  0  0  0  0  0  0  0  0  0  0
   11.4670   -0.9360   22.4940 C   0  0  0  0  0  0  0  0  0  0  0  0
    9.9510   -1.2180   22.6190 C   0  0  0  0  0  0  0  0  0  0  0  0
    9.2480   -1.2180   21.4740 N   0  0  0  0  0  0  0  0  0  0  0  0
    8.3690   -0.2100   21.2940 C   0  0  0  0  0  0  0  0  0  0  0  0
    8.7140    0.9680   21.3110 O   0  0  0  0  0  0  0  0  0  0  0  0
    7.1200   -0.6780   21.0710 N   0  0  0  0  0  0  0  0  0  0  0  0
    6.4240   -0.0050   20.1190 C   0  0  0  0  0  0  0  0  0  0  0  0
    5.2400    0.7090   20.3080 C   0  0  0  0  0  0  0  0  0  0  0  0
    4.6520    1.3560   19.2290 C   0  0  0  0  0  0  0  0  0  0  0  0
    5.2140    1.3110   17.9700 C   0  0  0  0  0  0  0  0  0  0  0  0
    6.3500    0.6320   17.7380 N   0  0  0  0  0  0  0  0  0  0  0  0
    6.9200   -0.0060   18.8100 C   0  0  0  0  0  0  0  0  0  0  0  0
  1  2  1  0
  2  3  1  0
  3  4  2  0
  4  5  1  0
  5  6  1  0
  5  7  1  0
  6  7  1  0
  4  8  1  0
  2  9  1  0
  8  9  2  0
  9 10  1  0
 10 11  1  0
 11 12  1  0
 12 13  2  0
 12 14  1  0
 14 15  1  0
 15 16  2  0
 16 17  1  0
 17 18  2  0
 18 19  1  0
 15 20  1  0
 19 20  2  0
M  END
