pyridine_urea_3262
     RDKit          3D

 20 21  0  0  0  0  0  0  0  0999 V2000
   12.8270   -0.8390   22.5180 C   0  0  0  0  0  0  0  0  0  0  0  0
   11.3940   -1.1720   22.8560 C   0  0  1  0  0  0  0  0  0  0  0  0
   10.5170   -0.0820   22.9380 C   0  0  0  0  0  0  0  0  0  0  0  0
    9.1310   -0.3350   22.5580 N   0  0  0  0  0  0  0  0  0  0  0  0
    8.5120    0.4310   21.5840 C   0  0  0  0  0  0  0  0  0  0  0  0
    8.9670    1.5000   21.1790 O   0  0  0  0  0  0  0  0  0  0  0  0
    7.2560   -0.2010   21.1470 N   0  0  0  0  0  0  0  0  0  0  0  0
    6.5560    0.3070   20.0900 C   0  0  0  0  0  0  0  0  0  0  0  0
    5.3140    1.1290   20.3860 C   0  0  0  0  0  0  0  0  0  0  0  0
    4.6330    1.6440   19.2950 C   0  0  0  0  0  0  0  0  0  0  0  0
    5.1930    1.3400   17.9060 C   0  0  0  0  0  0  0  0  0  0  0  0
    6.2920    0.5980   17.7020 N   0  0  0  0  0  0  0  0  0  0  0  0
    6.9400    0.1030   18.7770 C   0  0  0  0  0  0  0  0  0  0  0  0
   10.8180   -2.0010   22.1520 O   0  0  0  0  0  0  0  0  0  0  0  0
    9.5260   -2.3860   22.4230 C   0  0  0  0  0  0  0  0  0  0  0  0
    9.1630   -3.1160   23.5410 C   0  0  0  0  0  0  0  0  0  0  0  0
    7.8130   -3.4610   23.7320 C   0  0  0  0  0  0  0  0  0  0  0  0
    6.8350   -3.0870   22.8260 C   0  0  0  0  0  0  0  0  0  0  0  0
    7.2070   -2.3640   21.7180 C   0  0  0  0  0  0  0  0  0  0  0  0
    8.5440   -2.0080   21.5050 C   0  0  0  0  0  0  0  0  0  0  0  0
  2  1  1  6
  2  3  1  0
  3  4  1  0
  4  5  1  0
  5  6  2  0
  5  7  1  0
  7  8  1  0
  8  9  2  0
  9 10  1  0
 10 11  2  0
 11 12  1  0
  8 13  1  0
 12 13  2  0
  2 14  1  0
 14 15  1  0
 15 16  2  0
 16 17  1  0
 17 18  2  0
 18 19  1  0
 15 20  1  0
 19 20  2  0
M  END
