pyridine_urea_3112
     RDKit          3D

 21 22  0  0  0  0  0  0  0  0999 V2000
    9.3110   -0.0360   26.2190 C   0  0  0  0  0  0  0  0  0  0  0  0
    9.0370    1.0760   25.3930 O   0  0  0  0  0  0  0  0  0  0  0  0
    9.3340    0.9670   24.0620 C   0  0  0  0  0  0  0  0  0  0  0  0
   10.1610   -0.0140   23.5180 C   0  0  1  0  0  0  0  0  0  0  0  0
    9.4760   -0.6190   22.3540 N   0  0  0  0  0  0  0  0  0  0  0  0
    8.6770    0.1550   21.5060 C   0  0  0  0  0  0  0  0  0  0  0  0
    8.9820    1.3160   21.2090 O   0  0  0  0  0  0  0  0  0  0  0  0
    7.4660   -0.5640   21.0440 N   0  0  0  0  0  0  0  0  0  0  0  0
    6.6760    0.0380   20.0800 C   0  0  0  0  0  0  0  0  0  0  0  0
    5.4420    0.8260   20.5070 C   0  0  0  0  0  0  0  0  0  0  0  0
    4.6930    1.4230   19.4900 C   0  0  0  0  0  0  0  0  0  0  0  0
    5.1750    1.2360   18.0500 C   0  0  0  0  0  0  0  0  0  0  0  0
    6.2700    0.5220   17.7320 N   0  0  0  0  0  0  0  0  0  0  0  0
    6.9770   -0.0500   18.7350 C   0  0  0  0  0  0  0  0  0  0  0  0
   11.4770    0.4200   23.1910 C   0  0  0  0  0  0  0  0  0  0  0  0
   10.9850    1.5010   22.8740 C   0  0  0  0  0  0  0  0  0  0  0  0
   12.3580    1.0400   22.8710 C   0  0  0  0  0  0  0  0  0  0  0  0
   11.7700   -0.2990   23.4350 C   0  0  0  0  0  0  0  0  0  0  0  0
   11.6380   -1.5580   23.9100 F   0  0  0  0  0  0  0  0  0  0  0  0
   13.0840   -0.8740   23.4650 C   0  0  0  0  0  0  0  0  0  0  0  0
   12.8710    0.2450   23.0770 C   0  0  0  0  0  0  0  0  0  0  0  0
  1  2  1  0
  2  3  1  0
  4  3  1  6
  4  5  1  0
  5  6  1  0
  6  7  2  0
  6  8  1  0
  8  9  1  0
  9 10  2  0
 10 11  1  0
 11 12  2  0
 12 13  1  0
  9 14  1  0
 13 14  2  0
  4 15  1  0
 15 16  2  0
 16 17  1  0
 17 18  2  0
 18 19  1  0
 18 20  1  0
 15 21  1  0
 20 21  2  0
M  END
