pyridine_urea_5873
     RDKit          3D

 28 30  0  0  0  0  0  0  0  0999 V2000
   11.7280   -2.1700   22.1350 C   0  0  0  0  0  0  0  0  0  0  0  0
   11.6900   -0.7100   22.4690 C   0  0  0  0  0  0  0  0  0  0  0  0
   12.8010    0.1130   22.6930 C   0  0  0  0  0  0  0  0  0  0  0  0
   12.6800    1.4900   22.9900 C   0  0  0  0  0  0  0  0  0  0  0  0
   11.4450    2.1540   23.0950 C   0  0  0  0  0  0  0  0  0  0  0  0
   11.0820    3.5520   23.4010 N   0  0  0  0  0  0  0  0  0  0  0  0
   11.9110    4.6990   23.4410 C   0  0  0  0  0  0  0  0  0  0  0  0
   11.7450    5.3870   24.8090 C   0  0  0  0  0  0  0  0  0  0  0  0
   11.2630    6.8230   24.6140 C   0  0  0  0  0  0  0  0  0  0  0  0
   10.1190    6.7690   23.7520 N   0  0  0  0  0  0  0  0  0  0  0  0
    8.8340    7.8150   23.9800 S   0  0  0  0  0  0  0  0  0  0  0  0
    7.7950    6.8940   25.0800 C   0  0  0  0  0  0  0  0  0  0  0  0
    9.3400    8.9670   24.6950 O   0  0  0  0  0  0  0  0  0  0  0  0
    8.1610    7.9200   22.7080 O   0  0  0  0  0  0  0  0  0  0  0  0
   10.3260    6.1550   22.5160 C   0  0  0  0  0  0  0  0  0  0  0  0
   11.5900    5.5450   22.3830 C   0  0  0  0  0  0  0  0  0  0  0  0
   10.2180    1.3010   22.8660 C   0  0  0  0  0  0  0  0  0  0  0  0
   10.2990   -0.0300   22.5660 C   0  0  0  0  0  0  0  0  0  0  0  0
    9.1750   -0.7230   22.3430 N   0  0  0  0  0  0  0  0  0  0  0  0
    8.3900   -0.0300   21.4600 C   0  0  0  0  0  0  0  0  0  0  0  0
    8.6840    1.2530   21.0360 O   0  0  0  0  0  0  0  0  0  0  0  0
    7.2980   -0.7160   21.0550 N   0  0  0  0  0  0  0  0  0  0  0  0
    6.5490   -0.0580   20.1250 C   0  0  0  0  0  0  0  0  0  0  0  0
    5.3730    0.6580   20.3550 C   0  0  0  0  0  0  0  0  0  0  0  0
    4.6650    1.3200   19.3490 C   0  0  0  0  0  0  0  0  0  0  0  0
    5.1920    1.2420   18.0570 C   0  0  0  0  0  0  0  0  0  0  0  0
    6.3220    0.5580   17.7830 N   0  0  0  0  0  0  0  0  0  0  0  0
    6.9630   -0.0690   18.8040 C   0  0  0  0  0  0  0  0  0  0  0  0
  1  2  1  0
  2  3  2  0
  3  4  1  0
  4  5  2  0
  5  6  1  0
  6  7  1  0
  7  8  1  0
  8  9  1  0
  9 10  1  0
 10 11  1  0
 11 12  1  0
 11 13  2  0
 11 14  2  0
 10 15  1  0
  7 16  1  0
 15 16  1  0
  5 17  1  0
  2 18  1  0
 17 18  2  0
 18 19  1  0
 19 20  1  0
 20 21  2  0
 20 22  1  0
 22 23  1  0
 23 24  2  0
 24 25  1  0
 25 26  2  0
 26 27  1  0
 23 28  1  0
 27 28  2  0
M  END
