pyridine_urea_11161
     RDKit          3D

 17 18  0  0  0  0  0  0  0  0999 V2000
   11.3970    0.4320   23.2120 C   0  0  0  0  0  0  0  0  0  0  0  0
   11.5420   -0.6670   23.6980 C   0  0  0  0  0  0  0  0  0  0  0  0
   11.9400   -1.7290   24.7110 C   0  0  0  0  0  0  0  0  0  0  0  0
   12.4860   -1.1880   22.5870 C   0  0  2  0  0  0  0  0  0  0  0  0
   13.2640   -0.2470   21.8820 O   0  0  0  0  0  0  0  0  0  0  0  0
   11.3330   -1.6260   22.0920 C   0  0  0  0  0  0  0  0  0  0  0  0
   10.3300   -1.3190   23.1770 C   0  0  2  0  0  0  0  0  0  0  0  0
    9.0980   -0.4940   22.9040 N   0  0  0  0  0  0  0  0  0  0  0  0
    8.6350    0.0930   21.7230 C   0  0  0  0  0  0  0  0  0  0  0  0
    9.1830    1.3240   21.2150 O   0  0  0  0  0  0  0  0  0  0  0  0
    7.5140   -0.6450   21.1400 N   0  0  0  0  0  0  0  0  0  0  0  0
    6.7600   -0.0270   20.0370 C   0  0  0  0  0  0  0  0  0  0  0  0
    5.5550    0.7840   20.4220 C   0  0  0  0  0  0  0  0  0  0  0  0
    4.7700    1.4290   19.4630 C   0  0  0  0  0  0  0  0  0  0  0  0
    5.1210    1.3150   18.1130 C   0  0  0  0  0  0  0  0  0  0  0  0
    6.2820    0.5210   17.7490 N   0  0  0  0  0  0  0  0  0  0  0  0
    7.0410   -0.1070   18.7040 C   0  0  0  0  0  0  0  0  0  0  0  0
  2  1  1  0
  2  3  1  0
  2  4  1  0
  4  5  1  6
  4  6  1  0
  2  7  1  0
  6  7  1  0
  7  8  1  6
  8  9  1  0
  9 10  2  0
  9 11  1  0
 11 12  1  0
 12 13  2  0
 13 14  1  0
 14 15  2  0
 15 16  1  0
 12 17  1  0
 16 17  2  0
M  END
