pyridine_urea_3531
     RDKit          3D

 18 19  0  0  0  0  0  0  0  0999 V2000
   13.3990   -1.8900   22.7470 C   0  0  0  0  0  0  0  0  0  0  0  0
   12.3190   -0.8550   22.8290 C   0  0  0  0  0  0  0  0  0  0  0  0
   12.9800    0.5490   22.8720 C   0  0  0  0  0  0  0  0  0  0  0  0
   12.0980    1.7110   22.9370 C   0  0  0  0  0  0  0  0  0  0  0  0
   10.7580    1.1440   22.9410 C   0  0  0  0  0  0  0  0  0  0  0  0
   10.2060   -0.1450   22.9070 N   0  0  0  0  0  0  0  0  0  0  0  0
   10.9630   -1.3350   22.8460 C   0  0  0  0  0  0  0  0  0  0  0  0
    9.4820   -1.5970   22.8760 C   0  0  0  0  0  0  0  0  0  0  0  0
    9.0020   -1.2900   21.5460 N   0  0  0  0  0  0  0  0  0  0  0  0
    8.2380   -0.1460   21.3290 C   0  0  0  0  0  0  0  0  0  0  0  0
    8.7190    0.9800   21.3130 O   0  0  0  0  0  0  0  0  0  0  0  0
    6.9480   -0.4710   21.1360 N   0  0  0  0  0  0  0  0  0  0  0  0
    6.4040    0.0940   20.0420 C   0  0  0  0  0  0  0  0  0  0  0  0
    5.2760    0.8670   20.2550 C   0  0  0  0  0  0  0  0  0  0  0  0
    4.6380    1.5080   19.2220 C   0  0  0  0  0  0  0  0  0  0  0  0
    5.1600    1.3560   17.9640 C   0  0  0  0  0  0  0  0  0  0  0  0
    6.2590    0.6040   17.6850 N   0  0  0  0  0  0  0  0  0  0  0  0
    6.9560   -0.0900   18.7700 C   0  0  0  0  0  0  0  0  0  0  0  0
  1  2  1  0
  2  3  2  0
  3  4  1  0
  4  5  2  0
  5  6  1  0
  2  7  1  0
  6  7  2  0
  7  8  1  0
  8  9  1  0
  9 10  1  0
 10 11  2  0
 10 12  1  0
 12 13  1  0
 13 14  2  0
 14 15  1  0
 15 16  2  0
 16 17  1  0
 13 18  1  0
 17 18  2  0
M  END
