pyridine_urea_5848
     RDKit          3D

 20 21  0  0  0  0  0  0  0  0999 V2000
    8.3820   -0.6580   24.9210 C   0  0  0  0  0  0  0  0  0  0  0  0
    9.4710    0.3690   24.8540 C   0  0  0  0  0  0  0  0  0  0  0  0
    9.2300    1.5810   24.2030 C   0  0  0  0  0  0  0  0  0  0  0  0
   10.6610   -0.2870   24.1450 C   0  0  2  0  0  0  0  0  0  0  0  0
   11.8430    0.4640   24.1820 C   0  0  0  0  0  0  0  0  0  0  0  0
   12.7980    0.2950   23.0530 C   0  0  0  0  0  0  0  0  0  0  0  0
   12.6870   -1.1380   22.5920 C   0  0  1  0  0  0  0  0  0  0  0  0
   13.2640   -2.0920   23.6460 C   0  0  0  0  0  0  0  0  0  0  0  0
   11.2270   -1.5250   22.2550 C   0  0  0  0  0  0  0  0  0  0  0  0
   10.3640   -0.5750   22.8050 C   0  0  1  0  0  0  0  0  0  0  0  0
    9.0740   -0.6770   22.4360 N   0  0  0  0  0  0  0  0  0  0  0  0
    8.4550    0.1100   21.4890 C   0  0  0  0  0  0  0  0  0  0  0  0
    8.8930    1.2260   21.1800 O   0  0  0  0  0  0  0  0  0  0  0  0
    7.3300   -0.4880   20.9830 N   0  0  0  0  0  0  0  0  0  0  0  0
    6.5100    0.1350   20.0380 C   0  0  0  0  0  0  0  0  0  0  0  0
    5.3440    0.8280   20.3100 C   0  0  0  0  0  0  0  0  0  0  0  0
    4.6400    1.4170   19.2650 C   0  0  0  0  0  0  0  0  0  0  0  0
    5.1340    1.2880   17.9750 C   0  0  0  0  0  0  0  0  0  0  0  0
    6.2540    0.6150   17.6890 N   0  0  0  0  0  0  0  0  0  0  0  0
    6.9090    0.0570   18.7200 C   0  0  0  0  0  0  0  0  0  0  0  0
  1  2  1  0
  2  3  1  0
  4  2  1  6
  4  5  1  0
  5  6  1  0
  6  7  1  0
  7  8  1  1
  7  9  1  0
  4 10  1  0
  9 10  1  0
 10 11  1  1
 11 12  1  0
 12 13  2  0
 12 14  1  0
 14 15  1  0
 15 16  2  0
 16 17  1  0
 17 18  2  0
 18 19  1  0
 15 20  1  0
 19 20  2  0
M  END
