pyridine_urea_524
     RDKit          3D

 25 27  0  0  0  0  0  0  0  0999 V2000
    8.6350    0.8520   21.1900 O   0  0  0  0  0  0  0  0  0  0  0  0
    8.3110   -0.3090   21.4030 C   0  0  0  0  0  0  0  0  0  0  0  0
    7.1100   -0.8190   20.9780 N   0  0  0  0  0  0  0  0  0  0  0  0
    6.3710   -0.0980   20.0260 C   0  0  0  0  0  0  0  0  0  0  0  0
    5.1430    0.5320   20.2220 C   0  0  0  0  0  0  0  0  0  0  0  0
    4.5460    1.2330   19.1670 C   0  0  0  0  0  0  0  0  0  0  0  0
    5.2050    1.2760   17.9530 C   0  0  0  0  0  0  0  0  0  0  0  0
    6.3850    0.6700   17.7380 N   0  0  0  0  0  0  0  0  0  0  0  0
    6.9310    0.0060   18.7690 C   0  0  0  0  0  0  0  0  0  0  0  0
    9.1280   -1.1950   22.0770 N   0  0  0  0  0  0  0  0  0  0  0  0
   10.4080   -0.7320   22.3780 C   0  0  0  0  0  0  0  0  0  0  0  0
   11.6310   -1.3900   22.2380 C   0  0  0  0  0  0  0  0  0  0  0  0
   12.8540   -0.7730   22.5700 C   0  0  0  0  0  0  0  0  0  0  0  0
   12.9140    0.5340   23.0530 C   0  0  0  0  0  0  0  0  0  0  0  0
   11.7560    1.2900   23.2320 C   0  0  0  0  0  0  0  0  0  0  0  0
   11.9050    2.4310   23.6560 O   0  0  0  0  0  0  0  0  0  0  0  0
   10.8750    3.3270   23.4880 C   0  0  0  0  0  0  0  0  0  0  0  0
   11.1930    4.5530   24.0890 C   0  0  0  0  0  0  0  0  0  0  0  0
   10.6590    4.8380   25.3440 C   0  0  0  0  0  0  0  0  0  0  0  0
   10.9470    6.0400   25.9830 C   0  0  0  0  0  0  0  0  0  0  0  0
   11.7730    6.9610   25.3560 C   0  0  0  0  0  0  0  0  0  0  0  0
   12.1300    8.4630   26.1440 Cl  0  0  0  0  0  0  0  0  0  0  0  0
   12.3210    6.7070   24.1020 C   0  0  0  0  0  0  0  0  0  0  0  0
   12.0340    5.5070   23.4660 C   0  0  0  0  0  0  0  0  0  0  0  0
   10.4180    0.6550   22.8950 C   0  0  0  0  0  0  0  0  0  0  0  0
  1  2  2  0
  2  3  1  0
  3  4  1  0
  4  5  2  0
  5  6  1  0
  6  7  2  0
  7  8  1  0
  4  9  1  0
  8  9  2  0
  2 10  1  0
 10 11  1  0
 11 12  2  0
 12 13  1  0
 13 14  2  0
 14 15  1  0
 15 16  1  0
 16 17  1  0
 17 18  1  0
 18 19  2  0
 19 20  1  0
 20 21  2  0
 21 22  1  0
 21 23  1  0
 18 24  1  0
 23 24  2  0
 11 25  1  0
 15 25  2  0
M  END
