pyridine_urea_8412
     RDKit          3D

 22 24  0  0  0  0  0  0  0  0999 V2000
    9.2110    1.8180   24.1000 C   0  0  0  0  0  0  0  0  0  0  0  0
   10.5900    1.3150   23.7880 C   0  0  0  0  0  0  0  0  0  0  0  0
   11.6590    2.1180   23.3840 C   0  0  0  0  0  0  0  0  0  0  0  0
   10.9800    0.3040   24.6730 C   0  0  0  0  0  0  0  0  0  0  0  0
   10.6860   -0.2370   23.3820 C   0  0  1  0  0  0  0  0  0  0  0  0
    9.5520   -1.2410   23.3110 C   0  0  0  0  0  0  0  0  0  0  0  0
    8.3370   -0.5690   22.9650 N   0  0  0  0  0  0  0  0  0  0  0  0
    8.1710   -0.0550   21.7030 C   0  0  0  0  0  0  0  0  0  0  0  0
    8.8690    0.8390   21.2490 O   0  0  0  0  0  0  0  0  0  0  0  0
    7.0640   -0.6990   21.0340 N   0  0  0  0  0  0  0  0  0  0  0  0
    6.4450   -0.0300   20.0120 C   0  0  0  0  0  0  0  0  0  0  0  0
    5.2710    0.6860   20.2770 C   0  0  0  0  0  0  0  0  0  0  0  0
    4.6450    1.3750   19.2480 C   0  0  0  0  0  0  0  0  0  0  0  0
    5.2140    1.3280   17.9810 C   0  0  0  0  0  0  0  0  0  0  0  0
    6.3330    0.6430   17.7120 N   0  0  0  0  0  0  0  0  0  0  0  0
    6.9230   -0.0210   18.7210 C   0  0  0  0  0  0  0  0  0  0  0  0
   11.8000   -0.7080   22.7120 C   0  0  0  0  0  0  0  0  0  0  0  0
   12.4430    0.3530   23.3760 C   0  0  0  0  0  0  0  0  0  0  0  0
   12.9430   -0.4820   22.5860 C   0  0  0  0  0  0  0  0  0  0  0  0
   11.8710   -1.3460   22.1940 C   0  0  0  0  0  0  0  0  0  0  0  0
   12.7480   -2.0610   21.4000 C   0  0  0  0  0  0  0  0  0  0  0  0
   13.2140   -0.9280   22.1620 C   0  0  0  0  0  0  0  0  0  0  0  0
  2  1  1  0
  2  3  1  0
  2  4  1  0
  2  5  1  0
  4  5  1  0
  5  6  1  1
  6  7  1  0
  7  8  1  0
  8  9  2  0
  8 10  1  0
 10 11  1  0
 11 12  2  0
 12 13  1  0
 13 14  2  0
 14 15  1  0
 11 16  1  0
 15 16  2  0
  5 17  1  0
 17 18  2  0
 18 19  1  0
 19 20  2  0
 20 21  1  0
 17 22  1  0
 21 22  2  0
M  END
