pyridine_urea_1287
     RDKit          3D

 20 21  0  0  0  0  0  0  0  0999 V2000
   11.6760    5.6780   24.3630 C   0  0  0  0  0  0  0  0  0  0  0  0
   11.7500    4.5060   23.3520 C   0  0  0  0  0  0  0  0  0  0  0  0
   11.0700    3.3570   23.8800 O   0  0  0  0  0  0  0  0  0  0  0  0
   11.1630    2.4440   22.8550 C   0  0  0  0  0  0  0  0  0  0  0  0
   10.3970    1.2680   22.7820 C   0  0  0  0  0  0  0  0  0  0  0  0
   10.9860    0.0240   23.0520 C   0  0  0  0  0  0  0  0  0  0  0  0
   10.3090   -1.0570   22.4810 C   0  0  0  0  0  0  0  0  0  0  0  0
    8.8620   -0.7950   22.4540 N   0  0  0  0  0  0  0  0  0  0  0  0
    8.3340    0.0440   21.4970 C   0  0  0  0  0  0  0  0  0  0  0  0
    8.7970    1.1470   21.1640 O   0  0  0  0  0  0  0  0  0  0  0  0
    7.2070   -0.4810   20.9590 N   0  0  0  0  0  0  0  0  0  0  0  0
    6.4520    0.1230   20.0220 C   0  0  0  0  0  0  0  0  0  0  0  0
    5.2670    0.7920   20.2360 C   0  0  0  0  0  0  0  0  0  0  0  0
    4.5800    1.4030   19.1970 C   0  0  0  0  0  0  0  0  0  0  0  0
    5.1440    1.3100   17.9170 C   0  0  0  0  0  0  0  0  0  0  0  0
    6.2910    0.6570   17.6770 N   0  0  0  0  0  0  0  0  0  0  0  0
    6.9060    0.0850   18.7230 C   0  0  0  0  0  0  0  0  0  0  0  0
   11.2580    0.2100   24.4030 C   0  0  0  0  0  0  0  0  0  0  0  0
   12.5650    0.2750   24.0070 C   0  0  0  0  0  0  0  0  0  0  0  0
   12.4010   -0.0910   22.7620 C   0  0  0  0  0  0  0  0  0  0  0  0
  1  2  1  0
  2  3  1  0
  3  4  1  0
  4  5  1  0
  6  5  1  0
  6  7  1  0
  7  8  1  0
  8  9  1  0
  9 10  2  0
  9 11  1  0
 11 12  1  0
 12 13  2  0
 13 14  1  0
 14 15  2  0
 15 16  1  0
 12 17  1  0
 16 17  2  0
  6 18  1  0
 18 19  1  0
  6 20  1  0
 19 20  1  0
M  END
