pyridine_urea_10963
     RDKit          3D

 19 21  0  0  0  0  0  0  0  0999 V2000
    8.4210    0.9560   20.8650 O   0  0  0  0  0  0  0  0  0  0  0  0
    8.1660   -0.1570   21.2930 C   0  0  0  0  0  0  0  0  0  0  0  0
    6.9320   -0.8140   20.9380 N   0  0  0  0  0  0  0  0  0  0  0  0
    6.2920   -0.0930   19.9570 C   0  0  0  0  0  0  0  0  0  0  0  0
    5.0880    0.5660   20.2000 C   0  0  0  0  0  0  0  0  0  0  0  0
    4.5150    1.2960   19.1550 C   0  0  0  0  0  0  0  0  0  0  0  0
    5.1640    1.3360   17.9160 C   0  0  0  0  0  0  0  0  0  0  0  0
    6.3190    0.6950   17.6850 N   0  0  0  0  0  0  0  0  0  0  0  0
    6.8560   -0.0050   18.7070 C   0  0  0  0  0  0  0  0  0  0  0  0
    8.9520   -0.8750   22.1150 N   0  0  0  0  0  0  0  0  0  0  0  0
    9.9590   -0.0960   22.7830 C   0  0  0  0  0  0  0  0  0  0  0  0
    9.4900    1.3590   23.1510 C   0  0  0  0  0  0  0  0  0  0  0  0
   10.1440    2.3500   22.4650 C   0  0  0  0  0  0  0  0  0  0  0  0
   10.0130    3.5670   23.1400 C   0  0  0  0  0  0  0  0  0  0  0  0
    9.0990    3.3990   24.2270 O   0  0  0  0  0  0  0  0  0  0  0  0
    7.8750    2.7060   23.9270 C   0  0  0  0  0  0  0  0  0  0  0  0
    8.1240    1.6280   23.0830 C   0  0  0  0  0  0  0  0  0  0  0  0
   10.9020   -0.8890   23.5870 C   0  0  0  0  0  0  0  0  0  0  0  0
   11.4050   -0.2840   22.6590 C   0  0  0  0  0  0  0  0  0  0  0  0
  1  2  2  0
  2  3  1  0
  3  4  1  0
  4  5  2  0
  5  6  1  0
  6  7  2  0
  7  8  1  0
  4  9  1  0
  8  9  2  0
  2 10  1  0
 11 10  1  0
 11 12  1  0
 12 13  1  0
 13 14  1  0
 14 15  1  0
 15 16  1  0
 12 17  1  0
 16 17  1  0
 11 18  1  0
 11 19  1  0
 18 19  1  0
M  END
