pyridine_urea_11093
     RDKit          3D

 18 19  0  0  0  0  0  0  0  0999 V2000
   13.0960    1.1380   22.9740 C   0  0  0  0  0  0  0  0  0  0  0  0
   12.7690    0.0050   22.9240 C   0  0  0  0  0  0  0  0  0  0  0  0
   11.8340   -1.1430   22.6680 C   0  0  0  0  0  0  0  0  0  0  0  0
   12.3650   -2.3110   22.4880 N   0  0  0  0  0  0  0  0  0  0  0  0
   11.1820   -1.6180   22.5360 N   0  0  0  0  0  0  0  0  0  0  0  0
   10.0000   -2.2500   22.3320 C   0  0  0  0  0  0  0  0  0  0  0  0
   11.0350   -0.0810   22.8230 C   0  0  0  0  0  0  0  0  0  0  0  0
   10.2350   -1.0380   22.5780 C   0  0  0  0  0  0  0  0  0  0  0  0
    8.9000   -1.2790   22.4390 N   0  0  0  0  0  0  0  0  0  0  0  0
    8.0720   -0.4590   21.5230 C   0  0  0  0  0  0  0  0  0  0  0  0
    8.5690    0.8480   21.2150 O   0  0  0  0  0  0  0  0  0  0  0  0
    6.8440   -0.9330   20.9730 N   0  0  0  0  0  0  0  0  0  0  0  0
    6.2730   -0.1630   20.0310 C   0  0  0  0  0  0  0  0  0  0  0  0
    5.0340    0.6470   20.2060 C   0  0  0  0  0  0  0  0  0  0  0  0
    4.6070    1.3720   19.1180 C   0  0  0  0  0  0  0  0  0  0  0  0
    5.2490    1.3980   17.8840 C   0  0  0  0  0  0  0  0  0  0  0  0
    6.3650    0.6570   17.7440 N   0  0  0  0  0  0  0  0  0  0  0  0
    6.8460   -0.0870   18.7770 C   0  0  0  0  0  0  0  0  0  0  0  0
  1  2  1  0
  2  3  1  0
  3  4  2  0
  4  5  1  0
  5  6  1  0
  5  7  1  0
  3  8  1  0
  7  8  2  0
  8  9  1  0
  9 10  1  0
 10 11  2  0
 10 12  1  0
 12 13  1  0
 13 14  2  0
 14 15  1  0
 15 16  2  0
 16 17  1  0
 13 18  1  0
 17 18  2  0
M  END
