pyridine_urea_10233
     RDKit          3D

 23 25  0  0  0  0  0  0  0  0999 V2000
    8.3880    1.0200   21.2200 O   0  0  0  0  0  0  0  0  0  0  0  0
    8.2380   -0.1920   21.1860 C   0  0  0  0  0  0  0  0  0  0  0  0
    7.0450   -0.7800   20.8550 N   0  0  0  0  0  0  0  0  0  0  0  0
    6.2820   -0.0590   19.9430 C   0  0  0  0  0  0  0  0  0  0  0  0
    5.0520    0.5550   20.1630 C   0  0  0  0  0  0  0  0  0  0  0  0
    4.4530    1.2640   19.1170 C   0  0  0  0  0  0  0  0  0  0  0  0
    5.1110    1.3270   17.9060 C   0  0  0  0  0  0  0  0  0  0  0  0
    6.2950    0.7350   17.6780 N   0  0  0  0  0  0  0  0  0  0  0  0
    6.8360    0.0660   18.6940 C   0  0  0  0  0  0  0  0  0  0  0  0
    9.2690   -1.0390   21.4520 N   0  0  0  0  0  0  0  0  0  0  0  0
   10.2380   -0.4150   22.2050 C   0  0  0  0  0  0  0  0  0  0  0  0
   11.5440   -0.8030   22.3430 C   0  0  0  0  0  0  0  0  0  0  0  0
   12.3650    0.2700   22.7940 C   0  0  0  0  0  0  0  0  0  0  0  0
   11.7900    0.4100   24.1080 N   0  0  0  0  0  0  0  0  0  0  0  0
   11.7830   -0.7680   24.7300 C   0  0  0  0  0  0  0  0  0  0  0  0
   11.1980   -1.1440   25.6680 O   0  0  0  0  0  0  0  0  0  0  0  0
   12.4990   -1.6260   24.0490 C   0  0  0  0  0  0  0  0  0  0  0  0
   13.6200   -2.3910   24.5180 C   0  0  0  0  0  0  0  0  0  0  0  0
   13.9880   -3.0250   23.4040 C   0  0  0  0  0  0  0  0  0  0  0  0
   13.1230   -2.6380   22.4450 C   0  0  0  0  0  0  0  0  0  0  0  0
   12.1870   -1.7680   22.8500 O   0  0  0  0  0  0  0  0  0  0  0  0
   10.4370    0.5760   24.1110 C   0  0  0  0  0  0  0  0  0  0  0  0
    9.7110   -0.4260   23.5850 C   0  0  0  0  0  0  0  0  0  0  0  0
  1  2  2  0
  2  3  1  0
  3  4  1  0
  4  5  2  0
  5  6  1  0
  6  7  2  0
  7  8  1  0
  4  9  1  0
  8  9  2  0
  2 10  1  0
 10 11  1  0
 11 12  1  0
 12 13  1  0
 13 14  1  0
 14 15  1  0
 15 16  2  0
 15 17  1  0
 17 18  2  0
 18 19  1  0
 19 20  2  0
 17 21  1  0
 20 21  1  0
 14 22  1  0
 11 23  1  0
 22 23  1  0
M  END
