pyridine_urea_14725
     RDKit          3D

 20 22  0  0  0  0  0  0  0  0999 V2000
    8.7360    0.9580   21.4420 O   0  0  0  0  0  0  0  0  0  0  0  0
    8.3990   -0.2090   21.3030 C   0  0  0  0  0  0  0  0  0  0  0  0
    7.1170   -0.6140   21.0060 N   0  0  0  0  0  0  0  0  0  0  0  0
    6.3700    0.0620   20.0380 C   0  0  0  0  0  0  0  0  0  0  0  0
    5.1740    0.7410   20.2420 C   0  0  0  0  0  0  0  0  0  0  0  0
    4.5610    1.3860   19.1670 C   0  0  0  0  0  0  0  0  0  0  0  0
    5.1690    1.3250   17.9280 C   0  0  0  0  0  0  0  0  0  0  0  0
    6.3170    0.6670   17.7080 N   0  0  0  0  0  0  0  0  0  0  0  0
    6.8810    0.0570   18.7570 C   0  0  0  0  0  0  0  0  0  0  0  0
    9.2620   -1.2700   21.3940 N   0  0  0  0  0  0  0  0  0  0  0  0
   10.2700   -1.3400   22.3450 C   0  0  1  0  0  0  0  0  0  0  0  0
   11.4610   -2.0150   21.9070 C   0  0  0  0  0  0  0  0  0  0  0  0
   12.7520   -1.4260   21.7460 C   0  0  0  0  0  0  0  0  0  0  0  0
   12.6890   -0.0820   22.1710 O   0  0  0  0  0  0  0  0  0  0  0  0
   11.9540   -0.2990   23.2370 C   0  0  2  0  0  0  0  0  0  0  0  0
   12.3860    0.4310   24.2180 C   0  0  0  0  0  0  0  0  0  0  0  0
   12.4530   -0.5210   25.3300 C   0  0  0  0  0  0  0  0  0  0  0  0
   12.5270   -1.6450   24.9950 O   0  0  0  0  0  0  0  0  0  0  0  0
   12.3160   -1.6350   23.6070 C   0  0  0  0  0  0  0  0  0  0  0  0
   10.6440   -0.1840   22.9900 C   0  0  0  0  0  0  0  0  0  0  0  0
  1  2  2  0
  2  3  1  0
  3  4  1  0
  4  5  2  0
  5  6  1  0
  6  7  2  0
  7  8  1  0
  4  9  1  0
  8  9  2  0
  2 10  1  0
 11 10  1  6
 11 12  1  0
 12 13  1  0
 13 14  1  0
 15 14  1  0
 15 16  1  1
 16 17  1  0
 17 18  1  0
 15 19  1  0
 18 19  1  0
 11 20  1  0
 15 20  1  0
M  END
