pyridine_urea_13281
     RDKit          3D

 14 14  0  0  0  0  0  0  0  0999 V2000
   13.1730   -0.5470   22.8640 N   0  0  0  0  0  0  0  0  0  0  0  0
   12.1770    0.2770   23.2460 C   0  0  0  0  0  0  0  0  0  0  0  0
   10.8310   -0.3310   23.5080 C   0  0  0  0  0  0  0  0  0  0  0  0
   10.3500   -1.2560   22.5970 C   0  0  0  0  0  0  0  0  0  0  0  0
    9.0250   -1.2280   22.2650 N   0  0  0  0  0  0  0  0  0  0  0  0
    8.4020   -0.2460   21.4870 C   0  0  0  0  0  0  0  0  0  0  0  0
    8.8450    0.8820   21.3000 O   0  0  0  0  0  0  0  0  0  0  0  0
    7.2140   -0.7170   20.9640 N   0  0  0  0  0  0  0  0  0  0  0  0
    6.4860   -0.0360   20.1250 C   0  0  0  0  0  0  0  0  0  0  0  0
    5.2080    0.7770   20.3010 C   0  0  0  0  0  0  0  0  0  0  0  0
    4.6210    1.4410   19.2320 C   0  0  0  0  0  0  0  0  0  0  0  0
    5.1860    1.4190   17.8150 C   0  0  0  0  0  0  0  0  0  0  0  0
    6.3160    0.6730   17.7250 N   0  0  0  0  0  0  0  0  0  0  0  0
    6.9390   -0.0260   18.8140 C   0  0  0  0  0  0  0  0  0  0  0  0
  1  2  3  0
  2  3  1  0
  3  4  1  0
  4  5  1  0
  5  6  1  0
  6  7  2  0
  6  8  1  0
  8  9  1  0
  9 10  2  0
 10 11  1  0
 11 12  2  0
 12 13  1  0
  9 14  1  0
 13 14  2  0
M  END
