pyridine_urea_11419
     RDKit          3D

 20 22  0  0  0  0  0  0  0  0999 V2000
    8.8420    1.2310   21.0990 O   0  0  0  0  0  0  0  0  0  0  0  0
    8.3050    0.1970   21.5080 C   0  0  0  0  0  0  0  0  0  0  0  0
    8.7230   -0.4000   22.6570 N   0  0  0  0  0  0  0  0  0  0  0  0
    9.4860    0.4470   23.5390 C   0  0  0  0  0  0  0  0  0  0  0  0
   10.8280   -0.1580   23.7970 C   0  0  1  0  0  0  0  0  0  0  0  0
   11.3320   -0.8670   22.6600 C   0  0  0  0  0  0  0  0  0  0  0  0
   12.5000   -0.4020   23.1190 C   0  0  2  0  0  0  0  0  0  0  0  0
   13.0430   -1.3260   23.8870 N   0  0  0  0  0  0  0  0  0  0  0  0
   13.5400   -2.4720   23.3140 C   0  0  0  0  0  0  0  0  0  0  0  0
   14.0230   -3.2500   24.2850 N   0  0  0  0  0  0  0  0  0  0  0  0
   13.7770   -2.5110   25.4590 C   0  0  0  0  0  0  0  0  0  0  0  0
   13.1440   -1.2600   25.2690 N   0  0  0  0  0  0  0  0  0  0  0  0
   12.0140    0.6080   24.0110 C   0  0  0  0  0  0  0  0  0  0  0  0
    7.2560   -0.4680   20.9460 N   0  0  0  0  0  0  0  0  0  0  0  0
    6.4730    0.1560   19.9890 C   0  0  0  0  0  0  0  0  0  0  0  0
    5.3060    0.8670   20.2050 C   0  0  0  0  0  0  0  0  0  0  0  0
    4.6170    1.4750   19.1740 C   0  0  0  0  0  0  0  0  0  0  0  0
    5.1480    1.3450   17.9130 C   0  0  0  0  0  0  0  0  0  0  0  0
    6.2630    0.6630   17.6330 N   0  0  0  0  0  0  0  0  0  0  0  0
    6.8810    0.0940   18.6800 C   0  0  0  0  0  0  0  0  0  0  0  0
  1  2  2  0
  2  3  1  0
  3  4  1  0
  5  4  1  6
  5  6  1  0
  6  7  1  0
  7  8  1  1
  8  9  1  0
  9 10  2  0
 10 11  1  0
  8 12  1  0
 11 12  2  0
  5 13  1  0
  7 13  1  0
  2 14  1  0
 14 15  1  0
 15 16  2  0
 16 17  1  0
 17 18  2  0
 18 19  1  0
 15 20  1  0
 19 20  2  0
M  END
