pyridine_urea_3664
     RDKit          3D

 22 25  0  0  0  0  0  0  0  0999 V2000
    8.7170    1.2480   21.4650 O   0  0  0  0  0  0  0  0  0  0  0  0
    8.5950    0.0370   21.3720 C   0  0  0  0  0  0  0  0  0  0  0  0
    7.3800   -0.5820   21.1390 N   0  0  0  0  0  0  0  0  0  0  0  0
    6.6190    0.0420   20.0920 C   0  0  0  0  0  0  0  0  0  0  0  0
    5.3520    0.8070   20.4810 C   0  0  0  0  0  0  0  0  0  0  0  0
    4.5720    1.4860   19.3570 C   0  0  0  0  0  0  0  0  0  0  0  0
    5.1590    1.3230   17.9550 C   0  0  0  0  0  0  0  0  0  0  0  0
    6.3280    0.5820   17.7680 N   0  0  0  0  0  0  0  0  0  0  0  0
    7.0110   -0.0240   18.7770 C   0  0  0  0  0  0  0  0  0  0  0  0
    9.6670   -0.8260   21.4290 N   0  0  0  0  0  0  0  0  0  0  0  0
   10.2590   -1.3060   22.6050 C   0  0  2  0  0  0  0  0  0  0  0  0
    9.7250   -0.9820   23.8360 C   0  0  0  0  0  0  0  0  0  0  0  0
    8.3500   -1.1520   24.0150 C   0  0  0  0  0  0  0  0  0  0  0  0
    7.7330   -0.8680   25.2140 C   0  0  0  0  0  0  0  0  0  0  0  0
    8.4610   -0.4060   26.2970 C   0  0  0  0  0  0  0  0  0  0  0  0
    9.8350   -0.2190   26.1840 C   0  0  0  0  0  0  0  0  0  0  0  0
   10.5340   -0.5080   24.8800 C   0  0  0  0  0  0  0  0  0  0  0  0
   11.9160   -0.3510   24.6080 C   0  0  2  0  0  0  0  0  0  0  0  0
   12.2980    0.7880   23.7860 C   0  0  0  0  0  0  0  0  0  0  0  0
   11.9570    0.4230   22.5590 C   0  0  0  0  0  0  0  0  0  0  0  0
   11.7690   -0.9340   22.6070 C   0  0  1  0  0  0  0  0  0  0  0  0
   12.2600   -1.4590   23.8150 C   0  0  0  0  0  0  0  0  0  0  0  0
  1  2  2  0
  2  3  1  0
  3  4  1  0
  4  5  2  0
  5  6  1  0
  6  7  2  0
  7  8  1  0
  4  9  1  0
  8  9  2  0
  2 10  1  0
 11 10  1  6
 11 12  1  0
 12 13  2  0
 13 14  1  0
 14 15  2  0
 15 16  1  0
 12 17  1  0
 16 17  2  0
 17 18  1  0
 18 19  1  6
 19 20  1  0
 11 21  1  0
 21 20  1  1
 18 22  1  0
 21 22  1  0
M  END
