pyridine_urea_2286
     RDKit          3D

 25 27  0  0  0  0  0  0  0  0999 V2000
    8.9040    0.8920   21.3460 O   0  0  0  0  0  0  0  0  0  0  0  0
    8.5090   -0.2640   21.3910 C   0  0  0  0  0  0  0  0  0  0  0  0
    9.2600   -1.3350   21.8130 N   0  0  0  0  0  0  0  0  0  0  0  0
   10.3680   -1.2420   22.6800 C   0  0  0  0  0  0  0  0  0  0  0  0
   11.8030   -1.6040   22.2410 C   0  0  0  0  0  0  0  0  0  0  0  0
   12.8400   -0.5540   22.6890 C   0  0  0  0  0  0  0  0  0  0  0  0
   12.2780    0.6990   23.3080 C   0  0  0  0  0  0  0  0  0  0  0  0
   11.1280    0.6010   24.0600 C   0  0  0  0  0  0  0  0  0  0  0  0
   10.0420    1.5120   23.8190 N   0  0  0  0  0  0  0  0  0  0  0  0
    9.0890    1.1090   24.7040 C   0  0  0  0  0  0  0  0  0  0  0  0
    7.7940    1.5890   24.9440 C   0  0  0  0  0  0  0  0  0  0  0  0
    7.3060    2.5730   24.0900 C   0  0  0  0  0  0  0  0  0  0  0  0
    6.0430    3.0960   24.2570 C   0  0  0  0  0  0  0  0  0  0  0  0
    5.2190    2.6510   25.2880 C   0  0  0  0  0  0  0  0  0  0  0  0
    5.7610    1.6470   26.1310 C   0  0  0  0  0  0  0  0  0  0  0  0
    7.0090    1.1330   25.9630 N   0  0  0  0  0  0  0  0  0  0  0  0
    9.6100   -0.0730   25.5220 C   0  0  0  0  0  0  0  0  0  0  0  0
   10.8780   -0.3090   25.0460 N   0  0  0  0  0  0  0  0  0  0  0  0
    7.2480   -0.6500   20.9950 N   0  0  0  0  0  0  0  0  0  0  0  0
    6.5220   -0.0130   20.0470 C   0  0  0  0  0  0  0  0  0  0  0  0
    5.3640    0.7100   20.3500 C   0  0  0  0  0  0  0  0  0  0  0  0
    4.6590    1.3670   19.3420 C   0  0  0  0  0  0  0  0  0  0  0  0
    5.1710    1.2500   18.0690 C   0  0  0  0  0  0  0  0  0  0  0  0
    6.2710    0.5640   17.7260 N   0  0  0  0  0  0  0  0  0  0  0  0
    6.9260   -0.0570   18.7280 C   0  0  0  0  0  0  0  0  0  0  0  0
  1  2  2  0
  2  3  1  0
  3  4  1  0
  4  5  1  0
  5  6  1  0
  6  7  1  0
  7  8  1  0
  8  9  2  0
  9 10  1  0
 10 11  1  0
 11 12  2  0
 12 13  1  0
 13 14  2  0
 14 15  1  0
 11 16  1  0
 15 16  2  0
 10 17  2  0
  8 18  1  0
 17 18  1  0
  2 19  1  0
 19 20  1  0
 20 21  2  0
 21 22  1  0
 22 23  2  0
 23 24  1  0
 20 25  1  0
 24 25  2  0
M  END
