pyridine_urea_553
     RDKit          3D

 24 26  0  0  0  0  0  0  0  0999 V2000
   13.3550    5.5180   22.3600 C   0  0  0  0  0  0  0  0  0  0  0  0
   12.1360    5.5100   22.2660 O   0  0  0  0  0  0  0  0  0  0  0  0
   11.4320    4.9600   23.3030 C   0  0  0  0  0  0  0  0  0  0  0  0
   11.0930    5.5930   24.2990 O   0  0  0  0  0  0  0  0  0  0  0  0
   11.1260    3.6080   23.1400 C   0  0  0  0  0  0  0  0  0  0  0  0
    9.7950    3.2080   23.0360 C   0  0  0  0  0  0  0  0  0  0  0  0
    9.5920    1.7690   22.8660 N   0  0  0  0  0  0  0  0  0  0  0  0
   10.6610    0.8750   22.8130 C   0  0  0  0  0  0  0  0  0  0  0  0
   10.3940   -0.4840   22.6260 C   0  0  0  0  0  0  0  0  0  0  0  0
    9.0790   -0.8380   22.4810 N   0  0  0  0  0  0  0  0  0  0  0  0
    8.2910   -0.1830   21.5540 C   0  0  0  0  0  0  0  0  0  0  0  0
    8.7600    0.8850   21.2020 O   0  0  0  0  0  0  0  0  0  0  0  0
    7.1140   -0.7340   21.1030 N   0  0  0  0  0  0  0  0  0  0  0  0
    6.4350   -0.0850   20.0570 C   0  0  0  0  0  0  0  0  0  0  0  0
    5.2380    0.5980   20.3350 C   0  0  0  0  0  0  0  0  0  0  0  0
    4.5870    1.2590   19.2960 C   0  0  0  0  0  0  0  0  0  0  0  0
    5.1420    1.2180   18.0240 C   0  0  0  0  0  0  0  0  0  0  0  0
    6.2740    0.5670   17.7350 N   0  0  0  0  0  0  0  0  0  0  0  0
    6.8920   -0.0680   18.7520 C   0  0  0  0  0  0  0  0  0  0  0  0
   11.5660   -1.3940   22.5830 C   0  0  0  0  0  0  0  0  0  0  0  0
   12.8580   -0.9080   22.7190 C   0  0  0  0  0  0  0  0  0  0  0  0
   13.0580    0.4550   22.8930 C   0  0  0  0  0  0  0  0  0  0  0  0
   11.9810    1.3260   22.9330 C   0  0  0  0  0  0  0  0  0  0  0  0
   12.1920    2.6880   23.0870 C   0  0  0  0  0  0  0  0  0  0  0  0
  1  2  1  0
  2  3  1  0
  3  4  2  0
  3  5  1  0
  5  6  2  0
  6  7  1  0
  7  8  2  0
  8  9  1  0
  9 10  1  0
 10 11  1  0
 11 12  2  0
 11 13  1  0
 13 14  1  0
 14 15  2  0
 15 16  1  0
 16 17  2  0
 17 18  1  0
 14 19  1  0
 18 19  2  0
  9 20  2  0
 20 21  1  0
 21 22  2  0
  8 23  1  0
 22 23  1  0
  5 24  1  0
 23 24  2  0
M  END
