pyridine_urea_3039
     RDKit          3D

 21 23  0  0  0  0  0  0  0  0999 V2000
   13.2950   -3.3220   20.5970 C   0  0  0  0  0  0  0  0  0  0  0  0
   12.5680   -2.3250   21.4310 C   0  0  0  0  0  0  0  0  0  0  0  0
   13.4860   -1.1780   21.6440 C   0  0  0  0  0  0  0  0  0  0  0  0
   13.2420   -0.0740   22.3850 C   0  0  0  0  0  0  0  0  0  0  0  0
   11.9160    0.0080   23.0310 C   0  0  0  0  0  0  0  0  0  0  0  0
   11.0310   -1.0370   22.8160 C   0  0  0  0  0  0  0  0  0  0  0  0
   11.3290   -2.2640   21.9960 C   0  0  0  0  0  0  0  0  0  0  0  0
    9.6260   -1.1090   23.3750 C   0  0  2  0  0  0  0  0  0  0  0  0
    8.6920   -1.4550   22.3290 N   0  0  0  0  0  0  0  0  0  0  0  0
    8.2410   -0.4330   21.5390 C   0  0  0  0  0  0  0  0  0  0  0  0
    8.8630    0.6070   21.3570 O   0  0  0  0  0  0  0  0  0  0  0  0
    6.9910   -0.7530   21.0060 N   0  0  0  0  0  0  0  0  0  0  0  0
    6.4030   -0.0630   19.9870 C   0  0  0  0  0  0  0  0  0  0  0  0
    5.1150    0.7200   20.2640 C   0  0  0  0  0  0  0  0  0  0  0  0
    4.5210    1.4840   19.0820 C   0  0  0  0  0  0  0  0  0  0  0  0
    5.1670    1.4260   17.8600 C   0  0  0  0  0  0  0  0  0  0  0  0
    6.3090    0.6990   17.7000 N   0  0  0  0  0  0  0  0  0  0  0  0
    6.9150   -0.0260   18.7140 C   0  0  0  0  0  0  0  0  0  0  0  0
    9.4500    0.0540   24.0660 C   0  0  0  0  0  0  0  0  0  0  0  0
   10.6040    0.4250   24.6680 C   0  0  0  0  0  0  0  0  0  0  0  0
   11.5270    1.0420   23.8130 C   0  0  0  0  0  0  0  0  0  0  0  0
  1  2  1  0
  2  3  2  0
  3  4  1  0
  4  5  2  0
  5  6  1  0
  2  7  1  0
  6  7  2  0
  6  8  1  0
  8  9  1  6
  9 10  1  0
 10 11  2  0
 10 12  1  0
 12 13  1  0
 13 14  2  0
 14 15  1  0
 15 16  2  0
 16 17  1  0
 13 18  1  0
 17 18  2  0
  8 19  1  0
 19 20  1  0
  5 21  1  0
 20 21  1  0
M  END
