pyridine_urea_8841
     RDKit          3D

 20 21  0  0  0  0  0  0  0  0999 V2000
    8.1840   -0.1300   26.3850 C   0  0  0  0  0  0  0  0  0  0  0  0
    9.5160   -0.3850   25.6420 C   0  0  0  0  0  0  0  0  0  0  0  0
    9.8280    0.7290   24.8170 O   0  0  0  0  0  0  0  0  0  0  0  0
   10.7110    0.2180   23.8870 C   0  0  2  0  0  0  0  0  0  0  0  0
   10.2220   -0.5840   22.8650 C   0  0  0  0  0  0  0  0  0  0  0  0
    8.8120   -0.5950   22.5710 N   0  0  0  0  0  0  0  0  0  0  0  0
    8.3340    0.1440   21.5190 C   0  0  0  0  0  0  0  0  0  0  0  0
    8.8510    1.2160   21.1710 O   0  0  0  0  0  0  0  0  0  0  0  0
    7.2340   -0.4590   20.9620 N   0  0  0  0  0  0  0  0  0  0  0  0
    6.4520    0.1690   19.9990 C   0  0  0  0  0  0  0  0  0  0  0  0
    5.2770    0.8740   20.2430 C   0  0  0  0  0  0  0  0  0  0  0  0
    4.6080    1.4740   19.1800 C   0  0  0  0  0  0  0  0  0  0  0  0
    5.1440    1.3400   17.9230 C   0  0  0  0  0  0  0  0  0  0  0  0
    6.2660    0.6580   17.6600 N   0  0  0  0  0  0  0  0  0  0  0  0
    6.8910    0.0910   18.6990 C   0  0  0  0  0  0  0  0  0  0  0  0
   11.7560   -0.5610   24.6370 C   0  0  0  0  0  0  0  0  0  0  0  0
   12.8530   -0.8200   23.6650 C   0  0  0  0  0  0  0  0  0  0  0  0
   13.1140    0.0430   22.6370 C   0  0  0  0  0  0  0  0  0  0  0  0
   12.2680    0.8490   22.3000 O   0  0  0  0  0  0  0  0  0  0  0  0
   11.4760    1.2700   23.4120 C   0  0  0  0  0  0  0  0  0  0  0  0
  1  2  1  0
  2  3  1  0
  4  3  1  0
  4  5  1  6
  5  6  1  0
  6  7  1  0
  7  8  2  0
  7  9  1  0
  9 10  1  0
 10 11  2  0
 11 12  1  0
 12 13  2  0
 13 14  1  0
 10 15  1  0
 14 15  2  0
  4 16  1  0
 16 17  1  0
 17 18  1  0
 18 19  1  0
  4 20  1  0
 19 20  1  0
M  END
