pyridine_urea_1497
     RDKit          3D

 24 25  0  0  0  0  0  0  0  0999 V2000
    9.5750    6.7610   22.6960 C   0  0  0  0  0  0  0  0  0  0  0  0
   10.3110    5.5300   23.2900 C   0  0  0  0  0  0  0  0  0  0  0  0
   11.8240    5.6430   23.0160 C   0  0  0  0  0  0  0  0  0  0  0  0
   12.5550    4.1660   22.3300 S   0  0  0  0  0  0  0  0  0  0  0  0
   12.1100    4.0610   20.9690 O   0  0  0  0  0  0  0  0  0  0  0  0
   13.9550    4.2790   22.6360 O   0  0  0  0  0  0  0  0  0  0  0  0
   11.9510    2.8990   23.2890 N   0  0  0  0  0  0  0  0  0  0  0  0
   11.8550    1.5370   22.9990 C   0  0  0  0  0  0  0  0  0  0  0  0
   12.9520    0.7120   22.9060 C   0  0  0  0  0  0  0  0  0  0  0  0
   12.8390   -0.6440   22.6160 C   0  0  0  0  0  0  0  0  0  0  0  0
   11.5610   -1.1840   22.4080 C   0  0  0  0  0  0  0  0  0  0  0  0
   10.4450   -0.3320   22.5040 C   0  0  0  0  0  0  0  0  0  0  0  0
    9.1850   -0.8540   22.2770 N   0  0  0  0  0  0  0  0  0  0  0  0
    8.2970   -0.1620   21.4590 C   0  0  0  0  0  0  0  0  0  0  0  0
    8.5140    0.9710   21.0560 O   0  0  0  0  0  0  0  0  0  0  0  0
    7.1730   -0.8210   21.1200 N   0  0  0  0  0  0  0  0  0  0  0  0
    6.5190   -0.1570   20.1320 C   0  0  0  0  0  0  0  0  0  0  0  0
    5.3350    0.5490   20.4120 C   0  0  0  0  0  0  0  0  0  0  0  0
    4.6860    1.2650   19.2850 C   0  0  0  0  0  0  0  0  0  0  0  0
    5.1860    1.2620   18.0240 C   0  0  0  0  0  0  0  0  0  0  0  0
    6.3310    0.5690   17.7650 N   0  0  0  0  0  0  0  0  0  0  0  0
    6.9480   -0.1040   18.7970 C   0  0  0  0  0  0  0  0  0  0  0  0
   10.5780    1.0330   22.8070 C   0  0  0  0  0  0  0  0  0  0  0  0
    9.3790    1.9550   22.9160 C   0  0  0  0  0  0  0  0  0  0  0  0
  1  2  1  0
  2  3  1  0
  3  4  1  0
  4  5  2  0
  4  6  2  0
  4  7  1  0
  7  8  1  0
  8  9  2  0
  9 10  1  0
 10 11  2  0
 11 12  1  0
 12 13  1  0
 13 14  1  0
 14 15  2  0
 14 16  1  0
 16 17  1  0
 17 18  2  0
 18 19  1  0
 19 20  2  0
 20 21  1  0
 17 22  1  0
 21 22  2  0
  8 23  1  0
 12 23  2  0
 23 24  1  0
M  END
