pyridine_urea_13648
     RDKit          3D

 26 28  0  0  0  0  0  0  0  0999 V2000
    5.4560   -2.1160   19.8800 C   0  0  0  0  0  0  0  0  0  0  0  0
    6.4230   -1.8180   20.9010 O   0  0  0  0  0  0  0  0  0  0  0  0
    6.5790   -2.7570   21.8820 C   0  0  0  0  0  0  0  0  0  0  0  0
    5.3050   -3.4990   22.2970 C   0  0  0  0  0  0  0  0  0  0  0  0
    5.4830   -4.5410   23.3730 C   0  0  0  0  0  0  0  0  0  0  0  0
    6.8520   -4.7380   23.9210 C   0  0  0  0  0  0  0  0  0  0  0  0
    7.9600   -4.0120   23.4910 C   0  0  0  0  0  0  0  0  0  0  0  0
    7.8620   -3.0220   22.4780 C   0  0  0  0  0  0  0  0  0  0  0  0
    9.0380   -2.3170   22.0740 C   0  0  0  0  0  0  0  0  0  0  0  0
    9.9590   -2.8730   23.4760 S   0  0  0  0  0  0  0  0  0  0  0  0
   10.8700   -1.3010   23.3520 C   0  0  0  0  0  0  0  0  0  0  0  0
   12.2300   -1.2270   23.4980 C   0  0  0  0  0  0  0  0  0  0  0  0
   12.9360   -0.0330   23.4430 C   0  0  0  0  0  0  0  0  0  0  0  0
   12.3570    1.2410   23.2370 C   0  0  0  0  0  0  0  0  0  0  0  0
   10.8460    1.1620   23.0580 C   0  0  0  0  0  0  0  0  0  0  0  0
   10.1330   -0.0050   23.1000 C   0  0  0  0  0  0  0  0  0  0  0  0
    8.7610   -0.0180   22.9080 N   0  0  0  0  0  0  0  0  0  0  0  0
    8.2660    0.5240   21.7550 C   0  0  0  0  0  0  0  0  0  0  0  0
    8.8780    1.6700   21.1120 O   0  0  0  0  0  0  0  0  0  0  0  0
    7.1580   -0.1140   21.2920 N   0  0  0  0  0  0  0  0  0  0  0  0
    6.5150    0.3310   20.1950 C   0  0  0  0  0  0  0  0  0  0  0  0
    5.3640    1.0540   20.4360 C   0  0  0  0  0  0  0  0  0  0  0  0
    4.5890    1.6210   19.2520 C   0  0  0  0  0  0  0  0  0  0  0  0
    5.1430    1.3480   17.8740 C   0  0  0  0  0  0  0  0  0  0  0  0
    6.2500    0.6350   17.6580 N   0  0  0  0  0  0  0  0  0  0  0  0
    6.9160    0.1410   18.7210 C   0  0  0  0  0  0  0  0  0  0  0  0
  1  2  1  0
  2  3  1  0
  3  4  2  0
  4  5  1  0
  5  6  2  0
  6  7  1  0
  3  8  1  0
  7  8  2  0
  8  9  1  0
  9 10  1  0
 10 11  1  0
 11 12  2  0
 12 13  1  0
 13 14  2  0
 14 15  1  0
 11 16  1  0
 15 16  2  0
 16 17  1  0
 17 18  1  0
 18 19  2  0
 18 20  1  0
 20 21  1  0
 21 22  2  0
 22 23  1  0
 23 24  2  0
 24 25  1  0
 21 26  1  0
 25 26  2  0
M  END
