pyridine_urea_4563
     RDKit          3D

 22 23  0  0  0  0  0  0  0  0999 V2000
   13.2290    1.0680   22.8490 C   0  0  0  0  0  0  0  0  0  0  0  0
   12.8680   -0.3820   22.6840 C   0  0  0  0  0  0  0  0  0  0  0  0
   11.5030   -0.2700   23.2660 C   0  0  1  0  0  0  0  0  0  0  0  0
   11.0420    0.8490   23.2090 O   0  0  0  0  0  0  0  0  0  0  0  0
    9.7300    0.7730   22.7970 C   0  0  0  0  0  0  0  0  0  0  0  0
    9.6900   -0.6540   22.3040 C   0  0  0  0  0  0  0  0  0  0  0  0
    8.3570   -1.0230   22.0460 N   0  0  0  0  0  0  0  0  0  0  0  0
    7.7520   -0.1440   21.2600 C   0  0  0  0  0  0  0  0  0  0  0  0
    8.2490    0.9300   20.9430 O   0  0  0  0  0  0  0  0  0  0  0  0
    6.5590   -0.6000   20.8600 N   0  0  0  0  0  0  0  0  0  0  0  0
    6.0490    0.1010   19.8150 C   0  0  0  0  0  0  0  0  0  0  0  0
    4.8580    0.7870   19.9700 C   0  0  0  0  0  0  0  0  0  0  0  0
    4.3710    1.5190   18.9010 C   0  0  0  0  0  0  0  0  0  0  0  0
    5.1070    1.5230   17.7320 C   0  0  0  0  0  0  0  0  0  0  0  0
    6.2580    0.8530   17.5730 N   0  0  0  0  0  0  0  0  0  0  0  0
    6.7010    0.1580   18.6200 C   0  0  0  0  0  0  0  0  0  0  0  0
   10.4390   -1.3680   23.0050 C   0  0  0  0  0  0  0  0  0  0  0  0
    9.6970   -0.8060   24.1440 C   0  0  0  0  0  0  0  0  0  0  0  0
    8.5180   -1.4440   24.4780 C   0  0  0  0  0  0  0  0  0  0  0  0
    8.0680   -2.6310   23.6830 C   0  0  0  0  0  0  0  0  0  0  0  0
    8.8490   -3.0920   22.5910 C   0  0  0  0  0  0  0  0  0  0  0  0
   10.0630   -2.4600   22.2290 C   0  0  0  0  0  0  0  0  0  0  0  0
  1  2  1  0
  3  2  1  6
  3  4  1  0
  4  5  1  0
  5  6  1  0
  6  7  1  0
  7  8  1  0
  8  9  2  0
  8 10  1  0
 10 11  1  0
 11 12  2  0
 12 13  1  0
 13 14  2  0
 14 15  1  0
 11 16  1  0
 15 16  2  0
  3 17  1  0
 17 18  2  0
 18 19  1  0
 19 20  2  0
 20 21  1  0
 17 22  1  0
 21 22  2  0
M  END
