pyridine_urea_2209
     RDKit          3D

 28 29  0  0  0  0  0  0  0  0999 V2000
    6.5490    3.7370   32.4120 C   0  0  0  0  0  0  0  0  0  0  0  0
    5.8950    2.8130   31.5430 O   0  0  0  0  0  0  0  0  0  0  0  0
    6.7480    2.0680   30.7740 C   0  0  0  0  0  0  0  0  0  0  0  0
    6.2280    1.8940   29.3360 C   0  0  0  0  0  0  0  0  0  0  0  0
    6.4860    0.4920   28.8330 N   0  0  0  0  0  0  0  0  0  0  0  0
    6.5470    0.2070   27.4800 C   0  0  0  0  0  0  0  0  0  0  0  0
    5.7890    0.5110   26.5660 O   0  0  0  0  0  0  0  0  0  0  0  0
    7.7550   -0.6190   27.1060 C   0  0  1  0  0  0  0  0  0  0  0  0
    7.8090   -1.9630   27.4420 C   0  0  0  0  0  0  0  0  0  0  0  0
    8.0220   -0.5340   25.9100 O   0  0  0  0  0  0  0  0  0  0  0  0
    9.3400   -0.9870   25.5570 C   0  0  0  0  0  0  0  0  0  0  0  0
   10.0900   -1.2530   26.4050 O   0  0  0  0  0  0  0  0  0  0  0  0
    9.5780   -1.0690   24.1660 C   0  0  0  0  0  0  0  0  0  0  0  0
    8.4080   -0.8220   23.7000 C   0  0  0  0  0  0  0  0  0  0  0  0
    8.2080   -0.8270   22.4360 C   0  0  0  0  0  0  0  0  0  0  0  0
    9.1690   -1.0840   21.5160 C   0  0  0  0  0  0  0  0  0  0  0  0
    8.5150   -0.9810   20.4700 N   0  0  0  0  0  0  0  0  0  0  0  0
    7.7080    0.0770   20.6780 C   0  0  0  0  0  0  0  0  0  0  0  0
    8.1480    1.3830   20.7280 O   0  0  0  0  0  0  0  0  0  0  0  0
    6.4650   -0.3400   20.8120 N   0  0  0  0  0  0  0  0  0  0  0  0
    5.9190    0.3100   19.8470 C   0  0  0  0  0  0  0  0  0  0  0  0
    4.7740    1.0280   19.8640 C   0  0  0  0  0  0  0  0  0  0  0  0
    4.3100    1.7160   18.7770 C   0  0  0  0  0  0  0  0  0  0  0  0
    5.0520    1.6710   17.6040 C   0  0  0  0  0  0  0  0  0  0  0  0
    6.1990    0.9750   17.4780 N   0  0  0  0  0  0  0  0  0  0  0  0
    6.6260    0.2700   18.6740 C   0  0  0  0  0  0  0  0  0  0  0  0
   10.4310   -1.3430   21.7830 C   0  0  0  0  0  0  0  0  0  0  0  0
   10.6770   -1.3290   23.1870 C   0  0  0  0  0  0  0  0  0  0  0  0
  1  2  1  0
  2  3  1  0
  3  4  1  0
  4  5  1  0
  5  6  1  0
  6  7  2  0
  6  8  1  0
  8  9  1  6
  8 10  1  0
 10 11  1  0
 11 12  2  0
 11 13  1  0
 13 14  2  0
 14 15  1  0
 15 16  2  0
 16 17  1  0
 17 18  1  0
 18 19  2  0
 18 20  1  0
 20 21  1  0
 21 22  2  0
 22 23  1  0
 23 24  2  0
 24 25  1  0
 21 26  1  0
 25 26  2  0
 16 27  1  0
 13 28  1  0
 27 28  2  0
M  END
