pyridine_urea_8363
     RDKit          3D

 22 23  0  0  0  0  0  0  0  0999 V2000
   14.9310   -5.3510   20.5560 C   0  0  0  0  0  0  0  0  0  0  0  0
   13.8610   -4.2500   20.4130 C   0  0  0  0  0  0  0  0  0  0  0  0
   13.4920   -3.5270   21.5940 O   0  0  0  0  0  0  0  0  0  0  0  0
   13.3730   -2.1960   21.3280 C   0  0  0  0  0  0  0  0  0  0  0  0
   14.0620   -1.3750   20.3960 O   0  0  0  0  0  0  0  0  0  0  0  0
   12.4420   -1.4650   21.9710 C   0  0  0  0  0  0  0  0  0  0  0  0
   12.6460   -0.3260   22.8420 C   0  0  0  0  0  0  0  0  0  0  0  0
   11.7880    0.4470   23.4700 N   0  0  0  0  0  0  0  0  0  0  0  0
   10.3630    0.3800   23.4690 C   0  0  0  0  0  0  0  0  0  0  0  0
   11.0250    1.4350   24.2390 C   0  0  0  0  0  0  0  0  0  0  0  0
   10.1590   -0.8820   22.5250 C   0  0  0  0  0  0  0  0  0  0  0  0
    8.7830   -1.1590   22.3530 N   0  0  0  0  0  0  0  0  0  0  0  0
    8.1700   -0.2950   21.4970 C   0  0  0  0  0  0  0  0  0  0  0  0
    8.6390    0.8160   21.2730 O   0  0  0  0  0  0  0  0  0  0  0  0
    7.0270   -0.7930   20.9570 N   0  0  0  0  0  0  0  0  0  0  0  0
    6.3150   -0.0590   20.0130 C   0  0  0  0  0  0  0  0  0  0  0  0
    5.0020    0.6620   20.2650 C   0  0  0  0  0  0  0  0  0  0  0  0
    4.4690    1.4020   19.0510 C   0  0  0  0  0  0  0  0  0  0  0  0
    5.1850    1.3650   17.8660 C   0  0  0  0  0  0  0  0  0  0  0  0
    6.3450    0.6990   17.7080 N   0  0  0  0  0  0  0  0  0  0  0  0
    6.8610    0.0270   18.7510 C   0  0  0  0  0  0  0  0  0  0  0  0
   11.1210   -1.6730   21.8790 C   0  0  0  0  0  0  0  0  0  0  0  0
  1  2  1  0
  2  3  1  0
  3  4  1  0
  4  5  2  0
  4  6  1  0
  6  7  2  0
  7  8  1  0
  8  9  2  0
  9 10  1  0
  9 11  1  0
 11 12  1  0
 12 13  1  0
 13 14  2  0
 13 15  1  0
 15 16  1  0
 16 17  2  0
 17 18  1  0
 18 19  2  0
 19 20  1  0
 16 21  1  0
 20 21  2  0
  6 22  1  0
 11 22  2  0
M  END
