pyridine_urea_11032
     RDKit          3D

 19 20  0  0  0  0  0  0  0  0999 V2000
   13.5070   -3.4510   25.9650 C   0  0  0  0  0  0  0  0  0  0  0  0
   12.5860   -3.0150   24.8780 C   0  0  0  0  0  0  0  0  0  0  0  0
   12.9580   -2.3450   23.7370 C   0  0  0  0  0  0  0  0  0  0  0  0
   11.5880   -2.0150   22.6670 S   0  0  0  0  0  0  0  0  0  0  0  0
   10.6140   -2.8150   23.8650 C   0  0  0  0  0  0  0  0  0  0  0  0
    9.2330   -2.9610   23.6780 C   0  0  0  0  0  0  0  0  0  0  0  0
    8.4480   -2.0510   24.5750 C   0  0  0  0  0  0  0  0  0  0  0  0
    8.1690   -0.7380   23.8650 C   0  0  0  0  0  0  0  0  0  0  0  0
    8.8450   -0.5470   22.6380 N   0  0  0  0  0  0  0  0  0  0  0  0
    8.4210    0.1940   21.5530 C   0  0  0  0  0  0  0  0  0  0  0  0
    8.9790    1.2390   21.1980 O   0  0  0  0  0  0  0  0  0  0  0  0
    7.2560   -0.4350   20.9680 N   0  0  0  0  0  0  0  0  0  0  0  0
    6.5110    0.1470   20.0100 C   0  0  0  0  0  0  0  0  0  0  0  0
    5.3440    0.8610   20.2860 C   0  0  0  0  0  0  0  0  0  0  0  0
    4.6400    1.4550   19.2390 C   0  0  0  0  0  0  0  0  0  0  0  0
    5.1300    1.3130   17.9580 C   0  0  0  0  0  0  0  0  0  0  0  0
    6.2400    0.6300   17.6480 N   0  0  0  0  0  0  0  0  0  0  0  0
    6.9200    0.0460   18.7100 C   0  0  0  0  0  0  0  0  0  0  0  0
   11.2380   -3.2800   24.9530 N   0  0  0  0  0  0  0  0  0  0  0  0
  1  2  1  0
  2  3  2  0
  3  4  1  0
  4  5  1  0
  5  6  1  0
  6  7  1  0
  7  8  1  0
  8  9  1  0
  9 10  1  0
 10 11  2  0
 10 12  1  0
 12 13  1  0
 13 14  2  0
 14 15  1  0
 15 16  2  0
 16 17  1  0
 13 18  1  0
 17 18  2  0
  2 19  1  0
  5 19  2  0
M  END
