pyridine_urea_6296
     RDKit          3D

 23 24  0  0  0  0  0  0  0  0999 V2000
   13.4060   -2.3140   24.7170 C   0  0  0  0  0  0  0  0  0  0  0  0
   11.9940   -2.1850   24.8330 O   0  0  0  0  0  0  0  0  0  0  0  0
   11.6000   -0.8120   24.8260 C   0  0  0  0  0  0  0  0  0  0  0  0
   12.3720    0.1000   25.0230 O   0  0  0  0  0  0  0  0  0  0  0  0
   10.1000   -0.6990   24.5420 C   0  0  0  0  0  0  0  0  0  0  0  0
    9.7800   -0.0530   23.2630 C   0  0  2  0  0  0  0  0  0  0  0  0
    9.6370    1.3220   23.2410 C   0  0  0  0  0  0  0  0  0  0  0  0
    8.8100   -0.7050   22.4270 N   0  0  0  0  0  0  0  0  0  0  0  0
    8.2720    0.0390   21.4110 C   0  0  0  0  0  0  0  0  0  0  0  0
    8.7490    1.1360   21.0790 O   0  0  0  0  0  0  0  0  0  0  0  0
    7.1700   -0.5640   20.8770 N   0  0  0  0  0  0  0  0  0  0  0  0
    6.3450    0.1160   19.9870 C   0  0  0  0  0  0  0  0  0  0  0  0
    5.1940    0.7340   20.3930 C   0  0  0  0  0  0  0  0  0  0  0  0
    4.5960    1.3810   19.1590 C   0  0  0  0  0  0  0  0  0  0  0  0
    5.1720    1.3030   17.9170 C   0  0  0  0  0  0  0  0  0  0  0  0
    6.2830    0.6690   17.6350 N   0  0  0  0  0  0  0  0  0  0  0  0
    6.8300    0.0970   18.6900 C   0  0  0  0  0  0  0  0  0  0  0  0
   11.1100   -0.5460   22.7180 C   0  0  0  0  0  0  0  0  0  0  0  0
   11.6390   -1.7510   22.0580 C   0  0  0  0  0  0  0  0  0  0  0  0
   13.0930   -0.9570   22.0280 C   0  0  0  0  0  0  0  0  0  0  0  0
   13.5510    0.5270   22.5610 C   0  0  0  0  0  0  0  0  0  0  0  0
   12.5560    1.1590   23.1060 C   0  0  0  0  0  0  0  0  0  0  0  0
   12.1440    0.0610   22.7260 C   0  0  0  0  0  0  0  0  0  0  0  0
  1  2  1  0
  2  3  1  0
  3  4  2  0
  3  5  1  0
  5  6  1  0
  6  7  1  1
  6  8  1  0
  8  9  1  0
  9 10  2  0
  9 11  1  0
 11 12  1  0
 12 13  2  0
 13 14  1  0
 14 15  2  0
 15 16  1  0
 12 17  1  0
 16 17  2  0
  6 18  1  0
 18 19  2  0
 19 20  1  0
 20 21  2  0
 21 22  1  0
 18 23  1  0
 22 23  2  0
M  END
