pyridine_urea_48
     RDKit          3D

 18 19  0  0  0  0  0  0  0  0999 V2000
   13.2640   -0.6450   22.1430 C   0  0  0  0  0  0  0  0  0  0  0  0
   12.6030    0.0050   22.8950 C   0  0  2  0  0  0  0  0  0  0  0  0
   12.1630    0.8900   24.0160 C   0  0  0  0  0  0  0  0  0  0  0  0
   10.7050    0.8550   24.0490 C   0  0  0  0  0  0  0  0  0  0  0  0
   10.4980   -0.5130   23.9080 O   0  0  0  0  0  0  0  0  0  0  0  0
   11.6330   -1.0770   23.3700 C   0  0  1  0  0  0  0  0  0  0  0  0
   11.1010   -1.9520   22.2530 C   0  0  0  0  0  0  0  0  0  0  0  0
    9.6310   -1.9330   22.1820 C   0  0  0  0  0  0  0  0  0  0  0  0
    9.0740   -0.6390   22.5160 N   0  0  0  0  0  0  0  0  0  0  0  0
    8.5000    0.1500   21.5360 C   0  0  0  0  0  0  0  0  0  0  0  0
    8.9500    1.2570   21.2140 O   0  0  0  0  0  0  0  0  0  0  0  0
    7.3760   -0.4530   21.0100 N   0  0  0  0  0  0  0  0  0  0  0  0
    6.5600    0.1520   20.0520 C   0  0  0  0  0  0  0  0  0  0  0  0
    5.3930    0.8600   20.2860 C   0  0  0  0  0  0  0  0  0  0  0  0
    4.6650    1.4420   19.2650 C   0  0  0  0  0  0  0  0  0  0  0  0
    5.1350    1.3020   17.9820 C   0  0  0  0  0  0  0  0  0  0  0  0
    6.2550    0.6160   17.6970 N   0  0  0  0  0  0  0  0  0  0  0  0
    6.9330    0.0630   18.7250 C   0  0  0  0  0  0  0  0  0  0  0  0
  2  1  1  1
  2  3  1  0
  3  4  1  0
  4  5  1  0
  2  6  1  0
  5  6  1  0
  6  7  1  6
  7  8  1  0
  8  9  1  0
  9 10  1  0
 10 11  2  0
 10 12  1  0
 12 13  1  0
 13 14  2  0
 14 15  1  0
 15 16  2  0
 16 17  1  0
 13 18  1  0
 17 18  2  0
M  END
