pyridine_urea_10707
     RDKit          3D

 20 21  0  0  0  0  0  0  0  0999 V2000
    8.9200    0.6150   25.2620 C   0  0  0  0  0  0  0  0  0  0  0  0
    9.4920    1.2050   24.0950 O   0  0  0  0  0  0  0  0  0  0  0  0
   10.2800    0.3260   23.4240 C   0  0  0  0  0  0  0  0  0  0  0  0
   11.6060    0.3920   23.3730 C   0  0  0  0  0  0  0  0  0  0  0  0
   12.6730    1.0410   23.7410 C   0  0  0  0  0  0  0  0  0  0  0  0
   12.6570   -0.4190   22.7450 C   0  0  0  0  0  0  0  0  0  0  0  0
   12.2030   -1.5920   21.9710 C   0  0  0  0  0  0  0  0  0  0  0  0
   13.1290   -2.7260   21.1330 Cl  0  0  0  0  0  0  0  0  0  0  0  0
   10.6940   -1.7550   21.9500 C   0  0  0  0  0  0  0  0  0  0  0  0
    9.8230   -0.7450   22.7060 C   0  0  0  0  0  0  0  0  0  0  0  0
    8.4330   -0.9730   22.6030 N   0  0  0  0  0  0  0  0  0  0  0  0
    7.9570   -0.2080   21.5870 C   0  0  0  0  0  0  0  0  0  0  0  0
    8.4950    0.8310   21.2190 O   0  0  0  0  0  0  0  0  0  0  0  0
    6.8280   -0.7090   21.0200 N   0  0  0  0  0  0  0  0  0  0  0  0
    6.2630   -0.0230   19.9560 C   0  0  0  0  0  0  0  0  0  0  0  0
    5.0680    0.6650   20.1530 C   0  0  0  0  0  0  0  0  0  0  0  0
    4.5180    1.3650   19.0960 C   0  0  0  0  0  0  0  0  0  0  0  0
    5.1740    1.3590   17.8830 C   0  0  0  0  0  0  0  0  0  0  0  0
    6.3200    0.6960   17.6790 N   0  0  0  0  0  0  0  0  0  0  0  0
    6.8380    0.0210   18.7110 C   0  0  0  0  0  0  0  0  0  0  0  0
  1  2  1  0
  2  3  1  0
  3  4  2  0
  4  5  1  0
  4  6  1  0
  6  7  2  0
  7  8  1  0
  7  9  1  0
  3 10  1  0
  9 10  2  0
 10 11  1  0
 11 12  1  0
 12 13  2  0
 12 14  1  0
 14 15  1  0
 15 16  2  0
 16 17  1  0
 17 18  2  0
 18 19  1  0
 15 20  1  0
 19 20  2  0
M  END
