pyridine_urea_6186
     RDKit          3D

 24 26  0  0  0  0  0  0  0  0999 V2000
   13.9310   -2.6950   25.3160 C   0  0  0  0  0  0  0  0  0  0  0  0
   13.3180   -1.4370   25.1890 O   0  0  0  0  0  0  0  0  0  0  0  0
   12.3050   -1.5410   24.2230 C   0  0  0  0  0  0  0  0  0  0  0  0
   11.4380   -2.7940   24.3750 C   0  0  0  0  0  0  0  0  0  0  0  0
   10.3080   -3.0300   23.4470 C   0  0  0  0  0  0  0  0  0  0  0  0
   10.1440   -2.1040   22.4930 C   0  0  0  0  0  0  0  0  0  0  0  0
   10.9770   -0.8560   22.2930 C   0  0  0  0  0  0  0  0  0  0  0  0
   12.0950   -0.5740   23.2050 C   0  0  0  0  0  0  0  0  0  0  0  0
   12.8260    0.5220   23.0740 C   0  0  0  0  0  0  0  0  0  0  0  0
   11.6870    0.9730   23.4250 C   0  0  0  0  0  0  0  0  0  0  0  0
   10.5520    0.8690   23.7340 C   0  0  0  0  0  0  0  0  0  0  0  0
    9.4270    0.0810   23.9930 C   0  0  0  0  0  0  0  0  0  0  0  0
    8.8400   -0.5410   22.7770 N   0  0  0  0  0  0  0  0  0  0  0  0
    8.4280    0.1860   21.6730 C   0  0  0  0  0  0  0  0  0  0  0  0
    8.9670    1.4350   21.1670 O   0  0  0  0  0  0  0  0  0  0  0  0
    7.3630   -0.4680   21.0820 N   0  0  0  0  0  0  0  0  0  0  0  0
    6.5580    0.1330   20.1140 C   0  0  0  0  0  0  0  0  0  0  0  0
    5.2970    0.8850   20.3560 C   0  0  0  0  0  0  0  0  0  0  0  0
    4.5920    1.4760   19.1920 C   0  0  0  0  0  0  0  0  0  0  0  0
    5.1450    1.2990   17.9300 C   0  0  0  0  0  0  0  0  0  0  0  0
    6.2860    0.6020   17.7300 N   0  0  0  0  0  0  0  0  0  0  0  0
    6.9420    0.0530   18.7850 C   0  0  0  0  0  0  0  0  0  0  0  0
   10.8960    2.0900   23.7220 O   0  0  0  0  0  0  0  0  0  0  0  0
   12.4260    1.9320   23.2760 N   0  0  0  0  0  0  0  0  0  0  0  0
  1  2  1  0
  2  3  1  0
  3  4  2  0
  4  5  1  0
  5  6  2  0
  6  7  1  0
  3  8  1  0
  7  8  2  0
  8  9  1  0
  9 10  1  0
 10 11  2  0
 11 12  1  0
 12 13  1  0
 13 14  1  0
 14 15  2  0
 14 16  1  0
 16 17  1  0
 17 18  2  0
 18 19  1  0
 19 20  2  0
 20 21  1  0
 17 22  1  0
 21 22  2  0
 11 23  1  0
  9 24  2  0
 23 24  1  0
M  END
