pyridine_urea_8577
     RDKit          3D

 21 22  0  0  0  0  0  0  0  0999 V2000
   10.7700   -0.5090   25.4350 C   0  0  0  0  0  0  0  0  0  0  0  0
   12.1560   -0.4930   25.3000 N   0  0  0  0  0  0  0  0  0  0  0  0
   12.9660   -1.6630   25.1740 C   0  0  0  0  0  0  0  0  0  0  0  0
   12.5100    0.3650   24.1570 C   0  0  0  0  0  0  0  0  0  0  0  0
   12.3670    1.5830   24.0200 O   0  0  0  0  0  0  0  0  0  0  0  0
   12.9560   -0.4270   23.2000 C   0  0  0  0  0  0  0  0  0  0  0  0
   12.7700   -1.2800   22.1460 C   0  0  0  0  0  0  0  0  0  0  0  0
   11.4590   -1.6830   21.5500 C   0  0  0  0  0  0  0  0  0  0  0  0
   10.3090   -1.1550   22.0410 C   0  0  0  0  0  0  0  0  0  0  0  0
    9.0870   -1.5220   21.4210 N   0  0  0  0  0  0  0  0  0  0  0  0
    8.2510   -0.4420   21.2610 C   0  0  0  0  0  0  0  0  0  0  0  0
    8.7570    0.9200   21.3090 O   0  0  0  0  0  0  0  0  0  0  0  0
    6.9690   -0.7800   21.0490 N   0  0  0  0  0  0  0  0  0  0  0  0
    6.3350   -0.0810   20.0830 C   0  0  0  0  0  0  0  0  0  0  0  0
    5.1560    0.6290   20.2450 C   0  0  0  0  0  0  0  0  0  0  0  0
    4.5860    1.3280   19.1880 C   0  0  0  0  0  0  0  0  0  0  0  0
    5.2330    1.2980   17.9540 C   0  0  0  0  0  0  0  0  0  0  0  0
    6.3760    0.6150   17.7600 N   0  0  0  0  0  0  0  0  0  0  0  0
    6.8930   -0.0520   18.8130 C   0  0  0  0  0  0  0  0  0  0  0  0
   10.4070   -0.2580   23.1250 C   0  0  0  0  0  0  0  0  0  0  0  0
   11.6640   -0.0570   23.5130 N   0  0  0  0  0  0  0  0  0  0  0  0
  1  2  1  0
  2  3  1  0
  2  4  1  0
  4  5  2  0
  4  6  1  0
  6  7  2  0
  7  8  1  0
  8  9  2  0
  9 10  1  0
 10 11  1  0
 11 12  2  0
 11 13  1  0
 13 14  1  0
 14 15  2  0
 15 16  1  0
 16 17  2  0
 17 18  1  0
 14 19  1  0
 18 19  2  0
  9 20  1  0
  6 21  1  0
 20 21  2  0
M  END
