pyridine_urea_5759
     RDKit          3D

 18 19  0  0  0  0  0  0  0  0999 V2000
    8.5880    0.8560   21.2140 O   0  0  0  0  0  0  0  0  0  0  0  0
    8.3000   -0.3010   21.4970 C   0  0  0  0  0  0  0  0  0  0  0  0
    7.0260   -0.8560   21.0710 N   0  0  0  0  0  0  0  0  0  0  0  0
    6.3890   -0.1350   20.0610 C   0  0  0  0  0  0  0  0  0  0  0  0
    5.2040    0.5670   20.3100 C   0  0  0  0  0  0  0  0  0  0  0  0
    4.6140    1.2830   19.2620 C   0  0  0  0  0  0  0  0  0  0  0  0
    5.2230    1.2790   18.0040 C   0  0  0  0  0  0  0  0  0  0  0  0
    6.3590    0.6040   17.7590 N   0  0  0  0  0  0  0  0  0  0  0  0
    6.9140   -0.0880   18.7830 C   0  0  0  0  0  0  0  0  0  0  0  0
    9.0960   -1.1800   22.2030 N   0  0  0  0  0  0  0  0  0  0  0  0
   10.4780   -0.7590   22.2740 C   0  0  2  0  0  0  0  0  0  0  0  0
   11.5230   -1.7880   21.9450 C   0  0  0  0  0  0  0  0  0  0  0  0
   12.6820   -1.2430   22.3930 C   0  0  0  0  0  0  0  0  0  0  0  0
   12.2980   -0.2910   23.3330 C   0  0  0  0  0  0  0  0  0  0  0  0
   12.8750   -0.6680   24.4690 F   0  0  0  0  0  0  0  0  0  0  0  0
   12.8430    0.9090   23.1090 F   0  0  0  0  0  0  0  0  0  0  0  0
   10.8790   -0.1050   23.4070 C   0  0  1  0  0  0  0  0  0  0  0  0
   10.4530    1.0260   23.1980 O   0  0  0  0  0  0  0  0  0  0  0  0
  1  2  2  0
  2  3  1  0
  3  4  1  0
  4  5  2  0
  5  6  1  0
  6  7  2  0
  7  8  1  0
  4  9  1  0
  8  9  2  0
  2 10  1  0
 11 10  1  1
 11 12  1  0
 12 13  1  0
 13 14  1  0
 14 15  1  0
 14 16  1  0
 11 17  1  0
 14 17  1  0
 17 18  1  6
M  END
