pyridine_urea_10665
     RDKit          3D

 21 22  0  0  0  0  0  0  0  0999 V2000
    8.4970    0.9580   21.2570 O   0  0  0  0  0  0  0  0  0  0  0  0
    8.3090   -0.2500   21.1800 C   0  0  0  0  0  0  0  0  0  0  0  0
    7.1260   -0.8180   20.8300 N   0  0  0  0  0  0  0  0  0  0  0  0
    6.3330   -0.0850   19.9620 C   0  0  0  0  0  0  0  0  0  0  0  0
    5.0030    0.5940   20.3150 C   0  0  0  0  0  0  0  0  0  0  0  0
    4.3830    1.3600   19.1490 C   0  0  0  0  0  0  0  0  0  0  0  0
    5.1210    1.3540   17.8500 C   0  0  0  0  0  0  0  0  0  0  0  0
    6.2820    0.7090   17.6610 N   0  0  0  0  0  0  0  0  0  0  0  0
    6.8290    0.0350   18.6840 C   0  0  0  0  0  0  0  0  0  0  0  0
    9.3320   -1.1120   21.4220 N   0  0  0  0  0  0  0  0  0  0  0  0
   10.2570   -0.4750   22.2800 C   0  0  2  0  0  0  0  0  0  0  0  0
   11.5400   -1.0020   22.3530 C   0  0  0  0  0  0  0  0  0  0  0  0
   12.0740   -2.0300   22.1170 C   0  0  0  0  0  0  0  0  0  0  0  0
   13.1870   -1.3300   22.5570 C   0  0  0  0  0  0  0  0  0  0  0  0
   12.0490   -0.2250   22.7100 C   0  0  0  0  0  0  0  0  0  0  0  0
   13.0140    0.7240   23.1950 C   0  0  0  0  0  0  0  0  0  0  0  0
   12.8840   -0.5840   22.7440 C   0  0  0  0  0  0  0  0  0  0  0  0
    9.8070   -0.2960   23.5230 C   0  0  0  0  0  0  0  0  0  0  0  0
    9.5550    1.0490   23.6510 F   0  0  0  0  0  0  0  0  0  0  0  0
    8.6620   -0.9660   23.7280 F   0  0  0  0  0  0  0  0  0  0  0  0
   10.7250   -0.7820   24.3950 F   0  0  0  0  0  0  0  0  0  0  0  0
  1  2  2  0
  2  3  1  0
  3  4  1  0
  4  5  2  0
  5  6  1  0
  6  7  2  0
  7  8  1  0
  4  9  1  0
  8  9  2  0
  2 10  1  0
 11 10  1  6
 11 12  1  0
 12 13  2  0
 13 14  1  0
 14 15  2  0
 15 16  1  0
 12 17  1  0
 16 17  2  0
 11 18  1  0
 18 19  1  0
 18 20  1  0
 18 21  1  0
M  END
