pyridine_urea_5079
     RDKit          3D

 20 21  0  0  0  0  0  0  0  0999 V2000
    9.1070    1.0990   21.2870 O   0  0  0  0  0  0  0  0  0  0  0  0
    8.6020   -0.0030   21.5330 C   0  0  0  0  0  0  0  0  0  0  0  0
    7.3600   -0.4440   21.1060 N   0  0  0  0  0  0  0  0  0  0  0  0
    6.6190    0.1260   20.0580 C   0  0  0  0  0  0  0  0  0  0  0  0
    5.4690    0.8620   20.3580 C   0  0  0  0  0  0  0  0  0  0  0  0
    4.7290    1.4470   19.3300 C   0  0  0  0  0  0  0  0  0  0  0  0
    5.1690    1.2730   18.0370 C   0  0  0  0  0  0  0  0  0  0  0  0
    6.2590    0.5660   17.7210 N   0  0  0  0  0  0  0  0  0  0  0  0
    6.9580    0.0080   18.7310 C   0  0  0  0  0  0  0  0  0  0  0  0
    9.2420   -1.0000   22.2780 N   0  0  0  0  0  0  0  0  0  0  0  0
   10.3850   -0.7490   23.2030 C   0  0  2  0  0  0  0  0  0  0  0  0
   10.0760    0.5660   23.9780 C   0  0  0  0  0  0  0  0  0  0  0  0
    8.7270    0.4790   24.5230 O   0  0  0  0  0  0  0  0  0  0  0  0
   11.8300   -0.9140   22.6970 C   0  0  0  0  0  0  0  0  0  0  0  0
   12.1040   -2.0490   22.1060 C   0  0  0  0  0  0  0  0  0  0  0  0
   13.0630   -1.0910   22.2230 C   0  0  0  0  0  0  0  0  0  0  0  0
   11.9530   -0.3470   22.9730 C   0  0  0  0  0  0  0  0  0  0  0  0
   10.2760   -1.1890   23.2760 Br  0  0  0  0  0  0  0  0  0  0  0  0
   12.3130    0.9660   23.4100 C   0  0  0  0  0  0  0  0  0  0  0  0
   12.9040    0.0430   22.7880 C   0  0  0  0  0  0  0  0  0  0  0  0
  1  2  2  0
  2  3  1  0
  3  4  1  0
  4  5  2  0
  5  6  1  0
  6  7  2  0
  7  8  1  0
  4  9  1  0
  8  9  2  0
  2 10  1  0
 10 11  1  0
 11 12  1  6
 12 13  1  0
 11 14  1  0
 14 15  2  0
 15 16  1  0
 16 17  2  0
 17 18  1  0
 17 19  1  0
 14 20  1  0
 19 20  2  0
M  END
