pyridine_urea_15070
     RDKit          3D

 19 19  0  0  0  0  0  0  0  0999 V2000
   13.4770   -1.0980   20.6980 C   0  0  0  0  0  0  0  0  0  0  0  0
   13.2210   -0.8320   22.1680 C   0  0  0  0  0  0  0  0  0  0  0  0
   13.3300   -2.2150   22.7230 C   0  0  2  0  0  0  0  0  0  0  0  0
   13.1190   -3.1090   21.5070 C   0  0  0  0  0  0  0  0  0  0  0  0
   12.5510   -2.4960   23.7420 N   0  0  0  0  0  0  0  0  0  0  0  0
   11.3700   -1.8600   23.7340 C   0  0  0  0  0  0  0  0  0  0  0  0
   10.6900   -1.4980   24.6770 O   0  0  0  0  0  0  0  0  0  0  0  0
   10.7530   -1.5760   22.3870 C   0  0  0  0  0  0  0  0  0  0  0  0
    9.2650   -1.7170   22.5390 C   0  0  0  0  0  0  0  0  0  0  0  0
    8.6400   -0.4300   22.6940 N   0  0  0  0  0  0  0  0  0  0  0  0
    8.1880    0.2330   21.5520 C   0  0  0  0  0  0  0  0  0  0  0  0
    8.7650    1.4030   21.0900 O   0  0  0  0  0  0  0  0  0  0  0  0
    7.1500   -0.4510   21.0420 N   0  0  0  0  0  0  0  0  0  0  0  0
    6.5260    0.1290   20.0070 C   0  0  0  0  0  0  0  0  0  0  0  0
    5.4250    0.9150   20.2950 C   0  0  0  0  0  0  0  0  0  0  0  0
    4.7250    1.5540   19.2970 C   0  0  0  0  0  0  0  0  0  0  0  0
    5.1440    1.3980   17.9980 C   0  0  0  0  0  0  0  0  0  0  0  0
    6.2170    0.6380   17.6480 N   0  0  0  0  0  0  0  0  0  0  0  0
    6.9580   -0.0400   18.7030 C   0  0  0  0  0  0  0  0  0  0  0  0
  1  2  1  0
  2  3  1  0
  3  4  1  6
  3  5  1  0
  5  6  1  0
  6  7  2  0
  6  8  1  0
  8  9  1  0
  9 10  1  0
 10 11  1  0
 11 12  2  0
 11 13  1  0
 13 14  1  0
 14 15  2  0
 15 16  1  0
 16 17  2  0
 17 18  1  0
 14 19  1  0
 18 19  2  0
M  END
