pyridine_urea_11213
     RDKit          3D

 18 18  0  0  0  0  0  0  0  0999 V2000
   12.6620   -2.1190   21.3120 C   0  0  0  0  0  0  0  0  0  0  0  0
   12.7370   -1.2710   22.1500 C   0  0  0  0  0  0  0  0  0  0  0  0
   13.2780   -0.0820   22.9300 C   0  0  0  0  0  0  0  0  0  0  0  0
   12.3510    1.0550   23.0240 C   0  0  0  0  0  0  0  0  0  0  0  0
   11.0180    0.7710   22.9990 C   0  0  0  0  0  0  0  0  0  0  0  0
   10.2920   -0.4620   23.5280 C   0  0  1  0  0  0  0  0  0  0  0  0
    9.1580   -0.3750   23.9540 O   0  0  0  0  0  0  0  0  0  0  0  0
   10.1640   -1.4970   22.5060 C   0  0  0  0  0  0  0  0  0  0  0  0
    8.7890   -1.5490   22.0870 N   0  0  0  0  0  0  0  0  0  0  0  0
    8.2430   -0.4630   21.4460 C   0  0  0  0  0  0  0  0  0  0  0  0
    8.8240    0.6070   21.3160 O   0  0  0  0  0  0  0  0  0  0  0  0
    6.9860   -0.7540   20.9930 N   0  0  0  0  0  0  0  0  0  0  0  0
    6.3130   -0.0200   20.0170 C   0  0  0  0  0  0  0  0  0  0  0  0
    5.1370    0.6930   20.1820 C   0  0  0  0  0  0  0  0  0  0  0  0
    4.5730    1.3890   19.1370 C   0  0  0  0  0  0  0  0  0  0  0  0
    5.1770    1.3850   17.9100 C   0  0  0  0  0  0  0  0  0  0  0  0
    6.3220    0.7010   17.6970 N   0  0  0  0  0  0  0  0  0  0  0  0
    6.8560    0.0220   18.7420 C   0  0  0  0  0  0  0  0  0  0  0  0
  1  2  1  0
  2  3  1  0
  3  4  1  0
  4  5  1  0
  5  6  1  0
  6  7  1  6
  6  8  1  0
  8  9  1  0
  9 10  1  0
 10 11  2  0
 10 12  1  0
 12 13  1  0
 13 14  2  0
 14 15  1  0
 15 16  2  0
 16 17  1  0
 13 18  1  0
 17 18  2  0
M  END
