pyridine_urea_14739
     RDKit          3D

 20 21  0  0  0  0  0  0  0  0999 V2000
   12.6510   -2.3100   21.7520 C   0  0  0  0  0  0  0  0  0  0  0  0
   11.6840   -2.3020   22.5200 O   0  0  0  0  0  0  0  0  0  0  0  0
   11.1270   -1.0800   22.6840 C   0  0  1  0  0  0  0  0  0  0  0  0
   10.4250   -0.8820   21.6170 C   0  0  0  0  0  0  0  0  0  0  0  0
    9.0940   -1.4290   21.7710 N   0  0  0  0  0  0  0  0  0  0  0  0
    8.1640   -0.3870   21.3800 C   0  0  0  0  0  0  0  0  0  0  0  0
    8.5420    0.7820   21.2470 O   0  0  0  0  0  0  0  0  0  0  0  0
    6.8480   -0.7000   21.1390 N   0  0  0  0  0  0  0  0  0  0  0  0
    6.2720    0.0110   20.0300 C   0  0  0  0  0  0  0  0  0  0  0  0
    5.1070    0.7570   20.1750 C   0  0  0  0  0  0  0  0  0  0  0  0
    4.5180    1.5250   18.9970 C   0  0  0  0  0  0  0  0  0  0  0  0
    5.1340    1.4900   17.7680 C   0  0  0  0  0  0  0  0  0  0  0  0
    6.2680    0.7280   17.7010 N   0  0  0  0  0  0  0  0  0  0  0  0
    6.8550    0.0010   18.7480 C   0  0  0  0  0  0  0  0  0  0  0  0
    9.7920   -0.9790   23.4630 C   0  0  0  0  0  0  0  0  0  0  0  0
    9.5160    0.3650   23.5590 C   0  0  0  0  0  0  0  0  0  0  0  0
   10.2830    0.8680   24.6500 C   0  0  1  0  0  0  0  0  0  0  0  0
    9.9380    0.0460   25.7380 C   0  0  0  0  0  0  0  0  0  0  0  0
   11.7420    0.6750   24.1420 C   0  0  0  0  0  0  0  0  0  0  0  0
   12.0770   -0.1000   23.0590 C   0  0  0  0  0  0  0  0  0  0  0  0
  1  2  1  0
  3  2  1  0
  3  4  1  6
  4  5  1  0
  5  6  1  0
  6  7  2  0
  6  8  1  0
  8  9  1  0
  9 10  2  0
 10 11  1  0
 11 12  2  0
 12 13  1  0
  9 14  1  0
 13 14  2  0
  3 15  1  0
 15 16  1  0
 16 17  1  0
 17 18  1  1
 17 19  1  0
  3 20  1  0
 19 20  1  0
M  END
