pyridine_urea_4569
     RDKit          3D

 23 25  0  0  0  0  0  0  0  0999 V2000
    8.7600    0.4060   21.8190 O   0  0  0  0  0  0  0  0  0  0  0  0
    8.4790   -0.7380   21.9430 C   0  0  0  0  0  0  0  0  0  0  0  0
    9.1230   -1.5900   22.9160 N   0  0  0  0  0  0  0  0  0  0  0  0
   10.4890   -2.2630   22.9010 C   0  0  0  0  0  0  0  0  0  0  0  0
   11.6420   -1.6420   23.7950 C   0  0  0  0  0  0  0  0  0  0  0  0
   11.4560   -1.2890   25.2030 C   0  0  0  0  0  0  0  0  0  0  0  0
   12.6110   -0.9990   24.6130 C   0  0  0  0  0  0  0  0  0  0  0  0
   11.9750   -1.7930   23.3230 C   0  0  0  0  0  0  0  0  0  0  0  0
   12.7510   -1.7060   22.3490 N   0  0  0  0  0  0  0  0  0  0  0  0
   13.2390   -1.0430   23.3790 C   0  0  0  0  0  0  0  0  0  0  0  0
   14.0630   -0.7320   22.2890 N   0  0  0  0  0  0  0  0  0  0  0  0
   14.4600    0.9640   22.0380 C   0  0  0  0  0  0  0  0  0  0  0  0
   14.4630    1.5000   20.7270 C   0  0  0  0  0  0  0  0  0  0  0  0
   14.7130    0.6630   19.8450 O   0  0  0  0  0  0  0  0  0  0  0  0
   14.2130   -0.7240   19.9800 C   0  0  0  0  0  0  0  0  0  0  0  0
   13.5530   -1.3230   21.1050 C   0  0  0  0  0  0  0  0  0  0  0  0
    7.4340   -1.2560   21.1780 N   0  0  0  0  0  0  0  0  0  0  0  0
    6.7740   -0.5160   20.1920 C   0  0  0  0  0  0  0  0  0  0  0  0
    5.5610    0.2620   20.6540 C   0  0  0  0  0  0  0  0  0  0  0  0
    4.8510    1.0290   19.7160 C   0  0  0  0  0  0  0  0  0  0  0  0
    5.2890    1.0710   18.3060 C   0  0  0  0  0  0  0  0  0  0  0  0
    6.3390    0.4060   17.8620 N   0  0  0  0  0  0  0  0  0  0  0  0
    7.1150   -0.4200   18.8330 C   0  0  0  0  0  0  0  0  0  0  0  0
  1  2  2  0
  2  3  1  0
  3  4  1  0
  4  5  1  0
  5  6  2  0
  6  7  1  0
  7  8  2  0
  8  9  1  0
  5 10  1  0
  9 10  2  0
 10 11  1  0
 11 12  1  0
 12 13  1  0
 13 14  1  0
 14 15  1  0
 11 16  1  0
 15 16  1  0
  2 17  1  0
 17 18  1  0
 18 19  2  0
 19 20  1  0
 20 21  2  0
 21 22  1  0
 18 23  1  0
 22 23  2  0
M  END
