pyridine_urea_3977
     RDKit          3D

 28 30  0  0  0  0  0  0  0  0999 V2000
    8.6660    1.4470   20.7130 O   0  0  0  0  0  0  0  0  0  0  0  0
    8.2180    0.6390   21.4900 C   0  0  0  0  0  0  0  0  0  0  0  0
    8.5650    0.6870   22.7800 N   0  0  0  0  0  0  0  0  0  0  0  0
    9.0850    1.9210   23.2180 C   0  0  0  0  0  0  0  0  0  0  0  0
   10.4550    2.0960   23.1520 C   0  0  0  0  0  0  0  0  0  0  0  0
   11.9170    1.7990   22.9810 C   0  0  0  0  0  0  0  0  0  0  0  0
   12.6550    0.6380   22.6700 C   0  0  0  0  0  0  0  0  0  0  0  0
   12.0450   -0.5240   22.4300 C   0  0  0  0  0  0  0  0  0  0  0  0
   12.5120   -2.0330   22.0100 S   0  0  0  0  0  0  0  0  0  0  0  0
   12.3690   -2.1070   20.6010 O   0  0  0  0  0  0  0  0  0  0  0  0
   13.7760   -2.2560   22.5850 O   0  0  0  0  0  0  0  0  0  0  0  0
   11.3180   -2.9690   22.7810 N   0  0  0  0  0  0  0  0  0  0  0  0
    9.9690   -2.7040   23.0220 C   0  0  0  0  0  0  0  0  0  0  0  0
    9.4700   -1.5540   23.9140 C   0  0  0  0  0  0  0  0  0  0  0  0
    8.0980   -1.4050   24.0950 C   0  0  0  0  0  0  0  0  0  0  0  0
    7.1860   -2.2670   23.4920 C   0  0  0  0  0  0  0  0  0  0  0  0
    5.8620   -2.1230   23.6730 F   0  0  0  0  0  0  0  0  0  0  0  0
    7.6270   -3.3030   22.6880 C   0  0  0  0  0  0  0  0  0  0  0  0
    8.9770   -3.5070   22.4670 C   0  0  0  0  0  0  0  0  0  0  0  0
   10.8190   -0.2760   22.5770 C   0  0  0  0  0  0  0  0  0  0  0  0
    9.8630    0.6880   22.8740 C   0  0  0  0  0  0  0  0  0  0  0  0
    7.2850   -0.2710   21.0980 N   0  0  0  0  0  0  0  0  0  0  0  0
    6.5120    0.1880   20.1180 C   0  0  0  0  0  0  0  0  0  0  0  0
    5.3170    0.8850   20.3010 C   0  0  0  0  0  0  0  0  0  0  0  0
    4.5950    1.3690   19.2140 C   0  0  0  0  0  0  0  0  0  0  0  0
    5.0730    1.1540   17.9330 C   0  0  0  0  0  0  0  0  0  0  0  0
    6.1940    0.4860   17.6580 N   0  0  0  0  0  0  0  0  0  0  0  0
    6.9330   -0.0150   18.8240 C   0  0  0  0  0  0  0  0  0  0  0  0
  1  2  2  0
  2  3  1  0
  3  4  1  0
  4  5  1  0
  5  6  2  0
  6  7  1  0
  7  8  2  0
  8  9  1  0
  9 10  2  0
  9 11  2  0
  9 12  1  0
 12 13  1  0
 13 14  2  0
 14 15  1  0
 15 16  2  0
 16 17  1  0
 16 18  1  0
 13 19  1  0
 18 19  2  0
  8 20  1  0
  5 21  1  0
 20 21  2  0
  2 22  1  0
 22 23  1  0
 23 24  2  0
 24 25  1  0
 25 26  2  0
 26 27  1  0
 23 28  1  0
 27 28  2  0
M  END
