pyridine_urea_15265
     RDKit          3D

 15 15  0  0  0  0  0  0  0  0999 V2000
   11.4460   -1.5570   24.5060 C   0  0  0  0  0  0  0  0  0  0  0  0
   11.0540   -0.5170   23.4440 C   0  0  0  0  0  0  0  0  0  0  0  0
   12.2720    0.3610   23.1400 C   0  0  0  0  0  0  0  0  0  0  0  0
    9.9210    0.2630   23.8660 O   0  0  0  0  0  0  0  0  0  0  0  0
   10.5230   -1.3160   22.2720 C   0  0  0  0  0  0  0  0  0  0  0  0
    9.0510   -1.2560   22.1960 N   0  0  0  0  0  0  0  0  0  0  0  0
    8.4180   -0.2620   21.4780 C   0  0  0  0  0  0  0  0  0  0  0  0
    8.9000    0.8550   21.3250 O   0  0  0  0  0  0  0  0  0  0  0  0
    7.1770   -0.7120   20.9770 N   0  0  0  0  0  0  0  0  0  0  0  0
    6.4420   -0.0180   20.0420 C   0  0  0  0  0  0  0  0  0  0  0  0
    5.1440    0.7410   20.3250 C   0  0  0  0  0  0  0  0  0  0  0  0
    4.5820    1.3830   19.2140 C   0  0  0  0  0  0  0  0  0  0  0  0
    5.1960    1.3090   17.9680 C   0  0  0  0  0  0  0  0  0  0  0  0
    6.3320    0.6330   17.7310 N   0  0  0  0  0  0  0  0  0  0  0  0
    6.9150   -0.0050   18.7530 C   0  0  0  0  0  0  0  0  0  0  0  0
  1  2  1  0
  2  3  1  0
  2  4  1  0
  2  5  1  0
  5  6  1  0
  6  7  1  0
  7  8  2  0
  7  9  1  0
  9 10  1  0
 10 11  2  0
 11 12  1  0
 12 13  2  0
 13 14  1  0
 10 15  1  0
 14 15  2  0
M  END
