pyridine_urea_8387
     RDKit          3D

 22 24  0  0  0  0  0  0  0  0999 V2000
    8.6080    1.1820   21.0540 O   0  0  0  0  0  0  0  0  0  0  0  0
    8.1530    0.1410   21.5550 C   0  0  0  0  0  0  0  0  0  0  0  0
    7.1160   -0.5790   21.0170 N   0  0  0  0  0  0  0  0  0  0  0  0
    6.4200    0.0930   19.9620 C   0  0  0  0  0  0  0  0  0  0  0  0
    5.0930    0.8500   20.2700 C   0  0  0  0  0  0  0  0  0  0  0  0
    4.4830    1.4950   19.2040 C   0  0  0  0  0  0  0  0  0  0  0  0
    5.1830    1.3920   17.8470 C   0  0  0  0  0  0  0  0  0  0  0  0
    6.3310    0.7120   17.6450 N   0  0  0  0  0  0  0  0  0  0  0  0
    6.9080    0.0890   18.6860 C   0  0  0  0  0  0  0  0  0  0  0  0
    8.5820   -0.4540   22.7020 N   0  0  0  0  0  0  0  0  0  0  0  0
    9.9990   -0.3740   22.9290 C   0  0  2  0  0  0  0  0  0  0  0  0
   10.4120    1.0780   22.9620 C   0  0  0  0  0  0  0  0  0  0  0  0
   11.9230    0.8350   22.9350 C   0  0  0  0  0  0  0  0  0  0  0  0
   11.9720   -0.5710   22.3940 C   0  0  1  0  0  0  0  0  0  0  0  0
   12.2860   -1.5270   23.4140 C   0  0  0  0  0  0  0  0  0  0  0  0
   13.5500   -1.3160   24.0480 C   0  0  0  0  0  0  0  0  0  0  0  0
   13.9570   -2.2300   24.9750 C   0  0  0  0  0  0  0  0  0  0  0  0
   13.1900   -3.2390   25.2450 C   0  0  0  0  0  0  0  0  0  0  0  0
   13.8010   -4.0410   26.1460 F   0  0  0  0  0  0  0  0  0  0  0  0
   11.9490   -3.4250   24.6620 C   0  0  0  0  0  0  0  0  0  0  0  0
   11.4860   -2.5770   23.7440 C   0  0  0  0  0  0  0  0  0  0  0  0
   10.7350   -1.0550   21.9850 C   0  0  0  0  0  0  0  0  0  0  0  0
  1  2  2  0
  2  3  1  0
  3  4  1  0
  4  5  2  0
  5  6  1  0
  6  7  2  0
  7  8  1  0
  4  9  1  0
  8  9  2  0
  2 10  1  0
 11 10  1  6
 11 12  1  0
 12 13  1  0
 13 14  1  0
 14 15  1  1
 15 16  2  0
 16 17  1  0
 17 18  2  0
 18 19  1  0
 18 20  1  0
 15 21  1  0
 20 21  2  0
 11 22  1  0
 14 22  1  0
M  END
