pyridine_urea_13247
     RDKit          3D

 16 16  0  0  0  0  0  0  0  0999 V2000
   12.9940   -0.7620   22.3640 C   0  0  0  0  0  0  0  0  0  0  0  0
   11.6580   -1.4480   22.2430 C   0  0  1  0  0  0  0  0  0  0  0  0
   11.8300   -2.5960   23.0900 O   0  0  0  0  0  0  0  0  0  0  0  0
   10.5480   -0.6290   22.4110 C   0  0  2  0  0  0  0  0  0  0  0  0
   10.2460   -0.3490   23.6910 C   0  0  0  0  0  0  0  0  0  0  0  0
    9.3440   -1.0450   24.1140 O   0  0  0  0  0  0  0  0  0  0  0  0
    9.3170   -1.1260   21.8020 N   0  0  0  0  0  0  0  0  0  0  0  0
    8.4210   -0.2320   21.3320 C   0  0  0  0  0  0  0  0  0  0  0  0
    8.7020    0.9550   21.2180 O   0  0  0  0  0  0  0  0  0  0  0  0
    7.2370   -0.7990   21.0110 N   0  0  0  0  0  0  0  0  0  0  0  0
    6.5190   -0.1040   20.0900 C   0  0  0  0  0  0  0  0  0  0  0  0
    5.3300    0.6130   20.3480 C   0  0  0  0  0  0  0  0  0  0  0  0
    4.6170    1.3760   19.2030 C   0  0  0  0  0  0  0  0  0  0  0  0
    5.1950    1.3190   17.9470 C   0  0  0  0  0  0  0  0  0  0  0  0
    6.3300    0.6080   17.7820 N   0  0  0  0  0  0  0  0  0  0  0  0
    6.9860   -0.0900   18.7890 C   0  0  0  0  0  0  0  0  0  0  0  0
  2  1  1  1
  2  3  1  0
  2  4  1  0
  4  5  1  1
  5  6  1  0
  4  7  1  0
  7  8  1  0
  8  9  2  0
  8 10  1  0
 10 11  1  0
 11 12  2  0
 12 13  1  0
 13 14  2  0
 14 15  1  0
 11 16  1  0
 15 16  2  0
M  END
