pyridine_urea_8637
     RDKit          3D

 21 22  0  0  0  0  0  0  0  0999 V2000
   12.1710    1.0680   22.6760 N   0  0  0  0  0  0  0  0  0  0  0  0
   13.1300    0.1100   22.5910 C   0  0  0  0  0  0  0  0  0  0  0  0
   12.8680   -1.2570   21.9880 C   0  0  0  0  0  0  0  0  0  0  0  0
   11.5630   -1.7740   21.7720 C   0  0  0  0  0  0  0  0  0  0  0  0
   10.5300   -0.8580   22.0130 C   0  0  1  0  0  0  0  0  0  0  0  0
    9.1800   -1.3050   21.7400 N   0  0  0  0  0  0  0  0  0  0  0  0
    8.3600   -0.2690   21.4160 C   0  0  0  0  0  0  0  0  0  0  0  0
    8.7690    0.8850   21.3860 O   0  0  0  0  0  0  0  0  0  0  0  0
    7.0860   -0.6320   21.1010 N   0  0  0  0  0  0  0  0  0  0  0  0
    6.4200    0.0050   20.0640 C   0  0  0  0  0  0  0  0  0  0  0  0
    5.2280    0.6850   20.2870 C   0  0  0  0  0  0  0  0  0  0  0  0
    4.5420    1.3970   19.1380 C   0  0  0  0  0  0  0  0  0  0  0  0
    5.1570    1.3240   17.9160 C   0  0  0  0  0  0  0  0  0  0  0  0
    6.3050    0.6600   17.6900 N   0  0  0  0  0  0  0  0  0  0  0  0
    6.8840    0.0340   18.7530 C   0  0  0  0  0  0  0  0  0  0  0  0
   10.6150   -0.7040   23.4240 C   0  0  0  0  0  0  0  0  0  0  0  0
    9.9270   -0.5880   24.5470 C   0  0  0  0  0  0  0  0  0  0  0  0
   10.9320   -0.4960   25.6340 C   0  0  0  0  0  0  0  0  0  0  0  0
   12.4830   -0.5220   25.4640 C   0  0  0  0  0  0  0  0  0  0  0  0
   12.8220   -0.6330   24.2000 C   0  0  0  0  0  0  0  0  0  0  0  0
   11.6050   -0.6370   24.1140 C   0  0  0  0  0  0  0  0  0  0  0  0
  1  2  3  0
  2  3  1  0
  3  4  1  0
  5  4  1  1
  5  6  1  0
  6  7  1  0
  7  8  2  0
  7  9  1  0
  9 10  1  0
 10 11  2  0
 11 12  1  0
 12 13  2  0
 13 14  1  0
 10 15  1  0
 14 15  2  0
  5 16  1  0
 16 17  2  0
 17 18  1  0
 18 19  2  0
 19 20  1  0
 16 21  1  0
 20 21  2  0
M  END
