pyridine_urea_10056
     RDKit          3D

 23 25  0  0  0  0  0  0  0  0999 V2000
    9.0290    0.8740   21.4270 O   0  0  0  0  0  0  0  0  0  0  0  0
    8.3950   -0.1500   21.6400 C   0  0  0  0  0  0  0  0  0  0  0  0
    8.7750   -1.1590   22.4970 N   0  0  0  0  0  0  0  0  0  0  0  0
    8.0360   -2.3520   22.6730 C   0  0  0  0  0  0  0  0  0  0  0  0
    7.0010   -2.4620   23.6050 C   0  0  0  0  0  0  0  0  0  0  0  0
    6.0430   -3.3940   23.2900 N   0  0  0  0  0  0  0  0  0  0  0  0
    5.1610   -3.2890   22.1480 C   0  0  0  0  0  0  0  0  0  0  0  0
    4.3180   -4.4390   22.1610 N   0  0  0  0  0  0  0  0  0  0  0  0
    4.7260   -5.1470   23.2690 C   0  0  0  0  0  0  0  0  0  0  0  0
    5.7810   -4.5400   23.9880 C   0  0  0  0  0  0  0  0  0  0  0  0
    6.4990   -5.0280   25.2690 C   0  0  0  0  0  0  0  0  0  0  0  0
    6.0050   -5.0760   26.5610 C   0  0  0  0  0  0  0  0  0  0  0  0
    6.7370   -5.5470   27.6520 C   0  0  0  0  0  0  0  0  0  0  0  0
    8.0370   -5.9980   27.4400 C   0  0  0  0  0  0  0  0  0  0  0  0
    8.5950   -5.9730   26.1530 C   0  0  0  0  0  0  0  0  0  0  0  0
    7.8020   -5.4630   24.9940 C   0  0  0  0  0  0  0  0  0  0  0  0
    7.1840   -0.4970   21.0870 N   0  0  0  0  0  0  0  0  0  0  0  0
    6.5150    0.1230   20.0670 C   0  0  0  0  0  0  0  0  0  0  0  0
    5.3950    0.8920   20.3490 C   0  0  0  0  0  0  0  0  0  0  0  0
    4.7280    1.5200   19.3020 C   0  0  0  0  0  0  0  0  0  0  0  0
    5.1910    1.3690   18.0010 C   0  0  0  0  0  0  0  0  0  0  0  0
    6.2640    0.6380   17.6410 N   0  0  0  0  0  0  0  0  0  0  0  0
    6.9270    0.0000   18.7660 C   0  0  0  0  0  0  0  0  0  0  0  0
  1  2  2  0
  2  3  1  0
  3  4  1  0
  4  5  1  0
  5  6  1  0
  6  7  1  0
  7  8  2  0
  8  9  1  0
  6 10  1  0
  9 10  2  0
 10 11  1  0
 11 12  2  0
 12 13  1  0
 13 14  2  0
 14 15  1  0
 11 16  1  0
 15 16  2  0
  2 17  1  0
 17 18  1  0
 18 19  2  0
 19 20  1  0
 20 21  2  0
 21 22  1  0
 18 23  1  0
 22 23  2  0
M  END
