pyridine_urea_6475
     RDKit          3D

 23 24  0  0  0  0  0  0  0  0999 V2000
    3.1640   -2.9460   24.5180 N   0  0  0  0  0  0  0  0  0  0  0  0
    3.9510   -3.7900   24.4570 C   0  0  0  0  0  0  0  0  0  0  0  0
    3.3250   -4.6880   25.3670 O   0  0  0  0  0  0  0  0  0  0  0  0
    4.9440   -4.3760   24.1150 C   0  0  0  0  0  0  0  0  0  0  0  0
    5.6920   -5.6320   23.5450 C   0  0  0  0  0  0  0  0  0  0  0  0
    7.1550   -5.7190   23.3410 C   0  0  0  0  0  0  0  0  0  0  0  0
    7.8870   -4.6510   23.6680 C   0  0  0  0  0  0  0  0  0  0  0  0
    7.3900   -3.3630   24.2200 C   0  0  0  0  0  0  0  0  0  0  0  0
    5.9260   -3.3100   24.4060 C   0  0  0  0  0  0  0  0  0  0  0  0
    5.5620   -2.0060   24.9330 N   0  0  0  0  0  0  0  0  0  0  0  0
    6.3480   -0.8270   24.4890 C   0  0  0  0  0  0  0  0  0  0  0  0
    6.4790    0.2340   25.0870 O   0  0  0  0  0  0  0  0  0  0  0  0
    7.0320   -1.0000   23.1470 C   0  0  0  0  0  0  0  0  0  0  0  0
    8.2130   -0.3850   22.8550 N   0  0  0  0  0  0  0  0  0  0  0  0
    8.2220    0.1650   21.6110 C   0  0  0  0  0  0  0  0  0  0  0  0
    8.8480    1.2090   21.1620 O   0  0  0  0  0  0  0  0  0  0  0  0
    7.4240   -0.5480   20.7980 N   0  0  0  0  0  0  0  0  0  0  0  0
    6.6230    0.0970   19.9300 C   0  0  0  0  0  0  0  0  0  0  0  0
    5.4780    0.8010   20.2590 C   0  0  0  0  0  0  0  0  0  0  0  0
    4.4850    1.5800   19.3690 C   0  0  0  0  0  0  0  0  0  0  0  0
    5.1920    1.3080   18.0440 C   0  0  0  0  0  0  0  0  0  0  0  0
    6.2930    0.6270   17.7110 N   0  0  0  0  0  0  0  0  0  0  0  0
    6.9740    0.0420   18.6550 C   0  0  0  0  0  0  0  0  0  0  0  0
  1  2  1  0
  2  3  2  0
  2  4  1  0
  4  5  2  0
  5  6  1  0
  6  7  2  0
  7  8  1  0
  4  9  1  0
  8  9  2  0
  9 10  1  0
 10 11  1  0
 11 12  2  0
 11 13  1  0
 13 14  1  0
 14 15  1  0
 15 16  2  0
 15 17  1  0
 17 18  1  0
 18 19  2  0
 19 20  1  0
 20 21  2  0
 21 22  1  0
 18 23  1  0
 22 23  2  0
M  END
