pyridine_urea_7147
     RDKit          3D

 19 19  0  0  0  0  0  0  0  0999 V2000
   12.7810   -2.1740   21.5540 C   0  0  0  0  0  0  0  0  0  0  0  0
   12.2580   -1.5220   22.4500 O   0  0  0  0  0  0  0  0  0  0  0  0
   10.9510   -1.1610   22.2630 C   0  0  0  0  0  0  0  0  0  0  0  0
   10.4420   -0.9550   21.2070 O   0  0  0  0  0  0  0  0  0  0  0  0
   10.1740   -1.0440   23.3770 C   0  0  2  0  0  0  0  0  0  0  0  0
    8.7460   -1.1170   23.0130 N   0  0  0  0  0  0  0  0  0  0  0  0
    8.3100   -0.3960   21.7930 C   0  0  0  0  0  0  0  0  0  0  0  0
    9.0220    0.7670   21.3580 O   0  0  0  0  0  0  0  0  0  0  0  0
    7.1830   -0.9020   21.1500 N   0  0  0  0  0  0  0  0  0  0  0  0
    6.5180   -0.1370   20.0870 C   0  0  0  0  0  0  0  0  0  0  0  0
    5.3560    0.6190   20.3510 C   0  0  0  0  0  0  0  0  0  0  0  0
    4.6550    1.4310   19.2310 C   0  0  0  0  0  0  0  0  0  0  0  0
    5.2280    1.3740   17.9760 C   0  0  0  0  0  0  0  0  0  0  0  0
    6.3420    0.6290   17.7850 N   0  0  0  0  0  0  0  0  0  0  0  0
    7.0010   -0.1200   18.7660 C   0  0  0  0  0  0  0  0  0  0  0  0
   10.4840    0.1980   24.1040 C   0  0  0  0  0  0  0  0  0  0  0  0
   10.0540    1.3760   23.4900 C   0  0  0  0  0  0  0  0  0  0  0  0
    9.8300    0.0560   25.4750 C   0  0  0  0  0  0  0  0  0  0  0  0
   11.8830    0.3690   24.2360 C   0  0  0  0  0  0  0  0  0  0  0  0
  1  2  1  0
  2  3  1  0
  3  4  2  0
  3  5  1  0
  5  6  1  6
  6  7  1  0
  7  8  2  0
  7  9  1  0
  9 10  1  0
 10 11  2  0
 11 12  1  0
 12 13  2  0
 13 14  1  0
 10 15  1  0
 14 15  2  0
  5 16  1  0
 16 17  1  0
 16 18  1  0
 16 19  1  0
M  END
