pyridine_urea_2802
     RDKit          3D

 22 24  0  0  0  0  0  0  0  0999 V2000
    8.4780    0.9630   21.0680 O   0  0  0  0  0  0  0  0  0  0  0  0
    8.0410   -0.0540   21.5810 C   0  0  0  0  0  0  0  0  0  0  0  0
    6.9900   -0.7500   21.0440 N   0  0  0  0  0  0  0  0  0  0  0  0
    6.3430   -0.0290   19.9820 C   0  0  0  0  0  0  0  0  0  0  0  0
    5.0150    0.7390   20.2680 C   0  0  0  0  0  0  0  0  0  0  0  0
    4.4510    1.4300   19.2050 C   0  0  0  0  0  0  0  0  0  0  0  0
    5.1950    1.3680   17.8660 C   0  0  0  0  0  0  0  0  0  0  0  0
    6.3430    0.6770   17.6820 N   0  0  0  0  0  0  0  0  0  0  0  0
    6.8780    0.0080   18.7200 C   0  0  0  0  0  0  0  0  0  0  0  0
    8.4980   -0.6410   22.7160 N   0  0  0  0  0  0  0  0  0  0  0  0
    9.9040   -0.4380   22.9520 C   0  0  2  0  0  0  0  0  0  0  0  0
   10.2010    1.0440   23.0170 C   0  0  0  0  0  0  0  0  0  0  0  0
   11.7180    0.9440   22.9640 C   0  0  0  0  0  0  0  0  0  0  0  0
   11.8750   -0.4350   22.3900 C   0  0  1  0  0  0  0  0  0  0  0  0
   12.2920   -1.3320   23.3740 C   0  0  0  0  0  0  0  0  0  0  0  0
   11.3800   -2.4780   23.6700 C   0  0  0  0  0  0  0  0  0  0  0  0
   11.8570   -3.3410   24.5740 C   0  0  0  0  0  0  0  0  0  0  0  0
   13.0960   -3.0730   25.1010 C   0  0  0  0  0  0  0  0  0  0  0  0
   14.0020   -3.9120   26.1920 Cl  0  0  0  0  0  0  0  0  0  0  0  0
   13.8150   -2.0690   24.8180 C   0  0  0  0  0  0  0  0  0  0  0  0
   13.4390   -1.1550   23.9460 C   0  0  0  0  0  0  0  0  0  0  0  0
   10.6850   -1.0190   21.9770 C   0  0  0  0  0  0  0  0  0  0  0  0
  1  2  2  0
  2  3  1  0
  3  4  1  0
  4  5  2  0
  5  6  1  0
  6  7  2  0
  7  8  1  0
  4  9  1  0
  8  9  2  0
  2 10  1  0
 11 10  1  6
 11 12  1  0
 12 13  1  0
 13 14  1  0
 14 15  1  1
 15 16  2  0
 16 17  1  0
 17 18  2  0
 18 19  1  0
 18 20  1  0
 15 21  1  0
 20 21  2  0
 11 22  1  0
 14 22  1  0
M  END
