pyridine_urea_6786
     RDKit          3D

 21 22  0  0  0  0  0  0  0  0999 V2000
    8.9230    1.1680   21.1470 O   0  0  0  0  0  0  0  0  0  0  0  0
    8.6050   -0.0230   21.3030 C   0  0  0  0  0  0  0  0  0  0  0  0
    9.4280   -1.0270   21.7880 N   0  0  0  0  0  0  0  0  0  0  0  0
   10.7770   -0.9190   22.2160 C   0  0  0  0  0  0  0  0  0  0  0  0
   11.4640    0.4260   22.5780 C   0  0  1  0  0  0  0  0  0  0  0  0
   10.6530    1.3270   22.3590 O   0  0  0  0  0  0  0  0  0  0  0  0
   12.0150    0.3260   23.9420 C   0  0  0  0  0  0  0  0  0  0  0  0
   10.8460    0.0150   24.8210 C   0  0  0  0  0  0  0  0  0  0  0  0
   10.0780   -0.3080   25.9520 C   0  0  0  0  0  0  0  0  0  0  0  0
    8.5750   -0.4010   25.6720 C   0  0  0  0  0  0  0  0  0  0  0  0
    7.8670   -0.1750   24.3310 C   0  0  0  0  0  0  0  0  0  0  0  0
    6.1630   -0.2940   24.0910 Cl  0  0  0  0  0  0  0  0  0  0  0  0
    8.7980    0.1380   23.3740 C   0  0  0  0  0  0  0  0  0  0  0  0
    9.6210    0.0190   24.2560 C   0  0  0  0  0  0  0  0  0  0  0  0
    7.3610   -0.5290   20.9890 N   0  0  0  0  0  0  0  0  0  0  0  0
    6.5030    0.1080   20.0800 C   0  0  0  0  0  0  0  0  0  0  0  0
    5.2970    0.7810   20.4630 C   0  0  0  0  0  0  0  0  0  0  0  0
    4.6180    1.3890   19.2320 C   0  0  0  0  0  0  0  0  0  0  0  0
    5.1460    1.2660   17.9740 C   0  0  0  0  0  0  0  0  0  0  0  0
    6.2690    0.6110   17.7130 N   0  0  0  0  0  0  0  0  0  0  0  0
    6.9040    0.0590   18.7530 C   0  0  0  0  0  0  0  0  0  0  0  0
  1  2  2  0
  2  3  1  0
  3  4  1  0
  4  5  1  0
  5  6  1  1
  5  7  1  0
  7  8  1  0
  8  9  2  0
  9 10  1  0
 10 11  2  0
 11 12  1  0
 11 13  1  0
  8 14  1  0
 13 14  2  0
  2 15  1  0
 15 16  1  0
 16 17  2  0
 17 18  1  0
 18 19  2  0
 19 20  1  0
 16 21  1  0
 20 21  2  0
M  END
