pyridine_urea_4246
     RDKit          3D

 24 26  0  0  0  0  0  0  0  0999 V2000
    8.1700    1.0060   21.2510 O   0  0  0  0  0  0  0  0  0  0  0  0
    7.7200   -0.1130   21.4710 C   0  0  0  0  0  0  0  0  0  0  0  0
    8.3090   -1.0020   22.2630 N   0  0  0  0  0  0  0  0  0  0  0  0
    9.6690   -0.8970   22.0030 C   0  0  0  0  0  0  0  0  0  0  0  0
   10.2740    0.1570   22.8560 C   0  0  0  0  0  0  0  0  0  0  0  0
   11.2840    0.6210   24.0100 C   0  0  0  0  0  0  0  0  0  0  0  0
   12.2720   -0.2080   24.8780 C   0  0  0  0  0  0  0  0  0  0  0  0
   12.3400   -1.5920   24.6520 C   0  0  0  0  0  0  0  0  0  0  0  0
   13.0550   -2.3520   25.1520 O   0  0  0  0  0  0  0  0  0  0  0  0
   13.2350   -2.0110   23.8910 C   0  0  0  0  0  0  0  0  0  0  0  0
   13.2390   -2.8080   22.8430 C   0  0  0  0  0  0  0  0  0  0  0  0
   13.3740   -2.3830   21.5620 C   0  0  0  0  0  0  0  0  0  0  0  0
   13.5290   -1.0760   21.3630 C   0  0  0  0  0  0  0  0  0  0  0  0
   13.5200   -0.1750   22.4200 C   0  0  0  0  0  0  0  0  0  0  0  0
   13.3690   -0.6570   23.6800 C   0  0  0  0  0  0  0  0  0  0  0  0
   11.4010   -1.7300   23.6480 C   0  0  0  0  0  0  0  0  0  0  0  0
   10.5680   -1.1910   22.9000 N   0  0  0  0  0  0  0  0  0  0  0  0
    6.5930   -0.6020   20.9160 N   0  0  0  0  0  0  0  0  0  0  0  0
    6.0720    0.0780   19.9230 C   0  0  0  0  0  0  0  0  0  0  0  0
    4.8340    0.8670   19.9710 C   0  0  0  0  0  0  0  0  0  0  0  0
    4.3770    1.5680   18.8870 C   0  0  0  0  0  0  0  0  0  0  0  0
    5.1550    1.4850   17.7450 C   0  0  0  0  0  0  0  0  0  0  0  0
    6.3000    0.7630   17.6480 N   0  0  0  0  0  0  0  0  0  0  0  0
    6.7320    0.0830   18.7230 C   0  0  0  0  0  0  0  0  0  0  0  0
  1  2  2  0
  2  3  1  0
  3  4  1  0
  4  5  1  0
  5  6  2  0
  6  7  1  0
  7  8  2  0
  8  9  1  0
  9 10  1  0
 10 11  2  0
 11 12  1  0
 12 13  2  0
 13 14  1  0
 10 15  1  0
 14 15  2  0
  8 16  1  0
  5 17  1  0
 16 17  2  0
  2 18  1  0
 18 19  1  0
 19 20  2  0
 20 21  1  0
 21 22  2  0
 22 23  1  0
 19 24  1  0
 23 24  2  0
M  END
