pyridine_urea_14527
     RDKit          3D

 23 25  0  0  0  0  0  0  0  0999 V2000
    7.9710    0.2820   21.3010 O   0  0  0  0  0  0  0  0  0  0  0  0
    7.3270   -0.7750   21.3120 C   0  0  0  0  0  0  0  0  0  0  0  0
    7.7400   -1.9970   21.7650 N   0  0  0  0  0  0  0  0  0  0  0  0
    9.0740   -2.1370   21.8320 C   0  0  0  0  0  0  0  0  0  0  0  0
    9.5870   -0.9240   21.7630 C   0  0  2  0  0  0  0  0  0  0  0  0
   10.9430   -0.9660   21.8150 C   0  0  0  0  0  0  0  0  0  0  0  0
   11.1750   -1.5590   22.8930 C   0  0  0  0  0  0  0  0  0  0  0  0
   10.0500   -1.2780   23.7200 C   0  0  0  0  0  0  0  0  0  0  0  0
    9.0660   -0.3720   23.0800 C   0  0  2  0  0  0  0  0  0  0  0  0
    7.7350   -0.5960   23.7200 N   0  0  0  0  0  0  0  0  0  0  0  0
    6.9300    0.6410   23.7030 C   0  0  0  0  0  0  0  0  0  0  0  0
    6.6470    1.0830   25.0060 C   0  0  0  0  0  0  0  0  0  0  0  0
    7.0740    0.2070   25.9900 C   0  0  0  0  0  0  0  0  0  0  0  0
    7.8730   -1.2280   25.3350 S   0  0  0  0  0  0  0  0  0  0  0  0
    9.2230   -1.2220   25.8430 O   0  0  0  0  0  0  0  0  0  0  0  0
    6.9540   -2.3350   25.5310 O   0  0  0  0  0  0  0  0  0  0  0  0
    6.0860   -0.8740   20.8210 N   0  0  0  0  0  0  0  0  0  0  0  0
    5.7860   -0.0360   19.7320 C   0  0  0  0  0  0  0  0  0  0  0  0
    4.6130    0.8640   19.8750 C   0  0  0  0  0  0  0  0  0  0  0  0
    4.3500    1.6920   18.7860 C   0  0  0  0  0  0  0  0  0  0  0  0
    5.1440    1.6580   17.6530 C   0  0  0  0  0  0  0  0  0  0  0  0
    6.2030    0.8160   17.5660 N   0  0  0  0  0  0  0  0  0  0  0  0
    6.5480   -0.0360   18.5860 C   0  0  0  0  0  0  0  0  0  0  0  0
  1  2  2  0
  2  3  1  0
  3  4  1  0
  5  4  1  1
  5  6  1  0
  6  7  1  0
  7  8  1  0
  5  9  1  0
  8  9  1  0
  9 10  1  1
 10 11  1  0
 11 12  1  0
 12 13  1  0
 14 10  1  0
 13 14  1  0
 14 15  2  0
 14 16  2  0
  2 17  1  0
 17 18  1  0
 18 19  2  0
 19 20  1  0
 20 21  2  0
 21 22  1  0
 18 23  1  0
 22 23  2  0
M  END
