pyridine_urea_9846
     RDKit          3D

 25 27  0  0  0  0  0  0  0  0999 V2000
    8.8010    1.2350   21.0840 O   0  0  0  0  0  0  0  0  0  0  0  0
    8.5290    0.0990   21.5010 C   0  0  0  0  0  0  0  0  0  0  0  0
    7.4170   -0.6190   21.0900 N   0  0  0  0  0  0  0  0  0  0  0  0
    6.6360    0.0240   20.0630 C   0  0  0  0  0  0  0  0  0  0  0  0
    5.3780    0.7850   20.4820 C   0  0  0  0  0  0  0  0  0  0  0  0
    4.5740    1.4780   19.3800 C   0  0  0  0  0  0  0  0  0  0  0  0
    5.1340    1.3300   17.9660 C   0  0  0  0  0  0  0  0  0  0  0  0
    6.2980    0.5910   17.7500 N   0  0  0  0  0  0  0  0  0  0  0  0
    7.0030   -0.0260   18.7390 C   0  0  0  0  0  0  0  0  0  0  0  0
    9.3270   -0.5620   22.4260 N   0  0  0  0  0  0  0  0  0  0  0  0
   10.2380    0.2630   23.1310 C   0  0  0  0  0  0  0  0  0  0  0  0
   10.0350    1.6310   23.3710 C   0  0  0  0  0  0  0  0  0  0  0  0
   10.9320    2.6280   22.9040 C   0  0  0  0  0  0  0  0  0  0  0  0
   10.6930    3.9780   23.1630 C   0  0  0  0  0  0  0  0  0  0  0  0
    9.5630    4.3120   23.8860 C   0  0  0  0  0  0  0  0  0  0  0  0
    9.3750    5.5090   24.0990 O   0  0  0  0  0  0  0  0  0  0  0  0
   10.4220    6.4000   24.0390 C   0  0  0  0  0  0  0  0  0  0  0  0
   10.6570    6.8300   22.7770 F   0  0  0  0  0  0  0  0  0  0  0  0
   10.2080    7.4950   24.8200 F   0  0  0  0  0  0  0  0  0  0  0  0
   11.5680    5.8240   24.4850 F   0  0  0  0  0  0  0  0  0  0  0  0
    8.5960    3.3050   24.4000 C   0  0  0  0  0  0  0  0  0  0  0  0
    8.8750    1.9750   24.1170 C   0  0  0  0  0  0  0  0  0  0  0  0
   11.7510   -0.0200   22.8510 C   0  0  0  0  0  0  0  0  0  0  0  0
   12.0050   -0.4140   24.1420 C   0  0  0  0  0  0  0  0  0  0  0  0
   10.6790   -0.4050   24.4670 C   0  0  0  0  0  0  0  0  0  0  0  0
  1  2  2  0
  2  3  1  0
  3  4  1  0
  4  5  2  0
  5  6  1  0
  6  7  2  0
  7  8  1  0
  4  9  1  0
  8  9  2  0
  2 10  1  0
 11 10  1  0
 11 12  1  0
 12 13  2  0
 13 14  1  0
 14 15  2  0
 15 16  1  0
 16 17  1  0
 17 18  1  0
 17 19  1  0
 17 20  1  0
 15 21  1  0
 12 22  1  0
 21 22  2  0
 11 23  1  0
 23 24  1  0
 11 25  1  0
 24 25  1  0
M  END
