pyridine_urea_9949
     RDKit          3D

 24 26  0  0  0  0  0  0  0  0999 V2000
   13.2690   -2.6010   24.4770 C   0  0  0  0  0  0  0  0  0  0  0  0
   13.3810   -1.2370   24.6950 N   0  0  0  0  0  0  0  0  0  0  0  0
   12.5370   -0.4330   25.3880 C   0  0  0  0  0  0  0  0  0  0  0  0
   11.1580   -0.4220   25.3820 C   0  0  0  0  0  0  0  0  0  0  0  0
   10.8180    0.6170   24.5510 N   0  0  0  0  0  0  0  0  0  0  0  0
    9.5880    1.4150   24.6690 C   0  0  0  0  0  0  0  0  0  0  0  0
   11.0150   -0.2280   23.4890 C   0  0  0  0  0  0  0  0  0  0  0  0
    9.8870   -0.5660   22.9600 C   0  0  0  0  0  0  0  0  0  0  0  0
    9.8570   -1.5210   21.8600 C   0  0  0  0  0  0  0  0  0  0  0  0
    8.6380   -1.7650   21.4070 N   0  0  0  0  0  0  0  0  0  0  0  0
    7.8630   -0.6530   21.1310 C   0  0  0  0  0  0  0  0  0  0  0  0
    8.2840    0.5070   21.0840 O   0  0  0  0  0  0  0  0  0  0  0  0
    6.5650   -0.8710   20.9090 N   0  0  0  0  0  0  0  0  0  0  0  0
    6.0390   -0.0770   19.9780 C   0  0  0  0  0  0  0  0  0  0  0  0
    4.8810    0.6690   20.1360 C   0  0  0  0  0  0  0  0  0  0  0  0
    4.4600    1.4480   19.0880 C   0  0  0  0  0  0  0  0  0  0  0  0
    5.2430    1.4570   17.8540 C   0  0  0  0  0  0  0  0  0  0  0  0
    6.3700    0.7440   17.6600 N   0  0  0  0  0  0  0  0  0  0  0  0
    6.7080    0.0110   18.7460 C   0  0  0  0  0  0  0  0  0  0  0  0
   11.0760   -2.0320   21.4380 C   0  0  0  0  0  0  0  0  0  0  0  0
   12.2380   -1.6480   21.9820 C   0  0  0  0  0  0  0  0  0  0  0  0
   12.1950   -0.7700   22.9770 C   0  0  0  0  0  0  0  0  0  0  0  0
   13.3250   -0.4690   23.4740 C   0  0  0  0  0  0  0  0  0  0  0  0
   14.0360    0.3250   22.9100 O   0  0  0  0  0  0  0  0  0  0  0  0
  1  2  1  0
  2  3  1  0
  3  4  1  0
  4  5  1  0
  5  6  1  0
  5  7  1  0
  7  8  2  0
  8  9  1  0
  9 10  1  0
 10 11  1  0
 11 12  2  0
 11 13  1  0
 13 14  1  0
 14 15  2  0
 15 16  1  0
 16 17  2  0
 17 18  1  0
 14 19  1  0
 18 19  2  0
  9 20  2  0
 20 21  1  0
  7 22  1  0
 21 22  2  0
  2 23  1  0
 22 23  1  0
 23 24  2  0
M  END
