pyridine_urea_6353
     RDKit          3D

 23 25  0  0  0  0  0  0  0  0999 V2000
   10.8360    0.6380   23.7800 C   0  0  0  0  0  0  0  0  0  0  0  0
   11.9420    0.6090   23.3430 C   0  0  0  0  0  0  0  0  0  0  0  0
   13.2830    1.0160   23.0110 C   0  0  0  0  0  0  0  0  0  0  0  0
   12.6920   -0.2440   22.6680 C   0  0  0  0  0  0  0  0  0  0  0  0
   11.3170   -0.5580   23.0180 C   0  0  0  0  0  0  0  0  0  0  0  0
   10.0070   -0.0360   23.7030 C   0  0  0  0  0  0  0  0  0  0  0  0
    8.7880   -0.4220   22.9350 N   0  0  0  0  0  0  0  0  0  0  0  0
    8.3490    0.2120   21.7860 C   0  0  0  0  0  0  0  0  0  0  0  0
    8.8060    1.4080   21.1210 O   0  0  0  0  0  0  0  0  0  0  0  0
    7.2050   -0.4460   21.1670 N   0  0  0  0  0  0  0  0  0  0  0  0
    6.5610    0.1540   20.0090 C   0  0  0  0  0  0  0  0  0  0  0  0
    5.3250    0.9570   20.3060 C   0  0  0  0  0  0  0  0  0  0  0  0
    4.6770    1.5670   19.2380 C   0  0  0  0  0  0  0  0  0  0  0  0
    5.1400    1.4530   17.9310 C   0  0  0  0  0  0  0  0  0  0  0  0
    6.3250    0.6660   17.6680 N   0  0  0  0  0  0  0  0  0  0  0  0
    6.9670    0.0630   18.7060 C   0  0  0  0  0  0  0  0  0  0  0  0
   11.3400   -1.7940   22.4770 C   0  0  0  0  0  0  0  0  0  0  0  0
   10.0830   -2.0560   22.8130 N   0  0  0  0  0  0  0  0  0  0  0  0
    9.8440   -2.7570   23.9180 C   0  0  0  0  0  0  0  0  0  0  0  0
    8.5060   -3.3670   23.7620 C   0  0  0  0  0  0  0  0  0  0  0  0
    8.0610   -3.0370   22.4930 C   0  0  0  0  0  0  0  0  0  0  0  0
    9.1220   -2.4390   21.7680 C   0  0  0  0  0  0  0  0  0  0  0  0
   12.2830   -0.6860   22.6300 N   0  0  0  0  0  0  0  0  0  0  0  0
  1  2  1  0
  2  3  2  0
  3  4  1  0
  4  5  2  0
  5  6  1  0
  6  7  1  0
  7  8  1  0
  8  9  2  0
  8 10  1  0
 10 11  1  0
 11 12  2  0
 12 13  1  0
 13 14  2  0
 14 15  1  0
 11 16  1  0
 15 16  2  0
  5 17  1  0
 17 18  1  0
 18 19  1  0
 19 20  1  0
 20 21  1  0
 18 22  1  0
 21 22  1  0
  2 23  1  0
 17 23  2  0
M  END
