pyridine_urea_11950
     RDKit          3D

 24 25  0  0  0  0  0  0  0  0999 V2000
    7.4440    1.4640   25.5620 C   0  0  0  0  0  0  0  0  0  0  0  0
    8.6740    1.3180   24.6700 C   0  0  0  0  0  0  0  0  0  0  0  0
    8.6370    0.0470   23.9930 O   0  0  0  0  0  0  0  0  0  0  0  0
    9.3530   -0.9280   24.6190 C   0  0  0  0  0  0  0  0  0  0  0  0
    8.6870   -0.3950   25.7660 O   0  0  0  0  0  0  0  0  0  0  0  0
    9.6390   -0.9760   23.2590 C   0  0  1  0  0  0  0  0  0  0  0  0
   10.7010   -1.7570   22.8900 C   0  0  0  0  0  0  0  0  0  0  0  0
   11.7740   -0.9700   22.7890 C   0  0  0  0  0  0  0  0  0  0  0  0
   13.0000   -1.0200   22.3470 C   0  0  0  0  0  0  0  0  0  0  0  0
   13.4350    0.4560   22.6720 C   0  0  0  0  0  0  0  0  0  0  0  0
   12.5440    1.4800   23.3190 C   0  0  0  0  0  0  0  0  0  0  0  0
   11.1970    1.1930   23.7210 C   0  0  0  0  0  0  0  0  0  0  0  0
   11.9070    0.2760   23.1610 C   0  0  0  0  0  0  0  0  0  0  0  0
   13.3710    0.9940   22.8700 Cl  0  0  0  0  0  0  0  0  0  0  0  0
    8.4470   -1.3220   22.5060 N   0  0  0  0  0  0  0  0  0  0  0  0
    8.0800   -0.4110   21.5460 C   0  0  0  0  0  0  0  0  0  0  0  0
    8.7400    0.5860   21.2800 O   0  0  0  0  0  0  0  0  0  0  0  0
    6.8970   -0.7710   20.9690 N   0  0  0  0  0  0  0  0  0  0  0  0
    6.3130   -0.0480   19.9370 C   0  0  0  0  0  0  0  0  0  0  0  0
    5.1180    0.6300   20.1660 C   0  0  0  0  0  0  0  0  0  0  0  0
    4.5520    1.3590   19.1240 C   0  0  0  0  0  0  0  0  0  0  0  0
    5.1900    1.3920   17.8930 C   0  0  0  0  0  0  0  0  0  0  0  0
    6.3380    0.7360   17.6660 N   0  0  0  0  0  0  0  0  0  0  0  0
    6.8670    0.0370   18.6830 C   0  0  0  0  0  0  0  0  0  0  0  0
  1  2  1  0
  2  3  1  0
  3  4  1  0
  4  5  2  0
  4  6  1  0
  6  7  1  1
  7  8  1  0
  8  9  2  0
  9 10  1  0
 10 11  2  0
 11 12  1  0
  8 13  1  0
 12 13  2  0
 13 14  1  0
  6 15  1  0
 15 16  1  0
 16 17  2  0
 16 18  1  0
 18 19  1  0
 19 20  2  0
 20 21  1  0
 21 22  2  0
 22 23  1  0
 19 24  1  0
 23 24  2  0
M  END
