pyridine_urea_408
     RDKit          3D

 30 32  0  0  0  0  0  0  0  0999 V2000
    8.8310    0.6770   26.3050 C   0  0  0  0  0  0  0  0  0  0  0  0
    9.1370    0.7530   25.1070 O   0  0  0  0  0  0  0  0  0  0  0  0
   10.4680    0.6220   24.7820 C   0  0  0  0  0  0  0  0  0  0  0  0
   11.2680    0.2160   23.8470 C   0  0  0  0  0  0  0  0  0  0  0  0
   11.3780   -0.3350   22.6110 C   0  0  0  0  0  0  0  0  0  0  0  0
   10.3270   -0.6890   21.8780 C   0  0  0  0  0  0  0  0  0  0  0  0
    9.9390   -1.9760   22.0470 C   0  0  0  0  0  0  0  0  0  0  0  0
    8.5110   -1.8900   21.8620 N   0  0  0  0  0  0  0  0  0  0  0  0
    7.9460   -0.7370   21.3400 C   0  0  0  0  0  0  0  0  0  0  0  0
    8.6120    0.4520   21.1210 O   0  0  0  0  0  0  0  0  0  0  0  0
    6.5260   -0.9550   21.0700 N   0  0  0  0  0  0  0  0  0  0  0  0
    6.1200   -0.1560   19.9440 C   0  0  0  0  0  0  0  0  0  0  0  0
    4.9530    0.5970   20.1020 C   0  0  0  0  0  0  0  0  0  0  0  0
    4.4950    1.3980   19.0600 C   0  0  0  0  0  0  0  0  0  0  0  0
    5.2070    1.4430   17.8670 C   0  0  0  0  0  0  0  0  0  0  0  0
    6.3340    0.7470   17.6470 N   0  0  0  0  0  0  0  0  0  0  0  0
    6.7930   -0.0840   18.7480 C   0  0  0  0  0  0  0  0  0  0  0  0
   12.5900   -0.3920   22.4680 C   0  0  0  0  0  0  0  0  0  0  0  0
   11.7770    0.0690   23.5880 C   0  0  0  0  0  0  0  0  0  0  0  0
   12.4330    0.4180   24.6710 O   0  0  0  0  0  0  0  0  0  0  0  0
   13.0890   -0.8090   24.9540 C   0  0  0  0  0  0  0  0  0  0  0  0
   10.1900    0.1250   23.5780 C   0  0  0  0  0  0  0  0  0  0  0  0
    8.9350    0.3760   24.1070 O   0  0  0  0  0  0  0  0  0  0  0  0
    7.7850   -0.3700   23.6710 C   0  0  0  0  0  0  0  0  0  0  0  0
    6.9600   -0.4360   24.7880 C   0  0  0  0  0  0  0  0  0  0  0  0
    6.5210    0.7460   25.4100 C   0  0  0  0  0  0  0  0  0  0  0  0
    5.6900    0.7190   26.5420 C   0  0  0  0  0  0  0  0  0  0  0  0
    5.2800   -0.5160   27.0760 C   0  0  0  0  0  0  0  0  0  0  0  0
    5.7450   -1.7740   26.4150 C   0  0  0  0  0  0  0  0  0  0  0  0
    6.5660   -1.6890   25.2970 C   0  0  0  0  0  0  0  0  0  0  0  0
  1  2  1  0
  2  3  1  0
  3  4  2  0
  4  5  1  0
  5  6  1  0
  6  7  1  0
  7  8  1  0
  8  9  1  0
  9 10  2  0
  9 11  1  0
 11 12  1  0
 12 13  2  0
 13 14  1  0
 14 15  2  0
 15 16  1  0
 12 17  1  0
 16 17  2  0
  5 18  2  0
 18 19  1  0
 19 20  1  0
 20 21  1  0
  3 22  1  0
 19 22  2  0
 22 23  1  0
 23 24  1  0
 24 25  1  0
 25 26  2  0
 26 27  1  0
 27 28  2  0
 28 29  1  0
 25 30  1  0
 29 30  2  0
M  END
