pyridine_urea_1458
     RDKit          3D

 19 19  0  0  0  0  0  0  0  0999 V2000
    8.0240   -2.8820   26.1150 C   0  0  0  0  0  0  0  0  0  0  0  0
    8.4750   -3.6790   25.0900 N   0  0  0  0  0  0  0  0  0  0  0  0
    9.0570   -4.9690   25.4290 C   0  0  0  0  0  0  0  0  0  0  0  0
    9.0110   -2.9110   24.0680 C   0  0  0  0  0  0  0  0  0  0  0  0
    8.0690   -2.4450   23.1540 C   0  0  2  0  0  0  0  0  0  0  0  0
    8.6300   -1.2280   22.7720 N   0  0  0  0  0  0  0  0  0  0  0  0
    8.2600   -0.3610   21.7140 C   0  0  0  0  0  0  0  0  0  0  0  0
    8.9080    0.6220   21.3760 O   0  0  0  0  0  0  0  0  0  0  0  0
    7.0790   -0.7600   21.1410 N   0  0  0  0  0  0  0  0  0  0  0  0
    6.5120   -0.0710   20.0060 C   0  0  0  0  0  0  0  0  0  0  0  0
    5.3660    0.6820   20.2770 C   0  0  0  0  0  0  0  0  0  0  0  0
    4.7160    1.4120   19.2680 C   0  0  0  0  0  0  0  0  0  0  0  0
    5.1800    1.4200   17.9710 C   0  0  0  0  0  0  0  0  0  0  0  0
    6.3530    0.6390   17.7050 N   0  0  0  0  0  0  0  0  0  0  0  0
    6.9790   -0.0800   18.7180 C   0  0  0  0  0  0  0  0  0  0  0  0
    6.7120   -2.4470   23.5580 C   0  0  0  0  0  0  0  0  0  0  0  0
    6.4790   -1.4300   24.4010 F   0  0  0  0  0  0  0  0  0  0  0  0
    5.8470   -2.3000   22.5260 F   0  0  0  0  0  0  0  0  0  0  0  0
    6.3700   -3.6150   24.1520 F   0  0  0  0  0  0  0  0  0  0  0  0
  1  2  1  0
  2  3  1  0
  2  4  1  0
  5  4  1  1
  5  6  1  0
  6  7  1  0
  7  8  2  0
  7  9  1  0
  9 10  1  0
 10 11  2  0
 11 12  1  0
 12 13  2  0
 13 14  1  0
 10 15  1  0
 14 15  2  0
  5 16  1  0
 16 17  1  0
 16 18  1  0
 16 19  1  0
M  END
