pyridine_urea_4690
     RDKit          3D

 22 24  0  0  0  0  0  0  0  0999 V2000
    8.7460    1.2520   21.0830 O   0  0  0  0  0  0  0  0  0  0  0  0
    8.5480    0.1100   21.5220 C   0  0  0  0  0  0  0  0  0  0  0  0
    7.4250   -0.5940   21.1510 N   0  0  0  0  0  0  0  0  0  0  0  0
    6.7060   -0.0310   20.0290 C   0  0  0  0  0  0  0  0  0  0  0  0
    5.4660    0.8130   20.3780 C   0  0  0  0  0  0  0  0  0  0  0  0
    4.7110    1.4190   19.3750 C   0  0  0  0  0  0  0  0  0  0  0  0
    5.1250    1.2310   18.0610 C   0  0  0  0  0  0  0  0  0  0  0  0
    6.2310    0.4650   17.7840 N   0  0  0  0  0  0  0  0  0  0  0  0
    7.0350   -0.1760   18.7380 C   0  0  0  0  0  0  0  0  0  0  0  0
    9.4070   -0.5460   22.3870 N   0  0  0  0  0  0  0  0  0  0  0  0
   10.3840   -1.0370   23.2140 C   0  0  0  0  0  0  0  0  0  0  0  0
   10.0640   -2.0510   24.1420 C   0  0  0  0  0  0  0  0  0  0  0  0
   11.0540   -2.8550   24.7440 C   0  0  0  0  0  0  0  0  0  0  0  0
   12.3310   -2.6240   24.4090 F   0  0  0  0  0  0  0  0  0  0  0  0
   10.7830   -3.8800   25.6660 C   0  0  0  0  0  0  0  0  0  0  0  0
    9.4680   -4.1610   26.0470 C   0  0  0  0  0  0  0  0  0  0  0  0
    8.3730   -3.3410   25.4470 C   0  0  0  0  0  0  0  0  0  0  0  0
    8.5910   -2.3280   24.5380 C   0  0  0  0  0  0  0  0  0  0  0  0
    7.5680   -1.6270   24.0330 F   0  0  0  0  0  0  0  0  0  0  0  0
   11.4150   -0.2220   23.8410 C   0  0  0  0  0  0  0  0  0  0  0  0
   12.4920   -0.4810   23.0390 C   0  0  0  0  0  0  0  0  0  0  0  0
   11.6130   -1.4470   22.3810 C   0  0  0  0  0  0  0  0  0  0  0  0
  1  2  2  0
  2  3  1  0
  3  4  1  0
  4  5  2  0
  5  6  1  0
  6  7  2  0
  7  8  1  0
  4  9  1  0
  8  9  2  0
  2 10  1  0
 11 10  1  0
 11 12  1  0
 12 13  2  0
 13 14  1  0
 13 15  1  0
 15 16  2  0
 16 17  1  0
 12 18  1  0
 17 18  2  0
 18 19  1  0
 11 20  1  0
 20 21  1  0
 11 22  1  0
 21 22  1  0
M  END
