pyridine_urea_12724
     RDKit          3D

 20 22  0  0  0  0  0  0  0  0999 V2000
    7.5340   -0.3750   26.5360 C   0  0  0  0  0  0  0  0  0  0  0  0
    8.7460   -0.4330   25.5790 C   0  0  0  0  0  0  0  0  0  0  0  0
    8.7000   -1.2220   24.4070 N   0  0  0  0  0  0  0  0  0  0  0  0
    9.9500   -0.9740   23.8990 C   0  0  0  0  0  0  0  0  0  0  0  0
   10.7420   -0.1150   24.6500 C   0  0  0  0  0  0  0  0  0  0  0  0
    9.8950    0.2010   25.7370 N   0  0  0  0  0  0  0  0  0  0  0  0
   12.0430    0.1890   24.1970 C   0  0  0  0  0  0  0  0  0  0  0  0
   12.4180   -0.7310   23.1990 C   0  0  0  0  0  0  0  0  0  0  0  0
   11.4110   -0.8910   22.2450 C   0  0  0  0  0  0  0  0  0  0  0  0
   10.3210   -1.5780   22.7260 C   0  0  2  0  0  0  0  0  0  0  0  0
    9.1680   -1.5810   22.0020 N   0  0  0  0  0  0  0  0  0  0  0  0
    8.5730   -0.4290   21.5560 C   0  0  0  0  0  0  0  0  0  0  0  0
    9.1440    0.6480   21.4840 O   0  0  0  0  0  0  0  0  0  0  0  0
    7.1930   -0.7000   21.1770 N   0  0  0  0  0  0  0  0  0  0  0  0
    6.5350   -0.0290   20.1240 C   0  0  0  0  0  0  0  0  0  0  0  0
    5.3630    0.6990   20.3780 C   0  0  0  0  0  0  0  0  0  0  0  0
    4.7250    1.3850   19.2310 C   0  0  0  0  0  0  0  0  0  0  0  0
    5.2220    1.3400   17.9680 C   0  0  0  0  0  0  0  0  0  0  0  0
    6.3490    0.6300   17.7430 N   0  0  0  0  0  0  0  0  0  0  0  0
    6.9600   -0.0200   18.7890 C   0  0  0  0  0  0  0  0  0  0  0  0
  1  2  1  0
  2  3  2  0
  3  4  1  0
  4  5  2  0
  2  6  1  0
  5  6  1  0
  5  7  1  0
  7  8  1  0
  8  9  1  0
  4 10  1  0
  9 10  1  0
 10 11  1  6
 11 12  1  0
 12 13  2  0
 12 14  1  0
 14 15  1  0
 15 16  2  0
 16 17  1  0
 17 18  2  0
 18 19  1  0
 15 20  1  0
 19 20  2  0
M  END
