pyridine_urea_4965
     RDKit          3D

 21 22  0  0  0  0  0  0  0  0999 V2000
    3.0260   -7.7580   24.6440 N   0  0  0  0  0  0  0  0  0  0  0  0
    3.8850   -7.0100   24.4290 C   0  0  0  0  0  0  0  0  0  0  0  0
    5.0390   -6.0160   24.1470 C   0  0  0  0  0  0  0  0  0  0  0  0
    5.8810   -6.3600   22.9120 C   0  0  0  0  0  0  0  0  0  0  0  0
    6.9380   -5.5250   22.5890 C   0  0  0  0  0  0  0  0  0  0  0  0
    7.2120   -4.4010   23.3770 C   0  0  0  0  0  0  0  0  0  0  0  0
    8.2570   -3.5610   23.0670 N   0  0  0  0  0  0  0  0  0  0  0  0
    8.7030   -2.4640   23.8280 C   0  0  0  0  0  0  0  0  0  0  0  0
    8.3440   -1.1950   23.3860 C   0  0  0  0  0  0  0  0  0  0  0  0
    9.0280   -0.7580   22.3130 N   0  0  0  0  0  0  0  0  0  0  0  0
    8.3430    0.0120   21.4200 C   0  0  0  0  0  0  0  0  0  0  0  0
    8.7340    1.1410   21.0640 O   0  0  0  0  0  0  0  0  0  0  0  0
    7.2490   -0.6370   21.0480 N   0  0  0  0  0  0  0  0  0  0  0  0
    6.5230    0.0470   20.0860 C   0  0  0  0  0  0  0  0  0  0  0  0
    5.3700    0.7860   20.4010 C   0  0  0  0  0  0  0  0  0  0  0  0
    4.6840    1.4580   19.3740 C   0  0  0  0  0  0  0  0  0  0  0  0
    5.2360    1.3390   17.9930 C   0  0  0  0  0  0  0  0  0  0  0  0
    6.3330    0.6290   17.7090 N   0  0  0  0  0  0  0  0  0  0  0  0
    6.9480   -0.0010   18.7680 C   0  0  0  0  0  0  0  0  0  0  0  0
    6.4140   -4.1270   24.4940 N   0  0  0  0  0  0  0  0  0  0  0  0
    5.3630   -4.8880   24.8860 C   0  0  0  0  0  0  0  0  0  0  0  0
  1  2  3  0
  2  3  1  0
  3  4  2  0
  4  5  1  0
  5  6  2  0
  6  7  1  0
  7  8  1  0
  8  9  1  0
  9 10  1  0
 10 11  1  0
 11 12  2  0
 11 13  1  0
 13 14  1  0
 14 15  2  0
 15 16  1  0
 16 17  2  0
 17 18  1  0
 14 19  1  0
 18 19  2  0
  6 20  1  0
  3 21  1  0
 20 21  2  0
M  END
