pyridine_urea_2373
     RDKit          3D

 24 24  0  0  0  0  0  0  0  0999 V2000
   13.4320    0.1120   22.5940 C   0  0  0  0  0  0  0  0  0  0  0  0
   12.6430   -0.6910   23.5770 C   0  0  0  0  0  0  0  0  0  0  0  0
   13.2210   -1.4050   24.6240 C   0  0  0  0  0  0  0  0  0  0  0  0
   11.7090    0.3190   24.1940 C   0  0  0  0  0  0  0  0  0  0  0  0
   11.9660   -1.7600   22.7560 C   0  0  0  0  0  0  0  0  0  0  0  0
   10.6490   -1.8480   23.0720 C   0  0  0  0  0  0  0  0  0  0  0  0
    9.9120   -0.7380   22.7550 C   0  0  1  0  0  0  0  0  0  0  0  0
    8.8710   -1.2390   21.9010 N   0  0  0  0  0  0  0  0  0  0  0  0
    8.1390   -0.2500   21.3600 C   0  0  0  0  0  0  0  0  0  0  0  0
    8.6020    0.8730   21.1920 O   0  0  0  0  0  0  0  0  0  0  0  0
    6.8850   -0.6470   21.0380 N   0  0  0  0  0  0  0  0  0  0  0  0
    6.2660    0.0300   20.0080 C   0  0  0  0  0  0  0  0  0  0  0  0
    5.0490    0.6950   20.1590 C   0  0  0  0  0  0  0  0  0  0  0  0
    4.4820    1.3850   19.0890 C   0  0  0  0  0  0  0  0  0  0  0  0
    5.1300    1.4150   17.8600 C   0  0  0  0  0  0  0  0  0  0  0  0
    6.2930    0.8020   17.6190 N   0  0  0  0  0  0  0  0  0  0  0  0
    6.8520    0.1350   18.6250 C   0  0  0  0  0  0  0  0  0  0  0  0
    9.3030    0.1040   23.9140 C   0  0  0  0  0  0  0  0  0  0  0  0
    8.7710    1.3300   23.6810 O   0  0  0  0  0  0  0  0  0  0  0  0
    9.3410   -0.5280   25.1180 O   0  0  0  0  0  0  0  0  0  0  0  0
    8.3710   -0.1840   26.1480 C   0  0  0  0  0  0  0  0  0  0  0  0
    7.3770   -1.1530   26.2600 C   0  0  0  0  0  0  0  0  0  0  0  0
    9.0340    0.0990   27.5150 C   0  0  0  0  0  0  0  0  0  0  0  0
    7.7000    1.1140   25.6850 C   0  0  0  0  0  0  0  0  0  0  0  0
  2  1  1  0
  2  3  1  0
  2  4  1  0
  2  5  1  0
  5  6  1  0
  7  6  1  1
  7  8  1  0
  8  9  1  0
  9 10  2  0
  9 11  1  0
 11 12  1  0
 12 13  2  0
 13 14  1  0
 14 15  2  0
 15 16  1  0
 12 17  1  0
 16 17  2  0
  7 18  1  0
 18 19  2  0
 18 20  1  0
 21 20  1  0
 21 22  1  0
 21 23  1  0
 21 24  1  0
M  END
