pyridine_urea_12083
     RDKit          3D

 23 25  0  0  0  0  0  0  0  0999 V2000
   13.7380   -3.8120   20.4270 C   0  0  0  0  0  0  0  0  0  0  0  0
   13.4130   -3.0280   21.6500 C   0  0  0  0  0  0  0  0  0  0  0  0
   12.7020   -1.8740   21.5330 N   0  0  0  0  0  0  0  0  0  0  0  0
   12.7390   -1.5690   22.8070 C   0  0  0  0  0  0  0  0  0  0  0  0
   12.1110   -0.4840   23.1250 C   0  0  0  0  0  0  0  0  0  0  0  0
   12.4800    0.7640   23.3260 C   0  0  0  0  0  0  0  0  0  0  0  0
   11.4320    1.6870   23.6760 C   0  0  0  0  0  0  0  0  0  0  0  0
    9.9590    1.5610   23.8710 C   0  0  0  0  0  0  0  0  0  0  0  0
    8.5860    0.9210   23.9420 C   0  0  0  0  0  0  0  0  0  0  0  0
    8.3910   -0.0260   22.9470 N   0  0  0  0  0  0  0  0  0  0  0  0
    8.1800    0.2640   21.5900 C   0  0  0  0  0  0  0  0  0  0  0  0
    8.7830    1.2220   21.0820 O   0  0  0  0  0  0  0  0  0  0  0  0
    7.2950   -0.5370   20.9530 N   0  0  0  0  0  0  0  0  0  0  0  0
    6.5450    0.0910   20.0350 C   0  0  0  0  0  0  0  0  0  0  0  0
    5.3550    0.8130   20.2720 C   0  0  0  0  0  0  0  0  0  0  0  0
    4.6710    1.4440   19.2110 C   0  0  0  0  0  0  0  0  0  0  0  0
    5.1930    1.3420   17.9260 C   0  0  0  0  0  0  0  0  0  0  0  0
    6.3220    0.6420   17.7310 N   0  0  0  0  0  0  0  0  0  0  0  0
    6.9770    0.0350   18.7320 C   0  0  0  0  0  0  0  0  0  0  0  0
    9.7910    0.0380   23.5840 C   0  0  0  0  0  0  0  0  0  0  0  0
   10.8770   -0.5400   23.3000 C   0  0  0  0  0  0  0  0  0  0  0  0
   13.3950   -2.4420   23.6040 N   0  0  0  0  0  0  0  0  0  0  0  0
   13.7780   -3.3160   22.7920 O   0  0  0  0  0  0  0  0  0  0  0  0
  1  2  1  0
  2  3  2  0
  3  4  1  0
  4  5  1  0
  5  6  2  0
  6  7  1  0
  7  8  2  0
  8  9  1  0
  9 10  1  0
 10 11  1  0
 11 12  2  0
 11 13  1  0
 13 14  1  0
 14 15  2  0
 15 16  1  0
 16 17  2  0
 17 18  1  0
 14 19  1  0
 18 19  2  0
  8 20  1  0
  5 21  1  0
 20 21  2  0
  4 22  2  0
  2 23  1  0
 22 23  1  0
M  END
