pyridine_urea_11947
     RDKit          3D

 24 25  0  0  0  0  0  0  0  0999 V2000
   13.2410   -1.6090   21.2110 C   0  0  0  0  0  0  0  0  0  0  0  0
   13.0830   -0.5690   22.3350 C   0  0  0  0  0  0  0  0  0  0  0  0
   11.7170   -0.0870   22.4310 O   0  0  0  0  0  0  0  0  0  0  0  0
   10.7100   -1.0160   22.2980 C   0  0  0  0  0  0  0  0  0  0  0  0
   10.6460   -2.1230   21.4120 O   0  0  0  0  0  0  0  0  0  0  0  0
    9.5680   -0.8820   23.1690 C   0  0  2  0  0  0  0  0  0  0  0  0
    9.7130   -1.3520   24.4830 C   0  0  0  0  0  0  0  0  0  0  0  0
   11.0490   -1.4290   24.8070 C   0  0  0  0  0  0  0  0  0  0  0  0
   12.4720   -1.6720   24.7160 C   0  0  0  0  0  0  0  0  0  0  0  0
   13.3130   -2.2360   23.5700 C   0  0  0  0  0  0  0  0  0  0  0  0
   12.7510   -2.6120   22.4000 C   0  0  0  0  0  0  0  0  0  0  0  0
   11.4370   -2.4240   22.4330 C   0  0  0  0  0  0  0  0  0  0  0  0
   10.1830   -2.4970   21.8200 C   0  0  0  0  0  0  0  0  0  0  0  0
   10.6720   -1.8780   23.5490 C   0  0  0  0  0  0  0  0  0  0  0  0
    8.3910   -1.3360   22.4580 N   0  0  0  0  0  0  0  0  0  0  0  0
    7.9650   -0.4200   21.5270 C   0  0  0  0  0  0  0  0  0  0  0  0
    8.5630    0.6120   21.2380 O   0  0  0  0  0  0  0  0  0  0  0  0
    6.7750   -0.7910   20.9650 N   0  0  0  0  0  0  0  0  0  0  0  0
    6.2370   -0.0580   19.9180 C   0  0  0  0  0  0  0  0  0  0  0  0
    5.0470    0.6390   20.1190 C   0  0  0  0  0  0  0  0  0  0  0  0
    4.5130    1.3860   19.0770 C   0  0  0  0  0  0  0  0  0  0  0  0
    5.1870    1.4120   17.8660 C   0  0  0  0  0  0  0  0  0  0  0  0
    6.3310    0.7410   17.6600 N   0  0  0  0  0  0  0  0  0  0  0  0
    6.8260    0.0240   18.6820 C   0  0  0  0  0  0  0  0  0  0  0  0
  1  2  1  0
  2  3  1  0
  3  4  1  0
  4  5  2  0
  4  6  1  0
  6  7  1  1
  7  8  1  0
  8  9  2  0
  9 10  1  0
 10 11  2  0
 11 12  1  0
 12 13  1  0
  8 14  1  0
 12 14  2  0
  6 15  1  0
 15 16  1  0
 16 17  2  0
 16 18  1  0
 18 19  1  0
 19 20  2  0
 20 21  1  0
 21 22  2  0
 22 23  1  0
 19 24  1  0
 23 24  2  0
M  END
