pyridine_urea_6199
     RDKit          3D

 24 26  0  0  0  0  0  0  0  0999 V2000
    7.5050   -0.3750   26.9030 C   0  0  0  0  0  0  0  0  0  0  0  0
    7.7210    0.3190   25.6770 O   0  0  0  0  0  0  0  0  0  0  0  0
    8.9590   -0.0420   25.0700 C   0  0  0  0  0  0  0  0  0  0  0  0
   10.2780   -0.1130   25.7820 C   0  0  0  0  0  0  0  0  0  0  0  0
   11.5710   -0.4740   25.1980 C   0  0  0  0  0  0  0  0  0  0  0  0
   11.5680   -0.7800   23.9690 C   0  0  0  0  0  0  0  0  0  0  0  0
   12.4320   -1.2200   23.0120 C   0  0  0  0  0  0  0  0  0  0  0  0
   12.9610   -0.3990   22.0120 C   0  0  0  0  0  0  0  0  0  0  0  0
   13.6340   -0.9080   20.9840 C   0  0  0  0  0  0  0  0  0  0  0  0
   13.6870   -2.2540   21.1280 C   0  0  0  0  0  0  0  0  0  0  0  0
   13.2950   -2.9860   22.0830 C   0  0  0  0  0  0  0  0  0  0  0  0
   12.6020   -2.5780   23.1570 N   0  0  0  0  0  0  0  0  0  0  0  0
   10.4100   -0.7570   23.2100 C   0  0  0  0  0  0  0  0  0  0  0  0
    9.1730   -0.4350   23.6180 C   0  0  0  0  0  0  0  0  0  0  0  0
    8.1770   -0.4960   22.7190 N   0  0  0  0  0  0  0  0  0  0  0  0
    8.1100    0.0970   21.4740 C   0  0  0  0  0  0  0  0  0  0  0  0
    8.8340    1.3030   21.0620 O   0  0  0  0  0  0  0  0  0  0  0  0
    7.2510   -0.6340   20.7630 N   0  0  0  0  0  0  0  0  0  0  0  0
    6.4930    0.0560   19.9130 C   0  0  0  0  0  0  0  0  0  0  0  0
    5.2060    0.7610   20.1880 C   0  0  0  0  0  0  0  0  0  0  0  0
    4.5640    1.4420   19.1640 C   0  0  0  0  0  0  0  0  0  0  0  0
    5.1500    1.4450   17.9010 C   0  0  0  0  0  0  0  0  0  0  0  0
    6.3120    0.8050   17.6320 N   0  0  0  0  0  0  0  0  0  0  0  0
    6.9290    0.1450   18.6260 C   0  0  0  0  0  0  0  0  0  0  0  0
  1  2  1  0
  2  3  1  0
  3  4  2  0
  4  5  1  0
  5  6  2  0
  6  7  1  0
  7  8  2  0
  8  9  1  0
  9 10  2  0
 10 11  1  0
  7 12  1  0
 11 12  2  0
  6 13  1  0
  3 14  1  0
 13 14  2  0
 14 15  1  0
 15 16  1  0
 16 17  2  0
 16 18  1  0
 18 19  1  0
 19 20  2  0
 20 21  1  0
 21 22  2  0
 22 23  1  0
 19 24  1  0
 23 24  2  0
M  END
