pyridine_urea_470
     RDKit          3D

 25 27  0  0  0  0  0  0  0  0999 V2000
    9.2910    1.1300   21.0510 O   0  0  0  0  0  0  0  0  0  0  0  0
    8.8020    0.0620   21.3920 C   0  0  0  0  0  0  0  0  0  0  0  0
    9.5400   -1.0190   21.9590 N   0  0  0  0  0  0  0  0  0  0  0  0
   10.8740   -0.8420   22.4690 C   0  0  0  0  0  0  0  0  0  0  0  0
   11.0850   -0.3670   23.7730 C   0  0  0  0  0  0  0  0  0  0  0  0
   12.3630   -0.2060   24.1930 C   0  0  0  0  0  0  0  0  0  0  0  0
   13.3450   -0.4700   23.3860 C   0  0  0  0  0  0  0  0  0  0  0  0
   13.1470   -0.9150   22.1730 N   0  0  0  0  0  0  0  0  0  0  0  0
   12.0430   -1.1330   21.6750 C   0  0  0  0  0  0  0  0  0  0  0  0
    7.4210   -0.2030   21.2690 N   0  0  0  0  0  0  0  0  0  0  0  0
    6.5980    0.3500   20.2510 C   0  0  2  0  0  0  0  0  0  0  0  0
    5.3520    0.8090   20.6020 C   0  0  0  0  0  0  0  0  0  0  0  0
    4.7140    1.5960   19.6050 C   0  0  0  0  0  0  0  0  0  0  0  0
    4.7180    0.9890   18.3220 C   0  0  0  0  0  0  0  0  0  0  0  0
    5.7560    0.0960   18.1890 N   0  0  0  0  0  0  0  0  0  0  0  0
    6.6290    0.1590   17.1520 C   0  0  0  0  0  0  0  0  0  0  0  0
    7.5250   -0.9940   17.0160 C   0  0  0  0  0  0  0  0  0  0  0  0
    8.4360   -0.9380   15.9890 C   0  0  0  0  0  0  0  0  0  0  0  0
    8.5080    0.1480   15.1130 C   0  0  0  0  0  0  0  0  0  0  0  0
    9.6520    0.1950   13.8660 Cl  0  0  0  0  0  0  0  0  0  0  0  0
    7.6500    1.2150   15.2490 C   0  0  0  0  0  0  0  0  0  0  0  0
    6.7050    1.2370   16.2790 C   0  0  0  0  0  0  0  0  0  0  0  0
    5.6250    2.5650   16.5080 Cl  0  0  0  0  0  0  0  0  0  0  0  0
    6.1690   -0.6790   19.2460 C   0  0  0  0  0  0  0  0  0  0  0  0
    6.2050   -1.8920   19.4000 O   0  0  0  0  0  0  0  0  0  0  0  0
  1  2  2  0
  2  3  1  0
  3  4  1  0
  4  5  2  0
  5  6  1  0
  6  7  2  0
  7  8  1  0
  4  9  1  0
  8  9  2  0
  2 10  1  0
 11 10  1  1
 11 12  1  0
 12 13  1  0
 13 14  1  0
 14 15  1  0
 15 16  1  0
 16 17  2  0
 17 18  1  0
 18 19  2  0
 19 20  1  0
 19 21  1  0
 16 22  1  0
 21 22  2  0
 22 23  1  0
 11 24  1  0
 15 24  1  0
 24 25  2  0
M  END
