pyridine_urea_8459
     RDKit          3D

 22 23  0  0  0  0  0  0  0  0999 V2000
    8.8500    1.2580   23.3610 C   0  0  0  0  0  0  0  0  0  0  0  0
   10.2190    0.6880   23.0760 C   0  0  0  0  0  0  0  0  0  0  0  0
   11.3850    1.3710   23.2460 C   0  0  0  0  0  0  0  0  0  0  0  0
   11.5610    2.6650   23.6500 C   0  0  0  0  0  0  0  0  0  0  0  0
   10.9480    3.8630   22.4410 S   0  0  0  0  0  0  0  0  0  0  0  0
    9.4750    2.9710   22.0630 C   0  0  0  0  0  0  0  0  0  0  0  0
   11.8520    3.9110   21.3110 O   0  0  0  0  0  0  0  0  0  0  0  0
   10.5830    5.0870   23.1400 O   0  0  0  0  0  0  0  0  0  0  0  0
   12.7050    0.5970   22.9410 C   0  0  0  0  0  0  0  0  0  0  0  0
   12.7880   -0.7160   22.4970 C   0  0  0  0  0  0  0  0  0  0  0  0
   11.4490   -1.4560   22.2710 C   0  0  0  0  0  0  0  0  0  0  0  0
   10.2660   -0.7620   22.5490 C   0  0  0  0  0  0  0  0  0  0  0  0
    8.9880   -1.3850   22.3120 N   0  0  0  0  0  0  0  0  0  0  0  0
    8.2050   -0.5900   21.4890 C   0  0  0  0  0  0  0  0  0  0  0  0
    8.7440    0.5990   21.1310 O   0  0  0  0  0  0  0  0  0  0  0  0
    6.9630   -1.0070   21.0700 N   0  0  0  0  0  0  0  0  0  0  0  0
    6.3570   -0.2530   20.0460 C   0  0  0  0  0  0  0  0  0  0  0  0
    5.1600    0.4360   20.2990 C   0  0  0  0  0  0  0  0  0  0  0  0
    4.5710    1.1990   19.2780 C   0  0  0  0  0  0  0  0  0  0  0  0
    5.2090    1.2400   18.0500 C   0  0  0  0  0  0  0  0  0  0  0  0
    6.3550    0.5850   17.7860 N   0  0  0  0  0  0  0  0  0  0  0  0
    6.9110   -0.1500   18.7760 C   0  0  0  0  0  0  0  0  0  0  0  0
  1  2  1  0
  2  3  2  0
  3  4  1  0
  5  4  1  0
  5  6  1  0
  5  7  2  0
  5  8  2  0
  3  9  1  0
  9 10  2  0
 10 11  1  0
  2 12  1  0
 11 12  2  0
 12 13  1  0
 13 14  1  0
 14 15  2  0
 14 16  1  0
 16 17  1  0
 17 18  2  0
 18 19  1  0
 19 20  2  0
 20 21  1  0
 17 22  1  0
 21 22  2  0
M  END
