pyridine_urea_9177
     RDKit          3D

 18 19  0  0  0  0  0  0  0  0999 V2000
    8.8580    1.2450   21.1790 O   0  0  0  0  0  0  0  0  0  0  0  0
    8.3560    0.1690   21.5400 C   0  0  0  0  0  0  0  0  0  0  0  0
    8.8190   -0.6130   22.5540 N   0  0  0  0  0  0  0  0  0  0  0  0
   10.1680   -0.8360   22.8230 C   0  0  0  0  0  0  0  0  0  0  0  0
   10.7170   -0.1840   23.9250 C   0  0  2  0  0  0  0  0  0  0  0  0
   11.5660    0.8520   23.5880 C   0  0  0  0  0  0  0  0  0  0  0  0
   12.8250    0.3500   23.3870 C   0  0  0  0  0  0  0  0  0  0  0  0
   12.9030   -0.7030   22.4840 C   0  0  0  0  0  0  0  0  0  0  0  0
   13.1790   -2.2620   23.1490 S   0  0  0  0  0  0  0  0  0  0  0  0
   11.9310   -2.3680   24.4150 C   0  0  0  0  0  0  0  0  0  0  0  0
   11.3090   -1.0580   24.9650 C   0  0  0  0  0  0  0  0  0  0  0  0
    7.2430   -0.4140   20.9960 N   0  0  0  0  0  0  0  0  0  0  0  0
    6.5380    0.1450   19.9990 C   0  0  0  0  0  0  0  0  0  0  0  0
    5.3810    0.8610   20.3020 C   0  0  0  0  0  0  0  0  0  0  0  0
    4.6660    1.4610   19.2680 C   0  0  0  0  0  0  0  0  0  0  0  0
    5.1350    1.3210   17.9770 C   0  0  0  0  0  0  0  0  0  0  0  0
    6.2360    0.6280   17.6680 N   0  0  0  0  0  0  0  0  0  0  0  0
    6.9100    0.0570   18.6810 C   0  0  0  0  0  0  0  0  0  0  0  0
  1  2  2  0
  2  3  1  0
  3  4  1  0
  5  4  1  6
  5  6  1  0
  6  7  1  0
  7  8  1  0
  8  9  1  0
  9 10  1  0
  5 11  1  0
 10 11  1  0
  2 12  1  0
 12 13  1  0
 13 14  2  0
 14 15  1  0
 15 16  2  0
 16 17  1  0
 13 18  1  0
 17 18  2  0
M  END
