pyridine_urea_269
     RDKit          3D

 28 31  0  0  0  0  0  0  0  0999 V2000
   13.3370   -1.1040   22.2110 C   0  0  0  0  0  0  0  0  0  0  0  0
   13.2580   -2.2940   22.1170 C   0  0  1  0  0  0  0  0  0  0  0  0
   13.3470   -3.6190   21.4730 C   0  0  0  0  0  0  0  0  0  0  0  0
   13.7560   -3.3420   20.3350 C   0  0  0  0  0  0  0  0  0  0  0  0
   12.4850   -3.8980   20.1540 C   0  0  0  0  0  0  0  0  0  0  0  0
   13.9150   -2.7180   23.3600 N   0  0  0  0  0  0  0  0  0  0  0  0
   13.2380   -2.4420   24.4600 C   0  0  0  0  0  0  0  0  0  0  0  0
   13.6100   -2.5770   25.6100 O   0  0  0  0  0  0  0  0  0  0  0  0
   12.0770   -1.9960   23.9480 N   0  0  0  0  0  0  0  0  0  0  0  0
   11.6020   -0.7810   23.9170 C   0  0  0  0  0  0  0  0  0  0  0  0
   10.4010   -0.6360   23.9510 C   0  0  0  0  0  0  0  0  0  0  0  0
    9.6170    0.5330   23.8960 C   0  0  0  0  0  0  0  0  0  0  0  0
    9.8660    1.8700   23.7880 C   0  0  0  0  0  0  0  0  0  0  0  0
    8.5590    1.4210   23.8580 C   0  0  0  0  0  0  0  0  0  0  0  0
    8.3650    0.2280   23.0000 N   0  0  0  0  0  0  0  0  0  0  0  0
    8.2420    0.4580   21.6610 C   0  0  0  0  0  0  0  0  0  0  0  0
    8.9790    1.5310   21.0380 O   0  0  0  0  0  0  0  0  0  0  0  0
    7.3410   -0.3780   21.0470 N   0  0  0  0  0  0  0  0  0  0  0  0
    6.5240    0.1760   20.0730 C   0  0  0  0  0  0  0  0  0  0  0  0
    5.2730    0.9320   20.3390 C   0  0  0  0  0  0  0  0  0  0  0  0
    4.5620    1.4800   19.1620 C   0  0  0  0  0  0  0  0  0  0  0  0
    5.0950    1.2590   17.9020 C   0  0  0  0  0  0  0  0  0  0  0  0
    6.2180    0.5580   17.6870 N   0  0  0  0  0  0  0  0  0  0  0  0
    6.8910    0.0440   18.7430 C   0  0  0  0  0  0  0  0  0  0  0  0
   11.4470    1.6970   23.7490 C   0  0  0  0  0  0  0  0  0  0  0  0
   12.2370    0.5470   23.8030 C   0  0  0  0  0  0  0  0  0  0  0  0
   12.0150   -2.3290   22.6300 C   0  0  0  0  0  0  0  0  0  0  0  0
   11.0400   -2.5750   21.9290 O   0  0  0  0  0  0  0  0  0  0  0  0
  2  1  1  6
  2  3  1  0
  3  4  1  0
  3  5  1  0
  4  5  1  0
  2  6  1  0
  6  7  1  0
  7  8  2  0
  7  9  1  0
  9 10  1  0
 10 11  2  0
 11 12  1  0
 12 13  2  0
 13 14  1  0
 14 15  1  0
 15 16  1  0
 16 17  2  0
 16 18  1  0
 18 19  1  0
 19 20  2  0
 20 21  1  0
 21 22  2  0
 22 23  1  0
 19 24  1  0
 23 24  2  0
 13 25  1  0
 10 26  1  0
 25 26  2  0
  2 27  1  0
  9 27  1  0
 27 28  2  0
M  END
