pyridine_urea_843
     RDKit          3D

 23 25  0  0  0  0  0  0  0  0999 V2000
    8.5490    0.8800   21.2880 O   0  0  0  0  0  0  0  0  0  0  0  0
    8.0690   -0.2470   21.2030 C   0  0  0  0  0  0  0  0  0  0  0  0
    6.6590   -0.4850   21.0700 N   0  0  0  0  0  0  0  0  0  0  0  0
    6.1290    0.1590   19.9930 C   0  0  0  0  0  0  0  0  0  0  0  0
    4.9510    0.8760   20.1220 C   0  0  0  0  0  0  0  0  0  0  0  0
    4.4630    1.5300   19.0000 C   0  0  0  0  0  0  0  0  0  0  0  0
    5.1720    1.4410   17.8010 C   0  0  0  0  0  0  0  0  0  0  0  0
    6.3110    0.7410   17.6700 N   0  0  0  0  0  0  0  0  0  0  0  0
    6.7680    0.1110   18.7700 C   0  0  0  0  0  0  0  0  0  0  0  0
    8.7290   -1.4170   21.1930 N   0  0  0  0  0  0  0  0  0  0  0  0
    9.5960   -1.5940   22.2850 C   0  0  0  0  0  0  0  0  0  0  0  0
   10.7980   -0.7340   21.9750 C   0  0  0  0  0  0  0  0  0  0  0  0
   11.4190   -0.1760   23.0310 C   0  0  0  0  0  0  0  0  0  0  0  0
   11.1540   -0.9680   24.0440 N   0  0  0  0  0  0  0  0  0  0  0  0
   11.5030   -2.1710   23.6450 C   0  0  0  0  0  0  0  0  0  0  0  0
   12.7090   -1.8890   23.1120 C   0  0  0  0  0  0  0  0  0  0  0  0
   13.1350   -0.8430   23.8620 C   0  0  0  0  0  0  0  0  0  0  0  0
   13.0940   -1.2970   25.1810 C   0  0  0  0  0  0  0  0  0  0  0  0
   13.7710   -2.3950   25.4870 C   0  0  0  0  0  0  0  0  0  0  0  0
   13.4050   -3.3000   24.6820 C   0  0  0  0  0  0  0  0  0  0  0  0
   13.5260   -2.8850   23.3790 C   0  0  0  0  0  0  0  0  0  0  0  0
    9.9010   -0.7310   24.3360 C   0  0  0  0  0  0  0  0  0  0  0  0
    8.8750   -1.1550   23.5720 C   0  0  0  0  0  0  0  0  0  0  0  0
  1  2  2  0
  2  3  1  0
  3  4  1  0
  4  5  2  0
  5  6  1  0
  6  7  2  0
  7  8  1  0
  4  9  1  0
  8  9  2  0
  2 10  1  0
 10 11  1  0
 11 12  1  0
 12 13  1  0
 13 14  1  0
 14 15  1  0
 15 16  1  0
 16 17  1  0
 17 18  1  0
 18 19  1  0
 19 20  1  0
 16 21  1  0
 20 21  1  0
 14 22  1  0
 11 23  1  0
 22 23  1  0
M  END
