pyridine_urea_734
     RDKit          3D

 23 24  0  0  0  0  0  0  0  0999 V2000
    9.0230    1.0940   21.2900 O   0  0  0  0  0  0  0  0  0  0  0  0
    8.5330    0.0020   21.6250 C   0  0  0  0  0  0  0  0  0  0  0  0
    9.1050   -0.8920   22.5240 N   0  0  0  0  0  0  0  0  0  0  0  0
    8.4650   -1.6860   23.5200 C   0  0  0  0  0  0  0  0  0  0  0  0
    7.1610   -1.4580   23.9820 C   0  0  0  0  0  0  0  0  0  0  0  0
    7.0420   -1.0190   25.2980 N   0  0  0  0  0  0  0  0  0  0  0  0
    6.0940   -1.5170   26.3070 C   0  0  0  0  0  0  0  0  0  0  0  0
    5.4620   -0.7980   27.0870 O   0  0  0  0  0  0  0  0  0  0  0  0
    6.0240   -2.9420   26.2380 O   0  0  0  0  0  0  0  0  0  0  0  0
    5.0560   -3.4720   25.4350 C   0  0  0  0  0  0  0  0  0  0  0  0
    5.3250   -4.4670   24.4950 C   0  0  0  0  0  0  0  0  0  0  0  0
    6.7370   -4.8490   24.0580 C   0  0  0  0  0  0  0  0  0  0  0  0
    7.0180   -5.8270   23.1340 C   0  0  0  0  0  0  0  0  0  0  0  0
    5.9360   -6.5010   22.5720 C   0  0  0  0  0  0  0  0  0  0  0  0
    4.6140   -6.1990   22.9270 C   0  0  0  0  0  0  0  0  0  0  0  0
    4.3080   -5.2020   23.8680 C   0  0  0  0  0  0  0  0  0  0  0  0
    7.3240   -0.4760   21.1450 N   0  0  0  0  0  0  0  0  0  0  0  0
    6.6240    0.1120   20.0120 C   0  0  0  0  0  0  0  0  0  0  0  0
    5.4790    0.8800   20.3050 C   0  0  0  0  0  0  0  0  0  0  0  0
    4.7670    1.4940   19.2760 C   0  0  0  0  0  0  0  0  0  0  0  0
    5.1550    1.3720   17.9570 C   0  0  0  0  0  0  0  0  0  0  0  0
    6.2620    0.6140   17.6780 N   0  0  0  0  0  0  0  0  0  0  0  0
    6.9880   -0.0120   18.6920 C   0  0  0  0  0  0  0  0  0  0  0  0
  1  2  2  0
  2  3  1  0
  3  4  1  0
  4  5  1  0
  5  6  1  0
  6  7  1  0
  7  8  2  0
  7  9  1  0
  9 10  1  0
 10 11  1  0
 11 12  2  0
 12 13  1  0
 13 14  2  0
 14 15  1  0
 11 16  1  0
 15 16  2  0
  2 17  1  0
 17 18  1  0
 18 19  2  0
 19 20  1  0
 20 21  2  0
 21 22  1  0
 18 23  1  0
 22 23  2  0
M  END
