pyridine_urea_3445
     RDKit          3D

 19 19  0  0  0  0  0  0  0  0999 V2000
   12.6090    1.1280   23.1750 C   0  0  0  0  0  0  0  0  0  0  0  0
   12.9490   -0.3220   22.8420 C   0  0  0  0  0  0  0  0  0  0  0  0
   11.6820   -1.1530   22.8710 C   0  0  2  0  0  0  0  0  0  0  0  0
   11.6260   -2.1590   21.7570 C   0  0  0  0  0  0  0  0  0  0  0  0
   10.4390   -0.2360   22.9600 C   0  0  1  0  0  0  0  0  0  0  0  0
    9.2670   -0.7620   22.2820 N   0  0  0  0  0  0  0  0  0  0  0  0
    8.5500    0.0960   21.4680 C   0  0  0  0  0  0  0  0  0  0  0  0
    8.9690    1.2240   21.1790 O   0  0  0  0  0  0  0  0  0  0  0  0
    7.3590   -0.4550   21.0470 N   0  0  0  0  0  0  0  0  0  0  0  0
    6.6000    0.1160   20.0280 C   0  0  0  0  0  0  0  0  0  0  0  0
    5.4380    0.8240   20.3450 C   0  0  0  0  0  0  0  0  0  0  0  0
    4.6900    1.4130   19.3260 C   0  0  0  0  0  0  0  0  0  0  0  0
    5.1380    1.2700   18.0310 C   0  0  0  0  0  0  0  0  0  0  0  0
    6.2420    0.5890   17.7020 N   0  0  0  0  0  0  0  0  0  0  0  0
    6.9430    0.0290   18.7040 C   0  0  0  0  0  0  0  0  0  0  0  0
   10.1300    0.0090   24.2810 C   0  0  0  0  0  0  0  0  0  0  0  0
    9.7130   -0.1360   25.4280 O   0  0  0  0  0  0  0  0  0  0  0  0
    9.6700   -1.2520   24.0170 O   0  0  0  0  0  0  0  0  0  0  0  0
    8.3190   -1.4920   24.4250 C   0  0  0  0  0  0  0  0  0  0  0  0
  1  2  1  0
  2  3  1  0
  3  4  1  6
  3  5  1  0
  5  6  1  1
  6  7  1  0
  7  8  2  0
  7  9  1  0
  9 10  1  0
 10 11  2  0
 11 12  1  0
 12 13  2  0
 13 14  1  0
 10 15  1  0
 14 15  2  0
  5 16  1  0
 16 17  2  0
 16 18  1  0
 18 19  1  0
M  END
