pyridine_urea_13471
     RDKit          3D

 27 29  0  0  0  0  0  0  0  0999 V2000
   13.1380    4.1920   22.7780 C   0  0  0  0  0  0  0  0  0  0  0  0
   12.4180    3.0550   23.0870 N   0  0  0  0  0  0  0  0  0  0  0  0
   12.6800    1.7230   22.8900 C   0  0  0  0  0  0  0  0  0  0  0  0
   11.6410    0.7960   23.3390 C   0  0  0  0  0  0  0  0  0  0  0  0
   11.7100   -0.7130   23.1580 C   0  0  2  0  0  0  0  0  0  0  0  0
   10.4120   -1.1900   22.7360 C   0  0  1  0  0  0  0  0  0  0  0  0
    9.8040   -0.4010   21.9130 C   0  0  0  0  0  0  0  0  0  0  0  0
    8.4900   -0.2340   22.3630 N   0  0  0  0  0  0  0  0  0  0  0  0
    7.8120    0.3980   21.4210 C   0  0  0  0  0  0  0  0  0  0  0  0
    8.2040    1.4700   20.9500 O   0  0  0  0  0  0  0  0  0  0  0  0
    6.6550   -0.3410   21.0480 N   0  0  0  0  0  0  0  0  0  0  0  0
    6.1480    0.2260   19.9510 C   0  0  0  0  0  0  0  0  0  0  0  0
    4.9640    0.9340   20.0700 C   0  0  0  0  0  0  0  0  0  0  0  0
    4.4820    1.5360   18.9390 C   0  0  0  0  0  0  0  0  0  0  0  0
    5.1700    1.4250   17.7400 C   0  0  0  0  0  0  0  0  0  0  0  0
    6.3050    0.7380   17.6030 N   0  0  0  0  0  0  0  0  0  0  0  0
    6.7700    0.1490   18.7170 C   0  0  0  0  0  0  0  0  0  0  0  0
   10.6090   -2.5610   22.1270 C   0  0  0  0  0  0  0  0  0  0  0  0
   10.7900   -2.5710   23.5000 C   0  0  0  0  0  0  0  0  0  0  0  0
    9.9780   -3.5770   24.1050 O   0  0  0  0  0  0  0  0  0  0  0  0
   11.6090   -1.6880   24.0270 N   0  0  0  0  0  0  0  0  0  0  0  0
   12.7600   -2.0430   24.3890 C   0  0  0  0  0  0  0  0  0  0  0  0
   13.0700   -3.1160   25.1190 C   0  0  0  0  0  0  0  0  0  0  0  0
   13.5500   -2.1080   23.1140 C   0  0  0  0  0  0  0  0  0  0  0  0
   13.0320   -0.8430   25.2060 C   0  0  0  0  0  0  0  0  0  0  0  0
   10.7530    1.7630   23.8560 C   0  0  0  0  0  0  0  0  0  0  0  0
   11.1970    3.0730   23.7040 N   0  0  0  0  0  0  0  0  0  0  0  0
  1  2  1  0
  2  3  1  0
  3  4  2  0
  5  4  1  1
  5  6  1  0
  6  7  1  6
  7  8  1  0
  8  9  1  0
  9 10  2  0
  9 11  1  0
 11 12  1  0
 12 13  2  0
 13 14  1  0
 14 15  2  0
 15 16  1  0
 12 17  1  0
 16 17  2  0
  6 18  1  0
 18 19  1  0
 19 20  2  0
  5 21  1  0
 19 21  1  0
 21 22  1  0
 22 23  1  0
 22 24  1  0
 22 25  1  0
  4 26  1  0
  2 27  1  0
 26 27  2  0
M  END
