pyridine_urea_2849
     RDKit          3D

 22 24  0  0  0  0  0  0  0  0999 V2000
    9.0530    1.1830   21.2710 O   0  0  0  0  0  0  0  0  0  0  0  0
    8.6950    0.0570   21.6480 C   0  0  0  0  0  0  0  0  0  0  0  0
    7.5910   -0.6110   21.1080 N   0  0  0  0  0  0  0  0  0  0  0  0
    6.7490    0.0360   20.1000 C   0  0  0  0  0  0  0  0  0  0  0  0
    5.4890    0.8570   20.5360 C   0  0  0  0  0  0  0  0  0  0  0  0
    4.7320    1.4560   19.5320 C   0  0  0  0  0  0  0  0  0  0  0  0
    5.2050    1.2560   18.0870 C   0  0  0  0  0  0  0  0  0  0  0  0
    6.2950    0.5330   17.7600 N   0  0  0  0  0  0  0  0  0  0  0  0
    7.0220   -0.0480   18.7480 C   0  0  0  0  0  0  0  0  0  0  0  0
    9.2960   -0.7420   22.6460 N   0  0  0  0  0  0  0  0  0  0  0  0
   10.5250   -0.3380   23.4300 C   0  0  2  0  0  0  0  0  0  0  0  0
   10.3160    1.1560   23.6940 C   0  0  0  0  0  0  0  0  0  0  0  0
   11.7600    0.8420   23.5760 C   0  0  0  0  0  0  0  0  0  0  0  0
   11.8820   -0.6680   23.4680 C   0  0  0  0  0  0  0  0  0  0  0  0
   10.5280   -1.4870   23.5000 C   0  0  0  0  0  0  0  0  0  0  0  0
    9.1310   -0.7700   23.6300 C   0  0  0  0  0  0  0  0  0  0  0  0
    9.0660    0.6250   23.7300 C   0  0  0  0  0  0  0  0  0  0  0  0
   11.6760   -0.7510   22.6950 C   0  0  0  0  0  0  0  0  0  0  0  0
   11.6030   -1.8680   21.8770 C   0  0  0  0  0  0  0  0  0  0  0  0
   12.8000   -2.0800   21.2810 C   0  0  0  0  0  0  0  0  0  0  0  0
   13.6620   -1.2500   21.5870 O   0  0  0  0  0  0  0  0  0  0  0  0
   13.0020   -0.3350   22.5200 C   0  0  0  0  0  0  0  0  0  0  0  0
  1  2  2  0
  2  3  1  0
  3  4  1  0
  4  5  2  0
  5  6  1  0
  6  7  2  0
  7  8  1  0
  4  9  1  0
  8  9  2  0
  2 10  1  0
 11 10  1  6
 11 12  1  0
 12 13  2  0
 13 14  1  0
 14 15  2  0
 15 16  1  0
 12 17  1  0
 16 17  2  0
 11 18  1  0
 18 19  1  0
 19 20  2  0
 20 21  1  0
 18 22  2  0
 21 22  1  0
M  END
