pyridine_urea_13530
     RDKit          3D

 20 22  0  0  0  0  0  0  0  0999 V2000
    8.7350    0.8600   21.2360 O   0  0  0  0  0  0  0  0  0  0  0  0
    8.4680   -0.3140   21.4440 C   0  0  0  0  0  0  0  0  0  0  0  0
    9.3090   -1.2370   22.0180 N   0  0  0  0  0  0  0  0  0  0  0  0
   10.4030   -0.9310   22.8560 C   0  0  0  0  0  0  0  0  0  0  0  0
   11.8460   -1.4180   22.5920 C   0  0  0  0  0  0  0  0  0  0  0  0
   12.2960   -0.1900   22.7170 C   0  0  0  0  0  0  0  0  0  0  0  0
   12.2290    1.1160   22.9160 C   0  0  0  0  0  0  0  0  0  0  0  0
   11.5310    2.3010   23.1710 C   0  0  0  0  0  0  0  0  0  0  0  0
   10.1540    2.1760   23.0400 C   0  0  0  0  0  0  0  0  0  0  0  0
   10.0580    3.2000   22.1940 C   0  0  0  0  0  0  0  0  0  0  0  0
   11.4160    3.5000   22.1530 C   0  0  0  0  0  0  0  0  0  0  0  0
   13.4100    0.6080   22.7080 N   0  0  0  0  0  0  0  0  0  0  0  0
   13.2780   -0.9500   22.4860 N   0  0  0  0  0  0  0  0  0  0  0  0
    7.2290   -0.7200   21.0490 N   0  0  0  0  0  0  0  0  0  0  0  0
    6.5220   -0.0570   20.0350 C   0  0  0  0  0  0  0  0  0  0  0  0
    5.3450    0.6450   20.3600 C   0  0  0  0  0  0  0  0  0  0  0  0
    4.5710    1.3640   19.4050 C   0  0  0  0  0  0  0  0  0  0  0  0
    5.1880    1.2660   18.0150 C   0  0  0  0  0  0  0  0  0  0  0  0
    6.3020    0.5870   17.7260 N   0  0  0  0  0  0  0  0  0  0  0  0
    6.9340   -0.0510   18.7240 C   0  0  0  0  0  0  0  0  0  0  0  0
  1  2  2  0
  2  3  1  0
  3  4  1  0
  4  5  1  0
  5  6  1  0
  6  7  2  0
  7  8  1  0
  8  9  1  0
  9 10  1  0
  8 11  1  0
 10 11  1  0
  7 12  1  0
  5 13  2  0
 12 13  1  0
  2 14  1  0
 14 15  1  0
 15 16  2  0
 16 17  1  0
 17 18  2  0
 18 19  1  0
 15 20  1  0
 19 20  2  0
M  END
