pyridine_urea_4793
     RDKit          3D

 22 23  0  0  0  0  0  0  0  0999 V2000
   12.6910   -2.4170   21.2100 C   0  0  0  0  0  0  0  0  0  0  0  0
   11.7110   -2.5540   22.1610 N   0  0  0  0  0  0  0  0  0  0  0  0
   12.0800   -2.8410   23.5290 C   0  0  0  0  0  0  0  0  0  0  0  0
   11.2600   -3.3700   24.5470 O   0  0  0  0  0  0  0  0  0  0  0  0
   13.5240   -2.4960   23.8370 C   0  0  0  0  0  0  0  0  0  0  0  0
   13.7540   -1.3810   22.9490 O   0  0  0  0  0  0  0  0  0  0  0  0
   12.6740   -0.5580   22.9020 C   0  0  0  0  0  0  0  0  0  0  0  0
   12.9090    0.7610   23.0670 C   0  0  0  0  0  0  0  0  0  0  0  0
   11.8850    1.6650   23.0540 C   0  0  0  0  0  0  0  0  0  0  0  0
   10.5770    1.2190   22.8580 C   0  0  0  0  0  0  0  0  0  0  0  0
   10.3460   -0.1320   22.6760 C   0  0  0  0  0  0  0  0  0  0  0  0
    9.0300   -0.4820   22.4650 N   0  0  0  0  0  0  0  0  0  0  0  0
    8.2960    0.1530   21.4780 C   0  0  0  0  0  0  0  0  0  0  0  0
    8.6080    1.2580   21.0150 O   0  0  0  0  0  0  0  0  0  0  0  0
    7.2130   -0.5520   21.0900 N   0  0  0  0  0  0  0  0  0  0  0  0
    6.5420    0.0450   20.0850 C   0  0  0  0  0  0  0  0  0  0  0  0
    5.3630    0.7550   20.3710 C   0  0  0  0  0  0  0  0  0  0  0  0
    4.6650    1.4180   19.2260 C   0  0  0  0  0  0  0  0  0  0  0  0
    5.1760    1.3210   17.9640 C   0  0  0  0  0  0  0  0  0  0  0  0
    6.3130    0.6220   17.7170 N   0  0  0  0  0  0  0  0  0  0  0  0
    6.9480    0.0150   18.7550 C   0  0  0  0  0  0  0  0  0  0  0  0
   11.3790   -1.0450   22.6970 C   0  0  0  0  0  0  0  0  0  0  0  0
  1  2  1  0
  2  3  1  0
  3  4  2  0
  3  5  1  0
  5  6  1  0
  6  7  1  0
  7  8  2  0
  8  9  1  0
  9 10  2  0
 10 11  1  0
 11 12  1  0
 12 13  1  0
 13 14  2  0
 13 15  1  0
 15 16  1  0
 16 17  2  0
 17 18  1  0
 18 19  2  0
 19 20  1  0
 16 21  1  0
 20 21  2  0
  7 22  1  0
 11 22  2  0
M  END
