pyridine_urea_14313
     RDKit          3D

 22 23  0  0  0  0  0  0  0  0999 V2000
   11.3030   -3.0580   24.1550 C   0  0  0  0  0  0  0  0  0  0  0  0
   12.7150   -2.8290   23.9470 N   0  0  0  0  0  0  0  0  0  0  0  0
   13.4620   -2.6940   25.1000 C   0  0  0  0  0  0  0  0  0  0  0  0
   12.9620   -1.9690   22.9100 C   0  0  0  0  0  0  0  0  0  0  0  0
   12.1230   -0.8810   22.9840 C   0  0  0  0  0  0  0  0  0  0  0  0
   10.9810   -0.6220   22.1670 C   0  0  0  0  0  0  0  0  0  0  0  0
   10.0290    0.6030   22.2710 C   0  0  0  0  0  0  0  0  0  0  0  0
   10.3560    1.6230   23.3610 C   0  0  0  0  0  0  0  0  0  0  0  0
   11.5590    1.0900   24.0200 C   0  0  0  0  0  0  0  0  0  0  0  0
   11.0740    0.3020   22.9910 C   0  0  0  0  0  0  0  0  0  0  0  0
   10.0310   -0.6150   23.3320 C   0  0  0  0  0  0  0  0  0  0  0  0
    8.7500   -0.2480   22.8570 N   0  0  0  0  0  0  0  0  0  0  0  0
    8.3440    0.2530   21.6060 C   0  0  0  0  0  0  0  0  0  0  0  0
    8.8090    1.2940   21.1090 O   0  0  0  0  0  0  0  0  0  0  0  0
    7.3790   -0.5290   21.0650 N   0  0  0  0  0  0  0  0  0  0  0  0
    6.6090    0.0840   20.1270 C   0  0  0  0  0  0  0  0  0  0  0  0
    5.4520    0.8270   20.3940 C   0  0  0  0  0  0  0  0  0  0  0  0
    4.7660    1.4160   19.3270 C   0  0  0  0  0  0  0  0  0  0  0  0
    5.1870    1.2920   18.0240 C   0  0  0  0  0  0  0  0  0  0  0  0
    6.2840    0.5840   17.7090 N   0  0  0  0  0  0  0  0  0  0  0  0
    6.9900   -0.0230   18.7930 C   0  0  0  0  0  0  0  0  0  0  0  0
   12.4280    0.0470   23.9790 C   0  0  0  0  0  0  0  0  0  0  0  0
  1  2  1  0
  2  3  1  0
  2  4  1  0
  4  5  1  0
  5  6  2  0
  6  7  1  0
  7  8  2  0
  8  9  1  0
  9 10  1  0
 10 11  1  0
 11 12  1  0
 12 13  1  0
 13 14  2  0
 13 15  1  0
 15 16  1  0
 16 17  2  0
 17 18  1  0
 18 19  2  0
 19 20  1  0
 16 21  1  0
 20 21  2  0
  5 22  1  0
  9 22  2  0
M  END
