pyridine_urea_12110
     RDKit          3D

 23 24  0  0  0  0  0  0  0  0999 V2000
   13.4590   -2.6430   25.1190 C   0  0  0  0  0  0  0  0  0  0  0  0
   12.3220   -2.6400   23.7250 S   0  0  0  0  0  0  0  0  0  0  0  0
   13.0860   -2.8420   22.5180 O   0  0  0  0  0  0  0  0  0  0  0  0
   11.1610   -3.4090   24.1080 O   0  0  0  0  0  0  0  0  0  0  0  0
   11.8480   -0.8980   23.6890 C   0  0  0  0  0  0  0  0  0  0  0  0
   10.5900   -0.5450   24.3360 C   0  0  0  0  0  0  0  0  0  0  0  0
   10.0920    0.7780   24.4100 C   0  0  0  0  0  0  0  0  0  0  0  0
   11.0480    1.4630   23.7730 C   0  0  0  0  0  0  0  0  0  0  0  0
   11.2590    0.1000   23.8120 C   0  0  1  0  0  0  0  0  0  0  0  0
   10.8140   -0.2780   24.8930 O   0  0  0  0  0  0  0  0  0  0  0  0
   10.5990   -0.6440   22.7590 C   0  0  0  0  0  0  0  0  0  0  0  0
    9.1330   -0.3510   22.7350 N   0  0  0  0  0  0  0  0  0  0  0  0
    8.5630    0.2930   21.6560 C   0  0  0  0  0  0  0  0  0  0  0  0
    9.0110    1.3560   21.2160 O   0  0  0  0  0  0  0  0  0  0  0  0
    7.4470   -0.3700   21.1850 N   0  0  0  0  0  0  0  0  0  0  0  0
    6.6670    0.1500   20.1510 C   0  0  0  0  0  0  0  0  0  0  0  0
    5.4990    0.8870   20.4040 C   0  0  0  0  0  0  0  0  0  0  0  0
    4.7250    1.4260   19.3840 C   0  0  0  0  0  0  0  0  0  0  0  0
    5.1300    1.2240   18.0820 C   0  0  0  0  0  0  0  0  0  0  0  0
    6.2040    0.5420   17.6870 N   0  0  0  0  0  0  0  0  0  0  0  0
    6.9600    0.0120   18.6660 C   0  0  0  0  0  0  0  0  0  0  0  0
   12.2530    1.3750   23.1100 C   0  0  0  0  0  0  0  0  0  0  0  0
   12.6890    0.0650   23.0630 C   0  0  0  0  0  0  0  0  0  0  0  0
  2  1  1  0
  2  3  2  0
  2  4  2  0
  2  5  1  0
  5  6  2  0
  6  7  1  0
  7  8  2  0
  8  9  1  0
  9 10  1  1
  9 11  1  0
 11 12  1  0
 12 13  1  0
 13 14  2  0
 13 15  1  0
 15 16  1  0
 16 17  2  0
 17 18  1  0
 18 19  2  0
 19 20  1  0
 16 21  1  0
 20 21  2  0
  8 22  1  0
  5 23  1  0
 22 23  2  0
M  END
