pyridine_urea_4136
     RDKit          3D

 25 27  0  0  0  0  0  0  0  0999 V2000
    8.9400    0.3690   21.2770 O   0  0  0  0  0  0  0  0  0  0  0  0
    8.2350   -0.5820   21.5540 C   0  0  0  0  0  0  0  0  0  0  0  0
    8.5520   -1.6300   22.3770 N   0  0  0  0  0  0  0  0  0  0  0  0
    9.7200   -1.8060   23.1410 C   0  0  0  0  0  0  0  0  0  0  0  0
   10.2650   -0.6840   23.7340 C   0  0  0  0  0  0  0  0  0  0  0  0
   11.1840    0.4020   24.0750 C   0  0  0  0  0  0  0  0  0  0  0  0
   12.4720    0.7820   23.6220 C   0  0  0  0  0  0  0  0  0  0  0  0
   13.1860    0.1540   22.6830 C   0  0  0  0  0  0  0  0  0  0  0  0
   12.3970   -0.8100   22.3610 C   0  0  0  0  0  0  0  0  0  0  0  0
   11.8810    0.0670   23.3750 O   0  0  0  0  0  0  0  0  0  0  0  0
   11.2480    1.2720   23.0060 C   0  0  0  0  0  0  0  0  0  0  0  0
    9.8650    1.1930   22.9110 C   0  0  0  0  0  0  0  0  0  0  0  0
    9.0270    2.2410   22.5740 C   0  0  0  0  0  0  0  0  0  0  0  0
    9.5640    3.4760   22.3060 C   0  0  0  0  0  0  0  0  0  0  0  0
   10.9340    3.6690   22.3720 C   0  0  0  0  0  0  0  0  0  0  0  0
   11.8530    2.6900   22.6990 C   0  0  0  0  0  0  0  0  0  0  0  0
   13.1500    2.9820   22.7350 F   0  0  0  0  0  0  0  0  0  0  0  0
   11.2000   -1.3280   22.6490 C   0  0  0  0  0  0  0  0  0  0  0  0
    6.9690   -0.7440   21.0610 N   0  0  0  0  0  0  0  0  0  0  0  0
    6.3720   -0.0280   19.9670 C   0  0  0  0  0  0  0  0  0  0  0  0
    5.1940    0.6520   20.2500 C   0  0  0  0  0  0  0  0  0  0  0  0
    4.5950    1.3680   19.2090 C   0  0  0  0  0  0  0  0  0  0  0  0
    5.2090    1.3640   17.9570 C   0  0  0  0  0  0  0  0  0  0  0  0
    6.3510    0.6970   17.6930 N   0  0  0  0  0  0  0  0  0  0  0  0
    6.9060    0.0140   18.7070 C   0  0  0  0  0  0  0  0  0  0  0  0
  1  2  2  0
  2  3  1  0
  3  4  1  0
  4  5  1  0
  5  6  2  0
  6  7  1  0
  7  8  2  0
  8  9  1  0
  9 10  1  0
 10 11  1  0
 11 12  2  0
 12 13  1  0
 13 14  2  0
 14 15  1  0
 11 16  1  0
 15 16  2  0
 16 17  1  0
  5 18  1  0
  9 18  2  0
  2 19  1  0
 19 20  1  0
 20 21  2  0
 21 22  1  0
 22 23  2  0
 23 24  1  0
 20 25  1  0
 24 25  2  0
M  END
