pyridine_urea_8428
     RDKit          3D

 22 23  0  0  0  0  0  0  0  0999 V2000
    7.4970   -0.7670   25.4450 C   0  0  0  0  0  0  0  0  0  0  0  0
    8.4390    0.2560   25.7350 O   0  0  0  0  0  0  0  0  0  0  0  0
    9.6280    0.2190   25.0540 C   0  0  0  0  0  0  0  0  0  0  0  0
   10.4400   -0.7880   24.7290 C   0  0  0  0  0  0  0  0  0  0  0  0
   11.6220   -0.5790   24.0120 C   0  0  0  0  0  0  0  0  0  0  0  0
   12.3060    0.5610   23.4540 C   0  0  0  0  0  0  0  0  0  0  0  0
   13.0260   -0.7270   23.1860 C   0  0  0  0  0  0  0  0  0  0  0  0
   12.0560   -1.4740   22.5220 C   0  0  2  0  0  0  0  0  0  0  0  0
   12.6060   -2.1060   21.2440 C   0  0  0  0  0  0  0  0  0  0  0  0
   10.7560   -0.6650   22.5080 C   0  0  0  0  0  0  0  0  0  0  0  0
    9.5550   -1.0790   21.7820 N   0  0  0  0  0  0  0  0  0  0  0  0
    8.6150   -0.1470   21.3320 C   0  0  0  0  0  0  0  0  0  0  0  0
    8.8960    1.2000   21.1690 O   0  0  0  0  0  0  0  0  0  0  0  0
    7.3660   -0.6700   21.0160 N   0  0  0  0  0  0  0  0  0  0  0  0
    6.5870   -0.0420   20.0320 C   0  0  0  0  0  0  0  0  0  0  0  0
    5.4150    0.6430   20.3900 C   0  0  0  0  0  0  0  0  0  0  0  0
    4.6630    1.2850   19.4010 C   0  0  0  0  0  0  0  0  0  0  0  0
    5.1150    1.2150   18.0920 C   0  0  0  0  0  0  0  0  0  0  0  0
    6.2270    0.5560   17.7260 N   0  0  0  0  0  0  0  0  0  0  0  0
    6.9380   -0.0560   18.6940 C   0  0  0  0  0  0  0  0  0  0  0  0
   11.3470    1.5280   23.8880 C   0  0  0  0  0  0  0  0  0  0  0  0
   10.0250    1.4240   24.6540 C   0  0  0  0  0  0  0  0  0  0  0  0
  1  2  1  0
  2  3  1  0
  3  4  2  0
  4  5  1  0
  5  6  2  0
  6  7  1  0
  7  8  1  0
  8  9  1  6
  8 10  1  0
 10 11  1  0
 11 12  1  0
 12 13  2  0
 12 14  1  0
 14 15  1  0
 15 16  2  0
 16 17  1  0
 17 18  2  0
 18 19  1  0
 15 20  1  0
 19 20  2  0
  6 21  1  0
  3 22  1  0
 21 22  2  0
M  END
