pyridine_urea_9736
     RDKit          3D

 27 29  0  0  0  0  0  0  0  0999 V2000
    8.8010    0.7150   21.2400 O   0  0  0  0  0  0  0  0  0  0  0  0
    8.1030   -0.1090   21.8060 C   0  0  0  0  0  0  0  0  0  0  0  0
    7.0900   -0.7900   21.1580 N   0  0  0  0  0  0  0  0  0  0  0  0
    6.4620   -0.0820   20.0740 C   0  0  0  0  0  0  0  0  0  0  0  0
    5.1950    0.6980   20.4050 C   0  0  0  0  0  0  0  0  0  0  0  0
    4.5160    1.4670   19.2740 C   0  0  0  0  0  0  0  0  0  0  0  0
    5.1980    1.3650   17.9110 C   0  0  0  0  0  0  0  0  0  0  0  0
    6.3610    0.5990   17.7680 N   0  0  0  0  0  0  0  0  0  0  0  0
    6.9590   -0.0870   18.7880 C   0  0  0  0  0  0  0  0  0  0  0  0
    8.2120   -0.4510   23.1550 N   0  0  0  0  0  0  0  0  0  0  0  0
    9.3450   -0.0700   23.9280 C   0  0  0  0  0  0  0  0  0  0  0  0
    9.3770    0.9230   24.8430 C   0  0  0  0  0  0  0  0  0  0  0  0
   10.0700    1.9510   24.1770 C   0  0  0  0  0  0  0  0  0  0  0  0
    9.4650    3.1630   23.8250 C   0  0  0  0  0  0  0  0  0  0  0  0
   10.1860    4.1580   23.1500 C   0  0  0  0  0  0  0  0  0  0  0  0
   11.5250    3.9550   22.8110 C   0  0  0  0  0  0  0  0  0  0  0  0
   12.4370    5.1730   21.9800 Cl  0  0  0  0  0  0  0  0  0  0  0  0
   12.1580    2.6660   23.1790 C   0  0  0  0  0  0  0  0  0  0  0  0
   11.4180    1.6910   23.8610 C   0  0  0  0  0  0  0  0  0  0  0  0
   10.2890    0.7920   23.1420 C   0  0  0  0  0  0  0  0  0  0  0  0
   11.1410   -0.0400   22.6700 C   0  0  0  0  0  0  0  0  0  0  0  0
   10.5250   -1.0650   22.0500 C   0  0  0  0  0  0  0  0  0  0  0  0
   11.2610   -1.9880   21.4870 C   0  0  0  0  0  0  0  0  0  0  0  0
   12.5780   -1.8250   21.5700 C   0  0  0  0  0  0  0  0  0  0  0  0
   13.4510   -2.9250   20.8080 Cl  0  0  0  0  0  0  0  0  0  0  0  0
   13.2130   -0.8190   22.2130 C   0  0  0  0  0  0  0  0  0  0  0  0
   12.4970    0.1290   22.7990 C   0  0  0  0  0  0  0  0  0  0  0  0
  1  2  2  0
  2  3  1  0
  3  4  1  0
  4  5  2  0
  5  6  1  0
  6  7  2  0
  7  8  1  0
  4  9  1  0
  8  9  2  0
  2 10  1  0
 10 11  1  0
 11 12  1  0
 12 13  1  0
 13 14  2  0
 14 15  1  0
 15 16  2  0
 16 17  1  0
 16 18  1  0
 13 19  1  0
 18 19  2  0
 11 20  1  0
 20 21  1  0
 21 22  2  0
 22 23  1  0
 23 24  2  0
 24 25  1  0
 24 26  1  0
 21 27  1  0
 26 27  2  0
M  END
