pyridine_urea_11746
     RDKit          3D

 27 29  0  0  0  0  0  0  0  0999 V2000
    9.0850   -1.1080   20.7950 O   0  0  0  0  0  0  0  0  0  0  0  0
    8.6170   -0.5740   21.7050 C   0  0  0  0  0  0  0  0  0  0  0  0
    9.3730   -0.3860   22.8640 N   0  0  0  0  0  0  0  0  0  0  0  0
   10.5660    0.4080   22.8510 C   0  0  0  0  0  0  0  0  0  0  0  0
   11.8860   -0.0260   22.7540 C   0  0  0  0  0  0  0  0  0  0  0  0
   12.9250    0.9500   22.7120 C   0  0  0  0  0  0  0  0  0  0  0  0
   12.6580    2.3710   22.7620 C   0  0  0  0  0  0  0  0  0  0  0  0
   13.5740    3.5700   22.6730 C   0  0  0  0  0  0  0  0  0  0  0  0
   12.8890    4.5710   22.8290 O   0  0  0  0  0  0  0  0  0  0  0  0
   15.1090    3.5720   22.4220 N   0  0  0  0  0  0  0  0  0  0  0  0
   16.1560    4.5500   22.6430 C   0  0  0  0  0  0  0  0  0  0  0  0
   17.2320    4.6450   23.8990 C   0  0  0  0  0  0  0  0  0  0  0  0
   18.5460    5.3020   23.9130 N   0  0  0  0  0  0  0  0  0  0  0  0
   18.6840    6.6340   23.8390 C   0  0  0  0  0  0  0  0  0  0  0  0
   19.6110    7.3250   24.6760 C   0  0  0  0  0  0  0  0  0  0  0  0
   20.8120    6.8080   24.6880 O   0  0  0  0  0  0  0  0  0  0  0  0
   20.7240    5.5270   24.4550 C   0  0  0  0  0  0  0  0  0  0  0  0
   19.4770    5.0920   24.9090 C   0  0  0  0  0  0  0  0  0  0  0  0
   11.2370    2.9630   22.9130 C   0  0  0  0  0  0  0  0  0  0  0  0
   10.3450    1.7450   22.9280 C   0  0  0  0  0  0  0  0  0  0  0  0
    7.3080   -0.1010   21.6570 N   0  0  0  0  0  0  0  0  0  0  0  0
    6.6110    0.2970   20.5210 C   0  0  0  0  0  0  0  0  0  0  0  0
    5.4620    1.1020   20.5570 C   0  0  0  0  0  0  0  0  0  0  0  0
    4.8130    1.4720   19.3700 C   0  0  0  0  0  0  0  0  0  0  0  0
    5.3340    1.0280   18.1700 C   0  0  0  0  0  0  0  0  0  0  0  0
    6.4230    0.2550   18.0610 N   0  0  0  0  0  0  0  0  0  0  0  0
    7.0300   -0.0950   19.2320 C   0  0  0  0  0  0  0  0  0  0  0  0
  1  2  2  0
  2  3  1  0
  3  4  1  0
  4  5  2  0
  5  6  1  0
  6  7  2  0
  7  8  1  0
  8  9  2  0
  8 10  1  0
 10 11  1  0
 11 12  1  0
 12 13  1  0
 13 14  1  0
 14 15  1  0
 15 16  1  0
 16 17  1  0
 13 18  1  0
 17 18  1  0
  7 19  1  0
  4 20  1  0
 19 20  2  0
  2 21  1  0
 21 22  1  0
 22 23  2  0
 23 24  1  0
 24 25  2  0
 25 26  1  0
 22 27  1  0
 26 27  2  0
M  END
