pyridine_urea_6631
     RDKit          3D

 22 23  0  0  0  0  0  0  0  0999 V2000
   10.5220    2.3780   23.7770 C   0  0  0  0  0  0  0  0  0  0  0  0
   10.9440    0.8970   23.8370 C   0  0  0  0  0  0  0  0  0  0  0  0
   10.1140    0.2380   24.9660 C   0  0  0  0  0  0  0  0  0  0  0  0
   12.4760    0.7670   23.9470 C   0  0  0  0  0  0  0  0  0  0  0  0
   10.6430    0.2250   22.4770 C   0  0  0  0  0  0  0  0  0  0  0  0
   10.0460   -0.9980   22.5140 C   0  0  1  0  0  0  0  0  0  0  0  0
    9.1090   -1.1900   21.5620 N   0  0  0  0  0  0  0  0  0  0  0  0
    8.3150   -0.1050   21.4030 C   0  0  0  0  0  0  0  0  0  0  0  0
    8.7110    1.0440   21.4910 O   0  0  0  0  0  0  0  0  0  0  0  0
    7.0390   -0.4840   21.0900 N   0  0  0  0  0  0  0  0  0  0  0  0
    6.3920    0.1170   20.0210 C   0  0  0  0  0  0  0  0  0  0  0  0
    5.2170    0.8240   20.2540 C   0  0  0  0  0  0  0  0  0  0  0  0
    4.5780    1.4420   19.1950 C   0  0  0  0  0  0  0  0  0  0  0  0
    5.1430    1.3340   17.9250 C   0  0  0  0  0  0  0  0  0  0  0  0
    6.2670    0.6500   17.6850 N   0  0  0  0  0  0  0  0  0  0  0  0
    6.8680    0.0560   18.7300 C   0  0  0  0  0  0  0  0  0  0  0  0
   11.3400   -1.7670   22.1830 C   0  0  0  0  0  0  0  0  0  0  0  0
   11.5620   -1.4220   23.4870 C   0  0  0  0  0  0  0  0  0  0  0  0
   12.2230   -1.3510   24.6780 C   0  0  0  0  0  0  0  0  0  0  0  0
   13.3750   -1.9960   24.6490 C   0  0  0  0  0  0  0  0  0  0  0  0
   13.6360   -2.5540   23.4450 C   0  0  0  0  0  0  0  0  0  0  0  0
   12.6430   -2.4200   22.2430 C   0  0  0  0  0  0  0  0  0  0  0  0
  2  1  1  0
  2  3  1  0
  2  4  1  0
  2  5  1  0
  6  5  1  6
  6  7  1  0
  7  8  1  0
  8  9  2  0
  8 10  1  0
 10 11  1  0
 11 12  2  0
 12 13  1  0
 13 14  2  0
 14 15  1  0
 11 16  1  0
 15 16  2  0
  6 17  1  0
 17 18  2  0
 18 19  1  0
 19 20  2  0
 20 21  1  0
 17 22  1  0
 21 22  2  0
M  END
