pyridine_urea_3890
     RDKit          3D

 19 19  0  0  0  0  0  0  0  0999 V2000
   13.0910   -1.0180   22.2430 C   0  0  0  0  0  0  0  0  0  0  0  0
   12.6960    0.2430   22.9510 C   0  0  0  0  0  0  0  0  0  0  0  0
   11.8660    0.2090   24.0610 C   0  0  0  0  0  0  0  0  0  0  0  0
   11.4530    1.4620   24.2740 F   0  0  0  0  0  0  0  0  0  0  0  0
   12.6330   -0.1700   25.1010 F   0  0  0  0  0  0  0  0  0  0  0  0
   10.8490   -0.7220   24.0680 C   0  0  0  0  0  0  0  0  0  0  0  0
   11.3050   -2.0240   24.2530 C   0  0  0  0  0  0  0  0  0  0  0  0
    9.7690   -0.3580   24.8970 C   0  0  0  0  0  0  0  0  0  0  0  0
   10.2790   -0.9350   22.6800 C   0  0  0  0  0  0  0  0  0  0  0  0
    8.8700   -0.6880   22.5890 N   0  0  0  0  0  0  0  0  0  0  0  0
    8.4230    0.1220   21.5860 C   0  0  0  0  0  0  0  0  0  0  0  0
    8.9850    1.1770   21.2590 O   0  0  0  0  0  0  0  0  0  0  0  0
    7.2170   -0.4200   21.0040 N   0  0  0  0  0  0  0  0  0  0  0  0
    6.5260    0.1430   19.9980 C   0  0  0  0  0  0  0  0  0  0  0  0
    5.3600    0.8510   20.2850 C   0  0  0  0  0  0  0  0  0  0  0  0
    4.6600    1.4500   19.2460 C   0  0  0  0  0  0  0  0  0  0  0  0
    5.1480    1.3210   17.9600 C   0  0  0  0  0  0  0  0  0  0  0  0
    6.2570    0.6370   17.6670 N   0  0  0  0  0  0  0  0  0  0  0  0
    6.9180    0.0660   18.6840 C   0  0  0  0  0  0  0  0  0  0  0  0
  1  2  1  0
  2  3  1  0
  3  4  1  0
  3  5  1  0
  3  6  1  0
  6  7  1  0
  6  8  1  0
  6  9  1  0
  9 10  1  0
 10 11  1  0
 11 12  2  0
 11 13  1  0
 13 14  1  0
 14 15  2  0
 15 16  1  0
 16 17  2  0
 17 18  1  0
 14 19  1  0
 18 19  2  0
M  END
