pyridine_urea_3329
     RDKit          3D

 20 21  0  0  0  0  0  0  0  0999 V2000
    9.4310    2.3700   24.0770 C   0  0  0  0  0  0  0  0  0  0  0  0
    9.3900    1.0190   24.3020 N   0  0  0  0  0  0  0  0  0  0  0  0
    9.0360    0.3170   25.4770 C   0  0  0  0  0  0  0  0  0  0  0  0
   10.5000    0.3430   23.6160 C   0  0  0  0  0  0  0  0  0  0  0  0
   11.8060    0.7430   23.8490 C   0  0  0  0  0  0  0  0  0  0  0  0
   12.8950    0.1650   23.2490 C   0  0  0  0  0  0  0  0  0  0  0  0
   12.6440   -0.9780   22.2900 C   0  0  0  0  0  0  0  0  0  0  0  0
   13.6250   -1.6100   21.6580 F   0  0  0  0  0  0  0  0  0  0  0  0
   11.3770   -1.4260   22.0080 C   0  0  0  0  0  0  0  0  0  0  0  0
   10.2530   -0.6960   22.7230 C   0  0  0  0  0  0  0  0  0  0  0  0
    8.9950   -1.1040   22.4230 N   0  0  0  0  0  0  0  0  0  0  0  0
    8.2480   -0.3030   21.5420 C   0  0  0  0  0  0  0  0  0  0  0  0
    8.6080    0.8330   21.2400 O   0  0  0  0  0  0  0  0  0  0  0  0
    7.0970   -0.7690   20.9950 N   0  0  0  0  0  0  0  0  0  0  0  0
    6.3560   -0.0570   20.0420 C   0  0  0  0  0  0  0  0  0  0  0  0
    5.1490    0.6170   20.2500 C   0  0  0  0  0  0  0  0  0  0  0  0
    4.5540    1.3010   19.1820 C   0  0  0  0  0  0  0  0  0  0  0  0
    5.1760    1.2950   17.9400 C   0  0  0  0  0  0  0  0  0  0  0  0
    6.3280    0.6500   17.7130 N   0  0  0  0  0  0  0  0  0  0  0  0
    6.8940   -0.0170   18.7690 C   0  0  0  0  0  0  0  0  0  0  0  0
  1  2  1  0
  2  3  1  0
  2  4  1  0
  4  5  2  0
  5  6  1  0
  6  7  2  0
  7  8  1  0
  7  9  1  0
  4 10  1  0
  9 10  2  0
 10 11  1  0
 11 12  1  0
 12 13  2  0
 12 14  1  0
 14 15  1  0
 15 16  2  0
 16 17  1  0
 17 18  2  0
 18 19  1  0
 15 20  1  0
 19 20  2  0
M  END
