pyridine_urea_2843
     RDKit          3D

 22 24  0  0  0  0  0  0  0  0999 V2000
    8.3490    0.9100   21.0760 O   0  0  0  0  0  0  0  0  0  0  0  0
    8.0820   -0.2840   21.1700 C   0  0  0  0  0  0  0  0  0  0  0  0
    6.8450   -0.7860   20.9150 N   0  0  0  0  0  0  0  0  0  0  0  0
    6.2140   -0.0190   19.8980 C   0  0  0  0  0  0  0  0  0  0  0  0
    4.8700    0.7130   20.1730 C   0  0  0  0  0  0  0  0  0  0  0  0
    4.3430    1.4500   19.1260 C   0  0  0  0  0  0  0  0  0  0  0  0
    5.1440    1.4600   17.8170 C   0  0  0  0  0  0  0  0  0  0  0  0
    6.3060    0.7960   17.6390 N   0  0  0  0  0  0  0  0  0  0  0  0
    6.8020    0.0860   18.6640 C   0  0  0  0  0  0  0  0  0  0  0  0
    8.9450   -1.2450   21.5170 N   0  0  0  0  0  0  0  0  0  0  0  0
   10.1760   -0.6720   21.9420 C   0  0  2  0  0  0  0  0  0  0  0  0
   11.3730   -1.6340   21.7950 C   0  0  0  0  0  0  0  0  0  0  0  0
   12.6200   -0.8370   22.1260 C   0  0  0  0  0  0  0  0  0  0  0  0
   12.6880   -0.9850   23.5550 C   0  0  0  0  0  0  0  0  0  0  0  0
   11.2700   -0.6870   24.0210 C   0  0  0  0  0  0  0  0  0  0  0  0
   11.3610   -0.6110   25.3580 C   0  0  0  0  0  0  0  0  0  0  0  0
   13.0060   -0.9380   25.5040 Cl  0  0  0  0  0  0  0  0  0  0  0  0
   10.2540   -0.3290   26.1700 C   0  0  0  0  0  0  0  0  0  0  0  0
    9.0570   -0.1400   25.5110 C   0  0  0  0  0  0  0  0  0  0  0  0
    8.9380   -0.2290   24.1300 C   0  0  0  0  0  0  0  0  0  0  0  0
    7.3500    0.0260   23.4900 Cl  0  0  0  0  0  0  0  0  0  0  0  0
   10.1010   -0.5160   23.4030 C   0  0  0  0  0  0  0  0  0  0  0  0
  1  2  2  0
  2  3  1  0
  3  4  1  0
  4  5  2  0
  5  6  1  0
  6  7  2  0
  7  8  1  0
  4  9  1  0
  8  9  2  0
  2 10  1  0
 11 10  1  1
 11 12  1  0
 12 13  1  0
 13 14  1  0
 14 15  1  0
 15 16  2  0
 16 17  1  0
 16 18  1  0
 18 19  2  0
 19 20  1  0
 20 21  1  0
 11 22  1  0
 15 22  1  0
 20 22  2  0
M  END
