pyridine_urea_10135
     RDKit          3D

 23 24  0  0  0  0  0  0  0  0999 V2000
   13.2830   -2.3070   24.9210 C   0  0  0  0  0  0  0  0  0  0  0  0
   12.0870   -2.0550   25.0400 O   0  0  0  0  0  0  0  0  0  0  0  0
   11.6960   -0.7630   24.7940 C   0  0  0  0  0  0  0  0  0  0  0  0
   12.4670    0.1690   24.8900 O   0  0  0  0  0  0  0  0  0  0  0  0
   10.3650   -0.6130   24.3910 C   0  0  0  0  0  0  0  0  0  0  0  0
   10.2740   -0.5380   23.0150 C   0  0  1  0  0  0  0  0  0  0  0  0
   11.4740   -0.9990   22.5330 C   0  0  0  0  0  0  0  0  0  0  0  0
   12.4130    0.0210   22.6870 C   0  0  0  0  0  0  0  0  0  0  0  0
   12.9870    1.4240   22.8180 C   0  0  0  0  0  0  0  0  0  0  0  0
   12.8470    2.7890   22.8650 C   0  0  0  0  0  0  0  0  0  0  0  0
   11.5680    3.1500   22.7450 C   0  0  0  0  0  0  0  0  0  0  0  0
   10.7070    2.0820   22.6110 C   0  0  0  0  0  0  0  0  0  0  0  0
   11.1210    0.6980   22.5880 C   0  0  0  0  0  0  0  0  0  0  0  0
    9.0020   -1.0940   22.5420 N   0  0  0  0  0  0  0  0  0  0  0  0
    8.3630   -0.2640   21.6240 C   0  0  0  0  0  0  0  0  0  0  0  0
    8.7850    0.8330   21.2850 O   0  0  0  0  0  0  0  0  0  0  0  0
    7.1840   -0.7780   21.1220 N   0  0  0  0  0  0  0  0  0  0  0  0
    6.4900   -0.0880   20.0370 C   0  0  0  0  0  0  0  0  0  0  0  0
    5.3230    0.6270   20.2870 C   0  0  0  0  0  0  0  0  0  0  0  0
    4.6270    1.3200   19.2990 C   0  0  0  0  0  0  0  0  0  0  0  0
    5.1560    1.2690   18.0220 C   0  0  0  0  0  0  0  0  0  0  0  0
    6.2760    0.5850   17.7240 N   0  0  0  0  0  0  0  0  0  0  0  0
    6.9150   -0.0740   18.7250 C   0  0  0  0  0  0  0  0  0  0  0  0
  1  2  1  0
  2  3  1  0
  3  4  2  0
  3  5  1  0
  6  5  1  1
  6  7  1  0
  7  8  1  0
  8  9  2  0
  9 10  1  0
 10 11  2  0
 11 12  1  0
  8 13  1  0
 12 13  2  0
  6 14  1  0
 14 15  1  0
 15 16  2  0
 15 17  1  0
 17 18  1  0
 18 19  2  0
 19 20  1  0
 20 21  2  0
 21 22  1  0
 18 23  1  0
 22 23  2  0
M  END
