pyridine_urea_11180
     RDKit          3D

 17 18  0  0  0  0  0  0  0  0999 V2000
    8.9340   -2.7960   23.4470 C   0  0  0  0  0  0  0  0  0  0  0  0
    9.3710   -2.1100   22.5700 C   0  0  1  0  0  0  0  0  0  0  0  0
    9.0120   -0.7040   22.7860 N   0  0  0  0  0  0  0  0  0  0  0  0
    8.5040    0.0880   21.6700 C   0  0  0  0  0  0  0  0  0  0  0  0
    9.1160    1.3190   21.2550 O   0  0  0  0  0  0  0  0  0  0  0  0
    7.3240   -0.4880   21.0750 N   0  0  0  0  0  0  0  0  0  0  0  0
    6.6660    0.0420   20.0230 C   0  0  0  0  0  0  0  0  0  0  0  0
    5.5360    0.7460   20.3410 C   0  0  0  0  0  0  0  0  0  0  0  0
    4.6630    1.4450   19.2980 C   0  0  0  0  0  0  0  0  0  0  0  0
    5.1130    1.3280   17.9060 C   0  0  0  0  0  0  0  0  0  0  0  0
    6.2550    0.5890   17.7040 N   0  0  0  0  0  0  0  0  0  0  0  0
    7.0220   -0.0460   18.6980 C   0  0  0  0  0  0  0  0  0  0  0  0
   10.9260   -2.0910   22.4430 C   0  0  0  0  0  0  0  0  0  0  0  0
   11.7410   -2.0870   23.4870 N   0  0  0  0  0  0  0  0  0  0  0  0
   13.0120   -2.0730   23.0220 C   0  0  0  0  0  0  0  0  0  0  0  0
   12.9950   -2.0640   21.6830 N   0  0  0  0  0  0  0  0  0  0  0  0
   11.6710   -2.0770   21.3470 N   0  0  0  0  0  0  0  0  0  0  0  0
  2  1  1  1
  2  3  1  0
  3  4  1  0
  4  5  2  0
  4  6  1  0
  6  7  1  0
  7  8  2  0
  8  9  1  0
  9 10  2  0
 10 11  1  0
  7 12  1  0
 11 12  2  0
  2 13  1  0
 13 14  2  0
 14 15  1  0
 15 16  2  0
 13 17  1  0
 16 17  1  0
M  END
