pyridine_urea_4010
     RDKit          3D

 26 28  0  0  0  0  0  0  0  0999 V2000
    7.9070    2.7930   23.9250 C   0  0  0  0  0  0  0  0  0  0  0  0
    9.3620    2.7430   23.5670 C   0  0  0  0  0  0  0  0  0  0  0  0
   10.4000    3.7750   23.5490 C   0  0  0  0  0  0  0  0  0  0  0  0
   11.8510    3.6220   23.1650 C   0  0  0  0  0  0  0  0  0  0  0  0
   12.8810    4.9990   23.1940 Cl  0  0  0  0  0  0  0  0  0  0  0  0
   12.3700    2.3270   22.7720 C   0  0  0  0  0  0  0  0  0  0  0  0
   11.1380    2.4400   23.0800 C   0  0  0  0  0  0  0  0  0  0  0  0
   10.0720    1.6960   23.1410 C   0  0  0  0  0  0  0  0  0  0  0  0
    9.8550    0.2550   22.8110 C   0  0  2  0  0  0  0  0  0  0  0  0
    8.5840   -0.3850   22.7900 N   0  0  0  0  0  0  0  0  0  0  0  0
    7.8870   -0.0550   21.6740 C   0  0  0  0  0  0  0  0  0  0  0  0
    8.3110    0.9630   21.1290 O   0  0  0  0  0  0  0  0  0  0  0  0
    6.8430   -0.7300   21.1710 N   0  0  0  0  0  0  0  0  0  0  0  0
    6.1990   -0.0700   20.1190 C   0  0  0  0  0  0  0  0  0  0  0  0
    4.9890    0.6140   20.2240 C   0  0  0  0  0  0  0  0  0  0  0  0
    4.4680    1.2620   19.1090 C   0  0  0  0  0  0  0  0  0  0  0  0
    5.1880    1.1920   17.9400 C   0  0  0  0  0  0  0  0  0  0  0  0
    6.3450    0.5460   17.7800 N   0  0  0  0  0  0  0  0  0  0  0  0
    6.8270   -0.0770   18.8750 C   0  0  0  0  0  0  0  0  0  0  0  0
   11.1980   -0.3120   22.6890 C   0  0  0  0  0  0  0  0  0  0  0  0
   10.4810   -1.2070   21.9800 C   0  0  0  0  0  0  0  0  0  0  0  0
   11.2330   -2.1500   21.4270 C   0  0  0  0  0  0  0  0  0  0  0  0
   12.5780   -2.0780   21.6250 C   0  0  0  0  0  0  0  0  0  0  0  0
   13.4390   -3.2410   20.8150 Cl  0  0  0  0  0  0  0  0  0  0  0  0
   13.2310   -1.1330   22.3970 C   0  0  0  0  0  0  0  0  0  0  0  0
   12.5060   -0.1610   22.9960 C   0  0  0  0  0  0  0  0  0  0  0  0
  1  2  1  0
  2  3  2  0
  3  4  1  0
  4  5  1  0
  4  6  2  0
  6  7  1  0
  2  8  1  0
  7  8  2  0
  8  9  1  0
  9 10  1  1
 10 11  1  0
 11 12  2  0
 11 13  1  0
 13 14  1  0
 14 15  2  0
 15 16  1  0
 16 17  2  0
 17 18  1  0
 14 19  1  0
 18 19  2  0
  9 20  1  0
 20 21  2  0
 21 22  1  0
 22 23  2  0
 23 24  1  0
 23 25  1  0
 20 26  1  0
 25 26  2  0
M  END
