pyridine_urea_1708
     RDKit          3D

 18 19  0  0  0  0  0  0  0  0999 V2000
   13.3920   -2.7050   24.9440 C   0  0  0  0  0  0  0  0  0  0  0  0
   12.0370   -2.1420   24.6290 C   0  0  0  0  0  0  0  0  0  0  0  0
   11.8800   -0.9920   23.8920 C   0  0  0  0  0  0  0  0  0  0  0  0
   12.9560   -0.1850   23.7980 C   0  0  0  0  0  0  0  0  0  0  0  0
   13.2320    0.3680   22.5930 C   0  0  0  0  0  0  0  0  0  0  0  0
   10.5160   -0.1850   23.9910 C   0  0  0  0  0  0  0  0  0  0  0  0
   10.3690   -0.4240   22.6280 C   0  0  0  0  0  0  0  0  0  0  0  0
    9.0670   -0.8660   22.2420 N   0  0  0  0  0  0  0  0  0  0  0  0
    8.4150    0.0420   21.4680 C   0  0  0  0  0  0  0  0  0  0  0  0
    8.9130    1.1400   21.1770 O   0  0  0  0  0  0  0  0  0  0  0  0
    7.1210   -0.4250   21.0450 N   0  0  0  0  0  0  0  0  0  0  0  0
    6.4500    0.1310   20.0220 C   0  0  0  0  0  0  0  0  0  0  0  0
    5.2760    0.8330   20.2860 C   0  0  0  0  0  0  0  0  0  0  0  0
    4.6010    1.4290   19.2260 C   0  0  0  0  0  0  0  0  0  0  0  0
    5.1220    1.2990   17.9530 C   0  0  0  0  0  0  0  0  0  0  0  0
    6.2400    0.6190   17.6800 N   0  0  0  0  0  0  0  0  0  0  0  0
    6.8760    0.0520   18.7140 C   0  0  0  0  0  0  0  0  0  0  0  0
   11.3540   -1.2990   22.5070 C   0  0  0  0  0  0  0  0  0  0  0  0
  1  2  1  0
  3  2  1  0
  3  4  1  0
  4  5  1  0
  3  6  1  0
  6  7  1  0
  7  8  1  0
  8  9  1  0
  9 10  2  0
  9 11  1  0
 11 12  1  0
 12 13  2  0
 13 14  1  0
 14 15  2  0
 15 16  1  0
 12 17  1  0
 16 17  2  0
  3 18  1  0
  7 18  1  0
M  END
