pyridine_urea_11624
     RDKit          3D

 16 17  0  0  0  0  0  0  0  0999 V2000
    8.9830    1.0070   21.6360 O   0  0  0  0  0  0  0  0  0  0  0  0
    8.6120   -0.1430   21.4650 C   0  0  0  0  0  0  0  0  0  0  0  0
    7.3350   -0.5380   21.1180 N   0  0  0  0  0  0  0  0  0  0  0  0
    6.5980    0.0580   20.0770 C   0  0  0  0  0  0  0  0  0  0  0  0
    5.4380    0.7820   20.3800 C   0  0  0  0  0  0  0  0  0  0  0  0
    4.7110    1.3910   19.3540 C   0  0  0  0  0  0  0  0  0  0  0  0
    5.1720    1.2510   18.0600 C   0  0  0  0  0  0  0  0  0  0  0  0
    6.2730    0.5570   17.7400 N   0  0  0  0  0  0  0  0  0  0  0  0
    6.9570   -0.0220   18.7480 C   0  0  0  0  0  0  0  0  0  0  0  0
    9.4850   -1.1990   21.5590 N   0  0  0  0  0  0  0  0  0  0  0  0
   10.5030   -1.3220   22.6160 C   0  0  1  0  0  0  0  0  0  0  0  0
   11.8540   -1.7380   22.0390 C   0  0  0  0  0  0  0  0  0  0  0  0
   12.7790   -0.8160   22.4870 C   0  0  0  0  0  0  0  0  0  0  0  0
   12.0750    0.2050   23.1430 C   0  0  0  0  0  0  0  0  0  0  0  0
   10.7680   -0.2550   23.4520 C   0  0  1  0  0  0  0  0  0  0  0  0
    9.8000    0.6800   23.3780 O   0  0  0  0  0  0  0  0  0  0  0  0
  1  2  2  0
  2  3  1  0
  3  4  1  0
  4  5  2  0
  5  6  1  0
  6  7  2  0
  7  8  1  0
  4  9  1  0
  8  9  2  0
  2 10  1  0
 11 10  1  6
 11 12  1  0
 12 13  1  0
 13 14  1  0
 11 15  1  0
 14 15  1  0
 15 16  1  6
M  END
