pyridine_urea_5745
     RDKit          3D

 26 29  0  0  0  0  0  0  0  0999 V2000
    8.6000    0.4120   21.3570 O   0  0  0  0  0  0  0  0  0  0  0  0
    8.1240   -0.7160   21.4930 C   0  0  0  0  0  0  0  0  0  0  0  0
    6.7750   -1.0020   21.0360 N   0  0  0  0  0  0  0  0  0  0  0  0
    6.2550   -0.2040   20.0250 C   0  0  0  0  0  0  0  0  0  0  0  0
    5.0890    0.5370   20.2460 C   0  0  0  0  0  0  0  0  0  0  0  0
    4.5950    1.3280   19.2060 C   0  0  0  0  0  0  0  0  0  0  0  0
    5.2730    1.3580   17.9870 C   0  0  0  0  0  0  0  0  0  0  0  0
    6.3960    0.6460   17.7670 N   0  0  0  0  0  0  0  0  0  0  0  0
    6.8620   -0.1190   18.7880 C   0  0  0  0  0  0  0  0  0  0  0  0
    8.7150   -1.8510   22.0680 N   0  0  0  0  0  0  0  0  0  0  0  0
   10.0320   -1.6830   22.6900 C   0  0  1  0  0  0  0  0  0  0  0  0
   10.6290   -0.7800   21.6750 C   0  0  0  0  0  0  0  0  0  0  0  0
   10.8090    0.0610   22.5660 C   0  0  2  0  0  0  0  0  0  0  0  0
   11.2890    1.3800   22.6180 C   0  0  0  0  0  0  0  0  0  0  0  0
   12.6080    1.7940   22.7400 C   0  0  0  0  0  0  0  0  0  0  0  0
   12.8560    3.1610   22.7640 C   0  0  0  0  0  0  0  0  0  0  0  0
   11.8280    4.0750   22.6780 C   0  0  0  0  0  0  0  0  0  0  0  0
   10.5110    3.6490   22.5670 C   0  0  0  0  0  0  0  0  0  0  0  0
   10.2200    2.2980   22.5360 C   0  0  0  0  0  0  0  0  0  0  0  0
   11.3410   -0.7170   23.1840 O   0  0  0  0  0  0  0  0  0  0  0  0
   10.7500   -0.3570   24.2250 C   0  0  0  0  0  0  0  0  0  0  0  0
   11.9700   -0.0670   23.6730 C   0  0  0  0  0  0  0  0  0  0  0  0
   11.4960   -1.0670   22.5870 C   0  0  0  0  0  0  0  0  0  0  0  0
   10.2050   -1.9160   22.3530 C   0  0  0  0  0  0  0  0  0  0  0  0
    9.0790   -1.8940   23.2580 C   0  0  0  0  0  0  0  0  0  0  0  0
    9.6140   -1.0740   24.0630 C   0  0  0  0  0  0  0  0  0  0  0  0
  1  2  2  0
  2  3  1  0
  3  4  1  0
  4  5  2  0
  5  6  1  0
  6  7  2  0
  7  8  1  0
  4  9  1  0
  8  9  2  0
  2 10  1  0
 11 10  1  6
 11 12  1  0
 12 13  1  0
 13 14  1  6
 14 15  2  0
 15 16  1  0
 16 17  2  0
 17 18  1  0
 14 19  1  0
 18 19  2  0
 13 20  1  0
 20 21  1  0
 21 22  2  0
 22 23  1  0
 23 24  2  0
 24 25  1  0
 11 26  1  0
 21 26  1  0
 25 26  2  0
M  END
