pyridine_urea_7649
     RDKit          3D

 18 19  0  0  0  0  0  0  0  0999 V2000
    8.8830    1.1840   21.1800 O   0  0  0  0  0  0  0  0  0  0  0  0
    8.5290    0.0160   21.3730 C   0  0  0  0  0  0  0  0  0  0  0  0
    9.2880   -1.0020   21.8780 N   0  0  0  0  0  0  0  0  0  0  0  0
    9.6300   -1.1840   23.2180 C   0  0  0  0  0  0  0  0  0  0  0  0
   10.9650   -1.1360   23.5760 C   0  0  2  0  0  0  0  0  0  0  0  0
   11.7510   -0.2320   22.8790 C   0  0  0  0  0  0  0  0  0  0  0  0
   13.0170   -0.5080   23.2630 C   0  0  0  0  0  0  0  0  0  0  0  0
   13.1670   -2.1080   24.0160 S   0  0  0  0  0  0  0  0  0  0  0  0
   13.4290   -2.0310   25.4320 O   0  0  0  0  0  0  0  0  0  0  0  0
   13.8580   -2.9970   23.1400 O   0  0  0  0  0  0  0  0  0  0  0  0
   11.5110   -2.3850   23.7790 N   0  0  0  0  0  0  0  0  0  0  0  0
    7.2590   -0.4080   21.0620 N   0  0  0  0  0  0  0  0  0  0  0  0
    6.5170    0.1560   20.1060 C   0  0  0  0  0  0  0  0  0  0  0  0
    5.3390    0.8560   20.3710 C   0  0  0  0  0  0  0  0  0  0  0  0
    4.5970    1.4780   19.1960 C   0  0  0  0  0  0  0  0  0  0  0  0
    5.1350    1.3140   17.9250 C   0  0  0  0  0  0  0  0  0  0  0  0
    6.2610    0.6280   17.7010 N   0  0  0  0  0  0  0  0  0  0  0  0
    6.8830    0.0920   18.7710 C   0  0  0  0  0  0  0  0  0  0  0  0
  1  2  2  0
  2  3  1  0
  3  4  1  0
  5  4  1  6
  5  6  1  0
  6  7  1  0
  7  8  1  0
  8  9  2  0
  8 10  2  0
  5 11  1  0
  8 11  1  0
  2 12  1  0
 12 13  1  0
 13 14  2  0
 14 15  1  0
 15 16  2  0
 16 17  1  0
 13 18  1  0
 17 18  2  0
M  END
