pyridine_urea_14814
     RDKit          3D

 20 22  0  0  0  0  0  0  0  0999 V2000
   11.5580   -2.5150   22.3030 C   0  0  0  0  0  0  0  0  0  0  0  0
   11.5550   -1.0530   22.5420 C   0  0  0  0  0  0  0  0  0  0  0  0
   12.7850   -0.4370   22.7330 C   0  0  0  0  0  0  0  0  0  0  0  0
   12.9230    0.9210   22.9540 C   0  0  0  0  0  0  0  0  0  0  0  0
   11.8160    1.7290   23.0010 C   0  0  0  0  0  0  0  0  0  0  0  0
   11.8460    3.1080   23.2070 N   0  0  0  0  0  0  0  0  0  0  0  0
   10.2330    3.5500   23.1650 S   0  0  0  0  0  0  0  0  0  0  0  0
    9.5300    2.0500   22.8880 N   0  0  0  0  0  0  0  0  0  0  0  0
   10.5680    1.1790   22.8270 C   0  0  0  0  0  0  0  0  0  0  0  0
   10.3780   -0.3110   22.5690 C   0  0  0  0  0  0  0  0  0  0  0  0
    9.1110   -0.8070   22.3690 N   0  0  0  0  0  0  0  0  0  0  0  0
    8.2310   -0.1710   21.4690 C   0  0  0  0  0  0  0  0  0  0  0  0
    8.4220    0.9630   21.0350 O   0  0  0  0  0  0  0  0  0  0  0  0
    7.1140   -0.8070   21.0310 N   0  0  0  0  0  0  0  0  0  0  0  0
    6.4090   -0.1060   20.1110 C   0  0  0  0  0  0  0  0  0  0  0  0
    5.2190    0.5780   20.3760 C   0  0  0  0  0  0  0  0  0  0  0  0
    4.5880    1.2740   19.3480 C   0  0  0  0  0  0  0  0  0  0  0  0
    5.2310    1.2410   18.0220 C   0  0  0  0  0  0  0  0  0  0  0  0
    6.3740    0.5810   17.7590 N   0  0  0  0  0  0  0  0  0  0  0  0
    6.9130   -0.0650   18.8110 C   0  0  0  0  0  0  0  0  0  0  0  0
  1  2  1  0
  2  3  1  0
  3  4  2  0
  4  5  1  0
  5  6  2  0
  6  7  1  0
  7  8  1  0
  5  9  1  0
  8  9  2  0
  2 10  2  0
  9 10  1  0
 10 11  1  0
 11 12  1  0
 12 13  2  0
 12 14  1  0
 14 15  1  0
 15 16  2  0
 16 17  1  0
 17 18  2  0
 18 19  1  0
 15 20  1  0
 19 20  2  0
M  END
