pyridine_urea_865
     RDKit          3D

 22 24  0  0  0  0  0  0  0  0999 V2000
    8.7190    1.3210   21.0850 O   0  0  0  0  0  0  0  0  0  0  0  0
    8.2220    0.3010   21.5860 C   0  0  0  0  0  0  0  0  0  0  0  0
    8.6940   -0.2790   22.8200 N   0  0  0  0  0  0  0  0  0  0  0  0
    9.7790    0.3700   23.3910 C   0  0  0  0  0  0  0  0  0  0  0  0
   10.7550    0.6930   22.5040 C   0  0  1  0  0  0  0  0  0  0  0  0
   11.7830    1.6200   22.8490 C   0  0  0  0  0  0  0  0  0  0  0  0
   12.7710    0.7890   23.2930 C   0  0  0  0  0  0  0  0  0  0  0  0
   12.2990   -0.5360   22.9750 C   0  0  0  0  0  0  0  0  0  0  0  0
   11.6170   -1.3890   24.0200 C   0  0  0  0  0  0  0  0  0  0  0  0
   10.5330   -2.1020   23.2690 C   0  0  0  0  0  0  0  0  0  0  0  0
   10.6880   -1.7130   21.9600 C   0  0  0  0  0  0  0  0  0  0  0  0
   11.7120   -2.4470   21.4360 C   0  0  0  0  0  0  0  0  0  0  0  0
   12.9670   -1.9520   21.1710 C   0  0  0  0  0  0  0  0  0  0  0  0
   13.4220   -1.2630   22.2110 C   0  0  0  0  0  0  0  0  0  0  0  0
   11.4170   -0.3070   22.1710 O   0  0  0  0  0  0  0  0  0  0  0  0
    7.1540   -0.3930   21.0620 N   0  0  0  0  0  0  0  0  0  0  0  0
    6.4640    0.1640   20.0000 C   0  0  0  0  0  0  0  0  0  0  0  0
    5.3030    0.8910   20.2530 C   0  0  0  0  0  0  0  0  0  0  0  0
    4.6270    1.4780   19.1990 C   0  0  0  0  0  0  0  0  0  0  0  0
    5.1350    1.3180   17.9270 C   0  0  0  0  0  0  0  0  0  0  0  0
    6.2340    0.6190   17.6370 N   0  0  0  0  0  0  0  0  0  0  0  0
    6.8760    0.0550   18.6840 C   0  0  0  0  0  0  0  0  0  0  0  0
  1  2  2  0
  2  3  1  0
  3  4  1  0
  5  4  1  1
  5  6  1  0
  6  7  1  0
  7  8  1  0
  8  9  1  0
  9 10  1  0
 10 11  1  0
 11 12  1  0
 12 13  1  0
  8 14  1  0
 13 14  1  0
  5 15  1  0
  8 15  1  0
  2 16  1  0
 16 17  1  0
 17 18  2  0
 18 19  1  0
 19 20  2  0
 20 21  1  0
 17 22  1  0
 21 22  2  0
M  END
