pyridine_urea_3050
     RDKit          3D

 21 22  0  0  0  0  0  0  0  0999 V2000
    8.7630    0.7890   21.3220 O   0  0  0  0  0  0  0  0  0  0  0  0
    8.2930   -0.2850   21.6770 C   0  0  0  0  0  0  0  0  0  0  0  0
    7.1570   -0.8320   21.1020 N   0  0  0  0  0  0  0  0  0  0  0  0
    6.4810   -0.0890   20.0520 C   0  0  0  0  0  0  0  0  0  0  0  0
    5.1690    0.6970   20.3800 C   0  0  0  0  0  0  0  0  0  0  0  0
    4.5670    1.3980   19.3380 C   0  0  0  0  0  0  0  0  0  0  0  0
    5.2510    1.3320   17.9670 C   0  0  0  0  0  0  0  0  0  0  0  0
    6.3850    0.6310   17.7410 N   0  0  0  0  0  0  0  0  0  0  0  0
    6.9590   -0.0490   18.7590 C   0  0  0  0  0  0  0  0  0  0  0  0
    8.7780   -1.1070   22.6760 N   0  0  0  0  0  0  0  0  0  0  0  0
   10.1050   -0.8460   23.2460 C   0  0  2  0  0  0  0  0  0  0  0  0
    9.9540    0.0870   24.4440 C   0  0  0  0  0  0  0  0  0  0  0  0
   10.1850    1.4530   24.0630 O   0  0  0  0  0  0  0  0  0  0  0  0
   10.8930   -0.4880   22.0430 C   0  0  0  0  0  0  0  0  0  0  0  0
   12.2540   -1.1890   22.0460 C   0  0  0  0  0  0  0  0  0  0  0  0
   12.6370   -1.2830   23.4390 C   0  0  0  0  0  0  0  0  0  0  0  0
   13.1700   -2.6550   23.6380 C   0  0  0  0  0  0  0  0  0  0  0  0
   13.5560   -2.9520   24.8320 C   0  0  0  0  0  0  0  0  0  0  0  0
   13.4380   -2.0290   25.6780 N   0  0  0  0  0  0  0  0  0  0  0  0
   12.9300   -0.7960   25.3810 C   0  0  0  0  0  0  0  0  0  0  0  0
   12.4220   -0.1470   24.2080 C   0  0  0  0  0  0  0  0  0  0  0  0
  1  2  2  0
  2  3  1  0
  3  4  1  0
  4  5  2  0
  5  6  1  0
  6  7  2  0
  7  8  1  0
  4  9  1  0
  8  9  2  0
  2 10  1  0
 10 11  1  0
 11 12  1  1
 12 13  1  0
 11 14  1  0
 14 15  1  0
 15 16  1  0
 16 17  2  0
 17 18  1  0
 18 19  2  0
 19 20  1  0
 16 21  1  0
 20 21  2  0
M  END
