pyridine_urea_651
     RDKit          3D

 24 26  0  0  0  0  0  0  0  0999 V2000
    8.8350    1.0990   21.1840 O   0  0  0  0  0  0  0  0  0  0  0  0
    8.3760   -0.0200   21.4730 C   0  0  0  0  0  0  0  0  0  0  0  0
    7.2160   -0.5640   20.9560 N   0  0  0  0  0  0  0  0  0  0  0  0
    6.4400    0.0970   20.0080 C   0  0  0  0  0  0  0  0  0  0  0  0
    5.2590    0.7970   20.2530 C   0  0  0  0  0  0  0  0  0  0  0  0
    4.6060    1.4280   19.1960 C   0  0  0  0  0  0  0  0  0  0  0  0
    5.1580    1.3330   17.9330 C   0  0  0  0  0  0  0  0  0  0  0  0
    6.2860    0.6560   17.6780 N   0  0  0  0  0  0  0  0  0  0  0  0
    6.8910    0.0610   18.7110 C   0  0  0  0  0  0  0  0  0  0  0  0
    8.9720   -0.9020   22.3520 N   0  0  0  0  0  0  0  0  0  0  0  0
   10.2930   -0.7690   22.7820 C   0  0  0  0  0  0  0  0  0  0  0  0
   11.3060   -1.2750   21.9790 C   0  0  0  0  0  0  0  0  0  0  0  0
   12.6440   -1.1590   22.3330 C   0  0  0  0  0  0  0  0  0  0  0  0
   12.9760   -0.5390   23.5070 C   0  0  0  0  0  0  0  0  0  0  0  0
   12.0130   -0.0330   24.3430 C   0  0  0  0  0  0  0  0  0  0  0  0
   10.5770   -0.1330   23.9980 C   0  0  0  0  0  0  0  0  0  0  0  0
    9.5040    0.3590   24.7990 N   0  0  0  0  0  0  0  0  0  0  0  0
    9.1700   -0.0080   26.0970 C   0  0  0  0  0  0  0  0  0  0  0  0
    9.9590   -0.0560   27.0140 O   0  0  0  0  0  0  0  0  0  0  0  0
    7.8130   -0.3250   26.1720 N   0  0  0  0  0  0  0  0  0  0  0  0
    7.1450   -0.3650   27.4180 C   0  0  0  0  0  0  0  0  0  0  0  0
    6.2580   -1.4240   27.4610 C   0  0  0  0  0  0  0  0  0  0  0  0
    6.2200   -1.9210   26.1660 C   0  0  0  0  0  0  0  0  0  0  0  0
    7.0910   -1.2560   25.2850 C   0  0  0  0  0  0  0  0  0  0  0  0
  1  2  2  0
  2  3  1  0
  3  4  1  0
  4  5  2  0
  5  6  1  0
  6  7  2  0
  7  8  1  0
  4  9  1  0
  8  9  2  0
  2 10  1  0
 10 11  1  0
 11 12  2  0
 12 13  1  0
 13 14  2  0
 14 15  1  0
 11 16  1  0
 15 16  2  0
 16 17  1  0
 17 18  1  0
 18 19  2  0
 18 20  1  0
 20 21  1  0
 21 22  1  0
 22 23  1  0
 20 24  1  0
 23 24  1  0
M  END
