pyridine_urea_11806
     RDKit          3D

 25 27  0  0  0  0  0  0  0  0999 V2000
    8.3360    0.9230   21.4310 O   0  0  0  0  0  0  0  0  0  0  0  0
    7.9100   -0.1610   21.7860 C   0  0  0  0  0  0  0  0  0  0  0  0
    8.2290   -0.8620   22.9230 N   0  0  0  0  0  0  0  0  0  0  0  0
    9.1590   -1.9000   23.0730 C   0  0  0  0  0  0  0  0  0  0  0  0
   10.2740   -1.5950   23.8150 C   0  0  0  0  0  0  0  0  0  0  0  0
   11.6380   -1.2340   24.2090 C   0  0  0  0  0  0  0  0  0  0  0  0
   12.8340   -0.9350   23.5390 C   0  0  0  0  0  0  0  0  0  0  0  0
   12.9320   -0.9520   22.2150 C   0  0  0  0  0  0  0  0  0  0  0  0
   13.9540   -0.6770   21.6560 O   0  0  0  0  0  0  0  0  0  0  0  0
   14.0120   -1.0360   20.2560 C   0  0  0  0  0  0  0  0  0  0  0  0
   14.3960    0.1150   19.0900 C   0  0  0  0  0  0  0  0  0  0  0  0
   15.1710    1.3490   19.2420 N   0  0  0  0  0  0  0  0  0  0  0  0
   15.2040    2.4420   20.0540 C   0  0  0  0  0  0  0  0  0  0  0  0
   14.5590    3.5410   19.6550 C   0  0  0  0  0  0  0  0  0  0  0  0
   14.5280    3.3040   18.3820 C   0  0  0  0  0  0  0  0  0  0  0  0
   14.9940    2.0430   18.1020 C   0  0  0  0  0  0  0  0  0  0  0  0
   11.7610   -1.2910   21.7780 C   0  0  0  0  0  0  0  0  0  0  0  0
   10.4610   -1.6180   22.2490 C   0  0  0  0  0  0  0  0  0  0  0  0
    6.9740   -0.7760   21.0190 N   0  0  0  0  0  0  0  0  0  0  0  0
    6.3310   -0.0900   20.0600 C   0  0  0  0  0  0  0  0  0  0  0  0
    5.1290    0.6130   20.2240 C   0  0  0  0  0  0  0  0  0  0  0  0
    4.5580    1.3150   19.1510 C   0  0  0  0  0  0  0  0  0  0  0  0
    5.1910    1.3150   17.9140 C   0  0  0  0  0  0  0  0  0  0  0  0
    6.3370    0.6720   17.6610 N   0  0  0  0  0  0  0  0  0  0  0  0
    6.9010   -0.0560   18.8110 C   0  0  0  0  0  0  0  0  0  0  0  0
  1  2  2  0
  2  3  1  0
  3  4  1  0
  4  5  1  0
  5  6  2  0
  6  7  1  0
  7  8  2  0
  8  9  1  0
  9 10  1  0
 10 11  1  0
 11 12  1  0
 12 13  1  0
 13 14  1  0
 14 15  1  0
 12 16  1  0
 15 16  1  0
  8 17  1  0
  5 18  1  0
 17 18  2  0
  2 19  1  0
 19 20  1  0
 20 21  2  0
 21 22  1  0
 22 23  2  0
 23 24  1  0
 20 25  1  0
 24 25  2  0
M  END
