pyridine_urea_7420
     RDKit          3D

 18 19  0  0  0  0  0  0  0  0999 V2000
    9.8370    1.4060   23.7370 C   0  0  0  0  0  0  0  0  0  0  0  0
   10.2010    0.6580   22.4540 C   0  0  2  0  0  0  0  0  0  0  0  0
    9.2220   -0.3690   22.1900 N   0  0  0  0  0  0  0  0  0  0  0  0
    8.2950    0.1780   21.3690 C   0  0  0  0  0  0  0  0  0  0  0  0
    8.4530    1.3260   20.9400 O   0  0  0  0  0  0  0  0  0  0  0  0
    7.2200   -0.5830   21.0410 N   0  0  0  0  0  0  0  0  0  0  0  0
    6.4770    0.0210   19.9730 C   0  0  0  0  0  0  0  0  0  0  0  0
    5.3030    0.7050   20.2260 C   0  0  0  0  0  0  0  0  0  0  0  0
    4.5640    1.3520   19.2320 C   0  0  0  0  0  0  0  0  0  0  0  0
    5.0710    1.2800   17.9340 C   0  0  0  0  0  0  0  0  0  0  0  0
    6.2210    0.5930   17.6700 N   0  0  0  0  0  0  0  0  0  0  0  0
    6.9240   -0.0370   18.6830 C   0  0  0  0  0  0  0  0  0  0  0  0
   11.6120    0.1350   22.4610 C   0  0  0  0  0  0  0  0  0  0  0  0
   12.6700   -0.4400   23.0860 C   0  0  0  0  0  0  0  0  0  0  0  0
   12.7070   -0.8430   24.3690 C   0  0  0  0  0  0  0  0  0  0  0  0
   11.6410   -0.7300   25.2430 C   0  0  0  0  0  0  0  0  0  0  0  0
    9.8850   -0.2730   25.7800 Br  0  0  0  0  0  0  0  0  0  0  0  0
   10.7620    0.0010   23.8950 S   0  0  0  0  0  0  0  0  0  0  0  0
  2  1  1  1
  2  3  1  0
  3  4  1  0
  4  5  2  0
  4  6  1  0
  6  7  1  0
  7  8  2  0
  8  9  1  0
  9 10  2  0
 10 11  1  0
  7 12  1  0
 11 12  2  0
  2 13  1  0
 13 14  2  0
 14 15  1  0
 15 16  2  0
 16 17  1  0
 13 18  1  0
 16 18  1  0
M  END
