pyridine_urea_3140
     RDKit          3D

 20 22  0  0  0  0  0  0  0  0999 V2000
    8.8170    1.1850   21.0670 O   0  0  0  0  0  0  0  0  0  0  0  0
    8.3270    0.1430   21.5100 C   0  0  0  0  0  0  0  0  0  0  0  0
    7.2170   -0.4870   21.0190 N   0  0  0  0  0  0  0  0  0  0  0  0
    6.4980    0.1030   19.9890 C   0  0  0  0  0  0  0  0  0  0  0  0
    5.3260    0.8010   20.2770 C   0  0  0  0  0  0  0  0  0  0  0  0
    4.6190    1.4150   19.2460 C   0  0  0  0  0  0  0  0  0  0  0  0
    5.1230    1.2990   17.9670 C   0  0  0  0  0  0  0  0  0  0  0  0
    6.2390    0.6250   17.6700 N   0  0  0  0  0  0  0  0  0  0  0  0
    6.9000    0.0440   18.6810 C   0  0  0  0  0  0  0  0  0  0  0  0
    8.8610   -0.5150   22.5880 N   0  0  0  0  0  0  0  0  0  0  0  0
   10.2890   -0.4550   22.8090 C   0  0  0  0  0  0  0  0  0  0  0  0
   10.7760    1.0230   22.7160 C   0  0  0  0  0  0  0  0  0  0  0  0
    9.9580    1.9680   22.6580 C   0  0  0  0  0  0  0  0  0  0  0  0
   10.5000    1.7540   24.0090 C   0  0  0  0  0  0  0  0  0  0  0  0
   11.0830   -1.3360   22.0700 C   0  0  0  0  0  0  0  0  0  0  0  0
   12.4640   -1.1930   22.2440 C   0  0  0  0  0  0  0  0  0  0  0  0
   12.9050   -1.6730   23.4470 C   0  0  0  0  0  0  0  0  0  0  0  0
   12.8750   -0.5900   24.2760 C   0  0  0  0  0  0  0  0  0  0  0  0
   11.6410   -0.2590   24.7750 C   0  0  0  0  0  0  0  0  0  0  0  0
   10.4800   -0.7870   24.2640 C   0  0  0  0  0  0  0  0  0  0  0  0
  1  2  2  0
  2  3  1  0
  3  4  1  0
  4  5  2  0
  5  6  1  0
  6  7  2  0
  7  8  1  0
  4  9  1  0
  8  9  2  0
  2 10  1  0
 11 10  1  0
 11 12  1  0
 12 13  1  0
 12 14  1  0
 13 14  1  0
 11 15  1  0
 15 16  1  0
 16 17  1  0
 17 18  1  0
 18 19  1  0
 11 20  1  0
 19 20  1  0
M  END
