pyridine_urea_5448
     RDKit          3D

 18 19  0  0  0  0  0  0  0  0999 V2000
   13.2230    0.2390   22.5740 C   0  0  0  0  0  0  0  0  0  0  0  0
   13.1750   -0.7290   23.7310 C   0  0  0  0  0  0  0  0  0  0  0  0
   11.8780   -1.2460   23.8880 N   0  0  0  0  0  0  0  0  0  0  0  0
   11.2570   -1.4560   22.5720 C   0  0  0  0  0  0  0  0  0  0  0  0
   10.2600   -0.5210   22.3610 C   0  0  1  0  0  0  0  0  0  0  0  0
    9.0310   -1.1490   22.0290 N   0  0  0  0  0  0  0  0  0  0  0  0
    8.2140   -0.2680   21.4230 C   0  0  0  0  0  0  0  0  0  0  0  0
    8.5400    0.9040   21.2780 O   0  0  0  0  0  0  0  0  0  0  0  0
    7.0410   -0.7930   20.9900 N   0  0  0  0  0  0  0  0  0  0  0  0
    6.4190   -0.0870   19.9750 C   0  0  0  0  0  0  0  0  0  0  0  0
    5.1410    0.6810   20.2450 C   0  0  0  0  0  0  0  0  0  0  0  0
    4.4290    1.4980   19.1840 C   0  0  0  0  0  0  0  0  0  0  0  0
    5.0950    1.5040   17.8070 C   0  0  0  0  0  0  0  0  0  0  0  0
    6.3290    0.7040   17.6790 N   0  0  0  0  0  0  0  0  0  0  0  0
    6.9090   -0.0200   18.7120 C   0  0  0  0  0  0  0  0  0  0  0  0
   10.2250    0.2770   23.6270 C   0  0  0  0  0  0  0  0  0  0  0  0
   10.9950   -0.5090   24.6280 C   0  0  0  0  0  0  0  0  0  0  0  0
   10.8490   -0.5260   25.8230 O   0  0  0  0  0  0  0  0  0  0  0  0
  1  2  1  0
  2  3  1  0
  3  4  1  0
  4  5  1  0
  5  6  1  1
  6  7  1  0
  7  8  2  0
  7  9  1  0
  9 10  1  0
 10 11  2  0
 11 12  1  0
 12 13  2  0
 13 14  1  0
 10 15  1  0
 14 15  2  0
  5 16  1  0
  3 17  1  0
 16 17  1  0
 17 18  2  0
M  END
