pyridine_urea_11572
     RDKit          3D

 21 22  0  0  0  0  0  0  0  0999 V2000
    9.0220    0.0900   25.5290 C   0  0  0  0  0  0  0  0  0  0  0  0
   10.2850   -0.1720   24.7610 C   0  0  0  0  0  0  0  0  0  0  0  0
   11.0700    0.8780   24.2760 C   0  0  0  0  0  0  0  0  0  0  0  0
    9.9360   -1.1220   23.5920 C   0  0  1  0  0  0  0  0  0  0  0  0
    8.6240   -0.9810   23.0040 N   0  0  0  0  0  0  0  0  0  0  0  0
    8.2250   -0.2560   21.8430 C   0  0  0  0  0  0  0  0  0  0  0  0
    8.8320    0.7160   21.4220 O   0  0  0  0  0  0  0  0  0  0  0  0
    7.0930   -0.7600   21.2780 N   0  0  0  0  0  0  0  0  0  0  0  0
    6.5040   -0.1130   20.2170 C   0  0  0  0  0  0  0  0  0  0  0  0
    5.3380    0.6200   20.4600 C   0  0  0  0  0  0  0  0  0  0  0  0
    4.6690    1.3530   19.2790 C   0  0  0  0  0  0  0  0  0  0  0  0
    5.2710    1.2420   18.0480 C   0  0  0  0  0  0  0  0  0  0  0  0
    6.3940    0.5260   17.8530 N   0  0  0  0  0  0  0  0  0  0  0  0
    6.9690   -0.1220   18.9050 C   0  0  0  0  0  0  0  0  0  0  0  0
   10.9330   -0.6860   22.7710 C   0  0  0  0  0  0  0  0  0  0  0  0
   10.6270   -1.3540   21.6320 C   0  0  0  0  0  0  0  0  0  0  0  0
   10.0040   -2.5630   21.8320 O   0  0  0  0  0  0  0  0  0  0  0  0
   12.3480   -0.9390   23.3630 C   0  0  0  0  0  0  0  0  0  0  0  0
   12.9730    0.3840   23.0750 C   0  0  0  0  0  0  0  0  0  0  0  0
   11.9980    1.3770   22.6840 C   0  0  0  0  0  0  0  0  0  0  0  0
   10.7930    0.7590   22.6700 C   0  0  0  0  0  0  0  0  0  0  0  0
  1  2  1  0
  2  3  1  0
  2  4  1  0
  4  5  1  6
  5  6  1  0
  6  7  2  0
  6  8  1  0
  8  9  1  0
  9 10  2  0
 10 11  1  0
 11 12  2  0
 12 13  1  0
  9 14  1  0
 13 14  2  0
  4 15  1  0
 15 16  1  0
 16 17  1  0
 15 18  1  0
 18 19  1  0
 19 20  2  0
 15 21  1  0
 20 21  1  0
M  END
