pyridine_urea_13119
     RDKit          3D

 21 22  0  0  0  0  0  0  0  0999 V2000
   11.3280   -3.2740   24.7460 C   0  0  0  0  0  0  0  0  0  0  0  0
   11.4890   -2.4310   23.5480 C   0  0  0  0  0  0  0  0  0  0  0  0
   10.6980   -2.9870   22.4870 N   0  0  0  0  0  0  0  0  0  0  0  0
    9.2910   -3.0960   22.9420 C   0  0  0  0  0  0  0  0  0  0  0  0
    8.9380   -3.9260   23.8110 O   0  0  0  0  0  0  0  0  0  0  0  0
    8.3310   -2.2400   22.4080 C   0  0  0  0  0  0  0  0  0  0  0  0
    8.8320   -0.8630   22.4910 N   0  0  0  0  0  0  0  0  0  0  0  0
    8.3820    0.0510   21.5700 C   0  0  0  0  0  0  0  0  0  0  0  0
    8.9550    1.1100   21.2670 O   0  0  0  0  0  0  0  0  0  0  0  0
    7.1930   -0.4040   21.0630 N   0  0  0  0  0  0  0  0  0  0  0  0
    6.4980    0.1870   20.0180 C   0  0  0  0  0  0  0  0  0  0  0  0
    5.3390    0.9090   20.3180 C   0  0  0  0  0  0  0  0  0  0  0  0
    4.6000    1.5670   19.1540 C   0  0  0  0  0  0  0  0  0  0  0  0
    5.1700    1.3670   17.9190 C   0  0  0  0  0  0  0  0  0  0  0  0
    6.2730    0.6650   17.6530 N   0  0  0  0  0  0  0  0  0  0  0  0
    6.9010    0.0970   18.7040 C   0  0  0  0  0  0  0  0  0  0  0  0
   10.8460   -1.0950   23.8820 C   0  0  0  0  0  0  0  0  0  0  0  0
   11.1380   -0.0210   23.0300 C   0  0  0  0  0  0  0  0  0  0  0  0
   12.4930    0.1220   22.7890 C   0  0  0  0  0  0  0  0  0  0  0  0
   12.9880   -1.0720   22.3210 C   0  0  0  0  0  0  0  0  0  0  0  0
   12.8010   -2.1530   23.1410 C   0  0  0  0  0  0  0  0  0  0  0  0
  1  2  1  0
  2  3  1  0
  3  4  1  0
  4  5  2  0
  4  6  1  0
  6  7  1  0
  7  8  1  0
  8  9  2  0
  8 10  1  0
 10 11  1  0
 11 12  2  0
 12 13  1  0
 13 14  2  0
 14 15  1  0
 11 16  1  0
 15 16  2  0
  2 17  1  0
 17 18  1  0
 18 19  1  0
 19 20  1  0
  2 21  1  0
 20 21  1  0
M  END
