pyridine_urea_9913
     RDKit          3D

 25 27  0  0  0  0  0  0  0  0999 V2000
   11.6130   -1.8540   21.9310 C   0  0  0  0  0  0  0  0  0  0  0  0
   10.2470   -1.2360   22.2630 C   0  0  1  0  0  0  0  0  0  0  0  0
    9.2370   -1.3250   21.2640 N   0  0  0  0  0  0  0  0  0  0  0  0
    8.4160   -0.2350   21.2190 C   0  0  0  0  0  0  0  0  0  0  0  0
    8.8410    0.9050   21.3550 O   0  0  0  0  0  0  0  0  0  0  0  0
    7.1150   -0.5680   20.9810 N   0  0  0  0  0  0  0  0  0  0  0  0
    6.4170    0.0760   19.9780 C   0  0  0  0  0  0  0  0  0  0  0  0
    5.1170    0.7950   20.3060 C   0  0  0  0  0  0  0  0  0  0  0  0
    4.4010    1.5130   19.1800 C   0  0  0  0  0  0  0  0  0  0  0  0
    5.1240    1.3990   17.8440 C   0  0  0  0  0  0  0  0  0  0  0  0
    6.2720    0.7260   17.6600 N   0  0  0  0  0  0  0  0  0  0  0  0
    6.8700    0.1020   18.6860 C   0  0  0  0  0  0  0  0  0  0  0  0
    9.5820   -1.8580   23.4530 C   0  0  1  0  0  0  0  0  0  0  0  0
    9.0980   -1.0170   24.4270 C   0  0  0  0  0  0  0  0  0  0  0  0
    7.9000   -1.3300   24.9900 N   0  0  0  0  0  0  0  0  0  0  0  0
    7.3840   -0.3540   25.7790 C   0  0  0  0  0  0  0  0  0  0  0  0
    6.9520   -0.7640   27.0360 C   0  0  0  0  0  0  0  0  0  0  0  0
    7.8030   -0.5010   28.2360 C   0  0  0  0  0  0  0  0  0  0  0  0
    7.3580   -0.9110   29.4690 C   0  0  0  0  0  0  0  0  0  0  0  0
    6.0610   -1.6010   29.6350 C   0  0  0  0  0  0  0  0  0  0  0  0
    5.2860   -1.8360   28.4980 C   0  0  0  0  0  0  0  0  0  0  0  0
    5.7120   -1.4320   27.2270 C   0  0  0  0  0  0  0  0  0  0  0  0
    7.2150   -2.5090   24.8660 C   0  0  0  0  0  0  0  0  0  0  0  0
    7.9840   -3.2990   24.0180 C   0  0  0  0  0  0  0  0  0  0  0  0
    8.5900   -2.4590   23.0610 O   0  0  0  0  0  0  0  0  0  0  0  0
  2  1  1  6
  2  3  1  0
  3  4  1  0
  4  5  2  0
  4  6  1  0
  6  7  1  0
  7  8  2  0
  8  9  1  0
  9 10  2  0
 10 11  1  0
  7 12  1  0
 11 12  2  0
  2 13  1  0
 13 14  1  1
 14 15  1  0
 15 16  1  0
 16 17  1  0
 17 18  2  0
 18 19  1  0
 19 20  2  0
 20 21  1  0
 17 22  1  0
 21 22  2  0
 15 23  1  0
 23 24  1  0
 13 25  1  0
 24 25  1  0
M  END
