pyridine_urea_10930
     RDKit          3D

 19 21  0  0  0  0  0  0  0  0999 V2000
    8.0620    0.1770   23.9170 C   0  0  0  0  0  0  0  0  0  0  0  0
    9.3920   -0.1360   23.3630 N   0  0  0  0  0  0  0  0  0  0  0  0
    9.6390   -1.1720   22.3200 N   0  0  0  0  0  0  0  0  0  0  0  0
   11.0860   -1.0640   22.1720 C   0  0  0  0  0  0  0  0  0  0  0  0
   10.2710   -0.4200   22.9260 C   0  0  0  0  0  0  0  0  0  0  0  0
    8.9630   -0.8130   22.7490 N   0  0  0  0  0  0  0  0  0  0  0  0
    8.4560    0.0310   21.5960 C   0  0  0  0  0  0  0  0  0  0  0  0
    8.8920    1.1320   21.1990 O   0  0  0  0  0  0  0  0  0  0  0  0
    7.4080   -0.5690   21.0450 N   0  0  0  0  0  0  0  0  0  0  0  0
    6.6170    0.0870   20.0500 C   0  0  0  0  0  0  0  0  0  0  0  0
    5.4150    0.8540   20.4760 C   0  0  0  0  0  0  0  0  0  0  0  0
    4.6080    1.5500   19.4110 C   0  0  0  0  0  0  0  0  0  0  0  0
    5.1570    1.3630   18.0040 C   0  0  0  0  0  0  0  0  0  0  0  0
    6.2710    0.6380   17.6010 N   0  0  0  0  0  0  0  0  0  0  0  0
    6.9560    0.0190   18.7240 C   0  0  0  0  0  0  0  0  0  0  0  0
   10.5570    0.5310   23.7970 C   0  0  0  0  0  0  0  0  0  0  0  0
   11.9410    0.6710   23.6870 C   0  0  0  0  0  0  0  0  0  0  0  0
   12.6760   -0.1130   22.9340 C   0  0  0  0  0  0  0  0  0  0  0  0
   12.7090   -0.7180   24.0780 C   0  0  0  0  0  0  0  0  0  0  0  0
  1  2  1  0
  2  3  1  0
  3  4  2  0
  4  5  1  0
  5  6  1  0
  6  7  1  0
  7  8  2  0
  7  9  1  0
  9 10  1  0
 10 11  2  0
 11 12  1  0
 12 13  2  0
 13 14  1  0
 10 15  1  0
 14 15  2  0
  2 16  1  0
  5 16  2  0
 16 17  1  0
 17 18  1  0
 17 19  1  0
 18 19  1  0
M  END
