pyridine_urea_12007
     RDKit          3D

 24 26  0  0  0  0  0  0  0  0999 V2000
    9.3280    6.1600   22.6730 C   0  0  0  0  0  0  0  0  0  0  0  0
   10.0140    5.6170   23.5410 O   0  0  0  0  0  0  0  0  0  0  0  0
   10.0750    4.2540   23.5030 C   0  0  0  0  0  0  0  0  0  0  0  0
    8.9850    3.5140   23.9370 C   0  0  0  0  0  0  0  0  0  0  0  0
    8.9360    2.1080   23.9580 C   0  0  0  0  0  0  0  0  0  0  0  0
   10.0820    1.4240   23.5050 C   0  0  0  0  0  0  0  0  0  0  0  0
   10.0820    0.0080   23.5190 C   0  0  0  0  0  0  0  0  0  0  0  0
    8.7330   -0.4280   23.1470 N   0  0  0  0  0  0  0  0  0  0  0  0
    8.5160   -0.5090   21.8130 C   0  0  0  0  0  0  0  0  0  0  0  0
    9.5820   -0.8390   21.0000 O   0  0  0  0  0  0  0  0  0  0  0  0
    7.3410   -0.2370   21.2640 N   0  0  0  0  0  0  0  0  0  0  0  0
    6.5680    0.2340   20.2260 C   0  0  0  0  0  0  0  0  0  0  0  0
    5.3820    0.9540   20.4590 C   0  0  0  0  0  0  0  0  0  0  0  0
    4.6500    1.4290   19.3690 C   0  0  0  0  0  0  0  0  0  0  0  0
    5.1090    1.1800   18.0820 C   0  0  0  0  0  0  0  0  0  0  0  0
    6.2290    0.4910   17.8190 N   0  0  0  0  0  0  0  0  0  0  0  0
    6.9040    0.0490   18.8890 C   0  0  0  0  0  0  0  0  0  0  0  0
   10.8810   -0.4830   22.3130 C   0  0  0  0  0  0  0  0  0  0  0  0
   12.1190   -1.0720   22.6070 C   0  0  0  0  0  0  0  0  0  0  0  0
   12.8340   -0.3340   23.5180 C   0  0  0  0  0  0  0  0  0  0  0  0
   12.0420    0.0070   24.5910 C   0  0  0  0  0  0  0  0  0  0  0  0
   10.7660   -0.5600   24.5600 C   0  0  0  0  0  0  0  0  0  0  0  0
   11.2500    2.0870   23.0350 C   0  0  0  0  0  0  0  0  0  0  0  0
   11.3000    3.4870   23.0120 C   0  0  0  0  0  0  0  0  0  0  0  0
  1  2  1  0
  2  3  1  0
  3  4  2  0
  4  5  1  0
  5  6  2  0
  6  7  1  0
  7  8  1  0
  8  9  1  0
  9 10  2  0
  9 11  1  0
 11 12  1  0
 12 13  2  0
 13 14  1  0
 14 15  2  0
 15 16  1  0
 12 17  1  0
 16 17  2  0
  7 18  1  0
 18 19  1  0
 19 20  1  0
 20 21  1  0
  7 22  1  0
 21 22  1  0
  6 23  1  0
  3 24  1  0
 23 24  2  0
M  END
