pyridine_urea_4944
     RDKit          3D

 21 22  0  0  0  0  0  0  0  0999 V2000
   13.5820   -1.9890   24.9290 C   0  0  0  0  0  0  0  0  0  0  0  0
   13.6940   -0.7550   24.1870 O   0  0  0  0  0  0  0  0  0  0  0  0
   12.5550   -0.4510   23.6080 C   0  0  0  0  0  0  0  0  0  0  0  0
   12.1580    0.8900   23.0550 C   0  0  0  0  0  0  0  0  0  0  0  0
   12.6310    2.1810   22.8740 C   0  0  0  0  0  0  0  0  0  0  0  0
   10.8520    0.5390   22.6300 C   0  0  0  0  0  0  0  0  0  0  0  0
   10.0050   -0.5670   22.5930 N   0  0  0  0  0  0  0  0  0  0  0  0
   10.2780   -1.8680   23.0570 C   0  0  0  0  0  0  0  0  0  0  0  0
    9.0520   -1.7850   22.5240 C   0  0  0  0  0  0  0  0  0  0  0  0
    9.0050   -0.9740   21.4630 N   0  0  0  0  0  0  0  0  0  0  0  0
    8.1850    0.0500   21.1930 C   0  0  0  0  0  0  0  0  0  0  0  0
    8.6310    1.4110   21.0440 O   0  0  0  0  0  0  0  0  0  0  0  0
    6.9120   -0.3400   21.0670 N   0  0  0  0  0  0  0  0  0  0  0  0
    6.3210    0.2260   20.0210 C   0  0  0  0  0  0  0  0  0  0  0  0
    5.1390    0.9310   20.2360 C   0  0  0  0  0  0  0  0  0  0  0  0
    4.5190    1.5510   19.1500 C   0  0  0  0  0  0  0  0  0  0  0  0
    5.1700    1.4160   17.8170 C   0  0  0  0  0  0  0  0  0  0  0  0
    6.3010    0.7220   17.6550 N   0  0  0  0  0  0  0  0  0  0  0  0
    6.8420    0.1500   18.7420 C   0  0  0  0  0  0  0  0  0  0  0  0
   11.7410   -1.5880   23.5880 C   0  0  0  0  0  0  0  0  0  0  0  0
   12.2130   -2.7540   24.1180 C   0  0  0  0  0  0  0  0  0  0  0  0
  1  2  1  0
  2  3  1  0
  3  4  2  0
  4  5  1  0
  4  6  1  0
  6  7  2  0
  7  8  1  0
  8  9  1  0
  9 10  1  0
 10 11  1  0
 11 12  2  0
 11 13  1  0
 13 14  1  0
 14 15  2  0
 15 16  1  0
 16 17  2  0
 17 18  1  0
 14 19  1  0
 18 19  2  0
  3 20  1  0
  8 20  2  0
 20 21  1  0
M  END
