pyridine_urea_1087
     RDKit          3D

 21 22  0  0  0  0  0  0  0  0999 V2000
    7.2850   -2.9380   22.9480 C   0  0  0  0  0  0  0  0  0  0  0  0
    7.9330   -2.2680   24.1250 C   0  0  1  0  0  0  0  0  0  0  0  0
    8.8350   -1.2360   23.8430 C   0  0  0  0  0  0  0  0  0  0  0  0
    9.0820   -1.1690   22.3790 N   0  0  0  0  0  0  0  0  0  0  0  0
    8.4050   -0.3320   21.5590 C   0  0  0  0  0  0  0  0  0  0  0  0
    8.9160    0.7630   21.3280 O   0  0  0  0  0  0  0  0  0  0  0  0
    7.1300   -0.8040   21.0460 N   0  0  0  0  0  0  0  0  0  0  0  0
    6.5150   -0.1000   20.0430 C   0  0  0  0  0  0  0  0  0  0  0  0
    5.2470    0.6640   20.3690 C   0  0  0  0  0  0  0  0  0  0  0  0
    4.5590    1.4570   19.2570 C   0  0  0  0  0  0  0  0  0  0  0  0
    5.2270    1.4060   17.8950 C   0  0  0  0  0  0  0  0  0  0  0  0
    6.3640    0.6770   17.7310 N   0  0  0  0  0  0  0  0  0  0  0  0
    6.9850   -0.0480   18.7440 C   0  0  0  0  0  0  0  0  0  0  0  0
    7.0620   -1.9080   25.1550 N   0  0  0  0  0  0  0  0  0  0  0  0
    7.4150   -0.8010   25.8760 C   0  0  0  0  0  0  0  0  0  0  0  0
    7.0090   -0.9470   27.2040 C   0  0  0  0  0  0  0  0  0  0  0  0
    5.7610   -1.4860   27.5020 C   0  0  0  0  0  0  0  0  0  0  0  0
    5.4080   -1.6020   28.8400 C   0  0  0  0  0  0  0  0  0  0  0  0
    6.2700   -1.2000   29.8490 C   0  0  0  0  0  0  0  0  0  0  0  0
    7.5180   -0.6650   29.5900 C   0  0  0  0  0  0  0  0  0  0  0  0
    7.8740   -0.5420   28.2470 C   0  0  0  0  0  0  0  0  0  0  0  0
  2  1  1  6
  2  3  1  0
  3  4  1  0
  4  5  1  0
  5  6  2  0
  5  7  1  0
  7  8  1  0
  8  9  2  0
  9 10  1  0
 10 11  2  0
 11 12  1  0
  8 13  1  0
 12 13  2  0
  2 14  1  0
 14 15  1  0
 15 16  1  0
 16 17  2  0
 17 18  1  0
 18 19  2  0
 19 20  1  0
 16 21  1  0
 20 21  2  0
M  END
