pyridine_urea_12663
     RDKit          3D

 21 22  0  0  0  0  0  0  0  0999 V2000
   11.5300   -3.6040   25.2680 C   0  0  0  0  0  0  0  0  0  0  0  0
   12.4000   -2.9040   24.5370 N   0  0  0  0  0  0  0  0  0  0  0  0
   13.7600   -3.1130   24.7590 C   0  0  0  0  0  0  0  0  0  0  0  0
   12.1230   -1.6980   24.9200 C   0  0  0  0  0  0  0  0  0  0  0  0
   11.7870   -0.9050   23.9460 C   0  0  0  0  0  0  0  0  0  0  0  0
   12.8090    0.0170   23.7390 C   0  0  0  0  0  0  0  0  0  0  0  0
   12.7190    0.9470   22.8500 C   0  0  0  0  0  0  0  0  0  0  0  0
   11.5580    0.6530   22.3910 C   0  0  0  0  0  0  0  0  0  0  0  0
   10.4960   -0.1310   22.4250 C   0  0  0  0  0  0  0  0  0  0  0  0
   10.5110   -1.1580   23.3640 C   0  0  0  0  0  0  0  0  0  0  0  0
    9.3280   -1.2620   22.7010 C   0  0  0  0  0  0  0  0  0  0  0  0
    8.5820   -0.1450   22.6490 N   0  0  0  0  0  0  0  0  0  0  0  0
    8.1270    0.4090   21.4670 C   0  0  0  0  0  0  0  0  0  0  0  0
    8.6140    1.4370   20.9900 O   0  0  0  0  0  0  0  0  0  0  0  0
    7.1280   -0.3530   20.9860 N   0  0  0  0  0  0  0  0  0  0  0  0
    6.4690    0.2070   19.9730 C   0  0  0  0  0  0  0  0  0  0  0  0
    5.3250    0.9280   20.2760 C   0  0  0  0  0  0  0  0  0  0  0  0
    4.6170    1.5520   19.1930 C   0  0  0  0  0  0  0  0  0  0  0  0
    5.1230    1.3930   17.9210 C   0  0  0  0  0  0  0  0  0  0  0  0
    6.2620    0.6560   17.6610 N   0  0  0  0  0  0  0  0  0  0  0  0
    6.8880    0.0940   18.6860 C   0  0  0  0  0  0  0  0  0  0  0  0
  1  2  1  0
  2  3  1  0
  2  4  1  0
  4  5  1  0
  5  6  2  0
  6  7  1  0
  7  8  2  0
  8  9  1  0
  5 10  1  0
  9 10  2  0
 10 11  1  0
 11 12  1  0
 12 13  1  0
 13 14  2  0
 13 15  1  0
 15 16  1  0
 16 17  2  0
 17 18  1  0
 18 19  2  0
 19 20  1  0
 16 21  1  0
 20 21  2  0
M  END
