pyridine_urea_944
     RDKit          3D

 22 25  0  0  0  0  0  0  0  0999 V2000
    8.7120    0.5680   21.2170 O   0  0  0  0  0  0  0  0  0  0  0  0
    8.3010   -0.5660   21.4210 C   0  0  0  0  0  0  0  0  0  0  0  0
    6.9490   -0.9400   21.0300 N   0  0  0  0  0  0  0  0  0  0  0  0
    6.3560   -0.1730   20.0300 C   0  0  0  0  0  0  0  0  0  0  0  0
    5.1740    0.5320   20.2730 C   0  0  0  0  0  0  0  0  0  0  0  0
    4.6180    1.2920   19.2370 C   0  0  0  0  0  0  0  0  0  0  0  0
    5.2620    1.3240   17.9960 C   0  0  0  0  0  0  0  0  0  0  0  0
    6.3980    0.6490   17.7560 N   0  0  0  0  0  0  0  0  0  0  0  0
    6.9210   -0.0850   18.7730 C   0  0  0  0  0  0  0  0  0  0  0  0
    8.9920   -1.6050   22.0200 N   0  0  0  0  0  0  0  0  0  0  0  0
   10.1510   -1.2180   22.8010 C   0  0  1  0  0  0  0  0  0  0  0  0
   11.4050   -1.3940   21.9640 C   0  0  0  0  0  0  0  0  0  0  0  0
   12.5830   -0.9310   22.5390 C   0  0  2  0  0  0  0  0  0  0  0  0
   12.9370   -1.8100   23.5590 C   0  0  0  0  0  0  0  0  0  0  0  0
   11.8610   -1.8940   24.4530 C   0  0  1  0  0  0  0  0  0  0  0  0
   11.7650   -0.6540   25.0970 C   0  0  0  0  0  0  0  0  0  0  0  0
   11.3550    0.2300   24.1330 C   0  0  1  0  0  0  0  0  0  0  0  0
   11.7290    1.5110   23.7910 C   0  0  0  0  0  0  0  0  0  0  0  0
   10.8030    1.9500   22.8010 O   0  0  0  0  0  0  0  0  0  0  0  0
   12.2270    0.3090   23.0680 C   0  0  0  0  0  0  0  0  0  0  0  0
   10.0020   -0.0950   23.5630 C   0  0  0  0  0  0  0  0  0  0  0  0
   10.6460   -2.2380   23.7850 C   0  0  0  0  0  0  0  0  0  0  0  0
  1  2  2  0
  2  3  1  0
  3  4  1  0
  4  5  2  0
  5  6  1  0
  6  7  2  0
  7  8  1  0
  4  9  1  0
  8  9  2  0
  2 10  1  0
 11 10  1  6
 11 12  1  0
 13 12  1  1
 13 14  1  0
 15 14  1  6
 15 16  1  0
 16 17  1  0
 17 18  1  1
 18 19  1  0
 13 20  1  0
 17 20  1  0
 11 21  1  0
 17 21  1  0
 11 22  1  0
 15 22  1  0
M  END
