pyridine_urea_10969
     RDKit          3D

 19 20  0  0  0  0  0  0  0  0999 V2000
    8.7090    1.2080   21.0490 O   0  0  0  0  0  0  0  0  0  0  0  0
    8.5060    0.0610   21.4640 C   0  0  0  0  0  0  0  0  0  0  0  0
    7.2810   -0.6370   21.0880 N   0  0  0  0  0  0  0  0  0  0  0  0
    6.5440   -0.0000   20.0870 C   0  0  0  0  0  0  0  0  0  0  0  0
    5.3750    0.7050   20.3930 C   0  0  0  0  0  0  0  0  0  0  0  0
    4.6820    1.3380   19.3570 C   0  0  0  0  0  0  0  0  0  0  0  0
    5.1770    1.2500   18.0540 C   0  0  0  0  0  0  0  0  0  0  0  0
    6.2910    0.5730   17.7450 N   0  0  0  0  0  0  0  0  0  0  0  0
    6.9500   -0.0390   18.7640 C   0  0  0  0  0  0  0  0  0  0  0  0
    9.3400   -0.6850   22.2870 N   0  0  0  0  0  0  0  0  0  0  0  0
   10.4320    0.0030   22.9870 C   0  0  2  0  0  0  0  0  0  0  0  0
   10.2040    1.5430   22.8730 C   0  0  0  0  0  0  0  0  0  0  0  0
   11.2360    2.4960   22.9910 C   0  0  0  0  0  0  0  0  0  0  0  0
   11.0380    3.4500   23.9230 F   0  0  0  0  0  0  0  0  0  0  0  0
   12.4650    1.9730   23.1310 F   0  0  0  0  0  0  0  0  0  0  0  0
   11.2880    3.2910   21.9060 F   0  0  0  0  0  0  0  0  0  0  0  0
   11.6590   -0.5280   22.5240 C   0  0  0  0  0  0  0  0  0  0  0  0
   12.8020    0.0490   22.7300 C   0  0  0  0  0  0  0  0  0  0  0  0
   12.7750   -0.9310   23.5430 C   0  0  0  0  0  0  0  0  0  0  0  0
  1  2  2  0
  2  3  1  0
  3  4  1  0
  4  5  2  0
  5  6  1  0
  6  7  2  0
  7  8  1  0
  4  9  1  0
  8  9  2  0
  2 10  1  0
 10 11  1  0
 11 12  1  6
 12 13  1  0
 13 14  1  0
 13 15  1  0
 13 16  1  0
 11 17  1  0
 17 18  1  0
 17 19  1  0
 18 19  1  0
M  END
