pyridine_urea_4314
     RDKit          3D

 24 26  0  0  0  0  0  0  0  0999 V2000
   11.9800    5.7140   22.7000 C   0  0  0  0  0  0  0  0  0  0  0  0
   12.3650    4.2300   22.8290 C   0  0  2  0  0  0  0  0  0  0  0  0
   13.1210    3.7780   21.5140 C   0  0  0  0  0  0  0  0  0  0  0  0
   14.3830    3.0780   21.3630 C   0  0  0  0  0  0  0  0  0  0  0  0
   14.9940    2.7140   19.9740 C   0  0  0  0  0  0  0  0  0  0  0  0
   14.3580    3.0200   18.7750 N   0  0  0  0  0  0  0  0  0  0  0  0
   13.1820    3.6460   18.9040 C   0  0  0  0  0  0  0  0  0  0  0  0
   12.5380    4.0530   20.2690 C   0  0  0  0  0  0  0  0  0  0  0  0
   11.1530    3.5040   23.0650 N   0  0  0  0  0  0  0  0  0  0  0  0
   11.2900    2.1960   22.9030 C   0  0  0  0  0  0  0  0  0  0  0  0
   10.1990    1.3340   22.8130 C   0  0  0  0  0  0  0  0  0  0  0  0
    9.1840    1.5560   23.6000 C   0  0  0  0  0  0  0  0  0  0  0  0
    8.0980    0.8980   23.0890 N   0  0  0  0  0  0  0  0  0  0  0  0
    8.0630    0.7420   21.7280 C   0  0  0  0  0  0  0  0  0  0  0  0
    8.7430    1.4410   20.9900 O   0  0  0  0  0  0  0  0  0  0  0  0
    7.2000   -0.2120   21.3070 N   0  0  0  0  0  0  0  0  0  0  0  0
    6.5980    0.1830   20.1640 C   0  0  0  0  0  0  0  0  0  0  0  0
    5.3860    1.0260   20.4170 C   0  0  0  0  0  0  0  0  0  0  0  0
    4.6930    1.5170   19.3210 C   0  0  0  0  0  0  0  0  0  0  0  0
    5.1690    1.1980   17.9660 C   0  0  0  0  0  0  0  0  0  0  0  0
    6.2210    0.4520   17.7070 N   0  0  0  0  0  0  0  0  0  0  0  0
    6.9820   -0.0920   18.8500 C   0  0  0  0  0  0  0  0  0  0  0  0
    8.9500    2.9250   23.8110 C   0  0  0  0  0  0  0  0  0  0  0  0
   10.1360    3.7240   24.0840 C   0  0  0  0  0  0  0  0  0  0  0  0
  2  1  1  6
  2  3  1  0
  3  4  2  0
  4  5  1  0
  5  6  2  0
  6  7  1  0
  3  8  1  0
  7  8  2  0
  2  9  1  0
  9 10  1  0
 10 11  1  0
 11 12  1  0
 12 13  1  0
 13 14  1  0
 14 15  2  0
 14 16  1  0
 16 17  1  0
 17 18  2  0
 18 19  1  0
 19 20  2  0
 20 21  1  0
 17 22  1  0
 21 22  2  0
 12 23  1  0
  9 24  1  0
 23 24  1  0
M  END
