pyridine_urea_12810
     RDKit          3D

 20 21  0  0  0  0  0  0  0  0999 V2000
   13.0570   -1.9680   24.5940 C   0  0  0  0  0  0  0  0  0  0  0  0
   12.7880   -2.2960   23.1000 C   0  0  0  0  0  0  0  0  0  0  0  0
   12.7930   -1.1100   22.2940 O   0  0  0  0  0  0  0  0  0  0  0  0
   11.9830   -0.1950   22.9500 C   0  0  0  0  0  0  0  0  0  0  0  0
   13.1060    0.5280   22.9880 C   0  0  0  0  0  0  0  0  0  0  0  0
   12.0100    0.9860   23.5060 C   0  0  0  0  0  0  0  0  0  0  0  0
   10.7910    0.2340   23.4540 C   0  0  0  0  0  0  0  0  0  0  0  0
   10.3300   -0.9800   22.9570 C   0  0  0  0  0  0  0  0  0  0  0  0
    9.0030   -0.9810   22.4550 N   0  0  0  0  0  0  0  0  0  0  0  0
    8.4440   -0.0660   21.5620 C   0  0  0  0  0  0  0  0  0  0  0  0
    8.9860    1.2310   21.2300 O   0  0  0  0  0  0  0  0  0  0  0  0
    7.2560   -0.5590   21.0420 N   0  0  0  0  0  0  0  0  0  0  0  0
    6.5350    0.0600   20.0370 C   0  0  0  0  0  0  0  0  0  0  0  0
    5.3730    0.7720   20.3770 C   0  0  0  0  0  0  0  0  0  0  0  0
    4.6440    1.4170   19.3660 C   0  0  0  0  0  0  0  0  0  0  0  0
    5.1560    1.3070   17.9720 C   0  0  0  0  0  0  0  0  0  0  0  0
    6.2590    0.6130   17.6830 N   0  0  0  0  0  0  0  0  0  0  0  0
    6.9100    0.0160   18.7080 C   0  0  0  0  0  0  0  0  0  0  0  0
   10.2020    1.2930   24.1480 C   0  0  0  0  0  0  0  0  0  0  0  0
   11.5550    1.1760   23.7210 N   0  0  0  0  0  0  0  0  0  0  0  0
  1  2  1  0
  2  3  1  0
  3  4  1  0
  4  5  2  0
  5  6  1  0
  6  7  2  0
  7  8  1  0
  8  9  1  0
  9 10  1  0
 10 11  2  0
 10 12  1  0
 12 13  1  0
 13 14  2  0
 14 15  1  0
 15 16  2  0
 16 17  1  0
 13 18  1  0
 17 18  2  0
  7 19  1  0
  4 20  1  0
 19 20  2  0
M  END
