pyridine_urea_11511
     RDKit          3D

 20 22  0  0  0  0  0  0  0  0999 V2000
    8.5980    0.9720   21.2080 O   0  0  0  0  0  0  0  0  0  0  0  0
    8.1780   -0.1780   21.2900 C   0  0  0  0  0  0  0  0  0  0  0  0
    8.8860   -1.2310   21.7350 N   0  0  0  0  0  0  0  0  0  0  0  0
   10.0740   -1.0700   22.4000 C   0  0  0  0  0  0  0  0  0  0  0  0
    9.9460   -0.7680   23.7290 C   0  0  0  0  0  0  0  0  0  0  0  0
    8.7410   -0.7560   24.3620 N   0  0  0  0  0  0  0  0  0  0  0  0
    8.9540   -0.4440   25.6360 N   0  0  0  0  0  0  0  0  0  0  0  0
   10.2590   -0.3070   25.6230 C   0  0  0  0  0  0  0  0  0  0  0  0
   11.1710   -0.4380   24.5500 C   0  0  0  0  0  0  0  0  0  0  0  0
   12.5110   -0.3680   24.1920 C   0  0  0  0  0  0  0  0  0  0  0  0
   12.7550    0.1910   22.9750 C   0  0  0  0  0  0  0  0  0  0  0  0
   12.8150   -1.2060   22.4330 C   0  0  0  0  0  0  0  0  0  0  0  0
   12.6630   -1.8510   23.6910 C   0  0  0  0  0  0  0  0  0  0  0  0
    6.9330   -0.5800   20.9190 N   0  0  0  0  0  0  0  0  0  0  0  0
    6.2790    0.0780   19.9780 C   0  0  0  0  0  0  0  0  0  0  0  0
    5.0990    0.7760   20.1310 C   0  0  0  0  0  0  0  0  0  0  0  0
    4.5330    1.4400   19.0590 C   0  0  0  0  0  0  0  0  0  0  0  0
    5.1500    1.4090   17.8200 C   0  0  0  0  0  0  0  0  0  0  0  0
    6.2900    0.7200   17.6840 N   0  0  0  0  0  0  0  0  0  0  0  0
    6.8370    0.0730   18.7300 C   0  0  0  0  0  0  0  0  0  0  0  0
  1  2  2  0
  2  3  1  0
  3  4  1  0
  4  5  1  0
  5  6  1  0
  6  7  1  0
  7  8  2  0
  5  9  2  0
  8  9  1  0
  9 10  1  0
 10 11  1  0
 11 12  1  0
 10 13  1  0
 12 13  1  0
  2 14  1  0
 14 15  1  0
 15 16  2  0
 16 17  1  0
 17 18  2  0
 18 19  1  0
 15 20  1  0
 19 20  2  0
M  END
