pyridine_urea_13807
     RDKit          3D

 23 25  0  0  0  0  0  0  0  0999 V2000
   14.7980   -1.4110   19.7440 N   0  0  0  0  0  0  0  0  0  0  0  0
   13.8670   -1.5460   20.3050 C   0  0  0  0  0  0  0  0  0  0  0  0
   12.8010   -1.5790   20.7790 C   0  0  0  0  0  0  0  0  0  0  0  0
   11.4670   -1.6200   21.3730 C   0  0  0  0  0  0  0  0  0  0  0  0
   11.3130   -0.7380   22.5080 C   0  0  0  0  0  0  0  0  0  0  0  0
   12.0630    0.2320   22.9420 C   0  0  0  0  0  0  0  0  0  0  0  0
   13.1480    0.4720   22.2890 N   0  0  0  0  0  0  0  0  0  0  0  0
   13.4140   -0.7560   21.7680 C   0  0  0  0  0  0  0  0  0  0  0  0
   14.2860   -1.4520   22.2130 O   0  0  0  0  0  0  0  0  0  0  0  0
   11.4750    0.8160   24.0150 C   0  0  0  0  0  0  0  0  0  0  0  0
   10.2200    1.2620   23.7760 C   0  0  0  0  0  0  0  0  0  0  0  0
    9.5270   -0.1150   23.5980 C   0  0  1  0  0  0  0  0  0  0  0  0
    8.3250   -0.0670   22.9700 N   0  0  0  0  0  0  0  0  0  0  0  0
    8.2310    0.2810   21.6430 C   0  0  0  0  0  0  0  0  0  0  0  0
    8.9930    1.3420   21.0590 O   0  0  0  0  0  0  0  0  0  0  0  0
    7.3210   -0.5150   21.0130 N   0  0  0  0  0  0  0  0  0  0  0  0
    6.6130    0.1020   20.0200 C   0  0  0  0  0  0  0  0  0  0  0  0
    5.4260    0.7820   20.1920 C   0  0  0  0  0  0  0  0  0  0  0  0
    4.4920    1.5240   19.2280 C   0  0  0  0  0  0  0  0  0  0  0  0
    5.3070    1.2750   17.9680 C   0  0  0  0  0  0  0  0  0  0  0  0
    6.4630    0.6220   17.7330 N   0  0  0  0  0  0  0  0  0  0  0  0
    7.0840    0.0540   18.7490 C   0  0  0  0  0  0  0  0  0  0  0  0
   10.1590   -1.1730   22.9490 C   0  0  0  0  0  0  0  0  0  0  0  0
  1  2  3  0
  2  3  1  0
  3  4  2  0
  4  5  1  0
  5  6  2  0
  6  7  1  0
  3  8  1  0
  7  8  1  0
  8  9  2  0
  6 10  1  0
 10 11  1  0
 11 12  1  0
 12 13  1  6
 13 14  1  0
 14 15  2  0
 14 16  1  0
 16 17  1  0
 17 18  2  0
 18 19  1  0
 19 20  2  0
 20 21  1  0
 17 22  1  0
 21 22  2  0
  5 23  1  0
 12 23  1  0
M  END
