pyridine_urea_10111
     RDKit          3D

 23 25  0  0  0  0  0  0  0  0999 V2000
    8.6350    0.6710   21.1690 O   0  0  0  0  0  0  0  0  0  0  0  0
    7.8160   -0.1170   21.6160 C   0  0  0  0  0  0  0  0  0  0  0  0
    6.8300   -0.7090   20.8840 N   0  0  0  0  0  0  0  0  0  0  0  0
    6.1830    0.0210   19.9090 C   0  0  0  0  0  0  0  0  0  0  0  0
    4.9790    0.6910   20.0700 C   0  0  0  0  0  0  0  0  0  0  0  0
    4.4580    1.4070   18.9990 C   0  0  0  0  0  0  0  0  0  0  0  0
    5.1650    1.4180   17.8150 C   0  0  0  0  0  0  0  0  0  0  0  0
    6.3270    0.7690   17.6400 N   0  0  0  0  0  0  0  0  0  0  0  0
    6.8010    0.0910   18.6880 C   0  0  0  0  0  0  0  0  0  0  0  0
    7.7330   -0.5030   22.9180 N   0  0  0  0  0  0  0  0  0  0  0  0
    8.8490   -0.4820   23.7040 C   0  0  0  0  0  0  0  0  0  0  0  0
    9.0070   -0.1860   25.0400 C   0  0  0  0  0  0  0  0  0  0  0  0
   10.2630   -0.2340   25.6320 C   0  0  0  0  0  0  0  0  0  0  0  0
   11.3680   -0.5680   24.8850 C   0  0  0  0  0  0  0  0  0  0  0  0
   12.5970   -0.6210   25.4030 F   0  0  0  0  0  0  0  0  0  0  0  0
   11.2010   -0.8510   23.5820 C   0  0  0  0  0  0  0  0  0  0  0  0
   12.1030   -1.1250   22.8690 N   0  0  0  0  0  0  0  0  0  0  0  0
   12.4880    0.1130   22.6990 C   0  0  0  0  0  0  0  0  0  0  0  0
   13.6550   -0.2940   22.3390 C   0  0  0  0  0  0  0  0  0  0  0  0
   13.6730   -0.9970   21.3290 O   0  0  0  0  0  0  0  0  0  0  0  0
   13.1110   -2.3050   21.4490 C   0  0  0  0  0  0  0  0  0  0  0  0
   11.8490   -2.0400   21.8540 C   0  0  0  0  0  0  0  0  0  0  0  0
   10.0410   -0.8340   22.9500 C   0  0  0  0  0  0  0  0  0  0  0  0
  1  2  2  0
  2  3  1  0
  3  4  1  0
  4  5  2  0
  5  6  1  0
  6  7  2  0
  7  8  1  0
  4  9  1  0
  8  9  2  0
  2 10  1  0
 10 11  1  0
 11 12  2  0
 12 13  1  0
 13 14  2  0
 14 15  1  0
 14 16  1  0
 16 17  1  0
 17 18  1  0
 18 19  1  0
 19 20  1  0
 20 21  1  0
 17 22  1  0
 21 22  1  0
 11 23  1  0
 16 23  2  0
M  END
