pyridine_urea_10939
     RDKit          3D

 19 19  0  0  0  0  0  0  0  0999 V2000
   13.7780   -2.6770   25.5360 C   0  0  0  0  0  0  0  0  0  0  0  0
   12.7180   -1.9230   24.8430 C   0  0  0  0  0  0  0  0  0  0  0  0
   12.2000   -2.5460   23.7270 C   0  0  0  0  0  0  0  0  0  0  0  0
   13.2080   -0.8040   24.6510 O   0  0  0  0  0  0  0  0  0  0  0  0
   12.8880   -0.1340   23.5280 C   0  0  0  0  0  0  0  0  0  0  0  0
   12.5810    1.2560   23.2890 O   0  0  0  0  0  0  0  0  0  0  0  0
   12.8350   -0.9300   22.4060 C   0  0  0  0  0  0  0  0  0  0  0  0
   11.4680   -1.4860   22.1020 C   0  0  0  0  0  0  0  0  0  0  0  0
   10.4050   -0.7140   22.8890 C   0  0  0  0  0  0  0  0  0  0  0  0
    9.0650   -0.7680   22.4490 N   0  0  0  0  0  0  0  0  0  0  0  0
    8.4790    0.0860   21.5320 C   0  0  0  0  0  0  0  0  0  0  0  0
    8.8720    1.2150   21.1810 O   0  0  0  0  0  0  0  0  0  0  0  0
    7.2590   -0.4830   20.9880 N   0  0  0  0  0  0  0  0  0  0  0  0
    6.5200    0.1220   20.0280 C   0  0  0  0  0  0  0  0  0  0  0  0
    5.3620    0.8460   20.3100 C   0  0  0  0  0  0  0  0  0  0  0  0
    4.6560    1.4620   19.2710 C   0  0  0  0  0  0  0  0  0  0  0  0
    5.1400    1.3230   17.9830 C   0  0  0  0  0  0  0  0  0  0  0  0
    6.2420    0.6290   17.6670 N   0  0  0  0  0  0  0  0  0  0  0  0
    6.9200    0.0320   18.7240 C   0  0  0  0  0  0  0  0  0  0  0  0
  1  2  1  0
  2  3  1  0
  2  4  1  0
  4  5  1  0
  5  6  2  0
  5  7  1  0
  7  8  1  0
  8  9  1  0
  9 10  1  0
 10 11  1  0
 11 12  2  0
 11 13  1  0
 13 14  1  0
 14 15  2  0
 15 16  1  0
 16 17  2  0
 17 18  1  0
 14 19  1  0
 18 19  2  0
M  END
