pyridine_urea_8517
     RDKit          3D

 22 23  0  0  0  0  0  0  0  0999 V2000
    8.7720    0.9180   21.4990 O   0  0  0  0  0  0  0  0  0  0  0  0
    8.5340   -0.2630   21.2990 C   0  0  0  0  0  0  0  0  0  0  0  0
    9.4910   -1.2400   21.3830 N   0  0  0  0  0  0  0  0  0  0  0  0
   10.6050   -0.9440   22.1760 C   0  0  0  0  0  0  0  0  0  0  0  0
   11.8500   -1.6090   22.2010 C   0  0  1  0  0  0  0  0  0  0  0  0
   12.5600   -2.1570   21.1420 C   0  0  0  0  0  0  0  0  0  0  0  0
   13.4690   -1.4320   20.7730 O   0  0  0  0  0  0  0  0  0  0  0  0
   12.7210   -0.4350   22.6490 C   0  0  0  0  0  0  0  0  0  0  0  0
   12.9850   -0.4900   24.0750 C   0  0  0  0  0  0  0  0  0  0  0  0
   11.7240   -0.3910   24.2780 C   0  0  0  0  0  0  0  0  0  0  0  0
   10.5020   -0.2360   23.5000 C   0  0  0  0  0  0  0  0  0  0  0  0
    9.8400   -0.2750   24.6320 C   0  0  0  0  0  0  0  0  0  0  0  0
    8.1250   -0.1660   24.8650 Cl  0  0  0  0  0  0  0  0  0  0  0  0
   10.8870   -0.4240   25.5950 C   0  0  0  0  0  0  0  0  0  0  0  0
   12.4100   -0.5120   25.3520 C   0  0  0  0  0  0  0  0  0  0  0  0
    7.2950   -0.7030   20.9210 N   0  0  0  0  0  0  0  0  0  0  0  0
    6.5150   -0.0430   19.9700 C   0  0  0  0  0  0  0  0  0  0  0  0
    5.3350    0.6170   20.3380 C   0  0  0  0  0  0  0  0  0  0  0  0
    4.6200    1.2780   19.3480 C   0  0  0  0  0  0  0  0  0  0  0  0
    5.0910    1.2640   18.0450 C   0  0  0  0  0  0  0  0  0  0  0  0
    6.2110    0.6260   17.6850 N   0  0  0  0  0  0  0  0  0  0  0  0
    6.8880   -0.0070   18.6540 C   0  0  0  0  0  0  0  0  0  0  0  0
  1  2  2  0
  2  3  1  0
  3  4  1  0
  5  4  1  6
  5  6  1  0
  6  7  1  0
  5  8  1  0
  8  9  1  0
  9 10  2  0
 10 11  1  0
 11 12  2  0
 12 13  1  0
 12 14  1  0
  9 15  1  0
 14 15  2  0
  2 16  1  0
 16 17  1  0
 17 18  2  0
 18 19  1  0
 19 20  2  0
 20 21  1  0
 17 22  1  0
 21 22  2  0
M  END
