pyridine_urea_7785
     RDKit          3D

 26 27  0  0  0  0  0  0  0  0999 V2000
    8.8530    0.6660   21.2550 O   0  0  0  0  0  0  0  0  0  0  0  0
    8.2850   -0.3990   21.4230 C   0  0  0  0  0  0  0  0  0  0  0  0
    8.8200   -1.5110   22.0100 N   0  0  0  0  0  0  0  0  0  0  0  0
    9.7780   -1.5210   23.0260 C   0  0  0  0  0  0  0  0  0  0  0  0
    9.5130   -0.7410   24.1510 C   0  0  1  0  0  0  0  0  0  0  0  0
    8.4170   -1.0470   24.9670 C   0  0  0  0  0  0  0  0  0  0  0  0
    7.4510   -0.3500   24.6920 O   0  0  0  0  0  0  0  0  0  0  0  0
   10.7830   -0.8670   25.0100 C   0  0  0  0  0  0  0  0  0  0  0  0
   11.7160   -0.1040   24.4350 C   0  0  0  0  0  0  0  0  0  0  0  0
   10.5220    0.3940   24.0150 C   0  0  0  0  0  0  0  0  0  0  0  0
    9.5490    1.2840   23.2980 C   0  0  0  0  0  0  0  0  0  0  0  0
   10.2120    2.2180   22.6050 C   0  0  0  0  0  0  0  0  0  0  0  0
   11.5440    1.9910   22.8070 C   0  0  0  0  0  0  0  0  0  0  0  0
   12.4150    2.5370   22.3710 O   0  0  0  0  0  0  0  0  0  0  0  0
   13.0260    1.3010   22.7850 C   0  0  0  0  0  0  0  0  0  0  0  0
   12.5480    0.2040   22.1990 F   0  0  0  0  0  0  0  0  0  0  0  0
   12.7250    1.0340   24.0670 F   0  0  0  0  0  0  0  0  0  0  0  0
   14.3060    1.2070   22.6120 F   0  0  0  0  0  0  0  0  0  0  0  0
   12.2210    0.9120   23.6550 C   0  0  0  0  0  0  0  0  0  0  0  0
    7.0000   -0.6560   21.0370 N   0  0  0  0  0  0  0  0  0  0  0  0
    6.3770    0.0170   19.9920 C   0  0  0  0  0  0  0  0  0  0  0  0
    5.1950    0.7160   20.2370 C   0  0  0  0  0  0  0  0  0  0  0  0
    4.5910    1.3970   19.1770 C   0  0  0  0  0  0  0  0  0  0  0  0
    5.1820    1.3580   17.9240 C   0  0  0  0  0  0  0  0  0  0  0  0
    6.3140    0.6850   17.6820 N   0  0  0  0  0  0  0  0  0  0  0  0
    6.8800    0.0340   18.7110 C   0  0  0  0  0  0  0  0  0  0  0  0
  1  2  2  0
  2  3  1  0
  3  4  1  0
  5  4  1  6
  5  6  1  0
  6  7  1  0
  5  8  1  0
  8  9  1  0
  9 10  2  0
 10 11  1  0
 11 12  2  0
 12 13  1  0
 13 14  1  0
 14 15  1  0
 15 16  1  0
 15 17  1  0
 15 18  1  0
  9 19  1  0
 13 19  2  0
  2 20  1  0
 20 21  1  0
 21 22  2  0
 22 23  1  0
 23 24  2  0
 24 25  1  0
 21 26  1  0
 25 26  2  0
M  END
