pyridine_urea_1387
     RDKit          3D

 20 21  0  0  0  0  0  0  0  0999 V2000
    8.1990   -0.8310   23.5020 C   0  0  0  0  0  0  0  0  0  0  0  0
    8.9210   -1.6930   22.4450 C   0  0  0  0  0  0  0  0  0  0  0  0
    7.9650   -2.8930   22.3330 C   0  0  0  0  0  0  0  0  0  0  0  0
    8.8750   -0.9240   21.2810 N   0  0  0  0  0  0  0  0  0  0  0  0
    8.2660    0.2570   21.1720 C   0  0  0  0  0  0  0  0  0  0  0  0
    8.8380    1.3480   21.1530 O   0  0  0  0  0  0  0  0  0  0  0  0
    6.9410    0.0090   21.0740 N   0  0  0  0  0  0  0  0  0  0  0  0
    6.3070    0.4870   19.9690 C   0  0  0  0  0  0  0  0  0  0  0  0
    5.1430    1.2220   20.1320 C   0  0  0  0  0  0  0  0  0  0  0  0
    4.5370    1.7280   19.0060 C   0  0  0  0  0  0  0  0  0  0  0  0
    5.1160    1.4760   17.7760 C   0  0  0  0  0  0  0  0  0  0  0  0
    6.2280    0.7550   17.6030 N   0  0  0  0  0  0  0  0  0  0  0  0
    6.7980    0.2770   18.7070 C   0  0  0  0  0  0  0  0  0  0  0  0
   10.1460   -1.9420   22.9030 C   0  0  0  0  0  0  0  0  0  0  0  0
   11.1890   -2.3860   22.1260 N   0  0  0  0  0  0  0  0  0  0  0  0
   12.4490   -2.6250   22.7840 C   0  0  0  0  0  0  0  0  0  0  0  0
   12.4280   -2.3460   24.2200 C   0  0  0  0  0  0  0  0  0  0  0  0
   13.8410   -2.5880   25.3790 Br  0  0  0  0  0  0  0  0  0  0  0  0
   11.3730   -1.9000   24.8130 C   0  0  0  0  0  0  0  0  0  0  0  0
   10.2700   -1.7000   24.2200 N   0  0  0  0  0  0  0  0  0  0  0  0
  1  2  1  0
  2  3  1  0
  2  4  1  0
  4  5  1  0
  5  6  2  0
  5  7  1  0
  7  8  1  0
  8  9  2  0
  9 10  1  0
 10 11  2  0
 11 12  1  0
  8 13  1  0
 12 13  2  0
  2 14  1  0
 14 15  2  0
 15 16  1  0
 16 17  2  0
 17 18  1  0
 17 19  1  0
 14 20  1  0
 19 20  2  0
M  END
