pyridine_urea_2292
     RDKit          3D

 28 29  0  0  0  0  0  0  0  0999 V2000
   12.6670    1.9080   23.0300 C   0  0  0  0  0  0  0  0  0  0  0  0
   12.1310    1.1610   24.1100 O   0  0  0  0  0  0  0  0  0  0  0  0
   12.6490   -0.1030   24.2210 C   0  0  0  0  0  0  0  0  0  0  0  0
   12.9400   -0.6180   25.3010 O   0  0  0  0  0  0  0  0  0  0  0  0
   12.8030   -0.7980   22.8690 C   0  0  0  0  0  0  0  0  0  0  0  0
   11.4140   -1.2500   22.4430 C   0  0  2  0  0  0  0  0  0  0  0  0
   10.3250   -0.2700   22.7350 C   0  0  0  0  0  0  0  0  0  0  0  0
    8.8970   -0.4440   22.5480 N   0  0  0  0  0  0  0  0  0  0  0  0
    8.2910    0.2480   21.5300 C   0  0  0  0  0  0  0  0  0  0  0  0
    8.8080    1.5360   21.0770 O   0  0  0  0  0  0  0  0  0  0  0  0
    7.1240   -0.4520   21.0270 N   0  0  0  0  0  0  0  0  0  0  0  0
    6.4610    0.1360   19.9930 C   0  0  0  0  0  0  0  0  0  0  0  0
    5.2950    0.8620   20.2800 C   0  0  0  0  0  0  0  0  0  0  0  0
    4.6380    1.4750   19.2180 C   0  0  0  0  0  0  0  0  0  0  0  0
    5.1480    1.3460   17.9430 C   0  0  0  0  0  0  0  0  0  0  0  0
    6.2510    0.6450   17.6630 N   0  0  0  0  0  0  0  0  0  0  0  0
    6.8860    0.0530   18.6910 C   0  0  0  0  0  0  0  0  0  0  0  0
   11.0120   -2.3760   23.1310 N   0  0  0  0  0  0  0  0  0  0  0  0
    9.7340   -2.8050   22.9440 C   0  0  0  0  0  0  0  0  0  0  0  0
    9.1570   -2.8250   21.8650 O   0  0  0  0  0  0  0  0  0  0  0  0
    9.1390   -3.2130   24.1020 O   0  0  0  0  0  0  0  0  0  0  0  0
    7.7570   -2.8500   24.1880 C   0  0  0  0  0  0  0  0  0  0  0  0
    6.9950   -3.9780   23.9350 C   0  0  0  0  0  0  0  0  0  0  0  0
    7.1740   -4.7670   22.7890 C   0  0  0  0  0  0  0  0  0  0  0  0
    6.4330   -5.9250   22.4720 C   0  0  0  0  0  0  0  0  0  0  0  0
    5.4320   -6.3670   23.3280 C   0  0  0  0  0  0  0  0  0  0  0  0
    5.1650   -5.5760   24.6000 C   0  0  0  0  0  0  0  0  0  0  0  0
    6.0020   -4.3520   24.8610 C   0  0  0  0  0  0  0  0  0  0  0  0
  1  2  1  0
  2  3  1  0
  3  4  2  0
  3  5  1  0
  6  5  1  1
  6  7  1  0
  7  8  1  0
  8  9  1  0
  9 10  2  0
  9 11  1  0
 11 12  1  0
 12 13  2  0
 13 14  1  0
 14 15  2  0
 15 16  1  0
 12 17  1  0
 16 17  2  0
  6 18  1  0
 18 19  1  0
 19 20  2  0
 19 21  1  0
 21 22  1  0
 22 23  1  0
 23 24  2  0
 24 25  1  0
 25 26  2  0
 26 27  1  0
 23 28  1  0
 27 28  2  0
M  END
