pyridine_urea_10973
     RDKit          3D

 19 19  0  0  0  0  0  0  0  0999 V2000
   13.9990   -2.6340   25.7120 C   0  0  0  0  0  0  0  0  0  0  0  0
   13.4130   -2.4910   24.3470 C   0  0  0  0  0  0  0  0  0  0  0  0
   13.0640   -1.3210   24.1600 O   0  0  0  0  0  0  0  0  0  0  0  0
   12.7020   -1.0050   22.8840 C   0  0  0  0  0  0  0  0  0  0  0  0
   13.4450   -0.5440   22.0420 O   0  0  0  0  0  0  0  0  0  0  0  0
   11.3500   -1.3120   22.7220 C   0  0  2  0  0  0  0  0  0  0  0  0
   10.9250   -2.4950   23.3330 C   0  0  0  0  0  0  0  0  0  0  0  0
   11.1830   -1.5750   21.3410 O   0  0  0  0  0  0  0  0  0  0  0  0
   10.5000   -0.2100   22.9360 C   0  0  0  0  0  0  0  0  0  0  0  0
    9.1860   -0.5640   22.4200 N   0  0  0  0  0  0  0  0  0  0  0  0
    8.4470    0.1370   21.5170 C   0  0  0  0  0  0  0  0  0  0  0  0
    8.8490    1.3800   21.1220 O   0  0  0  0  0  0  0  0  0  0  0  0
    7.2370   -0.5390   21.0610 N   0  0  0  0  0  0  0  0  0  0  0  0
    6.5450    0.0630   20.0370 C   0  0  0  0  0  0  0  0  0  0  0  0
    5.4010    0.7880   20.3410 C   0  0  0  0  0  0  0  0  0  0  0  0
    4.6950    1.4180   19.3140 C   0  0  0  0  0  0  0  0  0  0  0  0
    5.1660    1.2960   18.0190 C   0  0  0  0  0  0  0  0  0  0  0  0
    6.2630    0.5960   17.7040 N   0  0  0  0  0  0  0  0  0  0  0  0
    6.9250   -0.0040   18.7140 C   0  0  0  0  0  0  0  0  0  0  0  0
  1  2  1  0
  2  3  1  0
  3  4  1  0
  4  5  2  0
  4  6  1  0
  6  7  1  1
  6  8  1  0
  6  9  1  0
  9 10  1  0
 10 11  1  0
 11 12  2  0
 11 13  1  0
 13 14  1  0
 14 15  2  0
 15 16  1  0
 16 17  2  0
 17 18  1  0
 14 19  1  0
 18 19  2  0
M  END
