pyridine_urea_6881
     RDKit          3D

 20 21  0  0  0  0  0  0  0  0999 V2000
   10.0320    3.4250   22.4120 C   0  0  0  0  0  0  0  0  0  0  0  0
    9.9270    2.0190   22.2140 O   0  0  0  0  0  0  0  0  0  0  0  0
   10.6470    1.3040   23.1190 C   0  0  0  0  0  0  0  0  0  0  0  0
   11.3940    1.8610   23.9140 O   0  0  0  0  0  0  0  0  0  0  0  0
   10.4070   -0.2200   23.0560 C   0  0  2  0  0  0  0  0  0  0  0  0
    9.0380   -0.6170   22.5410 N   0  0  0  0  0  0  0  0  0  0  0  0
    8.4430    0.1190   21.5360 C   0  0  0  0  0  0  0  0  0  0  0  0
    8.8980    1.2080   21.1670 O   0  0  0  0  0  0  0  0  0  0  0  0
    7.3130   -0.4890   21.0430 N   0  0  0  0  0  0  0  0  0  0  0  0
    6.5680    0.0940   20.0150 C   0  0  0  0  0  0  0  0  0  0  0  0
    5.4080    0.7880   20.3240 C   0  0  0  0  0  0  0  0  0  0  0  0
    4.6680    1.3920   19.3110 C   0  0  0  0  0  0  0  0  0  0  0  0
    5.1370    1.2670   18.0050 C   0  0  0  0  0  0  0  0  0  0  0  0
    6.2470    0.5940   17.6900 N   0  0  0  0  0  0  0  0  0  0  0  0
    6.9360    0.0240   18.6950 C   0  0  0  0  0  0  0  0  0  0  0  0
   10.7720   -0.9700   24.3620 C   0  0  0  0  0  0  0  0  0  0  0  0
   12.0930   -1.1700   23.8800 C   0  0  2  0  0  0  0  0  0  0  0  0
   12.9520   -0.0190   24.1050 O   0  0  0  0  0  0  0  0  0  0  0  0
   13.1480    0.7950   22.9560 C   0  0  0  0  0  0  0  0  0  0  0  0
   11.5130   -1.1530   22.4600 C   0  0  0  0  0  0  0  0  0  0  0  0
  1  2  1  0
  2  3  1  0
  3  4  2  0
  5  3  1  0
  5  6  1  6
  6  7  1  0
  7  8  2  0
  7  9  1  0
  9 10  1  0
 10 11  2  0
 11 12  1  0
 12 13  2  0
 13 14  1  0
 10 15  1  0
 14 15  2  0
  5 16  1  0
 16 17  1  0
 17 18  1  6
 18 19  1  0
  5 20  1  0
 17 20  1  0
M  END
