pyridine_urea_769
     RDKit          3D

 23 24  0  0  0  0  0  0  0  0999 V2000
    9.9960   -4.9330   26.4790 C   0  0  0  0  0  0  0  0  0  0  0  0
   10.4920   -3.9770   25.5380 O   0  0  0  0  0  0  0  0  0  0  0  0
   11.8160   -3.6400   25.6370 C   0  0  0  0  0  0  0  0  0  0  0  0
   12.5890   -4.2000   26.3980 O   0  0  0  0  0  0  0  0  0  0  0  0
   12.2120   -2.6070   24.7890 C   0  0  0  0  0  0  0  0  0  0  0  0
   13.5560   -2.1990   24.9500 C   0  0  0  0  0  0  0  0  0  0  0  0
   13.6750   -0.9140   24.3040 O   0  0  0  0  0  0  0  0  0  0  0  0
   12.5970   -0.8300   23.6000 C   0  0  0  0  0  0  0  0  0  0  0  0
   11.6060    0.2050   23.9820 C   0  0  0  0  0  0  0  0  0  0  0  0
   10.3160    0.2230   23.2350 C   0  0  0  0  0  0  0  0  0  0  0  0
   10.2090   -0.8460   22.1670 C   0  0  0  0  0  0  0  0  0  0  0  0
    8.9750   -0.8870   21.4860 N   0  0  0  0  0  0  0  0  0  0  0  0
    8.3090    0.2520   21.2650 C   0  0  0  0  0  0  0  0  0  0  0  0
    8.7470    1.4080   21.1840 O   0  0  0  0  0  0  0  0  0  0  0  0
    6.9960   -0.0240   21.0960 N   0  0  0  0  0  0  0  0  0  0  0  0
    6.3510    0.4500   19.9860 C   0  0  0  0  0  0  0  0  0  0  0  0
    5.1930    1.1900   20.1580 C   0  0  0  0  0  0  0  0  0  0  0  0
    4.5640    1.6920   19.0410 C   0  0  0  0  0  0  0  0  0  0  0  0
    5.1200    1.4310   17.8110 C   0  0  0  0  0  0  0  0  0  0  0  0
    6.2240    0.7090   17.6240 N   0  0  0  0  0  0  0  0  0  0  0  0
    6.8190    0.2310   18.7180 C   0  0  0  0  0  0  0  0  0  0  0  0
   11.2250   -1.7240   21.8810 C   0  0  0  0  0  0  0  0  0  0  0  0
   12.3900   -1.7110   22.5810 C   0  0  0  0  0  0  0  0  0  0  0  0
  1  2  1  0
  2  3  1  0
  3  4  2  0
  3  5  1  0
  5  6  1  0
  6  7  1  0
  7  8  1  0
  8  9  2  0
  9 10  1  0
 10 11  2  0
 11 12  1  0
 12 13  1  0
 13 14  2  0
 13 15  1  0
 15 16  1  0
 16 17  2  0
 17 18  1  0
 18 19  2  0
 19 20  1  0
 16 21  1  0
 20 21  2  0
 11 22  1  0
  8 23  1  0
 22 23  2  0
M  END
