pyridine_urea_378
     RDKit          3D

 26 27  0  0  0  0  0  0  0  0999 V2000
   10.1340   -1.3480   23.9160 C   0  0  0  0  0  0  0  0  0  0  0  0
    9.8280   -0.3620   23.3180 C   0  0  0  0  0  0  0  0  0  0  0  0
    9.3570    1.0700   23.0500 C   0  0  0  0  0  0  0  0  0  0  0  0
   11.1050   -0.4050   22.4970 C   0  0  0  0  0  0  0  0  0  0  0  0
   12.0490    0.6390   22.7080 O   0  0  0  0  0  0  0  0  0  0  0  0
   11.6340    1.9510   22.8070 C   0  0  0  0  0  0  0  0  0  0  0  0
   10.3290    2.5120   23.2110 N   0  0  0  0  0  0  0  0  0  0  0  0
   10.1930    3.8740   23.2560 C   0  0  0  0  0  0  0  0  0  0  0  0
   11.3830    4.6110   22.8840 C   0  0  0  0  0  0  0  0  0  0  0  0
   11.8030    5.8720   22.7650 C   0  0  0  0  0  0  0  0  0  0  0  0
   12.2180    6.3320   23.9820 F   0  0  0  0  0  0  0  0  0  0  0  0
   12.8170    6.0510   21.8880 F   0  0  0  0  0  0  0  0  0  0  0  0
   10.7920    6.7080   22.4130 F   0  0  0  0  0  0  0  0  0  0  0  0
   12.7500    4.1660   22.4410 C   0  0  0  0  0  0  0  0  0  0  0  0
   12.8330    2.7700   22.4130 C   0  0  0  0  0  0  0  0  0  0  0  0
   14.2130    1.8850   21.9520 Cl  0  0  0  0  0  0  0  0  0  0  0  0
    8.8420   -0.9590   22.3500 N   0  0  0  0  0  0  0  0  0  0  0  0
    8.2060   -0.1400   21.3880 C   0  0  0  0  0  0  0  0  0  0  0  0
    8.6910    1.0770   20.9860 O   0  0  0  0  0  0  0  0  0  0  0  0
    6.9800   -0.7420   20.9040 N   0  0  0  0  0  0  0  0  0  0  0  0
    6.2950   -0.0150   19.9700 C   0  0  0  0  0  0  0  0  0  0  0  0
    4.9950    0.6120   20.5250 C   0  0  0  0  0  0  0  0  0  0  0  0
    4.5800    1.3100   19.2370 C   0  0  0  0  0  0  0  0  0  0  0  0
    5.2440    1.3440   17.9120 C   0  0  0  0  0  0  0  0  0  0  0  0
    6.3600    0.7250   17.6590 N   0  0  0  0  0  0  0  0  0  0  0  0
    6.8400    0.0690   18.6990 C   0  0  0  0  0  0  0  0  0  0  0  0
  1  2  1  0
  2  3  1  0
  2  4  1  0
  4  5  1  0
  5  6  1  0
  6  7  2  0
  7  8  1  0
  8  9  2  0
  9 10  1  0
 10 11  1  0
 10 12  1  0
 10 13  1  0
  9 14  1  0
  6 15  1  0
 14 15  2  0
 15 16  1  0
  2 17  1  0
 17 18  1  0
 18 19  2  0
 18 20  1  0
 20 21  1  0
 21 22  2  0
 22 23  1  0
 23 24  2  0
 24 25  1  0
 21 26  1  0
 25 26  2  0
M  END
