pyridine_urea_4337
     RDKit          3D

 24 26  0  0  0  0  0  0  0  0999 V2000
    8.8660    1.1250   21.1960 O   0  0  0  0  0  0  0  0  0  0  0  0
    8.4600    0.0030   21.5390 C   0  0  0  0  0  0  0  0  0  0  0  0
    7.3300   -0.6300   21.0460 N   0  0  0  0  0  0  0  0  0  0  0  0
    6.5860    0.0430   20.0150 C   0  0  0  0  0  0  0  0  0  0  0  0
    5.3150    0.7930   20.4140 C   0  0  0  0  0  0  0  0  0  0  0  0
    4.5490    1.5160   19.3080 C   0  0  0  0  0  0  0  0  0  0  0  0
    5.1540    1.4040   17.9080 C   0  0  0  0  0  0  0  0  0  0  0  0
    6.3270    0.6670   17.7150 N   0  0  0  0  0  0  0  0  0  0  0  0
    6.9970    0.0230   18.7080 C   0  0  0  0  0  0  0  0  0  0  0  0
    9.0760   -0.8160   22.4690 N   0  0  0  0  0  0  0  0  0  0  0  0
   10.1510   -0.4080   23.2940 C   0  0  2  0  0  0  0  0  0  0  0  0
   10.1450    0.8900   23.8500 C   0  0  0  0  0  0  0  0  0  0  0  0
    9.4410    1.8200   23.2290 N   0  0  0  0  0  0  0  0  0  0  0  0
    8.2520    2.1070   23.8990 C   0  0  0  0  0  0  0  0  0  0  0  0
    8.3290    3.3040   24.6030 C   0  0  0  0  0  0  0  0  0  0  0  0
    9.0560    4.2990   23.9600 C   0  0  0  0  0  0  0  0  0  0  0  0
   10.3360    3.9440   23.5690 C   0  0  0  0  0  0  0  0  0  0  0  0
   10.3070    2.8190   22.5890 C   0  0  0  0  0  0  0  0  0  0  0  0
   11.5550   -0.7580   22.7020 C   0  0  0  0  0  0  0  0  0  0  0  0
   11.8960   -1.7700   21.9310 C   0  0  0  0  0  0  0  0  0  0  0  0
   13.0910   -1.2740   21.9760 C   0  0  0  0  0  0  0  0  0  0  0  0
   12.1360   -0.3330   22.8550 C   0  0  0  0  0  0  0  0  0  0  0  0
   12.7290    0.8220   23.4910 C   0  0  0  0  0  0  0  0  0  0  0  0
   12.9380   -0.1470   22.7770 C   0  0  0  0  0  0  0  0  0  0  0  0
  1  2  2  0
  2  3  1  0
  3  4  1  0
  4  5  2  0
  5  6  1  0
  6  7  2  0
  7  8  1  0
  4  9  1  0
  8  9  2  0
  2 10  1  0
 10 11  1  0
 11 12  1  6
 12 13  1  0
 13 14  1  0
 14 15  1  0
 15 16  1  0
 16 17  1  0
 13 18  1  0
 17 18  1  0
 11 19  1  0
 19 20  2  0
 20 21  1  0
 21 22  2  0
 22 23  1  0
 19 24  1  0
 23 24  2  0
M  END
