pyridine_urea_4177
     RDKit          3D

 25 27  0  0  0  0  0  0  0  0999 V2000
   12.3870    2.8140   22.8090 C   0  0  0  0  0  0  0  0  0  0  0  0
   11.6410    1.5830   23.2510 C   0  0  0  0  0  0  0  0  0  0  0  0
   12.2690    0.4640   23.7540 C   0  0  0  0  0  0  0  0  0  0  0  0
   11.5850   -0.5920   24.1320 C   0  0  0  0  0  0  0  0  0  0  0  0
   11.9240   -1.8000   24.6440 N   0  0  0  0  0  0  0  0  0  0  0  0
   11.1930   -2.8040   24.0700 C   0  0  0  0  0  0  0  0  0  0  0  0
   11.2860   -2.4890   22.7050 C   0  0  0  0  0  0  0  0  0  0  0  0
   12.7020   -2.6390   22.4950 N   0  0  0  0  0  0  0  0  0  0  0  0
   13.5650   -2.6840   23.5310 C   0  0  0  0  0  0  0  0  0  0  0  0
   14.5210   -3.3630   23.4650 O   0  0  0  0  0  0  0  0  0  0  0  0
   13.2450   -1.8770   24.7690 C   0  0  0  0  0  0  0  0  0  0  0  0
   10.3090   -0.4660   23.9780 C   0  0  0  0  0  0  0  0  0  0  0  0
    9.7190    0.6300   23.4840 C   0  0  0  0  0  0  0  0  0  0  0  0
   10.0990    1.8940   22.9970 C   0  0  0  0  0  0  0  0  0  0  0  0
    8.7290    1.7600   22.9380 C   0  0  0  0  0  0  0  0  0  0  0  0
    8.1990    1.2640   21.7950 N   0  0  0  0  0  0  0  0  0  0  0  0
    8.3930   -0.0250   21.4460 C   0  0  0  0  0  0  0  0  0  0  0  0
    9.6200   -0.5660   21.4240 O   0  0  0  0  0  0  0  0  0  0  0  0
    7.2230   -0.6220   21.1150 N   0  0  0  0  0  0  0  0  0  0  0  0
    6.5830   -0.0220   20.0880 C   0  0  0  0  0  0  0  0  0  0  0  0
    5.3280    0.8070   20.3450 C   0  0  0  0  0  0  0  0  0  0  0  0
    4.6660    1.4420   19.2930 C   0  0  0  0  0  0  0  0  0  0  0  0
    5.1590    1.3150   17.9990 C   0  0  0  0  0  0  0  0  0  0  0  0
    6.2560    0.5970   17.6850 N   0  0  0  0  0  0  0  0  0  0  0  0
    6.9720   -0.0840   18.7720 C   0  0  0  0  0  0  0  0  0  0  0  0
  1  2  1  0
  2  3  2  0
  3  4  1  0
  4  5  1  0
  5  6  1  0
  6  7  1  0
  7  8  1  0
  8  9  1  0
  9 10  2  0
  5 11  1  0
  9 11  1  0
  4 12  2  0
 12 13  1  0
  2 14  1  0
 13 14  2  0
 14 15  1  0
 15 16  1  0
 16 17  1  0
 17 18  2  0
 17 19  1  0
 19 20  1  0
 20 21  2  0
 21 22  1  0
 22 23  2  0
 23 24  1  0
 20 25  1  0
 24 25  2  0
M  END
