pyridine_urea_10712
     RDKit          3D

 20 21  0  0  0  0  0  0  0  0999 V2000
    8.9120    0.7640   21.4020 O   0  0  0  0  0  0  0  0  0  0  0  0
    8.1840   -0.1090   21.8610 C   0  0  0  0  0  0  0  0  0  0  0  0
    8.3430   -0.7210   23.1970 N   0  0  0  0  0  0  0  0  0  0  0  0
    9.6050   -0.8130   23.8210 C   0  0  0  0  0  0  0  0  0  0  0  0
   10.6530   -0.5610   22.9830 C   0  0  0  0  0  0  0  0  0  0  0  0
   10.5300   -1.0110   21.8880 O   0  0  0  0  0  0  0  0  0  0  0  0
   10.5640   -2.3830   21.9720 C   0  0  0  0  0  0  0  0  0  0  0  0
    9.3120   -2.8060   22.4840 C   0  0  0  0  0  0  0  0  0  0  0  0
    9.5350   -3.3510   23.5680 O   0  0  0  0  0  0  0  0  0  0  0  0
   12.1380   -0.9670   23.2820 C   0  0  0  0  0  0  0  0  0  0  0  0
   12.8560    0.2870   23.6420 C   0  0  0  0  0  0  0  0  0  0  0  0
   11.9410    1.4640   23.3770 C   0  0  0  0  0  0  0  0  0  0  0  0
   10.7110    0.9920   23.0030 C   0  0  0  0  0  0  0  0  0  0  0  0
    7.0830   -0.6270   21.1820 N   0  0  0  0  0  0  0  0  0  0  0  0
    6.4490    0.0080   20.0920 C   0  0  0  0  0  0  0  0  0  0  0  0
    5.2720    0.7320   20.3020 C   0  0  0  0  0  0  0  0  0  0  0  0
    4.6310    1.3750   19.2500 C   0  0  0  0  0  0  0  0  0  0  0  0
    5.1990    1.2820   17.9960 C   0  0  0  0  0  0  0  0  0  0  0  0
    6.3250    0.5940   17.7560 N   0  0  0  0  0  0  0  0  0  0  0  0
    6.9210   -0.0300   18.7970 C   0  0  0  0  0  0  0  0  0  0  0  0
  1  2  2  0
  2  3  1  0
  3  4  1  0
  4  5  1  0
  5  6  1  0
  6  7  1  0
  7  8  1  0
  8  9  1  0
  5 10  1  0
 10 11  1  0
 11 12  1  0
  5 13  1  0
 12 13  1  0
  2 14  1  0
 14 15  1  0
 15 16  2  0
 16 17  1  0
 17 18  2  0
 18 19  1  0
 15 20  1  0
 19 20  2  0
M  END
