pyridine_urea_6289
     RDKit          3D

 23 25  0  0  0  0  0  0  0  0999 V2000
    8.7530    0.9940   21.2540 O   0  0  0  0  0  0  0  0  0  0  0  0
    8.5600   -0.2110   21.3730 C   0  0  0  0  0  0  0  0  0  0  0  0
    7.3420   -0.7850   21.0670 N   0  0  0  0  0  0  0  0  0  0  0  0
    6.5960   -0.1020   20.0270 C   0  0  0  0  0  0  0  0  0  0  0  0
    5.3260    0.6410   20.4420 C   0  0  0  0  0  0  0  0  0  0  0  0
    4.6220    1.3380   19.3250 C   0  0  0  0  0  0  0  0  0  0  0  0
    5.1560    1.2570   18.0520 C   0  0  0  0  0  0  0  0  0  0  0  0
    6.2760    0.5810   17.7380 N   0  0  0  0  0  0  0  0  0  0  0  0
    6.9560   -0.0690   18.7050 C   0  0  0  0  0  0  0  0  0  0  0  0
    9.5470   -1.0800   21.7990 N   0  0  0  0  0  0  0  0  0  0  0  0
   10.4070   -0.5250   22.8830 C   0  0  2  0  0  0  0  0  0  0  0  0
   11.2140   -1.4290   23.4930 C   0  0  0  0  0  0  0  0  0  0  0  0
   12.4460   -0.9620   22.7630 C   0  0  0  0  0  0  0  0  0  0  0  0
   12.0560    0.1980   23.3010 C   0  0  0  0  0  0  0  0  0  0  0  0
   11.0010    0.3520   24.0900 C   0  0  0  0  0  0  0  0  0  0  0  0
   11.6470    1.5300   23.8590 C   0  0  0  0  0  0  0  0  0  0  0  0
   12.9110    1.7770   23.0110 C   0  0  0  0  0  0  0  0  0  0  0  0
   13.1780    0.3170   22.5350 C   0  0  0  0  0  0  0  0  0  0  0  0
    9.3550    0.1180   23.8630 C   0  0  0  0  0  0  0  0  0  0  0  0
    8.9500   -0.5100   25.0170 N   0  0  0  0  0  0  0  0  0  0  0  0
    8.0190    0.2970   25.6350 N   0  0  0  0  0  0  0  0  0  0  0  0
    7.9220    1.3500   24.8200 C   0  0  0  0  0  0  0  0  0  0  0  0
    8.6760    1.3290   23.7520 N   0  0  0  0  0  0  0  0  0  0  0  0
  1  2  2  0
  2  3  1  0
  3  4  1  0
  4  5  2  0
  5  6  1  0
  6  7  2  0
  7  8  1  0
  4  9  1  0
  8  9  2  0
  2 10  1  0
 10 11  1  0
 11 12  1  1
 12 13  1  0
 13 14  2  0
 14 15  1  0
 15 16  2  0
 16 17  1  0
 13 18  1  0
 17 18  2  0
 11 19  1  0
 19 20  2  0
 20 21  1  0
 21 22  2  0
 19 23  1  0
 22 23  1  0
M  END
