pyridine_urea_6640
     RDKit          3D

 22 23  0  0  0  0  0  0  0  0999 V2000
   13.7840   -2.6580   25.2340 C   0  0  0  0  0  0  0  0  0  0  0  0
   13.1990   -1.3660   25.3060 O   0  0  0  0  0  0  0  0  0  0  0  0
   12.1500   -1.3000   24.4660 C   0  0  0  0  0  0  0  0  0  0  0  0
   10.7990   -1.3210   25.1480 C   0  0  0  0  0  0  0  0  0  0  0  0
    9.5550   -1.2920   24.4160 C   0  0  0  0  0  0  0  0  0  0  0  0
    9.8040   -1.2440   23.0480 C   0  0  0  0  0  0  0  0  0  0  0  0
   11.0990   -1.2080   22.5630 C   0  0  0  0  0  0  0  0  0  0  0  0
   12.4330   -1.2210   23.1360 C   0  0  0  0  0  0  0  0  0  0  0  0
   12.1560   -1.1410   21.9070 C   0  0  0  0  0  0  0  0  0  0  0  0
   11.8870   -2.3800   21.4820 C   0  0  0  0  0  0  0  0  0  0  0  0
   12.9100   -2.0540   20.9810 C   0  0  0  0  0  0  0  0  0  0  0  0
   10.6440   -0.6300   22.0300 C   0  0  0  0  0  0  0  0  0  0  0  0
    9.4910   -1.0840   21.2850 N   0  0  0  0  0  0  0  0  0  0  0  0
    8.5020   -0.1270   21.1780 C   0  0  0  0  0  0  0  0  0  0  0  0
    8.8220    1.2770   21.2100 O   0  0  0  0  0  0  0  0  0  0  0  0
    7.2380   -0.6100   20.9850 N   0  0  0  0  0  0  0  0  0  0  0  0
    6.5110    0.0100   20.0150 C   0  0  0  0  0  0  0  0  0  0  0  0
    5.3620    0.7120   20.3050 C   0  0  0  0  0  0  0  0  0  0  0  0
    4.6520    1.3580   19.3160 C   0  0  0  0  0  0  0  0  0  0  0  0
    5.1040    1.2960   18.0200 C   0  0  0  0  0  0  0  0  0  0  0  0
    6.2100    0.6180   17.6780 N   0  0  0  0  0  0  0  0  0  0  0  0
    6.8840   -0.0080   18.6820 C   0  0  0  0  0  0  0  0  0  0  0  0
  1  2  1  0
  2  3  1  0
  3  4  2  0
  4  5  1  0
  5  6  2  0
  6  7  1  0
  3  8  1  0
  7  8  2  0
  8  9  1  0
  9 10  1  0
  9 11  1  0
  9 12  1  0
 12 13  1  0
 13 14  1  0
 14 15  2  0
 14 16  1  0
 16 17  1  0
 17 18  2  0
 18 19  1  0
 19 20  2  0
 20 21  1  0
 17 22  1  0
 21 22  2  0
M  END
