pyridine_urea_12973
     RDKit          3D

 19 20  0  0  0  0  0  0  0  0999 V2000
   11.9400    4.2190   21.5840 C   0  0  0  0  0  0  0  0  0  0  0  0
   12.7410    3.5580   22.6980 C   0  0  0  0  0  0  0  0  0  0  0  0
   12.3420    2.0660   22.8600 C   0  0  0  0  0  0  0  0  0  0  0  0
   10.9760    1.6650   23.0370 N   0  0  0  0  0  0  0  0  0  0  0  0
   10.9860    0.2990   23.1830 C   0  0  0  0  0  0  0  0  0  0  0  0
    9.9130   -0.5020   23.3860 C   0  0  0  0  0  0  0  0  0  0  0  0
    9.9910   -1.5080   22.4510 C   0  0  0  0  0  0  0  0  0  0  0  0
    8.9440   -1.5130   21.5980 N   0  0  0  0  0  0  0  0  0  0  0  0
    8.1670   -0.3920   21.3000 C   0  0  0  0  0  0  0  0  0  0  0  0
    8.6640    0.7240   21.2560 O   0  0  0  0  0  0  0  0  0  0  0  0
    6.8720   -0.6690   21.0790 N   0  0  0  0  0  0  0  0  0  0  0  0
    6.3230   -0.0070   20.0380 C   0  0  0  0  0  0  0  0  0  0  0  0
    5.1460    0.7010   20.2410 C   0  0  0  0  0  0  0  0  0  0  0  0
    4.5720    1.3940   19.1730 C   0  0  0  0  0  0  0  0  0  0  0  0
    5.2200    1.3420   17.9350 C   0  0  0  0  0  0  0  0  0  0  0  0
    6.3510    0.6640   17.7150 N   0  0  0  0  0  0  0  0  0  0  0  0
    6.8690    0.0100   18.7670 C   0  0  0  0  0  0  0  0  0  0  0  0
   12.3380   -0.3680   23.1030 C   0  0  0  0  0  0  0  0  0  0  0  0
   13.5230    0.7380   22.8480 S   0  0  0  0  0  0  0  0  0  0  0  0
  1  2  1  0
  2  3  1  0
  3  4  2  0
  4  5  1  0
  5  6  1  0
  6  7  1  0
  7  8  1  0
  8  9  1  0
  9 10  2  0
  9 11  1  0
 11 12  1  0
 12 13  2  0
 13 14  1  0
 14 15  2  0
 15 16  1  0
 12 17  1  0
 16 17  2  0
  5 18  2  0
  3 19  1  0
 18 19  1  0
M  END
