pyridine_urea_13113
     RDKit          3D

 21 22  0  0  0  0  0  0  0  0999 V2000
   13.1840   -2.0280   21.1540 C   0  0  0  0  0  0  0  0  0  0  0  0
   12.7230   -0.9850   21.9840 O   0  0  0  0  0  0  0  0  0  0  0  0
   11.4030   -1.1280   22.2800 C   0  0  0  0  0  0  0  0  0  0  0  0
   10.6490   -0.3840   23.2120 C   0  0  2  0  0  0  0  0  0  0  0  0
   10.6750   -0.8140   24.5710 C   0  0  0  0  0  0  0  0  0  0  0  0
    9.2370   -0.5960   22.6880 N   0  0  0  0  0  0  0  0  0  0  0  0
    8.6360    0.0710   21.6100 C   0  0  0  0  0  0  0  0  0  0  0  0
    9.0240    1.1850   21.2110 O   0  0  0  0  0  0  0  0  0  0  0  0
    7.5830   -0.6360   21.0950 N   0  0  0  0  0  0  0  0  0  0  0  0
    6.7760   -0.0060   20.1800 C   0  0  0  0  0  0  0  0  0  0  0  0
    5.6490    0.7880   20.4750 C   0  0  0  0  0  0  0  0  0  0  0  0
    4.8070    1.4690   19.3660 C   0  0  0  0  0  0  0  0  0  0  0  0
    5.2150    1.2630   18.0590 C   0  0  0  0  0  0  0  0  0  0  0  0
    6.3000    0.4870   17.8340 N   0  0  0  0  0  0  0  0  0  0  0  0
    7.0640   -0.1360   18.8280 C   0  0  0  0  0  0  0  0  0  0  0  0
   10.6240    1.1330   23.1310 C   0  0  0  0  0  0  0  0  0  0  0  0
   11.9620    0.9800   23.3330 C   0  0  0  0  0  0  0  0  0  0  0  0
   12.4160   -0.2920   23.4770 C   0  0  0  0  0  0  0  0  0  0  0  0
   11.3920   -1.2840   23.3900 C   0  0  0  0  0  0  0  0  0  0  0  0
    9.9560   -0.9730   23.1680 C   0  0  0  0  0  0  0  0  0  0  0  0
    9.5260    0.3950   23.0240 C   0  0  0  0  0  0  0  0  0  0  0  0
  1  2  1  0
  2  3  1  0
  3  4  1  0
  4  5  1  1
  4  6  1  0
  6  7  1  0
  7  8  2  0
  7  9  1  0
  9 10  1  0
 10 11  2  0
 11 12  1  0
 12 13  2  0
 13 14  1  0
 10 15  1  0
 14 15  2  0
  4 16  1  0
 16 17  2  0
 17 18  1  0
 18 19  2  0
 19 20  1  0
 16 21  1  0
 20 21  2  0
M  END
