pyridine_urea_1923
     RDKit          3D

 20 22  0  0  0  0  0  0  0  0999 V2000
    8.7160    0.6830   21.3280 O   0  0  0  0  0  0  0  0  0  0  0  0
    8.1640   -0.4010   21.4680 C   0  0  0  0  0  0  0  0  0  0  0  0
    8.6450   -1.4550   22.1820 N   0  0  0  0  0  0  0  0  0  0  0  0
    9.9920   -1.6430   22.4600 C   0  0  0  0  0  0  0  0  0  0  0  0
   10.8740   -0.4170   22.4320 C   0  0  1  0  0  0  0  0  0  0  0  0
   10.5200    0.4120   23.5980 C   0  0  0  0  0  0  0  0  0  0  0  0
   11.6140    0.0480   24.4810 C   0  0  0  0  0  0  0  0  0  0  0  0
   12.2480   -1.0810   24.0040 C   0  0  0  0  0  0  0  0  0  0  0  0
   13.2890   -1.5930   24.6950 C   0  0  0  0  0  0  0  0  0  0  0  0
   12.8600   -2.8320   24.6540 C   0  0  0  0  0  0  0  0  0  0  0  0
   11.6130   -2.5120   24.1560 C   0  0  0  0  0  0  0  0  0  0  0  0
   12.4350   -0.5580   22.5940 C   0  0  2  0  0  0  0  0  0  0  0  0
   13.0470    0.7020   22.6390 O   0  0  0  0  0  0  0  0  0  0  0  0
    6.9580   -0.7510   20.9400 N   0  0  0  0  0  0  0  0  0  0  0  0
    6.2630    0.0000   19.9990 C   0  0  0  0  0  0  0  0  0  0  0  0
    5.0460    0.6900   20.2890 C   0  0  0  0  0  0  0  0  0  0  0  0
    4.5270    1.4380   19.0560 C   0  0  0  0  0  0  0  0  0  0  0  0
    5.2230    1.3820   17.8750 C   0  0  0  0  0  0  0  0  0  0  0  0
    6.3540    0.7070   17.6900 N   0  0  0  0  0  0  0  0  0  0  0  0
    6.8340    0.0440   18.7420 C   0  0  0  0  0  0  0  0  0  0  0  0
  1  2  2  0
  2  3  1  0
  3  4  1  0
  5  4  1  1
  5  6  1  0
  6  7  1  0
  8  7  1  0
  8  9  1  0
  9 10  1  0
  8 11  1  0
 10 11  1  0
  5 12  1  0
  8 12  1  0
 12 13  1  1
  2 14  1  0
 14 15  1  0
 15 16  2  0
 16 17  1  0
 17 18  2  0
 18 19  1  0
 15 20  1  0
 19 20  2  0
M  END
