pyridine_urea_10623
     RDKit          3D

 23 25  0  0  0  0  0  0  0  0999 V2000
   13.3210   -2.2590   20.7980 C   0  0  0  0  0  0  0  0  0  0  0  0
   13.6320   -1.9430   22.0880 O   0  0  0  0  0  0  0  0  0  0  0  0
   12.7280   -1.0840   22.4660 C   0  0  0  0  0  0  0  0  0  0  0  0
   11.4020   -1.6930   22.7980 C   0  0  0  0  0  0  0  0  0  0  0  0
   10.4050   -0.7240   23.3000 C   0  0  0  0  0  0  0  0  0  0  0  0
   10.7890    0.7080   23.3620 C   0  0  0  0  0  0  0  0  0  0  0  0
   12.0150    1.1470   22.9520 C   0  0  0  0  0  0  0  0  0  0  0  0
   12.9870    0.2740   22.5410 C   0  0  0  0  0  0  0  0  0  0  0  0
   12.2820    2.6620   22.9230 C   0  0  0  0  0  0  0  0  0  0  0  0
   11.1350    3.3510   23.3590 C   0  0  0  0  0  0  0  0  0  0  0  0
    9.9230    2.7010   23.1530 C   0  0  0  0  0  0  0  0  0  0  0  0
    9.8090    1.4920   23.8420 C   0  0  1  0  0  0  0  0  0  0  0  0
    8.6060    0.7780   23.8440 C   0  0  0  0  0  0  0  0  0  0  0  0
    8.3040   -0.1160   22.8140 N   0  0  0  0  0  0  0  0  0  0  0  0
    8.1850    0.2820   21.5430 C   0  0  0  0  0  0  0  0  0  0  0  0
    8.7900    1.1890   20.9990 O   0  0  0  0  0  0  0  0  0  0  0  0
    7.1570   -0.5430   20.9350 N   0  0  0  0  0  0  0  0  0  0  0  0
    6.4800    0.0710   19.9370 C   0  0  0  0  0  0  0  0  0  0  0  0
    5.3100    0.7760   20.2290 C   0  0  0  0  0  0  0  0  0  0  0  0
    4.6150    1.4320   19.2210 C   0  0  0  0  0  0  0  0  0  0  0  0
    5.1450    1.3390   17.9580 C   0  0  0  0  0  0  0  0  0  0  0  0
    6.2540    0.6660   17.6340 N   0  0  0  0  0  0  0  0  0  0  0  0
    6.8960    0.0460   18.6380 C   0  0  0  0  0  0  0  0  0  0  0  0
  1  2  1  0
  2  3  1  0
  3  4  2  0
  4  5  1  0
  5  6  2  0
  6  7  1  0
  3  8  1  0
  7  8  2  0
  7  9  1  0
  9 10  1  0
 10 11  1  0
  6 12  1  0
 11 12  1  0
 12 13  1  6
 13 14  1  0
 14 15  1  0
 15 16  2  0
 15 17  1  0
 17 18  1  0
 18 19  2  0
 19 20  1  0
 20 21  2  0
 21 22  1  0
 18 23  1  0
 22 23  2  0
M  END
