pyridine_urea_4658
     RDKit          3D

 22 23  0  0  0  0  0  0  0  0999 V2000
   13.7040   -2.8320   24.3790 C   0  0  0  0  0  0  0  0  0  0  0  0
   12.5450   -2.3620   23.5320 C   0  0  0  0  0  0  0  0  0  0  0  0
   11.5080   -1.8750   24.5280 C   0  0  0  0  0  0  0  0  0  0  0  0
   12.9910   -1.2770   22.7470 O   0  0  0  0  0  0  0  0  0  0  0  0
   12.1420   -0.1370   22.7970 C   0  0  0  0  0  0  0  0  0  0  0  0
   12.7370    1.0970   22.8270 C   0  0  0  0  0  0  0  0  0  0  0  0
   11.9040    2.2230   22.8680 C   0  0  0  0  0  0  0  0  0  0  0  0
   12.5340    3.8220   22.8690 Cl  0  0  0  0  0  0  0  0  0  0  0  0
   10.5160    2.0730   22.8990 C   0  0  0  0  0  0  0  0  0  0  0  0
    9.9500    0.8240   22.8780 C   0  0  0  0  0  0  0  0  0  0  0  0
   10.7650   -0.2690   22.8160 C   0  0  0  0  0  0  0  0  0  0  0  0
   10.1200   -1.5000   22.7830 C   0  0  0  0  0  0  0  0  0  0  0  0
    9.1330   -1.4680   21.7040 N   0  0  0  0  0  0  0  0  0  0  0  0
    8.4140   -0.3430   21.3520 C   0  0  0  0  0  0  0  0  0  0  0  0
    8.8790    0.7840   21.2790 O   0  0  0  0  0  0  0  0  0  0  0  0
    7.1110   -0.6520   21.0600 N   0  0  0  0  0  0  0  0  0  0  0  0
    6.4300    0.0050   20.0280 C   0  0  0  0  0  0  0  0  0  0  0  0
    5.2570    0.6890   20.3210 C   0  0  0  0  0  0  0  0  0  0  0  0
    4.5920    1.3660   19.2420 C   0  0  0  0  0  0  0  0  0  0  0  0
    5.1680    1.2850   17.9990 C   0  0  0  0  0  0  0  0  0  0  0  0
    6.2910    0.6210   17.7250 N   0  0  0  0  0  0  0  0  0  0  0  0
    6.8970   -0.0050   18.7400 C   0  0  0  0  0  0  0  0  0  0  0  0
  1  2  1  0
  2  3  1  0
  2  4  1  0
  4  5  1  0
  5  6  2  0
  6  7  1  0
  7  8  1  0
  7  9  2  0
  9 10  1  0
  5 11  1  0
 10 11  2  0
 11 12  1  0
 12 13  1  0
 13 14  1  0
 14 15  2  0
 14 16  1  0
 16 17  1  0
 17 18  2  0
 18 19  1  0
 19 20  2  0
 20 21  1  0
 17 22  1  0
 21 22  2  0
M  END
