pyridine_urea_1904
     RDKit          3D

 16 16  0  0  0  0  0  0  0  0999 V2000
   12.2500    1.0510   23.2200 C   0  0  0  0  0  0  0  0  0  0  0  0
   10.8400    0.5620   22.9850 C   0  0  0  0  0  0  0  0  0  0  0  0
   10.5750   -0.7770   22.7550 C   0  0  0  0  0  0  0  0  0  0  0  0
   10.9900   -1.7900   23.6380 C   0  0  0  0  0  0  0  0  0  0  0  0
   11.6610   -1.7150   22.2370 C   0  0  0  0  0  0  0  0  0  0  0  0
   12.9880   -1.3060   22.4550 C   0  0  0  0  0  0  0  0  0  0  0  0
    9.3470   -1.1310   22.1350 N   0  0  0  0  0  0  0  0  0  0  0  0
    8.5430   -0.1800   21.5180 C   0  0  0  0  0  0  0  0  0  0  0  0
    8.8340    0.9980   21.3780 O   0  0  0  0  0  0  0  0  0  0  0  0
    7.3450   -0.7050   21.0600 N   0  0  0  0  0  0  0  0  0  0  0  0
    6.5090   -0.0060   20.0710 C   0  0  0  0  0  0  0  0  0  0  0  0
    5.3430    0.6920   20.3350 C   0  0  0  0  0  0  0  0  0  0  0  0
    4.6430    1.3300   19.3110 C   0  0  0  0  0  0  0  0  0  0  0  0
    5.1520    1.2430   18.0260 C   0  0  0  0  0  0  0  0  0  0  0  0
    6.2740    0.5680   17.7340 N   0  0  0  0  0  0  0  0  0  0  0  0
    6.9180   -0.0340   18.7500 C   0  0  0  0  0  0  0  0  0  0  0  0
  1  2  1  0
  2  3  1  0
  3  4  1  0
  3  5  1  0
  5  6  1  0
  3  7  1  0
  7  8  1  0
  8  9  2  0
  8 10  1  0
 10 11  1  0
 11 12  2  0
 12 13  1  0
 13 14  2  0
 14 15  1  0
 11 16  1  0
 15 16  2  0
M  END
