pyridine_urea_8203
     RDKit          3D

 23 24  0  0  0  0  0  0  0  0999 V2000
   13.2830   -1.9300   25.2340 C   0  0  0  0  0  0  0  0  0  0  0  0
   12.4720   -0.7600   25.2520 O   0  0  0  0  0  0  0  0  0  0  0  0
   11.6450   -0.8590   24.1070 C   0  0  0  0  0  0  0  0  0  0  0  0
   10.0700   -0.6860   24.1920 C   0  0  0  0  0  0  0  0  0  0  0  0
    9.2560   -0.8130   23.0210 C   0  0  0  0  0  0  0  0  0  0  0  0
    9.9350   -1.1340   21.6510 C   0  0  0  0  0  0  0  0  0  0  0  0
   11.2910   -1.2500   21.8190 C   0  0  0  0  0  0  0  0  0  0  0  0
   10.2600   -0.8350   22.8670 C   0  0  2  0  0  0  0  0  0  0  0  0
    9.1070   -0.5560   23.0400 N   0  0  0  0  0  0  0  0  0  0  0  0
    8.5230    0.1110   21.7980 C   0  0  0  0  0  0  0  0  0  0  0  0
    9.0330    1.3440   21.2370 O   0  0  0  0  0  0  0  0  0  0  0  0
    7.3790   -0.6240   21.2460 N   0  0  0  0  0  0  0  0  0  0  0  0
    6.6970   -0.0500   20.1800 C   0  0  0  0  0  0  0  0  0  0  0  0
    5.4470    0.7710   20.5270 C   0  0  0  0  0  0  0  0  0  0  0  0
    4.6310    1.4610   19.4240 C   0  0  0  0  0  0  0  0  0  0  0  0
    5.2080    1.2260   18.0370 C   0  0  0  0  0  0  0  0  0  0  0  0
    6.3380    0.4630   17.8300 N   0  0  0  0  0  0  0  0  0  0  0  0
    7.0620   -0.1600   18.8510 C   0  0  0  0  0  0  0  0  0  0  0  0
   10.8510    0.3310   23.4830 C   0  0  0  0  0  0  0  0  0  0  0  0
   10.2240    1.5470   23.1710 C   0  0  0  0  0  0  0  0  0  0  0  0
   10.0570    1.1270   24.5090 C   0  0  0  0  0  0  0  0  0  0  0  0
   12.1810    0.7490   23.5210 C   0  0  0  0  0  0  0  0  0  0  0  0
   12.2040   -1.1460   22.8590 C   0  0  0  0  0  0  0  0  0  0  0  0
  1  2  1  0
  2  3  1  0
  3  4  2  0
  4  5  1  0
  5  6  2  0
  6  7  1  0
  7  8  1  0
  8  9  1  6
  9 10  1  0
 10 11  2  0
 10 12  1  0
 12 13  1  0
 13 14  2  0
 14 15  1  0
 15 16  2  0
 16 17  1  0
 13 18  1  0
 17 18  2  0
  8 19  1  0
 19 20  1  0
 19 21  1  0
 19 22  1  0
  3 23  1  0
  7 23  2  0
M  END
