pyridine_urea_3828
     RDKit          3D

 21 23  0  0  0  0  0  0  0  0999 V2000
    8.7280    1.1510   21.1320 O   0  0  0  0  0  0  0  0  0  0  0  0
    8.0980    0.1300   21.4680 C   0  0  0  0  0  0  0  0  0  0  0  0
    7.0000   -0.4190   20.9060 N   0  0  0  0  0  0  0  0  0  0  0  0
    6.3610    0.2010   19.8750 C   0  0  0  0  0  0  0  0  0  0  0  0
    5.1790    0.8870   20.1180 C   0  0  0  0  0  0  0  0  0  0  0  0
    4.5520    1.5310   19.0610 C   0  0  0  0  0  0  0  0  0  0  0  0
    5.1390    1.4550   17.8160 C   0  0  0  0  0  0  0  0  0  0  0  0
    6.2740    0.7840   17.5810 N   0  0  0  0  0  0  0  0  0  0  0  0
    6.8530    0.1760   18.6140 C   0  0  0  0  0  0  0  0  0  0  0  0
    8.4380   -0.6250   22.5150 N   0  0  0  0  0  0  0  0  0  0  0  0
    9.7680   -0.5330   22.9870 C   0  0  0  0  0  0  0  0  0  0  0  0
   10.8190   -1.0970   22.2360 C   0  0  0  0  0  0  0  0  0  0  0  0
   11.9390   -0.9070   22.8630 N   0  0  0  0  0  0  0  0  0  0  0  0
   11.8360   -0.2110   24.1060 N   0  0  0  0  0  0  0  0  0  0  0  0
   13.0710   -0.5460   23.8690 C   0  0  1  0  0  0  0  0  0  0  0  0
   13.3790   -1.6030   24.7420 C   0  0  0  0  0  0  0  0  0  0  0  0
   12.6180   -2.6650   24.4110 C   0  0  0  0  0  0  0  0  0  0  0  0
   12.6420   -2.7450   23.0990 N   0  0  0  0  0  0  0  0  0  0  0  0
   13.1190   -1.5520   22.6590 C   0  0  0  0  0  0  0  0  0  0  0  0
   13.5630   -1.2960   21.3850 O   0  0  0  0  0  0  0  0  0  0  0  0
   10.4350    0.0040   24.0950 C   0  0  0  0  0  0  0  0  0  0  0  0
  1  2  2  0
  2  3  1  0
  3  4  1  0
  4  5  2  0
  5  6  1  0
  6  7  2  0
  7  8  1  0
  4  9  1  0
  8  9  2  0
  2 10  1  0
 10 11  1  0
 11 12  1  0
 12 13  2  0
 13 14  1  0
 15 14  1  1
 15 16  1  0
 16 17  1  0
 17 18  1  0
 15 19  1  0
 18 19  1  0
 19 20  2  0
 11 21  2  0
 14 21  1  0
M  END
