pyridine_urea_3348
     RDKit          3D

 20 21  0  0  0  0  0  0  0  0999 V2000
    7.7900    1.1380   26.2160 C   0  0  0  0  0  0  0  0  0  0  0  0
    8.5250   -0.1330   26.5050 C   0  0  0  0  0  0  0  0  0  0  0  0
    9.9600    0.0840   26.3930 N   0  0  0  0  0  0  0  0  0  0  0  0
   10.5080   -0.2130   25.0350 C   0  0  0  0  0  0  0  0  0  0  0  0
   11.6210    0.2480   24.3740 C   0  0  0  0  0  0  0  0  0  0  0  0
   11.9350   -0.1620   23.1230 C   0  0  0  0  0  0  0  0  0  0  0  0
   11.1400   -1.1750   22.2560 C   0  0  0  0  0  0  0  0  0  0  0  0
   10.2640   -2.0730   21.7340 C   0  0  0  0  0  0  0  0  0  0  0  0
    9.1750   -1.4160   21.0230 N   0  0  0  0  0  0  0  0  0  0  0  0
    8.4540   -0.2930   21.3520 C   0  0  0  0  0  0  0  0  0  0  0  0
    8.9730    0.7680   21.6620 O   0  0  0  0  0  0  0  0  0  0  0  0
    7.1260   -0.5550   21.2280 N   0  0  0  0  0  0  0  0  0  0  0  0
    6.4570    0.0690   20.2150 C   0  0  0  0  0  0  0  0  0  0  0  0
    5.2930    0.8100   20.3700 C   0  0  0  0  0  0  0  0  0  0  0  0
    4.7020    1.4090   19.2630 C   0  0  0  0  0  0  0  0  0  0  0  0
    5.2820    1.2600   18.0140 C   0  0  0  0  0  0  0  0  0  0  0  0
    6.4010    0.5530   17.8020 N   0  0  0  0  0  0  0  0  0  0  0  0
    6.9480   -0.0220   18.9070 C   0  0  0  0  0  0  0  0  0  0  0  0
   10.0680   -1.5150   23.1100 C   0  0  0  0  0  0  0  0  0  0  0  0
    9.8020   -1.0700   24.3510 C   0  0  0  0  0  0  0  0  0  0  0  0
  1  2  1  0
  2  3  1  0
  3  4  1  0
  4  5  2  0
  5  6  1  0
  6  7  2  0
  7  8  1  0
  8  9  1  0
  9 10  1  0
 10 11  2  0
 10 12  1  0
 12 13  1  0
 13 14  2  0
 14 15  1  0
 15 16  2  0
 16 17  1  0
 13 18  1  0
 17 18  2  0
  7 19  1  0
  4 20  1  0
 19 20  2  0
M  END
