pyridine_urea_7812
     RDKit          3D

 27 29  0  0  0  0  0  0  0  0999 V2000
   12.6950    6.1920   22.6240 O   0  0  0  0  0  0  0  0  0  0  0  0
   12.0380    5.1740   22.7840 C   0  0  0  0  0  0  0  0  0  0  0  0
   11.0780    4.9300   23.9650 C   0  0  0  0  0  0  0  0  0  0  0  0
   10.8230    3.7630   24.3000 O   0  0  0  0  0  0  0  0  0  0  0  0
   10.0120    2.9480   23.5310 C   0  0  0  0  0  0  0  0  0  0  0  0
    9.4870    3.5580   22.4940 C   0  0  0  0  0  0  0  0  0  0  0  0
    8.6650    2.8800   21.6260 C   0  0  0  0  0  0  0  0  0  0  0  0
    8.2670    1.5510   21.6660 C   0  0  0  0  0  0  0  0  0  0  0  0
    8.7070    0.7890   22.6420 C   0  0  0  0  0  0  0  0  0  0  0  0
    8.3160   -0.5890   22.7200 N   0  0  0  0  0  0  0  0  0  0  0  0
    7.9570   -0.9550   21.5060 C   0  0  0  0  0  0  0  0  0  0  0  0
    8.8970   -1.3090   20.6850 O   0  0  0  0  0  0  0  0  0  0  0  0
    6.6280   -0.8550   21.2510 N   0  0  0  0  0  0  0  0  0  0  0  0
    6.1620   -0.1230   20.1500 C   0  0  0  0  0  0  0  0  0  0  0  0
    5.0040    0.6500   20.2210 C   0  0  0  0  0  0  0  0  0  0  0  0
    4.5630    1.3710   19.1290 C   0  0  0  0  0  0  0  0  0  0  0  0
    5.2180    1.3810   17.9170 C   0  0  0  0  0  0  0  0  0  0  0  0
    6.3430    0.6750   17.7210 N   0  0  0  0  0  0  0  0  0  0  0  0
    6.8180   -0.0530   18.7630 C   0  0  0  0  0  0  0  0  0  0  0  0
    9.5730    1.4650   23.5520 C   0  0  0  0  0  0  0  0  0  0  0  0
   12.0450    4.0990   21.9150 N   0  0  0  0  0  0  0  0  0  0  0  0
   12.9240    3.7900   20.8570 C   0  0  0  0  0  0  0  0  0  0  0  0
   14.1800    3.4040   21.0480 C   0  0  0  0  0  0  0  0  0  0  0  0
   15.0300    3.1190   19.9460 C   0  0  0  0  0  0  0  0  0  0  0  0
   14.6230    3.2130   18.6640 C   0  0  0  0  0  0  0  0  0  0  0  0
   13.3230    3.5970   18.4730 C   0  0  0  0  0  0  0  0  0  0  0  0
   12.5730    3.8440   19.5710 C   0  0  0  0  0  0  0  0  0  0  0  0
  1  2  2  0
  2  3  1  0
  3  4  1  0
  4  5  1  0
  5  6  2  0
  6  7  1  0
  7  8  2  0
  8  9  1  0
  9 10  1  0
 10 11  1  0
 11 12  2  0
 11 13  1  0
 13 14  1  0
 14 15  2  0
 15 16  1  0
 16 17  2  0
 17 18  1  0
 14 19  1  0
 18 19  2  0
  5 20  1  0
  9 20  2  0
  2 21  1  0
 21 22  1  0
 22 23  2  0
 23 24  1  0
 24 25  2  0
 25 26  1  0
 22 27  1  0
 26 27  2  0
M  END
