pyridine_urea_12360
     RDKit          3D

 22 23  0  0  0  0  0  0  0  0999 V2000
   11.6680   -1.1870   22.5040 C   0  0  0  0  0  0  0  0  0  0  0  0
   10.9470   -2.5230   22.4900 C   0  0  0  0  0  0  0  0  0  0  0  0
    9.9940   -2.6820   23.5570 O   0  0  0  0  0  0  0  0  0  0  0  0
   10.0640   -1.7140   24.4930 C   0  0  0  0  0  0  0  0  0  0  0  0
   11.1640   -1.4240   25.3350 O   0  0  0  0  0  0  0  0  0  0  0  0
    8.9430   -0.8840   24.5640 C   0  0  0  0  0  0  0  0  0  0  0  0
    8.5090   -0.3750   23.0430 S   0  0  0  0  0  0  0  0  0  0  0  0
    7.2060    0.5670   23.7020 C   0  0  0  0  0  0  0  0  0  0  0  0
    6.4760    1.2850   22.8070 C   0  0  0  0  0  0  0  0  0  0  0  0
    7.4180    1.3970   21.6600 N   0  0  0  0  0  0  0  0  0  0  0  0
    8.0590    0.1470   21.2620 C   0  0  0  0  0  0  0  0  0  0  0  0
    9.2690    0.0190   21.2380 O   0  0  0  0  0  0  0  0  0  0  0  0
    7.0540   -0.7830   20.9000 N   0  0  0  0  0  0  0  0  0  0  0  0
    6.3840   -0.0840   19.9300 C   0  0  0  0  0  0  0  0  0  0  0  0
    5.0570    0.5760   20.2510 C   0  0  0  0  0  0  0  0  0  0  0  0
    4.4120    1.3510   19.1280 C   0  0  0  0  0  0  0  0  0  0  0  0
    5.1470    1.3900   17.8110 C   0  0  0  0  0  0  0  0  0  0  0  0
    6.3160    0.7560   17.6320 N   0  0  0  0  0  0  0  0  0  0  0  0
    6.8830    0.0640   18.6520 C   0  0  0  0  0  0  0  0  0  0  0  0
    7.0660    0.4930   25.0640 N   0  0  0  0  0  0  0  0  0  0  0  0
    8.0310   -0.3150   25.5820 C   0  0  0  0  0  0  0  0  0  0  0  0
    8.0580   -0.4990   26.9630 C   0  0  0  0  0  0  0  0  0  0  0  0
  1  2  1  0
  2  3  1  0
  3  4  1  0
  4  5  2  0
  4  6  1  0
  6  7  1  0
  7  8  1  0
  8  9  1  0
  9 10  1  0
 10 11  1  0
 11 12  2  0
 11 13  1  0
 13 14  1  0
 14 15  2  0
 15 16  1  0
 16 17  2  0
 17 18  1  0
 14 19  1  0
 18 19  2  0
  8 20  2  0
  6 21  2  0
 20 21  1  0
 21 22  1  0
M  END
