pyridine_urea_1411
     RDKit          3D

 20 21  0  0  0  0  0  0  0  0999 V2000
    8.9790    1.1540   21.2270 O   0  0  0  0  0  0  0  0  0  0  0  0
    8.4820    0.0680   21.5620 C   0  0  0  0  0  0  0  0  0  0  0  0
    9.0310   -0.7150   22.5490 N   0  0  0  0  0  0  0  0  0  0  0  0
   10.4720   -0.7380   22.7270 C   0  0  0  0  0  0  0  0  0  0  0  0
   11.0390    0.6580   23.0700 C   0  0  0  0  0  0  0  0  0  0  0  0
   10.3020    1.8260   22.8460 C   0  0  0  0  0  0  0  0  0  0  0  0
   10.8400    3.0700   23.1840 C   0  0  0  0  0  0  0  0  0  0  0  0
   12.0780    3.4620   22.6730 C   0  0  0  0  0  0  0  0  0  0  0  0
   12.6270    4.6970   23.0000 C   0  0  0  0  0  0  0  0  0  0  0  0
   11.9500    5.5760   23.8500 C   0  0  0  0  0  0  0  0  0  0  0  0
   10.7190    5.1870   24.3590 C   0  0  0  0  0  0  0  0  0  0  0  0
   10.0700    6.0330   25.1760 F   0  0  0  0  0  0  0  0  0  0  0  0
   10.1560    3.9490   24.0390 C   0  0  0  0  0  0  0  0  0  0  0  0
    7.3410   -0.4900   21.0460 N   0  0  0  0  0  0  0  0  0  0  0  0
    6.6100    0.0890   20.0120 C   0  0  0  0  0  0  0  0  0  0  0  0
    5.3560    0.8580   20.2970 C   0  0  0  0  0  0  0  0  0  0  0  0
    4.6110    1.4620   19.3080 C   0  0  0  0  0  0  0  0  0  0  0  0
    5.1380    1.2900   17.9980 C   0  0  0  0  0  0  0  0  0  0  0  0
    6.2560    0.5980   17.7010 N   0  0  0  0  0  0  0  0  0  0  0  0
    6.9610    0.0180   18.6950 C   0  0  0  0  0  0  0  0  0  0  0  0
  1  2  2  0
  2  3  1  0
  3  4  1  0
  4  5  1  0
  5  6  3  0
  6  7  1  0
  7  8  2  0
  8  9  1  0
  9 10  2  0
 10 11  1  0
 11 12  1  0
  7 13  1  0
 11 13  2  0
  2 14  1  0
 14 15  1  0
 15 16  2  0
 16 17  1  0
 17 18  2  0
 18 19  1  0
 15 20  1  0
 19 20  2  0
M  END
