pyridine_urea_9336
     RDKit          3D

 16 16  0  0  0  0  0  0  0  0999 V2000
   11.5350   -0.6280   25.0230 C   0  0  0  0  0  0  0  0  0  0  0  0
   11.9330    0.5050   24.1170 C   0  0  0  0  0  0  0  0  0  0  0  0
   12.7490    0.3750   23.0160 C   0  0  0  0  0  0  0  0  0  0  0  0
   12.8440   -0.8900   22.4660 C   0  0  0  0  0  0  0  0  0  0  0  0
   11.6520   -1.5670   22.2750 C   0  0  0  0  0  0  0  0  0  0  0  0
   10.4560   -0.9860   22.7260 C   0  0  0  0  0  0  0  0  0  0  0  0
    9.2520   -1.1930   22.0220 N   0  0  0  0  0  0  0  0  0  0  0  0
    8.4790   -0.1880   21.4700 C   0  0  0  0  0  0  0  0  0  0  0  0
    8.8280    0.9740   21.3310 O   0  0  0  0  0  0  0  0  0  0  0  0
    7.2350   -0.6530   21.0730 N   0  0  0  0  0  0  0  0  0  0  0  0
    6.4320    0.0440   20.0610 C   0  0  0  0  0  0  0  0  0  0  0  0
    5.2560    0.7390   20.2920 C   0  0  0  0  0  0  0  0  0  0  0  0
    4.6080    1.3730   19.2310 C   0  0  0  0  0  0  0  0  0  0  0  0
    5.1690    1.2810   17.9660 C   0  0  0  0  0  0  0  0  0  0  0  0
    6.2990    0.6070   17.7160 N   0  0  0  0  0  0  0  0  0  0  0  0
    6.8960    0.0110   18.7600 C   0  0  0  0  0  0  0  0  0  0  0  0
  1  2  2  3
  2  3  1  0
  3  4  1  0
  4  5  1  0
  5  6  1  0
  6  7  1  0
  7  8  1  0
  8  9  2  0
  8 10  1  0
 10 11  1  0
 11 12  2  0
 12 13  1  0
 13 14  2  0
 14 15  1  0
 11 16  1  0
 15 16  2  0
M  END
