pyridine_urea_3517
     RDKit          3D

 18 19  0  0  0  0  0  0  0  0999 V2000
    9.9150   -0.8310   24.7670 C   0  0  0  0  0  0  0  0  0  0  0  0
    9.6640   -0.0530   23.4770 C   0  0  2  0  0  0  0  0  0  0  0  0
    9.0500   -0.8020   22.4020 N   0  0  0  0  0  0  0  0  0  0  0  0
    8.4360   -0.0120   21.4670 C   0  0  0  0  0  0  0  0  0  0  0  0
    8.8800    1.1010   21.1500 O   0  0  0  0  0  0  0  0  0  0  0  0
    7.2960   -0.5920   20.9810 N   0  0  0  0  0  0  0  0  0  0  0  0
    6.5490    0.0410   19.9980 C   0  0  0  0  0  0  0  0  0  0  0  0
    5.2640    0.7650   20.3710 C   0  0  0  0  0  0  0  0  0  0  0  0
    4.4870    1.4690   19.2760 C   0  0  0  0  0  0  0  0  0  0  0  0
    5.1440    1.3380   17.9070 C   0  0  0  0  0  0  0  0  0  0  0  0
    6.2830    0.6650   17.6800 N   0  0  0  0  0  0  0  0  0  0  0  0
    6.9370    0.0530   18.6840 C   0  0  0  0  0  0  0  0  0  0  0  0
   10.9120    0.6320   22.9900 C   0  0  0  0  0  0  0  0  0  0  0  0
   12.1880    0.9390   22.7390 C   0  0  0  0  0  0  0  0  0  0  0  0
   13.2490    0.2610   23.1080 C   0  0  0  0  0  0  0  0  0  0  0  0
   13.2470   -0.8920   23.8240 C   0  0  0  0  0  0  0  0  0  0  0  0
   12.7390   -2.2860   24.7120 Cl  0  0  0  0  0  0  0  0  0  0  0  0
   11.5380   -0.7610   23.8200 S   0  0  0  0  0  0  0  0  0  0  0  0
  2  1  1  1
  2  3  1  0
  3  4  1  0
  4  5  2  0
  4  6  1  0
  6  7  1  0
  7  8  2  0
  8  9  1  0
  9 10  2  0
 10 11  1  0
  7 12  1  0
 11 12  2  0
  2 13  1  0
 13 14  2  0
 14 15  1  0
 15 16  2  0
 16 17  1  0
 13 18  1  0
 16 18  1  0
M  END
