pyridine_urea_1859
     RDKit          3D

 16 17  0  0  0  0  0  0  0  0999 V2000
   12.9610    0.4190   23.0720 C   0  0  0  0  0  0  0  0  0  0  0  0
   12.5400   -0.9470   22.6270 C   0  0  0  0  0  0  0  0  0  0  0  0
   11.2230   -1.2940   22.4010 C   0  0  0  0  0  0  0  0  0  0  0  0
   10.2440   -0.5360   23.0150 C   0  0  0  0  0  0  0  0  0  0  0  0
    8.9020   -0.5750   22.5910 N   0  0  0  0  0  0  0  0  0  0  0  0
    8.3620    0.1310   21.5300 C   0  0  0  0  0  0  0  0  0  0  0  0
    8.8270    1.2160   21.1560 O   0  0  0  0  0  0  0  0  0  0  0  0
    7.2950   -0.5410   21.0390 N   0  0  0  0  0  0  0  0  0  0  0  0
    6.5960    0.0650   20.0540 C   0  0  0  0  0  0  0  0  0  0  0  0
    5.4420    0.7750   20.3870 C   0  0  0  0  0  0  0  0  0  0  0  0
    4.6690    1.4650   19.2510 C   0  0  0  0  0  0  0  0  0  0  0  0
    5.1780    1.3300   17.9840 C   0  0  0  0  0  0  0  0  0  0  0  0
    6.2910    0.6300   17.7130 N   0  0  0  0  0  0  0  0  0  0  0  0
    6.9570    0.0270   18.7250 C   0  0  0  0  0  0  0  0  0  0  0  0
   13.5530   -1.9770   23.0310 N   0  0  0  0  0  0  0  0  0  0  0  0
   13.2640   -1.7050   21.8580 N   0  0  0  0  0  0  0  0  0  0  0  0
  2  1  1  0
  2  3  1  0
  3  4  1  0
  4  5  1  0
  5  6  1  0
  6  7  2  0
  6  8  1  0
  8  9  1  0
  9 10  2  0
 10 11  1  0
 11 12  2  0
 12 13  1  0
  9 14  1  0
 13 14  2  0
  2 15  1  0
  2 16  1  0
 15 16  2  0
M  END
