pyridine_urea_14138
     RDKit          3D

 23 25  0  0  0  0  0  0  0  0999 V2000
    0.4410    3.5490   20.8860 C   0  0  0  0  0  0  0  0  0  0  0  0
    1.8090    3.7140   20.8120 N   0  0  0  0  0  0  0  0  0  0  0  0
    2.3350    4.3600   19.6250 C   0  0  0  0  0  0  0  0  0  0  0  0
    2.4870    3.3080   18.5270 C   0  0  0  0  0  0  0  0  0  0  0  0
    3.1140    2.0940   19.0500 N   0  0  0  0  0  0  0  0  0  0  0  0
    4.3890    1.5110   19.0650 C   0  0  0  0  0  0  0  0  0  0  0  0
    4.4280    0.9570   20.2650 C   0  0  0  0  0  0  0  0  0  0  0  0
    5.5540    0.1910   20.8560 C   0  0  0  0  0  0  0  0  0  0  0  0
    6.7380    0.0460   20.0220 C   0  0  0  0  0  0  0  0  0  0  0  0
    7.8460   -0.6170   20.4830 N   0  0  0  0  0  0  0  0  0  0  0  0
    8.7050    0.0220   21.3860 C   0  0  0  0  0  0  0  0  0  0  0  0
    9.0130    1.4090   21.2360 O   0  0  0  0  0  0  0  0  0  0  0  0
    9.1950   -0.8070   22.3310 N   0  0  0  0  0  0  0  0  0  0  0  0
   10.4920   -0.5540   22.5860 C   0  0  0  0  0  0  0  0  0  0  0  0
   11.0140    0.7140   22.9190 C   0  0  0  0  0  0  0  0  0  0  0  0
   12.4010    0.8630   23.1590 C   0  0  0  0  0  0  0  0  0  0  0  0
   13.0640   -0.3210   23.0280 C   0  0  0  0  0  0  0  0  0  0  0  0
   12.8930   -1.6120   22.7460 N   0  0  0  0  0  0  0  0  0  0  0  0
   11.5720   -1.4360   22.5760 C   0  0  0  0  0  0  0  0  0  0  0  0
    6.5880    0.7450   18.5910 C   0  0  0  0  0  0  0  0  0  0  0  0
    5.4280    1.4290   18.1950 N   0  0  0  0  0  0  0  0  0  0  0  0
    2.5470    1.7120   20.2220 C   0  0  0  0  0  0  0  0  0  0  0  0
    2.5190    2.6240   21.2940 C   0  0  0  0  0  0  0  0  0  0  0  0
  1  2  1  0
  2  3  1  0
  3  4  1  0
  4  5  1  0
  5  6  1  0
  6  7  2  0
  7  8  1  0
  8  9  2  0
  9 10  1  0
 10 11  1  0
 11 12  2  0
 11 13  1  0
 13 14  1  0
 14 15  2  0
 15 16  1  0
 16 17  2  0
 17 18  1  0
 14 19  1  0
 18 19  2  0
  9 20  1  0
  6 21  1  0
 20 21  2  0
  5 22  1  0
  2 23  1  0
 22 23  1  0
M  END
