pyridine_urea_8023
     RDKit          3D

 24 26  0  0  0  0  0  0  0  0999 V2000
   11.1180   -1.8100   23.6110 C   0  0  0  0  0  0  0  0  0  0  0  0
   10.5120   -0.9170   22.5460 C   0  0  1  0  0  0  0  0  0  0  0  0
    9.0590   -1.0340   22.4930 N   0  0  0  0  0  0  0  0  0  0  0  0
    8.3930   -0.2150   21.5960 C   0  0  0  0  0  0  0  0  0  0  0  0
    8.8390    0.8570   21.2260 O   0  0  0  0  0  0  0  0  0  0  0  0
    7.1940   -0.7140   21.1540 N   0  0  0  0  0  0  0  0  0  0  0  0
    6.5020   -0.0540   20.0580 C   0  0  0  0  0  0  0  0  0  0  0  0
    5.3460    0.6720   20.2970 C   0  0  0  0  0  0  0  0  0  0  0  0
    4.6320    1.3530   19.3030 C   0  0  0  0  0  0  0  0  0  0  0  0
    5.1370    1.2850   18.0030 C   0  0  0  0  0  0  0  0  0  0  0  0
    6.2740    0.5680   17.7450 N   0  0  0  0  0  0  0  0  0  0  0  0
    6.9570   -0.1030   18.7600 C   0  0  0  0  0  0  0  0  0  0  0  0
   10.8620    0.5520   22.6990 C   0  0  0  0  0  0  0  0  0  0  0  0
   10.2570    1.5590   22.7240 C   0  0  0  0  0  0  0  0  0  0  0  0
   11.5200    2.0410   22.8540 C   0  0  0  0  0  0  0  0  0  0  0  0
   11.8230    0.4600   22.7820 C   0  0  0  0  0  0  0  0  0  0  0  0
   13.1330    0.8130   22.9150 C   0  0  0  0  0  0  0  0  0  0  0  0
   12.0570    1.4550   22.8720 C   0  0  0  0  0  0  0  0  0  0  0  0
   11.9650    2.8920   22.9730 C   0  0  0  0  0  0  0  0  0  0  0  0
   10.7830    3.5500   23.3810 C   0  0  0  0  0  0  0  0  0  0  0  0
   10.7340    4.9440   23.4670 C   0  0  0  0  0  0  0  0  0  0  0  0
   11.8530    5.7160   23.1510 C   0  0  0  0  0  0  0  0  0  0  0  0
   13.0370    5.0900   22.7470 C   0  0  0  0  0  0  0  0  0  0  0  0
   13.0690    3.7130   22.6690 C   0  0  0  0  0  0  0  0  0  0  0  0
  2  1  1  1
  2  3  1  0
  3  4  1  0
  4  5  2  0
  4  6  1  0
  6  7  1  0
  7  8  2  0
  8  9  1  0
  9 10  2  0
 10 11  1  0
  7 12  1  0
 11 12  2  0
  2 13  1  0
 13 14  2  0
 14 15  1  0
 15 16  2  0
 16 17  1  0
 13 18  1  0
 17 18  2  0
 18 19  1  0
 19 20  2  0
 20 21  1  0
 21 22  2  0
 22 23  1  0
 19 24  1  0
 23 24  2  0
M  END
