pyridine_urea_9673
     RDKit          3D

 30 32  0  0  0  0  0  0  0  0999 V2000
   13.2710    0.2340   24.1250 C   0  0  0  0  0  0  0  0  0  0  0  0
   12.3680   -0.7180   23.7090 C   0  0  0  0  0  0  0  0  0  0  0  0
   10.7510   -0.9840   24.2280 C   0  0  0  0  0  0  0  0  0  0  0  0
    9.8930   -2.0680   23.5250 C   0  0  0  0  0  0  0  0  0  0  0  0
    8.4120   -2.1320   23.6990 N   0  0  0  0  0  0  0  0  0  0  0  0
    7.6890   -1.1360   22.8430 C   0  0  0  0  0  0  0  0  0  0  0  0
    7.4400   -0.0170   23.2420 O   0  0  0  0  0  0  0  0  0  0  0  0
    7.3190   -1.4620   21.4710 N   0  0  0  0  0  0  0  0  0  0  0  0
    6.6550   -0.6090   20.4980 C   0  0  0  0  0  0  0  0  0  0  0  0
    5.3950    0.2450   20.7780 C   0  0  0  0  0  0  0  0  0  0  0  0
    4.9220    0.9880   19.6810 C   0  0  0  0  0  0  0  0  0  0  0  0
    5.5270    0.9690   18.4430 C   0  0  0  0  0  0  0  0  0  0  0  0
    6.6200    0.2500   18.1490 N   0  0  0  0  0  0  0  0  0  0  0  0
    7.1510   -0.5140   19.1700 C   0  0  0  0  0  0  0  0  0  0  0  0
   10.6140   -3.0490   22.5790 C   0  0  0  0  0  0  0  0  0  0  0  0
   12.2090   -2.6660   22.2540 C   0  0  0  0  0  0  0  0  0  0  0  0
   12.9850   -1.4070   22.7870 C   0  0  0  0  0  0  0  0  0  0  0  0
   14.0660   -0.6300   22.7560 N   0  0  0  0  0  0  0  0  0  0  0  0
   13.9960    0.9670   22.7580 C   0  0  0  0  0  0  0  0  0  0  0  0
   13.2100    1.6980   23.5840 O   0  0  0  0  0  0  0  0  0  0  0  0
   14.5220    2.2680   21.8710 C   0  0  0  0  0  0  0  0  0  0  0  0
   13.9940    2.6700   20.7680 C   0  0  0  0  0  0  0  0  0  0  0  0
   14.3240    3.7310   20.0230 C   0  0  0  0  0  0  0  0  0  0  0  0
   15.3140    4.5620   20.4370 C   0  0  0  0  0  0  0  0  0  0  0  0
   15.8920    4.1840   21.5670 C   0  0  0  0  0  0  0  0  0  0  0  0
   17.1520    4.6660   22.8020 S   0  0  0  0  0  0  0  0  0  0  0  0
   17.4880    3.7750   24.2320 C   0  0  0  0  0  0  0  0  0  0  0  0
   16.1750    5.3780   23.4000 O   0  0  0  0  0  0  0  0  0  0  0  0
   18.3950    5.3240   22.6000 O   0  0  0  0  0  0  0  0  0  0  0  0
   15.5190    3.2010   22.0950 C   0  0  0  0  0  0  0  0  0  0  0  0
  1  2  1  0
  2  3  2  0
  3  4  1  0
  4  5  1  0
  5  6  1  0
  6  7  2  0
  6  8  1  0
  8  9  1  0
  9 10  2  0
 10 11  1  0
 11 12  2  0
 12 13  1  0
  9 14  1  0
 13 14  2  0
  4 15  2  0
 15 16  1  0
  2 17  1  0
 16 17  2  0
 17 18  1  0
 18 19  1  0
 19 20  2  0
 19 21  1  0
 21 22  2  0
 22 23  1  0
 23 24  2  0
 24 25  1  0
 25 26  1  0
 26 27  1  0
 26 28  2  0
 26 29  2  0
 21 30  1  0
 25 30  2  0
M  END
