pyridine_urea_7133
     RDKit          3D

 19 21  0  0  0  0  0  0  0  0999 V2000
    8.7280    1.1320   21.0880 O   0  0  0  0  0  0  0  0  0  0  0  0
    8.2220    0.0390   21.3940 C   0  0  0  0  0  0  0  0  0  0  0  0
    7.0460   -0.4760   20.9150 N   0  0  0  0  0  0  0  0  0  0  0  0
    6.3180    0.1820   19.9470 C   0  0  0  0  0  0  0  0  0  0  0  0
    5.1270    0.8640   20.1440 C   0  0  0  0  0  0  0  0  0  0  0  0
    4.5260    1.4960   19.0640 C   0  0  0  0  0  0  0  0  0  0  0  0
    5.1470    1.4160   17.8340 C   0  0  0  0  0  0  0  0  0  0  0  0
    6.2940    0.7500   17.6290 N   0  0  0  0  0  0  0  0  0  0  0  0
    6.8420    0.1550   18.6820 C   0  0  0  0  0  0  0  0  0  0  0  0
    8.7630   -0.8460   22.2670 N   0  0  0  0  0  0  0  0  0  0  0  0
   10.0020   -0.6940   22.8390 C   0  0  1  0  0  0  0  0  0  0  0  0
    9.9160   -0.4360   24.2010 C   0  0  0  0  0  0  0  0  0  0  0  0
   11.0730   -0.1880   24.9060 C   0  0  0  0  0  0  0  0  0  0  0  0
   12.0110   -1.2240   24.6490 O   0  0  0  0  0  0  0  0  0  0  0  0
   12.0960   -1.2070   23.3100 C   0  0  0  0  0  0  0  0  0  0  0  0
   13.2710   -1.7010   22.8860 C   0  0  0  0  0  0  0  0  0  0  0  0
   13.4470   -0.4360   22.2680 C   0  0  0  0  0  0  0  0  0  0  0  0
   12.3390    0.1640   22.8580 C   0  0  0  0  0  0  0  0  0  0  0  0
   10.9600   -1.6870   22.7230 C   0  0  0  0  0  0  0  0  0  0  0  0
  1  2  2  0
  2  3  1  0
  3  4  1  0
  4  5  2  0
  5  6  1  0
  6  7  2  0
  7  8  1  0
  4  9  1  0
  8  9  2  0
  2 10  1  0
 11 10  1  1
 11 12  1  0
 12 13  1  0
 13 14  1  0
 15 14  1  0
 15 16  1  0
 16 17  1  0
 15 18  1  0
 17 18  1  0
 11 19  1  0
 15 19  1  0
M  END
