pyridine_urea_8666
     RDKit          3D

 21 22  0  0  0  0  0  0  0  0999 V2000
   10.2180   -2.3900   22.3850 C   0  0  0  0  0  0  0  0  0  0  0  0
    8.8240   -2.1320   22.8760 C   0  0  2  0  0  0  0  0  0  0  0  0
    8.6830   -0.7010   22.9740 N   0  0  0  0  0  0  0  0  0  0  0  0
    8.3390   -0.0640   21.6930 C   0  0  0  0  0  0  0  0  0  0  0  0
    9.0280    0.8870   21.2830 O   0  0  0  0  0  0  0  0  0  0  0  0
    7.2330   -0.6090   21.0870 N   0  0  0  0  0  0  0  0  0  0  0  0
    6.5370    0.0260   20.0560 C   0  0  0  0  0  0  0  0  0  0  0  0
    5.3810    0.7200   20.3420 C   0  0  0  0  0  0  0  0  0  0  0  0
    4.6420    1.4230   19.2200 C   0  0  0  0  0  0  0  0  0  0  0  0
    5.1760    1.3320   17.9500 C   0  0  0  0  0  0  0  0  0  0  0  0
    6.3020    0.6380   17.7110 N   0  0  0  0  0  0  0  0  0  0  0  0
    6.9430    0.0130   18.7350 C   0  0  0  0  0  0  0  0  0  0  0  0
    8.4830   -2.7770   24.2640 C   0  0  0  0  0  0  0  0  0  0  0  0
    8.0280   -1.9750   25.2360 N   0  0  0  0  0  0  0  0  0  0  0  0
    7.7590   -2.6250   26.3970 C   0  0  0  0  0  0  0  0  0  0  0  0
    7.2770   -2.1320   27.6080 C   0  0  0  0  0  0  0  0  0  0  0  0
    6.1660   -1.3810   27.4080 F   0  0  0  0  0  0  0  0  0  0  0  0
    6.9550   -3.1140   28.4710 F   0  0  0  0  0  0  0  0  0  0  0  0
    8.1920   -1.3310   28.2070 F   0  0  0  0  0  0  0  0  0  0  0  0
    8.0400   -3.9920   26.2520 C   0  0  0  0  0  0  0  0  0  0  0  0
    8.6210   -4.4090   24.6920 S   0  0  0  0  0  0  0  0  0  0  0  0
  2  1  1  1
  2  3  1  0
  3  4  1  0
  4  5  2  0
  4  6  1  0
  6  7  1  0
  7  8  2  0
  8  9  1  0
  9 10  2  0
 10 11  1  0
  7 12  1  0
 11 12  2  0
  2 13  1  0
 13 14  2  0
 14 15  1  0
 15 16  1  0
 16 17  1  0
 16 18  1  0
 16 19  1  0
 15 20  2  0
 13 21  1  0
 20 21  1  0
M  END
