pyridine_urea_12876
     RDKit          3D

 21 23  0  0  0  0  0  0  0  0999 V2000
    8.3190    1.7280   20.9930 O   0  0  0  0  0  0  0  0  0  0  0  0
    8.3040    0.5740   21.3920 C   0  0  0  0  0  0  0  0  0  0  0  0
    7.2480   -0.2590   21.1600 N   0  0  0  0  0  0  0  0  0  0  0  0
    6.5850    0.1870   19.9830 C   0  0  0  0  0  0  0  0  0  0  0  0
    5.3430    1.0480   20.2400 C   0  0  0  0  0  0  0  0  0  0  0  0
    4.6350    1.5710   19.1720 C   0  0  0  0  0  0  0  0  0  0  0  0
    5.1020    1.2840   17.9000 C   0  0  0  0  0  0  0  0  0  0  0  0
    6.2080    0.5000   17.7120 N   0  0  0  0  0  0  0  0  0  0  0  0
    6.9680   -0.0640   18.7320 C   0  0  0  0  0  0  0  0  0  0  0  0
    9.3250    0.0150   22.0320 N   0  0  0  0  0  0  0  0  0  0  0  0
   10.3970   -0.5040   22.5810 C   0  0  0  0  0  0  0  0  0  0  0  0
   11.0610   -1.4190   21.8040 C   0  0  0  0  0  0  0  0  0  0  0  0
   12.1970   -2.0770   22.1630 C   0  0  0  0  0  0  0  0  0  0  0  0
   12.7020   -1.8310   23.3760 C   0  0  0  0  0  0  0  0  0  0  0  0
   12.0510   -0.9230   24.1400 C   0  0  0  0  0  0  0  0  0  0  0  0
   10.8450   -0.1830   23.7990 C   0  0  0  0  0  0  0  0  0  0  0  0
   12.4610   -0.6160   25.3240 C   0  0  0  0  0  0  0  0  0  0  0  0
   13.3640   -1.2650   25.8640 O   0  0  0  0  0  0  0  0  0  0  0  0
   13.7840   -2.4390   25.2020 C   0  0  0  0  0  0  0  0  0  0  0  0
   14.1940   -3.5930   25.9250 O   0  0  0  0  0  0  0  0  0  0  0  0
   13.7580   -2.4270   23.8790 N   0  0  0  0  0  0  0  0  0  0  0  0
  1  2  2  0
  2  3  1  0
  3  4  1  0
  4  5  2  0
  5  6  1  0
  6  7  2  0
  7  8  1  0
  4  9  1  0
  8  9  2  0
  2 10  1  0
 10 11  1  0
 11 12  2  0
 12 13  1  0
 13 14  2  0
 14 15  1  0
 11 16  1  0
 15 16  2  0
 15 17  1  0
 17 18  1  0
 18 19  1  0
 19 20  2  0
 14 21  1  0
 19 21  1  0
M  END
