pyridine_urea_11423
     RDKit          3D

 20 21  0  0  0  0  0  0  0  0999 V2000
    8.9110    1.4550   21.0650 O   0  0  0  0  0  0  0  0  0  0  0  0
    8.5950    0.4260   21.6610 C   0  0  0  0  0  0  0  0  0  0  0  0
    7.5860   -0.4210   21.2010 N   0  0  0  0  0  0  0  0  0  0  0  0
    6.7660    0.0980   20.1130 C   0  0  0  0  0  0  0  0  0  0  0  0
    5.5250    0.8950   20.5180 C   0  0  0  0  0  0  0  0  0  0  0  0
    4.7220    1.4310   19.3780 C   0  0  0  0  0  0  0  0  0  0  0  0
    5.1510    1.1710   18.0940 C   0  0  0  0  0  0  0  0  0  0  0  0
    6.2440    0.4570   17.7810 N   0  0  0  0  0  0  0  0  0  0  0  0
    7.0130   -0.0570   18.7680 C   0  0  0  0  0  0  0  0  0  0  0  0
    9.2100    0.0720   22.8610 N   0  0  0  0  0  0  0  0  0  0  0  0
    9.9640   -1.1800   23.1300 C   0  0  2  0  0  0  0  0  0  0  0  0
    9.7570   -1.6020   24.3690 C   0  0  0  0  0  0  0  0  0  0  0  0
   10.4250   -0.3850   24.9800 C   0  0  0  0  0  0  0  0  0  0  0  0
    9.7100   -0.0110   25.9040 O   0  0  0  0  0  0  0  0  0  0  0  0
   11.4890   -1.1530   23.5330 C   0  0  0  0  0  0  0  0  0  0  0  0
   12.0620    0.0390   24.0180 C   0  0  0  0  0  0  0  0  0  0  0  0
   12.6150    0.3330   22.8360 C   0  0  0  0  0  0  0  0  0  0  0  0
   11.8980    1.3810   22.3960 F   0  0  0  0  0  0  0  0  0  0  0  0
   13.8580    0.7400   22.9340 F   0  0  0  0  0  0  0  0  0  0  0  0
   12.4110   -1.0600   22.3180 C   0  0  0  0  0  0  0  0  0  0  0  0
  1  2  2  0
  2  3  1  0
  3  4  1  0
  4  5  2  0
  5  6  1  0
  6  7  2  0
  7  8  1  0
  4  9  1  0
  8  9  2  0
  2 10  1  0
 10 11  1  0
 11 12  1  1
 12 13  1  0
 13 14  1  0
 11 15  1  0
 15 16  1  0
 16 17  1  0
 17 18  1  0
 17 19  1  0
 15 20  1  0
 17 20  1  0
M  END
