pyridine_urea_1630
     RDKit          3D

 19 20  0  0  0  0  0  0  0  0999 V2000
   12.8970   -0.9060   25.1130 C   0  0  0  0  0  0  0  0  0  0  0  0
   11.7200   -0.9320   24.2550 C   0  0  0  0  0  0  0  0  0  0  0  0
   10.4270   -0.5980   24.5770 C   0  0  0  0  0  0  0  0  0  0  0  0
    9.7490   -0.0470   26.0560 Cl  0  0  0  0  0  0  0  0  0  0  0  0
    9.5140   -0.7360   23.6030 C   0  0  0  0  0  0  0  0  0  0  0  0
    9.8360   -1.1880   22.3570 C   0  0  0  0  0  0  0  0  0  0  0  0
    8.6410   -1.2260   21.6330 N   0  0  0  0  0  0  0  0  0  0  0  0
    8.1020   -0.0470   21.3430 C   0  0  0  0  0  0  0  0  0  0  0  0
    8.7230    1.0190   21.3520 O   0  0  0  0  0  0  0  0  0  0  0  0
    6.7320   -0.2570   21.0100 N   0  0  0  0  0  0  0  0  0  0  0  0
    6.2040    0.2970   19.9400 C   0  0  0  0  0  0  0  0  0  0  0  0
    4.9050    1.0780   20.0730 C   0  0  0  0  0  0  0  0  0  0  0  0
    4.4180    1.6550   18.9300 C   0  0  0  0  0  0  0  0  0  0  0  0
    5.1290    1.4940   17.7420 C   0  0  0  0  0  0  0  0  0  0  0  0
    6.2750    0.7950   17.6180 N   0  0  0  0  0  0  0  0  0  0  0  0
    6.7880    0.2140   18.7020 C   0  0  0  0  0  0  0  0  0  0  0  0
   11.1010   -1.5220   21.9790 C   0  0  0  0  0  0  0  0  0  0  0  0
   11.9790   -1.3690   22.9760 C   0  0  0  0  0  0  0  0  0  0  0  0
   13.5050   -1.8100   22.4840 Cl  0  0  0  0  0  0  0  0  0  0  0  0
  1  2  1  0
  2  3  2  0
  3  4  1  0
  3  5  1  0
  5  6  2  0
  6  7  1  0
  7  8  1  0
  8  9  2  0
  8 10  1  0
 10 11  1  0
 11 12  2  0
 12 13  1  0
 13 14  2  0
 14 15  1  0
 11 16  1  0
 15 16  2  0
  6 17  1  0
  2 18  1  0
 17 18  2  0
 18 19  1  0
M  END
