pyridine_urea_10881
     RDKit          3D

 20 21  0  0  0  0  0  0  0  0999 V2000
   10.4000    0.2960   23.8900 C   0  0  0  0  0  0  0  0  0  0  0  0
   10.2020   -0.1970   22.4830 C   0  0  1  0  0  0  0  0  0  0  0  0
   10.8780   -1.3020   21.9860 C   0  0  0  0  0  0  0  0  0  0  0  0
   11.7990   -1.6530   22.8560 C   0  0  0  0  0  0  0  0  0  0  0  0
   12.7500   -2.6060   23.0280 C   0  0  0  0  0  0  0  0  0  0  0  0
   13.5180   -2.4750   24.3940 C   0  0  0  0  0  0  0  0  0  0  0  0
   13.1910   -1.2880   25.4340 C   0  0  0  0  0  0  0  0  0  0  0  0
   12.1180   -0.4250   24.8550 C   0  0  0  0  0  0  0  0  0  0  0  0
   12.2270   -1.2620   23.9710 C   0  0  0  0  0  0  0  0  0  0  0  0
   13.4510   -2.2970   24.5360 Cl  0  0  0  0  0  0  0  0  0  0  0  0
    8.8240   -0.4990   22.2970 N   0  0  0  0  0  0  0  0  0  0  0  0
    8.1660    0.2400   21.3800 C   0  0  0  0  0  0  0  0  0  0  0  0
    8.5750    1.3490   21.0060 O   0  0  0  0  0  0  0  0  0  0  0  0
    7.0260   -0.3850   20.9440 N   0  0  0  0  0  0  0  0  0  0  0  0
    6.3080    0.2160   19.9710 C   0  0  0  0  0  0  0  0  0  0  0  0
    5.1120    0.8890   20.1600 C   0  0  0  0  0  0  0  0  0  0  0  0
    4.5230    1.4720   19.0580 C   0  0  0  0  0  0  0  0  0  0  0  0
    5.1600    1.3480   17.8400 C   0  0  0  0  0  0  0  0  0  0  0  0
    6.3000    0.6990   17.6250 N   0  0  0  0  0  0  0  0  0  0  0  0
    6.8470    0.1450   18.7050 C   0  0  0  0  0  0  0  0  0  0  0  0
  2  1  1  1
  2  3  1  0
  3  4  1  0
  4  5  2  0
  5  6  1  0
  6  7  2  0
  7  8  1  0
  4  9  1  0
  8  9  2  0
  9 10  1  0
  2 11  1  0
 11 12  1  0
 12 13  2  0
 12 14  1  0
 14 15  1  0
 15 16  2  0
 16 17  1  0
 17 18  2  0
 18 19  1  0
 15 20  1  0
 19 20  2  0
M  END
