pyridine_urea_15281
     RDKit          3D

 17 17  0  0  0  0  0  0  0  0999 V2000
   12.7880   -1.0560   22.2710 C   0  0  0  0  0  0  0  0  0  0  0  0
   13.1060    0.0910   23.2250 C   0  0  0  0  0  0  0  0  0  0  0  0
   11.8820    0.8410   23.7310 C   0  0  1  0  0  0  0  0  0  0  0  0
   11.5450    2.1000   22.9660 C   0  0  0  0  0  0  0  0  0  0  0  0
   10.6740   -0.0890   23.9660 C   0  0  1  0  0  0  0  0  0  0  0  0
    9.6980    0.5580   24.3100 O   0  0  0  0  0  0  0  0  0  0  0  0
   10.2660   -0.8770   22.7360 C   0  0  0  0  0  0  0  0  0  0  0  0
    8.8300   -0.7370   22.5470 N   0  0  0  0  0  0  0  0  0  0  0  0
    8.3440    0.0370   21.5200 C   0  0  0  0  0  0  0  0  0  0  0  0
    8.8400    1.1240   21.1840 O   0  0  0  0  0  0  0  0  0  0  0  0
    7.1820   -0.6280   20.9500 N   0  0  0  0  0  0  0  0  0  0  0  0
    6.4350    0.0690   19.9990 C   0  0  0  0  0  0  0  0  0  0  0  0
    5.2550    0.7670   20.2480 C   0  0  0  0  0  0  0  0  0  0  0  0
    4.6370    1.4190   19.1960 C   0  0  0  0  0  0  0  0  0  0  0  0
    5.2020    1.3630   17.9320 C   0  0  0  0  0  0  0  0  0  0  0  0
    6.3320    0.6880   17.6820 N   0  0  0  0  0  0  0  0  0  0  0  0
    6.9140    0.0620   18.7130 C   0  0  0  0  0  0  0  0  0  0  0  0
  1  2  1  0
  2  3  1  0
  3  4  1  6
  3  5  1  0
  5  6  1  6
  5  7  1  0
  7  8  1  0
  8  9  1  0
  9 10  2  0
  9 11  1  0
 11 12  1  0
 12 13  2  0
 13 14  1  0
 14 15  2  0
 15 16  1  0
 12 17  1  0
 16 17  2  0
M  END
