pyridine_urea_2783
     RDKit          3D

 22 23  0  0  0  0  0  0  0  0999 V2000
   11.6420    5.3520   24.3530 C   0  0  0  0  0  0  0  0  0  0  0  0
   11.2230    4.0430   23.9840 O   0  0  0  0  0  0  0  0  0  0  0  0
   12.1270    3.4430   23.0460 C   0  0  0  0  0  0  0  0  0  0  0  0
   12.9850    4.0190   22.3950 O   0  0  0  0  0  0  0  0  0  0  0  0
   11.8430    1.8930   22.9460 C   0  0  0  0  0  0  0  0  0  0  0  0
   12.8800    1.0570   22.8600 C   0  0  0  0  0  0  0  0  0  0  0  0
   12.7220   -0.3980   22.7250 C   0  0  0  0  0  0  0  0  0  0  0  0
   11.5090   -1.0670   22.6660 C   0  0  0  0  0  0  0  0  0  0  0  0
   10.0420   -1.5290   22.6280 C   0  0  0  0  0  0  0  0  0  0  0  0
    8.8650   -1.4780   22.5650 N   0  0  0  0  0  0  0  0  0  0  0  0
    8.3570   -0.4730   21.5860 C   0  0  0  0  0  0  0  0  0  0  0  0
    8.9150    0.5840   21.2940 O   0  0  0  0  0  0  0  0  0  0  0  0
    7.0860   -0.9230   21.0540 N   0  0  0  0  0  0  0  0  0  0  0  0
    6.5000   -0.2020   20.0350 C   0  0  0  0  0  0  0  0  0  0  0  0
    5.2260    0.5740   20.3780 C   0  0  0  0  0  0  0  0  0  0  0  0
    4.5130    1.4090   19.3040 C   0  0  0  0  0  0  0  0  0  0  0  0
    5.2160    1.3520   17.9560 C   0  0  0  0  0  0  0  0  0  0  0  0
    6.3640    0.6130   17.7610 N   0  0  0  0  0  0  0  0  0  0  0  0
    6.9920   -0.1430   18.7530 C   0  0  0  0  0  0  0  0  0  0  0  0
   10.6210    0.0790   22.8060 C   0  0  0  0  0  0  0  0  0  0  0  0
    9.3510   -0.3850   22.8070 F   0  0  0  0  0  0  0  0  0  0  0  0
   10.5110    1.5090   22.9480 C   0  0  0  0  0  0  0  0  0  0  0  0
  1  2  1  0
  2  3  1  0
  3  4  2  0
  3  5  1  0
  5  6  2  0
  6  7  1  0
  7  8  2  0
  8  9  1  0
  9 10  1  0
 10 11  1  0
 11 12  2  0
 11 13  1  0
 13 14  1  0
 14 15  2  0
 15 16  1  0
 16 17  2  0
 17 18  1  0
 14 19  1  0
 18 19  2  0
  8 20  1  0
 20 21  1  0
  5 22  1  0
 20 22  2  0
M  END
