pyridine_urea_14906
     RDKit          3D

 19 19  0  0  0  0  0  0  0  0999 V2000
    6.0770   -3.1290   24.0570 C   0  0  0  0  0  0  0  0  0  0  0  0
    7.2090   -3.7270   23.2430 C   0  0  0  0  0  0  0  0  0  0  0  0
    7.2450   -5.1240   23.1500 C   0  0  0  0  0  0  0  0  0  0  0  0
    8.5730   -3.2400   23.7840 C   0  0  0  0  0  0  0  0  0  0  0  0
    9.2400   -2.5950   22.9640 O   0  0  0  0  0  0  0  0  0  0  0  0
   10.3370   -1.8780   23.3860 C   0  0  0  0  0  0  0  0  0  0  0  0
   11.1510   -2.1820   24.5150 O   0  0  0  0  0  0  0  0  0  0  0  0
   10.5320   -0.8230   22.5260 C   0  0  2  0  0  0  0  0  0  0  0  0
   11.8080    0.0170   22.7390 C   0  0  0  0  0  0  0  0  0  0  0  0
    9.2900   -0.0580   22.6270 N   0  0  0  0  0  0  0  0  0  0  0  0
    8.5540    0.4380   21.5580 C   0  0  0  0  0  0  0  0  0  0  0  0
    8.7910    1.5220   21.0310 O   0  0  0  0  0  0  0  0  0  0  0  0
    7.4680   -0.4710   21.1700 N   0  0  0  0  0  0  0  0  0  0  0  0
    6.6580    0.1330   20.0910 C   0  0  0  0  0  0  0  0  0  0  0  0
    5.5260    0.8710   20.4020 C   0  0  0  0  0  0  0  0  0  0  0  0
    4.7360    1.4710   19.4410 C   0  0  0  0  0  0  0  0  0  0  0  0
    5.1750    1.2770   18.0430 C   0  0  0  0  0  0  0  0  0  0  0  0
    6.2740    0.5510   17.7340 N   0  0  0  0  0  0  0  0  0  0  0  0
    6.9840   -0.0010   18.7490 C   0  0  0  0  0  0  0  0  0  0  0  0
  1  2  1  0
  2  3  1  0
  2  4  1  0
  4  5  1  0
  5  6  1  0
  6  7  2  0
  6  8  1  0
  8  9  1  1
  8 10  1  0
 10 11  1  0
 11 12  2  0
 11 13  1  0
 13 14  1  0
 14 15  2  0
 15 16  1  0
 16 17  2  0
 17 18  1  0
 14 19  1  0
 18 19  2  0
M  END
