pyridine_urea_13325
     RDKit          3D

 23 26  0  0  0  0  0  0  0  0999 V2000
   12.8440    2.5100   22.7970 C   0  0  0  0  0  0  0  0  0  0  0  0
   13.1560    1.1040   22.8180 O   0  0  0  0  0  0  0  0  0  0  0  0
   12.1820    0.3940   23.4160 C   0  0  1  0  0  0  0  0  0  0  0  0
   11.2550    1.1320   24.0340 C   0  0  0  0  0  0  0  0  0  0  0  0
   10.2530    0.3100   24.3230 C   0  0  2  0  0  0  0  0  0  0  0  0
   10.5860   -0.6340   25.2500 C   0  0  0  0  0  0  0  0  0  0  0  0
   11.8320   -1.4480   24.8330 C   0  0  1  0  0  0  0  0  0  0  0  0
   11.3600   -2.3630   23.9550 C   0  0  0  0  0  0  0  0  0  0  0  0
   10.6610   -1.5530   22.8780 C   0  0  1  0  0  0  0  0  0  0  0  0
   10.0200   -2.2520   21.9290 C   0  0  0  0  0  0  0  0  0  0  0  0
    9.1630   -1.4060   21.1080 N   0  0  0  0  0  0  0  0  0  0  0  0
    8.3970   -0.2840   21.3130 C   0  0  0  0  0  0  0  0  0  0  0  0
    8.8670    0.9630   21.6220 O   0  0  0  0  0  0  0  0  0  0  0  0
    7.0650   -0.5610   21.0850 N   0  0  0  0  0  0  0  0  0  0  0  0
    6.4080    0.0690   20.0280 C   0  0  0  0  0  0  0  0  0  0  0  0
    5.2130    0.7550   20.2650 C   0  0  0  0  0  0  0  0  0  0  0  0
    4.5730    1.3990   19.2010 C   0  0  0  0  0  0  0  0  0  0  0  0
    5.1620    1.3220   17.9510 C   0  0  0  0  0  0  0  0  0  0  0  0
    6.3040    0.6600   17.7050 N   0  0  0  0  0  0  0  0  0  0  0  0
    6.9040    0.0470   18.7390 C   0  0  0  0  0  0  0  0  0  0  0  0
   10.0280   -0.3280   23.1400 C   0  0  0  0  0  0  0  0  0  0  0  0
   11.5700   -0.3530   22.4120 C   0  0  0  0  0  0  0  0  0  0  0  0
   12.7380   -0.5710   24.2460 C   0  0  0  0  0  0  0  0  0  0  0  0
  1  2  1  0
  3  2  1  6
  3  4  1  0
  5  4  1  6
  5  6  1  0
  7  6  1  6
  7  8  1  0
  8  9  1  0
  9 10  1  6
 10 11  1  0
 11 12  1  0
 12 13  2  0
 12 14  1  0
 14 15  1  0
 15 16  2  0
 16 17  1  0
 17 18  2  0
 18 19  1  0
 15 20  1  0
 19 20  2  0
  5 21  1  0
  9 21  1  0
  3 22  1  0
  9 22  1  0
  3 23  1  0
  7 23  1  0
M  END
