pyridine_urea_13568
     RDKit          3D

 30 33  0  0  0  0  0  0  0  0999 V2000
    9.0420    0.5610   21.3110 O   0  0  0  0  0  0  0  0  0  0  0  0
    8.1760   -0.1030   21.8520 C   0  0  0  0  0  0  0  0  0  0  0  0
    8.0680   -0.3380   23.2080 N   0  0  0  0  0  0  0  0  0  0  0  0
    9.0100   -0.8110   24.1450 C   0  0  0  0  0  0  0  0  0  0  0  0
   10.1220    0.0520   24.7680 C   0  0  0  0  0  0  0  0  0  0  0  0
   11.2950   -0.3380   23.9200 C   0  0  0  0  0  0  0  0  0  0  0  0
   11.7190   -1.6740   23.5990 C   0  0  0  0  0  0  0  0  0  0  0  0
   12.7140   -1.5270   22.8100 N   0  0  0  0  0  0  0  0  0  0  0  0
   13.3400   -2.4540   22.2400 C   0  0  0  0  0  0  0  0  0  0  0  0
   13.2680   -2.6410   20.9430 C   0  0  0  0  0  0  0  0  0  0  0  0
   13.9600   -3.6320   20.3030 C   0  0  0  0  0  0  0  0  0  0  0  0
   14.8470   -4.6170   20.7100 C   0  0  0  0  0  0  0  0  0  0  0  0
   15.0270   -4.5250   22.0470 C   0  0  0  0  0  0  0  0  0  0  0  0
   14.2300   -3.3780   23.0410 C   0  0  0  0  0  0  0  0  0  0  0  0
   13.1430   -0.2910   22.5000 N   0  0  0  0  0  0  0  0  0  0  0  0
   12.2730    0.4980   23.1640 C   0  0  0  0  0  0  0  0  0  0  0  0
   12.3700    1.9500   23.0470 C   0  0  0  0  0  0  0  0  0  0  0  0
   12.1580    3.2990   22.9530 C   0  0  0  0  0  0  0  0  0  0  0  0
   11.1350    4.2490   22.9360 C   0  0  0  0  0  0  0  0  0  0  0  0
    9.8540    3.8350   23.0380 C   0  0  0  0  0  0  0  0  0  0  0  0
    8.5250    4.9320   23.0390 Cl  0  0  0  0  0  0  0  0  0  0  0  0
    9.6970    2.5040   23.1410 C   0  0  0  0  0  0  0  0  0  0  0  0
   10.9690    1.6320   23.1390 C   0  0  0  0  0  0  0  0  0  0  0  0
    7.1910   -0.6510   21.0800 N   0  0  0  0  0  0  0  0  0  0  0  0
    6.5350   -0.0200   20.0750 C   0  0  0  0  0  0  0  0  0  0  0  0
    5.3880    0.7170   20.3670 C   0  0  0  0  0  0  0  0  0  0  0  0
    4.7090    1.3810   19.3470 C   0  0  0  0  0  0  0  0  0  0  0  0
    5.2020    1.2870   18.0530 C   0  0  0  0  0  0  0  0  0  0  0  0
    6.2980    0.5810   17.7430 N   0  0  0  0  0  0  0  0  0  0  0  0
    6.9370   -0.0560   18.7540 C   0  0  0  0  0  0  0  0  0  0  0  0
  1  2  2  0
  2  3  1  0
  3  4  1  0
  4  5  1  0
  5  6  1  0
  6  7  2  0
  7  8  1  0
  8  9  1  0
  9 10  2  0
 10 11  1  0
 11 12  2  0
 12 13  1  0
  9 14  1  0
 13 14  2  0
  8 15  1  0
  6 16  1  0
 15 16  2  0
 16 17  1  0
 17 18  2  0
 18 19  1  0
 19 20  2  0
 20 21  1  0
 20 22  1  0
 17 23  1  0
 22 23  2  0
  2 24  1  0
 24 25  1  0
 25 26  2  0
 26 27  1  0
 27 28  2  0
 28 29  1  0
 25 30  1  0
 29 30  2  0
M  END
