pyridine_urea_2771
     RDKit          3D

 22 24  0  0  0  0  0  0  0  0999 V2000
    8.8200    0.9270   21.1850 O   0  0  0  0  0  0  0  0  0  0  0  0
    8.3740   -0.1950   21.3860 C   0  0  0  0  0  0  0  0  0  0  0  0
    9.0980   -1.2010   21.9780 N   0  0  0  0  0  0  0  0  0  0  0  0
   10.0350   -0.8600   23.0700 C   0  0  0  0  0  0  0  0  0  0  0  0
   11.5280   -0.9890   22.6340 C   0  0  0  0  0  0  0  0  0  0  0  0
   12.0860   -1.9260   22.0960 C   0  0  0  0  0  0  0  0  0  0  0  0
   13.2160   -1.0430   22.1290 C   0  0  0  0  0  0  0  0  0  0  0  0
   12.1160   -0.1410   22.8850 C   0  0  0  0  0  0  0  0  0  0  0  0
   10.6590   -0.4820   23.2910 C   0  0  0  0  0  0  0  0  0  0  0  0
    9.7540    0.6160   23.0510 N   0  0  0  0  0  0  0  0  0  0  0  0
    8.4890    0.1680   23.4580 C   0  0  0  0  0  0  0  0  0  0  0  0
    8.4540   -1.2600   24.0100 C   0  0  0  0  0  0  0  0  0  0  0  0
   10.0340   -1.9460   23.9780 S   0  0  0  0  0  0  0  0  0  0  0  0
   12.6550    1.0940   23.1970 C   0  0  0  0  0  0  0  0  0  0  0  0
   12.9700   -0.1320   22.5980 C   0  0  0  0  0  0  0  0  0  0  0  0
    7.1110   -0.5860   21.0400 N   0  0  0  0  0  0  0  0  0  0  0  0
    6.4690    0.0100   20.0290 C   0  0  0  0  0  0  0  0  0  0  0  0
    5.3250    0.7590   20.2610 C   0  0  0  0  0  0  0  0  0  0  0  0
    4.6250    1.4280   19.2610 C   0  0  0  0  0  0  0  0  0  0  0  0
    5.1040    1.3340   17.9600 C   0  0  0  0  0  0  0  0  0  0  0  0
    6.1940    0.6250   17.6310 N   0  0  0  0  0  0  0  0  0  0  0  0
    6.8880   -0.0570   18.7230 C   0  0  0  0  0  0  0  0  0  0  0  0
  1  2  2  0
  2  3  1  0
  3  4  1  0
  4  5  1  0
  5  6  2  0
  6  7  1  0
  7  8  2  0
  8  9  1  0
  9 10  2  0
 10 11  1  0
 11 12  2  0
  9 13  1  0
 12 13  1  0
  8 14  1  0
  5 15  1  0
 14 15  2  0
  2 16  1  0
 16 17  1  0
 17 18  2  0
 18 19  1  0
 19 20  2  0
 20 21  1  0
 17 22  1  0
 21 22  2  0
M  END
