pyridine_urea_10639
     RDKit          3D

 21 22  0  0  0  0  0  0  0  0999 V2000
   12.9080    4.2090   22.4770 C   0  0  0  0  0  0  0  0  0  0  0  0
   11.9010    3.0770   22.7790 C   0  0  0  0  0  0  0  0  0  0  0  0
   12.5710    1.7910   22.8830 O   0  0  0  0  0  0  0  0  0  0  0  0
   11.7910    0.6500   22.9430 C   0  0  0  0  0  0  0  0  0  0  0  0
   12.2800   -0.7520   23.3950 C   0  0  0  0  0  0  0  0  0  0  0  0
   13.5650   -0.5320   23.6620 C   0  0  0  0  0  0  0  0  0  0  0  0
   12.5440    0.3140   23.1990 C   0  0  0  0  0  0  0  0  0  0  0  0
   11.2860   -0.5080   23.0760 C   0  0  0  0  0  0  0  0  0  0  0  0
   10.0020   -0.9830   22.8660 C   0  0  1  0  0  0  0  0  0  0  0  0
    9.6270   -1.7200   23.9520 C   0  0  0  0  0  0  0  0  0  0  0  0
    8.9600   -0.0130   22.6140 N   0  0  0  0  0  0  0  0  0  0  0  0
    8.1810   -0.3500   21.5400 C   0  0  0  0  0  0  0  0  0  0  0  0
    8.7630   -1.1090   20.5870 O   0  0  0  0  0  0  0  0  0  0  0  0
    6.8920    0.0740   21.5140 N   0  0  0  0  0  0  0  0  0  0  0  0
    6.2400    0.5180   20.3550 C   0  0  0  0  0  0  0  0  0  0  0  0
    5.0230    1.2590   20.3960 C   0  0  0  0  0  0  0  0  0  0  0  0
    4.5550    1.6270   19.0010 C   0  0  0  0  0  0  0  0  0  0  0  0
    5.2450    1.2700   17.8800 C   0  0  0  0  0  0  0  0  0  0  0  0
    6.3760    0.5680   17.8710 N   0  0  0  0  0  0  0  0  0  0  0  0
    6.8120    0.2290   19.1020 C   0  0  0  0  0  0  0  0  0  0  0  0
   10.5710    0.6150   22.6350 C   0  0  0  0  0  0  0  0  0  0  0  0
  1  2  1  0
  2  3  1  0
  3  4  1  0
  4  5  2  0
  5  6  1  0
  6  7  2  0
  7  8  1  0
  8  9  1  0
  9 10  1  1
  9 11  1  0
 11 12  1  0
 12 13  2  0
 12 14  1  0
 14 15  1  0
 15 16  2  0
 16 17  1  0
 17 18  2  0
 18 19  1  0
 15 20  1  0
 19 20  2  0
  4 21  1  0
  8 21  2  0
M  END
