pyridine_urea_13971
     RDKit          3D

 24 26  0  0  0  0  0  0  0  0999 V2000
    8.9690    0.7210   21.4140 O   0  0  0  0  0  0  0  0  0  0  0  0
    8.4050   -0.3620   21.5090 C   0  0  0  0  0  0  0  0  0  0  0  0
    8.9560   -1.4390   22.1560 N   0  0  0  0  0  0  0  0  0  0  0  0
    8.2690   -2.1040   23.2540 C   0  0  0  0  0  0  0  0  0  0  0  0
    9.1590   -2.2330   24.4880 C   0  0  0  0  0  0  0  0  0  0  0  0
   10.3450   -1.3350   24.4010 C   0  0  0  0  0  0  0  0  0  0  0  0
   11.4690   -1.8500   24.9940 C   0  0  0  0  0  0  0  0  0  0  0  0
   11.6320   -3.0250   25.5560 N   0  0  0  0  0  0  0  0  0  0  0  0
   12.9110   -2.9100   25.9580 C   0  0  0  0  0  0  0  0  0  0  0  0
   13.6860   -3.9600   26.6690 C   0  0  0  0  0  0  0  0  0  0  0  0
   13.8030   -4.4350   25.8690 C   0  0  0  0  0  0  0  0  0  0  0  0
   14.5220   -5.5480   26.2320 C   0  0  0  0  0  0  0  0  0  0  0  0
   15.1920   -6.2710   27.2000 C   0  0  0  0  0  0  0  0  0  0  0  0
   15.1490   -5.8240   28.0650 C   0  0  0  0  0  0  0  0  0  0  0  0
   14.3910   -4.7380   27.8880 C   0  0  0  0  0  0  0  0  0  0  0  0
   13.3740   -1.6690   25.5550 N   0  0  0  0  0  0  0  0  0  0  0  0
   12.4130   -1.0770   24.9750 O   0  0  0  0  0  0  0  0  0  0  0  0
    7.1670   -0.6990   21.0200 N   0  0  0  0  0  0  0  0  0  0  0  0
    6.4430    0.0110   20.0580 C   0  0  0  0  0  0  0  0  0  0  0  0
    5.1790    0.7650   20.2920 C   0  0  0  0  0  0  0  0  0  0  0  0
    4.5440    1.4790   19.1480 C   0  0  0  0  0  0  0  0  0  0  0  0
    5.2000    1.3800   17.9240 C   0  0  0  0  0  0  0  0  0  0  0  0
    6.3430    0.6870   17.7240 N   0  0  0  0  0  0  0  0  0  0  0  0
    6.9170    0.0370   18.7600 C   0  0  0  0  0  0  0  0  0  0  0  0
  1  2  2  0
  2  3  1  0
  3  4  1  0
  4  5  1  0
  5  6  1  0
  6  7  1  0
  7  8  2  0
  8  9  1  0
  9 10  1  0
 10 11  2  0
 11 12  1  0
 12 13  2  0
 13 14  1  0
 10 15  1  0
 14 15  2  0
  9 16  2  0
  7 17  1  0
 16 17  1  0
  2 18  1  0
 18 19  1  0
 19 20  2  0
 20 21  1  0
 21 22  2  0
 22 23  1  0
 19 24  1  0
 23 24  2  0
M  END
