pyridine_urea_14187
     RDKit          3D

 22 24  0  0  0  0  0  0  0  0999 V2000
   14.2260   -2.7490   25.9940 C   0  0  0  0  0  0  0  0  0  0  0  0
   13.5340   -3.0400   24.7230 C   0  0  0  0  0  0  0  0  0  0  0  0
   13.1360   -2.0160   23.9890 C   0  0  0  0  0  0  0  0  0  0  0  0
   13.3840   -1.8500   22.5490 N   0  0  0  0  0  0  0  0  0  0  0  0
   12.7370   -0.6390   22.4030 O   0  0  0  0  0  0  0  0  0  0  0  0
   12.2830   -0.3820   23.6630 C   0  0  0  0  0  0  0  0  0  0  0  0
   11.5620    0.7000   23.9460 C   0  0  1  0  0  0  0  0  0  0  0  0
   11.4900    1.4690   22.7410 C   0  0  0  0  0  0  0  0  0  0  0  0
   10.1530    1.0530   22.2150 C   0  0  0  0  0  0  0  0  0  0  0  0
    9.4000    0.5680   23.3930 C   0  0  1  0  0  0  0  0  0  0  0  0
    8.5790   -0.4680   22.7780 N   0  0  0  0  0  0  0  0  0  0  0  0
    7.9520   -0.1940   21.5690 C   0  0  0  0  0  0  0  0  0  0  0  0
    8.3750    0.8140   21.0250 O   0  0  0  0  0  0  0  0  0  0  0  0
    6.9960   -0.9950   21.1670 N   0  0  0  0  0  0  0  0  0  0  0  0
    6.4210   -0.2430   20.1020 C   0  0  0  0  0  0  0  0  0  0  0  0
    5.2420    0.4790   20.3410 C   0  0  0  0  0  0  0  0  0  0  0  0
    4.6720    1.2260   19.3100 C   0  0  0  0  0  0  0  0  0  0  0  0
    5.2840    1.2360   18.0750 C   0  0  0  0  0  0  0  0  0  0  0  0
    6.4080    0.5570   17.8140 N   0  0  0  0  0  0  0  0  0  0  0  0
    6.9520   -0.1670   18.8230 C   0  0  0  0  0  0  0  0  0  0  0  0
   10.2890    0.2400   24.4240 C   0  0  0  0  0  0  0  0  0  0  0  0
   12.4990   -1.1930   24.7050 N   0  0  0  0  0  0  0  0  0  0  0  0
  1  2  1  0
  2  3  1  0
  3  4  2  0
  4  5  1  0
  5  6  1  0
  7  6  1  6
  7  8  1  0
  8  9  1  0
  9 10  1  0
 10 11  1  6
 11 12  1  0
 12 13  2  0
 12 14  1  0
 14 15  1  0
 15 16  2  0
 16 17  1  0
 17 18  2  0
 18 19  1  0
 15 20  1  0
 19 20  2  0
  7 21  1  0
 10 21  1  0
  3 22  1  0
  6 22  2  0
M  END
