pyridine_urea_11291
     RDKit          3D

 15 16  0  0  0  0  0  0  0  0999 V2000
    8.8060    0.8190   21.3150 O   0  0  0  0  0  0  0  0  0  0  0  0
    8.3040   -0.2850   21.4700 C   0  0  0  0  0  0  0  0  0  0  0  0
    8.8990   -1.2670   22.2290 N   0  0  0  0  0  0  0  0  0  0  0  0
   10.3160   -1.1530   22.5100 C   0  0  0  0  0  0  0  0  0  0  0  0
   10.6760    0.2340   23.0240 C   0  0  0  0  0  0  0  0  0  0  0  0
   12.1230    0.3880   23.2860 C   0  0  0  0  0  0  0  0  0  0  0  0
   12.7080   -0.6110   23.7570 C   0  0  0  0  0  0  0  0  0  0  0  0
   13.3710   -0.1220   22.5210 C   0  0  0  0  0  0  0  0  0  0  0  0
    7.1080   -0.7100   20.9470 N   0  0  0  0  0  0  0  0  0  0  0  0
    6.3360    0.0170   20.0320 C   0  0  0  0  0  0  0  0  0  0  0  0
    5.1720    0.6380   20.3900 C   0  0  0  0  0  0  0  0  0  0  0  0
    4.6220    1.3360   19.1520 C   0  0  0  0  0  0  0  0  0  0  0  0
    5.2370    1.3080   17.9190 C   0  0  0  0  0  0  0  0  0  0  0  0
    6.3640    0.6640   17.7030 N   0  0  0  0  0  0  0  0  0  0  0  0
    6.8680    0.0450   18.7560 C   0  0  0  0  0  0  0  0  0  0  0  0
  1  2  2  0
  2  3  1  0
  3  4  1  0
  4  5  1  0
  5  6  1  0
  6  7  1  0
  6  8  1  0
  7  8  1  0
  2  9  1  0
  9 10  1  0
 10 11  2  0
 11 12  1  0
 12 13  2  0
 13 14  1  0
 10 15  1  0
 14 15  2  0
M  END
