pyridine_urea_13472
     RDKit          3D

 20 22  0  0  0  0  0  0  0  0999 V2000
    8.6010    0.8020   21.2460 O   0  0  0  0  0  0  0  0  0  0  0  0
    8.1090   -0.3090   21.4070 C   0  0  0  0  0  0  0  0  0  0  0  0
    6.9380   -0.7520   20.8950 N   0  0  0  0  0  0  0  0  0  0  0  0
    6.2410   -0.0060   19.9700 C   0  0  0  0  0  0  0  0  0  0  0  0
    4.9300    0.7270   20.2600 C   0  0  0  0  0  0  0  0  0  0  0  0
    4.3850    1.4940   19.0670 C   0  0  0  0  0  0  0  0  0  0  0  0
    5.1720    1.4410   17.7970 C   0  0  0  0  0  0  0  0  0  0  0  0
    6.3160    0.7530   17.6610 N   0  0  0  0  0  0  0  0  0  0  0  0
    6.8010    0.0730   18.7110 C   0  0  0  0  0  0  0  0  0  0  0  0
    8.7050   -1.2720   22.1390 N   0  0  0  0  0  0  0  0  0  0  0  0
    9.9870   -0.9360   22.6110 C   0  0  2  0  0  0  0  0  0  0  0  0
   10.8870   -1.9690   22.3420 C   0  0  0  0  0  0  0  0  0  0  0  0
   12.1450   -1.5480   22.6540 C   0  0  0  0  0  0  0  0  0  0  0  0
   12.0150   -0.3760   23.3320 C   0  0  2  0  0  0  0  0  0  0  0  0
   11.1320   -0.1990   24.3780 C   0  0  0  0  0  0  0  0  0  0  0  0
    9.8590   -0.4860   23.9250 C   0  0  0  0  0  0  0  0  0  0  0  0
   13.0380   -0.3880   24.3740 C   0  0  0  0  0  0  0  0  0  0  0  0
   13.0640    0.5190   23.3270 C   0  0  0  0  0  0  0  0  0  0  0  0
   12.7390    1.8490   23.4280 F   0  0  0  0  0  0  0  0  0  0  0  0
   13.9340    0.3860   22.3760 F   0  0  0  0  0  0  0  0  0  0  0  0
  1  2  2  0
  2  3  1  0
  3  4  1  0
  4  5  2  0
  5  6  1  0
  6  7  2  0
  7  8  1  0
  4  9  1  0
  8  9  2  0
  2 10  1  0
 11 10  1  1
 11 12  1  0
 12 13  1  0
 14 13  1  6
 14 15  1  0
 11 16  1  0
 15 16  1  0
 14 17  1  0
 14 18  1  0
 17 18  1  0
 18 19  1  0
 18 20  1  0
M  END
