pyridine_urea_14967
     RDKit          3D

 19 20  0  0  0  0  0  0  0  0999 V2000
    8.9030    0.7990   21.3320 O   0  0  0  0  0  0  0  0  0  0  0  0
    8.4350   -0.3160   21.5010 C   0  0  0  0  0  0  0  0  0  0  0  0
    9.1080   -1.2920   22.1980 N   0  0  0  0  0  0  0  0  0  0  0  0
   10.5220   -1.0970   22.4320 C   0  0  0  0  0  0  0  0  0  0  0  0
   10.7680    0.0230   23.4240 C   0  0  0  0  0  0  0  0  0  0  0  0
   11.8240    1.0770   23.0510 C   0  0  0  0  0  0  0  0  0  0  0  0
   11.2540    2.4250   22.8060 N   0  0  0  0  0  0  0  0  0  0  0  0
   12.0350    3.4900   22.4230 C   0  0  0  0  0  0  0  0  0  0  0  0
   11.2600    4.6370   22.5850 N   0  0  0  0  0  0  0  0  0  0  0  0
   10.2330    4.2550   23.4000 N   0  0  0  0  0  0  0  0  0  0  0  0
   10.0780    2.8530   23.3550 C   0  0  0  0  0  0  0  0  0  0  0  0
    9.1280    2.1770   23.7230 O   0  0  0  0  0  0  0  0  0  0  0  0
    7.2170   -0.7420   21.0390 N   0  0  0  0  0  0  0  0  0  0  0  0
    6.4660   -0.0340   20.0850 C   0  0  0  0  0  0  0  0  0  0  0  0
    5.3140    0.6920   20.3300 C   0  0  0  0  0  0  0  0  0  0  0  0
    4.6720    1.3660   19.2960 C   0  0  0  0  0  0  0  0  0  0  0  0
    5.1590    1.3320   17.9940 C   0  0  0  0  0  0  0  0  0  0  0  0
    6.2910    0.6240   17.6660 N   0  0  0  0  0  0  0  0  0  0  0  0
    6.9130   -0.0560   18.7960 C   0  0  0  0  0  0  0  0  0  0  0  0
  1  2  2  0
  2  3  1  0
  3  4  1  0
  4  5  1  0
  5  6  1  0
  6  7  1  0
  7  8  1  0
  8  9  1  0
  9 10  1  0
  7 11  1  0
 10 11  1  0
 11 12  2  0
  2 13  1  0
 13 14  1  0
 14 15  2  0
 15 16  1  0
 16 17  2  0
 17 18  1  0
 14 19  1  0
 18 19  2  0
M  END
