pyridine_urea_2868
     RDKit          3D

 22 23  0  0  0  0  0  0  0  0999 V2000
   12.1570   -0.3730   24.5890 C   0  0  0  0  0  0  0  0  0  0  0  0
   11.4110   -1.6390   24.1560 C   0  0  0  0  0  0  0  0  0  0  0  0
   10.0330   -1.2920   23.4140 C   0  0  1  0  0  0  0  0  0  0  0  0
    8.8110   -1.3180   23.9520 C   0  0  0  0  0  0  0  0  0  0  0  0
    7.8670   -0.7030   23.1130 N   0  0  0  0  0  0  0  0  0  0  0  0
    7.9160   -0.3280   21.7790 C   0  0  0  0  0  0  0  0  0  0  0  0
    8.7100    0.5370   21.4210 O   0  0  0  0  0  0  0  0  0  0  0  0
    7.0500   -0.9630   20.9670 N   0  0  0  0  0  0  0  0  0  0  0  0
    6.4200   -0.1970   20.0510 C   0  0  0  0  0  0  0  0  0  0  0  0
    5.1460    0.6210   20.2940 C   0  0  0  0  0  0  0  0  0  0  0  0
    4.4760    1.4760   19.2220 C   0  0  0  0  0  0  0  0  0  0  0  0
    5.2300    1.4090   17.9030 C   0  0  0  0  0  0  0  0  0  0  0  0
    6.3610    0.6510   17.7640 N   0  0  0  0  0  0  0  0  0  0  0  0
    6.9420   -0.1220   18.7760 C   0  0  0  0  0  0  0  0  0  0  0  0
   10.0880    0.0110   22.9560 O   0  0  0  0  0  0  0  0  0  0  0  0
   11.2750   -0.2780   22.4710 C   0  0  0  0  0  0  0  0  0  0  0  0
   11.2440   -1.5800   21.7110 C   0  0  0  0  0  0  0  0  0  0  0  0
   12.4020   -1.9850   21.1830 C   0  0  0  0  0  0  0  0  0  0  0  0
   13.4900   -1.2130   21.3870 C   0  0  0  0  0  0  0  0  0  0  0  0
   13.4900   -0.0130   22.1190 C   0  0  0  0  0  0  0  0  0  0  0  0
   12.3720    0.4620   22.6450 C   0  0  0  0  0  0  0  0  0  0  0  0
   12.3700    1.6660   23.3310 C   0  0  0  0  0  0  0  0  0  0  0  0
  1  2  1  0
  3  2  1  1
  3  4  1  0
  4  5  1  0
  5  6  1  0
  6  7  2  0
  6  8  1  0
  8  9  1  0
  9 10  2  0
 10 11  1  0
 11 12  2  0
 12 13  1  0
  9 14  1  0
 13 14  2  0
  3 15  1  0
 15 16  1  0
 16 17  2  0
 17 18  1  0
 18 19  2  0
 19 20  1  0
 16 21  1  0
 20 21  2  0
 21 22  1  0
M  END
