pyridine_urea_15170
     RDKit          3D

 19 19  0  0  0  0  0  0  0  0999 V2000
   11.5810   -1.9800   21.6650 C   0  0  0  0  0  0  0  0  0  0  0  0
   10.3950   -2.5590   22.4450 C   0  0  0  0  0  0  0  0  0  0  0  0
   10.7880   -2.7680   23.9040 C   0  0  0  0  0  0  0  0  0  0  0  0
   11.8640   -3.2730   24.1870 O   0  0  0  0  0  0  0  0  0  0  0  0
   12.8980   -2.3280   24.5470 C   0  0  0  0  0  0  0  0  0  0  0  0
   13.1960   -1.4730   23.3190 C   0  0  0  0  0  0  0  0  0  0  0  0
   12.1330   -1.2910   22.7470 O   0  0  0  0  0  0  0  0  0  0  0  0
   11.6100    0.0110   22.9710 C   0  0  0  0  0  0  0  0  0  0  0  0
   10.1170   -0.1250   23.3050 C   0  0  0  0  0  0  0  0  0  0  0  0
    9.2940   -0.5040   22.1460 N   0  0  0  0  0  0  0  0  0  0  0  0
    8.5270    0.4280   21.4740 C   0  0  0  0  0  0  0  0  0  0  0  0
    8.9600    1.5440   21.2010 O   0  0  0  0  0  0  0  0  0  0  0  0
    7.2800   -0.0590   21.1480 N   0  0  0  0  0  0  0  0  0  0  0  0
    6.9770   -0.3460   19.8230 C   0  0  0  0  0  0  0  0  0  0  0  0
    6.1950    0.8520   20.0630 C   0  0  0  0  0  0  0  0  0  0  0  0
    5.2760    1.8100   19.4730 C   0  0  0  0  0  0  0  0  0  0  0  0
    5.2120    1.2630   18.2110 C   0  0  0  0  0  0  0  0  0  0  0  0
    5.7950    0.2150   17.7440 N   0  0  0  0  0  0  0  0  0  0  0  0
    6.5690   -0.4630   18.5350 C   0  0  0  0  0  0  0  0  0  0  0  0
  1  2  3  0
  2  3  1  0
  3  4  1  0
  4  5  1  0
  5  6  1  0
  6  7  1  0
  7  8  1  0
  8  9  1  0
  9 10  1  0
 10 11  1  0
 11 12  2  0
 11 13  1  0
 13 14  1  0
 14 15  2  0
 15 16  1  0
 16 17  2  0
 17 18  1  0
 14 19  1  0
 18 19  2  0
M  END
