pyridine_urea_1050
     RDKit          3D

 22 23  0  0  0  0  0  0  0  0999 V2000
   12.5840   -2.6340   21.0450 C   0  0  0  0  0  0  0  0  0  0  0  0
   11.7120   -2.4060   22.1790 N   0  0  0  0  0  0  0  0  0  0  0  0
   10.5830   -1.5960   22.0470 C   0  0  0  0  0  0  0  0  0  0  0  0
   10.4970   -0.6950   21.2590 O   0  0  0  0  0  0  0  0  0  0  0  0
    9.4860   -1.7760   22.8930 C   0  0  1  0  0  0  0  0  0  0  0  0
    9.6530   -0.9110   23.9220 C   0  0  0  0  0  0  0  0  0  0  0  0
   10.7710   -0.2900   23.5450 C   0  0  0  0  0  0  0  0  0  0  0  0
   12.1530    0.1070   23.2480 C   0  0  0  0  0  0  0  0  0  0  0  0
   13.3870   -0.5890   23.4740 C   0  0  0  0  0  0  0  0  0  0  0  0
   13.3810   -1.9110   24.1450 C   0  0  0  0  0  0  0  0  0  0  0  0
   12.1690   -2.3360   24.4730 C   0  0  0  0  0  0  0  0  0  0  0  0
   11.0270   -1.5780   24.1780 C   0  0  0  0  0  0  0  0  0  0  0  0
    8.2550   -1.3290   22.5400 N   0  0  0  0  0  0  0  0  0  0  0  0
    7.9860   -0.4490   21.5220 C   0  0  0  0  0  0  0  0  0  0  0  0
    8.6600    0.5410   21.2530 O   0  0  0  0  0  0  0  0  0  0  0  0
    6.8670   -0.8820   20.9230 N   0  0  0  0  0  0  0  0  0  0  0  0
    6.2840   -0.1070   19.9910 C   0  0  0  0  0  0  0  0  0  0  0  0
    5.1270    0.6510   20.1750 C   0  0  0  0  0  0  0  0  0  0  0  0
    4.5840    1.4320   19.1370 C   0  0  0  0  0  0  0  0  0  0  0  0
    5.2150    1.4540   17.8950 C   0  0  0  0  0  0  0  0  0  0  0  0
    6.3380    0.7290   17.6850 N   0  0  0  0  0  0  0  0  0  0  0  0
    6.8640   -0.0520   18.7470 C   0  0  0  0  0  0  0  0  0  0  0  0
  1  2  1  0
  2  3  1  0
  3  4  2  0
  3  5  1  0
  5  6  1  1
  6  7  1  0
  7  8  2  0
  8  9  1  0
  9 10  2  0
 10 11  1  0
  7 12  1  0
 11 12  2  0
  5 13  1  0
 13 14  1  0
 14 15  2  0
 14 16  1  0
 16 17  1  0
 17 18  2  0
 18 19  1  0
 19 20  2  0
 20 21  1  0
 17 22  1  0
 21 22  2  0
M  END
