pyridine_urea_11586
     RDKit          3D

 17 18  0  0  0  0  0  0  0  0999 V2000
   10.5170    1.0710   22.8610 C   0  0  0  0  0  0  0  0  0  0  0  0
   10.4270   -0.4240   22.7660 C   0  0  0  0  0  0  0  0  0  0  0  0
    9.2680   -0.9120   22.0520 N   0  0  0  0  0  0  0  0  0  0  0  0
    8.4870    0.0180   21.4130 C   0  0  0  0  0  0  0  0  0  0  0  0
    8.8890    1.1570   21.1460 O   0  0  0  0  0  0  0  0  0  0  0  0
    7.2390   -0.4470   21.1010 N   0  0  0  0  0  0  0  0  0  0  0  0
    6.5210    0.1200   20.0530 C   0  0  0  0  0  0  0  0  0  0  0  0
    5.3660    0.8280   20.3020 C   0  0  0  0  0  0  0  0  0  0  0  0
    4.6630    1.4170   19.2720 C   0  0  0  0  0  0  0  0  0  0  0  0
    5.1300    1.2880   17.9880 C   0  0  0  0  0  0  0  0  0  0  0  0
    6.2400    0.6010   17.6840 N   0  0  0  0  0  0  0  0  0  0  0  0
    6.9100    0.0320   18.7230 C   0  0  0  0  0  0  0  0  0  0  0  0
   10.6490   -1.2430   24.0440 C   0  0  0  0  0  0  0  0  0  0  0  0
   12.2190   -1.9060   23.9090 S   0  0  0  0  0  0  0  0  0  0  0  0
   12.1110   -3.3230   23.9210 O   0  0  0  0  0  0  0  0  0  0  0  0
   13.1660   -1.1580   24.6950 O   0  0  0  0  0  0  0  0  0  0  0  0
   11.7730   -1.1050   22.3750 C   0  0  0  0  0  0  0  0  0  0  0  0
  1  2  1  0
  2  3  1  0
  3  4  1  0
  4  5  2  0
  4  6  1  0
  6  7  1  0
  7  8  2  0
  8  9  1  0
  9 10  2  0
 10 11  1  0
  7 12  1  0
 11 12  2  0
  2 13  1  0
 14 13  1  0
 14 15  2  0
 14 16  2  0
  2 17  1  0
 14 17  1  0
M  END
