pyridine_urea_9316
     RDKit          3D

 18 19  0  0  0  0  0  0  0  0999 V2000
    9.4600   -0.6120   24.1390 C   0  0  0  0  0  0  0  0  0  0  0  0
   10.0370   -1.4230   22.9930 C   0  0  1  0  0  0  0  0  0  0  0  0
    9.3040   -1.2690   21.7380 N   0  0  0  0  0  0  0  0  0  0  0  0
    8.5160   -0.1760   21.4800 C   0  0  0  0  0  0  0  0  0  0  0  0
    8.9460    0.9670   21.5350 O   0  0  0  0  0  0  0  0  0  0  0  0
    7.2350   -0.5310   21.1310 N   0  0  0  0  0  0  0  0  0  0  0  0
    6.5310    0.0700   20.0740 C   0  0  0  0  0  0  0  0  0  0  0  0
    5.3770    0.7870   20.3500 C   0  0  0  0  0  0  0  0  0  0  0  0
    4.6790    1.4020   19.3130 C   0  0  0  0  0  0  0  0  0  0  0  0
    5.1630    1.2800   18.0210 C   0  0  0  0  0  0  0  0  0  0  0  0
    6.2700    0.5870   17.7280 N   0  0  0  0  0  0  0  0  0  0  0  0
    6.9250   -0.0010   18.7510 C   0  0  0  0  0  0  0  0  0  0  0  0
   11.4910   -1.1030   22.7580 C   0  0  0  0  0  0  0  0  0  0  0  0
   12.7800   -0.5190   22.6270 C   0  0  0  0  0  0  0  0  0  0  0  0
   13.1650    0.7760   22.8760 C   0  0  0  0  0  0  0  0  0  0  0  0
   12.2850    1.6850   23.2980 C   0  0  0  0  0  0  0  0  0  0  0  0
   11.0640    1.3420   23.4760 N   0  0  0  0  0  0  0  0  0  0  0  0
   10.7750    0.0530   23.2090 C   0  0  0  0  0  0  0  0  0  0  0  0
  2  1  1  1
  2  3  1  0
  3  4  1  0
  4  5  2  0
  4  6  1  0
  6  7  1  0
  7  8  2  0
  8  9  1  0
  9 10  2  0
 10 11  1  0
  7 12  1  0
 11 12  2  0
  2 13  1  0
 13 14  2  0
 14 15  1  0
 15 16  2  0
 16 17  1  0
 13 18  1  0
 17 18  2  0
M  END
