pyridine_urea_7191
     RDKit          3D

 19 20  0  0  0  0  0  0  0  0999 V2000
    9.5280   -0.6170   24.8550 C   0  0  0  0  0  0  0  0  0  0  0  0
    9.7260   -0.4550   23.3690 C   0  0  2  0  0  0  0  0  0  0  0  0
    8.8790   -1.2800   22.5350 N   0  0  0  0  0  0  0  0  0  0  0  0
    8.1940   -0.4420   21.5660 C   0  0  0  0  0  0  0  0  0  0  0  0
    8.8380    0.8000   21.2510 O   0  0  0  0  0  0  0  0  0  0  0  0
    6.9920   -0.8520   21.0480 N   0  0  0  0  0  0  0  0  0  0  0  0
    6.3480   -0.0950   19.9950 C   0  0  0  0  0  0  0  0  0  0  0  0
    5.1710    0.6060   20.2680 C   0  0  0  0  0  0  0  0  0  0  0  0
    4.5670    1.3470   19.2550 C   0  0  0  0  0  0  0  0  0  0  0  0
    5.1900    1.3900   17.8690 C   0  0  0  0  0  0  0  0  0  0  0  0
    6.3360    0.6790   17.6670 N   0  0  0  0  0  0  0  0  0  0  0  0
    6.9020   -0.0510   18.7160 C   0  0  0  0  0  0  0  0  0  0  0  0
   11.1450   -0.5790   23.0210 C   0  0  0  0  0  0  0  0  0  0  0  0
   12.5630   -0.3600   22.7500 C   0  0  0  0  0  0  0  0  0  0  0  0
   13.3530    0.7710   22.8180 C   0  0  0  0  0  0  0  0  0  0  0  0
   12.5700    1.8310   23.2190 C   0  0  0  0  0  0  0  0  0  0  0  0
   11.6910    0.3690   23.1240 Cl  0  0  0  0  0  0  0  0  0  0  0  0
   11.3250    2.0180   23.5350 N   0  0  0  0  0  0  0  0  0  0  0  0
   10.7130    0.7900   23.4120 C   0  0  0  0  0  0  0  0  0  0  0  0
  2  1  1  1
  2  3  1  0
  3  4  1  0
  4  5  2  0
  4  6  1  0
  6  7  1  0
  7  8  2  0
  8  9  1  0
  9 10  2  0
 10 11  1  0
  7 12  1  0
 11 12  2  0
  2 13  1  0
 13 14  2  0
 14 15  1  0
 15 16  2  0
 16 17  1  0
 16 18  1  0
 13 19  1  0
 18 19  2  0
M  END
