pyridine_urea_654
     RDKit          3D

 24 26  0  0  0  0  0  0  0  0999 V2000
    8.9110    1.0170   21.2040 O   0  0  0  0  0  0  0  0  0  0  0  0
    8.2520    0.0350   21.5850 C   0  0  0  0  0  0  0  0  0  0  0  0
    8.4700   -0.6640   22.7550 N   0  0  0  0  0  0  0  0  0  0  0  0
    9.3530   -0.2840   23.7700 C   0  0  0  0  0  0  0  0  0  0  0  0
   10.6570   -0.1170   23.4340 C   0  0  0  0  0  0  0  0  0  0  0  0
   11.3420   -1.2610   22.9780 C   0  0  0  0  0  0  0  0  0  0  0  0
   12.6610   -1.1840   22.5990 C   0  0  0  0  0  0  0  0  0  0  0  0
   13.3120    0.0330   22.6790 C   0  0  0  0  0  0  0  0  0  0  0  0
   12.5510    1.2400   23.1770 C   0  0  0  0  0  0  0  0  0  0  0  0
   11.2470    1.1540   23.5390 C   0  0  0  0  0  0  0  0  0  0  0  0
   10.3760    2.6300   24.0980 S   0  0  0  0  0  0  0  0  0  0  0  0
   11.3800    3.9820   23.4870 C   0  0  0  0  0  0  0  0  0  0  0  0
   12.2210    3.8300   22.3820 C   0  0  0  0  0  0  0  0  0  0  0  0
   13.0020    4.8860   21.9130 C   0  0  0  0  0  0  0  0  0  0  0  0
   12.9380    6.2000   22.6000 C   0  0  0  0  0  0  0  0  0  0  0  0
   12.0810    6.2960   23.6960 C   0  0  0  0  0  0  0  0  0  0  0  0
   11.3110    5.2270   24.1470 C   0  0  0  0  0  0  0  0  0  0  0  0
    7.1820   -0.5280   20.9450 N   0  0  0  0  0  0  0  0  0  0  0  0
    6.4250    0.1270   19.9850 C   0  0  0  0  0  0  0  0  0  0  0  0
    5.2300    0.8020   20.2060 C   0  0  0  0  0  0  0  0  0  0  0  0
    4.5830    1.4310   19.1520 C   0  0  0  0  0  0  0  0  0  0  0  0
    5.1670    1.3570   17.9050 C   0  0  0  0  0  0  0  0  0  0  0  0
    6.3140    0.7050   17.6640 N   0  0  0  0  0  0  0  0  0  0  0  0
    6.9100    0.1090   18.7040 C   0  0  0  0  0  0  0  0  0  0  0  0
  1  2  2  0
  2  3  1  0
  3  4  1  0
  4  5  1  0
  5  6  2  0
  6  7  1  0
  7  8  2  0
  8  9  1  0
  5 10  1  0
  9 10  2  0
 10 11  1  0
 11 12  1  0
 12 13  2  0
 13 14  1  0
 14 15  2  0
 15 16  1  0
 12 17  1  0
 16 17  2  0
  2 18  1  0
 18 19  1  0
 19 20  2  0
 20 21  1  0
 21 22  2  0
 22 23  1  0
 19 24  1  0
 23 24  2  0
M  END
