pyridine_urea_209
     RDKit          3D

 21 23  0  0  0  0  0  0  0  0999 V2000
    8.5290    1.2420   20.9280 O   0  0  0  0  0  0  0  0  0  0  0  0
    8.0160    0.2130   21.3880 C   0  0  0  0  0  0  0  0  0  0  0  0
    6.9890   -0.5060   20.8650 N   0  0  0  0  0  0  0  0  0  0  0  0
    6.3520    0.1600   19.8110 C   0  0  0  0  0  0  0  0  0  0  0  0
    5.0270    0.8320   20.1330 C   0  0  0  0  0  0  0  0  0  0  0  0
    4.4350    1.5380   18.9750 C   0  0  0  0  0  0  0  0  0  0  0  0
    5.1160    1.5140   17.7720 C   0  0  0  0  0  0  0  0  0  0  0  0
    6.2850    0.8850   17.5630 N   0  0  0  0  0  0  0  0  0  0  0  0
    6.8620    0.2350   18.5670 C   0  0  0  0  0  0  0  0  0  0  0  0
    8.4030   -0.3640   22.5140 N   0  0  0  0  0  0  0  0  0  0  0  0
    9.8130   -0.4720   22.7270 C   0  0  0  0  0  0  0  0  0  0  0  0
   10.5160   -1.4230   22.0990 C   0  0  0  0  0  0  0  0  0  0  0  0
   11.8760   -1.2640   22.6070 C   0  0  0  0  0  0  0  0  0  0  0  0
   12.3900   -0.3660   23.5160 C   0  0  0  0  0  0  0  0  0  0  0  0
   11.6420    0.5900   24.0580 C   0  0  0  0  0  0  0  0  0  0  0  0
   10.3530    0.5550   23.6890 C   0  0  0  0  0  0  0  0  0  0  0  0
    9.2600    1.7130   24.3420 Cl  0  0  0  0  0  0  0  0  0  0  0  0
   13.6980   -0.5470   23.8620 O   0  0  0  0  0  0  0  0  0  0  0  0
   13.5750   -1.7790   24.4660 C   0  0  0  0  0  0  0  0  0  0  0  0
   13.4190   -2.8080   23.4830 C   0  0  0  0  0  0  0  0  0  0  0  0
   13.0790   -2.1280   22.2240 C   0  0  0  0  0  0  0  0  0  0  0  0
  1  2  2  0
  2  3  1  0
  3  4  1  0
  4  5  2  0
  5  6  1  0
  6  7  2  0
  7  8  1  0
  4  9  1  0
  8  9  2  0
  2 10  1  0
 10 11  1  0
 11 12  2  0
 12 13  1  0
 13 14  2  0
 14 15  1  0
 11 16  1  0
 15 16  2  0
 16 17  1  0
 14 18  1  0
 18 19  1  0
 19 20  1  0
 13 21  1  0
 20 21  1  0
M  END
