pyridine_urea_2078
     RDKit          3D

 19 20  0  0  0  0  0  0  0  0999 V2000
   11.0030    1.1810   22.7280 C   0  0  0  0  0  0  0  0  0  0  0  0
   10.5190   -0.2440   23.0450 C   0  0  2  0  0  0  0  0  0  0  0  0
    9.1160   -0.4730   22.6590 N   0  0  0  0  0  0  0  0  0  0  0  0
    8.5300    0.2200   21.6120 C   0  0  0  0  0  0  0  0  0  0  0  0
    8.9630    1.3000   21.2000 O   0  0  0  0  0  0  0  0  0  0  0  0
    7.4170   -0.4280   21.1220 N   0  0  0  0  0  0  0  0  0  0  0  0
    6.6860    0.1140   20.0630 C   0  0  0  0  0  0  0  0  0  0  0  0
    5.4650    0.9400   20.3360 C   0  0  0  0  0  0  0  0  0  0  0  0
    4.7170    1.5210   19.3390 C   0  0  0  0  0  0  0  0  0  0  0  0
    5.1040    1.3390   18.0180 C   0  0  0  0  0  0  0  0  0  0  0  0
    6.2670    0.5370   17.7260 N   0  0  0  0  0  0  0  0  0  0  0  0
    6.9960   -0.0330   18.7340 C   0  0  0  0  0  0  0  0  0  0  0  0
   10.7560   -0.4110   24.5530 C   0  0  0  0  0  0  0  0  0  0  0  0
   12.1160   -0.1680   24.6750 C   0  0  0  0  0  0  0  0  0  0  0  0
   12.9190   -1.0220   23.9150 C   0  0  0  0  0  0  0  0  0  0  0  0
   12.7830   -0.8000   22.5350 C   0  0  0  0  0  0  0  0  0  0  0  0
   11.3720   -1.3650   22.4920 C   0  0  0  0  0  0  0  0  0  0  0  0
   10.9080   -1.8990   21.3830 F   0  0  0  0  0  0  0  0  0  0  0  0
   11.3080   -2.3970   23.3720 F   0  0  0  0  0  0  0  0  0  0  0  0
  2  1  1  6
  2  3  1  0
  3  4  1  0
  4  5  2  0
  4  6  1  0
  6  7  1  0
  7  8  2  0
  8  9  1  0
  9 10  2  0
 10 11  1  0
  7 12  1  0
 11 12  2  0
  2 13  1  0
 13 14  1  0
 14 15  1  0
 15 16  1  0
  2 17  1  0
 16 17  1  0
 17 18  1  0
 17 19  1  0
M  END
