pyridine_urea_942
     RDKit          3D

 22 24  0  0  0  0  0  0  0  0999 V2000
    9.2310   -3.0020   23.0730 C   0  0  0  0  0  0  0  0  0  0  0  0
    9.4760   -1.6190   23.5740 C   0  0  1  0  0  0  0  0  0  0  0  0
    8.5050   -0.6990   23.4960 C   0  0  0  0  0  0  0  0  0  0  0  0
    9.0320    0.0430   22.3690 N   0  0  0  0  0  0  0  0  0  0  0  0
    8.2700    0.4410   21.3850 C   0  0  0  0  0  0  0  0  0  0  0  0
    8.5670    1.5310   20.8970 O   0  0  0  0  0  0  0  0  0  0  0  0
    7.1720   -0.4160   20.9960 N   0  0  0  0  0  0  0  0  0  0  0  0
    6.4960    0.1540   19.9870 C   0  0  0  0  0  0  0  0  0  0  0  0
    5.2120    0.8830   20.2860 C   0  0  0  0  0  0  0  0  0  0  0  0
    4.4640    1.5590   19.1500 C   0  0  0  0  0  0  0  0  0  0  0  0
    5.1210    1.4200   17.7940 C   0  0  0  0  0  0  0  0  0  0  0  0
    6.2790    0.7250   17.6440 N   0  0  0  0  0  0  0  0  0  0  0  0
    6.9420    0.1130   18.6920 C   0  0  0  0  0  0  0  0  0  0  0  0
    9.9880   -1.7170   25.0170 C   0  0  0  0  0  0  0  0  0  0  0  0
   11.3650   -1.6130   25.1840 O   0  0  0  0  0  0  0  0  0  0  0  0
   12.0110   -1.9550   24.0150 C   0  0  0  0  0  0  0  0  0  0  0  0
   13.1540   -2.6030   24.2050 C   0  0  0  0  0  0  0  0  0  0  0  0
   13.7870   -2.9390   23.0820 C   0  0  0  0  0  0  0  0  0  0  0  0
   13.3040   -2.6420   21.7960 C   0  0  0  0  0  0  0  0  0  0  0  0
   12.1650   -1.9960   21.6500 C   0  0  0  0  0  0  0  0  0  0  0  0
   11.5100   -1.6460   22.7570 C   0  0  0  0  0  0  0  0  0  0  0  0
   10.3870   -1.0050   22.7070 O   0  0  0  0  0  0  0  0  0  0  0  0
  2  1  1  6
  2  3  1  0
  3  4  1  0
  4  5  1  0
  5  6  2  0
  5  7  1  0
  7  8  1  0
  8  9  2  0
  9 10  1  0
 10 11  2  0
 11 12  1  0
  8 13  1  0
 12 13  2  0
  2 14  1  0
 14 15  1  0
 15 16  1  0
 16 17  2  0
 17 18  1  0
 18 19  2  0
 19 20  1  0
 16 21  1  0
 20 21  2  0
  2 22  1  0
 21 22  1  0
M  END
