pyridine_urea_14871
     RDKit          3D

 19 19  0  0  0  0  0  0  0  0999 V2000
   11.6660    1.0670   23.7950 C   0  0  0  0  0  0  0  0  0  0  0  0
   10.4020    0.2570   24.0610 C   0  0  0  0  0  0  0  0  0  0  0  0
   10.1970   -0.8570   23.2530 C   0  0  2  0  0  0  0  0  0  0  0  0
   11.0440   -0.9290   22.1770 C   0  0  0  0  0  0  0  0  0  0  0  0
   12.2990   -1.4720   22.3390 C   0  0  0  0  0  0  0  0  0  0  0  0
   13.2360   -0.7910   23.0950 C   0  0  0  0  0  0  0  0  0  0  0  0
   13.5340    0.3380   22.7570 O   0  0  0  0  0  0  0  0  0  0  0  0
   13.7290   -1.3830   24.0470 O   0  0  0  0  0  0  0  0  0  0  0  0
   12.8760   -1.9880   24.9400 C   0  0  0  0  0  0  0  0  0  0  0  0
    8.8040   -0.9200   22.7790 N   0  0  0  0  0  0  0  0  0  0  0  0
    8.2960   -0.1940   21.7010 C   0  0  0  0  0  0  0  0  0  0  0  0
    8.7520    0.8600   21.2790 O   0  0  0  0  0  0  0  0  0  0  0  0
    7.1140   -0.8720   21.1630 N   0  0  0  0  0  0  0  0  0  0  0  0
    6.4640   -0.1020   20.0680 C   0  0  0  0  0  0  0  0  0  0  0  0
    5.3140    0.6330   20.3200 C   0  0  0  0  0  0  0  0  0  0  0  0
    4.6610    1.3720   19.3440 C   0  0  0  0  0  0  0  0  0  0  0  0
    5.2700    1.3340   17.9990 C   0  0  0  0  0  0  0  0  0  0  0  0
    6.3910    0.6160   17.7540 N   0  0  0  0  0  0  0  0  0  0  0  0
    6.9570   -0.0790   18.7730 C   0  0  0  0  0  0  0  0  0  0  0  0
  1  2  1  0
  3  2  1  6
  3  4  1  0
  4  5  1  0
  5  6  1  0
  6  7  2  0
  6  8  1  0
  8  9  1  0
  3 10  1  0
 10 11  1  0
 11 12  2  0
 11 13  1  0
 13 14  1  0
 14 15  2  0
 15 16  1  0
 16 17  2  0
 17 18  1  0
 14 19  1  0
 18 19  2  0
M  END
