pyridine_urea_9605
     RDKit          3D

 19 20  0  0  0  0  0  0  0  0999 V2000
   13.1420   -2.4670   20.9820 C   0  0  0  0  0  0  0  0  0  0  0  0
   13.5360   -1.0970   21.4540 C   0  0  0  0  0  0  0  0  0  0  0  0
   12.8210   -0.9130   22.7450 C   0  0  1  0  0  0  0  0  0  0  0  0
   12.5910    0.5450   22.9760 C   0  0  0  0  0  0  0  0  0  0  0  0
   11.8430    0.5790   24.2820 C   0  0  0  0  0  0  0  0  0  0  0  0
   10.5970   -0.2960   24.3820 C   0  0  1  0  0  0  0  0  0  0  0  0
    9.5170    0.3770   23.5760 C   0  0  0  0  0  0  0  0  0  0  0  0
    8.9490   -0.5000   22.5470 N   0  0  0  0  0  0  0  0  0  0  0  0
    8.3980    0.1610   21.4800 C   0  0  0  0  0  0  0  0  0  0  0  0
    8.8540    1.2460   21.1040 O   0  0  0  0  0  0  0  0  0  0  0  0
    7.3100   -0.4920   20.9530 N   0  0  0  0  0  0  0  0  0  0  0  0
    6.4960    0.1320   20.0130 C   0  0  0  0  0  0  0  0  0  0  0  0
    5.3230    0.8190   20.2840 C   0  0  0  0  0  0  0  0  0  0  0  0
    4.6280    1.4130   19.2380 C   0  0  0  0  0  0  0  0  0  0  0  0
    5.1450    1.2860   17.9620 C   0  0  0  0  0  0  0  0  0  0  0  0
    6.2630    0.6220   17.6670 N   0  0  0  0  0  0  0  0  0  0  0  0
    6.9090    0.0630   18.6990 C   0  0  0  0  0  0  0  0  0  0  0  0
   10.8450   -1.7210   23.8710 C   0  0  0  0  0  0  0  0  0  0  0  0
   11.4550   -1.5720   22.5260 C   0  0  0  0  0  0  0  0  0  0  0  0
  1  2  3  0
  3  2  1  6
  3  4  1  0
  4  5  1  0
  5  6  1  0
  6  7  1  6
  7  8  1  0
  8  9  1  0
  9 10  2  0
  9 11  1  0
 11 12  1  0
 12 13  2  0
 13 14  1  0
 14 15  2  0
 15 16  1  0
 12 17  1  0
 16 17  2  0
  6 18  1  0
  3 19  1  0
 18 19  1  0
M  END
