pyridine_urea_4017
     RDKit          3D

 26 27  0  0  0  0  0  0  0  0999 V2000
   10.1780    1.9310   24.0560 C   0  0  0  0  0  0  0  0  0  0  0  0
    9.3450    0.7020   24.2960 C   0  0  0  0  0  0  0  0  0  0  0  0
    9.1860    0.1150   25.5550 C   0  0  0  0  0  0  0  0  0  0  0  0
    9.9620   -0.3630   23.4180 C   0  0  1  0  0  0  0  0  0  0  0  0
    9.3150   -0.6170   22.1810 N   0  0  0  0  0  0  0  0  0  0  0  0
    8.4690    0.1890   21.4270 C   0  0  0  0  0  0  0  0  0  0  0  0
    8.7760    1.3370   21.1010 O   0  0  0  0  0  0  0  0  0  0  0  0
    7.3180   -0.4580   21.1170 N   0  0  0  0  0  0  0  0  0  0  0  0
    6.6080    0.1050   20.1060 C   0  0  0  0  0  0  0  0  0  0  0  0
    5.4670    0.8370   20.4220 C   0  0  0  0  0  0  0  0  0  0  0  0
    4.6830    1.4840   19.2690 C   0  0  0  0  0  0  0  0  0  0  0  0
    5.1720    1.2920   18.0010 C   0  0  0  0  0  0  0  0  0  0  0  0
    6.2730    0.5740   17.7400 N   0  0  0  0  0  0  0  0  0  0  0  0
    6.9510    0.0060   18.7670 C   0  0  0  0  0  0  0  0  0  0  0  0
   11.1870    0.2940   23.5130 C   0  0  2  0  0  0  0  0  0  0  0  0
   11.6430    1.0920   22.5300 O   0  0  0  0  0  0  0  0  0  0  0  0
   12.1140   -0.6360   23.7010 C   0  0  0  0  0  0  0  0  0  0  0  0
   12.5650   -0.8340   25.0180 C   0  0  0  0  0  0  0  0  0  0  0  0
   13.4990   -1.9870   24.6630 C   0  0  0  0  0  0  0  0  0  0  0  0
   13.8130   -2.6300   23.3450 C   0  0  0  0  0  0  0  0  0  0  0  0
   13.2160   -2.1490   22.2750 C   0  0  0  0  0  0  0  0  0  0  0  0
   13.2790   -2.4310   20.9740 C   0  0  0  0  0  0  0  0  0  0  0  0
   12.0340   -2.5300   20.5700 F   0  0  0  0  0  0  0  0  0  0  0  0
   13.8200   -1.3390   20.3850 F   0  0  0  0  0  0  0  0  0  0  0  0
   13.9430   -3.4820   20.4570 F   0  0  0  0  0  0  0  0  0  0  0  0
   12.3830   -1.1850   22.5140 C   0  0  0  0  0  0  0  0  0  0  0  0
  1  2  1  0
  2  3  1  0
  2  4  1  0
  4  5  1  6
  5  6  1  0
  6  7  2  0
  6  8  1  0
  8  9  1  0
  9 10  2  0
 10 11  1  0
 11 12  2  0
 12 13  1  0
  9 14  1  0
 13 14  2  0
  4 15  1  0
 15 16  1  6
 15 17  1  0
 17 18  2  0
 18 19  1  0
 19 20  2  0
 20 21  1  0
 21 22  1  0
 22 23  1  0
 22 24  1  0
 22 25  1  0
 17 26  1  0
 21 26  2  0
M  END
