pyridine_urea_6082
     RDKit          3D

 25 27  0  0  0  0  0  0  0  0999 V2000
    8.6600    1.0660   21.0180 O   0  0  0  0  0  0  0  0  0  0  0  0
    8.1070    0.0260   21.4110 C   0  0  0  0  0  0  0  0  0  0  0  0
    8.6490   -0.7630   22.4770 N   0  0  0  0  0  0  0  0  0  0  0  0
   10.0120   -0.7170   22.5120 C   0  0  0  0  0  0  0  0  0  0  0  0
   10.5980    0.1770   23.4000 C   0  0  1  0  0  0  0  0  0  0  0  0
   11.9500    0.4190   23.0880 C   0  0  0  0  0  0  0  0  0  0  0  0
   12.4160    1.7090   23.3830 C   0  0  0  0  0  0  0  0  0  0  0  0
   13.1180    0.6540   22.8260 C   0  0  0  0  0  0  0  0  0  0  0  0
   11.9480   -0.3570   22.8050 C   0  0  0  0  0  0  0  0  0  0  0  0
   12.3770   -1.5700   22.2590 C   0  0  0  0  0  0  0  0  0  0  0  0
   10.8670   -2.3530   22.3840 Cl  0  0  0  0  0  0  0  0  0  0  0  0
   13.1520   -0.4240   22.4550 C   0  0  0  0  0  0  0  0  0  0  0  0
   10.0720    1.4620   23.6430 N   0  0  0  0  0  0  0  0  0  0  0  0
    8.9140    1.5180   24.4470 C   0  0  0  0  0  0  0  0  0  0  0  0
    8.3590    2.8000   24.5450 C   0  0  0  0  0  0  0  0  0  0  0  0
    8.0630    3.3590   23.5060 O   0  0  0  0  0  0  0  0  0  0  0  0
    8.9140    2.9590   22.5250 C   0  0  0  0  0  0  0  0  0  0  0  0
   10.2110    2.6840   22.9470 C   0  0  0  0  0  0  0  0  0  0  0  0
    6.9510   -0.5150   20.9360 N   0  0  0  0  0  0  0  0  0  0  0  0
    6.3400    0.1030   19.9290 C   0  0  0  0  0  0  0  0  0  0  0  0
    5.1380    0.7640   20.1550 C   0  0  0  0  0  0  0  0  0  0  0  0
    4.5240    1.4290   19.0960 C   0  0  0  0  0  0  0  0  0  0  0  0
    5.1490    1.4020   17.8490 C   0  0  0  0  0  0  0  0  0  0  0  0
    6.3020    0.7570   17.6260 N   0  0  0  0  0  0  0  0  0  0  0  0
    6.8600    0.1290   18.6670 C   0  0  0  0  0  0  0  0  0  0  0  0
  1  2  2  0
  2  3  1  0
  3  4  1  0
  5  4  1  6
  5  6  1  0
  6  7  2  0
  7  8  1  0
  8  9  2  0
  9 10  1  0
 10 11  1  0
  6 12  1  0
 10 12  2  0
  5 13  1  0
 13 14  1  0
 14 15  1  0
 15 16  1  0
 16 17  1  0
 13 18  1  0
 17 18  1  0
  2 19  1  0
 19 20  1  0
 20 21  2  0
 21 22  1  0
 22 23  2  0
 23 24  1  0
 20 25  1  0
 24 25  2  0
M  END
