pyridine_urea_2290
     RDKit          3D

 25 26  0  0  0  0  0  0  0  0999 V2000
    8.8430    1.2460   21.1300 O   0  0  0  0  0  0  0  0  0  0  0  0
    8.3840    0.1610   21.5220 C   0  0  0  0  0  0  0  0  0  0  0  0
    7.3090   -0.4990   20.9740 N   0  0  0  0  0  0  0  0  0  0  0  0
    6.4820    0.1290   20.0510 C   0  0  0  0  0  0  0  0  0  0  0  0
    5.1650    0.8360   20.3930 C   0  0  0  0  0  0  0  0  0  0  0  0
    4.4770    1.4710   19.1910 C   0  0  0  0  0  0  0  0  0  0  0  0
    5.1510    1.3290   17.8650 C   0  0  0  0  0  0  0  0  0  0  0  0
    6.3030    0.6730   17.6850 N   0  0  0  0  0  0  0  0  0  0  0  0
    6.9130    0.1110   18.7380 C   0  0  0  0  0  0  0  0  0  0  0  0
    8.9160   -0.5240   22.5900 N   0  0  0  0  0  0  0  0  0  0  0  0
   10.3400   -0.7490   22.6940 C   0  0  1  0  0  0  0  0  0  0  0  0
   10.9980    0.5230   22.7880 C   0  0  0  0  0  0  0  0  0  0  0  0
   10.4950    1.6290   22.7190 C   0  0  0  0  0  0  0  0  0  0  0  0
   11.9610    1.4880   22.8840 C   0  0  0  0  0  0  0  0  0  0  0  0
   11.8220   -0.0720   22.9200 C   0  0  0  0  0  0  0  0  0  0  0  0
   12.5180   -1.2950   23.0620 O   0  0  0  0  0  0  0  0  0  0  0  0
   12.9210   -1.8640   21.8370 C   0  0  0  0  0  0  0  0  0  0  0  0
   11.8410   -2.1740   21.1160 F   0  0  0  0  0  0  0  0  0  0  0  0
   13.5090   -3.0060   22.1820 F   0  0  0  0  0  0  0  0  0  0  0  0
   13.2740    0.3610   23.0760 C   0  0  0  0  0  0  0  0  0  0  0  0
   12.3020    1.1030   22.9480 C   0  0  0  0  0  0  0  0  0  0  0  0
   10.5760   -1.7430   23.6580 C   0  0  0  0  0  0  0  0  0  0  0  0
   11.1810   -2.8390   23.1400 F   0  0  0  0  0  0  0  0  0  0  0  0
    9.3970   -2.2020   24.1410 F   0  0  0  0  0  0  0  0  0  0  0  0
   11.3180   -1.3560   24.7140 F   0  0  0  0  0  0  0  0  0  0  0  0
  1  2  2  0
  2  3  1  0
  3  4  1  0
  4  5  2  0
  5  6  1  0
  6  7  2  0
  7  8  1  0
  4  9  1  0
  8  9  2  0
  2 10  1  0
 11 10  1  1
 11 12  1  0
 12 13  2  0
 13 14  1  0
 14 15  2  0
 15 16  1  0
 16 17  1  0
 17 18  1  0
 17 19  1  0
 15 20  1  0
 12 21  1  0
 20 21  2  0
 11 22  1  0
 22 23  1  0
 22 24  1  0
 22 25  1  0
M  END
