pyridine_urea_9882
     RDKit          3D

 25 27  0  0  0  0  0  0  0  0999 V2000
   10.1430    6.2910   22.6600 C   0  0  0  0  0  0  0  0  0  0  0  0
   11.0000    5.0130   22.7330 C   0  0  0  0  0  0  0  0  0  0  0  0
   10.1930    3.7500   22.9460 C   0  0  0  0  0  0  0  0  0  0  0  0
   10.9530    2.4600   23.0400 C   0  0  0  0  0  0  0  0  0  0  0  0
   12.4780    2.5070   22.9190 C   0  0  0  0  0  0  0  0  0  0  0  0
   13.3620    1.0070   23.0580 S   0  0  0  0  0  0  0  0  0  0  0  0
   12.0370    0.1060   23.1200 C   0  0  0  0  0  0  0  0  0  0  0  0
   11.8110   -1.2350   23.7750 C   0  0  0  0  0  0  0  0  0  0  0  0
   10.5060   -1.6850   23.5250 C   0  0  0  0  0  0  0  0  0  0  0  0
    9.5730   -0.9780   22.7710 C   0  0  0  0  0  0  0  0  0  0  0  0
    8.2260   -1.2750   22.3970 N   0  0  0  0  0  0  0  0  0  0  0  0
    7.6050   -0.0730   22.0560 C   0  0  0  0  0  0  0  0  0  0  0  0
    8.2490    0.3840   22.9690 O   0  0  0  0  0  0  0  0  0  0  0  0
    7.0140   -0.8440   21.0980 N   0  0  0  0  0  0  0  0  0  0  0  0
    6.3460   -0.1480   20.0780 C   0  0  0  0  0  0  0  0  0  0  0  0
    5.1360    0.5290   20.2670 C   0  0  0  0  0  0  0  0  0  0  0  0
    4.5440    1.2540   19.1090 C   0  0  0  0  0  0  0  0  0  0  0  0
    5.2430    1.2060   17.9160 C   0  0  0  0  0  0  0  0  0  0  0  0
    6.3980    0.5500   17.7430 N   0  0  0  0  0  0  0  0  0  0  0  0
    6.9150   -0.1050   18.8100 C   0  0  0  0  0  0  0  0  0  0  0  0
    9.9520    0.3440   22.2160 C   0  0  0  0  0  0  0  0  0  0  0  0
   11.1610    0.7760   22.4530 C   0  0  0  0  0  0  0  0  0  0  0  0
   13.0910    3.7530   22.7120 C   0  0  0  0  0  0  0  0  0  0  0  0
   12.3940    4.9640   22.6200 C   0  0  0  0  0  0  0  0  0  0  0  0
   13.1250    6.1150   22.4170 C   0  0  0  0  0  0  0  0  0  0  0  0
  1  2  1  0
  2  3  2  0
  3  4  1  0
  4  5  2  0
  5  6  1  0
  6  7  1  0
  7  8  2  0
  8  9  1  0
  9 10  2  0
 10 11  1  0
 11 12  1  0
 12 13  2  0
 12 14  1  0
 14 15  1  0
 15 16  2  0
 16 17  1  0
 17 18  2  0
 18 19  1  0
 15 20  1  0
 19 20  2  0
 10 21  1  0
  7 22  1  0
 21 22  2  0
  5 23  1  0
  2 24  1  0
 23 24  2  0
 24 25  1  0
M  END
