pyridine_urea_112
     RDKit          3D

 20 22  0  0  0  0  0  0  0  0999 V2000
    8.8950    0.8560   21.3400 O   0  0  0  0  0  0  0  0  0  0  0  0
    8.4540   -0.2730   21.4610 C   0  0  0  0  0  0  0  0  0  0  0  0
    9.1750   -1.3070   22.0330 N   0  0  0  0  0  0  0  0  0  0  0  0
    9.9290   -1.1310   23.2670 C   0  0  0  0  0  0  0  0  0  0  0  0
   11.4380   -1.3680   23.1350 C   0  0  0  0  0  0  0  0  0  0  0  0
   12.2330   -0.1950   22.7690 C   0  0  2  0  0  0  0  0  0  0  0  0
   12.5590    1.0200   23.2560 C   0  0  0  0  0  0  0  0  0  0  0  0
   11.5140    2.0440   23.5180 C   0  0  0  0  0  0  0  0  0  0  0  0
   10.3170    1.3460   23.1910 C   0  0  0  0  0  0  0  0  0  0  0  0
   10.9340    0.3420   22.3300 O   0  0  0  0  0  0  0  0  0  0  0  0
   11.9260   -2.6540   23.0300 C   0  0  0  0  0  0  0  0  0  0  0  0
   12.5730   -2.6950   24.3000 C   0  0  0  0  0  0  0  0  0  0  0  0
   12.1820   -1.4000   24.5950 C   0  0  0  0  0  0  0  0  0  0  0  0
    7.2080   -0.6760   21.0340 N   0  0  0  0  0  0  0  0  0  0  0  0
    6.5230   -0.0370   19.9890 C   0  0  0  0  0  0  0  0  0  0  0  0
    5.3510    0.6470   20.2750 C   0  0  0  0  0  0  0  0  0  0  0  0
    4.4040    1.4470   19.3430 C   0  0  0  0  0  0  0  0  0  0  0  0
    5.1870    1.2280   18.0520 C   0  0  0  0  0  0  0  0  0  0  0  0
    6.3170    0.5660   17.7710 N   0  0  0  0  0  0  0  0  0  0  0  0
    6.9610   -0.0540   18.7270 C   0  0  0  0  0  0  0  0  0  0  0  0
  1  2  2  0
  2  3  1  0
  3  4  1  0
  5  4  1  0
  6  5  1  1
  6  7  1  0
  7  8  1  0
  8  9  1  0
  6 10  1  0
  9 10  1  0
  5 11  1  0
 11 12  1  0
  5 13  1  0
 12 13  1  0
  2 14  1  0
 14 15  1  0
 15 16  2  0
 16 17  1  0
 17 18  2  0
 18 19  1  0
 15 20  1  0
 19 20  2  0
M  END
