pyridine_urea_11384
     RDKit          3D

 22 24  0  0  0  0  0  0  0  0999 V2000
    8.5880    0.9200   21.0630 O   0  0  0  0  0  0  0  0  0  0  0  0
    8.3470   -0.2400   21.3660 C   0  0  0  0  0  0  0  0  0  0  0  0
    7.1360   -0.8120   21.0650 N   0  0  0  0  0  0  0  0  0  0  0  0
    6.4630   -0.1110   19.9990 C   0  0  0  0  0  0  0  0  0  0  0  0
    5.1670    0.6100   20.3460 C   0  0  0  0  0  0  0  0  0  0  0  0
    4.5380    1.3330   19.2040 C   0  0  0  0  0  0  0  0  0  0  0  0
    5.1620    1.2900   17.9680 C   0  0  0  0  0  0  0  0  0  0  0  0
    6.3070    0.6290   17.7190 N   0  0  0  0  0  0  0  0  0  0  0  0
    6.9210   -0.0430   18.7110 C   0  0  0  0  0  0  0  0  0  0  0  0
    9.2430   -1.0500   22.0150 N   0  0  0  0  0  0  0  0  0  0  0  0
   10.2690   -0.3530   22.8150 C   0  0  0  0  0  0  0  0  0  0  0  0
   10.0100    0.9800   22.9490 C   0  0  0  0  0  0  0  0  0  0  0  0
   10.9130    1.9950   22.7830 N   0  0  0  0  0  0  0  0  0  0  0  0
   10.5130    3.2120   22.4450 C   0  0  0  0  0  0  0  0  0  0  0  0
   11.5590    4.0620   22.3340 C   0  0  0  0  0  0  0  0  0  0  0  0
   12.7250    3.5290   22.5780 N   0  0  0  0  0  0  0  0  0  0  0  0
   12.2870    2.1730   22.8720 C   0  0  0  0  0  0  0  0  0  0  0  0
   11.6260   -0.6040   22.3820 C   0  0  0  0  0  0  0  0  0  0  0  0
   12.3490   -1.2600   23.4950 C   0  0  0  0  0  0  0  0  0  0  0  0
   12.9060   -2.4610   23.2310 F   0  0  0  0  0  0  0  0  0  0  0  0
   13.2130   -0.5250   24.1940 F   0  0  0  0  0  0  0  0  0  0  0  0
   10.8480   -1.2550   23.9470 C   0  0  0  0  0  0  0  0  0  0  0  0
  1  2  2  0
  2  3  1  0
  3  4  1  0
  4  5  2  0
  5  6  1  0
  6  7  2  0
  7  8  1  0
  4  9  1  0
  8  9  2  0
  2 10  1  0
 11 10  1  0
 11 12  1  0
 12 13  1  0
 13 14  1  0
 14 15  2  0
 15 16  1  0
 13 17  1  0
 16 17  2  0
 11 18  1  0
 18 19  1  0
 19 20  1  0
 19 21  1  0
 11 22  1  0
 19 22  1  0
M  END
