pyridine_urea_15048
     RDKit          3D

 18 19  0  0  0  0  0  0  0  0999 V2000
    8.9680    0.6100   21.4260 O   0  0  0  0  0  0  0  0  0  0  0  0
    8.3330   -0.4140   21.6430 C   0  0  0  0  0  0  0  0  0  0  0  0
    8.7150   -1.3830   22.5650 N   0  0  0  0  0  0  0  0  0  0  0  0
   10.0750   -1.4710   23.0690 C   0  0  0  0  0  0  0  0  0  0  0  0
   11.0960   -1.2850   21.9710 C   0  0  0  0  0  0  0  0  0  0  0  0
   12.4300   -0.6940   22.4110 C   0  0  2  0  0  0  0  0  0  0  0  0
   12.7450   -1.1720   23.7860 C   0  0  0  0  0  0  0  0  0  0  0  0
   11.9610   -0.4430   24.8440 C   0  0  0  0  0  0  0  0  0  0  0  0
   11.0100    0.5810   24.1830 C   0  0  0  0  0  0  0  0  0  0  0  0
   11.8150    1.3700   23.3620 C   0  0  0  0  0  0  0  0  0  0  0  0
   12.3680    0.7130   22.3030 O   0  0  0  0  0  0  0  0  0  0  0  0
    7.1470   -0.7780   21.0380 N   0  0  0  0  0  0  0  0  0  0  0  0
    6.4360   -0.0510   20.0680 C   0  0  0  0  0  0  0  0  0  0  0  0
    5.2690    0.6620   20.2930 C   0  0  0  0  0  0  0  0  0  0  0  0
    4.6540    1.3570   19.2560 C   0  0  0  0  0  0  0  0  0  0  0  0
    5.2380    1.3160   17.9940 C   0  0  0  0  0  0  0  0  0  0  0  0
    6.3630    0.6280   17.7500 N   0  0  0  0  0  0  0  0  0  0  0  0
    6.9290   -0.0350   18.7760 C   0  0  0  0  0  0  0  0  0  0  0  0
  1  2  2  0
  2  3  1  0
  3  4  1  0
  4  5  1  0
  6  5  1  1
  6  7  1  0
  7  8  1  0
  8  9  1  0
  9 10  1  0
  6 11  1  0
 10 11  1  0
  2 12  1  0
 12 13  1  0
 13 14  2  0
 14 15  1  0
 15 16  2  0
 16 17  1  0
 13 18  1  0
 17 18  2  0
M  END
