pyridine_urea_6970
     RDKit          3D

 21 22  0  0  0  0  0  0  0  0999 V2000
   12.1090    3.8780   22.2730 C   0  0  0  0  0  0  0  0  0  0  0  0
   11.6260    2.6680   23.0640 C   0  0  0  0  0  0  0  0  0  0  0  0
   12.7260    1.8980   23.5360 O   0  0  0  0  0  0  0  0  0  0  0  0
   12.6330    0.5810   23.9070 C   0  0  0  0  0  0  0  0  0  0  0  0
   12.5130    0.1910   25.0600 O   0  0  0  0  0  0  0  0  0  0  0  0
   12.6910   -0.3830   22.9800 C   0  0  0  0  0  0  0  0  0  0  0  0
   10.9770    0.0710   23.5880 S   0  0  0  0  0  0  0  0  0  0  0  0
   10.0680   -0.9990   22.6520 C   0  0  0  0  0  0  0  0  0  0  0  0
    8.7190   -1.2450   22.5320 N   0  0  0  0  0  0  0  0  0  0  0  0
    8.1670   -0.2750   21.5720 C   0  0  0  0  0  0  0  0  0  0  0  0
    8.7280    0.7880   21.3400 O   0  0  0  0  0  0  0  0  0  0  0  0
    7.0060   -0.7110   21.0210 N   0  0  0  0  0  0  0  0  0  0  0  0
    6.3520   -0.0230   20.0440 C   0  0  0  0  0  0  0  0  0  0  0  0
    5.1720    0.6980   20.1800 C   0  0  0  0  0  0  0  0  0  0  0  0
    4.5670    1.3940   19.1370 C   0  0  0  0  0  0  0  0  0  0  0  0
    5.1830    1.3650   17.8960 C   0  0  0  0  0  0  0  0  0  0  0  0
    6.3250    0.6880   17.6680 N   0  0  0  0  0  0  0  0  0  0  0  0
    6.9010   -0.0160   18.7850 C   0  0  0  0  0  0  0  0  0  0  0  0
   10.8960   -1.6860   21.9190 C   0  0  0  0  0  0  0  0  0  0  0  0
   12.2350   -1.4020   22.0540 C   0  0  0  0  0  0  0  0  0  0  0  0
   13.0990   -2.1310   21.2740 C   0  0  0  0  0  0  0  0  0  0  0  0
  1  2  1  0
  2  3  1  0
  3  4  1  0
  4  5  2  0
  4  6  1  0
  6  7  1  0
  7  8  1  0
  8  9  1  0
  9 10  1  0
 10 11  2  0
 10 12  1  0
 12 13  1  0
 13 14  2  0
 14 15  1  0
 15 16  2  0
 16 17  1  0
 13 18  1  0
 17 18  2  0
  8 19  2  0
  6 20  2  0
 19 20  1  0
 20 21  1  0
M  END
