pyridine_urea_3161
     RDKit          3D

 21 23  0  0  0  0  0  0  0  0999 V2000
    8.9000    0.8450   21.4500 O   0  0  0  0  0  0  0  0  0  0  0  0
    8.3680   -0.2360   21.6640 C   0  0  0  0  0  0  0  0  0  0  0  0
    8.8430   -1.2230   22.5020 N   0  0  0  0  0  0  0  0  0  0  0  0
    9.5970   -1.0520   23.6920 C   0  0  0  0  0  0  0  0  0  0  0  0
   10.4540    0.0340   23.7250 C   0  0  0  0  0  0  0  0  0  0  0  0
    9.7410    1.0130   23.9070 O   0  0  0  0  0  0  0  0  0  0  0  0
   11.4020    0.0860   24.6770 C   0  0  0  0  0  0  0  0  0  0  0  0
   12.1000   -0.8510   24.1780 C   0  0  0  0  0  0  0  0  0  0  0  0
   12.9400   -1.8200   24.8900 C   0  0  0  0  0  0  0  0  0  0  0  0
   13.4740   -2.6740   24.0680 C   0  0  0  0  0  0  0  0  0  0  0  0
   13.1930   -2.5740   22.5780 C   0  0  0  0  0  0  0  0  0  0  0  0
   12.4190   -1.6890   21.7800 C   0  0  0  0  0  0  0  0  0  0  0  0
   11.9350   -0.8560   22.8190 C   0  0  0  0  0  0  0  0  0  0  0  0
   11.0900    0.2410   22.3760 C   0  0  0  0  0  0  0  0  0  0  0  0
    7.1840   -0.6160   21.0810 N   0  0  0  0  0  0  0  0  0  0  0  0
    6.4900    0.0170   20.0410 C   0  0  0  0  0  0  0  0  0  0  0  0
    5.3150    0.7260   20.3340 C   0  0  0  0  0  0  0  0  0  0  0  0
    4.6490    1.3640   19.2930 C   0  0  0  0  0  0  0  0  0  0  0  0
    5.1630    1.2780   18.0150 C   0  0  0  0  0  0  0  0  0  0  0  0
    6.2750    0.6000   17.7130 N   0  0  0  0  0  0  0  0  0  0  0  0
    6.9120   -0.0140   18.7300 C   0  0  0  0  0  0  0  0  0  0  0  0
  1  2  2  0
  2  3  1  0
  3  4  1  0
  4  5  1  0
  5  6  1  0
  5  7  1  0
  7  8  1  0
  8  9  1  0
  9 10  2  0
 10 11  1  0
 11 12  2  0
  8 13  2  0
 12 13  1  0
  5 14  1  0
 13 14  1  0
  2 15  1  0
 15 16  1  0
 16 17  2  0
 17 18  1  0
 18 19  2  0
 19 20  1  0
 16 21  1  0
 20 21  2  0
M  END
