pyridine_urea_781
     RDKit          3D

 23 25  0  0  0  0  0  0  0  0999 V2000
    9.2790    0.1370   21.5730 O   0  0  0  0  0  0  0  0  0  0  0  0
    8.0860    0.3280   21.4330 C   0  0  0  0  0  0  0  0  0  0  0  0
    7.4260    1.5810   21.8230 N   0  0  0  0  0  0  0  0  0  0  0  0
    6.2980    1.5300   22.6800 C   0  0  0  0  0  0  0  0  0  0  0  0
    6.5870    0.5620   23.5730 C   0  0  0  0  0  0  0  0  0  0  0  0
    5.9650   -0.1860   24.5310 N   0  0  0  0  0  0  0  0  0  0  0  0
    6.9690   -1.0950   25.1100 C   0  0  0  0  0  0  0  0  0  0  0  0
    8.1500   -0.7730   24.4000 C   0  0  0  0  0  0  0  0  0  0  0  0
    9.5140   -1.2760   24.4510 C   0  0  0  0  0  0  0  0  0  0  0  0
   10.4730   -0.2930   25.0670 C   0  0  0  0  0  0  0  0  0  0  0  0
   11.9010   -0.7820   25.1210 C   0  0  0  0  0  0  0  0  0  0  0  0
   12.1730   -2.0270   24.6300 C   0  0  0  0  0  0  0  0  0  0  0  0
   13.7400   -2.6210   24.6930 Cl  0  0  0  0  0  0  0  0  0  0  0  0
   11.2260   -2.8530   24.0780 C   0  0  0  0  0  0  0  0  0  0  0  0
    9.9060   -2.5060   23.9730 C   0  0  0  0  0  0  0  0  0  0  0  0
    7.8740    0.2020   23.5190 N   0  0  0  0  0  0  0  0  0  0  0  0
    7.1400   -0.4840   20.8850 N   0  0  0  0  0  0  0  0  0  0  0  0
    6.3550    0.1190   19.9270 C   0  0  0  0  0  0  0  0  0  0  0  0
    5.1160    0.7070   20.1300 C   0  0  0  0  0  0  0  0  0  0  0  0
    4.4820    1.3140   19.0580 C   0  0  0  0  0  0  0  0  0  0  0  0
    5.1370    1.2900   17.8420 C   0  0  0  0  0  0  0  0  0  0  0  0
    6.3150    0.7170   17.6150 N   0  0  0  0  0  0  0  0  0  0  0  0
    6.8910    0.1450   18.6650 C   0  0  0  0  0  0  0  0  0  0  0  0
  1  2  2  0
  2  3  1  0
  3  4  1  0
  4  5  1  0
  5  6  2  0
  6  7  1  0
  7  8  2  0
  8  9  1  0
  9 10  2  0
 10 11  1  0
 11 12  2  0
 12 13  1  0
 12 14  1  0
  9 15  1  0
 14 15  2  0
  5 16  1  0
  8 16  1  0
  2 17  1  0
 17 18  1  0
 18 19  2  0
 19 20  1  0
 20 21  2  0
 21 22  1  0
 18 23  1  0
 22 23  2  0
M  END
