pyridine_urea_7319
     RDKit          3D

 17 17  0  0  0  0  0  0  0  0999 V2000
   11.9130   -0.3820   24.8710 C   0  0  0  0  0  0  0  0  0  0  0  0
   12.7950    0.1050   23.7490 C   0  0  0  0  0  0  0  0  0  0  0  0
   12.2860   -0.1100   22.5070 C   0  0  0  0  0  0  0  0  0  0  0  0
   11.3740   -1.1430   22.3380 C   0  0  2  0  0  0  0  0  0  0  0  0
   10.2470   -1.1000   23.1280 C   0  0  0  0  0  0  0  0  0  0  0  0
    9.0510   -1.2540   22.3050 N   0  0  0  0  0  0  0  0  0  0  0  0
    8.4240   -0.3100   21.5480 C   0  0  0  0  0  0  0  0  0  0  0  0
    8.9350    0.7890   21.4010 O   0  0  0  0  0  0  0  0  0  0  0  0
    7.1470   -0.7770   21.0050 N   0  0  0  0  0  0  0  0  0  0  0  0
    6.4460   -0.0670   20.0600 C   0  0  0  0  0  0  0  0  0  0  0  0
    5.1640    0.7200   20.2940 C   0  0  0  0  0  0  0  0  0  0  0  0
    4.5910    1.3970   19.2110 C   0  0  0  0  0  0  0  0  0  0  0  0
    5.2180    1.3240   17.9670 C   0  0  0  0  0  0  0  0  0  0  0  0
    6.3510    0.6260   17.7370 N   0  0  0  0  0  0  0  0  0  0  0  0
    6.9240   -0.0420   18.7650 C   0  0  0  0  0  0  0  0  0  0  0  0
   11.9210   -2.2060   22.5380 O   0  0  0  0  0  0  0  0  0  0  0  0
   12.7100   -2.5880   21.4140 C   0  0  0  0  0  0  0  0  0  0  0  0
  1  2  1  0
  2  3  1  0
  4  3  1  1
  4  5  1  0
  5  6  1  0
  6  7  1  0
  7  8  2  0
  7  9  1  0
  9 10  1  0
 10 11  2  0
 11 12  1  0
 12 13  2  0
 13 14  1  0
 10 15  1  0
 14 15  2  0
  4 16  1  0
 16 17  1  0
M  END
