pyridine_urea_12552
     RDKit          3D

 21 23  0  0  0  0  0  0  0  0999 V2000
    8.7200    0.6790   21.2660 O   0  0  0  0  0  0  0  0  0  0  0  0
    8.0610   -0.2950   21.5980 C   0  0  0  0  0  0  0  0  0  0  0  0
    8.3470   -1.0700   22.6830 N   0  0  0  0  0  0  0  0  0  0  0  0
    9.6460   -0.9310   23.2600 C   0  0  0  0  0  0  0  0  0  0  0  0
   10.1760    0.5410   23.2960 C   0  0  1  0  0  0  0  0  0  0  0  0
   10.4570    1.2420   24.4250 C   0  0  0  0  0  0  0  0  0  0  0  0
   11.6260    0.4710   23.8750 C   0  0  0  0  0  0  0  0  0  0  0  0
   12.4890    0.9710   22.9660 C   0  0  0  0  0  0  0  0  0  0  0  0
   13.3950   -0.1100   22.4060 C   0  0  0  0  0  0  0  0  0  0  0  0
   13.0450   -1.7670   22.1510 S   0  0  0  0  0  0  0  0  0  0  0  0
   12.9860   -2.0010   20.7390 O   0  0  0  0  0  0  0  0  0  0  0  0
   13.8450   -2.5380   23.0670 O   0  0  0  0  0  0  0  0  0  0  0  0
   11.5510   -1.5960   22.8570 C   0  0  0  0  0  0  0  0  0  0  0  0
   11.8320   -0.8460   24.1490 C   0  0  0  0  0  0  0  0  0  0  0  0
    6.9440   -0.7570   20.9800 N   0  0  0  0  0  0  0  0  0  0  0  0
    6.3740   -0.0620   19.9610 C   0  0  0  0  0  0  0  0  0  0  0  0
    5.0850    0.7150   20.1980 C   0  0  0  0  0  0  0  0  0  0  0  0
    4.5050    1.4900   19.0300 C   0  0  0  0  0  0  0  0  0  0  0  0
    5.1580    1.4630   17.8130 C   0  0  0  0  0  0  0  0  0  0  0  0
    6.3090    0.7350   17.6750 N   0  0  0  0  0  0  0  0  0  0  0  0
    6.9030   -0.0030   18.6910 C   0  0  0  0  0  0  0  0  0  0  0  0
  1  2  2  0
  2  3  1  0
  3  4  1  0
  5  4  1  1
  5  6  1  0
  5  7  1  0
  7  6  1  0
  7  8  1  0
  8  9  1  0
 10  9  1  0
 10 11  2  0
 10 12  2  0
 10 13  1  0
  7 14  1  0
 13 14  1  0
  2 15  1  0
 15 16  1  0
 16 17  2  0
 17 18  1  0
 18 19  2  0
 19 20  1  0
 16 21  1  0
 20 21  2  0
M  END
