pyridine_urea_14490
     RDKit          3D

 21 23  0  0  0  0  0  0  0  0999 V2000
    8.7710    1.2780   21.1620 O   0  0  0  0  0  0  0  0  0  0  0  0
    8.4850    0.0900   21.3500 C   0  0  0  0  0  0  0  0  0  0  0  0
    9.4290   -0.8650   21.8810 N   0  0  0  0  0  0  0  0  0  0  0  0
   10.1550   -0.3820   22.9740 C   0  0  0  0  0  0  0  0  0  0  0  0
   11.4160   -0.9320   23.3040 C   0  0  1  0  0  0  0  0  0  0  0  0
   11.5050   -2.1980   22.7680 C   0  0  0  0  0  0  0  0  0  0  0  0
   12.4630   -2.0830   21.7760 C   0  0  0  0  0  0  0  0  0  0  0  0
   13.4840   -1.4700   22.0070 O   0  0  0  0  0  0  0  0  0  0  0  0
   13.5560   -0.1130   22.3430 C   0  0  0  0  0  0  0  0  0  0  0  0
   12.7420    0.9860   23.1250 C   0  0  0  0  0  0  0  0  0  0  0  0
   11.6080   -0.1960   23.4460 C   0  0  0  0  0  0  0  0  0  0  0  0
   10.9060    0.8090   24.1420 C   0  0  0  0  0  0  0  0  0  0  0  0
   11.9910    1.0020   23.5720 C   0  0  0  0  0  0  0  0  0  0  0  0
   12.4670   -0.1530   22.9480 C   0  0  0  0  0  0  0  0  0  0  0  0
    7.2580   -0.4680   21.0470 N   0  0  0  0  0  0  0  0  0  0  0  0
    6.4540    0.1370   20.0800 C   0  0  0  0  0  0  0  0  0  0  0  0
    5.2710    0.8150   20.3150 C   0  0  0  0  0  0  0  0  0  0  0  0
    4.6150    1.3840   19.2330 C   0  0  0  0  0  0  0  0  0  0  0  0
    5.1330    1.2740   17.9590 C   0  0  0  0  0  0  0  0  0  0  0  0
    6.2690    0.6120   17.7070 N   0  0  0  0  0  0  0  0  0  0  0  0
    6.8930    0.0640   18.7670 C   0  0  0  0  0  0  0  0  0  0  0  0
  1  2  2  0
  2  3  1  0
  3  4  1  0
  5  4  1  6
  5  6  1  0
  6  7  1  0
  7  8  1  0
  8  9  1  0
  9 10  2  0
 10 11  1  0
 11 12  2  0
 12 13  1  0
  5 14  1  0
  9 14  1  0
 13 14  2  0
  2 15  1  0
 15 16  1  0
 16 17  2  0
 17 18  1  0
 18 19  2  0
 19 20  1  0
 16 21  1  0
 20 21  2  0
M  END
