pyridine_urea_12821
     RDKit          3D

 20 21  0  0  0  0  0  0  0  0999 V2000
    8.6510    1.3470   21.0380 O   0  0  0  0  0  0  0  0  0  0  0  0
    8.5150    0.2010   21.4680 C   0  0  0  0  0  0  0  0  0  0  0  0
    7.4110   -0.5450   21.1230 N   0  0  0  0  0  0  0  0  0  0  0  0
    6.6930    0.0110   20.0030 C   0  0  0  0  0  0  0  0  0  0  0  0
    5.4410    0.8460   20.3440 C   0  0  0  0  0  0  0  0  0  0  0  0
    4.6970    1.4420   19.3290 C   0  0  0  0  0  0  0  0  0  0  0  0
    5.1280    1.2550   18.0230 C   0  0  0  0  0  0  0  0  0  0  0  0
    6.2390    0.4980   17.7600 N   0  0  0  0  0  0  0  0  0  0  0  0
    7.0320   -0.1320   18.7220 C   0  0  0  0  0  0  0  0  0  0  0  0
    9.3970   -0.4450   22.3000 N   0  0  0  0  0  0  0  0  0  0  0  0
   10.3300   -1.0160   23.1170 C   0  0  1  0  0  0  0  0  0  0  0  0
   11.3820   -1.6740   22.4490 C   0  0  0  0  0  0  0  0  0  0  0  0
   12.6340   -1.0620   22.4440 C   0  0  0  0  0  0  0  0  0  0  0  0
   13.4310   -1.5600   21.4070 O   0  0  0  0  0  0  0  0  0  0  0  0
   10.7170   -0.0750   24.0820 C   0  0  0  0  0  0  0  0  0  0  0  0
    9.7050    0.8570   24.3630 C   0  0  0  0  0  0  0  0  0  0  0  0
    9.8670    2.1890   23.6430 C   0  0  0  0  0  0  0  0  0  0  0  0
   11.0930    2.7740   23.2890 C   0  0  0  0  0  0  0  0  0  0  0  0
   12.1590    1.8250   23.1620 C   0  0  0  0  0  0  0  0  0  0  0  0
   11.8250    0.6670   23.7610 C   0  0  0  0  0  0  0  0  0  0  0  0
  1  2  2  0
  2  3  1  0
  3  4  1  0
  4  5  2  0
  5  6  1  0
  6  7  2  0
  7  8  1  0
  4  9  1  0
  8  9  2  0
  2 10  1  0
 10 11  1  0
 11 12  1  6
 12 13  1  0
 13 14  1  0
 11 15  1  0
 15 16  1  0
 16 17  1  0
 17 18  1  0
 18 19  1  0
 15 20  1  0
 19 20  1  0
M  END
