pyridine_urea_5115
     RDKit          3D

 20 21  0  0  0  0  0  0  0  0999 V2000
   13.0390   -1.6880   21.6990 N   0  0  0  0  0  0  0  0  0  0  0  0
   11.7830   -1.3480   22.1550 C   0  0  0  0  0  0  0  0  0  0  0  0
   11.6520   -0.7960   23.5640 C   0  0  0  0  0  0  0  0  0  0  0  0
   10.9180   -1.3550   24.5110 C   0  0  0  0  0  0  0  0  0  0  0  0
   11.6500   -0.2470   24.7270 C   0  0  0  0  0  0  0  0  0  0  0  0
   11.9730   -0.4140   23.2660 C   0  0  0  0  0  0  0  0  0  0  0  0
   11.3190   -1.5400   22.4370 C   0  0  0  0  0  0  0  0  0  0  0  0
    9.9210   -1.5040   22.6710 C   0  0  0  0  0  0  0  0  0  0  0  0
    9.2220   -1.2480   21.4350 N   0  0  0  0  0  0  0  0  0  0  0  0
    8.3490   -0.1980   21.2980 C   0  0  0  0  0  0  0  0  0  0  0  0
    8.7110    0.9730   21.3630 O   0  0  0  0  0  0  0  0  0  0  0  0
    7.0960   -0.6420   21.0670 N   0  0  0  0  0  0  0  0  0  0  0  0
    6.4090    0.0230   20.1040 C   0  0  0  0  0  0  0  0  0  0  0  0
    5.2340    0.7300   20.3080 C   0  0  0  0  0  0  0  0  0  0  0  0
    4.6270    1.3810   19.2280 C   0  0  0  0  0  0  0  0  0  0  0  0
    5.2270    1.3000   17.9720 C   0  0  0  0  0  0  0  0  0  0  0  0
    6.3590    0.6190   17.7530 N   0  0  0  0  0  0  0  0  0  0  0  0
    6.9170   -0.0010   18.8130 C   0  0  0  0  0  0  0  0  0  0  0  0
   12.8900    0.5630   22.7670 C   0  0  0  0  0  0  0  0  0  0  0  0
   12.3780    0.3890   23.9080 C   0  0  0  0  0  0  0  0  0  0  0  0
  1  2  3  0
  2  3  1  0
  3  4  2  0
  4  5  1  0
  5  6  2  0
  6  7  1  0
  7  8  1  0
  8  9  1  0
  9 10  1  0
 10 11  2  0
 10 12  1  0
 12 13  1  0
 13 14  2  0
 14 15  1  0
 15 16  2  0
 16 17  1  0
 13 18  1  0
 17 18  2  0
  6 19  1  0
  3 20  1  0
 19 20  2  0
M  END
