pyridine_urea_12726
     RDKit          3D

 20 22  0  0  0  0  0  0  0  0999 V2000
    9.0200    1.1270   21.2700 O   0  0  0  0  0  0  0  0  0  0  0  0
    8.4810    0.0560   21.5920 C   0  0  0  0  0  0  0  0  0  0  0  0
    8.9650   -0.7560   22.5960 N   0  0  0  0  0  0  0  0  0  0  0  0
    9.2570   -2.1550   22.3430 C   0  0  0  0  0  0  0  0  0  0  0  0
    9.1670   -3.0030   23.6330 C   0  0  0  0  0  0  0  0  0  0  0  0
   10.1940   -3.2180   24.5400 C   0  0  0  0  0  0  0  0  0  0  0  0
    9.6840   -4.0180   25.5000 C   0  0  0  0  0  0  0  0  0  0  0  0
    8.4050   -4.3060   25.2370 N   0  0  0  0  0  0  0  0  0  0  0  0
    8.0070   -3.6960   24.0730 N   0  0  0  0  0  0  0  0  0  0  0  0
    7.6590   -5.1170   26.0670 C   0  0  0  0  0  0  0  0  0  0  0  0
    8.5040   -5.7670   26.9580 C   0  0  0  0  0  0  0  0  0  0  0  0
    9.5120   -4.9280   27.4740 C   0  0  0  0  0  0  0  0  0  0  0  0
   10.3770   -4.3760   26.4350 O   0  0  0  0  0  0  0  0  0  0  0  0
    7.3360   -0.4740   21.0350 N   0  0  0  0  0  0  0  0  0  0  0  0
    6.5470    0.1340   20.0840 C   0  0  0  0  0  0  0  0  0  0  0  0
    5.3960    0.8590   20.4110 C   0  0  0  0  0  0  0  0  0  0  0  0
    4.6560    1.4610   19.3890 C   0  0  0  0  0  0  0  0  0  0  0  0
    5.1450    1.2930   17.9870 C   0  0  0  0  0  0  0  0  0  0  0  0
    6.2460    0.5880   17.6960 N   0  0  0  0  0  0  0  0  0  0  0  0
    6.9170    0.0260   18.7570 C   0  0  0  0  0  0  0  0  0  0  0  0
  1  2  2  0
  2  3  1  0
  3  4  1  0
  4  5  1  0
  5  6  1  0
  6  7  2  0
  7  8  1  0
  5  9  2  0
  8  9  1  0
  8 10  1  0
 10 11  1  0
 11 12  1  0
  7 13  1  0
 12 13  1  0
  2 14  1  0
 14 15  1  0
 15 16  2  0
 16 17  1  0
 17 18  2  0
 18 19  1  0
 15 20  1  0
 19 20  2  0
M  END
