pyridine_urea_11966
     RDKit          3D

 24 26  0  0  0  0  0  0  0  0999 V2000
    8.6780    0.8890   21.2790 O   0  0  0  0  0  0  0  0  0  0  0  0
    8.5460   -0.3030   21.5220 C   0  0  0  0  0  0  0  0  0  0  0  0
    9.3560   -1.0350   22.3390 N   0  0  0  0  0  0  0  0  0  0  0  0
   10.7040   -0.7300   22.5540 C   0  0  0  0  0  0  0  0  0  0  0  0
   10.9890    0.6260   22.9180 C   0  0  0  0  0  0  0  0  0  0  0  0
   12.3150    0.9830   23.1320 C   0  0  0  0  0  0  0  0  0  0  0  0
   13.0520   -0.1040   22.9390 C   0  0  0  0  0  0  0  0  0  0  0  0
   13.0870   -1.3710   22.6310 N   0  0  0  0  0  0  0  0  0  0  0  0
   11.7720   -1.6740   22.4250 C   0  0  0  0  0  0  0  0  0  0  0  0
    7.5250   -1.0270   20.9580 N   0  0  0  0  0  0  0  0  0  0  0  0
    6.6910   -0.2160   20.0730 C   0  0  0  0  0  0  0  0  0  0  0  0
    5.4910    0.4100   20.6980 C   0  0  0  0  0  0  0  0  0  0  0  0
    4.7100    1.2120   19.9010 C   0  0  0  0  0  0  0  0  0  0  0  0
    4.9950    1.4580   18.5560 C   0  0  0  0  0  0  0  0  0  0  0  0
    4.2100    2.2130   18.0500 O   0  0  0  0  0  0  0  0  0  0  0  0
    3.5910    3.0320   19.0020 C   0  0  0  0  0  0  0  0  0  0  0  0
    4.3440    3.5610   20.0510 C   0  0  0  0  0  0  0  0  0  0  0  0
    3.7310    4.3750   21.0100 C   0  0  0  0  0  0  0  0  0  0  0  0
    2.3700    4.6580   20.9190 C   0  0  0  0  0  0  0  0  0  0  0  0
    1.6200    4.1290   19.8680 C   0  0  0  0  0  0  0  0  0  0  0  0
    0.3120    4.4050   19.7850 F   0  0  0  0  0  0  0  0  0  0  0  0
    2.2240    3.3210   18.9110 C   0  0  0  0  0  0  0  0  0  0  0  0
    6.1720    0.8170   17.9180 N   0  0  0  0  0  0  0  0  0  0  0  0
    6.9630   -0.0000   18.7510 C   0  0  0  0  0  0  0  0  0  0  0  0
  1  2  2  0
  2  3  1  0
  3  4  1  0
  4  5  2  0
  5  6  1  0
  6  7  2  0
  7  8  1  0
  4  9  1  0
  8  9  2  0
  2 10  1  0
 10 11  1  0
 11 12  2  0
 12 13  1  0
 13 14  2  0
 14 15  1  0
 15 16  1  0
 16 17  2  0
 17 18  1  0
 18 19  2  0
 19 20  1  0
 20 21  1  0
 16 22  1  0
 20 22  2  0
 14 23  1  0
 11 24  1  0
 23 24  2  0
M  END
