pyridine_urea_4472
     RDKit          3D

 23 25  0  0  0  0  0  0  0  0999 V2000
    8.5520    0.9590   21.1220 O   0  0  0  0  0  0  0  0  0  0  0  0
    8.2640   -0.1770   21.4800 C   0  0  0  0  0  0  0  0  0  0  0  0
    7.1120   -0.8020   21.0660 N   0  0  0  0  0  0  0  0  0  0  0  0
    6.4360   -0.0830   20.0210 C   0  0  0  0  0  0  0  0  0  0  0  0
    5.1500    0.6610   20.3730 C   0  0  0  0  0  0  0  0  0  0  0  0
    4.4610    1.4360   19.2490 C   0  0  0  0  0  0  0  0  0  0  0  0
    5.1520    1.3740   17.8900 C   0  0  0  0  0  0  0  0  0  0  0  0
    6.3300    0.6370   17.7350 N   0  0  0  0  0  0  0  0  0  0  0  0
    6.9330   -0.0530   18.7460 C   0  0  0  0  0  0  0  0  0  0  0  0
    9.0550   -0.9240   22.3230 N   0  0  0  0  0  0  0  0  0  0  0  0
   10.3830   -0.4690   22.4100 C   0  0  2  0  0  0  0  0  0  0  0  0
   11.4130   -1.4130   22.2920 C   0  0  0  0  0  0  0  0  0  0  0  0
   12.7440   -0.9760   22.4510 C   0  0  0  0  0  0  0  0  0  0  0  0
   12.9200    0.0970   23.3110 C   0  0  0  0  0  0  0  0  0  0  0  0
   11.8200    0.5630   24.0010 C   0  0  0  0  0  0  0  0  0  0  0  0
   10.6030    0.5280   23.3770 C   0  0  2  0  0  0  0  0  0  0  0  0
    9.5970   -0.4670   23.8740 C   0  0  0  0  0  0  0  0  0  0  0  0
    9.0090   -0.0540   25.0760 C   0  0  0  0  0  0  0  0  0  0  0  0
    9.4660   -0.4540   26.4280 C   0  0  0  0  0  0  0  0  0  0  0  0
    8.8310    0.0060   27.5800 C   0  0  0  0  0  0  0  0  0  0  0  0
    7.7470    0.8570   27.4690 C   0  0  0  0  0  0  0  0  0  0  0  0
    7.2790    1.2620   26.2140 C   0  0  0  0  0  0  0  0  0  0  0  0
    7.8990    0.8130   25.0480 C   0  0  0  0  0  0  0  0  0  0  0  0
  1  2  2  0
  2  3  1  0
  3  4  1  0
  4  5  2  0
  5  6  1  0
  6  7  2  0
  7  8  1  0
  4  9  1  0
  8  9  2  0
  2 10  1  0
 11 10  1  1
 11 12  1  0
 12 13  1  0
 13 14  1  0
 14 15  1  0
 11 16  1  0
 15 16  1  0
 16 17  1  1
 17 18  1  0
 18 19  2  0
 19 20  1  0
 20 21  2  0
 21 22  1  0
 18 23  1  0
 22 23  2  0
M  END
