pyridine_urea_14160
     RDKit          3D

 22 24  0  0  0  0  0  0  0  0999 V2000
   13.5830   -3.9190   26.2470 C   0  0  0  0  0  0  0  0  0  0  0  0
   12.8790   -3.0980   25.2550 C   0  0  2  0  0  0  0  0  0  0  0  0
   13.5560   -1.9220   25.2510 C   0  0  0  0  0  0  0  0  0  0  0  0
   12.8890   -0.7310   25.1980 C   0  0  0  0  0  0  0  0  0  0  0  0
   11.7840   -0.7560   24.5350 C   0  0  2  0  0  0  0  0  0  0  0  0
   10.7680   -1.7890   24.8520 C   0  0  0  0  0  0  0  0  0  0  0  0
   11.4650   -3.0830   25.1930 C   0  0  0  0  0  0  0  0  0  0  0  0
   12.4710   -1.3340   23.2890 C   0  0  0  0  0  0  0  0  0  0  0  0
   11.9640   -0.6420   22.3190 C   0  0  0  0  0  0  0  0  0  0  0  0
   10.8380   -0.3010   22.9500 C   0  0  2  0  0  0  0  0  0  0  0  0
    9.9070    0.5360   22.5670 C   0  0  0  0  0  0  0  0  0  0  0  0
    8.7300   -0.1230   22.2930 N   0  0  0  0  0  0  0  0  0  0  0  0
    8.0010    0.3440   21.3070 C   0  0  0  0  0  0  0  0  0  0  0  0
    8.2790    1.3890   20.7270 O   0  0  0  0  0  0  0  0  0  0  0  0
    6.9270   -0.4070   20.9800 N   0  0  0  0  0  0  0  0  0  0  0  0
    6.2850    0.1630   19.9230 C   0  0  0  0  0  0  0  0  0  0  0  0
    5.0860    0.8310   20.1130 C   0  0  0  0  0  0  0  0  0  0  0  0
    4.4910    1.4390   19.0280 C   0  0  0  0  0  0  0  0  0  0  0  0
    5.1190    1.3480   17.8020 C   0  0  0  0  0  0  0  0  0  0  0  0
    6.2610    0.6980   17.5860 N   0  0  0  0  0  0  0  0  0  0  0  0
    6.8180    0.1180   18.6560 C   0  0  0  0  0  0  0  0  0  0  0  0
   11.3330    0.2480   24.1170 O   0  0  0  0  0  0  0  0  0  0  0  0
  2  1  1  1
  2  3  1  0
  3  4  1  0
  5  4  1  1
  5  6  1  0
  2  7  1  0
  6  7  1  0
  5  8  1  0
  8  9  1  0
  9 10  1  0
 10 11  1  6
 11 12  1  0
 12 13  1  0
 13 14  2  0
 13 15  1  0
 15 16  1  0
 16 17  2  0
 17 18  1  0
 18 19  2  0
 19 20  1  0
 16 21  1  0
 20 21  2  0
  5 22  1  0
 10 22  1  0
M  END
