pyridine_urea_659
     RDKit          3D

 24 25  0  0  0  0  0  0  0  0999 V2000
    8.6570    3.3850   22.2540 C   0  0  0  0  0  0  0  0  0  0  0  0
    9.6600    3.2950   23.3910 C   0  0  0  0  0  0  0  0  0  0  0  0
    9.5920    4.2310   24.4160 C   0  0  0  0  0  0  0  0  0  0  0  0
   11.1060    3.3310   22.8530 C   0  0  0  0  0  0  0  0  0  0  0  0
   11.7630    2.1260   22.8930 C   0  0  0  0  0  0  0  0  0  0  0  0
   11.1280    1.0640   23.0470 O   0  0  0  0  0  0  0  0  0  0  0  0
   11.7900   -0.0890   22.6880 C   0  0  0  0  0  0  0  0  0  0  0  0
   12.9490    0.5200   22.9920 C   0  0  0  0  0  0  0  0  0  0  0  0
   12.7010   -0.8300   22.4810 C   0  0  0  0  0  0  0  0  0  0  0  0
   11.2720   -1.4840   22.1620 C   0  0  0  0  0  0  0  0  0  0  0  0
   10.3430   -0.5310   22.4970 C   0  0  2  0  0  0  0  0  0  0  0  0
   10.3480   -0.3220   23.8080 C   0  0  0  0  0  0  0  0  0  0  0  0
    8.9610   -0.9720   22.3250 N   0  0  0  0  0  0  0  0  0  0  0  0
    8.1400   -0.7990   21.2470 C   0  0  0  0  0  0  0  0  0  0  0  0
    8.4580   -1.1520   20.1920 O   0  0  0  0  0  0  0  0  0  0  0  0
    6.9360   -0.1990   21.4310 N   0  0  0  0  0  0  0  0  0  0  0  0
    6.3120    0.3480   20.2270 C   0  0  0  0  0  0  0  0  0  0  0  0
    5.1440    1.0780   20.2960 C   0  0  0  0  0  0  0  0  0  0  0  0
    4.5530    1.6120   19.1600 C   0  0  0  0  0  0  0  0  0  0  0  0
    5.1460    1.4120   17.9240 C   0  0  0  0  0  0  0  0  0  0  0  0
    6.2790    0.7020   17.7930 N   0  0  0  0  0  0  0  0  0  0  0  0
    6.8140    0.2000   18.9310 C   0  0  0  0  0  0  0  0  0  0  0  0
   12.5820   -1.8970   22.0690 C   0  0  0  0  0  0  0  0  0  0  0  0
   13.2520   -0.8490   22.5110 C   0  0  0  0  0  0  0  0  0  0  0  0
  1  2  1  0
  2  3  1  0
  2  4  1  0
  4  5  1  0
  5  6  1  0
  6  7  1  0
  7  8  2  0
  8  9  1  0
  9 10  2  0
 10 11  1  0
 11 12  1  1
 11 13  1  0
 13 14  1  0
 14 15  2  0
 14 16  1  0
 16 17  1  0
 17 18  2  0
 18 19  1  0
 19 20  2  0
 20 21  1  0
 17 22  1  0
 21 22  2  0
 10 23  1  0
  7 24  1  0
 23 24  2  0
M  END
