pyridine_urea_7073
     RDKit          3D

 20 22  0  0  0  0  0  0  0  0999 V2000
    8.7700    1.2780   21.0660 O   0  0  0  0  0  0  0  0  0  0  0  0
    8.4410    0.1600   21.4700 C   0  0  0  0  0  0  0  0  0  0  0  0
    7.3230   -0.5140   21.0180 N   0  0  0  0  0  0  0  0  0  0  0  0
    6.5010    0.0950   20.0620 C   0  0  0  0  0  0  0  0  0  0  0  0
    5.3120    0.7710   20.3150 C   0  0  0  0  0  0  0  0  0  0  0  0
    4.6110    1.3540   19.2620 C   0  0  0  0  0  0  0  0  0  0  0  0
    5.1320    1.2370   17.9890 C   0  0  0  0  0  0  0  0  0  0  0  0
    6.2660    0.5840   17.7140 N   0  0  0  0  0  0  0  0  0  0  0  0
    6.9150    0.0320   18.7470 C   0  0  0  0  0  0  0  0  0  0  0  0
    9.1740   -0.5400   22.4040 N   0  0  0  0  0  0  0  0  0  0  0  0
   10.5050   -0.1850   22.6850 C   0  0  0  0  0  0  0  0  0  0  0  0
   10.8960    1.1640   22.7580 C   0  0  0  0  0  0  0  0  0  0  0  0
    9.8850    2.1440   22.8250 C   0  0  0  0  0  0  0  0  0  0  0  0
   10.1940    3.5000   22.8860 C   0  0  0  0  0  0  0  0  0  0  0  0
   11.5110    3.9280   22.8810 C   0  0  0  0  0  0  0  0  0  0  0  0
   11.9090    5.7700   22.9530 Br  0  0  0  0  0  0  0  0  0  0  0  0
   12.5930    2.9160   22.8170 C   0  0  0  0  0  0  0  0  0  0  0  0
   12.2480    1.5580   22.7600 C   0  0  0  0  0  0  0  0  0  0  0  0
   11.7120   -1.0590   22.5310 C   0  0  0  0  0  0  0  0  0  0  0  0
   11.2330   -1.1530   23.6760 C   0  0  0  0  0  0  0  0  0  0  0  0
  1  2  2  0
  2  3  1  0
  3  4  1  0
  4  5  2  0
  5  6  1  0
  6  7  2  0
  7  8  1  0
  4  9  1  0
  8  9  2  0
  2 10  1  0
 11 10  1  0
 11 12  1  0
 12 13  2  0
 13 14  1  0
 14 15  2  0
 15 16  1  0
 15 17  1  0
 12 18  1  0
 17 18  2  0
 11 19  1  0
 11 20  1  0
 19 20  1  0
M  END
