pyridine_urea_10979
     RDKit          3D

 19 21  0  0  0  0  0  0  0  0999 V2000
    8.7860    1.1000   21.1470 O   0  0  0  0  0  0  0  0  0  0  0  0
    8.2000    0.0970   21.5990 C   0  0  0  0  0  0  0  0  0  0  0  0
    7.1140   -0.5930   20.9380 N   0  0  0  0  0  0  0  0  0  0  0  0
    6.4380    0.0830   19.9560 C   0  0  0  0  0  0  0  0  0  0  0  0
    5.2700    0.7930   20.2380 C   0  0  0  0  0  0  0  0  0  0  0  0
    4.6390    1.4650   19.1940 C   0  0  0  0  0  0  0  0  0  0  0  0
    5.1970    1.3990   17.9160 C   0  0  0  0  0  0  0  0  0  0  0  0
    6.3130    0.7110   17.6450 N   0  0  0  0  0  0  0  0  0  0  0  0
    6.9090    0.0660   18.6700 C   0  0  0  0  0  0  0  0  0  0  0  0
    8.4400   -0.5390   22.7790 N   0  0  0  0  0  0  0  0  0  0  0  0
    9.7620   -1.0060   23.0710 C   0  0  0  0  0  0  0  0  0  0  0  0
   10.7160   -1.1170   21.8770 C   0  0  0  0  0  0  0  0  0  0  0  0
   12.0270   -1.5530   22.0230 C   0  0  0  0  0  0  0  0  0  0  0  0
   12.4200   -1.8840   23.2820 C   0  0  0  0  0  0  0  0  0  0  0  0
   13.5860   -2.3560   23.7450 C   0  0  0  0  0  0  0  0  0  0  0  0
   13.4080   -2.5040   25.0760 C   0  0  0  0  0  0  0  0  0  0  0  0
   12.3070   -2.1990   25.4910 O   0  0  0  0  0  0  0  0  0  0  0  0
   11.5770   -1.7790   24.3430 C   0  0  0  0  0  0  0  0  0  0  0  0
   10.2830   -1.3590   24.2830 C   0  0  0  0  0  0  0  0  0  0  0  0
  1  2  2  0
  2  3  1  0
  3  4  1  0
  4  5  2  0
  5  6  1  0
  6  7  2  0
  7  8  1  0
  4  9  1  0
  8  9  2  0
  2 10  1  0
 10 11  1  0
 11 12  2  0
 12 13  1  0
 13 14  2  0
 14 15  1  0
 15 16  2  0
 16 17  1  0
 14 18  1  0
 17 18  1  0
 11 19  1  0
 18 19  2  0
M  END
