pyridine_urea_13127
     RDKit          3D

 21 22  0  0  0  0  0  0  0  0999 V2000
    8.1810   -0.8540   25.1200 N   0  0  0  0  0  0  0  0  0  0  0  0
    9.0130   -1.5920   24.3340 C   0  0  0  0  0  0  0  0  0  0  0  0
    8.6180   -2.9090   23.9510 O   0  0  0  0  0  0  0  0  0  0  0  0
   10.3240   -0.9600   23.9170 C   0  0  0  0  0  0  0  0  0  0  0  0
   10.7450    0.1100   24.5440 C   0  0  0  0  0  0  0  0  0  0  0  0
   11.9170    0.6800   24.1440 C   0  0  0  0  0  0  0  0  0  0  0  0
   12.6920    0.2020   23.1420 C   0  0  0  0  0  0  0  0  0  0  0  0
   12.4600   -1.0190   22.2440 C   0  0  0  0  0  0  0  0  0  0  0  0
   11.7610   -2.0950   21.8110 C   0  0  0  0  0  0  0  0  0  0  0  0
   10.2490   -1.9880   22.2180 C   0  0  0  0  0  0  0  0  0  0  0  0
    9.4740   -1.3580   21.2670 N   0  0  0  0  0  0  0  0  0  0  0  0
    8.5860   -0.2710   21.3600 C   0  0  0  0  0  0  0  0  0  0  0  0
    8.9920    0.8450   21.6420 O   0  0  0  0  0  0  0  0  0  0  0  0
    7.2790   -0.5580   21.0630 N   0  0  0  0  0  0  0  0  0  0  0  0
    6.4870    0.0880   20.1020 C   0  0  0  0  0  0  0  0  0  0  0  0
    5.3090    0.8020   20.3460 C   0  0  0  0  0  0  0  0  0  0  0  0
    4.6370    1.4090   19.2760 C   0  0  0  0  0  0  0  0  0  0  0  0
    5.1560    1.2870   17.9960 C   0  0  0  0  0  0  0  0  0  0  0  0
    6.2730    0.6060   17.7210 N   0  0  0  0  0  0  0  0  0  0  0  0
    6.9190    0.0150   18.7860 C   0  0  0  0  0  0  0  0  0  0  0  0
   11.0980   -1.4630   22.8880 C   0  0  0  0  0  0  0  0  0  0  0  0
  1  2  1  0
  2  3  2  0
  2  4  1  0
  4  5  2  0
  5  6  1  0
  6  7  2  0
  7  8  1  0
  8  9  1  0
  9 10  1  0
 10 11  1  0
 11 12  1  0
 12 13  2  0
 12 14  1  0
 14 15  1  0
 15 16  2  0
 16 17  1  0
 17 18  2  0
 18 19  1  0
 15 20  1  0
 19 20  2  0
  4 21  1  0
  8 21  2  0
M  END
