pyridine_urea_13489
     RDKit          3D

 19 21  0  0  0  0  0  0  0  0999 V2000
    8.9750    1.2960   21.1890 O   0  0  0  0  0  0  0  0  0  0  0  0
    8.3380    0.3350   21.6370 C   0  0  0  0  0  0  0  0  0  0  0  0
    7.3790   -0.3990   20.9850 N   0  0  0  0  0  0  0  0  0  0  0  0
    6.5380    0.1900   20.0530 C   0  0  0  0  0  0  0  0  0  0  0  0
    5.2230    0.9000   20.4010 C   0  0  0  0  0  0  0  0  0  0  0  0
    4.5050    1.4930   19.1940 C   0  0  0  0  0  0  0  0  0  0  0  0
    5.1510    1.3170   17.8620 C   0  0  0  0  0  0  0  0  0  0  0  0
    6.3000    0.6630   17.6750 N   0  0  0  0  0  0  0  0  0  0  0  0
    6.9370    0.1360   18.7320 C   0  0  0  0  0  0  0  0  0  0  0  0
    8.5000   -0.1190   22.9190 N   0  0  0  0  0  0  0  0  0  0  0  0
    9.6730   -0.8160   23.3140 C   0  0  1  0  0  0  0  0  0  0  0  0
   10.1860   -1.5530   22.2670 C   0  0  0  0  0  0  0  0  0  0  0  0
   11.4290   -1.1000   22.0170 C   0  0  0  0  0  0  0  0  0  0  0  0
   12.2470   -1.4340   22.9720 C   0  0  0  0  0  0  0  0  0  0  0  0
   13.2450   -2.3190   23.1110 N   0  0  0  0  0  0  0  0  0  0  0  0
   13.7400   -2.2080   24.4640 C   0  0  0  0  0  0  0  0  0  0  0  0
   13.0140   -1.0300   25.4670 S   0  0  0  0  0  0  0  0  0  0  0  0
   11.9670   -0.6310   24.1930 C   0  0  0  0  0  0  0  0  0  0  0  0
   10.8030    0.1670   23.6180 C   0  0  0  0  0  0  0  0  0  0  0  0
  1  2  2  0
  2  3  1  0
  3  4  1  0
  4  5  2  0
  5  6  1  0
  6  7  2  0
  7  8  1  0
  4  9  1  0
  8  9  2  0
  2 10  1  0
 11 10  1  6
 11 12  1  0
 12 13  1  0
 13 14  1  0
 14 15  1  0
 15 16  2  0
 16 17  1  0
 14 18  2  0
 17 18  1  0
 11 19  1  0
 18 19  1  0
M  END
