pyridine_urea_13498
     RDKit          3D

 25 27  0  0  0  0  0  0  0  0999 V2000
    8.7650    1.1310   21.1020 O   0  0  0  0  0  0  0  0  0  0  0  0
    8.3650   -0.0010   21.4190 C   0  0  0  0  0  0  0  0  0  0  0  0
    7.2400   -0.6160   20.9390 N   0  0  0  0  0  0  0  0  0  0  0  0
    6.4290    0.0500   20.0310 C   0  0  0  0  0  0  0  0  0  0  0  0
    5.1100    0.7540   20.3720 C   0  0  0  0  0  0  0  0  0  0  0  0
    4.4480    1.4330   19.1770 C   0  0  0  0  0  0  0  0  0  0  0  0
    5.1460    1.3320   17.8560 C   0  0  0  0  0  0  0  0  0  0  0  0
    6.2990    0.6750   17.6800 N   0  0  0  0  0  0  0  0  0  0  0  0
    6.8860    0.0750   18.7270 C   0  0  0  0  0  0  0  0  0  0  0  0
    9.0530   -0.7790   22.3100 N   0  0  0  0  0  0  0  0  0  0  0  0
   10.3260   -0.2630   22.7110 C   0  0  2  0  0  0  0  0  0  0  0  0
   11.3660   -1.1710   22.4890 C   0  0  0  0  0  0  0  0  0  0  0  0
   11.0710   -1.9850   21.4660 C   0  0  0  0  0  0  0  0  0  0  0  0
   11.8750   -2.9280   21.0050 C   0  0  0  0  0  0  0  0  0  0  0  0
   13.0350   -3.0610   21.6380 C   0  0  0  0  0  0  0  0  0  0  0  0
   13.4070   -2.2550   22.7390 C   0  0  0  0  0  0  0  0  0  0  0  0
   12.5220   -1.1030   23.3260 C   0  0  0  0  0  0  0  0  0  0  0  0
   10.4790    0.2560   23.9580 C   0  0  0  0  0  0  0  0  0  0  0  0
    9.3680    0.9560   24.4470 C   0  0  0  0  0  0  0  0  0  0  0  0
    9.3090    2.3130   23.9440 O   0  0  0  0  0  0  0  0  0  0  0  0
   11.5330    1.3320   23.6880 C   0  0  0  0  0  0  0  0  0  0  0  0
   12.6670    0.7460   23.1590 C   0  0  0  0  0  0  0  0  0  0  0  0
   13.2780   -0.1290   24.0210 O   0  0  0  0  0  0  0  0  0  0  0  0
   12.5260   -0.7720   25.0420 C   0  0  0  0  0  0  0  0  0  0  0  0
   11.0180   -0.6180   24.9190 C   0  0  0  0  0  0  0  0  0  0  0  0
  1  2  2  0
  2  3  1  0
  3  4  1  0
  4  5  2  0
  5  6  1  0
  6  7  2  0
  7  8  1  0
  4  9  1  0
  8  9  2  0
  2 10  1  0
 11 10  1  1
 11 12  1  0
 12 13  2  0
 13 14  1  0
 14 15  2  0
 15 16  1  0
 12 17  1  0
 16 17  2  0
 11 18  1  0
 18 19  1  0
 19 20  1  0
 18 21  1  0
 21 22  1  0
 22 23  1  0
 23 24  1  0
 18 25  1  0
 24 25  1  0
M  END
