pyridine_urea_15194
     RDKit          3D

 17 19  0  0  0  0  0  0  0  0999 V2000
    8.8460    1.1080   21.2180 O   0  0  0  0  0  0  0  0  0  0  0  0
    8.3730    0.0330   21.6370 C   0  0  0  0  0  0  0  0  0  0  0  0
    7.3130   -0.6430   21.0580 N   0  0  0  0  0  0  0  0  0  0  0  0
    6.5810    0.0340   20.0210 C   0  0  0  0  0  0  0  0  0  0  0  0
    5.3170    0.7890   20.4150 C   0  0  0  0  0  0  0  0  0  0  0  0
    4.5560    1.5160   19.3080 C   0  0  0  0  0  0  0  0  0  0  0  0
    5.1650    1.4030   17.9100 C   0  0  0  0  0  0  0  0  0  0  0  0
    6.3320    0.6600   17.7180 N   0  0  0  0  0  0  0  0  0  0  0  0
    6.9980    0.0120   18.7150 C   0  0  0  0  0  0  0  0  0  0  0  0
    8.8340   -0.6450   22.7580 N   0  0  0  0  0  0  0  0  0  0  0  0
   10.2210   -0.7580   22.9820 C   0  0  2  0  0  0  0  0  0  0  0  0
   11.0700    0.1830   22.7450 C   0  0  1  0  0  0  0  0  0  0  0  0
   12.2000    0.3110   23.4980 C   0  0  0  0  0  0  0  0  0  0  0  0
   13.3280   -0.0450   22.8780 C   0  0  0  0  0  0  0  0  0  0  0  0
   13.1610   -0.8750   21.8410 O   0  0  0  0  0  0  0  0  0  0  0  0
   12.1490   -1.8420   22.0430 C   0  0  0  0  0  0  0  0  0  0  0  0
   10.9320   -1.1570   21.9720 C   0  0  1  0  0  0  0  0  0  0  0  0
  1  2  2  0
  2  3  1  0
  3  4  1  0
  4  5  2  0
  5  6  1  0
  6  7  2  0
  7  8  1  0
  4  9  1  0
  8  9  2  0
  2 10  1  0
 11 10  1  6
 11 12  1  0
 12 13  1  1
 13 14  1  0
 14 15  1  0
 15 16  1  0
 11 17  1  0
 12 17  1  0
 17 16  1  1
M  END
