pyridine_urea_5146
     RDKit          3D

 20 21  0  0  0  0  0  0  0  0999 V2000
    8.8910    0.9440   21.3230 O   0  0  0  0  0  0  0  0  0  0  0  0
    8.4920   -0.2060   21.4490 C   0  0  0  0  0  0  0  0  0  0  0  0
    9.2280   -1.2490   21.9550 N   0  0  0  0  0  0  0  0  0  0  0  0
   10.5930   -1.2170   22.3440 C   0  0  0  0  0  0  0  0  0  0  0  0
   10.9840   -0.2100   23.2680 C   0  0  0  0  0  0  0  0  0  0  0  0
   12.1820    0.4910   23.0260 C   0  0  0  0  0  0  0  0  0  0  0  0
   13.2610   -0.2730   23.2030 C   0  0  0  0  0  0  0  0  0  0  0  0
   11.9130   -0.9110   23.4950 C   0  0  0  0  0  0  0  0  0  0  0  0
   10.7140   -0.1480   23.3380 C   0  0  0  0  0  0  0  0  0  0  0  0
    9.5280   -0.7970   23.6200 F   0  0  0  0  0  0  0  0  0  0  0  0
   10.8160    1.3460   22.8680 C   0  0  0  0  0  0  0  0  0  0  0  0
   12.1100    1.8290   22.6540 C   0  0  0  0  0  0  0  0  0  0  0  0
   11.4170    2.9710   22.3670 F   0  0  0  0  0  0  0  0  0  0  0  0
    7.2320   -0.6190   21.0700 N   0  0  0  0  0  0  0  0  0  0  0  0
    6.5190    0.0150   20.0360 C   0  0  0  0  0  0  0  0  0  0  0  0
    5.3500    0.7250   20.3330 C   0  0  0  0  0  0  0  0  0  0  0  0
    4.6550    1.3720   19.3030 C   0  0  0  0  0  0  0  0  0  0  0  0
    5.1440    1.2910   18.0080 C   0  0  0  0  0  0  0  0  0  0  0  0
    6.2570    0.6090   17.7040 N   0  0  0  0  0  0  0  0  0  0  0  0
    6.9130   -0.0080   18.7120 C   0  0  0  0  0  0  0  0  0  0  0  0
  1  2  2  0
  2  3  1  0
  3  4  1  0
  4  5  1  0
  5  6  1  0
  6  7  2  0
  7  8  1  0
  8  9  2  0
  9 10  1  0
  9 11  1  0
  6 12  1  0
 11 12  2  0
 12 13  1  0
  2 14  1  0
 14 15  1  0
 15 16  2  0
 16 17  1  0
 17 18  2  0
 18 19  1  0
 15 20  1  0
 19 20  2  0
M  END
