pyridine_urea_11000
     RDKit          3D

 19 20  0  0  0  0  0  0  0  0999 V2000
   12.9280   -0.8190   25.2650 C   0  0  0  0  0  0  0  0  0  0  0  0
   12.0120   -0.9630   24.2120 C   0  0  0  0  0  0  0  0  0  0  0  0
   12.4590   -1.4000   22.9890 C   0  0  0  0  0  0  0  0  0  0  0  0
   11.5940   -1.5590   21.9660 C   0  0  0  0  0  0  0  0  0  0  0  0
   11.9410   -1.9590   20.8710 O   0  0  0  0  0  0  0  0  0  0  0  0
   10.2310   -1.2670   22.1160 C   0  0  0  0  0  0  0  0  0  0  0  0
    9.1680   -1.3430   21.2230 N   0  0  0  0  0  0  0  0  0  0  0  0
    8.3570   -0.2510   21.2240 C   0  0  0  0  0  0  0  0  0  0  0  0
    8.7410    0.8990   21.3730 O   0  0  0  0  0  0  0  0  0  0  0  0
    7.0420   -0.5500   21.0090 N   0  0  0  0  0  0  0  0  0  0  0  0
    6.3340    0.1060   20.0180 C   0  0  0  0  0  0  0  0  0  0  0  0
    5.0360    0.8620   20.1590 C   0  0  0  0  0  0  0  0  0  0  0  0
    4.4680    1.4830   19.0760 C   0  0  0  0  0  0  0  0  0  0  0  0
    5.1420    1.3820   17.8590 C   0  0  0  0  0  0  0  0  0  0  0  0
    6.3020    0.7060   17.6900 N   0  0  0  0  0  0  0  0  0  0  0  0
    6.8620    0.0940   18.7480 C   0  0  0  0  0  0  0  0  0  0  0  0
    9.7070   -0.7800   23.4280 C   0  0  0  0  0  0  0  0  0  0  0  0
   10.5290   -0.6280   24.4570 C   0  0  0  0  0  0  0  0  0  0  0  0
    9.7980   -0.0960   25.9140 Cl  0  0  0  0  0  0  0  0  0  0  0  0
  1  2  1  0
  2  3  2  0
  3  4  1  0
  4  5  1  0
  4  6  2  0
  6  7  1  0
  7  8  1  0
  8  9  2  0
  8 10  1  0
 10 11  1  0
 11 12  2  0
 12 13  1  0
 13 14  2  0
 14 15  1  0
 11 16  1  0
 15 16  2  0
  6 17  1  0
  2 18  1  0
 17 18  2  0
 18 19  1  0
M  END
