pyridine_urea_2900
     RDKit          3D

 22 23  0  0  0  0  0  0  0  0999 V2000
   11.6770   -1.5120   24.5100 C   0  0  0  0  0  0  0  0  0  0  0  0
   10.9020   -0.4340   23.9170 O   0  0  0  0  0  0  0  0  0  0  0  0
   11.7540    0.6250   23.4320 C   0  0  0  0  0  0  0  0  0  0  0  0
   11.2150    2.0240   23.4250 C   0  0  0  0  0  0  0  0  0  0  0  0
   12.4710    1.7370   23.0190 C   0  0  0  0  0  0  0  0  0  0  0  0
   11.9080    0.2260   23.3960 C   0  0  0  0  0  0  0  0  0  0  0  0
   10.5390    0.0220   23.8390 C   0  0  0  0  0  0  0  0  0  0  0  0
   10.2130   -0.2820   25.3140 C   0  0  0  0  0  0  0  0  0  0  0  0
    9.5050    1.1670   23.5690 C   0  0  0  0  0  0  0  0  0  0  0  0
    9.9310   -1.2170   23.0470 C   0  0  0  0  0  0  0  0  0  0  0  0
    9.3690   -0.9940   21.7110 N   0  0  0  0  0  0  0  0  0  0  0  0
    8.5370    0.0420   21.3520 C   0  0  0  0  0  0  0  0  0  0  0  0
    8.9090    1.3570   21.1950 O   0  0  0  0  0  0  0  0  0  0  0  0
    7.2310   -0.4030   21.1030 N   0  0  0  0  0  0  0  0  0  0  0  0
    6.5140    0.1420   20.0430 C   0  0  0  0  0  0  0  0  0  0  0  0
    5.2390    0.9150   20.3170 C   0  0  0  0  0  0  0  0  0  0  0  0
    4.5770    1.4660   19.2290 C   0  0  0  0  0  0  0  0  0  0  0  0
    5.1170    1.2780   17.9610 C   0  0  0  0  0  0  0  0  0  0  0  0
    6.2370    0.5870   17.7010 N   0  0  0  0  0  0  0  0  0  0  0  0
    6.9060    0.0370   18.7330 C   0  0  0  0  0  0  0  0  0  0  0  0
   12.9140   -0.8510   23.2090 C   0  0  0  0  0  0  0  0  0  0  0  0
   13.0420    0.3750   22.9970 C   0  0  0  0  0  0  0  0  0  0  0  0
  1  2  1  0
  2  3  1  0
  3  4  2  0
  4  5  1  0
  5  6  2  0
  6  7  1  0
  7  8  1  0
  7  9  1  0
  7 10  1  0
 10 11  1  0
 11 12  1  0
 12 13  2  0
 12 14  1  0
 14 15  1  0
 15 16  2  0
 16 17  1  0
 17 18  2  0
 18 19  1  0
 15 20  1  0
 19 20  2  0
  6 21  1  0
  3 22  1  0
 21 22  2  0
M  END
