pyridine_urea_4622
     RDKit          3D

 22 24  0  0  0  0  0  0  0  0999 V2000
   13.2660    3.9470   22.6420 C   0  0  0  0  0  0  0  0  0  0  0  0
   11.9080    3.9400   22.7840 N   0  0  0  0  0  0  0  0  0  0  0  0
   11.3050    5.2130   22.8630 N   0  0  0  0  0  0  0  0  0  0  0  0
   10.0400    4.8800   22.9870 C   0  0  0  0  0  0  0  0  0  0  0  0
    9.8510    3.4190   22.9880 C   0  0  0  0  0  0  0  0  0  0  0  0
   11.0460    2.7860   22.8590 C   0  0  0  0  0  0  0  0  0  0  0  0
   11.3260    1.4170   22.8170 N   0  0  0  0  0  0  0  0  0  0  0  0
   12.5550    0.7640   23.1190 C   0  0  0  0  0  0  0  0  0  0  0  0
   12.6840   -0.5350   22.6040 C   0  0  0  0  0  0  0  0  0  0  0  0
   11.4820   -1.2260   22.3480 C   0  0  0  0  0  0  0  0  0  0  0  0
   10.3290   -0.6880   22.9300 C   0  0  2  0  0  0  0  0  0  0  0  0
    9.2610   -1.2530   22.3390 N   0  0  0  0  0  0  0  0  0  0  0  0
    8.4370   -0.4070   21.5560 C   0  0  0  0  0  0  0  0  0  0  0  0
    8.8170    0.7050   21.2280 O   0  0  0  0  0  0  0  0  0  0  0  0
    7.2000   -0.8540   21.1710 N   0  0  0  0  0  0  0  0  0  0  0  0
    6.5720   -0.1660   20.1690 C   0  0  0  0  0  0  0  0  0  0  0  0
    5.4110    0.5710   20.4550 C   0  0  0  0  0  0  0  0  0  0  0  0
    4.7840    1.2950   19.3220 C   0  0  0  0  0  0  0  0  0  0  0  0
    5.2580    1.2910   18.0500 C   0  0  0  0  0  0  0  0  0  0  0  0
    6.3760    0.5740   17.8010 N   0  0  0  0  0  0  0  0  0  0  0  0
    6.9870   -0.1200   18.8270 C   0  0  0  0  0  0  0  0  0  0  0  0
   10.1810    0.6970   22.9440 C   0  0  0  0  0  0  0  0  0  0  0  0
  1  2  1  0
  2  3  1  0
  3  4  2  0
  4  5  1  0
  2  6  1  0
  5  6  2  0
  6  7  1  0
  7  8  1  0
  8  9  1  0
  9 10  1  0
 10 11  1  0
 11 12  1  6
 12 13  1  0
 13 14  2  0
 13 15  1  0
 15 16  1  0
 16 17  2  0
 17 18  1  0
 18 19  2  0
 19 20  1  0
 16 21  1  0
 20 21  2  0
  7 22  1  0
 11 22  1  0
M  END
