pyridine_urea_8627
     RDKit          3D

 21 22  0  0  0  0  0  0  0  0999 V2000
   10.2460    1.2780   23.5760 C   0  0  0  0  0  0  0  0  0  0  0  0
    9.2980    0.1150   23.5550 C   0  0  1  0  0  0  0  0  0  0  0  0
    8.0120    0.5270   23.1480 N   0  0  0  0  0  0  0  0  0  0  0  0
    8.0240    0.6960   21.6970 C   0  0  0  0  0  0  0  0  0  0  0  0
    8.7630    1.5710   21.1740 O   0  0  0  0  0  0  0  0  0  0  0  0
    7.1650   -0.1620   21.0780 N   0  0  0  0  0  0  0  0  0  0  0  0
    6.4780    0.3180   19.9960 C   0  0  0  0  0  0  0  0  0  0  0  0
    5.3390    1.0370   20.2360 C   0  0  0  0  0  0  0  0  0  0  0  0
    4.5860    1.6100   19.0730 C   0  0  0  0  0  0  0  0  0  0  0  0
    5.1010    1.3690   17.8210 C   0  0  0  0  0  0  0  0  0  0  0  0
    6.2120    0.6470   17.6230 N   0  0  0  0  0  0  0  0  0  0  0  0
    6.8710    0.1410   18.6890 C   0  0  0  0  0  0  0  0  0  0  0  0
    9.7060   -0.9810   22.5650 C   0  0  1  0  0  0  0  0  0  0  0  0
    9.5210   -0.6900   21.3190 C   0  0  0  0  0  0  0  0  0  0  0  0
   11.1370   -1.3010   22.8400 C   0  0  0  0  0  0  0  0  0  0  0  0
   11.8110   -2.3230   22.3860 C   0  0  0  0  0  0  0  0  0  0  0  0
   13.0590   -2.4080   22.8860 C   0  0  0  0  0  0  0  0  0  0  0  0
   13.4820   -1.3910   23.8020 C   0  0  0  0  0  0  0  0  0  0  0  0
   12.8790   -0.1820   24.3500 C   0  0  0  0  0  0  0  0  0  0  0  0
   11.8250   -0.5270   23.6630 C   0  0  0  0  0  0  0  0  0  0  0  0
   13.0160   -1.7170   23.3240 Cl  0  0  0  0  0  0  0  0  0  0  0  0
  2  1  1  6
  2  3  1  0
  3  4  1  0
  4  5  2  0
  4  6  1  0
  6  7  1  0
  7  8  2  0
  8  9  1  0
  9 10  2  0
 10 11  1  0
  7 12  1  0
 11 12  2  0
  2 13  1  0
 13 14  1  6
 13 15  1  0
 15 16  2  0
 16 17  1  0
 17 18  2  0
 18 19  1  0
 15 20  1  0
 19 20  2  0
 20 21  1  0
M  END
