pyridine_urea_8062
     RDKit          3D

 24 25  0  0  0  0  0  0  0  0999 V2000
   11.0880    6.4660   23.0100 C   0  0  0  0  0  0  0  0  0  0  0  0
   12.3710    5.9650   22.9200 N   0  0  0  0  0  0  0  0  0  0  0  0
   12.9700    5.7270   21.6630 C   0  0  0  0  0  0  0  0  0  0  0  0
   12.5850    4.7100   23.5980 C   0  0  0  0  0  0  0  0  0  0  0  0
   12.8170    3.5620   22.7920 C   0  0  0  0  0  0  0  0  0  0  0  0
   12.9110    2.3880   23.2100 O   0  0  0  0  0  0  0  0  0  0  0  0
   11.8070    1.5290   23.0020 C   0  0  0  0  0  0  0  0  0  0  0  0
   11.9820    0.1530   22.7580 C   0  0  0  0  0  0  0  0  0  0  0  0
   13.4800   -0.5900   22.7040 Cl  0  0  0  0  0  0  0  0  0  0  0  0
   10.7540   -0.6710   22.5280 C   0  0  0  0  0  0  0  0  0  0  0  0
    9.4270    0.0150   22.5780 C   0  0  0  0  0  0  0  0  0  0  0  0
    8.2900   -0.7960   22.3150 N   0  0  0  0  0  0  0  0  0  0  0  0
    8.2930   -1.1740   21.0040 C   0  0  0  0  0  0  0  0  0  0  0  0
    9.4490   -1.3930   21.2310 O   0  0  0  0  0  0  0  0  0  0  0  0
    6.9880   -0.8000   21.1490 N   0  0  0  0  0  0  0  0  0  0  0  0
    6.3170   -0.0560   20.1620 C   0  0  0  0  0  0  0  0  0  0  0  0
    5.0400    0.7400   20.3640 C   0  0  0  0  0  0  0  0  0  0  0  0
    4.5180    1.4640   19.1400 C   0  0  0  0  0  0  0  0  0  0  0  0
    5.2200    1.3560   17.9500 C   0  0  0  0  0  0  0  0  0  0  0  0
    6.3540    0.6330   17.8100 N   0  0  0  0  0  0  0  0  0  0  0  0
    6.8600   -0.0340   18.8780 C   0  0  0  0  0  0  0  0  0  0  0  0
    9.4070    1.3450   22.8420 C   0  0  0  0  0  0  0  0  0  0  0  0
   10.5320    2.0880   23.0450 C   0  0  0  0  0  0  0  0  0  0  0  0
   10.2250    3.7830   23.3540 Cl  0  0  0  0  0  0  0  0  0  0  0  0
  1  2  1  0
  2  3  1  0
  2  4  1  0
  4  5  1  0
  5  6  1  0
  6  7  1  0
  7  8  2  0
  8  9  1  0
  8 10  1  0
 10 11  2  0
 11 12  1  0
 12 13  1  0
 13 14  2  0
 13 15  1  0
 15 16  1  0
 16 17  2  0
 17 18  1  0
 18 19  2  0
 19 20  1  0
 16 21  1  0
 20 21  2  0
 11 22  1  0
  7 23  1  0
 22 23  2  0
 23 24  1  0
M  END
