pyridine_urea_5265
     RDKit          3D

 19 21  0  0  0  0  0  0  0  0999 V2000
    9.0830    1.8190   21.2750 O   0  0  0  0  0  0  0  0  0  0  0  0
    8.6780    0.7030   21.5340 C   0  0  0  0  0  0  0  0  0  0  0  0
    9.2530   -0.1690   22.3590 N   0  0  0  0  0  0  0  0  0  0  0  0
   10.5410    0.0870   22.8060 C   0  0  0  0  0  0  0  0  0  0  0  0
   11.3740   -0.9960   22.8490 C   0  0  0  0  0  0  0  0  0  0  0  0
   10.6740   -2.0610   22.3620 C   0  0  0  0  0  0  0  0  0  0  0  0
    9.7920   -2.2230   23.4090 C   0  0  0  0  0  0  0  0  0  0  0  0
   10.6070   -1.8760   24.6380 C   0  0  0  0  0  0  0  0  0  0  0  0
   11.7310   -1.2900   24.1280 N   0  0  0  0  0  0  0  0  0  0  0  0
   12.3970   -0.1200   24.4870 C   0  0  0  0  0  0  0  0  0  0  0  0
   12.9680    0.3890   23.1680 C   0  0  0  0  0  0  0  0  0  0  0  0
   12.6840   -0.7470   22.4500 C   0  0  0  0  0  0  0  0  0  0  0  0
    7.5580    0.2830   20.9420 N   0  0  0  0  0  0  0  0  0  0  0  0
    6.5470    0.4110   20.0540 C   0  0  0  0  0  0  0  0  0  0  0  0
    5.2830    0.9190   20.3320 C   0  0  0  0  0  0  0  0  0  0  0  0
    4.3990    1.0100   19.2780 C   0  0  0  0  0  0  0  0  0  0  0  0
    4.8310    0.5900   18.0400 C   0  0  0  0  0  0  0  0  0  0  0  0
    6.0080    0.0950   17.7170 N   0  0  0  0  0  0  0  0  0  0  0  0
    6.8320    0.0240   18.7680 C   0  0  0  0  0  0  0  0  0  0  0  0
  1  2  2  0
  2  3  1  0
  3  4  1  0
  5  4  1  0
  5  6  1  0
  6  7  1  0
  7  8  1  0
  5  9  1  0
  8  9  1  0
  9 10  1  0
 10 11  1  0
  5 12  1  0
 11 12  1  0
  2 13  1  0
 13 14  1  0
 14 15  2  0
 15 16  1  0
 16 17  2  0
 17 18  1  0
 14 19  1  0
 18 19  2  0
M  END
