pyridine_urea_2620
     RDKit          3D

 23 25  0  0  0  0  0  0  0  0999 V2000
   13.1720   -0.4470   22.5230 C   0  0  0  0  0  0  0  0  0  0  0  0
   11.6490   -0.4740   22.5510 C   0  0  0  0  0  0  0  0  0  0  0  0
   12.1530    0.9230   22.8680 N   0  0  0  0  0  0  0  0  0  0  0  0
   11.4860    2.1170   23.1740 C   0  0  0  0  0  0  0  0  0  0  0  0
   12.0940    3.3410   23.3540 N   0  0  0  0  0  0  0  0  0  0  0  0
   11.3020    4.5100   23.7870 C   0  0  0  0  0  0  0  0  0  0  0  0
   11.2050    5.3210   22.6940 C   0  0  0  0  0  0  0  0  0  0  0  0
   12.2410    5.8200   22.3510 O   0  0  0  0  0  0  0  0  0  0  0  0
   13.3030    5.0070   22.6080 C   0  0  0  0  0  0  0  0  0  0  0  0
   13.0400    3.6530   22.3970 C   0  0  0  0  0  0  0  0  0  0  0  0
   10.1660    2.1140   23.2780 C   0  0  0  0  0  0  0  0  0  0  0  0
    9.4910    0.9940   23.0320 C   0  0  0  0  0  0  0  0  0  0  0  0
   10.1110   -0.1650   22.6770 C   0  0  0  0  0  0  0  0  0  0  0  0
    9.2300   -1.1360   22.3780 N   0  0  0  0  0  0  0  0  0  0  0  0
    8.3680   -0.4680   21.5110 C   0  0  0  0  0  0  0  0  0  0  0  0
    8.6210    0.8510   21.0640 O   0  0  0  0  0  0  0  0  0  0  0  0
    7.2480   -1.1000   21.0970 N   0  0  0  0  0  0  0  0  0  0  0  0
    6.5280   -0.3420   20.1860 C   0  0  0  0  0  0  0  0  0  0  0  0
    5.3460    0.3710   20.4180 C   0  0  0  0  0  0  0  0  0  0  0  0
    4.7290    1.1010   19.4150 C   0  0  0  0  0  0  0  0  0  0  0  0
    5.2580    1.1560   18.1400 C   0  0  0  0  0  0  0  0  0  0  0  0
    6.3950    0.4840   17.8570 N   0  0  0  0  0  0  0  0  0  0  0  0
    6.9910   -0.2360   18.8630 C   0  0  0  0  0  0  0  0  0  0  0  0
  1  2  1  0
  2  3  2  0
  3  4  1  0
  4  5  1  0
  5  6  1  0
  6  7  1  0
  7  8  1  0
  8  9  1  0
  5 10  1  0
  9 10  1  0
  4 11  2  0
 11 12  1  0
  2 13  1  0
 12 13  2  0
 13 14  1  0
 14 15  1  0
 15 16  2  0
 15 17  1  0
 17 18  1  0
 18 19  2  0
 19 20  1  0
 20 21  2  0
 21 22  1  0
 18 23  1  0
 22 23  2  0
M  END
