pyridine_urea_13004
     RDKit          3D

 18 19  0  0  0  0  0  0  0  0999 V2000
    8.8000    1.0280   21.1940 O   0  0  0  0  0  0  0  0  0  0  0  0
    8.1910   -0.0190   21.4840 C   0  0  0  0  0  0  0  0  0  0  0  0
    8.4810   -0.8910   22.4840 N   0  0  0  0  0  0  0  0  0  0  0  0
    9.6830   -0.9760   23.1530 C   0  0  0  0  0  0  0  0  0  0  0  0
   10.0530    0.1380   23.8760 C   0  0  1  0  0  0  0  0  0  0  0  0
    9.8280   -0.0220   25.2500 C   0  0  0  0  0  0  0  0  0  0  0  0
    8.9880   -0.8930   25.4440 O   0  0  0  0  0  0  0  0  0  0  0  0
   11.5520    0.0300   23.6590 C   0  0  0  0  0  0  0  0  0  0  0  0
   12.5630    0.9630   23.0910 C   0  0  0  0  0  0  0  0  0  0  0  0
   13.1320   -0.1240   22.5320 C   0  0  0  0  0  0  0  0  0  0  0  0
   11.8790   -0.9820   22.6680 C   0  0  0  0  0  0  0  0  0  0  0  0
    7.0780   -0.5140   20.8770 N   0  0  0  0  0  0  0  0  0  0  0  0
    6.3510    0.1670   19.9220 C   0  0  0  0  0  0  0  0  0  0  0  0
    5.1730    0.8470   20.1280 C   0  0  0  0  0  0  0  0  0  0  0  0
    4.5480    1.5040   19.0790 C   0  0  0  0  0  0  0  0  0  0  0  0
    5.1660    1.4420   17.8280 C   0  0  0  0  0  0  0  0  0  0  0  0
    6.3100    0.7780   17.6060 N   0  0  0  0  0  0  0  0  0  0  0  0
    6.8680    0.1600   18.6530 C   0  0  0  0  0  0  0  0  0  0  0  0
  1  2  2  0
  2  3  1  0
  3  4  1  0
  5  4  1  6
  5  6  1  0
  6  7  1  0
  5  8  1  0
  8  9  1  0
  9 10  1  0
  8 11  1  0
 10 11  1  0
  2 12  1  0
 12 13  1  0
 13 14  2  0
 14 15  1  0
 15 16  2  0
 16 17  1  0
 13 18  1  0
 17 18  2  0
M  END
