pyridine_urea_1102
     RDKit          3D

 21 22  0  0  0  0  0  0  0  0999 V2000
   13.2620   -2.8170   20.7350 C   0  0  0  0  0  0  0  0  0  0  0  0
   12.7250   -2.5510   22.0410 C   0  0  0  0  0  0  0  0  0  0  0  0
   12.9980   -0.8530   21.9960 S   0  0  0  0  0  0  0  0  0  0  0  0
   13.9210   -0.7560   20.9330 O   0  0  0  0  0  0  0  0  0  0  0  0
   11.7280   -0.1830   22.1350 O   0  0  0  0  0  0  0  0  0  0  0  0
   13.4440   -1.1350   23.5530 C   0  0  0  0  0  0  0  0  0  0  0  0
   13.0290   -1.4870   24.7400 C   0  0  0  0  0  0  0  0  0  0  0  0
   11.7320   -1.7670   24.8920 C   0  0  0  0  0  0  0  0  0  0  0  0
   10.5760   -1.7930   24.0100 C   0  0  0  0  0  0  0  0  0  0  0  0
    9.8470   -1.6430   22.6820 C   0  0  0  0  0  0  0  0  0  0  0  0
    8.8130   -0.6870   22.6520 N   0  0  0  0  0  0  0  0  0  0  0  0
    8.3930    0.0970   21.5940 C   0  0  0  0  0  0  0  0  0  0  0  0
    8.8730    1.1710   21.1910 O   0  0  0  0  0  0  0  0  0  0  0  0
    7.2260   -0.4910   20.9660 N   0  0  0  0  0  0  0  0  0  0  0  0
    6.5070    0.1280   20.0090 C   0  0  0  0  0  0  0  0  0  0  0  0
    5.3570    0.8740   20.2650 C   0  0  0  0  0  0  0  0  0  0  0  0
    4.6610    1.5030   19.2390 C   0  0  0  0  0  0  0  0  0  0  0  0
    5.1500    1.3630   17.9570 C   0  0  0  0  0  0  0  0  0  0  0  0
    6.2500    0.6480   17.6530 N   0  0  0  0  0  0  0  0  0  0  0  0
    6.9200    0.0310   18.7110 C   0  0  0  0  0  0  0  0  0  0  0  0
   11.8270   -1.3430   22.9370 S   0  0  0  0  0  0  0  0  0  0  0  0
  1  2  1  0
  3  2  1  0
  3  4  2  0
  3  5  2  0
  3  6  1  0
  6  7  2  0
  7  8  1  0
  8  9  2  0
  9 10  1  0
 10 11  1  0
 11 12  1  0
 12 13  2  0
 12 14  1  0
 14 15  1  0
 15 16  2  0
 16 17  1  0
 17 18  2  0
 18 19  1  0
 15 20  1  0
 19 20  2  0
  6 21  1  0
  9 21  1  0
M  END
