pyridine_urea_4526
     RDKit          3D

 23 25  0  0  0  0  0  0  0  0999 V2000
    8.7300    1.2120   20.9640 O   0  0  0  0  0  0  0  0  0  0  0  0
    8.2980    0.1480   21.4050 C   0  0  0  0  0  0  0  0  0  0  0  0
    8.8090   -0.4290   22.5110 N   0  0  0  0  0  0  0  0  0  0  0  0
    8.9510    0.5170   23.5750 C   0  0  0  0  0  0  0  0  0  0  0  0
    9.4770    1.8970   23.1140 C   0  0  0  0  0  0  0  0  0  0  0  0
   10.9250    1.6750   22.9480 C   0  0  0  0  0  0  0  0  0  0  0  0
   12.1210    2.7120   22.7650 C   0  0  0  0  0  0  0  0  0  0  0  0
   12.9600    1.7270   22.7350 O   0  0  0  0  0  0  0  0  0  0  0  0
   12.3780    0.4920   22.8680 C   0  0  0  0  0  0  0  0  0  0  0  0
   12.8960   -0.8280   22.9620 C   0  0  0  0  0  0  0  0  0  0  0  0
   13.1130   -0.9570   24.2560 C   0  0  0  0  0  0  0  0  0  0  0  0
   13.5240   -2.0220   24.8880 C   0  0  0  0  0  0  0  0  0  0  0  0
   13.7390   -3.0300   24.0760 C   0  0  0  0  0  0  0  0  0  0  0  0
   13.5540   -2.9460   22.6790 C   0  0  0  0  0  0  0  0  0  0  0  0
   13.1110   -1.8080   22.0730 C   0  0  0  0  0  0  0  0  0  0  0  0
   11.1750    0.3670   22.9870 N   0  0  0  0  0  0  0  0  0  0  0  0
    7.2350   -0.5360   20.8800 N   0  0  0  0  0  0  0  0  0  0  0  0
    6.4620    0.0890   19.9980 C   0  0  0  0  0  0  0  0  0  0  0  0
    5.2660    0.7570   20.2360 C   0  0  0  0  0  0  0  0  0  0  0  0
    4.5670    1.4210   19.1300 C   0  0  0  0  0  0  0  0  0  0  0  0
    5.1400    1.3490   17.8840 C   0  0  0  0  0  0  0  0  0  0  0  0
    6.2870    0.6940   17.6420 N   0  0  0  0  0  0  0  0  0  0  0  0
    6.9040    0.0930   18.6860 C   0  0  0  0  0  0  0  0  0  0  0  0
  1  2  2  0
  2  3  1  0
  3  4  1  0
  4  5  1  0
  5  6  1  0
  6  7  2  0
  7  8  1  0
  8  9  1  0
  9 10  1  0
 10 11  2  0
 11 12  1  0
 12 13  2  0
 13 14  1  0
 10 15  1  0
 14 15  2  0
  6 16  1  0
  9 16  2  0
  2 17  1  0
 17 18  1  0
 18 19  2  0
 19 20  1  0
 20 21  2  0
 21 22  1  0
 18 23  1  0
 22 23  2  0
M  END
