pyridine_urea_1566
     RDKit          3D

 19 20  0  0  0  0  0  0  0  0999 V2000
    6.1410   -2.8800   27.4730 C   0  0  0  0  0  0  0  0  0  0  0  0
    5.6340   -2.7930   26.0580 C   0  0  0  0  0  0  0  0  0  0  0  0
    6.4650   -3.0830   24.9730 C   0  0  0  0  0  0  0  0  0  0  0  0
    7.4290   -2.2160   24.4800 N   0  0  0  0  0  0  0  0  0  0  0  0
    8.1620   -2.6570   23.4060 C   0  0  0  0  0  0  0  0  0  0  0  0
    9.1710   -1.9380   22.7730 C   0  0  2  0  0  0  0  0  0  0  0  0
   10.4370   -2.2960   23.2420 C   0  0  0  0  0  0  0  0  0  0  0  0
    8.9940   -0.6000   22.6470 N   0  0  0  0  0  0  0  0  0  0  0  0
    8.3940    0.0160   21.5680 C   0  0  0  0  0  0  0  0  0  0  0  0
    8.8730    1.1030   21.2010 O   0  0  0  0  0  0  0  0  0  0  0  0
    7.3220   -0.6200   21.0320 N   0  0  0  0  0  0  0  0  0  0  0  0
    6.6300    0.0110   20.0460 C   0  0  0  0  0  0  0  0  0  0  0  0
    5.5030    0.7530   20.3750 C   0  0  0  0  0  0  0  0  0  0  0  0
    4.7840    1.4140   19.3760 C   0  0  0  0  0  0  0  0  0  0  0  0
    5.2190    1.3090   18.0670 C   0  0  0  0  0  0  0  0  0  0  0  0
    6.2970    0.5950   17.7240 N   0  0  0  0  0  0  0  0  0  0  0  0
    6.9760   -0.0360   18.7090 C   0  0  0  0  0  0  0  0  0  0  0  0
    7.7350   -3.9410   23.0540 C   0  0  0  0  0  0  0  0  0  0  0  0
    6.4500   -4.5350   24.0640 S   0  0  0  0  0  0  0  0  0  0  0  0
  1  2  1  0
  2  3  1  0
  3  4  2  0
  4  5  1  0
  5  6  1  0
  6  7  1  1
  6  8  1  0
  8  9  1  0
  9 10  2  0
  9 11  1  0
 11 12  1  0
 12 13  2  0
 13 14  1  0
 14 15  2  0
 15 16  1  0
 12 17  1  0
 16 17  2  0
  5 18  2  0
  3 19  1  0
 18 19  1  0
M  END
