pyridine_urea_12989
     RDKit          3D

 19 20  0  0  0  0  0  0  0  0999 V2000
    9.0790   -0.4250   26.8630 C   0  0  0  0  0  0  0  0  0  0  0  0
    9.1340    0.1160   25.4160 C   0  0  0  0  0  0  0  0  0  0  0  0
   10.0380   -0.6820   24.6520 O   0  0  0  0  0  0  0  0  0  0  0  0
   10.6210    0.2180   23.7890 C   0  0  1  0  0  0  0  0  0  0  0  0
   11.9130    0.7190   23.9580 C   0  0  0  0  0  0  0  0  0  0  0  0
   12.6450    0.6970   22.9580 O   0  0  0  0  0  0  0  0  0  0  0  0
   12.7590   -0.6220   22.5780 C   0  0  0  0  0  0  0  0  0  0  0  0
   11.5500   -1.2450   22.2690 C   0  0  0  0  0  0  0  0  0  0  0  0
   10.4800   -0.4230   22.5450 C   0  0  1  0  0  0  0  0  0  0  0  0
    9.1430   -0.7660   22.3210 N   0  0  0  0  0  0  0  0  0  0  0  0
    8.3820    0.0250   21.4830 C   0  0  0  0  0  0  0  0  0  0  0  0
    8.8230    1.3480   21.1290 O   0  0  0  0  0  0  0  0  0  0  0  0
    7.2120   -0.5640   21.0490 N   0  0  0  0  0  0  0  0  0  0  0  0
    6.4950    0.0420   20.0390 C   0  0  0  0  0  0  0  0  0  0  0  0
    5.3170    0.7260   20.3660 C   0  0  0  0  0  0  0  0  0  0  0  0
    4.5970    1.3670   19.3460 C   0  0  0  0  0  0  0  0  0  0  0  0
    5.1400    1.2810   17.9600 C   0  0  0  0  0  0  0  0  0  0  0  0
    6.2600    0.6120   17.6880 N   0  0  0  0  0  0  0  0  0  0  0  0
    6.9010    0.0160   18.7170 C   0  0  0  0  0  0  0  0  0  0  0  0
  1  2  1  0
  2  3  1  0
  4  3  1  1
  4  5  1  0
  5  6  1  0
  6  7  1  0
  7  8  1  0
  4  9  1  0
  8  9  1  0
  9 10  1  1
 10 11  1  0
 11 12  2  0
 11 13  1  0
 13 14  1  0
 14 15  2  0
 15 16  1  0
 16 17  2  0
 17 18  1  0
 14 19  1  0
 18 19  2  0
M  END
