pyridine_urea_8872
     RDKit          3D

 20 21  0  0  0  0  0  0  0  0999 V2000
   13.0060   -0.2740   22.7100 C   0  0  0  0  0  0  0  0  0  0  0  0
   12.3470   -1.4190   23.5120 C   0  0  0  0  0  0  0  0  0  0  0  0
   13.3260   -2.5760   23.6990 C   0  0  0  0  0  0  0  0  0  0  0  0
   12.0000   -0.9580   24.9270 C   0  0  0  0  0  0  0  0  0  0  0  0
   10.7780   -0.3210   25.0560 C   0  0  0  0  0  0  0  0  0  0  0  0
    9.6840   -0.8310   24.4000 C   0  0  0  0  0  0  0  0  0  0  0  0
   10.0360   -2.0810   23.6940 N   0  0  0  0  0  0  0  0  0  0  0  0
    9.0210   -2.8610   23.1980 C   0  0  0  0  0  0  0  0  0  0  0  0
    8.0840   -1.9420   22.7810 C   0  0  0  0  0  0  0  0  0  0  0  0
    8.7700   -0.9180   22.1510 N   0  0  0  0  0  0  0  0  0  0  0  0
    8.1780    0.0430   21.3720 C   0  0  0  0  0  0  0  0  0  0  0  0
    8.7160    1.1190   21.0580 O   0  0  0  0  0  0  0  0  0  0  0  0
    6.9560   -0.4100   21.0490 N   0  0  0  0  0  0  0  0  0  0  0  0
    6.3840    0.1840   20.0110 C   0  0  0  0  0  0  0  0  0  0  0  0
    5.2070    0.9150   20.2280 C   0  0  0  0  0  0  0  0  0  0  0  0
    4.6080    1.5760   19.0370 C   0  0  0  0  0  0  0  0  0  0  0  0
    5.1940    1.4630   17.8130 C   0  0  0  0  0  0  0  0  0  0  0  0
    6.3330    0.7370   17.6450 N   0  0  0  0  0  0  0  0  0  0  0  0
    6.8810    0.1290   18.7230 C   0  0  0  0  0  0  0  0  0  0  0  0
   11.0880   -1.9070   22.7810 C   0  0  0  0  0  0  0  0  0  0  0  0
  2  1  1  0
  2  3  1  0
  2  4  1  0
  4  5  1  0
  5  6  1  0
  6  7  1  0
  7  8  1  0
  8  9  1  0
  9 10  1  0
 10 11  1  0
 11 12  2  0
 11 13  1  0
 13 14  1  0
 14 15  2  0
 15 16  1  0
 16 17  2  0
 17 18  1  0
 14 19  1  0
 18 19  2  0
  2 20  1  0
  7 20  1  0
M  END
