pyridine_urea_14541
     RDKit          3D

 21 22  0  0  0  0  0  0  0  0999 V2000
    9.5660   -2.7700   23.0710 C   0  0  0  0  0  0  0  0  0  0  0  0
    9.7960   -1.2880   22.9970 C   0  0  0  0  0  0  0  0  0  0  0  0
    9.9600   -0.5740   24.1320 C   0  0  0  0  0  0  0  0  0  0  0  0
   11.0270   -1.0180   22.1260 C   0  0  0  0  0  0  0  0  0  0  0  0
   12.0760   -0.2770   22.6860 C   0  0  0  0  0  0  0  0  0  0  0  0
   11.8510    1.0780   22.8180 C   0  0  0  0  0  0  0  0  0  0  0  0
   12.9340    2.1370   22.8200 C   0  0  0  0  0  0  0  0  0  0  0  0
   12.6370    3.4970   22.9320 C   0  0  0  0  0  0  0  0  0  0  0  0
   11.3090    3.9210   23.0560 C   0  0  0  0  0  0  0  0  0  0  0  0
   10.2990    2.9660   23.0620 C   0  0  0  0  0  0  0  0  0  0  0  0
   10.5830    1.6120   22.9460 C   0  0  0  0  0  0  0  0  0  0  0  0
    8.5600   -0.7650   22.4990 N   0  0  0  0  0  0  0  0  0  0  0  0
    8.3020    0.0880   21.4780 C   0  0  0  0  0  0  0  0  0  0  0  0
    8.9250    1.1140   21.1770 O   0  0  0  0  0  0  0  0  0  0  0  0
    7.1800   -0.4320   20.8920 N   0  0  0  0  0  0  0  0  0  0  0  0
    6.4520    0.2150   19.8590 C   0  0  0  0  0  0  0  0  0  0  0  0
    5.2850    0.9070   20.1660 C   0  0  0  0  0  0  0  0  0  0  0  0
    4.5970    1.5480   19.1440 C   0  0  0  0  0  0  0  0  0  0  0  0
    5.1170    1.4600   17.8640 C   0  0  0  0  0  0  0  0  0  0  0  0
    6.2330    0.7860   17.5630 N   0  0  0  0  0  0  0  0  0  0  0  0
    6.8700    0.1830   18.5660 C   0  0  0  0  0  0  0  0  0  0  0  0
  1  2  1  0
  2  3  1  0
  2  4  1  0
  4  5  1  0
  5  6  1  0
  6  7  2  0
  7  8  1  0
  8  9  2  0
  9 10  1  0
  6 11  1  0
 10 11  2  0
  2 12  1  0
 12 13  1  0
 13 14  2  0
 13 15  1  0
 15 16  1  0
 16 17  2  0
 17 18  1  0
 18 19  2  0
 19 20  1  0
 16 21  1  0
 20 21  2  0
M  END
