pyridine_urea_9952
     RDKit          3D

 24 27  0  0  0  0  0  0  0  0999 V2000
    8.0240    1.5830   20.8420 O   0  0  0  0  0  0  0  0  0  0  0  0
    7.5290    0.6350   21.4680 C   0  0  0  0  0  0  0  0  0  0  0  0
    6.5730   -0.2030   20.9930 N   0  0  0  0  0  0  0  0  0  0  0  0
    5.9920    0.3590   19.9140 C   0  0  0  0  0  0  0  0  0  0  0  0
    4.7920    1.0230   19.9520 C   0  0  0  0  0  0  0  0  0  0  0  0
    4.3320    1.6020   18.7940 C   0  0  0  0  0  0  0  0  0  0  0  0
    5.1040    1.4780   17.6610 C   0  0  0  0  0  0  0  0  0  0  0  0
    6.2670    0.8150   17.5960 N   0  0  0  0  0  0  0  0  0  0  0  0
    6.6840    0.2720   18.7310 C   0  0  0  0  0  0  0  0  0  0  0  0
    7.9440    0.3080   22.6820 N   0  0  0  0  0  0  0  0  0  0  0  0
    9.2470    0.0870   22.5120 C   0  0  2  0  0  0  0  0  0  0  0  0
    9.5650   -1.2610   22.5480 C   0  0  0  0  0  0  0  0  0  0  0  0
   10.3900   -1.2360   21.7140 O   0  0  0  0  0  0  0  0  0  0  0  0
   11.0810   -0.3550   22.4730 C   0  0  0  0  0  0  0  0  0  0  0  0
    9.8210    0.2010   22.3400 C   0  0  0  0  0  0  0  0  0  0  0  0
    9.9900   -0.9290   21.6870 C   0  0  0  0  0  0  0  0  0  0  0  0
   11.3690   -1.2610   21.9810 C   0  0  0  0  0  0  0  0  0  0  0  0
   11.8470   -2.3920   21.4380 C   0  0  0  0  0  0  0  0  0  0  0  0
   13.0820   -2.6710   21.7500 C   0  0  0  0  0  0  0  0  0  0  0  0
   13.7180   -1.7910   22.5700 C   0  0  0  0  0  0  0  0  0  0  0  0
   13.2990   -0.6300   23.1080 C   0  0  0  0  0  0  0  0  0  0  0  0
   12.1120   -0.3450   22.8300 C   0  0  0  0  0  0  0  0  0  0  0  0
   11.4410    0.7380   23.2560 C   0  0  0  0  0  0  0  0  0  0  0  0
   10.1300    1.2000   23.1060 C   0  0  0  0  0  0  0  0  0  0  0  0
  1  2  2  0
  2  3  1  0
  3  4  1  0
  4  5  2  0
  5  6  1  0
  6  7  2  0
  7  8  1  0
  4  9  1  0
  8  9  2  0
  2 10  1  0
 11 10  1  1
 11 12  1  0
 12 13  1  0
 13 14  1  0
 14 15  2  0
 15 16  1  0
 16 17  2  0
 17 18  1  0
 18 19  2  0
 19 20  1  0
 20 21  2  0
 17 22  1  0
 21 22  1  0
 14 23  1  0
 22 23  2  0
 11 24  1  0
 23 24  1  0
M  END
