pyridine_urea_4591
     RDKit          3D

 22 23  0  0  0  0  0  0  0  0999 V2000
    7.6950   -2.1170   21.4260 O   0  0  0  0  0  0  0  0  0  0  0  0
    7.9970   -1.0100   21.6770 C   0  0  0  0  0  0  0  0  0  0  0  0
    7.1270    0.0200   21.5000 N   0  0  0  0  0  0  0  0  0  0  0  0
    6.5860    0.3400   20.1960 C   0  0  0  0  0  0  0  0  0  0  0  0
    5.3560    1.2590   20.2620 C   0  0  0  0  0  0  0  0  0  0  0  0
    4.7180    1.6790   19.1050 C   0  0  0  0  0  0  0  0  0  0  0  0
    5.2330    1.2430   17.8950 C   0  0  0  0  0  0  0  0  0  0  0  0
    6.3300    0.4180   17.8640 N   0  0  0  0  0  0  0  0  0  0  0  0
    7.0240   -0.0560   18.9840 C   0  0  0  0  0  0  0  0  0  0  0  0
    9.2040   -0.6430   22.1390 N   0  0  0  0  0  0  0  0  0  0  0  0
   10.4360   -0.2350   22.4310 C   0  0  0  0  0  0  0  0  0  0  0  0
   11.5360   -1.0870   22.4820 C   0  0  0  0  0  0  0  0  0  0  0  0
   12.7810   -0.5600   22.7540 C   0  0  0  0  0  0  0  0  0  0  0  0
   12.9460    0.8050   22.9750 C   0  0  0  0  0  0  0  0  0  0  0  0
   11.8780    1.7200   22.9450 C   0  0  0  0  0  0  0  0  0  0  0  0
   11.9610    3.2120   23.1540 C   0  0  0  0  0  0  0  0  0  0  0  0
   11.3290    4.0340   22.2550 C   0  0  0  0  0  0  0  0  0  0  0  0
   10.9150    5.1580   23.0490 C   0  0  0  0  0  0  0  0  0  0  0  0
   11.2430    5.1150   24.3490 F   0  0  0  0  0  0  0  0  0  0  0  0
    9.5750    5.3500   23.0880 F   0  0  0  0  0  0  0  0  0  0  0  0
   11.4130    6.3400   22.6520 F   0  0  0  0  0  0  0  0  0  0  0  0
   10.6560    1.1710   22.6820 C   0  0  0  0  0  0  0  0  0  0  0  0
  1  2  2  0
  2  3  1  0
  3  4  1  0
  4  5  2  0
  5  6  1  0
  6  7  2  0
  7  8  1  0
  4  9  1  0
  8  9  2  0
  2 10  1  0
 10 11  1  0
 11 12  2  0
 12 13  1  0
 13 14  2  0
 14 15  1  0
 15 16  1  0
 16 17  1  0
 17 18  1  0
 18 19  1  0
 18 20  1  0
 18 21  1  0
 11 22  1  0
 15 22  2  0
M  END
