pyridine_urea_1472
     RDKit          3D

 19 20  0  0  0  0  0  0  0  0999 V2000
    9.1710   -5.8240   26.3400 C   0  0  0  0  0  0  0  0  0  0  0  0
    9.1820   -4.3000   26.5670 C   0  0  0  0  0  0  0  0  0  0  0  0
    9.7810   -3.5920   25.4390 N   0  0  0  0  0  0  0  0  0  0  0  0
   11.1110   -3.2900   25.2430 C   0  0  0  0  0  0  0  0  0  0  0  0
   11.2260   -2.6250   24.0740 C   0  0  0  0  0  0  0  0  0  0  0  0
   12.8050   -1.9500   23.2780 Br  0  0  0  0  0  0  0  0  0  0  0  0
    9.9460   -2.5480   23.5880 C   0  0  0  0  0  0  0  0  0  0  0  0
    9.6050   -1.9350   22.3740 C   0  0  0  0  0  0  0  0  0  0  0  0
    9.0890   -0.6650   22.5010 N   0  0  0  0  0  0  0  0  0  0  0  0
    8.4040    0.0790   21.5130 C   0  0  0  0  0  0  0  0  0  0  0  0
    8.8290    1.1850   21.1460 O   0  0  0  0  0  0  0  0  0  0  0  0
    7.2820   -0.5300   21.0620 N   0  0  0  0  0  0  0  0  0  0  0  0
    6.5940    0.0700   20.0580 C   0  0  0  0  0  0  0  0  0  0  0  0
    5.4580    0.8060   20.3540 C   0  0  0  0  0  0  0  0  0  0  0  0
    4.7200    1.4440   19.3580 C   0  0  0  0  0  0  0  0  0  0  0  0
    5.1830    1.3050   18.0480 C   0  0  0  0  0  0  0  0  0  0  0  0
    6.2740    0.5980   17.7190 N   0  0  0  0  0  0  0  0  0  0  0  0
    6.9540   -0.0040   18.7220 C   0  0  0  0  0  0  0  0  0  0  0  0
    8.9940   -3.1380   24.4030 N   0  0  0  0  0  0  0  0  0  0  0  0
  1  2  1  0
  2  3  1  0
  3  4  1  0
  4  5  2  0
  5  6  1  0
  5  7  1  0
  7  8  1  0
  8  9  1  0
  9 10  1  0
 10 11  2  0
 10 12  1  0
 12 13  1  0
 13 14  2  0
 14 15  1  0
 15 16  2  0
 16 17  1  0
 13 18  1  0
 17 18  2  0
  3 19  1  0
  7 19  2  0
M  END
