pyridine_urea_4739
     RDKit          3D

 22 23  0  0  0  0  0  0  0  0999 V2000
    6.2060   -2.4140   27.1460 C   0  0  0  0  0  0  0  0  0  0  0  0
    6.7470   -0.9710   26.9980 C   0  0  0  0  0  0  0  0  0  0  0  0
    7.3980   -0.7790   25.6070 C   0  0  0  0  0  0  0  0  0  0  0  0
    8.3940    0.1900   25.5020 C   0  0  0  0  0  0  0  0  0  0  0  0
    9.0350    0.1110   24.4580 O   0  0  0  0  0  0  0  0  0  0  0  0
   10.2100    0.8170   24.4520 C   0  0  0  0  0  0  0  0  0  0  0  0
   11.5720    0.8710   23.8460 N   0  0  0  0  0  0  0  0  0  0  0  0
   11.8490   -0.2360   22.8540 C   0  0  0  0  0  0  0  0  0  0  0  0
   12.9700    0.4650   22.8790 C   0  0  0  0  0  0  0  0  0  0  0  0
   11.9470    0.8290   23.6420 C   0  0  0  0  0  0  0  0  0  0  0  0
   10.7240    0.0470   23.5800 C   0  0  0  0  0  0  0  0  0  0  0  0
   10.2940   -1.0790   22.8620 C   0  0  0  0  0  0  0  0  0  0  0  0
    8.9730   -1.0830   22.4370 N   0  0  0  0  0  0  0  0  0  0  0  0
    8.3400   -0.2050   21.5190 C   0  0  0  0  0  0  0  0  0  0  0  0
    8.8040    0.8930   21.2430 O   0  0  0  0  0  0  0  0  0  0  0  0
    7.1900   -0.7510   21.0370 N   0  0  0  0  0  0  0  0  0  0  0  0
    6.5420   -0.0710   20.0520 C   0  0  0  0  0  0  0  0  0  0  0  0
    5.3900    0.6400   20.3900 C   0  0  0  0  0  0  0  0  0  0  0  0
    4.6950    1.3690   19.3470 C   0  0  0  0  0  0  0  0  0  0  0  0
    5.2140    1.3220   18.0660 C   0  0  0  0  0  0  0  0  0  0  0  0
    6.3590    0.6020   17.7700 N   0  0  0  0  0  0  0  0  0  0  0  0
    6.9710   -0.0600   18.7550 C   0  0  0  0  0  0  0  0  0  0  0  0
  1  2  1  0
  2  3  1  0
  3  4  1  0
  4  5  1  0
  5  6  1  0
  6  7  2  0
  7  8  1  0
  8  9  2  0
  9 10  1  0
  6 11  1  0
 10 11  2  0
 11 12  1  0
 12 13  1  0
 13 14  1  0
 14 15  2  0
 14 16  1  0
 16 17  1  0
 17 18  2  0
 18 19  1  0
 19 20  2  0
 20 21  1  0
 17 22  1  0
 21 22  2  0
M  END
