pyridine_urea_2163
     RDKit          3D

 30 32  0  0  0  0  0  0  0  0999 V2000
    8.5070    0.2260   33.7920 C   0  0  0  0  0  0  0  0  0  0  0  0
    7.4310    0.9530   32.9470 C   0  0  0  0  0  0  0  0  0  0  0  0
    6.3490    1.5490   33.6830 O   0  0  0  0  0  0  0  0  0  0  0  0
    7.6290    0.9650   31.4880 N   0  0  0  0  0  0  0  0  0  0  0  0
    8.8170    1.3550   30.9080 C   0  0  0  0  0  0  0  0  0  0  0  0
    9.2340    0.4830   29.7150 C   0  0  0  0  0  0  0  0  0  0  0  0
    8.2370    0.1790   28.8120 N   0  0  0  0  0  0  0  0  0  0  0  0
    8.1460    0.5240   27.4450 C   0  0  0  0  0  0  0  0  0  0  0  0
    9.0400   -0.1130   26.5990 C   0  0  0  0  0  0  0  0  0  0  0  0
    9.5550    0.6310   25.8090 O   0  0  0  0  0  0  0  0  0  0  0  0
   10.3900    0.1290   24.7350 C   0  0  0  0  0  0  0  0  0  0  0  0
   10.1410   -0.9800   24.0630 C   0  0  0  0  0  0  0  0  0  0  0  0
   10.9840   -1.3860   23.0220 C   0  0  0  0  0  0  0  0  0  0  0  0
   12.1880   -0.9540   22.3560 C   0  0  0  0  0  0  0  0  0  0  0  0
   11.5410   -2.0800   21.9480 C   0  0  0  0  0  0  0  0  0  0  0  0
   10.1410   -1.8640   22.2830 C   0  0  0  0  0  0  0  0  0  0  0  0
    9.2840   -1.5490   21.2830 N   0  0  0  0  0  0  0  0  0  0  0  0
    8.4960   -0.4350   21.3280 C   0  0  0  0  0  0  0  0  0  0  0  0
    9.0240    0.8700   21.5100 O   0  0  0  0  0  0  0  0  0  0  0  0
    7.1910   -0.7470   21.1420 N   0  0  0  0  0  0  0  0  0  0  0  0
    6.5450   -0.0840   20.1460 C   0  0  0  0  0  0  0  0  0  0  0  0
    5.3940    0.6940   20.3680 C   0  0  0  0  0  0  0  0  0  0  0  0
    4.7490    1.3750   19.3320 C   0  0  0  0  0  0  0  0  0  0  0  0
    5.2210    1.3110   18.0460 C   0  0  0  0  0  0  0  0  0  0  0  0
    6.3310    0.5720   17.7600 N   0  0  0  0  0  0  0  0  0  0  0  0
    7.0010   -0.1400   18.8330 C   0  0  0  0  0  0  0  0  0  0  0  0
   12.4120    0.2760   23.1820 C   0  0  0  0  0  0  0  0  0  0  0  0
   11.6470    0.7500   24.1870 C   0  0  0  0  0  0  0  0  0  0  0  0
    6.9230   -0.0370   29.4540 C   0  0  0  0  0  0  0  0  0  0  0  0
    6.9730   -0.1800   30.8410 C   0  0  0  0  0  0  0  0  0  0  0  0
  1  2  1  0
  2  3  2  0
  2  4  1  0
  4  5  1  0
  5  6  1  0
  6  7  1  0
  7  8  1  0
  8  9  1  0
  9 10  1  0
 10 11  1  0
 11 12  2  0
 12 13  1  0
 13 14  2  0
 14 15  1  0
 15 16  1  0
 16 17  1  0
 17 18  1  0
 18 19  2  0
 18 20  1  0
 20 21  1  0
 21 22  2  0
 22 23  1  0
 23 24  2  0
 24 25  1  0
 21 26  1  0
 25 26  2  0
 14 27  1  0
 11 28  1  0
 27 28  2  0
  7 29  1  0
  4 30  1  0
 29 30  1  0
M  END
