pyridine_urea_7182
     RDKit          3D

 19 20  0  0  0  0  0  0  0  0999 V2000
    9.9090   -3.0240   23.5750 C   0  0  0  0  0  0  0  0  0  0  0  0
   10.9320   -2.6890   22.9940 O   0  0  0  0  0  0  0  0  0  0  0  0
   11.3050   -1.4090   23.2230 C   0  0  2  0  0  0  0  0  0  0  0  0
   10.3620   -0.5260   22.7090 C   0  0  0  0  0  0  0  0  0  0  0  0
    9.1760   -1.2220   22.2400 N   0  0  0  0  0  0  0  0  0  0  0  0
    8.2950   -0.3200   21.5100 C   0  0  0  0  0  0  0  0  0  0  0  0
    8.6450    0.8290   21.2260 O   0  0  0  0  0  0  0  0  0  0  0  0
    7.0490   -0.7730   21.1330 N   0  0  0  0  0  0  0  0  0  0  0  0
    6.4150   -0.0480   20.0470 C   0  0  0  0  0  0  0  0  0  0  0  0
    5.2460    0.6880   20.2380 C   0  0  0  0  0  0  0  0  0  0  0  0
    4.6000    1.4610   19.0870 C   0  0  0  0  0  0  0  0  0  0  0  0
    5.1690    1.4440   17.8340 C   0  0  0  0  0  0  0  0  0  0  0  0
    6.3100    0.6960   17.7270 N   0  0  0  0  0  0  0  0  0  0  0  0
    6.9430   -0.0370   18.7460 C   0  0  0  0  0  0  0  0  0  0  0  0
   12.6270   -1.0510   22.5090 C   0  0  0  0  0  0  0  0  0  0  0  0
   12.8430    0.2940   22.7720 C   0  0  0  0  0  0  0  0  0  0  0  0
   12.1050    0.7870   23.9350 C   0  0  0  0  0  0  0  0  0  0  0  0
   12.0900    0.0790   24.9150 O   0  0  0  0  0  0  0  0  0  0  0  0
   11.6070   -1.1980   24.5700 C   0  0  0  0  0  0  0  0  0  0  0  0
  1  2  1  0
  3  2  1  0
  3  4  1  6
  4  5  1  0
  5  6  1  0
  6  7  2  0
  6  8  1  0
  8  9  1  0
  9 10  2  0
 10 11  1  0
 11 12  2  0
 12 13  1  0
  9 14  1  0
 13 14  2  0
  3 15  1  0
 15 16  1  0
 16 17  1  0
 17 18  1  0
  3 19  1  0
 18 19  1  0
M  END
