pyridine_urea_6578
     RDKit          3D

 22 23  0  0  0  0  0  0  0  0999 V2000
   11.1730    0.1720   23.8810 C   0  0  0  0  0  0  0  0  0  0  0  0
   12.2360   -0.9120   24.1530 C   0  0  0  0  0  0  0  0  0  0  0  0
   12.9160   -0.9980   25.4710 C   0  0  0  0  0  0  0  0  0  0  0  0
   13.9160   -2.1610   25.6930 C   0  0  0  0  0  0  0  0  0  0  0  0
   12.6360   -1.4030   24.1280 C   0  0  0  0  0  0  0  0  0  0  0  0
   13.0670   -2.3500   23.2340 C   0  0  0  0  0  0  0  0  0  0  0  0
   11.5610   -0.8400   23.1090 C   0  0  0  0  0  0  0  0  0  0  0  0
   10.5420    0.1410   23.0480 C   0  0  0  0  0  0  0  0  0  0  0  0
    9.3150   -0.4510   22.4870 N   0  0  0  0  0  0  0  0  0  0  0  0
    8.6010    0.2440   21.5330 C   0  0  0  0  0  0  0  0  0  0  0  0
    8.9360    1.3830   21.1910 O   0  0  0  0  0  0  0  0  0  0  0  0
    7.5040   -0.4440   21.0460 N   0  0  0  0  0  0  0  0  0  0  0  0
    6.6530    0.1290   20.0870 C   0  0  0  0  0  0  0  0  0  0  0  0
    5.4990    0.9070   20.3840 C   0  0  0  0  0  0  0  0  0  0  0  0
    4.6470    1.5140   19.4050 C   0  0  0  0  0  0  0  0  0  0  0  0
    5.1340    1.2230   17.9980 C   0  0  0  0  0  0  0  0  0  0  0  0
    6.2250    0.4720   17.7360 N   0  0  0  0  0  0  0  0  0  0  0  0
    6.9730   -0.0700   18.7630 C   0  0  0  0  0  0  0  0  0  0  0  0
   11.8750   -1.6200   22.2930 C   0  0  0  0  0  0  0  0  0  0  0  0
   11.5020   -1.9390   21.1150 C   0  0  0  0  0  0  0  0  0  0  0  0
   12.8540   -2.1580   23.0880 C   0  0  0  0  0  0  0  0  0  0  0  0
   12.9600   -2.9640   21.7550 C   0  0  0  0  0  0  0  0  0  0  0  0
  1  2  1  0
  2  3  2  0
  3  4  1  0
  3  5  1  0
  5  6  1  0
  5  7  2  0
  7  8  1  0
  8  9  1  0
  9 10  1  0
 10 11  2  0
 10 12  1  0
 12 13  1  0
 13 14  2  0
 14 15  1  0
 15 16  2  0
 16 17  1  0
 13 18  1  0
 17 18  2  0
  7 19  1  0
 19 20  1  0
  2 21  1  0
 19 21  2  0
 21 22  1  0
M  END
