pyridine_urea_11360
     RDKit          3D

 22 24  0  0  0  0  0  0  0  0999 V2000
    9.8950   -0.4930   25.1710 C   0  0  0  0  0  0  0  0  0  0  0  0
    9.1780   -0.0870   24.0260 O   0  0  0  0  0  0  0  0  0  0  0  0
    9.4920    1.2520   23.7140 C   0  0  0  0  0  0  0  0  0  0  0  0
    9.8800    2.2570   23.1380 O   0  0  0  0  0  0  0  0  0  0  0  0
    9.9230    0.4330   22.4990 C   0  0  2  0  0  0  0  0  0  0  0  0
    8.9150   -0.6170   22.3630 N   0  0  0  0  0  0  0  0  0  0  0  0
    8.0300   -0.0010   21.3650 C   0  0  0  0  0  0  0  0  0  0  0  0
    8.4180    1.2390   20.8740 O   0  0  0  0  0  0  0  0  0  0  0  0
    6.9260   -0.7550   21.0660 N   0  0  0  0  0  0  0  0  0  0  0  0
    6.4660   -0.1430   20.0080 C   0  0  0  0  0  0  0  0  0  0  0  0
    5.1990    0.6670   20.2910 C   0  0  0  0  0  0  0  0  0  0  0  0
    4.5880    1.4110   19.1870 C   0  0  0  0  0  0  0  0  0  0  0  0
    5.1870    1.3300   17.9910 C   0  0  0  0  0  0  0  0  0  0  0  0
    6.3130    0.6060   17.7310 N   0  0  0  0  0  0  0  0  0  0  0  0
    6.9270   -0.1090   18.7170 C   0  0  0  0  0  0  0  0  0  0  0  0
   11.2970   -0.1840   22.7270 C   0  0  0  0  0  0  0  0  0  0  0  0
   11.5080   -1.5030   22.2870 C   0  0  0  0  0  0  0  0  0  0  0  0
   12.7530   -2.1000   22.5130 C   0  0  0  0  0  0  0  0  0  0  0  0
   13.4510   -1.6180   23.7760 C   0  0  2  0  0  0  0  0  0  0  0  0
   12.1490   -1.7820   24.0290 C   0  0  0  0  0  0  0  0  0  0  0  0
   12.7030   -0.3450   24.3170 C   0  0  2  0  0  0  0  0  0  0  0  0
   12.2850    0.5220   23.3790 C   0  0  0  0  0  0  0  0  0  0  0  0
  1  2  1  0
  2  3  1  0
  3  4  2  0
  3  5  1  0
  5  6  1  1
  6  7  1  0
  7  8  2  0
  7  9  1  0
  9 10  1  0
 10 11  2  0
 11 12  1  0
 12 13  2  0
 13 14  1  0
 10 15  1  0
 14 15  2  0
  5 16  1  0
 16 17  2  0
 17 18  1  0
 19 18  1  6
 19 20  1  0
 19 21  1  0
 21 20  1  6
 16 22  1  0
 21 22  1  0
M  END
