pyridine_urea_485
     RDKit          3D

 25 27  0  0  0  0  0  0  0  0999 V2000
   10.8480   -1.9400   21.9730 C   0  0  0  0  0  0  0  0  0  0  0  0
   10.9190   -0.5720   22.6560 C   0  0  0  0  0  0  0  0  0  0  0  0
    9.7250   -0.0310   23.0070 C   0  0  0  0  0  0  0  0  0  0  0  0
    8.5540   -0.8070   22.7240 N   0  0  0  0  0  0  0  0  0  0  0  0
    7.9490   -0.2580   21.5420 C   0  0  0  0  0  0  0  0  0  0  0  0
    8.5360    0.7710   21.1510 O   0  0  0  0  0  0  0  0  0  0  0  0
    6.8450   -0.8470   20.9930 N   0  0  0  0  0  0  0  0  0  0  0  0
    6.2540   -0.0650   19.9450 C   0  0  0  0  0  0  0  0  0  0  0  0
    5.0780    0.6660   20.1690 C   0  0  0  0  0  0  0  0  0  0  0  0
    4.5340    1.4880   18.9830 C   0  0  0  0  0  0  0  0  0  0  0  0
    5.1840    1.4940   17.7620 C   0  0  0  0  0  0  0  0  0  0  0  0
    6.3100    0.7480   17.6520 N   0  0  0  0  0  0  0  0  0  0  0  0
    6.8510   -0.0120   18.6810 C   0  0  0  0  0  0  0  0  0  0  0  0
    9.6300    1.2950   23.6500 C   0  0  0  0  0  0  0  0  0  0  0  0
   10.8250    1.9540   23.8700 C   0  0  0  0  0  0  0  0  0  0  0  0
   12.0820    1.3380   23.5050 C   0  0  0  0  0  0  0  0  0  0  0  0
   12.0940    0.1140   22.9290 C   0  0  0  0  0  0  0  0  0  0  0  0
   13.2280   -0.4380   22.6380 C   0  0  0  0  0  0  0  0  0  0  0  0
   14.1280    0.2780   22.3860 O   0  0  0  0  0  0  0  0  0  0  0  0
   13.2340   -1.7660   22.6790 N   0  0  0  0  0  0  0  0  0  0  0  0
   13.4990   -2.5680   23.7820 C   0  0  0  0  0  0  0  0  0  0  0  0
   13.1240   -2.0970   25.0200 C   0  0  0  0  0  0  0  0  0  0  0  0
   11.4420   -1.5870   24.7870 S   0  0  0  0  0  0  0  0  0  0  0  0
   11.1600   -2.5760   23.2760 C   0  0  0  0  0  0  0  0  0  0  0  0
   12.0260   -2.1790   22.2300 C   0  0  0  0  0  0  0  0  0  0  0  0
  1  2  1  0
  2  3  2  0
  3  4  1  0
  4  5  1  0
  5  6  2  0
  5  7  1  0
  7  8  1  0
  8  9  2  0
  9 10  1  0
 10 11  2  0
 11 12  1  0
  8 13  1  0
 12 13  2  0
  3 14  1  0
 14 15  2  0
 15 16  1  0
  2 17  1  0
 16 17  2  0
 17 18  1  0
 18 19  2  0
 18 20  1  0
 20 21  1  0
 21 22  1  0
 22 23  1  0
 23 24  1  0
 20 25  1  0
 24 25  1  0
M  END
