pyridine_urea_13454
     RDKit          3D

 20 21  0  0  0  0  0  0  0  0999 V2000
    8.8600    1.0130   21.5080 O   0  0  0  0  0  0  0  0  0  0  0  0
    8.5010   -0.1410   21.3330 C   0  0  0  0  0  0  0  0  0  0  0  0
    7.2270   -0.5570   21.0400 N   0  0  0  0  0  0  0  0  0  0  0  0
    6.4360    0.0990   20.0970 C   0  0  0  0  0  0  0  0  0  0  0  0
    5.1250    0.8320   20.4130 C   0  0  0  0  0  0  0  0  0  0  0  0
    4.4740    1.4860   19.1990 C   0  0  0  0  0  0  0  0  0  0  0  0
    5.1670    1.3400   17.8840 C   0  0  0  0  0  0  0  0  0  0  0  0
    6.3130    0.6640   17.7250 N   0  0  0  0  0  0  0  0  0  0  0  0
    6.8940    0.0820   18.7890 C   0  0  0  0  0  0  0  0  0  0  0  0
    9.3750   -1.1900   21.3630 N   0  0  0  0  0  0  0  0  0  0  0  0
   10.3770   -1.2940   22.3700 C   0  0  0  0  0  0  0  0  0  0  0  0
   10.0600   -2.1900   23.4120 C   0  0  0  0  0  0  0  0  0  0  0  0
    9.3530   -3.2860   23.0510 F   0  0  0  0  0  0  0  0  0  0  0  0
    9.3060   -1.6780   24.4150 F   0  0  0  0  0  0  0  0  0  0  0  0
   11.1610   -2.6850   24.0430 F   0  0  0  0  0  0  0  0  0  0  0  0
   10.7210   -0.0700   23.3090 C   0  0  0  0  0  0  0  0  0  0  0  0
   12.3090   -0.6450   23.1640 S   0  0  0  0  0  0  0  0  0  0  0  0
   13.1080    0.3250   22.4570 O   0  0  0  0  0  0  0  0  0  0  0  0
   12.7240   -1.2270   24.4240 O   0  0  0  0  0  0  0  0  0  0  0  0
   11.7490   -1.9580   22.0440 C   0  0  0  0  0  0  0  0  0  0  0  0
  1  2  2  0
  2  3  1  0
  3  4  1  0
  4  5  2  0
  5  6  1  0
  6  7  2  0
  7  8  1  0
  4  9  1  0
  8  9  2  0
  2 10  1  0
 11 10  1  0
 11 12  1  0
 12 13  1  0
 12 14  1  0
 12 15  1  0
 11 16  1  0
 17 16  1  0
 17 18  2  0
 17 19  2  0
 11 20  1  0
 17 20  1  0
M  END
