pyridine_urea_4345
     RDKit          3D

 23 24  0  0  0  0  0  0  0  0999 V2000
    7.6160   -1.0260   29.4090 C   0  0  0  0  0  0  0  0  0  0  0  0
    7.1540   -1.1770   28.0700 O   0  0  0  0  0  0  0  0  0  0  0  0
    7.3900   -0.0130   27.2770 C   0  0  0  0  0  0  0  0  0  0  0  0
    7.0010    1.1110   27.5640 O   0  0  0  0  0  0  0  0  0  0  0  0
    8.1900   -0.3320   26.0170 C   0  0  0  0  0  0  0  0  0  0  0  0
    9.6610    0.0320   26.1780 C   0  0  0  0  0  0  0  0  0  0  0  0
   10.5450   -0.3300   24.9450 C   0  0  0  0  0  0  0  0  0  0  0  0
   12.0860   -0.4260   24.8350 C   0  0  0  0  0  0  0  0  0  0  0  0
   12.6800   -0.8550   23.4820 C   0  0  0  0  0  0  0  0  0  0  0  0
   11.7860   -1.1300   22.4480 C   0  0  0  0  0  0  0  0  0  0  0  0
   12.3330   -1.4860   21.4230 O   0  0  0  0  0  0  0  0  0  0  0  0
   10.4040   -1.0060   22.5990 C   0  0  0  0  0  0  0  0  0  0  0  0
    9.4420   -1.2590   21.5630 N   0  0  0  0  0  0  0  0  0  0  0  0
    8.5320   -0.2540   21.3120 C   0  0  0  0  0  0  0  0  0  0  0  0
    8.9080    0.9120   21.3790 O   0  0  0  0  0  0  0  0  0  0  0  0
    7.2720   -0.6920   20.9830 N   0  0  0  0  0  0  0  0  0  0  0  0
    6.4690   -0.0010   20.0660 C   0  0  0  0  0  0  0  0  0  0  0  0
    5.2810    0.6750   20.3590 C   0  0  0  0  0  0  0  0  0  0  0  0
    4.5910    1.3670   19.2330 C   0  0  0  0  0  0  0  0  0  0  0  0
    5.1690    1.2940   17.9740 C   0  0  0  0  0  0  0  0  0  0  0  0
    6.3060    0.6320   17.7230 N   0  0  0  0  0  0  0  0  0  0  0  0
    6.9130    0.0120   18.7530 C   0  0  0  0  0  0  0  0  0  0  0  0
    9.7320   -0.5920   23.8820 C   0  0  0  0  0  0  0  0  0  0  0  0
  1  2  1  0
  2  3  1  0
  3  4  2  0
  3  5  1  0
  5  6  1  0
  6  7  1  0
  7  8  2  0
  8  9  1  0
  9 10  2  0
 10 11  1  0
 10 12  1  0
 12 13  1  0
 13 14  1  0
 14 15  2  0
 14 16  1  0
 16 17  1  0
 17 18  2  0
 18 19  1  0
 19 20  2  0
 20 21  1  0
 17 22  1  0
 21 22  2  0
  7 23  1  0
 12 23  2  0
M  END
