pyridine_urea_12076
     RDKit          3D

 23 24  0  0  0  0  0  0  0  0999 V2000
    8.9310    0.8260   21.3660 O   0  0  0  0  0  0  0  0  0  0  0  0
    8.4850   -0.3120   21.3200 C   0  0  0  0  0  0  0  0  0  0  0  0
    9.1720   -1.4720   21.5250 N   0  0  0  0  0  0  0  0  0  0  0  0
    8.7700   -2.4620   22.4390 C   0  0  0  0  0  0  0  0  0  0  0  0
    8.1510   -1.9310   23.5460 C   0  0  0  0  0  0  0  0  0  0  0  0
    6.7620   -1.9470   23.6600 C   0  0  0  0  0  0  0  0  0  0  0  0
    6.1740   -1.3860   24.7870 C   0  0  0  0  0  0  0  0  0  0  0  0
    6.8620   -0.8130   25.8000 N   0  0  0  0  0  0  0  0  0  0  0  0
    8.2150   -0.8080   25.6700 C   0  0  0  0  0  0  0  0  0  0  0  0
    8.8900   -1.3550   24.5730 C   0  0  0  0  0  0  0  0  0  0  0  0
   10.3370   -1.2820   24.5860 O   0  0  0  0  0  0  0  0  0  0  0  0
   11.1440   -2.1850   23.9090 C   0  0  0  0  0  0  0  0  0  0  0  0
   12.5550   -2.0470   23.9200 C   0  0  0  0  0  0  0  0  0  0  0  0
   13.0090   -1.1240   23.0290 F   0  0  0  0  0  0  0  0  0  0  0  0
   13.2270   -3.1520   23.5830 F   0  0  0  0  0  0  0  0  0  0  0  0
   13.0660   -1.6980   25.1290 F   0  0  0  0  0  0  0  0  0  0  0  0
    7.1690   -0.5760   21.0150 N   0  0  0  0  0  0  0  0  0  0  0  0
    6.4640    0.0660   20.0650 C   0  0  0  0  0  0  0  0  0  0  0  0
    5.2700    0.7910   20.2570 C   0  0  0  0  0  0  0  0  0  0  0  0
    4.6340    1.4380   19.1730 C   0  0  0  0  0  0  0  0  0  0  0  0
    5.2090    1.3500   17.9080 C   0  0  0  0  0  0  0  0  0  0  0  0
    6.3440    0.6480   17.7530 N   0  0  0  0  0  0  0  0  0  0  0  0
    6.9530    0.0240   18.7770 C   0  0  0  0  0  0  0  0  0  0  0  0
  1  2  2  0
  2  3  1  0
  3  4  1  0
  4  5  1  0
  5  6  2  0
  6  7  1  0
  7  8  2  0
  8  9  1  0
  5 10  1  0
  9 10  2  0
 10 11  1  0
 11 12  1  0
 12 13  1  0
 13 14  1  0
 13 15  1  0
 13 16  1  0
  2 17  1  0
 17 18  1  0
 18 19  2  0
 19 20  1  0
 20 21  2  0
 21 22  1  0
 18 23  1  0
 22 23  2  0
M  END
