pyridine_urea_5865
     RDKit          3D

 23 25  0  0  0  0  0  0  0  0999 V2000
    8.6610    1.3820   21.0310 O   0  0  0  0  0  0  0  0  0  0  0  0
    7.9650    0.4850   21.5210 C   0  0  0  0  0  0  0  0  0  0  0  0
    7.1100   -0.4140   20.8010 N   0  0  0  0  0  0  0  0  0  0  0  0
    6.4000    0.2110   19.8410 C   0  0  0  0  0  0  0  0  0  0  0  0
    5.2030    0.8470   20.1370 C   0  0  0  0  0  0  0  0  0  0  0  0
    4.5480    1.4920   19.0970 C   0  0  0  0  0  0  0  0  0  0  0  0
    5.1240    1.4600   17.8250 C   0  0  0  0  0  0  0  0  0  0  0  0
    6.2740    0.8300   17.5520 N   0  0  0  0  0  0  0  0  0  0  0  0
    6.8830    0.2190   18.5760 C   0  0  0  0  0  0  0  0  0  0  0  0
    7.8270    0.1490   22.8050 N   0  0  0  0  0  0  0  0  0  0  0  0
    8.4670   -1.0530   23.1240 C   0  0  2  0  0  0  0  0  0  0  0  0
    8.7960   -1.4200   24.3670 C   0  0  0  0  0  0  0  0  0  0  0  0
    9.7510   -0.4540   23.8370 C   0  0  1  0  0  0  0  0  0  0  0  0
   10.6080   -0.9080   23.0670 C   0  0  0  0  0  0  0  0  0  0  0  0
   10.1630   -1.8100   22.2020 C   0  0  0  0  0  0  0  0  0  0  0  0
   11.1230   -2.2100   21.4900 C   0  0  0  0  0  0  0  0  0  0  0  0
   12.3030   -1.6610   21.7560 C   0  0  0  0  0  0  0  0  0  0  0  0
   13.4470   -1.8280   21.2950 C   0  0  0  0  0  0  0  0  0  0  0  0
   13.9570   -0.9530   20.4440 F   0  0  0  0  0  0  0  0  0  0  0  0
   13.6320   -3.0220   20.7440 F   0  0  0  0  0  0  0  0  0  0  0  0
   14.0050   -1.7480   22.4990 F   0  0  0  0  0  0  0  0  0  0  0  0
   13.1140   -0.7120   22.5500 C   0  0  0  0  0  0  0  0  0  0  0  0
   11.9010   -0.5920   23.0340 C   0  0  0  0  0  0  0  0  0  0  0  0
  1  2  2  0
  2  3  1  0
  3  4  1  0
  4  5  2  0
  5  6  1  0
  6  7  2  0
  7  8  1  0
  4  9  1  0
  8  9  2  0
  2 10  1  0
 11 10  1  1
 11 12  1  0
 11 13  1  0
 12 13  1  0
 13 14  1  6
 14 15  2  0
 15 16  1  0
 16 17  2  0
 17 18  1  0
 18 19  1  0
 18 20  1  0
 18 21  1  0
 17 22  1  0
 14 23  1  0
 22 23  2  0
M  END
