pyridine_urea_10597
     RDKit          3D

 21 22  0  0  0  0  0  0  0  0999 V2000
   12.8190   -2.9370   21.0670 C   0  0  0  0  0  0  0  0  0  0  0  0
   13.2540   -1.5210   21.4070 C   0  0  0  0  0  0  0  0  0  0  0  0
   12.4250   -0.9660   22.5430 C   0  0  0  0  0  0  0  0  0  0  0  0
   13.2280   -1.2820   23.7660 C   0  0  0  0  0  0  0  0  0  0  0  0
   12.7500   -0.9240   24.9970 C   0  0  0  0  0  0  0  0  0  0  0  0
   13.4020   -1.2040   25.9350 O   0  0  0  0  0  0  0  0  0  0  0  0
   13.8570   -2.5400   25.6240 C   0  0  0  0  0  0  0  0  0  0  0  0
   11.5420   -0.3030   24.7270 C   0  0  0  0  0  0  0  0  0  0  0  0
   10.7380    0.0370   23.7400 C   0  0  0  0  0  0  0  0  0  0  0  0
   11.0010   -0.2320   22.3400 C   0  0  0  0  0  0  0  0  0  0  0  0
    9.8930    0.3910   22.7870 C   0  0  0  0  0  0  0  0  0  0  0  0
    8.7590   -0.4350   22.5130 N   0  0  0  0  0  0  0  0  0  0  0  0
    8.0620    0.1390   21.4040 C   0  0  0  0  0  0  0  0  0  0  0  0
    8.5250    1.3850   20.8820 O   0  0  0  0  0  0  0  0  0  0  0  0
    6.9920   -0.5610   20.9680 N   0  0  0  0  0  0  0  0  0  0  0  0
    6.3560    0.0610   19.9250 C   0  0  0  0  0  0  0  0  0  0  0  0
    5.0460    0.7920   20.1380 C   0  0  0  0  0  0  0  0  0  0  0  0
    4.5120    1.4140   19.0550 C   0  0  0  0  0  0  0  0  0  0  0  0
    5.1330    1.3770   17.8230 C   0  0  0  0  0  0  0  0  0  0  0  0
    6.2890    0.7230   17.6050 N   0  0  0  0  0  0  0  0  0  0  0  0
    6.8650    0.0870   18.6500 C   0  0  0  0  0  0  0  0  0  0  0  0
  1  2  1  0
  2  3  1  0
  3  4  2  0
  4  5  1  0
  5  6  1  0
  6  7  1  0
  5  8  2  0
  8  9  1  0
  3 10  1  0
  9 10  2  0
 10 11  1  0
 11 12  1  0
 12 13  1  0
 13 14  2  0
 13 15  1  0
 15 16  1  0
 16 17  2  0
 17 18  1  0
 18 19  2  0
 19 20  1  0
 16 21  1  0
 20 21  2  0
M  END
