pyridine_urea_9009
     RDKit          3D

 19 19  0  0  0  0  0  0  0  0999 V2000
   12.0230   -2.7260   24.5780 C   0  0  0  0  0  0  0  0  0  0  0  0
   11.6770   -2.5130   23.2720 N   0  0  0  0  0  0  0  0  0  0  0  0
   12.9670   -2.1090   22.3270 S   0  0  0  0  0  0  0  0  0  0  0  0
   14.0400   -2.5390   23.1730 O   0  0  0  0  0  0  0  0  0  0  0  0
   12.8170   -2.5540   20.9610 O   0  0  0  0  0  0  0  0  0  0  0  0
   12.9140   -0.4520   22.3970 N   0  0  0  0  0  0  0  0  0  0  0  0
   12.2500    0.1550   23.3650 C   0  0  0  0  0  0  0  0  0  0  0  0
   10.7410   -0.1180   23.5280 C   0  0  0  0  0  0  0  0  0  0  0  0
   10.1040   -0.9500   22.6330 C   0  0  0  0  0  0  0  0  0  0  0  0
    8.7760   -0.9670   22.3650 N   0  0  0  0  0  0  0  0  0  0  0  0
    8.1440   -0.1270   21.4610 C   0  0  0  0  0  0  0  0  0  0  0  0
    8.5810    0.9770   21.1600 O   0  0  0  0  0  0  0  0  0  0  0  0
    6.9870   -0.7160   20.9860 N   0  0  0  0  0  0  0  0  0  0  0  0
    6.3100    0.0080   20.0080 C   0  0  0  0  0  0  0  0  0  0  0  0
    5.1340    0.7140   20.1560 C   0  0  0  0  0  0  0  0  0  0  0  0
    4.5730    1.4080   19.1020 C   0  0  0  0  0  0  0  0  0  0  0  0
    5.1870    1.4070   17.8720 C   0  0  0  0  0  0  0  0  0  0  0  0
    6.3430    0.7200   17.6790 N   0  0  0  0  0  0  0  0  0  0  0  0
    6.8500    0.0570   18.7370 C   0  0  0  0  0  0  0  0  0  0  0  0
  1  2  1  0
  3  2  1  0
  3  4  2  0
  3  5  2  0
  3  6  1  0
  6  7  1  0
  7  8  1  0
  8  9  1  0
  9 10  1  0
 10 11  1  0
 11 12  2  0
 11 13  1  0
 13 14  1  0
 14 15  2  0
 15 16  1  0
 16 17  2  0
 17 18  1  0
 14 19  1  0
 18 19  2  0
M  END
