pyridine_urea_4719
     RDKit          3D

 22 24  0  0  0  0  0  0  0  0999 V2000
    8.3080    1.5520   20.7770 O   0  0  0  0  0  0  0  0  0  0  0  0
    8.2690    0.4480   21.2970 C   0  0  0  0  0  0  0  0  0  0  0  0
    7.2690   -0.4330   21.0240 N   0  0  0  0  0  0  0  0  0  0  0  0
    6.5780    0.0900   19.9100 C   0  0  0  0  0  0  0  0  0  0  0  0
    5.3230    0.9080   20.2290 C   0  0  0  0  0  0  0  0  0  0  0  0
    4.6050    1.4960   19.2010 C   0  0  0  0  0  0  0  0  0  0  0  0
    5.0790    1.3050   17.9110 C   0  0  0  0  0  0  0  0  0  0  0  0
    6.1970    0.5540   17.6770 N   0  0  0  0  0  0  0  0  0  0  0  0
    6.9610   -0.0650   18.6540 C   0  0  0  0  0  0  0  0  0  0  0  0
    9.1860    0.0280   22.1530 N   0  0  0  0  0  0  0  0  0  0  0  0
   10.1160   -0.2320   23.0310 C   0  0  1  0  0  0  0  0  0  0  0  0
    9.6110   -0.7290   24.1900 C   0  0  0  0  0  0  0  0  0  0  0  0
    9.9850   -0.0370   25.3710 C   0  0  0  0  0  0  0  0  0  0  0  0
    9.2890   -0.7820   26.3880 C   0  0  0  0  0  0  0  0  0  0  0  0
    8.4490   -1.9020   26.3390 C   0  0  0  0  0  0  0  0  0  0  0  0
    8.1640   -2.5110   25.0600 C   0  0  0  0  0  0  0  0  0  0  0  0
    8.7060   -1.9750   23.9740 C   0  0  0  0  0  0  0  0  0  0  0  0
   11.2590   -0.9290   22.8980 C   0  0  2  0  0  0  0  0  0  0  0  0
   12.2630   -0.1270   23.3430 C   0  0  0  0  0  0  0  0  0  0  0  0
   13.4760   -0.6040   22.7290 C   0  0  0  0  0  0  0  0  0  0  0  0
   13.1180   -1.5030   21.7640 C   0  0  0  0  0  0  0  0  0  0  0  0
   11.7620   -1.3980   21.6280 O   0  0  0  0  0  0  0  0  0  0  0  0
  1  2  2  0
  2  3  1  0
  3  4  1  0
  4  5  2  0
  5  6  1  0
  6  7  2  0
  7  8  1  0
  4  9  1  0
  8  9  2  0
  2 10  1  0
 11 10  1  6
 11 12  1  0
 12 13  2  0
 13 14  1  0
 14 15  2  0
 15 16  1  0
 12 17  1  0
 16 17  2  0
 11 18  1  0
 18 19  1  6
 19 20  1  0
 20 21  1  0
 18 22  1  0
 21 22  1  0
M  END
