pyridine_urea_2971
     RDKit          3D

 21 22  0  0  0  0  0  0  0  0999 V2000
   11.0660   -2.1160   21.7380 C   0  0  0  0  0  0  0  0  0  0  0  0
   11.1370   -0.6780   21.8720 O   0  0  0  0  0  0  0  0  0  0  0  0
   11.1560   -0.1850   23.2220 C   0  0  0  0  0  0  0  0  0  0  0  0
   10.3090   -0.4020   24.0970 O   0  0  0  0  0  0  0  0  0  0  0  0
   12.4390    0.6690   23.5470 C   0  0  0  0  0  0  0  0  0  0  0  0
   11.4610    1.4360   23.9350 C   0  0  0  0  0  0  0  0  0  0  0  0
   10.2400    0.7150   23.5480 C   0  0  0  0  0  0  0  0  0  0  0  0
   10.4600   -0.5450   22.8920 C   0  0  0  0  0  0  0  0  0  0  0  0
    9.1350   -1.1420   22.5200 N   0  0  0  0  0  0  0  0  0  0  0  0
    8.3830   -0.2470   21.6070 C   0  0  0  0  0  0  0  0  0  0  0  0
    8.8260    0.8300   21.2260 O   0  0  0  0  0  0  0  0  0  0  0  0
    7.0950   -0.7690   21.2410 N   0  0  0  0  0  0  0  0  0  0  0  0
    6.4920   -0.1020   20.1670 C   0  0  0  0  0  0  0  0  0  0  0  0
    5.2150    0.6760   20.4700 C   0  0  0  0  0  0  0  0  0  0  0  0
    4.5760    1.4030   19.2860 C   0  0  0  0  0  0  0  0  0  0  0  0
    5.2840    1.2710   17.9500 C   0  0  0  0  0  0  0  0  0  0  0  0
    6.4080    0.5500   17.8110 N   0  0  0  0  0  0  0  0  0  0  0  0
    6.9670   -0.0970   18.8670 C   0  0  0  0  0  0  0  0  0  0  0  0
   11.7470   -1.2830   22.5400 C   0  0  0  0  0  0  0  0  0  0  0  0
   13.0680   -1.7140   22.3490 C   0  0  0  0  0  0  0  0  0  0  0  0
   12.7550   -0.4420   22.9890 N   0  0  0  0  0  0  0  0  0  0  0  0
  1  2  1  0
  2  3  1  0
  3  4  2  0
  3  5  1  0
  5  6  2  0
  6  7  1  0
  7  8  2  0
  8  9  1  0
  9 10  1  0
 10 11  2  0
 10 12  1  0
 12 13  1  0
 13 14  2  0
 14 15  1  0
 15 16  2  0
 16 17  1  0
 13 18  1  0
 17 18  2  0
  8 19  1  0
 19 20  1  0
  5 21  1  0
 19 21  2  0
M  END
