pyridine_urea_3013
     RDKit          3D

 21 22  0  0  0  0  0  0  0  0999 V2000
   13.6800   -2.8170   23.1670 C   0  0  0  0  0  0  0  0  0  0  0  0
   13.2630   -2.2510   24.4670 C   0  0  0  0  0  0  0  0  0  0  0  0
   14.1150   -2.6180   25.7300 C   0  0  0  0  0  0  0  0  0  0  0  0
   13.4180   -0.9070   24.1010 O   0  0  0  0  0  0  0  0  0  0  0  0
   12.1600   -0.7040   23.8480 C   0  0  0  0  0  0  0  0  0  0  0  0
   11.3870   -0.3630   25.0680 C   0  0  0  0  0  0  0  0  0  0  0  0
   10.0320   -0.1550   25.0370 C   0  0  0  0  0  0  0  0  0  0  0  0
    8.9600    0.2580   26.5450 Br  0  0  0  0  0  0  0  0  0  0  0  0
    9.4040   -0.3030   23.6940 C   0  0  0  0  0  0  0  0  0  0  0  0
   10.2450   -0.6620   22.5040 C   0  0  0  0  0  0  0  0  0  0  0  0
    9.3950   -0.7730   21.3710 N   0  0  0  0  0  0  0  0  0  0  0  0
    8.4610    0.1920   21.2220 C   0  0  0  0  0  0  0  0  0  0  0  0
    8.7380    1.3930   21.2060 O   0  0  0  0  0  0  0  0  0  0  0  0
    7.1880   -0.3500   21.0320 N   0  0  0  0  0  0  0  0  0  0  0  0
    6.4830    0.1950   20.0130 C   0  0  0  0  0  0  0  0  0  0  0  0
    5.1840    0.9460   20.3130 C   0  0  0  0  0  0  0  0  0  0  0  0
    4.5060    1.5560   19.0890 C   0  0  0  0  0  0  0  0  0  0  0  0
    5.0880    1.3940   17.8460 C   0  0  0  0  0  0  0  0  0  0  0  0
    6.2360    0.6960   17.6770 N   0  0  0  0  0  0  0  0  0  0  0  0
    6.9190    0.1100   18.7150 C   0  0  0  0  0  0  0  0  0  0  0  0
   11.6050   -0.8480   22.5950 C   0  0  0  0  0  0  0  0  0  0  0  0
  1  2  1  0
  2  3  1  0
  2  4  1  0
  4  5  1  0
  5  6  2  0
  6  7  1  0
  7  8  1  0
  7  9  2  0
  9 10  1  0
 10 11  1  0
 11 12  1  0
 12 13  2  0
 12 14  1  0
 14 15  1  0
 15 16  2  0
 16 17  1  0
 17 18  2  0
 18 19  1  0
 15 20  1  0
 19 20  2  0
  5 21  1  0
 10 21  2  0
M  END
