pyridine_urea_6349
     RDKit          3D

 23 24  0  0  0  0  0  0  0  0999 V2000
    9.2890    0.1930   29.5480 C   0  0  0  0  0  0  0  0  0  0  0  0
    8.3880   -0.4620   29.0960 C   0  0  0  0  0  0  0  0  0  0  0  0
    8.8360   -0.8780   27.7790 O   0  0  0  0  0  0  0  0  0  0  0  0
    7.8820   -1.3380   26.9170 C   0  0  0  0  0  0  0  0  0  0  0  0
    7.2410   -2.3690   27.1080 O   0  0  0  0  0  0  0  0  0  0  0  0
    7.7150   -0.4380   25.7340 C   0  0  0  0  0  0  0  0  0  0  0  0
    8.4690   -0.8120   24.6280 C   0  0  0  0  0  0  0  0  0  0  0  0
    9.8220   -1.1200   24.3820 C   0  0  0  0  0  0  0  0  0  0  0  0
   10.5410   -1.5170   23.0920 C   0  0  0  0  0  0  0  0  0  0  0  0
   10.2050   -1.7240   21.8330 C   0  0  0  0  0  0  0  0  0  0  0  0
    8.9010   -1.6030   21.2740 C   0  0  0  0  0  0  0  0  0  0  0  0
    8.5660   -0.4860   22.0860 N   0  0  0  0  0  0  0  0  0  0  0  0
    8.0720    0.5220   21.3890 C   0  0  0  0  0  0  0  0  0  0  0  0
    8.7190    1.5910   21.0980 O   0  0  0  0  0  0  0  0  0  0  0  0
    6.8210    0.1490   21.0640 N   0  0  0  0  0  0  0  0  0  0  0  0
    6.2670    0.5600   19.9000 C   0  0  0  0  0  0  0  0  0  0  0  0
    5.1260    1.2990   19.9900 C   0  0  0  0  0  0  0  0  0  0  0  0
    4.2510    1.9480   18.9320 C   0  0  0  0  0  0  0  0  0  0  0  0
    5.0970    1.4850   17.7510 C   0  0  0  0  0  0  0  0  0  0  0  0
    6.2150    0.7480   17.6140 N   0  0  0  0  0  0  0  0  0  0  0  0
    6.7720    0.2990   18.6960 C   0  0  0  0  0  0  0  0  0  0  0  0
    8.7380   -1.3390   22.3820 C   0  0  0  0  0  0  0  0  0  0  0  0
    7.9450   -0.9580   23.4730 C   0  0  0  0  0  0  0  0  0  0  0  0
  1  2  1  0
  2  3  1  0
  3  4  1  0
  4  5  2  0
  4  6  1  0
  6  7  1  0
  7  8  2  0
  8  9  1  0
  9 10  2  0
 10 11  1  0
 11 12  1  0
 12 13  1  0
 13 14  2  0
 13 15  1  0
 15 16  1  0
 16 17  2  0
 17 18  1  0
 18 19  2  0
 19 20  1  0
 16 21  1  0
 20 21  2  0
 10 22  1  0
  7 23  1  0
 22 23  2  0
M  END
