pyridine_urea_6570
     RDKit          3D

 22 25  0  0  0  0  0  0  0  0999 V2000
    8.5220    1.3330   21.1510 O   0  0  0  0  0  0  0  0  0  0  0  0
    8.1480    0.1900   21.4570 C   0  0  0  0  0  0  0  0  0  0  0  0
    8.8970   -0.6860   22.1570 N   0  0  0  0  0  0  0  0  0  0  0  0
   10.2400   -0.6860   21.8670 C   0  0  0  0  0  0  0  0  0  0  0  0
   11.2510   -1.6770   22.3450 C   0  0  2  0  0  0  0  0  0  0  0  0
   11.4320   -2.4990   21.4500 O   0  0  0  0  0  0  0  0  0  0  0  0
   10.7500   -1.9960   23.7170 C   0  0  2  0  0  0  0  0  0  0  0  0
   10.4920   -0.6930   24.3820 C   0  0  0  0  0  0  0  0  0  0  0  0
   11.6240    0.0960   24.3180 C   0  0  1  0  0  0  0  0  0  0  0  0
   12.6480   -0.5400   24.9570 C   0  0  0  0  0  0  0  0  0  0  0  0
   12.7710   -1.9180   24.7240 C   0  0  1  0  0  0  0  0  0  0  0  0
   11.6460   -2.6830   24.4680 C   0  0  0  0  0  0  0  0  0  0  0  0
   12.3770   -2.1280   23.2630 C   0  0  0  0  0  0  0  0  0  0  0  0
   12.5840   -0.9120   22.5450 C   0  0  2  0  0  0  0  0  0  0  0  0
   12.2140    0.3570   23.0730 C   0  0  0  0  0  0  0  0  0  0  0  0
    6.9590   -0.3570   21.0940 N   0  0  0  0  0  0  0  0  0  0  0  0
    6.3450    0.1890   20.0170 C   0  0  0  0  0  0  0  0  0  0  0  0
    5.1680    0.8760   20.1810 C   0  0  0  0  0  0  0  0  0  0  0  0
    4.5500    1.4640   19.0950 C   0  0  0  0  0  0  0  0  0  0  0  0
    5.1320    1.3500   17.8480 C   0  0  0  0  0  0  0  0  0  0  0  0
    6.2730    0.6750   17.6580 N   0  0  0  0  0  0  0  0  0  0  0  0
    6.8520    0.1080   18.7390 C   0  0  0  0  0  0  0  0  0  0  0  0
  1  2  2  0
  2  3  1  0
  3  4  1  0
  4  5  1  0
  5  6  1  6
  5  7  1  0
  7  8  1  1
  9  8  1  6
  9 10  1  0
 11 10  1  1
  7 12  1  0
 11 12  1  0
 11 13  1  0
  5 14  1  0
 14 13  1  1
  9 15  1  0
 14 15  1  0
  2 16  1  0
 16 17  1  0
 17 18  2  0
 18 19  1  0
 19 20  2  0
 20 21  1  0
 17 22  1  0
 21 22  2  0
M  END
