pyridine_urea_6070
     RDKit          3D

 25 26  0  0  0  0  0  0  0  0999 V2000
   13.4240   -3.7230   20.4900 C   0  0  0  0  0  0  0  0  0  0  0  0
   13.1510   -2.4590   21.2090 C   0  0  0  0  0  0  0  0  0  0  0  0
   13.3250   -2.5190   22.5790 C   0  0  0  0  0  0  0  0  0  0  0  0
   11.9870   -2.7040   23.0670 N   0  0  0  0  0  0  0  0  0  0  0  0
   11.0620   -2.0680   22.3870 C   0  0  0  0  0  0  0  0  0  0  0  0
   10.2990   -2.5040   21.5420 O   0  0  0  0  0  0  0  0  0  0  0  0
   11.0430   -0.7920   22.7890 C   0  0  0  0  0  0  0  0  0  0  0  0
   12.3400   -0.1650   23.1080 C   0  0  0  0  0  0  0  0  0  0  0  0
   12.3070    1.2190   23.6070 C   0  0  0  0  0  0  0  0  0  0  0  0
   10.9610    1.8940   23.7620 C   0  0  0  0  0  0  0  0  0  0  0  0
    9.8180    1.2130   23.4130 C   0  0  0  0  0  0  0  0  0  0  0  0
    9.8880   -0.0870   22.9360 C   0  0  0  0  0  0  0  0  0  0  0  0
    8.6640   -0.6010   22.6160 N   0  0  0  0  0  0  0  0  0  0  0  0
    8.0400   -0.0570   21.5250 C   0  0  0  0  0  0  0  0  0  0  0  0
    8.4320    1.0020   21.0510 O   0  0  0  0  0  0  0  0  0  0  0  0
    7.0020   -0.7660   21.0630 N   0  0  0  0  0  0  0  0  0  0  0  0
    6.3550   -0.0770   20.0930 C   0  0  0  0  0  0  0  0  0  0  0  0
    5.1750    0.6490   20.2550 C   0  0  0  0  0  0  0  0  0  0  0  0
    4.6110    1.3400   19.1680 C   0  0  0  0  0  0  0  0  0  0  0  0
    5.1950    1.3320   17.9060 C   0  0  0  0  0  0  0  0  0  0  0  0
    6.3350    0.6300   17.7300 N   0  0  0  0  0  0  0  0  0  0  0  0
    6.9060   -0.0750   18.8280 C   0  0  0  0  0  0  0  0  0  0  0  0
   12.0770   -2.5390   24.4890 C   0  0  0  0  0  0  0  0  0  0  0  0
   10.8780   -1.9130   24.8730 C   0  0  0  0  0  0  0  0  0  0  0  0
   13.2390   -1.6960   24.9710 C   0  0  0  0  0  0  0  0  0  0  0  0
  1  2  1  0
  2  3  1  0
  3  4  1  0
  4  5  1  0
  5  6  2  0
  5  7  1  0
  7  8  2  0
  8  9  1  0
  9 10  2  0
 10 11  1  0
  7 12  1  0
 11 12  2  0
 12 13  1  0
 13 14  1  0
 14 15  2  0
 14 16  1  0
 16 17  1  0
 17 18  2  0
 18 19  1  0
 19 20  2  0
 20 21  1  0
 17 22  1  0
 21 22  2  0
  4 23  1  0
 23 24  1  0
 23 25  1  0
M  END
