pyridine_urea_7415
     RDKit          3D

 17 18  0  0  0  0  0  0  0  0999 V2000
    9.6890    1.6370   23.1380 C   0  0  0  0  0  0  0  0  0  0  0  0
   10.9300    0.7290   23.0840 C   0  0  0  0  0  0  0  0  0  0  0  0
   12.2050    1.1740   22.8780 C   0  0  0  0  0  0  0  0  0  0  0  0
   13.1990    0.2580   22.8420 C   0  0  0  0  0  0  0  0  0  0  0  0
   12.6470   -1.3510   23.0840 S   0  0  0  0  0  0  0  0  0  0  0  0
   10.9730   -0.8260   23.2400 C   0  0  0  0  0  0  0  0  0  0  0  0
    9.8170   -1.5850   23.4630 C   0  0  0  0  0  0  0  0  0  0  0  0
    8.6340   -0.9940   22.8740 N   0  0  0  0  0  0  0  0  0  0  0  0
    8.6890   -0.2770   21.7500 C   0  0  0  0  0  0  0  0  0  0  0  0
    9.6650    0.3010   21.3750 O   0  0  0  0  0  0  0  0  0  0  0  0
    7.6040   -0.1770   21.0150 N   0  0  0  0  0  0  0  0  0  0  0  0
    6.7400    0.2580   20.0550 C   0  0  0  0  0  0  0  0  0  0  0  0
    5.5890    0.9790   20.4070 C   0  0  0  0  0  0  0  0  0  0  0  0
    4.7660    1.4290   19.3940 C   0  0  0  0  0  0  0  0  0  0  0  0
    5.0760    1.1720   18.0860 C   0  0  0  0  0  0  0  0  0  0  0  0
    6.1520    0.4780   17.7080 N   0  0  0  0  0  0  0  0  0  0  0  0
    6.9560    0.0360   18.7020 C   0  0  0  0  0  0  0  0  0  0  0  0
  1  2  1  0
  2  3  1  0
  3  4  2  0
  4  5  1  0
  2  6  2  0
  5  6  1  0
  6  7  1  0
  7  8  1  0
  8  9  1  0
  9 10  2  0
  9 11  1  0
 11 12  1  0
 12 13  2  0
 13 14  1  0
 14 15  2  0
 15 16  1  0
 12 17  1  0
 16 17  2  0
M  END
