pyridine_urea_6190
     RDKit          3D

 24 25  0  0  0  0  0  0  0  0999 V2000
    8.1740    0.1290   25.8130 C   0  0  0  0  0  0  0  0  0  0  0  0
    7.8060    0.9380   25.0070 C   0  0  0  0  0  0  0  0  0  0  0  0
    8.5880    0.6990   23.8010 O   0  0  0  0  0  0  0  0  0  0  0  0
    9.9110    1.0610   23.8110 C   0  0  0  0  0  0  0  0  0  0  0  0
    9.5400    2.1320   24.2880 O   0  0  0  0  0  0  0  0  0  0  0  0
    9.9000   -0.3180   23.2470 C   0  0  1  0  0  0  0  0  0  0  0  0
   10.0800   -1.2670   24.2090 C   0  0  0  0  0  0  0  0  0  0  0  0
   11.4390   -1.4500   24.8250 C   0  0  0  0  0  0  0  0  0  0  0  0
   12.1820   -1.2910   23.6940 C   0  0  0  0  0  0  0  0  0  0  0  0
   12.1330   -2.3640   22.8600 C   0  0  0  0  0  0  0  0  0  0  0  0
   12.9340   -2.0730   21.6470 C   0  0  0  0  0  0  0  0  0  0  0  0
   13.5730   -0.9070   21.5000 C   0  0  0  0  0  0  0  0  0  0  0  0
   13.5780    0.1280   22.4080 C   0  0  0  0  0  0  0  0  0  0  0  0
   12.8960   -0.0350   23.4900 C   0  0  0  0  0  0  0  0  0  0  0  0
    8.6210   -0.6100   22.6560 N   0  0  0  0  0  0  0  0  0  0  0  0
    8.2290    0.0450   21.5220 C   0  0  0  0  0  0  0  0  0  0  0  0
    8.8270    1.2740   21.0810 O   0  0  0  0  0  0  0  0  0  0  0  0
    7.1490   -0.6880   20.9030 N   0  0  0  0  0  0  0  0  0  0  0  0
    6.4100    0.0250   19.9670 C   0  0  0  0  0  0  0  0  0  0  0  0
    5.1340    0.7660   20.2190 C   0  0  0  0  0  0  0  0  0  0  0  0
    4.5480    1.4380   19.1450 C   0  0  0  0  0  0  0  0  0  0  0  0
    5.1720    1.3900   17.9010 C   0  0  0  0  0  0  0  0  0  0  0  0
    6.3150    0.7200   17.6680 N   0  0  0  0  0  0  0  0  0  0  0  0
    6.8960    0.0640   18.6850 C   0  0  0  0  0  0  0  0  0  0  0  0
  1  2  1  0
  2  3  1  0
  3  4  1  0
  4  5  2  0
  4  6  1  0
  6  7  1  1
  7  8  1  0
  8  9  1  0
  9 10  2  0
 10 11  1  0
 11 12  2  0
 12 13  1  0
  9 14  1  0
 13 14  2  0
  6 15  1  0
 15 16  1  0
 16 17  2  0
 16 18  1  0
 18 19  1  0
 19 20  2  0
 20 21  1  0
 21 22  2  0
 22 23  1  0
 19 24  1  0
 23 24  2  0
M  END
