pyridine_urea_12610
     RDKit          3D

 21 22  0  0  0  0  0  0  0  0999 V2000
    8.7470    1.5980   20.9990 O   0  0  0  0  0  0  0  0  0  0  0  0
    8.3220    0.6290   21.6130 C   0  0  0  0  0  0  0  0  0  0  0  0
    7.3200   -0.2110   21.1490 N   0  0  0  0  0  0  0  0  0  0  0  0
    6.5520    0.3040   20.0490 C   0  0  0  0  0  0  0  0  0  0  0  0
    5.2610    1.1160   20.3610 C   0  0  0  0  0  0  0  0  0  0  0  0
    4.5650    1.6190   19.2790 C   0  0  0  0  0  0  0  0  0  0  0  0
    5.1440    1.3180   17.8960 C   0  0  0  0  0  0  0  0  0  0  0  0
    6.2600    0.5980   17.6780 N   0  0  0  0  0  0  0  0  0  0  0  0
    6.9270    0.1130   18.7380 C   0  0  0  0  0  0  0  0  0  0  0  0
    8.7560    0.2360   22.8400 N   0  0  0  0  0  0  0  0  0  0  0  0
    9.5390   -0.9590   22.8520 C   0  0  1  0  0  0  0  0  0  0  0  0
    9.8290   -1.3840   21.4790 C   0  0  0  0  0  0  0  0  0  0  0  0
    9.9980   -2.7880   21.4080 O   0  0  0  0  0  0  0  0  0  0  0  0
   10.6420   -0.7890   23.7790 C   0  0  0  0  0  0  0  0  0  0  0  0
   10.4670   -0.4800   25.0340 C   0  0  0  0  0  0  0  0  0  0  0  0
    9.2260   -0.1340   26.1740 Cl  0  0  0  0  0  0  0  0  0  0  0  0
   11.9730   -0.6290   24.8030 C   0  0  0  0  0  0  0  0  0  0  0  0
   11.3540   -0.9170   23.2110 C   0  0  0  0  0  0  0  0  0  0  0  0
   12.6780   -1.0730   22.8160 C   0  0  0  0  0  0  0  0  0  0  0  0
   12.0800   -0.8410   23.8770 C   0  0  0  0  0  0  0  0  0  0  0  0
   12.8820   -0.6470   25.2990 Cl  0  0  0  0  0  0  0  0  0  0  0  0
  1  2  2  0
  2  3  1  0
  3  4  1  0
  4  5  2  0
  5  6  1  0
  6  7  2  0
  7  8  1  0
  4  9  1  0
  8  9  2  0
  2 10  1  0
 10 11  1  0
 11 12  1  6
 12 13  1  0
 11 14  1  0
 14 15  2  0
 15 16  1  0
 15 17  1  0
 17 18  2  0
 18 19  1  0
 14 20  1  0
 19 20  2  0
 20 21  1  0
M  END
