pyridine_urea_11391
     RDKit          3D

 22 23  0  0  0  0  0  0  0  0999 V2000
   12.1960   -2.9200   20.9660 C   0  0  0  0  0  0  0  0  0  0  0  0
   12.7040   -2.3820   22.1630 O   0  0  0  0  0  0  0  0  0  0  0  0
   13.2670   -1.1430   21.8020 C   0  0  0  0  0  0  0  0  0  0  0  0
   13.7810   -0.9740   20.7090 O   0  0  0  0  0  0  0  0  0  0  0  0
   13.1240   -0.1260   22.9110 C   0  0  0  0  0  0  0  0  0  0  0  0
   11.7260    0.0020   23.2980 C   0  0  2  0  0  0  0  0  0  0  0  0
   10.8260   -1.0010   23.3340 C   0  0  0  0  0  0  0  0  0  0  0  0
    9.9260   -1.3950   22.1990 C   0  0  0  0  0  0  0  0  0  0  0  0
    8.6070   -0.8490   22.4540 N   0  0  0  0  0  0  0  0  0  0  0  0
    8.1080    0.0400   21.5650 C   0  0  0  0  0  0  0  0  0  0  0  0
    8.7920    1.2460   21.1620 O   0  0  0  0  0  0  0  0  0  0  0  0
    6.8260   -0.4270   21.1290 N   0  0  0  0  0  0  0  0  0  0  0  0
    6.3170    0.1750   19.9330 C   0  0  0  0  0  0  0  0  0  0  0  0
    5.0770    0.9840   20.1400 C   0  0  0  0  0  0  0  0  0  0  0  0
    4.5520    1.6130   19.0320 C   0  0  0  0  0  0  0  0  0  0  0  0
    5.1130    1.5280   17.7700 C   0  0  0  0  0  0  0  0  0  0  0  0
    6.3090    0.7240   17.6100 N   0  0  0  0  0  0  0  0  0  0  0  0
    6.8580    0.0830   18.6790 C   0  0  0  0  0  0  0  0  0  0  0  0
   11.0460    1.0020   24.3910 C   0  0  0  0  0  0  0  0  0  0  0  0
   11.5640   -0.2350   24.7410 C   0  0  0  0  0  0  0  0  0  0  0  0
   10.7470   -1.1780   25.1970 F   0  0  0  0  0  0  0  0  0  0  0  0
   12.6690   -0.3070   25.4960 F   0  0  0  0  0  0  0  0  0  0  0  0
  1  2  1  0
  2  3  1  0
  3  4  2  0
  3  5  1  0
  6  5  1  1
  6  7  1  0
  7  8  1  0
  8  9  1  0
  9 10  1  0
 10 11  2  0
 10 12  1  0
 12 13  1  0
 13 14  2  0
 14 15  1  0
 15 16  2  0
 16 17  1  0
 13 18  1  0
 17 18  2  0
  6 19  1  0
  6 20  1  0
 19 20  1  0
 20 21  1  0
 20 22  1  0
M  END
