pyridine_urea_14422
     RDKit          3D

 21 23  0  0  0  0  0  0  0  0999 V2000
    8.6750    1.5030   21.2270 O   0  0  0  0  0  0  0  0  0  0  0  0
    8.4100    0.3040   21.2450 C   0  0  0  0  0  0  0  0  0  0  0  0
    7.0590   -0.2130   21.1650 N   0  0  0  0  0  0  0  0  0  0  0  0
    6.3850    0.3010   20.0850 C   0  0  0  0  0  0  0  0  0  0  0  0
    5.2100    1.0170   20.2700 C   0  0  0  0  0  0  0  0  0  0  0  0
    4.5800    1.5440   19.1490 C   0  0  0  0  0  0  0  0  0  0  0  0
    5.1500    1.3340   17.8940 C   0  0  0  0  0  0  0  0  0  0  0  0
    6.2780    0.6350   17.7020 N   0  0  0  0  0  0  0  0  0  0  0  0
    6.8740    0.1290   18.8010 C   0  0  0  0  0  0  0  0  0  0  0  0
    9.2870   -0.7240   21.2690 N   0  0  0  0  0  0  0  0  0  0  0  0
   10.2470   -0.9330   22.2990 C   0  0  0  0  0  0  0  0  0  0  0  0
   11.5370   -1.5840   21.8580 C   0  0  0  0  0  0  0  0  0  0  0  0
   12.4400   -1.8470   22.8150 C   0  0  0  0  0  0  0  0  0  0  0  0
   12.1500   -1.5220   24.1290 C   0  0  0  0  0  0  0  0  0  0  0  0
   13.4680   -2.0760   25.3010 Br  0  0  0  0  0  0  0  0  0  0  0  0
   10.9520   -0.8750   24.5310 C   0  0  0  0  0  0  0  0  0  0  0  0
   10.0130   -0.5920   23.6080 C   0  0  0  0  0  0  0  0  0  0  0  0
    8.9680   -0.0820   23.8840 O   0  0  0  0  0  0  0  0  0  0  0  0
    8.5560   -0.4510   25.1810 C   0  0  0  0  0  0  0  0  0  0  0  0
    9.5560   -0.0230   26.0570 C   0  0  0  0  0  0  0  0  0  0  0  0
   10.7910   -0.6160   25.7200 O   0  0  0  0  0  0  0  0  0  0  0  0
  1  2  2  0
  2  3  1  0
  3  4  1  0
  4  5  2  0
  5  6  1  0
  6  7  2  0
  7  8  1  0
  4  9  1  0
  8  9  2  0
  2 10  1  0
 10 11  1  0
 11 12  2  0
 12 13  1  0
 13 14  2  0
 14 15  1  0
 14 16  1  0
 11 17  1  0
 16 17  2  0
 17 18  1  0
 18 19  1  0
 19 20  1  0
 16 21  1  0
 20 21  1  0
M  END
