pyridine_urea_5404
     RDKit          3D

 18 21  0  0  0  0  0  0  0  0999 V2000
    8.8130    0.8830   21.5920 O   0  0  0  0  0  0  0  0  0  0  0  0
    8.4270   -0.2590   21.4070 C   0  0  0  0  0  0  0  0  0  0  0  0
    9.2590   -1.3490   21.4510 N   0  0  0  0  0  0  0  0  0  0  0  0
    9.7220   -1.9740   22.6670 C   0  0  0  0  0  0  0  0  0  0  0  0
   11.1660   -1.6020   23.1240 C   0  0  1  0  0  0  0  0  0  0  0  0
   11.4250   -1.5870   24.4830 C   0  0  0  0  0  0  0  0  0  0  0  0
   12.2780   -0.3400   24.5080 C   0  0  1  0  0  0  0  0  0  0  0  0
   13.2120   -0.6150   23.5410 C   0  0  0  0  0  0  0  0  0  0  0  0
   12.2890   -0.9080   22.3930 C   0  0  2  0  0  0  0  0  0  0  0  0
   11.2150   -0.1050   22.5530 C   0  0  2  0  0  0  0  0  0  0  0  0
   11.4560    0.5860   23.8780 C   0  0  0  0  0  0  0  0  0  0  0  0
    7.1490   -0.6280   21.0830 N   0  0  0  0  0  0  0  0  0  0  0  0
    6.4970    0.0020   20.0560 C   0  0  0  0  0  0  0  0  0  0  0  0
    5.2060    0.7750   20.3320 C   0  0  0  0  0  0  0  0  0  0  0  0
    4.5460    1.4740   19.1440 C   0  0  0  0  0  0  0  0  0  0  0  0
    5.1490    1.3690   17.9000 C   0  0  0  0  0  0  0  0  0  0  0  0
    6.2950    0.6550   17.7310 N   0  0  0  0  0  0  0  0  0  0  0  0
    6.9540   -0.0110   18.7540 C   0  0  0  0  0  0  0  0  0  0  0  0
  1  2  2  0
  2  3  1  0
  3  4  1  0
  5  4  1  1
  5  6  1  0
  7  6  1  6
  7  8  1  0
  5  9  1  0
  9  8  1  1
  5 10  1  0
  9 10  1  0
  7 11  1  0
 10 11  1  1
  2 12  1  0
 12 13  1  0
 13 14  2  0
 14 15  1  0
 15 16  2  0
 16 17  1  0
 13 18  1  0
 17 18  2  0
M  END
