pyridine_urea_12941
     RDKit          3D

 19 20  0  0  0  0  0  0  0  0999 V2000
   13.6140   -1.3310   22.0620 C   0  0  0  0  0  0  0  0  0  0  0  0
   12.3560   -1.5980   22.1280 N   0  0  0  0  0  0  0  0  0  0  0  0
   11.7000   -1.2710   23.3780 C   0  0  0  0  0  0  0  0  0  0  0  0
   10.5100   -1.8090   22.6080 C   0  0  0  0  0  0  0  0  0  0  0  0
    9.2840   -1.8290   23.1820 C   0  0  0  0  0  0  0  0  0  0  0  0
    9.0830   -3.0160   23.8750 C   0  0  0  0  0  0  0  0  0  0  0  0
    8.9300   -0.7170   23.9380 C   0  0  0  0  0  0  0  0  0  0  0  0
    8.5870   -1.7440   21.9950 N   0  0  0  0  0  0  0  0  0  0  0  0
    8.1250   -0.4820   21.5670 C   0  0  0  0  0  0  0  0  0  0  0  0
    8.8520    0.4980   21.4430 O   0  0  0  0  0  0  0  0  0  0  0  0
    6.8020   -0.5030   21.3060 N   0  0  0  0  0  0  0  0  0  0  0  0
    6.3350    0.0840   20.1730 C   0  0  0  0  0  0  0  0  0  0  0  0
    5.1860    0.8480   20.2910 C   0  0  0  0  0  0  0  0  0  0  0  0
    4.6470    1.4820   19.1710 C   0  0  0  0  0  0  0  0  0  0  0  0
    5.2940    1.3280   17.9420 C   0  0  0  0  0  0  0  0  0  0  0  0
    6.4080    0.5900   17.8030 N   0  0  0  0  0  0  0  0  0  0  0  0
    6.9010   -0.0150   18.9050 C   0  0  0  0  0  0  0  0  0  0  0  0
   10.4850   -2.2980   21.3640 N   0  0  0  0  0  0  0  0  0  0  0  0
   11.7960   -2.1410   21.0440 N   0  0  0  0  0  0  0  0  0  0  0  0
  1  2  1  0
  2  3  1  0
  3  4  2  0
  4  5  1  0
  5  6  1  0
  5  7  1  0
  5  8  1  0
  8  9  1  0
  9 10  2  0
  9 11  1  0
 11 12  1  0
 12 13  2  0
 13 14  1  0
 14 15  2  0
 15 16  1  0
 12 17  1  0
 16 17  2  0
  4 18  1  0
  2 19  1  0
 18 19  2  0
M  END
