pyridine_urea_13794
     RDKit          3D

 25 28  0  0  0  0  0  0  0  0999 V2000
    8.7220    0.6960   21.2960 O   0  0  0  0  0  0  0  0  0  0  0  0
    8.3270   -0.4330   21.5660 C   0  0  0  0  0  0  0  0  0  0  0  0
    7.1120   -0.9130   21.1140 N   0  0  0  0  0  0  0  0  0  0  0  0
    6.4790   -0.1680   20.0350 C   0  0  0  0  0  0  0  0  0  0  0  0
    5.1910    0.5800   20.3740 C   0  0  0  0  0  0  0  0  0  0  0  0
    4.5900    1.3360   19.2350 C   0  0  0  0  0  0  0  0  0  0  0  0
    5.2230    1.3030   18.0050 C   0  0  0  0  0  0  0  0  0  0  0  0
    6.3610    0.6210   17.7600 N   0  0  0  0  0  0  0  0  0  0  0  0
    6.9500   -0.0850   18.7490 C   0  0  0  0  0  0  0  0  0  0  0  0
    9.0610   -1.3190   22.3430 N   0  0  0  0  0  0  0  0  0  0  0  0
   10.4430   -0.8630   22.5850 C   0  0  0  0  0  0  0  0  0  0  0  0
   11.4960   -1.4540   21.9630 C   0  0  0  0  0  0  0  0  0  0  0  0
   12.7620   -0.7370   22.3770 C   0  0  0  0  0  0  0  0  0  0  0  0
   12.8770    0.3300   23.2310 C   0  0  0  0  0  0  0  0  0  0  0  0
   11.7750    0.8680   23.8380 C   0  0  0  0  0  0  0  0  0  0  0  0
   10.5820    0.3010   23.5440 C   0  0  0  0  0  0  0  0  0  0  0  0
    9.2920    0.7850   24.1580 C   0  0  0  0  0  0  0  0  0  0  0  0
    8.4350    1.7760   23.8730 N   0  0  0  0  0  0  0  0  0  0  0  0
    7.4530    1.6790   24.7970 C   0  0  0  0  0  0  0  0  0  0  0  0
    6.2400    2.5330   24.9410 C   0  0  0  0  0  0  0  0  0  0  0  0
    5.3580    2.2270   25.9960 C   0  0  0  0  0  0  0  0  0  0  0  0
    5.6310    1.1480   26.8710 C   0  0  0  0  0  0  0  0  0  0  0  0
    6.7800    0.3500   26.7210 C   0  0  0  0  0  0  0  0  0  0  0  0
    7.6640    0.6330   25.6880 C   0  0  0  0  0  0  0  0  0  0  0  0
    8.8180    0.0510   25.3110 N   0  0  0  0  0  0  0  0  0  0  0  0
  1  2  2  0
  2  3  1  0
  3  4  1  0
  4  5  2  0
  5  6  1  0
  6  7  2  0
  7  8  1  0
  4  9  1  0
  8  9  2  0
  2 10  1  0
 10 11  1  0
 11 12  2  0
 12 13  1  0
 13 14  2  0
 14 15  1  0
 11 16  1  0
 15 16  2  0
 16 17  1  0
 17 18  2  0
 18 19  1  0
 19 20  2  0
 20 21  1  0
 21 22  2  0
 22 23  1  0
 19 24  1  0
 23 24  2  0
 17 25  1  0
 24 25  1  0
M  END
