pyridine_urea_156
     RDKit          3D

 21 22  0  0  0  0  0  0  0  0999 V2000
   12.0830    3.5880   22.3780 C   0  0  0  0  0  0  0  0  0  0  0  0
   11.4210    2.3320   22.5540 O   0  0  0  0  0  0  0  0  0  0  0  0
   12.3090    1.3090   23.0000 C   0  0  0  0  0  0  0  0  0  0  0  0
   11.6060   -0.0170   23.2680 C   0  0  0  0  0  0  0  0  0  0  0  0
   10.3030    0.0320   23.9480 C   0  0  0  0  0  0  0  0  0  0  0  0
    9.4910   -0.9820   23.4970 C   0  0  0  0  0  0  0  0  0  0  0  0
    8.3040   -0.3950   22.9310 N   0  0  0  0  0  0  0  0  0  0  0  0
    8.2170    0.1550   21.6630 C   0  0  0  0  0  0  0  0  0  0  0  0
    8.9700    1.2220   21.2300 O   0  0  0  0  0  0  0  0  0  0  0  0
    7.2510   -0.5020   20.9400 N   0  0  0  0  0  0  0  0  0  0  0  0
    6.4170    0.1470   20.0290 C   0  0  0  0  0  0  0  0  0  0  0  0
    5.2510    0.7490   20.4140 C   0  0  0  0  0  0  0  0  0  0  0  0
    4.6350    1.3660   19.1680 C   0  0  0  0  0  0  0  0  0  0  0  0
    5.1950    1.2970   17.9150 C   0  0  0  0  0  0  0  0  0  0  0  0
    6.3290    0.6730   17.6750 N   0  0  0  0  0  0  0  0  0  0  0  0
    6.8910    0.1240   18.7360 C   0  0  0  0  0  0  0  0  0  0  0  0
   12.8160   -0.3280   24.1200 C   0  0  0  0  0  0  0  0  0  0  0  0
   13.0080   -1.8140   24.1140 C   0  0  0  0  0  0  0  0  0  0  0  0
   13.5480   -2.1710   22.8590 O   0  0  0  0  0  0  0  0  0  0  0  0
   12.8890   -1.4920   21.8130 C   0  0  0  0  0  0  0  0  0  0  0  0
   11.4660   -1.1630   22.1910 C   0  0  0  0  0  0  0  0  0  0  0  0
  1  2  1  0
  2  3  1  0
  4  3  1  0
  4  5  1  0
  5  6  1  0
  6  7  1  0
  7  8  1  0
  8  9  2  0
  8 10  1  0
 10 11  1  0
 11 12  2  0
 12 13  1  0
 13 14  2  0
 14 15  1  0
 11 16  1  0
 15 16  2  0
  4 17  1  0
 17 18  1  0
 18 19  1  0
 19 20  1  0
  4 21  1  0
 20 21  1  0
M  END
