pyridine_urea_12968
     RDKit          3D

 19 20  0  0  0  0  0  0  0  0999 V2000
   12.0210    2.0490   23.3430 C   0  0  0  0  0  0  0  0  0  0  0  0
   11.7460    0.5080   22.5640 S   0  0  0  0  0  0  0  0  0  0  0  0
   10.5020    0.5970   21.8840 O   0  0  0  0  0  0  0  0  0  0  0  0
   13.0120    0.0600   22.0300 O   0  0  0  0  0  0  0  0  0  0  0  0
   11.2770   -0.7420   23.6410 C   0  0  0  0  0  0  0  0  0  0  0  0
    9.7250   -0.8360   23.5870 C   0  0  0  0  0  0  0  0  0  0  0  0
    9.2560   -1.0120   22.2020 N   0  0  0  0  0  0  0  0  0  0  0  0
    8.4780   -0.0740   21.5010 C   0  0  0  0  0  0  0  0  0  0  0  0
    8.8730    1.2160   21.2150 O   0  0  0  0  0  0  0  0  0  0  0  0
    7.2610   -0.5890   21.1010 N   0  0  0  0  0  0  0  0  0  0  0  0
    6.5320    0.0180   20.0640 C   0  0  0  0  0  0  0  0  0  0  0  0
    5.3670    0.7340   20.3730 C   0  0  0  0  0  0  0  0  0  0  0  0
    4.6560    1.3540   19.3470 C   0  0  0  0  0  0  0  0  0  0  0  0
    5.1430    1.2270   18.0540 C   0  0  0  0  0  0  0  0  0  0  0  0
    6.2420    0.5460   17.7300 N   0  0  0  0  0  0  0  0  0  0  0  0
    6.9140   -0.0460   18.7400 C   0  0  0  0  0  0  0  0  0  0  0  0
   12.1290   -1.8500   23.3160 C   0  0  0  0  0  0  0  0  0  0  0  0
   12.8850   -1.5070   24.4410 C   0  0  0  0  0  0  0  0  0  0  0  0
   11.9480   -0.4660   24.7970 C   0  0  0  0  0  0  0  0  0  0  0  0
  2  1  1  0
  2  3  2  0
  2  4  2  0
  2  5  1  0
  5  6  1  0
  6  7  1  0
  7  8  1  0
  8  9  2  0
  8 10  1  0
 10 11  1  0
 11 12  2  0
 12 13  1  0
 13 14  2  0
 14 15  1  0
 11 16  1  0
 15 16  2  0
  5 17  1  0
 17 18  1  0
  5 19  1  0
 18 19  1  0
M  END
