pyridine_urea_12114
     RDKit          3D

 23 25  0  0  0  0  0  0  0  0999 V2000
    8.7270    0.7300   21.1870 O   0  0  0  0  0  0  0  0  0  0  0  0
    7.9440   -0.1840   21.4110 C   0  0  0  0  0  0  0  0  0  0  0  0
    7.8640   -0.9910   22.4770 N   0  0  0  0  0  0  0  0  0  0  0  0
    8.5100   -2.1970   22.5730 C   0  0  0  0  0  0  0  0  0  0  0  0
    9.8150   -2.0230   22.4300 C   0  0  0  0  0  0  0  0  0  0  0  0
   10.4880   -2.5280   21.3880 C   0  0  0  0  0  0  0  0  0  0  0  0
   11.8550   -2.3870   21.1320 C   0  0  0  0  0  0  0  0  0  0  0  0
   12.6270   -1.7230   21.9500 C   0  0  0  0  0  0  0  0  0  0  0  0
   11.9970   -1.2350   22.9810 C   0  0  0  0  0  0  0  0  0  0  0  0
   10.4040   -1.3530   23.3180 C   0  0  0  0  0  0  0  0  0  0  0  0
    9.4450   -0.9090   24.3660 N   0  0  0  0  0  0  0  0  0  0  0  0
    8.2350   -0.1730   24.1880 C   0  0  0  0  0  0  0  0  0  0  0  0
    7.0520   -0.7820   24.6520 C   0  0  0  0  0  0  0  0  0  0  0  0
    6.9990   -1.2040   25.9280 N   0  0  0  0  0  0  0  0  0  0  0  0
    8.1970   -1.5090   26.4750 C   0  0  0  0  0  0  0  0  0  0  0  0
    9.2540   -1.6460   25.5670 C   0  0  0  0  0  0  0  0  0  0  0  0
    6.9370   -0.5930   20.6010 N   0  0  0  0  0  0  0  0  0  0  0  0
    6.1740    0.1310   19.7910 C   0  0  0  0  0  0  0  0  0  0  0  0
    4.9300    0.7580   20.0590 C   0  0  0  0  0  0  0  0  0  0  0  0
    4.4090    1.4400   18.9900 C   0  0  0  0  0  0  0  0  0  0  0  0
    5.2500    1.3190   17.9550 C   0  0  0  0  0  0  0  0  0  0  0  0
    6.1910    0.9320   17.4970 N   0  0  0  0  0  0  0  0  0  0  0  0
    6.7500    0.2480   18.5150 C   0  0  0  0  0  0  0  0  0  0  0  0
  1  2  2  0
  2  3  1  0
  3  4  1  0
  4  5  1  0
  5  6  2  0
  6  7  1  0
  7  8  2  0
  8  9  1  0
  5 10  1  0
  9 10  2  0
 10 11  1  0
 11 12  1  0
 12 13  1  0
 13 14  1  0
 14 15  1  0
 11 16  1  0
 15 16  1  0
  2 17  1  0
 17 18  1  0
 18 19  2  0
 19 20  1  0
 20 21  2  0
 21 22  1  0
 18 23  1  0
 22 23  2  0
M  END
