pyridine_urea_10063
     RDKit          3D

 23 25  0  0  0  0  0  0  0  0999 V2000
    8.5430    1.0300   21.0450 O   0  0  0  0  0  0  0  0  0  0  0  0
    8.2800   -0.1490   21.2380 C   0  0  0  0  0  0  0  0  0  0  0  0
    7.0740   -0.7060   20.9050 N   0  0  0  0  0  0  0  0  0  0  0  0
    6.3130   -0.0130   19.9720 C   0  0  0  0  0  0  0  0  0  0  0  0
    5.0820    0.5940   20.1750 C   0  0  0  0  0  0  0  0  0  0  0  0
    4.4760    1.2750   19.1170 C   0  0  0  0  0  0  0  0  0  0  0  0
    5.1350    1.3160   17.9020 C   0  0  0  0  0  0  0  0  0  0  0  0
    6.3190    0.7290   17.6880 N   0  0  0  0  0  0  0  0  0  0  0  0
    6.8680    0.0860   18.7180 C   0  0  0  0  0  0  0  0  0  0  0  0
    9.1740   -1.0080   21.7980 N   0  0  0  0  0  0  0  0  0  0  0  0
   10.1880   -0.4350   22.5440 C   0  0  2  0  0  0  0  0  0  0  0  0
   11.4230   -1.0080   22.3520 C   0  0  0  0  0  0  0  0  0  0  0  0
   12.4790   -0.1770   22.7310 C   0  0  0  0  0  0  0  0  0  0  0  0
   12.1300    0.7290   23.7360 C   0  0  1  0  0  0  0  0  0  0  0  0
   11.9820    2.0730   23.3450 C   0  0  0  0  0  0  0  0  0  0  0  0
   10.6840    2.7900   23.5470 C   0  0  0  0  0  0  0  0  0  0  0  0
   10.5840    4.1380   23.1680 C   0  0  0  0  0  0  0  0  0  0  0  0
   11.6910    4.7770   22.6140 C   0  0  0  0  0  0  0  0  0  0  0  0
   11.4770    6.0790   22.2980 F   0  0  0  0  0  0  0  0  0  0  0  0
   12.8990    4.1250   22.4130 C   0  0  0  0  0  0  0  0  0  0  0  0
   13.0320    2.7880   22.7790 C   0  0  0  0  0  0  0  0  0  0  0  0
   10.9200    0.4820   24.4020 C   0  0  0  0  0  0  0  0  0  0  0  0
    9.8920   -0.2300   23.8590 C   0  0  0  0  0  0  0  0  0  0  0  0
  1  2  2  0
  2  3  1  0
  3  4  1  0
  4  5  2  0
  5  6  1  0
  6  7  2  0
  7  8  1  0
  4  9  1  0
  8  9  2  0
  2 10  1  0
 11 10  1  1
 11 12  1  0
 12 13  1  0
 13 14  1  0
 14 15  1  6
 15 16  2  0
 16 17  1  0
 17 18  2  0
 18 19  1  0
 18 20  1  0
 15 21  1  0
 20 21  2  0
 14 22  1  0
 11 23  1  0
 22 23  1  0
M  END
