pyridine_urea_15014
     RDKit          3D

 19 19  0  0  0  0  0  0  0  0999 V2000
   10.4710    0.5290   24.1220 C   0  0  0  0  0  0  0  0  0  0  0  0
   10.4920   -0.2160   22.7790 C   0  0  2  0  0  0  0  0  0  0  0  0
    9.1650   -0.6560   22.3810 N   0  0  0  0  0  0  0  0  0  0  0  0
    8.5070    0.1340   21.4710 C   0  0  0  0  0  0  0  0  0  0  0  0
    8.9200    1.2550   21.1580 O   0  0  0  0  0  0  0  0  0  0  0  0
    7.3700   -0.4720   21.0000 N   0  0  0  0  0  0  0  0  0  0  0  0
    6.6030    0.1070   19.9900 C   0  0  0  0  0  0  0  0  0  0  0  0
    5.3010    0.8070   20.3510 C   0  0  0  0  0  0  0  0  0  0  0  0
    4.4940    1.4570   19.2410 C   0  0  0  0  0  0  0  0  0  0  0  0
    5.1340    1.2940   17.8740 C   0  0  0  0  0  0  0  0  0  0  0  0
    6.2870    0.6490   17.6530 N   0  0  0  0  0  0  0  0  0  0  0  0
    6.9710    0.0850   18.6700 C   0  0  0  0  0  0  0  0  0  0  0  0
   11.4500   -1.3880   22.8380 C   0  0  0  0  0  0  0  0  0  0  0  0
   11.7420   -2.0840   21.6900 C   0  0  0  0  0  0  0  0  0  0  0  0
   10.7320   -2.4270   23.7190 C   0  0  0  0  0  0  0  0  0  0  0  0
   12.9780   -1.1760   22.8710 C   0  0  0  0  0  0  0  0  0  0  0  0
   13.4450   -1.4040   24.1260 N   0  0  0  0  0  0  0  0  0  0  0  0
   12.6770   -0.7050   25.1240 C   0  0  0  0  0  0  0  0  0  0  0  0
   13.5860   -2.7300   24.3150 C   0  0  0  0  0  0  0  0  0  0  0  0
  2  1  1  1
  2  3  1  0
  3  4  1  0
  4  5  2  0
  4  6  1  0
  6  7  1  0
  7  8  2  0
  8  9  1  0
  9 10  2  0
 10 11  1  0
  7 12  1  0
 11 12  2  0
  2 13  1  0
 13 14  1  0
 13 15  1  0
 13 16  1  0
 16 17  1  0
 17 18  1  0
 17 19  1  0
M  END
