pyridine_urea_4863
     RDKit          3D

 21 22  0  0  0  0  0  0  0  0999 V2000
    9.0440    0.7950   21.6610 O   0  0  0  0  0  0  0  0  0  0  0  0
    8.6240   -0.3330   21.4460 C   0  0  0  0  0  0  0  0  0  0  0  0
    9.4570   -1.4300   21.4550 N   0  0  0  0  0  0  0  0  0  0  0  0
   10.1390   -1.9740   22.6400 C   0  0  0  0  0  0  0  0  0  0  0  0
   11.7060   -1.8400   22.6330 C   0  0  0  0  0  0  0  0  0  0  0  0
   12.1960   -0.5630   22.7880 C   0  0  0  0  0  0  0  0  0  0  0  0
   12.4370    0.8270   23.0700 C   0  0  0  0  0  0  0  0  0  0  0  0
   11.5750    1.7640   23.6560 C   0  0  0  0  0  0  0  0  0  0  0  0
   10.3360    1.4410   24.0730 C   0  0  0  0  0  0  0  0  0  0  0  0
    9.5650    2.4140   24.6100 F   0  0  0  0  0  0  0  0  0  0  0  0
    9.9810    0.1970   23.9190 C   0  0  0  0  0  0  0  0  0  0  0  0
    8.7360   -0.1640   24.3570 F   0  0  0  0  0  0  0  0  0  0  0  0
   10.8810   -0.6440   23.3280 C   0  0  0  0  0  0  0  0  0  0  0  0
   10.3210   -1.8760   23.2690 F   0  0  0  0  0  0  0  0  0  0  0  0
    7.3210   -0.6480   21.1150 N   0  0  0  0  0  0  0  0  0  0  0  0
    6.6270   -0.0390   20.0810 C   0  0  0  0  0  0  0  0  0  0  0  0
    5.5080    0.6910   20.5030 C   0  0  0  0  0  0  0  0  0  0  0  0
    4.7480    1.3770   19.4100 C   0  0  0  0  0  0  0  0  0  0  0  0
    5.1490    1.2760   18.0990 C   0  0  0  0  0  0  0  0  0  0  0  0
    6.2300    0.5560   17.7270 N   0  0  0  0  0  0  0  0  0  0  0  0
    6.9610   -0.1010   18.7430 C   0  0  0  0  0  0  0  0  0  0  0  0
  1  2  2  0
  2  3  1  0
  3  4  1  0
  4  5  1  0
  5  6  1  0
  6  7  2  0
  7  8  1  0
  8  9  2  0
  9 10  1  0
  9 11  1  0
 11 12  1  0
  6 13  1  0
 11 13  2  0
 13 14  1  0
  2 15  1  0
 15 16  1  0
 16 17  2  0
 17 18  1  0
 18 19  2  0
 19 20  1  0
 16 21  1  0
 20 21  2  0
M  END
