pyridine_urea_10813
     RDKit          3D

 20 21  0  0  0  0  0  0  0  0999 V2000
    9.0750    0.6470   21.4320 O   0  0  0  0  0  0  0  0  0  0  0  0
    8.2460   -0.1790   21.7810 C   0  0  0  0  0  0  0  0  0  0  0  0
    8.1800   -0.7840   23.1060 N   0  0  0  0  0  0  0  0  0  0  0  0
    9.2140   -0.7260   24.0490 C   0  0  0  0  0  0  0  0  0  0  0  0
   10.2200    0.2010   23.9010 C   0  0  0  0  0  0  0  0  0  0  0  0
   10.5450   -1.0590   23.2970 C   0  0  0  0  0  0  0  0  0  0  0  0
    9.5870   -2.0180   23.4250 F   0  0  0  0  0  0  0  0  0  0  0  0
   11.6010   -1.6020   22.5920 C   0  0  0  0  0  0  0  0  0  0  0  0
   12.7570   -0.7920   22.3290 C   0  0  0  0  0  0  0  0  0  0  0  0
   13.8020   -1.2590   21.6380 F   0  0  0  0  0  0  0  0  0  0  0  0
   12.7130    0.5880   22.8600 C   0  0  0  0  0  0  0  0  0  0  0  0
   11.4170    0.9270   23.5930 C   0  0  0  0  0  0  0  0  0  0  0  0
   11.4420    2.2100   24.0230 F   0  0  0  0  0  0  0  0  0  0  0  0
    7.2080   -0.6790   21.0030 N   0  0  0  0  0  0  0  0  0  0  0  0
    6.5090   -0.0010   20.0510 C   0  0  0  0  0  0  0  0  0  0  0  0
    5.3590    0.7440   20.3370 C   0  0  0  0  0  0  0  0  0  0  0  0
    4.7170    1.4060   19.2920 C   0  0  0  0  0  0  0  0  0  0  0  0
    5.1980    1.3360   18.0050 C   0  0  0  0  0  0  0  0  0  0  0  0
    6.2920    0.6270   17.6930 N   0  0  0  0  0  0  0  0  0  0  0  0
    6.9370   -0.0400   18.7420 C   0  0  0  0  0  0  0  0  0  0  0  0
  1  2  2  0
  2  3  1  0
  3  4  1  0
  4  5  1  0
  5  6  2  0
  6  7  1  0
  6  8  1  0
  8  9  2  0
  9 10  1  0
  9 11  1  0
  5 12  1  0
 11 12  2  0
 12 13  1  0
  2 14  1  0
 14 15  1  0
 15 16  2  0
 16 17  1  0
 17 18  2  0
 18 19  1  0
 15 20  1  0
 19 20  2  0
M  END
