pyridine_urea_3086
     RDKit          3D

 21 22  0  0  0  0  0  0  0  0999 V2000
    8.6780    0.7200   21.2710 O   0  0  0  0  0  0  0  0  0  0  0  0
    8.1460   -0.3330   21.6050 C   0  0  0  0  0  0  0  0  0  0  0  0
    6.9960   -0.8200   21.0490 N   0  0  0  0  0  0  0  0  0  0  0  0
    6.3780   -0.1160   20.0080 C   0  0  0  0  0  0  0  0  0  0  0  0
    5.1800    0.5690   20.2390 C   0  0  0  0  0  0  0  0  0  0  0  0
    4.5730    1.2870   19.2030 C   0  0  0  0  0  0  0  0  0  0  0  0
    5.1930    1.2910   17.9700 C   0  0  0  0  0  0  0  0  0  0  0  0
    6.3370    0.6370   17.7290 N   0  0  0  0  0  0  0  0  0  0  0  0
    6.9000   -0.0480   18.7390 C   0  0  0  0  0  0  0  0  0  0  0  0
    8.7150   -1.1010   22.5970 N   0  0  0  0  0  0  0  0  0  0  0  0
   10.0590   -0.6510   22.7940 C   0  0  0  0  0  0  0  0  0  0  0  0
   11.1730   -1.4140   22.0940 C   0  0  0  0  0  0  0  0  0  0  0  0
   12.4500   -0.9340   22.2520 C   0  0  0  0  0  0  0  0  0  0  0  0
   12.6480    0.1910   23.0140 C   0  0  0  0  0  0  0  0  0  0  0  0
   13.8500    0.6140   23.0900 F   0  0  0  0  0  0  0  0  0  0  0  0
   11.6410    0.8920   23.6850 C   0  0  0  0  0  0  0  0  0  0  0  0
   10.3240    0.4740   23.5860 C   0  0  0  0  0  0  0  0  0  0  0  0
    9.2410    1.0770   24.1890 O   0  0  0  0  0  0  0  0  0  0  0  0
    8.7660    0.5020   25.4040 C   0  0  0  0  0  0  0  0  0  0  0  0
    8.1160   -0.6440   25.0800 F   0  0  0  0  0  0  0  0  0  0  0  0
    7.8350    1.3250   25.9470 F   0  0  0  0  0  0  0  0  0  0  0  0
  1  2  2  0
  2  3  1  0
  3  4  1  0
  4  5  2  0
  5  6  1  0
  6  7  2  0
  7  8  1  0
  4  9  1  0
  8  9  2  0
  2 10  1  0
 10 11  1  0
 11 12  2  0
 12 13  1  0
 13 14  2  0
 14 15  1  0
 14 16  1  0
 11 17  1  0
 16 17  2  0
 17 18  1  0
 18 19  1  0
 19 20  1  0
 19 21  1  0
M  END
