pyridine_urea_2074
     RDKit          3D

 19 20  0  0  0  0  0  0  0  0999 V2000
   10.6970   -4.0080   25.7970 C   0  0  0  0  0  0  0  0  0  0  0  0
   10.5720   -2.6900   25.2460 O   0  0  0  0  0  0  0  0  0  0  0  0
   10.6850   -2.6540   23.8780 C   0  0  0  0  0  0  0  0  0  0  0  0
   10.4010   -1.2640   23.2440 C   0  0  1  0  0  0  0  0  0  0  0  0
    8.9840   -1.3080   22.6570 N   0  0  0  0  0  0  0  0  0  0  0  0
    8.5110   -0.3570   21.7400 C   0  0  0  0  0  0  0  0  0  0  0  0
    9.1200    0.6780   21.5040 O   0  0  0  0  0  0  0  0  0  0  0  0
    7.2990   -0.7240   21.1680 N   0  0  0  0  0  0  0  0  0  0  0  0
    6.5990   -0.0630   20.1270 C   0  0  0  0  0  0  0  0  0  0  0  0
    5.4640    0.6840   20.4470 C   0  0  0  0  0  0  0  0  0  0  0  0
    4.7660    1.3450   19.4320 C   0  0  0  0  0  0  0  0  0  0  0  0
    5.2340    1.2310   18.1300 C   0  0  0  0  0  0  0  0  0  0  0  0
    6.3110    0.5220   17.7820 N   0  0  0  0  0  0  0  0  0  0  0  0
    6.9670   -0.1090   18.7890 C   0  0  0  0  0  0  0  0  0  0  0  0
   10.3610    0.0230   24.2060 C   0  0  0  0  0  0  0  0  0  0  0  0
   11.6450    0.6240   23.9990 C   0  0  0  0  0  0  0  0  0  0  0  0
   12.7300   -0.0010   23.4120 C   0  0  0  0  0  0  0  0  0  0  0  0
   12.2080   -1.3290   23.0480 C   0  0  0  0  0  0  0  0  0  0  0  0
   11.3250   -1.0800   22.0410 C   0  0  0  0  0  0  0  0  0  0  0  0
  1  2  1  0
  2  3  1  0
  4  3  1  1
  4  5  1  0
  5  6  1  0
  6  7  2  0
  6  8  1  0
  8  9  1  0
  9 10  2  0
 10 11  1  0
 11 12  2  0
 12 13  1  0
  9 14  1  0
 13 14  2  0
  4 15  1  0
 15 16  1  0
 16 17  2  0
 17 18  1  0
  4 19  1  0
 18 19  1  0
M  END
