pyridine_urea_13408
     RDKit          3D

 23 25  0  0  0  0  0  0  0  0999 V2000
   10.1710    0.2730   23.1450 C   0  0  0  0  0  0  0  0  0  0  0  0
   10.2220   -1.2330   22.8630 C   0  0  2  0  0  0  0  0  0  0  0  0
   11.6050   -1.6150   22.2960 C   0  0  0  0  0  0  0  0  0  0  0  0
   12.7220   -0.6640   22.7750 C   0  0  0  0  0  0  0  0  0  0  0  0
   12.3250    0.5160   23.6270 C   0  0  1  0  0  0  0  0  0  0  0  0
   12.4120    1.7660   23.0200 C   0  0  0  0  0  0  0  0  0  0  0  0
   11.3790    2.5750   23.3600 N   0  0  0  0  0  0  0  0  0  0  0  0
   10.5190    1.8810   24.1420 C   0  0  0  0  0  0  0  0  0  0  0  0
    9.2970    2.2740   24.6950 C   0  0  0  0  0  0  0  0  0  0  0  0
    8.5680    1.4020   25.4800 C   0  0  0  0  0  0  0  0  0  0  0  0
    9.0680    0.1370   25.7080 C   0  0  0  0  0  0  0  0  0  0  0  0
   10.2930   -0.3050   25.1690 C   0  0  0  0  0  0  0  0  0  0  0  0
   11.0670    0.5870   24.3450 C   0  0  0  0  0  0  0  0  0  0  0  0
    9.1060   -1.4330   21.9130 N   0  0  0  0  0  0  0  0  0  0  0  0
    8.3770   -0.3720   21.4090 C   0  0  0  0  0  0  0  0  0  0  0  0
    8.8230    0.7590   21.2970 O   0  0  0  0  0  0  0  0  0  0  0  0
    7.1080   -0.7320   21.0390 N   0  0  0  0  0  0  0  0  0  0  0  0
    6.4450   -0.0500   20.0170 C   0  0  0  0  0  0  0  0  0  0  0  0
    5.2670    0.6550   20.2710 C   0  0  0  0  0  0  0  0  0  0  0  0
    4.6150    1.3430   19.2690 C   0  0  0  0  0  0  0  0  0  0  0  0
    5.1600    1.3120   18.0170 C   0  0  0  0  0  0  0  0  0  0  0  0
    6.2830    0.6520   17.6940 N   0  0  0  0  0  0  0  0  0  0  0  0
    6.9000   -0.0160   18.7080 C   0  0  0  0  0  0  0  0  0  0  0  0
  2  1  1  6
  2  3  1  0
  3  4  1  0
  5  4  1  6
  5  6  1  0
  6  7  1  0
  7  8  1  0
  8  9  1  0
  9 10  2  0
 10 11  1  0
 11 12  2  0
  5 13  1  0
  8 13  2  0
 12 13  1  0
  2 14  1  0
 14 15  1  0
 15 16  2  0
 15 17  1  0
 17 18  1  0
 18 19  2  0
 19 20  1  0
 20 21  2  0
 21 22  1  0
 18 23  1  0
 22 23  2  0
M  END
