pyridine_urea_6136
     RDKit          3D

 24 26  0  0  0  0  0  0  0  0999 V2000
   13.6000    5.0070   21.6290 C   0  0  0  0  0  0  0  0  0  0  0  0
   13.7920    3.7660   22.2780 O   0  0  0  0  0  0  0  0  0  0  0  0
   12.6840    3.5690   23.0940 C   0  0  0  0  0  0  0  0  0  0  0  0
   12.2660    4.4780   23.8030 O   0  0  0  0  0  0  0  0  0  0  0  0
   11.9930    2.2010   22.9640 C   0  0  0  0  0  0  0  0  0  0  0  0
   12.6290    0.8680   22.7480 C   0  0  0  0  0  0  0  0  0  0  0  0
   11.7940   -0.2150   22.6040 C   0  0  0  0  0  0  0  0  0  0  0  0
   10.2420   -0.2680   22.6390 C   0  0  0  0  0  0  0  0  0  0  0  0
    9.2220   -1.3000   22.4420 N   0  0  0  0  0  0  0  0  0  0  0  0
    8.3540   -0.6400   21.5600 C   0  0  0  0  0  0  0  0  0  0  0  0
    8.7300    0.6470   21.0780 O   0  0  0  0  0  0  0  0  0  0  0  0
    7.0960   -1.2110   21.1510 N   0  0  0  0  0  0  0  0  0  0  0  0
    6.4970   -0.4100   20.0550 C   0  0  0  0  0  0  0  0  0  0  0  0
    5.2280    0.3380   20.3630 C   0  0  0  0  0  0  0  0  0  0  0  0
    4.5920    1.1360   19.4010 C   0  0  0  0  0  0  0  0  0  0  0  0
    5.1460    1.2490   18.1190 C   0  0  0  0  0  0  0  0  0  0  0  0
    6.3750    0.5190   17.8290 N   0  0  0  0  0  0  0  0  0  0  0  0
    6.9860   -0.2630   18.7790 C   0  0  0  0  0  0  0  0  0  0  0  0
    9.7600    1.1730   22.9200 C   0  0  0  0  0  0  0  0  0  0  0  0
    8.3050    1.4250   23.0420 C   0  0  0  0  0  0  0  0  0  0  0  0
    7.8250    2.7680   23.2910 C   0  0  0  0  0  0  0  0  0  0  0  0
    8.6390    3.7880   23.4110 N   0  0  0  0  0  0  0  0  0  0  0  0
   10.0100    3.6140   23.3030 C   0  0  0  0  0  0  0  0  0  0  0  0
   10.6030    2.3010   23.0590 C   0  0  0  0  0  0  0  0  0  0  0  0
  1  2  1  0
  2  3  1  0
  3  4  2  0
  3  5  1  0
  5  6  2  0
  6  7  1  0
  7  8  2  0
  8  9  1  0
  9 10  1  0
 10 11  2  0
 10 12  1  0
 12 13  1  0
 13 14  2  0
 14 15  1  0
 15 16  2  0
 16 17  1  0
 13 18  1  0
 17 18  2  0
  8 19  1  0
 19 20  1  0
 20 21  2  0
 21 22  1  0
 22 23  2  0
  5 24  1  0
 19 24  2  0
 23 24  1  0
M  END
