pyridine_urea_12326
     RDKit          3D

 22 23  0  0  0  0  0  0  0  0999 V2000
    9.2160   -5.8760   27.1520 C   0  0  0  0  0  0  0  0  0  0  0  0
    7.8660   -5.5120   27.7530 C   0  0  0  0  0  0  0  0  0  0  0  0
    6.8990   -5.2640   26.5520 C   0  0  1  0  0  0  0  0  0  0  0  0
    5.5770   -5.7010   26.6760 C   0  0  0  0  0  0  0  0  0  0  0  0
    6.8940   -4.0570   26.3820 O   0  0  0  0  0  0  0  0  0  0  0  0
    6.7390   -3.6440   25.0270 C   0  0  0  0  0  0  0  0  0  0  0  0
    7.9520   -3.1790   24.5040 C   0  0  0  0  0  0  0  0  0  0  0  0
    7.9640   -2.6890   23.0580 C   0  0  0  0  0  0  0  0  0  0  0  0
    9.2300   -2.1560   22.3900 C   0  0  0  0  0  0  0  0  0  0  0  0
    9.1820   -0.6970   22.5670 N   0  0  0  0  0  0  0  0  0  0  0  0
    8.6080    0.1150   21.5980 C   0  0  0  0  0  0  0  0  0  0  0  0
    9.0680    1.2180   21.2750 O   0  0  0  0  0  0  0  0  0  0  0  0
    7.4370   -0.4690   21.0610 N   0  0  0  0  0  0  0  0  0  0  0  0
    6.6840    0.0910   20.0570 C   0  0  0  0  0  0  0  0  0  0  0  0
    5.4260    0.8930   20.4290 C   0  0  0  0  0  0  0  0  0  0  0  0
    4.6570    1.5020   19.2550 C   0  0  0  0  0  0  0  0  0  0  0  0
    5.1290    1.3000   17.9720 C   0  0  0  0  0  0  0  0  0  0  0  0
    6.2430    0.5680   17.7280 N   0  0  0  0  0  0  0  0  0  0  0  0
    7.0040   -0.0250   18.7220 C   0  0  0  0  0  0  0  0  0  0  0  0
    6.7440   -2.7560   22.3840 C   0  0  0  0  0  0  0  0  0  0  0  0
    5.6100   -3.2430   23.0230 C   0  0  0  0  0  0  0  0  0  0  0  0
    5.5640   -3.6830   24.3020 N   0  0  0  0  0  0  0  0  0  0  0  0
  1  2  1  0
  2  3  1  0
  3  4  1  1
  3  5  1  0
  5  6  1  0
  6  7  2  0
  7  8  1  0
  8  9  1  0
  9 10  1  0
 10 11  1  0
 11 12  2  0
 11 13  1  0
 13 14  1  0
 14 15  2  0
 15 16  1  0
 16 17  2  0
 17 18  1  0
 14 19  1  0
 18 19  2  0
  8 20  2  0
 20 21  1  0
  6 22  1  0
 21 22  2  0
M  END
