pyridine_urea_4118
     RDKit          3D

 25 28  0  0  0  0  0  0  0  0999 V2000
    9.3210    0.2530   21.3870 O   0  0  0  0  0  0  0  0  0  0  0  0
    8.1700    0.3510   21.7410 C   0  0  0  0  0  0  0  0  0  0  0  0
    7.7150    1.2100   22.7120 N   0  0  0  0  0  0  0  0  0  0  0  0
    7.4480    1.0140   24.0880 C   0  0  0  0  0  0  0  0  0  0  0  0
    8.3610    0.2890   24.7800 C   0  0  1  0  0  0  0  0  0  0  0  0
    9.4590    0.1720   24.0990 C   0  0  0  0  0  0  0  0  0  0  0  0
   10.2560   -0.3340   24.9540 C   0  0  0  0  0  0  0  0  0  0  0  0
   11.0230   -0.9350   24.1460 C   0  0  0  0  0  0  0  0  0  0  0  0
   10.1270   -1.0490   23.0870 C   0  0  0  0  0  0  0  0  0  0  0  0
   10.3970   -1.6540   21.7980 C   0  0  0  0  0  0  0  0  0  0  0  0
   11.6000   -2.0620   21.7850 C   0  0  0  0  0  0  0  0  0  0  0  0
   12.4840   -1.9640   22.8360 C   0  0  0  0  0  0  0  0  0  0  0  0
   12.3560   -1.4320   24.0860 C   0  0  0  0  0  0  0  0  0  0  0  0
   13.6060   -2.5200   22.4030 C   0  0  0  0  0  0  0  0  0  0  0  0
   13.3520   -2.3860   21.0560 C   0  0  0  0  0  0  0  0  0  0  0  0
   12.0660   -2.5760   20.8070 O   0  0  0  0  0  0  0  0  0  0  0  0
   10.0340   -0.1420   26.2520 N   0  0  0  0  0  0  0  0  0  0  0  0
    8.8070    0.6230   26.1220 O   0  0  0  0  0  0  0  0  0  0  0  0
    7.1590   -0.3650   21.1540 N   0  0  0  0  0  0  0  0  0  0  0  0
    6.5320    0.1350   20.0860 C   0  0  0  0  0  0  0  0  0  0  0  0
    5.2640    0.9490   20.2940 C   0  0  0  0  0  0  0  0  0  0  0  0
    4.6390    1.4860   19.1920 C   0  0  0  0  0  0  0  0  0  0  0  0
    5.1420    1.2950   17.9210 C   0  0  0  0  0  0  0  0  0  0  0  0
    6.2550    0.5700   17.6870 N   0  0  0  0  0  0  0  0  0  0  0  0
    6.9410   -0.0060   18.7750 C   0  0  0  0  0  0  0  0  0  0  0  0
  1  2  2  0
  2  3  1  0
  3  4  1  0
  5  4  1  6
  5  6  1  0
  6  7  1  0
  7  8  1  0
  8  9  2  0
  9 10  1  0
 10 11  2  0
 11 12  1  0
  8 13  1  0
 12 13  2  0
 12 14  1  0
 14 15  1  0
 11 16  1  0
 15 16  1  0
  7 17  2  0
  5 18  1  0
 17 18  1  0
  2 19  1  0
 19 20  1  0
 20 21  2  0
 21 22  1  0
 22 23  2  0
 23 24  1  0
 20 25  1  0
 24 25  2  0
M  END
