pyridine_urea_13888
     RDKit          3D

 24 26  0  0  0  0  0  0  0  0999 V2000
    8.7360    0.6030   21.2200 O   0  0  0  0  0  0  0  0  0  0  0  0
    8.2660   -0.3970   21.7340 C   0  0  0  0  0  0  0  0  0  0  0  0
    7.0880   -0.9260   21.2420 N   0  0  0  0  0  0  0  0  0  0  0  0
    6.4820   -0.2050   20.1210 C   0  0  0  0  0  0  0  0  0  0  0  0
    5.1890    0.5590   20.4230 C   0  0  0  0  0  0  0  0  0  0  0  0
    4.5980    1.2910   19.2610 C   0  0  0  0  0  0  0  0  0  0  0  0
    5.2400    1.2300   18.0400 C   0  0  0  0  0  0  0  0  0  0  0  0
    6.3780    0.5420   17.8190 N   0  0  0  0  0  0  0  0  0  0  0  0
    6.9620   -0.1470   18.8290 C   0  0  0  0  0  0  0  0  0  0  0  0
    8.8410   -1.0630   22.8340 N   0  0  0  0  0  0  0  0  0  0  0  0
   10.2750   -0.7790   23.1810 C   0  0  0  0  0  0  0  0  0  0  0  0
   10.8010   -0.3990   22.0990 C   0  0  0  0  0  0  0  0  0  0  0  0
   11.0940    1.0600   22.4440 C   0  0  0  0  0  0  0  0  0  0  0  0
   12.2340    1.7070   22.7790 C   0  0  0  0  0  0  0  0  0  0  0  0
   12.1140    3.0630   22.9220 C   0  0  0  0  0  0  0  0  0  0  0  0
   10.8900    3.7310   22.7460 C   0  0  0  0  0  0  0  0  0  0  0  0
    9.4550    3.2270   22.3960 C   0  0  0  0  0  0  0  0  0  0  0  0
    8.2850    3.8970   22.2460 F   0  0  0  0  0  0  0  0  0  0  0  0
    9.7790    1.7500   22.2690 C   0  0  0  0  0  0  0  0  0  0  0  0
   11.1240   -2.0440   23.4510 C   0  0  0  0  0  0  0  0  0  0  0  0
   12.4930   -1.7640   23.4040 C   0  0  0  0  0  0  0  0  0  0  0  0
   12.7630   -0.4310   23.4270 O   0  0  0  0  0  0  0  0  0  0  0  0
   11.9730    0.1840   24.4620 C   0  0  0  0  0  0  0  0  0  0  0  0
   10.5940   -0.0210   24.2960 C   0  0  0  0  0  0  0  0  0  0  0  0
  1  2  2  0
  2  3  1  0
  3  4  1  0
  4  5  2  0
  5  6  1  0
  6  7  2  0
  7  8  1  0
  4  9  1  0
  8  9  2  0
  2 10  1  0
 11 10  1  0
 11 12  1  0
 12 13  1  0
 13 14  2  0
 14 15  1  0
 15 16  2  0
 16 17  1  0
 17 18  1  0
 13 19  1  0
 17 19  2  0
 11 20  1  0
 20 21  1  0
 21 22  1  0
 22 23  1  0
 11 24  1  0
 23 24  1  0
M  END
