pyridine_urea_11907
     RDKit          3D

 24 25  0  0  0  0  0  0  0  0999 V2000
    8.6240    0.8310   21.2630 O   0  0  0  0  0  0  0  0  0  0  0  0
    8.1780   -0.2650   21.5590 C   0  0  0  0  0  0  0  0  0  0  0  0
    7.0200   -0.7810   21.0540 N   0  0  0  0  0  0  0  0  0  0  0  0
    6.3860   -0.1000   20.0100 C   0  0  0  0  0  0  0  0  0  0  0  0
    5.1840    0.5760   20.2460 C   0  0  0  0  0  0  0  0  0  0  0  0
    4.5630    1.2760   19.2090 C   0  0  0  0  0  0  0  0  0  0  0  0
    5.1710    1.2720   17.9710 C   0  0  0  0  0  0  0  0  0  0  0  0
    6.3180    0.6230   17.7260 N   0  0  0  0  0  0  0  0  0  0  0  0
    6.8960   -0.0430   18.7370 C   0  0  0  0  0  0  0  0  0  0  0  0
    8.8560   -1.0690   22.4350 N   0  0  0  0  0  0  0  0  0  0  0  0
   10.1890   -0.5110   22.6040 C   0  0  0  0  0  0  0  0  0  0  0  0
   11.3080   -1.4800   22.2440 C   0  0  0  0  0  0  0  0  0  0  0  0
   12.6190   -1.0150   22.3410 C   0  0  0  0  0  0  0  0  0  0  0  0
   12.8250    0.2930   22.7540 C   0  0  0  0  0  0  0  0  0  0  0  0
   14.0110    0.7640   22.8250 F   0  0  0  0  0  0  0  0  0  0  0  0
   11.7940    1.1240   23.0790 C   0  0  0  0  0  0  0  0  0  0  0  0
   10.4750    0.7760   23.0250 C   0  0  0  0  0  0  0  0  0  0  0  0
    9.5420    1.5200   23.3100 O   0  0  0  0  0  0  0  0  0  0  0  0
    9.7230    2.9200   23.0470 C   0  0  0  0  0  0  0  0  0  0  0  0
    8.6000    3.7500   23.0950 C   0  0  0  0  0  0  0  0  0  0  0  0
    8.6410    4.6120   24.2000 C   0  0  0  0  0  0  0  0  0  0  0  0
    8.3020    5.8840   23.8500 F   0  0  0  0  0  0  0  0  0  0  0  0
    7.7150    4.2700   25.1330 F   0  0  0  0  0  0  0  0  0  0  0  0
    9.8150    4.7070   24.8810 F   0  0  0  0  0  0  0  0  0  0  0  0
  1  2  2  0
  2  3  1  0
  3  4  1  0
  4  5  2  0
  5  6  1  0
  6  7  2  0
  7  8  1  0
  4  9  1  0
  8  9  2  0
  2 10  1  0
 10 11  1  0
 11 12  2  0
 12 13  1  0
 13 14  2  0
 14 15  1  0
 14 16  1  0
 11 17  1  0
 16 17  2  0
 17 18  1  0
 18 19  1  0
 19 20  1  0
 20 21  1  0
 21 22  1  0
 21 23  1  0
 21 24  1  0
M  END
