pyridine_urea_10114
     RDKit          3D

 23 24  0  0  0  0  0  0  0  0999 V2000
   13.0490   -1.6120   24.4120 N   0  0  0  0  0  0  0  0  0  0  0  0
   12.4580   -1.2240   23.2380 C   0  0  0  0  0  0  0  0  0  0  0  0
   11.7160    0.1170   23.2520 C   0  0  0  0  0  0  0  0  0  0  0  0
   13.0910    0.3020   23.1900 C   0  0  0  0  0  0  0  0  0  0  0  0
   12.2280    1.1850   23.2280 C   0  0  0  0  0  0  0  0  0  0  0  0
   10.9330    0.5970   23.2540 C   0  0  0  0  0  0  0  0  0  0  0  0
   10.2900   -0.6820   23.2450 C   0  0  1  0  0  0  0  0  0  0  0  0
    9.0040   -0.5410   22.7440 N   0  0  0  0  0  0  0  0  0  0  0  0
    8.5330    0.1860   21.6530 C   0  0  0  0  0  0  0  0  0  0  0  0
    9.0270    1.2490   21.2430 O   0  0  0  0  0  0  0  0  0  0  0  0
    7.4140   -0.4220   21.0950 N   0  0  0  0  0  0  0  0  0  0  0  0
    6.6490    0.1340   20.0560 C   0  0  0  0  0  0  0  0  0  0  0  0
    5.5010    0.8660   20.3800 C   0  0  0  0  0  0  0  0  0  0  0  0
    4.7510    1.4320   19.3580 C   0  0  0  0  0  0  0  0  0  0  0  0
    5.1620    1.2590   18.0470 C   0  0  0  0  0  0  0  0  0  0  0  0
    6.2490    0.5570   17.7190 N   0  0  0  0  0  0  0  0  0  0  0  0
    6.9690    0.0090   18.7220 C   0  0  0  0  0  0  0  0  0  0  0  0
   11.0480   -1.7780   22.5440 C   0  0  0  0  0  0  0  0  0  0  0  0
   12.1480   -1.5540   21.8100 F   0  0  0  0  0  0  0  0  0  0  0  0
   10.1980   -2.4390   21.7200 F   0  0  0  0  0  0  0  0  0  0  0  0
   11.3870   -2.7390   23.4600 F   0  0  0  0  0  0  0  0  0  0  0  0
   10.1900    1.7090   23.2970 C   0  0  0  0  0  0  0  0  0  0  0  0
   11.6580    1.6950   23.2460 C   0  0  0  0  0  0  0  0  0  0  0  0
  1  2  3  0
  2  3  1  0
  3  4  2  0
  4  5  1  0
  5  6  2  0
  6  7  1  0
  7  8  1  6
  8  9  1  0
  9 10  2  0
  9 11  1  0
 11 12  1  0
 12 13  2  0
 13 14  1  0
 14 15  2  0
 15 16  1  0
 12 17  1  0
 16 17  2  0
  7 18  1  0
 18 19  1  0
 18 20  1  0
 18 21  1  0
  6 22  1  0
  3 23  1  0
 22 23  2  0
M  END
