pyridine_urea_5484
     RDKit          3D

 18 19  0  0  0  0  0  0  0  0999 V2000
   11.6000   -1.6810   22.0440 C   0  0  0  0  0  0  0  0  0  0  0  0
   10.5560   -0.8740   22.8160 C   0  0  0  0  0  0  0  0  0  0  0  0
   10.5900   -1.5910   24.2110 C   0  0  0  0  0  0  0  0  0  0  0  0
    9.2350   -1.2450   22.2740 N   0  0  0  0  0  0  0  0  0  0  0  0
    8.5540   -0.2850   21.5450 C   0  0  0  0  0  0  0  0  0  0  0  0
    8.9950    0.8310   21.3210 O   0  0  0  0  0  0  0  0  0  0  0  0
    7.2600   -0.7800   21.0950 N   0  0  0  0  0  0  0  0  0  0  0  0
    6.5470   -0.0900   20.1350 C   0  0  0  0  0  0  0  0  0  0  0  0
    5.3740    0.5940   20.4730 C   0  0  0  0  0  0  0  0  0  0  0  0
    4.6500    1.3380   19.3650 C   0  0  0  0  0  0  0  0  0  0  0  0
    5.2420    1.2870   17.9880 C   0  0  0  0  0  0  0  0  0  0  0  0
    6.3760    0.5970   17.7600 N   0  0  0  0  0  0  0  0  0  0  0  0
    6.9760   -0.0560   18.8040 C   0  0  0  0  0  0  0  0  0  0  0  0
   10.8700    0.5040   22.8690 C   0  0  0  0  0  0  0  0  0  0  0  0
   12.1700    1.0120   22.8560 N   0  0  0  0  0  0  0  0  0  0  0  0
   12.0040    2.3760   22.9030 N   0  0  0  0  0  0  0  0  0  0  0  0
   10.7170    2.7160   22.9480 N   0  0  0  0  0  0  0  0  0  0  0  0
   10.0150    1.5670   22.9290 N   0  0  0  0  0  0  0  0  0  0  0  0
  1  2  1  0
  2  3  1  0
  2  4  1  0
  4  5  1  0
  5  6  2  0
  5  7  1  0
  7  8  1  0
  8  9  2  0
  9 10  1  0
 10 11  2  0
 11 12  1  0
  8 13  1  0
 12 13  2  0
  2 14  1  0
 14 15  2  0
 15 16  1  0
 16 17  2  0
 14 18  1  0
 17 18  1  0
M  END
