pyridine_urea_14995
     RDKit          3D

 19 20  0  0  0  0  0  0  0  0999 V2000
   13.6610   -2.6920   24.0330 C   0  0  0  0  0  0  0  0  0  0  0  0
   13.2550   -1.4750   23.2150 C   0  0  0  0  0  0  0  0  0  0  0  0
   13.0160   -1.8550   21.7570 C   0  0  0  0  0  0  0  0  0  0  0  0
   12.1120   -0.9250   23.8310 N   0  0  0  0  0  0  0  0  0  0  0  0
   11.2030   -0.2760   23.2660 C   0  0  0  0  0  0  0  0  0  0  0  0
   10.1550    0.1170   24.1710 C   0  0  0  0  0  0  0  0  0  0  0  0
    8.9430    0.8530   23.7740 C   0  0  0  0  0  0  0  0  0  0  0  0
    8.3620    0.0140   22.8680 N   0  0  0  0  0  0  0  0  0  0  0  0
    8.1740    0.3430   21.5330 C   0  0  0  0  0  0  0  0  0  0  0  0
    8.7790    1.2800   21.0110 O   0  0  0  0  0  0  0  0  0  0  0  0
    7.2560   -0.4730   20.9790 N   0  0  0  0  0  0  0  0  0  0  0  0
    6.5450    0.1110   19.9990 C   0  0  0  0  0  0  0  0  0  0  0  0
    5.3780    0.8150   20.3280 C   0  0  0  0  0  0  0  0  0  0  0  0
    4.6950    1.4120   19.2880 C   0  0  0  0  0  0  0  0  0  0  0  0
    5.1600    1.3010   18.0000 C   0  0  0  0  0  0  0  0  0  0  0  0
    6.2570    0.6280   17.6530 N   0  0  0  0  0  0  0  0  0  0  0  0
    6.9180    0.0510   18.6740 C   0  0  0  0  0  0  0  0  0  0  0  0
   10.5850   -0.3750   25.3530 N   0  0  0  0  0  0  0  0  0  0  0  0
   11.8020   -1.0240   25.1450 N   0  0  0  0  0  0  0  0  0  0  0  0
  1  2  1  0
  2  3  1  0
  2  4  1  0
  4  5  1  0
  5  6  2  0
  6  7  1  0
  7  8  1  0
  8  9  1  0
  9 10  2  0
  9 11  1  0
 11 12  1  0
 12 13  2  0
 13 14  1  0
 14 15  2  0
 15 16  1  0
 12 17  1  0
 16 17  2  0
  6 18  1  0
  4 19  1  0
 18 19  2  0
M  END
