pyridine_urea_14406
     RDKit          3D

 23 24  0  0  0  0  0  0  0  0999 V2000
    8.2390   -0.4720   30.3400 C   0  0  0  0  0  0  0  0  0  0  0  0
    8.8950    0.7940   29.8820 C   0  0  0  0  0  0  0  0  0  0  0  0
   10.2800    0.8990   30.0570 C   0  0  0  0  0  0  0  0  0  0  0  0
    8.2770    1.9330   30.7070 C   0  0  0  0  0  0  0  0  0  0  0  0
    8.4860    0.9660   28.3690 C   0  0  0  0  0  0  0  0  0  0  0  0
    7.4400    1.9640   28.0400 C   0  0  0  0  0  0  0  0  0  0  0  0
    7.0960    2.0680   26.5800 C   0  0  0  0  0  0  0  0  0  0  0  0
    7.8120    1.1740   25.5600 C   0  0  0  0  0  0  0  0  0  0  0  0
    8.8070    0.2190   25.8260 C   0  0  0  0  0  0  0  0  0  0  0  0
    9.3530   -0.4820   24.9780 O   0  0  0  0  0  0  0  0  0  0  0  0
   10.2860    0.1670   24.0970 C   0  0  0  0  0  0  0  0  0  0  0  0
   10.4310   -0.6420   22.9790 C   0  0  0  0  0  0  0  0  0  0  0  0
    9.2400   -0.8790   22.2450 N   0  0  0  0  0  0  0  0  0  0  0  0
    8.5470    0.0350   21.4770 C   0  0  0  0  0  0  0  0  0  0  0  0
    8.9960    1.1550   21.2030 O   0  0  0  0  0  0  0  0  0  0  0  0
    7.3310   -0.4660   21.0740 N   0  0  0  0  0  0  0  0  0  0  0  0
    6.5910    0.1150   20.0440 C   0  0  0  0  0  0  0  0  0  0  0  0
    5.4440    0.8400   20.3220 C   0  0  0  0  0  0  0  0  0  0  0  0
    4.7190    1.4340   19.3150 C   0  0  0  0  0  0  0  0  0  0  0  0
    5.1260    1.3170   18.0020 C   0  0  0  0  0  0  0  0  0  0  0  0
    6.2280    0.6150   17.6850 N   0  0  0  0  0  0  0  0  0  0  0  0
    6.9290    0.0340   18.7010 C   0  0  0  0  0  0  0  0  0  0  0  0
    9.0970    0.1910   27.3790 C   0  0  0  0  0  0  0  0  0  0  0  0
  2  1  1  0
  2  3  1  0
  2  4  1  0
  2  5  1  0
  5  6  2  0
  6  7  1  0
  7  8  2  0
  8  9  1  0
  9 10  1  0
 10 11  1  0
 11 12  1  0
 12 13  1  0
 13 14  1  0
 14 15  2  0
 14 16  1  0
 16 17  1  0
 17 18  2  0
 18 19  1  0
 19 20  2  0
 20 21  1  0
 17 22  1  0
 21 22  2  0
  5 23  1  0
  9 23  2  0
M  END
