pyridine_urea_2295
     RDKit          3D

 25 28  0  0  0  0  0  0  0  0999 V2000
    8.7990    1.4860   20.9550 O   0  0  0  0  0  0  0  0  0  0  0  0
    8.2310    0.5110   21.4240 C   0  0  0  0  0  0  0  0  0  0  0  0
    7.2180   -0.2290   20.9040 N   0  0  0  0  0  0  0  0  0  0  0  0
    6.4910    0.3010   19.8840 C   0  0  0  0  0  0  0  0  0  0  0  0
    5.3270    1.0060   20.1690 C   0  0  0  0  0  0  0  0  0  0  0  0
    4.6130    1.5700   19.1270 C   0  0  0  0  0  0  0  0  0  0  0  0
    5.1050    1.3980   17.8540 C   0  0  0  0  0  0  0  0  0  0  0  0
    6.2130    0.7090   17.5690 N   0  0  0  0  0  0  0  0  0  0  0  0
    6.8790    0.1790   18.5910 C   0  0  0  0  0  0  0  0  0  0  0  0
    8.5400    0.0390   22.6120 N   0  0  0  0  0  0  0  0  0  0  0  0
    9.4480   -1.0620   22.7440 C   0  0  1  0  0  0  0  0  0  0  0  0
   10.3770   -1.4340   21.6120 C   0  0  0  0  0  0  0  0  0  0  0  0
   11.7600   -1.5380   21.9070 C   0  0  0  0  0  0  0  0  0  0  0  0
   12.7680   -1.8180   21.0200 C   0  0  0  0  0  0  0  0  0  0  0  0
   13.3140   -2.9940   20.9030 C   0  0  0  0  0  0  0  0  0  0  0  0
   13.6460   -3.5170   22.1640 O   0  0  0  0  0  0  0  0  0  0  0  0
   13.3070   -2.6930   23.2640 C   0  0  0  0  0  0  0  0  0  0  0  0
   11.9950   -2.3080   23.2090 C   0  0  0  0  0  0  0  0  0  0  0  0
   12.0870   -0.2690   22.2540 O   0  0  0  0  0  0  0  0  0  0  0  0
   11.6480   -0.3580   23.4500 C   0  0  0  0  0  0  0  0  0  0  0  0
   12.5570   -0.1220   24.3340 C   0  0  0  0  0  0  0  0  0  0  0  0
   12.1300   -0.2260   25.5740 C   0  0  0  0  0  0  0  0  0  0  0  0
   10.7830   -0.5160   25.9080 C   0  0  0  0  0  0  0  0  0  0  0  0
    9.8980   -0.7720   24.9940 C   0  0  0  0  0  0  0  0  0  0  0  0
   10.3500   -0.7130   23.7640 C   0  0  0  0  0  0  0  0  0  0  0  0
  1  2  2  0
  2  3  1  0
  3  4  1  0
  4  5  2  0
  5  6  1  0
  6  7  2  0
  7  8  1  0
  4  9  1  0
  8  9  2  0
  2 10  1  0
 11 10  1  6
 11 12  1  0
 12 13  1  0
 13 14  1  0
 14 15  1  0
 15 16  1  0
 16 17  1  0
 13 18  1  0
 17 18  1  0
 13 19  1  0
 19 20  1  0
 20 21  2  0
 21 22  1  0
 22 23  2  0
 23 24  1  0
 11 25  1  0
 20 25  1  0
 24 25  2  0
M  END
