pyridine_urea_4501
     RDKit          3D

 23 25  0  0  0  0  0  0  0  0999 V2000
   11.4000    6.7990   24.0270 C   0  0  0  0  0  0  0  0  0  0  0  0
   11.7510    5.4130   23.4680 C   0  0  0  0  0  0  0  0  0  0  0  0
   12.7860    5.3480   22.4860 N   0  0  0  0  0  0  0  0  0  0  0  0
   12.8340    4.0000   22.2310 N   0  0  0  0  0  0  0  0  0  0  0  0
   11.9320    3.3260   22.9680 C   0  0  0  0  0  0  0  0  0  0  0  0
   11.7500    1.8080   22.9040 C   0  0  0  0  0  0  0  0  0  0  0  0
   12.9770    0.9420   22.9410 C   0  0  0  0  0  0  0  0  0  0  0  0
   12.8800   -0.5590   22.8630 C   0  0  0  0  0  0  0  0  0  0  0  0
   11.4760   -1.1640   22.7320 C   0  0  0  0  0  0  0  0  0  0  0  0
   11.3500   -2.5260   22.6490 C   0  0  0  0  0  0  0  0  0  0  0  0
   10.2190   -0.2400   22.6900 C   0  0  0  0  0  0  0  0  0  0  0  0
    8.9390   -0.6200   22.5600 N   0  0  0  0  0  0  0  0  0  0  0  0
    8.3170    0.0520   21.5540 C   0  0  0  0  0  0  0  0  0  0  0  0
    8.6990    1.1530   21.1210 O   0  0  0  0  0  0  0  0  0  0  0  0
    7.2370   -0.6200   21.0950 N   0  0  0  0  0  0  0  0  0  0  0  0
    6.5620    0.0030   20.1090 C   0  0  0  0  0  0  0  0  0  0  0  0
    5.4170    0.7520   20.4140 C   0  0  0  0  0  0  0  0  0  0  0  0
    4.6890    1.4490   19.3100 C   0  0  0  0  0  0  0  0  0  0  0  0
    5.1560    1.3450   18.0070 C   0  0  0  0  0  0  0  0  0  0  0  0
    6.2800    0.6020   17.6830 N   0  0  0  0  0  0  0  0  0  0  0  0
    6.9460   -0.0510   18.7800 C   0  0  0  0  0  0  0  0  0  0  0  0
   10.4980    1.2590   22.7950 C   0  0  0  0  0  0  0  0  0  0  0  0
   11.2120    4.2040   23.7750 N   0  0  0  0  0  0  0  0  0  0  0  0
  1  2  1  0
  2  3  2  0
  3  4  1  0
  4  5  2  0
  5  6  1  0
  6  7  2  0
  7  8  1  0
  8  9  2  0
  9 10  1  0
  9 11  1  0
 11 12  1  0
 12 13  1  0
 13 14  2  0
 13 15  1  0
 15 16  1  0
 16 17  2  0
 17 18  1  0
 18 19  2  0
 19 20  1  0
 16 21  1  0
 20 21  2  0
  6 22  1  0
 11 22  2  0
  2 23  1  0
  5 23  1  0
M  END
