pyridine_urea_5251
     RDKit          3D

 19 21  0  0  0  0  0  0  0  0999 V2000
    8.6950    0.9190   21.2820 O   0  0  0  0  0  0  0  0  0  0  0  0
    8.3110   -0.2320   21.4560 C   0  0  0  0  0  0  0  0  0  0  0  0
    7.1000   -0.7110   21.0460 N   0  0  0  0  0  0  0  0  0  0  0  0
    6.4280   -0.0480   20.0120 C   0  0  0  0  0  0  0  0  0  0  0  0
    5.2400    0.6400   20.2800 C   0  0  0  0  0  0  0  0  0  0  0  0
    4.5870    1.3170   19.2480 C   0  0  0  0  0  0  0  0  0  0  0  0
    5.1500    1.2780   17.9890 C   0  0  0  0  0  0  0  0  0  0  0  0
    6.2840    0.6170   17.7120 N   0  0  0  0  0  0  0  0  0  0  0  0
    6.8910   -0.0260   18.7220 C   0  0  0  0  0  0  0  0  0  0  0  0
    9.1030   -1.1460   22.1010 N   0  0  0  0  0  0  0  0  0  0  0  0
   10.3810   -0.5950   22.4800 C   0  0  2  0  0  0  0  0  0  0  0  0
   11.5650   -1.5270   22.2550 C   0  0  0  0  0  0  0  0  0  0  0  0
   12.7550   -0.9330   22.6650 C   0  0  0  0  0  0  0  0  0  0  0  0
   12.6760    0.1130   23.5830 C   0  0  0  0  0  0  0  0  0  0  0  0
   11.4620    0.2390   24.2850 C   0  0  2  0  0  0  0  0  0  0  0  0
   10.3960   -0.0450   23.7450 C   0  0  1  0  0  0  0  0  0  0  0  0
   10.5340    1.3730   24.0020 C   0  0  0  0  0  0  0  0  0  0  0  0
    9.6790    1.9060   24.8770 F   0  0  0  0  0  0  0  0  0  0  0  0
   10.6940    2.2340   22.9660 F   0  0  0  0  0  0  0  0  0  0  0  0
  1  2  2  0
  2  3  1  0
  3  4  1  0
  4  5  2  0
  5  6  1  0
  6  7  2  0
  7  8  1  0
  4  9  1  0
  8  9  2  0
  2 10  1  0
 11 10  1  1
 11 12  1  0
 12 13  1  0
 13 14  1  0
 15 14  1  6
 11 16  1  0
 15 16  1  0
 15 17  1  0
 16 17  1  6
 17 18  1  0
 17 19  1  0
M  END
