pyridine_urea_2748
     RDKit          3D

 23 24  0  0  0  0  0  0  0  0999 V2000
    3.9790   -3.3950   23.6010 C   0  0  0  0  0  0  0  0  0  0  0  0
    5.1790   -2.7410   24.2890 C   0  0  0  0  0  0  0  0  0  0  0  0
    5.1220   -1.1900   24.4210 C   0  0  0  0  0  0  0  0  0  0  0  0
    6.1620   -0.5250   25.0250 C   0  0  0  0  0  0  0  0  0  0  0  0
    7.3500   -1.3350   25.5510 C   0  0  0  0  0  0  0  0  0  0  0  0
    8.6810   -0.3820   26.3300 S   0  0  0  0  0  0  0  0  0  0  0  0
    9.1010   -1.0970   27.5140 O   0  0  0  0  0  0  0  0  0  0  0  0
    8.2410    0.9880   26.4160 O   0  0  0  0  0  0  0  0  0  0  0  0
    9.9470   -0.5630   25.2130 N   0  0  0  0  0  0  0  0  0  0  0  0
   10.1540    0.3700   24.1710 C   0  0  0  0  0  0  0  0  0  0  0  0
   10.3920   -0.2410   22.7850 C   0  0  0  0  0  0  0  0  0  0  0  0
    9.1400   -0.8090   22.3960 N   0  0  0  0  0  0  0  0  0  0  0  0
    8.4690   -0.0630   21.4230 C   0  0  0  0  0  0  0  0  0  0  0  0
    8.8920    1.0770   21.1410 O   0  0  0  0  0  0  0  0  0  0  0  0
    7.3890   -0.6910   20.8960 N   0  0  0  0  0  0  0  0  0  0  0  0
    6.6080   -0.0070   20.0360 C   0  0  0  0  0  0  0  0  0  0  0  0
    5.3270    0.7270   20.3900 C   0  0  0  0  0  0  0  0  0  0  0  0
    4.5800    1.4480   19.2850 C   0  0  0  0  0  0  0  0  0  0  0  0
    5.2130    1.3600   17.9090 C   0  0  0  0  0  0  0  0  0  0  0  0
    6.3550    0.6740   17.7060 N   0  0  0  0  0  0  0  0  0  0  0  0
    6.9930    0.0390   18.7090 C   0  0  0  0  0  0  0  0  0  0  0  0
    7.3790   -2.7390   25.4220 C   0  0  0  0  0  0  0  0  0  0  0  0
    6.3070   -3.4340   24.7980 C   0  0  0  0  0  0  0  0  0  0  0  0
  1  2  1  0
  2  3  2  0
  3  4  1  0
  4  5  2  0
  5  6  1  0
  6  7  2  0
  6  8  2  0
  6  9  1  0
  9 10  1  0
 10 11  1  0
 11 12  1  0
 12 13  1  0
 13 14  2  0
 13 15  1  0
 15 16  1  0
 16 17  2  0
 17 18  1  0
 18 19  2  0
 19 20  1  0
 16 21  1  0
 20 21  2  0
  5 22  1  0
  2 23  1  0
 22 23  2  0
M  END
