pyridine_urea_10927
     RDKit          3D

 19 20  0  0  0  0  0  0  0  0999 V2000
   10.4610    1.7570   23.4940 C   0  0  0  0  0  0  0  0  0  0  0  0
   10.4760    0.3180   23.9280 C   0  0  0  0  0  0  0  0  0  0  0  0
    9.6670    0.0600   25.0470 C   0  0  0  0  0  0  0  0  0  0  0  0
    9.7670   -0.4180   22.7910 C   0  0  0  0  0  0  0  0  0  0  0  0
    8.4690   -0.3190   22.8100 N   0  0  0  0  0  0  0  0  0  0  0  0
    8.1860    0.1850   21.5760 C   0  0  0  0  0  0  0  0  0  0  0  0
    8.7430    1.1870   21.1000 O   0  0  0  0  0  0  0  0  0  0  0  0
    7.2240   -0.5640   21.0180 N   0  0  0  0  0  0  0  0  0  0  0  0
    6.5640    0.0440   20.0200 C   0  0  0  0  0  0  0  0  0  0  0  0
    5.3330    0.8230   20.3940 C   0  0  0  0  0  0  0  0  0  0  0  0
    4.6370    1.5000   19.2510 C   0  0  0  0  0  0  0  0  0  0  0  0
    5.1680    1.3530   17.9920 C   0  0  0  0  0  0  0  0  0  0  0  0
    6.2410    0.6700   17.6110 N   0  0  0  0  0  0  0  0  0  0  0  0
    6.9060    0.0290   18.6870 C   0  0  0  0  0  0  0  0  0  0  0  0
   11.6050   -0.4500   23.9330 C   0  0  0  0  0  0  0  0  0  0  0  0
   11.5730   -1.1350   24.9460 O   0  0  0  0  0  0  0  0  0  0  0  0
   12.8710   -0.0120   23.6670 C   0  0  0  0  0  0  0  0  0  0  0  0
   13.0610   -0.7630   22.5990 C   0  0  0  0  0  0  0  0  0  0  0  0
   11.8300   -1.3530   22.6060 C   0  0  0  0  0  0  0  0  0  0  0  0
  2  1  1  0
  2  3  1  0
  2  4  1  0
  4  5  1  0
  5  6  1  0
  6  7  2  0
  6  8  1  0
  8  9  1  0
  9 10  2  0
 10 11  1  0
 11 12  2  0
 12 13  1  0
  9 14  1  0
 13 14  2  0
  2 15  1  0
 15 16  1  0
 15 17  1  0
 17 18  1  0
 15 19  1  0
 18 19  1  0
M  END
