pyridine_urea_7351
     RDKit          3D

 17 18  0  0  0  0  0  0  0  0999 V2000
   12.3180    1.3720   22.8710 C   0  0  0  0  0  0  0  0  0  0  0  0
   10.8390    1.0030   22.7450 C   0  0  0  0  0  0  0  0  0  0  0  0
   10.6490   -0.3710   22.5950 C   0  0  0  0  0  0  0  0  0  0  0  0
    9.6900   -0.7280   21.7000 N   0  0  0  0  0  0  0  0  0  0  0  0
    8.6390    0.0850   21.3280 C   0  0  0  0  0  0  0  0  0  0  0  0
    8.7960    1.2950   21.1390 O   0  0  0  0  0  0  0  0  0  0  0  0
    7.3700   -0.6480   21.1520 N   0  0  0  0  0  0  0  0  0  0  0  0
    6.6090   -0.0060   20.1310 C   0  0  0  0  0  0  0  0  0  0  0  0
    5.4740    0.7220   20.5050 C   0  0  0  0  0  0  0  0  0  0  0  0
    4.7210    1.3660   19.5230 C   0  0  0  0  0  0  0  0  0  0  0  0
    5.1960    1.2310   18.0890 C   0  0  0  0  0  0  0  0  0  0  0  0
    6.2860    0.5190   17.7670 N   0  0  0  0  0  0  0  0  0  0  0  0
    6.9600   -0.0770   18.7820 C   0  0  0  0  0  0  0  0  0  0  0  0
   11.9930   -0.9760   22.2050 C   0  0  0  0  0  0  0  0  0  0  0  0
   12.6270   -1.6180   23.2270 C   0  0  0  0  0  0  0  0  0  0  0  0
   11.6920   -1.6530   24.2190 C   0  0  0  0  0  0  0  0  0  0  0  0
   10.4950   -1.1020   23.7620 C   0  0  0  0  0  0  0  0  0  0  0  0
  1  2  3  0
  3  2  1  0
  3  4  1  0
  4  5  1  0
  5  6  2  0
  5  7  1  0
  7  8  1  0
  8  9  2  0
  9 10  1  0
 10 11  2  0
 11 12  1  0
  8 13  1  0
 12 13  2  0
  3 14  1  0
 14 15  1  0
 15 16  1  0
  3 17  1  0
 16 17  1  0
M  END
