pyridine_urea_6478
     RDKit          3D

 23 25  0  0  0  0  0  0  0  0999 V2000
   13.4250   -2.8800   25.1440 C   0  0  0  0  0  0  0  0  0  0  0  0
   12.8000   -2.4650   24.2230 C   0  0  0  0  0  0  0  0  0  0  0  0
   11.7170   -1.5280   24.3450 N   0  0  0  0  0  0  0  0  0  0  0  0
   11.4330   -1.4300   22.9620 C   0  0  0  0  0  0  0  0  0  0  0  0
   10.3860   -0.5490   22.3870 C   0  0  1  0  0  0  0  0  0  0  0  0
    9.0410   -0.6830   22.6830 N   0  0  0  0  0  0  0  0  0  0  0  0
    8.3960   -0.1310   21.6380 C   0  0  0  0  0  0  0  0  0  0  0  0
    8.8850    1.1780   21.1730 O   0  0  0  0  0  0  0  0  0  0  0  0
    7.3010   -0.7320   21.0300 N   0  0  0  0  0  0  0  0  0  0  0  0
    6.6400   -0.0770   20.0980 C   0  0  0  0  0  0  0  0  0  0  0  0
    5.4190    0.7310   20.3640 C   0  0  0  0  0  0  0  0  0  0  0  0
    4.6830    1.4320   19.4570 C   0  0  0  0  0  0  0  0  0  0  0  0
    5.2930    1.2820   18.0790 C   0  0  0  0  0  0  0  0  0  0  0  0
    6.3940    0.5530   17.8150 N   0  0  0  0  0  0  0  0  0  0  0  0
    7.0330   -0.1010   18.7920 C   0  0  0  0  0  0  0  0  0  0  0  0
   10.9360    0.7950   22.9430 C   0  0  0  0  0  0  0  0  0  0  0  0
   10.1560    1.6180   23.1340 C   0  0  0  0  0  0  0  0  0  0  0  0
   11.3370    2.2390   23.5050 C   0  0  0  0  0  0  0  0  0  0  0  0
   11.1050    0.5800   22.8890 C   0  0  0  0  0  0  0  0  0  0  0  0
   12.6220    0.3560   23.0100 C   0  0  0  0  0  0  0  0  0  0  0  0
   12.3140    1.3700   23.3280 C   0  0  0  0  0  0  0  0  0  0  0  0
   12.2400   -2.2170   22.1340 N   0  0  0  0  0  0  0  0  0  0  0  0
   13.1060   -2.8560   23.0840 O   0  0  0  0  0  0  0  0  0  0  0  0
  1  2  1  0
  2  3  2  0
  3  4  1  0
  4  5  1  0
  5  6  1  1
  6  7  1  0
  7  8  2  0
  7  9  1  0
  9 10  1  0
 10 11  2  0
 11 12  1  0
 12 13  2  0
 13 14  1  0
 10 15  1  0
 14 15  2  0
  5 16  1  0
 16 17  2  0
 17 18  1  0
 18 19  2  0
 19 20  1  0
 16 21  1  0
 20 21  2  0
  4 22  2  0
  2 23  1  0
 22 23  1  0
M  END
