pyridine_urea_2984
     RDKit          3D

 21 22  0  0  0  0  0  0  0  0999 V2000
    5.5760   -3.3980   22.4280 C   0  0  0  0  0  0  0  0  0  0  0  0
    6.1740   -3.0530   23.6300 N   0  0  0  0  0  0  0  0  0  0  0  0
    6.8380   -1.7530   23.7190 C   0  0  0  0  0  0  0  0  0  0  0  0
    8.3900   -2.0150   23.6140 C   0  0  0  0  0  0  0  0  0  0  0  0
    9.0810   -1.4650   22.3790 N   0  0  0  0  0  0  0  0  0  0  0  0
    8.4570   -0.3800   21.5910 C   0  0  0  0  0  0  0  0  0  0  0  0
    8.9830    0.7190   21.4780 O   0  0  0  0  0  0  0  0  0  0  0  0
    7.2810   -0.7340   21.0340 N   0  0  0  0  0  0  0  0  0  0  0  0
    6.5140   -0.0120   20.0860 C   0  0  0  0  0  0  0  0  0  0  0  0
    5.3460    0.6940   20.4200 C   0  0  0  0  0  0  0  0  0  0  0  0
    4.6290    1.4360   19.3060 C   0  0  0  0  0  0  0  0  0  0  0  0
    5.2130    1.3660   17.9280 C   0  0  0  0  0  0  0  0  0  0  0  0
    6.3370    0.6600   17.6820 N   0  0  0  0  0  0  0  0  0  0  0  0
    6.9530   -0.0090   18.7580 C   0  0  0  0  0  0  0  0  0  0  0  0
    5.9980   -3.6980   24.8450 C   0  0  0  0  0  0  0  0  0  0  0  0
    6.2160   -3.0120   26.1940 C   0  0  0  0  0  0  0  0  0  0  0  0
    5.9930   -3.8380   27.4560 C   0  0  0  0  0  0  0  0  0  0  0  0
    5.6020   -5.1680   27.3560 C   0  0  0  0  0  0  0  0  0  0  0  0
    5.3300   -6.1960   28.9170 Br  0  0  0  0  0  0  0  0  0  0  0  0
    5.4070   -5.7630   26.1070 C   0  0  0  0  0  0  0  0  0  0  0  0
    5.6010   -5.0470   24.9260 C   0  0  0  0  0  0  0  0  0  0  0  0
  1  2  1  0
  2  3  1  0
  3  4  1  0
  4  5  1  0
  5  6  1  0
  6  7  2  0
  6  8  1  0
  8  9  1  0
  9 10  2  0
 10 11  1  0
 11 12  2  0
 12 13  1  0
  9 14  1  0
 13 14  2  0
  2 15  1  0
 15 16  2  0
 16 17  1  0
 17 18  2  0
 18 19  1  0
 18 20  1  0
 15 21  1  0
 20 21  2  0
M  END
