pyridine_urea_12925
     RDKit          3D

 19 20  0  0  0  0  0  0  0  0999 V2000
    8.9560    1.1680   21.1890 O   0  0  0  0  0  0  0  0  0  0  0  0
    8.4930    0.0500   21.4630 C   0  0  0  0  0  0  0  0  0  0  0  0
    9.1520   -0.8250   22.2870 N   0  0  0  0  0  0  0  0  0  0  0  0
    9.8650   -0.2810   23.4130 C   0  0  0  0  0  0  0  0  0  0  0  0
   11.2800   -0.8530   23.5900 C   0  0  0  0  0  0  0  0  0  0  0  0
   11.3560   -1.9620   24.4150 C   0  0  0  0  0  0  0  0  0  0  0  0
   10.4890   -2.9590   23.9860 C   0  0  0  0  0  0  0  0  0  0  0  0
    9.1740   -2.8080   24.2010 F   0  0  0  0  0  0  0  0  0  0  0  0
   10.7990   -4.0610   24.7160 F   0  0  0  0  0  0  0  0  0  0  0  0
   12.0870    0.3070   24.1360 C   0  0  0  0  0  0  0  0  0  0  0  0
   12.8420    0.3830   22.9990 C   0  0  0  0  0  0  0  0  0  0  0  0
   12.2310   -0.7860   22.5490 C   0  0  0  0  0  0  0  0  0  0  0  0
    7.2990   -0.4660   21.0290 N   0  0  0  0  0  0  0  0  0  0  0  0
    6.5530    0.1230   20.0340 C   0  0  0  0  0  0  0  0  0  0  0  0
    5.3980    0.8360   20.3970 C   0  0  0  0  0  0  0  0  0  0  0  0
    4.6650    1.4450   19.3790 C   0  0  0  0  0  0  0  0  0  0  0  0
    5.1520    1.2990   17.9870 C   0  0  0  0  0  0  0  0  0  0  0  0
    6.2400    0.6130   17.6630 N   0  0  0  0  0  0  0  0  0  0  0  0
    6.9110    0.0440   18.6930 C   0  0  0  0  0  0  0  0  0  0  0  0
  1  2  2  0
  2  3  1  0
  3  4  1  0
  5  4  1  0
  5  6  1  0
  6  7  1  0
  7  8  1  0
  7  9  1  0
  5 10  1  0
 10 11  1  0
  5 12  1  0
 11 12  1  0
  2 13  1  0
 13 14  1  0
 14 15  2  0
 15 16  1  0
 16 17  2  0
 17 18  1  0
 14 19  1  0
 18 19  2  0
M  END
