pyridine_urea_6719
     RDKit          3D

 21 22  0  0  0  0  0  0  0  0999 V2000
    9.4870    0.3430   24.3420 C   0  0  0  0  0  0  0  0  0  0  0  0
    9.6980   -0.9820   23.5650 C   0  0  1  0  0  0  0  0  0  0  0  0
    8.6430   -1.2120   22.5860 N   0  0  0  0  0  0  0  0  0  0  0  0
    8.2620   -0.2700   21.6650 C   0  0  0  0  0  0  0  0  0  0  0  0
    8.8900    0.7480   21.4190 O   0  0  0  0  0  0  0  0  0  0  0  0
    7.0770   -0.6490   21.0870 N   0  0  0  0  0  0  0  0  0  0  0  0
    6.4750    0.0040   20.0160 C   0  0  0  0  0  0  0  0  0  0  0  0
    5.2210    0.7860   20.2290 C   0  0  0  0  0  0  0  0  0  0  0  0
    4.6020    1.4600   19.1920 C   0  0  0  0  0  0  0  0  0  0  0  0
    5.1340    1.4360   17.8960 C   0  0  0  0  0  0  0  0  0  0  0  0
    6.3440    0.6650   17.7190 N   0  0  0  0  0  0  0  0  0  0  0  0
    6.9500   -0.0020   18.7400 C   0  0  0  0  0  0  0  0  0  0  0  0
   11.0800   -1.1610   22.8980 C   0  0  0  0  0  0  0  0  0  0  0  0
   11.7130   -2.0940   22.1920 C   0  0  0  0  0  0  0  0  0  0  0  0
   13.4230   -1.2310   21.8940 S   0  0  0  0  0  0  0  0  0  0  0  0
   13.1430    0.4420   22.7770 C   0  0  0  0  0  0  0  0  0  0  0  0
   11.9920    0.9150   23.4370 C   0  0  0  0  0  0  0  0  0  0  0  0
   11.8180    0.2570   24.6020 F   0  0  0  0  0  0  0  0  0  0  0  0
   10.9310    0.6710   22.6450 F   0  0  0  0  0  0  0  0  0  0  0  0
   12.0040    2.2460   23.6220 F   0  0  0  0  0  0  0  0  0  0  0  0
   12.3620   -0.7020   22.5750 C   0  0  0  0  0  0  0  0  0  0  0  0
  2  1  1  6
  2  3  1  0
  3  4  1  0
  4  5  2  0
  4  6  1  0
  6  7  1  0
  7  8  2  0
  8  9  1  0
  9 10  2  0
 10 11  1  0
  7 12  1  0
 11 12  2  0
  2 13  1  0
 13 14  2  0
 14 15  1  0
 15 16  1  0
 16 17  1  0
 17 18  1  0
 17 19  1  0
 17 20  1  0
 13 21  1  0
 16 21  2  0
M  END
