pyridine_urea_10202
     RDKit          3D

 23 25  0  0  0  0  0  0  0  0999 V2000
    7.4650    3.8340   25.0070 O   0  0  0  0  0  0  0  0  0  0  0  0
    7.7770    2.6610   24.8720 C   0  0  0  0  0  0  0  0  0  0  0  0
    8.9610    2.2690   24.0100 C   0  0  0  0  0  0  0  0  0  0  0  0
    9.5610    1.0220   24.4790 N   0  0  0  0  0  0  0  0  0  0  0  0
   10.5690    0.3270   23.6670 C   0  0  0  0  0  0  0  0  0  0  0  0
   11.8820    0.7720   23.8670 C   0  0  0  0  0  0  0  0  0  0  0  0
   12.9580    0.2060   23.1880 C   0  0  0  0  0  0  0  0  0  0  0  0
   12.7840   -0.8310   22.2830 C   0  0  0  0  0  0  0  0  0  0  0  0
   11.3520   -1.2840   22.0790 C   0  0  0  0  0  0  0  0  0  0  0  0
   10.3130   -0.6980   22.7550 C   0  0  0  0  0  0  0  0  0  0  0  0
    8.9780   -1.1730   22.4770 N   0  0  0  0  0  0  0  0  0  0  0  0
    8.3860   -0.2090   21.5130 C   0  0  0  0  0  0  0  0  0  0  0  0
    8.9340    1.1000   21.1910 O   0  0  0  0  0  0  0  0  0  0  0  0
    7.2270   -0.7030   20.9640 N   0  0  0  0  0  0  0  0  0  0  0  0
    6.4550   -0.0000   20.0360 C   0  0  0  0  0  0  0  0  0  0  0  0
    5.2750    0.6950   20.3180 C   0  0  0  0  0  0  0  0  0  0  0  0
    4.5740    1.4130   19.2170 C   0  0  0  0  0  0  0  0  0  0  0  0
    5.1560    1.3380   17.9580 C   0  0  0  0  0  0  0  0  0  0  0  0
    6.2800    0.6690   17.6770 N   0  0  0  0  0  0  0  0  0  0  0  0
    6.9110    0.0060   18.7340 C   0  0  0  0  0  0  0  0  0  0  0  0
    8.9860    0.1810   25.5150 C   0  0  0  0  0  0  0  0  0  0  0  0
    7.7630    0.5800   26.0680 C   0  0  0  0  0  0  0  0  0  0  0  0
    7.1100    1.6080   25.4790 N   0  0  0  0  0  0  0  0  0  0  0  0
  1  2  2  0
  2  3  1  0
  3  4  1  0
  4  5  1  0
  5  6  2  0
  6  7  1  0
  7  8  2  0
  8  9  1  0
  5 10  1  0
  9 10  2  0
 10 11  1  0
 11 12  1  0
 12 13  2  0
 12 14  1  0
 14 15  1  0
 15 16  2  0
 16 17  1  0
 17 18  2  0
 18 19  1  0
 15 20  1  0
 19 20  2  0
  4 21  1  0
 21 22  1  0
  2 23  1  0
 22 23  1  0
M  END
