pyridine_urea_10849
     RDKit          3D

 20 21  0  0  0  0  0  0  0  0999 V2000
    8.7420    0.7540   21.2030 O   0  0  0  0  0  0  0  0  0  0  0  0
    8.3380   -0.3570   21.5190 C   0  0  0  0  0  0  0  0  0  0  0  0
    7.0060   -0.7830   21.1200 N   0  0  0  0  0  0  0  0  0  0  0  0
    6.3860   -0.0970   20.0820 C   0  0  0  0  0  0  0  0  0  0  0  0
    5.1970    0.6030   20.3040 C   0  0  0  0  0  0  0  0  0  0  0  0
    4.6130    1.2910   19.2410 C   0  0  0  0  0  0  0  0  0  0  0  0
    5.2320    1.2640   17.9860 C   0  0  0  0  0  0  0  0  0  0  0  0
    6.3720    0.5920   17.7620 N   0  0  0  0  0  0  0  0  0  0  0  0
    6.9260   -0.0760   18.8060 C   0  0  0  0  0  0  0  0  0  0  0  0
    9.0410   -1.2870   22.2560 N   0  0  0  0  0  0  0  0  0  0  0  0
   10.3630   -0.8260   22.6280 C   0  0  0  0  0  0  0  0  0  0  0  0
   11.5630   -1.4500   21.9520 C   0  0  0  0  0  0  0  0  0  0  0  0
   12.8010   -0.9620   22.3000 C   0  0  0  0  0  0  0  0  0  0  0  0
   12.8990    0.0650   23.2370 C   0  0  0  0  0  0  0  0  0  0  0  0
   11.7860    0.6270   23.8640 C   0  0  0  0  0  0  0  0  0  0  0  0
   10.5150    0.1750   23.5650 C   0  0  0  0  0  0  0  0  0  0  0  0
    9.4700    0.5730   24.0520 O   0  0  0  0  0  0  0  0  0  0  0  0
    9.1340    0.0970   25.3600 C   0  0  0  0  0  0  0  0  0  0  0  0
    7.7810   -0.2060   25.4880 C   0  0  0  0  0  0  0  0  0  0  0  0
    7.3780    0.3750   26.6660 O   0  0  0  0  0  0  0  0  0  0  0  0
  1  2  2  0
  2  3  1  0
  3  4  1  0
  4  5  2  0
  5  6  1  0
  6  7  2  0
  7  8  1  0
  4  9  1  0
  8  9  2  0
  2 10  1  0
 10 11  1  0
 11 12  2  0
 12 13  1  0
 13 14  2  0
 14 15  1  0
 11 16  1  0
 15 16  2  0
 16 17  1  0
 17 18  1  0
 18 19  1  0
 19 20  1  0
M  END
