pyridine_urea_5245
     RDKit          3D

 20 21  0  0  0  0  0  0  0  0999 V2000
   12.2260   -2.3940   21.7660 C   0  0  0  0  0  0  0  0  0  0  0  0
   11.2990   -1.8780   22.7190 O   0  0  0  0  0  0  0  0  0  0  0  0
   11.3940   -0.5360   22.7920 C   0  0  0  0  0  0  0  0  0  0  0  0
   12.5770   -0.0010   22.7650 C   0  0  0  0  0  0  0  0  0  0  0  0
   13.2750    1.0650   22.7800 C   0  0  0  0  0  0  0  0  0  0  0  0
   12.3470    2.0130   22.8440 C   0  0  0  0  0  0  0  0  0  0  0  0
   12.6950    3.8850   22.8250 Br  0  0  0  0  0  0  0  0  0  0  0  0
   10.8700    1.5580   22.9060 C   0  0  0  0  0  0  0  0  0  0  0  0
   10.1870    0.2700   22.8850 C   0  0  0  0  0  0  0  0  0  0  0  0
    9.6410   -1.1280   22.8510 C   0  0  0  0  0  0  0  0  0  0  0  0
    8.9730   -1.2170   21.5550 N   0  0  0  0  0  0  0  0  0  0  0  0
    8.1830   -0.1970   21.1870 C   0  0  0  0  0  0  0  0  0  0  0  0
    8.5980    0.9510   21.1260 O   0  0  0  0  0  0  0  0  0  0  0  0
    6.9230   -0.6080   20.9080 N   0  0  0  0  0  0  0  0  0  0  0  0
    6.2830    0.0690   19.9010 C   0  0  0  0  0  0  0  0  0  0  0  0
    5.0770    0.7200   20.1440 C   0  0  0  0  0  0  0  0  0  0  0  0
    4.4880    1.4130   19.0840 C   0  0  0  0  0  0  0  0  0  0  0  0
    5.1240    1.4250   17.8480 C   0  0  0  0  0  0  0  0  0  0  0  0
    6.2800    0.7910   17.6190 N   0  0  0  0  0  0  0  0  0  0  0  0
    6.8310    0.1310   18.6430 C   0  0  0  0  0  0  0  0  0  0  0  0
  1  2  1  0
  2  3  1  0
  3  4  2  0
  4  5  1  0
  5  6  2  0
  6  7  1  0
  6  8  1  0
  3  9  1  0
  8  9  2  0
  9 10  1  0
 10 11  1  0
 11 12  1  0
 12 13  2  0
 12 14  1  0
 14 15  1  0
 15 16  2  0
 16 17  1  0
 17 18  2  0
 18 19  1  0
 15 20  1  0
 19 20  2  0
M  END
