pyridine_urea_1248
     RDKit          3D

 20 21  0  0  0  0  0  0  0  0999 V2000
    8.7940    1.0930   21.8450 O   0  0  0  0  0  0  0  0  0  0  0  0
    8.6070   -0.0570   21.4950 C   0  0  0  0  0  0  0  0  0  0  0  0
    9.6440   -0.9580   21.4560 N   0  0  0  0  0  0  0  0  0  0  0  0
   10.0140   -1.8390   22.5370 C   0  0  0  0  0  0  0  0  0  0  0  0
   11.1640   -1.3280   23.4270 C   0  0  0  0  0  0  0  0  0  0  0  0
   11.8740   -2.3140   24.0990 C   0  0  0  0  0  0  0  0  0  0  0  0
   11.0670   -3.3510   24.4140 F   0  0  0  0  0  0  0  0  0  0  0  0
   12.8500   -2.8290   23.3260 F   0  0  0  0  0  0  0  0  0  0  0  0
   12.4740   -1.8670   25.2070 F   0  0  0  0  0  0  0  0  0  0  0  0
   12.2990   -0.7910   22.5910 C   0  0  0  0  0  0  0  0  0  0  0  0
   12.6460    0.5040   22.8880 C   0  0  0  0  0  0  0  0  0  0  0  0
   11.9690    0.7610   24.0520 C   0  0  0  0  0  0  0  0  0  0  0  0
   10.9170   -0.1380   24.1620 C   0  0  0  0  0  0  0  0  0  0  0  0
    7.4010   -0.5740   21.0660 N   0  0  0  0  0  0  0  0  0  0  0  0
    6.6320    0.0340   20.0830 C   0  0  0  0  0  0  0  0  0  0  0  0
    5.4770    0.7430   20.4570 C   0  0  0  0  0  0  0  0  0  0  0  0
    4.7290    1.3650   19.4550 C   0  0  0  0  0  0  0  0  0  0  0  0
    5.1810    1.2500   18.0480 C   0  0  0  0  0  0  0  0  0  0  0  0
    6.2710    0.5680   17.7110 N   0  0  0  0  0  0  0  0  0  0  0  0
    6.9600   -0.0170   18.7270 C   0  0  0  0  0  0  0  0  0  0  0  0
  1  2  2  0
  2  3  1  0
  3  4  1  0
  5  4  1  0
  5  6  1  0
  6  7  1  0
  6  8  1  0
  6  9  1  0
  5 10  1  0
 10 11  1  0
 11 12  1  0
  5 13  1  0
 12 13  1  0
  2 14  1  0
 14 15  1  0
 15 16  2  0
 16 17  1  0
 17 18  2  0
 18 19  1  0
 15 20  1  0
 19 20  2  0
M  END
