pyridine_urea_12798
     RDKit          3D

 20 21  0  0  0  0  0  0  0  0999 V2000
    8.3200    1.4710   20.8080 O   0  0  0  0  0  0  0  0  0  0  0  0
    8.1910    0.3880   21.3700 C   0  0  0  0  0  0  0  0  0  0  0  0
    7.1680   -0.4520   21.0710 N   0  0  0  0  0  0  0  0  0  0  0  0
    6.5250    0.0830   19.9280 C   0  0  0  0  0  0  0  0  0  0  0  0
    5.2630    0.9050   20.2100 C   0  0  0  0  0  0  0  0  0  0  0  0
    4.5830    1.5030   19.1610 C   0  0  0  0  0  0  0  0  0  0  0  0
    5.0950    1.3230   17.8860 C   0  0  0  0  0  0  0  0  0  0  0  0
    6.2190    0.5680   17.6830 N   0  0  0  0  0  0  0  0  0  0  0  0
    6.9500   -0.0640   18.6800 C   0  0  0  0  0  0  0  0  0  0  0  0
    9.0250   -0.0540   22.2960 N   0  0  0  0  0  0  0  0  0  0  0  0
    9.9600   -0.3450   23.1590 C   0  0  0  0  0  0  0  0  0  0  0  0
    9.8140   -0.0830   24.4950 C   0  0  0  0  0  0  0  0  0  0  0  0
   10.8240   -0.3920   25.3450 C   0  0  0  0  0  0  0  0  0  0  0  0
   12.0060   -0.9570   24.9000 C   0  0  0  0  0  0  0  0  0  0  0  0
   12.1800   -1.2400   23.5720 C   0  0  0  0  0  0  0  0  0  0  0  0
   13.3450   -1.8330   22.9930 C   0  0  0  0  0  0  0  0  0  0  0  0
   13.3440   -1.4050   21.7220 C   0  0  0  0  0  0  0  0  0  0  0  0
   12.5900   -2.3840   21.1260 C   0  0  0  0  0  0  0  0  0  0  0  0
   13.5190   -3.3870   20.6890 O   0  0  0  0  0  0  0  0  0  0  0  0
   11.1790   -0.9440   22.7020 C   0  0  0  0  0  0  0  0  0  0  0  0
  1  2  2  0
  2  3  1  0
  3  4  1  0
  4  5  2  0
  5  6  1  0
  6  7  2  0
  7  8  1  0
  4  9  1  0
  8  9  2  0
  2 10  1  0
 10 11  1  0
 11 12  2  0
 12 13  1  0
 13 14  2  0
 14 15  1  0
 15 16  1  0
 16 17  1  0
 17 18  1  0
 18 19  1  0
 11 20  1  0
 15 20  2  0
M  END
