pyridine_urea_2229
     RDKit          3D

 26 28  0  0  0  0  0  0  0  0999 V2000
   12.4400    6.6480   23.0740 C   0  0  0  0  0  0  0  0  0  0  0  0
   11.1930    6.8620   23.6290 N   0  0  0  0  0  0  0  0  0  0  0  0
    9.9580    6.9210   22.9430 C   0  0  0  0  0  0  0  0  0  0  0  0
    9.0570    5.6920   22.8960 C   0  0  0  0  0  0  0  0  0  0  0  0
    9.8360    4.5990   23.1740 N   0  0  0  0  0  0  0  0  0  0  0  0
   10.9840    4.1270   22.4500 C   0  0  0  0  0  0  0  0  0  0  0  0
   12.0620    3.6350   23.3650 C   0  0  0  0  0  0  0  0  0  0  0  0
   12.8710    2.7580   22.9700 O   0  0  0  0  0  0  0  0  0  0  0  0
   12.2080    1.5000   22.8560 C   0  0  0  0  0  0  0  0  0  0  0  0
   10.8970    1.7080   22.9900 C   0  0  0  0  0  0  0  0  0  0  0  0
    9.9620    0.7490   22.8770 C   0  0  0  0  0  0  0  0  0  0  0  0
   10.1140   -0.5910   22.6090 C   0  0  0  0  0  0  0  0  0  0  0  0
    9.0640   -1.3920   22.4640 N   0  0  0  0  0  0  0  0  0  0  0  0
    8.2930   -0.6270   21.6130 C   0  0  0  0  0  0  0  0  0  0  0  0
    8.7100    0.6480   21.1870 O   0  0  0  0  0  0  0  0  0  0  0  0
    7.0840   -1.0720   21.1440 N   0  0  0  0  0  0  0  0  0  0  0  0
    6.4570   -0.3120   20.0610 C   0  0  0  0  0  0  0  0  0  0  0  0
    5.2550    0.3300   20.4930 C   0  0  0  0  0  0  0  0  0  0  0  0
    4.6190    1.1410   19.3550 C   0  0  0  0  0  0  0  0  0  0  0  0
    5.2030    1.1860   18.1100 C   0  0  0  0  0  0  0  0  0  0  0  0
    6.3330    0.5490   17.7840 N   0  0  0  0  0  0  0  0  0  0  0  0
    6.9240   -0.1770   18.7590 C   0  0  0  0  0  0  0  0  0  0  0  0
   11.6800   -0.8590   22.4970 C   0  0  0  0  0  0  0  0  0  0  0  0
   12.6200    0.1800   22.6260 C   0  0  0  0  0  0  0  0  0  0  0  0
   10.1600    4.7630   24.6080 C   0  0  0  0  0  0  0  0  0  0  0  0
   11.0130    6.0250   24.8320 C   0  0  0  0  0  0  0  0  0  0  0  0
  1  2  1  0
  2  3  1  0
  3  4  1  0
  4  5  1  0
  5  6  1  0
  6  7  1  0
  7  8  1  0
  8  9  1  0
  9 10  2  0
 10 11  1  0
 11 12  2  0
 12 13  1  0
 13 14  1  0
 14 15  2  0
 14 16  1  0
 16 17  1  0
 17 18  2  0
 18 19  1  0
 19 20  2  0
 20 21  1  0
 17 22  1  0
 21 22  2  0
 12 23  1  0
  9 24  1  0
 23 24  2  0
  5 25  1  0
  2 26  1  0
 25 26  1  0
M  END
