pyridine_urea_6643
     RDKit          3D

 22 23  0  0  0  0  0  0  0  0999 V2000
    9.0010    1.5170   21.1120 O   0  0  0  0  0  0  0  0  0  0  0  0
    8.5040    0.5180   21.6200 C   0  0  0  0  0  0  0  0  0  0  0  0
    7.4900   -0.2550   21.0860 N   0  0  0  0  0  0  0  0  0  0  0  0
    6.6100    0.2590   20.1280 C   0  0  0  0  0  0  0  0  0  0  0  0
    5.3120    1.0050   20.4760 C   0  0  0  0  0  0  0  0  0  0  0  0
    4.5430    1.4990   19.2600 C   0  0  0  0  0  0  0  0  0  0  0  0
    5.1240    1.2090   17.9200 C   0  0  0  0  0  0  0  0  0  0  0  0
    6.2610    0.5360   17.7280 N   0  0  0  0  0  0  0  0  0  0  0  0
    6.9490    0.0920   18.7960 C   0  0  0  0  0  0  0  0  0  0  0  0
    8.9270    0.0780   22.8520 N   0  0  0  0  0  0  0  0  0  0  0  0
    9.7950   -1.0440   23.0000 C   0  0  2  0  0  0  0  0  0  0  0  0
   10.7780   -0.8550   23.9530 C   0  0  0  0  0  0  0  0  0  0  0  0
   10.7400   -1.1830   25.1570 C   0  0  0  0  0  0  0  0  0  0  0  0
   11.8260   -0.5630   24.4820 C   0  0  0  0  0  0  0  0  0  0  0  0
   12.9470   -0.3160   25.1700 F   0  0  0  0  0  0  0  0  0  0  0  0
   11.6000   -0.2420   23.0110 C   0  0  0  0  0  0  0  0  0  0  0  0
   12.8760    0.2910   22.9930 C   0  0  0  0  0  0  0  0  0  0  0  0
   12.1030   -0.3190   24.0610 C   0  0  0  0  0  0  0  0  0  0  0  0
   12.7540   -0.3640   25.2430 F   0  0  0  0  0  0  0  0  0  0  0  0
   10.4220   -1.6170   21.9220 C   0  0  0  0  0  0  0  0  0  0  0  0
    9.7170   -2.7260   21.6200 F   0  0  0  0  0  0  0  0  0  0  0  0
   11.6810   -2.0410   22.2120 F   0  0  0  0  0  0  0  0  0  0  0  0
  1  2  2  0
  2  3  1  0
  3  4  1  0
  4  5  2  0
  5  6  1  0
  6  7  2  0
  7  8  1  0
  4  9  1  0
  8  9  2  0
  2 10  1  0
 11 10  1  6
 11 12  1  0
 12 13  2  0
 13 14  1  0
 14 15  1  0
 14 16  2  0
 16 17  1  0
 12 18  1  0
 17 18  2  0
 18 19  1  0
 11 20  1  0
 20 21  1  0
 20 22  1  0
M  END
