pyridine_urea_2575
     RDKit          3D

 23 25  0  0  0  0  0  0  0  0999 V2000
   14.0350   -2.9740   25.5110 C   0  0  0  0  0  0  0  0  0  0  0  0
   12.9960   -2.4760   25.6810 O   0  0  0  0  0  0  0  0  0  0  0  0
   12.0360   -2.9200   24.8730 C   0  0  0  0  0  0  0  0  0  0  0  0
   11.5550   -3.9880   24.7330 O   0  0  0  0  0  0  0  0  0  0  0  0
   11.6070   -1.8690   24.2750 C   0  0  0  0  0  0  0  0  0  0  0  0
   12.5050   -0.8760   24.1110 C   0  0  0  0  0  0  0  0  0  0  0  0
   11.8940    0.1500   23.5600 C   0  0  0  0  0  0  0  0  0  0  0  0
   12.4930    1.3400   23.2800 C   0  0  0  0  0  0  0  0  0  0  0  0
   11.6910    2.3070   22.7660 C   0  0  0  0  0  0  0  0  0  0  0  0
   10.2200    2.0860   22.4830 C   0  0  0  0  0  0  0  0  0  0  0  0
    9.7210    0.8350   22.7680 C   0  0  0  0  0  0  0  0  0  0  0  0
    8.3460    0.5660   22.4910 N   0  0  0  0  0  0  0  0  0  0  0  0
    8.1740   -0.3490   21.5010 C   0  0  0  0  0  0  0  0  0  0  0  0
    9.1000   -0.9040   20.9860 O   0  0  0  0  0  0  0  0  0  0  0  0
    6.8650   -0.5410   21.1560 N   0  0  0  0  0  0  0  0  0  0  0  0
    6.2550    0.1010   20.1200 C   0  0  0  0  0  0  0  0  0  0  0  0
    5.0760    0.8290   20.2280 C   0  0  0  0  0  0  0  0  0  0  0  0
    4.5500    1.4590   19.0990 C   0  0  0  0  0  0  0  0  0  0  0  0
    5.2060    1.3560   17.8830 C   0  0  0  0  0  0  0  0  0  0  0  0
    6.3420    0.6590   17.7290 N   0  0  0  0  0  0  0  0  0  0  0  0
    6.8490    0.0330   18.8690 C   0  0  0  0  0  0  0  0  0  0  0  0
   10.5440   -0.0870   23.3000 C   0  0  0  0  0  0  0  0  0  0  0  0
   10.0330   -1.6400   23.7340 S   0  0  0  0  0  0  0  0  0  0  0  0
  1  2  1  0
  2  3  1  0
  3  4  2  0
  3  5  1  0
  5  6  2  0
  6  7  1  0
  7  8  2  0
  8  9  1  0
  9 10  2  0
 10 11  1  0
 11 12  1  0
 12 13  1  0
 13 14  2  0
 13 15  1  0
 15 16  1  0
 16 17  2  0
 17 18  1  0
 18 19  2  0
 19 20  1  0
 16 21  1  0
 20 21  2  0
  7 22  1  0
 11 22  2  0
  5 23  1  0
 22 23  1  0
M  END
