pyridine_urea_7867
     RDKit          3D

 26 28  0  0  0  0  0  0  0  0999 V2000
   13.3530   -1.6990   25.3330 C   0  0  0  0  0  0  0  0  0  0  0  0
   13.2840   -0.9200   24.3750 O   0  0  0  0  0  0  0  0  0  0  0  0
   12.7370   -1.4720   23.2740 C   0  0  0  0  0  0  0  0  0  0  0  0
   13.5690   -2.1990   22.4750 C   0  0  0  0  0  0  0  0  0  0  0  0
   13.1920   -2.8390   21.2860 C   0  0  0  0  0  0  0  0  0  0  0  0
   11.8610   -2.7030   20.9520 C   0  0  0  0  0  0  0  0  0  0  0  0
   10.9530   -1.9660   21.7450 C   0  0  0  0  0  0  0  0  0  0  0  0
   11.4030   -1.3350   22.9200 C   0  0  0  0  0  0  0  0  0  0  0  0
   10.3750   -0.6050   23.6490 N   0  0  0  0  0  0  0  0  0  0  0  0
   10.5620    0.7710   23.8470 C   0  0  0  0  0  0  0  0  0  0  0  0
    9.5240    1.4600   24.5100 C   0  0  0  0  0  0  0  0  0  0  0  0
    8.5640    0.5660   24.9750 N   0  0  0  0  0  0  0  0  0  0  0  0
    7.3120    0.2460   24.4030 C   0  0  0  0  0  0  0  0  0  0  0  0
    7.3120   -0.3910   23.1790 C   0  0  0  0  0  0  0  0  0  0  0  0
    8.4720   -0.3090   22.4790 N   0  0  0  0  0  0  0  0  0  0  0  0
    8.3540   -0.1710   21.1440 C   0  0  0  0  0  0  0  0  0  0  0  0
    9.1110    0.4930   20.4180 O   0  0  0  0  0  0  0  0  0  0  0  0
    7.2570   -0.8630   20.6780 N   0  0  0  0  0  0  0  0  0  0  0  0
    6.4640   -0.1010   19.8420 C   0  0  0  0  0  0  0  0  0  0  0  0
    5.0520    0.2610   20.0820 C   0  0  0  0  0  0  0  0  0  0  0  0
    4.5380    1.0170   19.0780 C   0  0  0  0  0  0  0  0  0  0  0  0
    5.6200    1.0750   18.2940 C   0  0  0  0  0  0  0  0  0  0  0  0
    6.4460    1.1200   17.6950 N   0  0  0  0  0  0  0  0  0  0  0  0
    7.1240    0.3610   18.6130 C   0  0  0  0  0  0  0  0  0  0  0  0
    9.1690   -0.5820   25.6730 C   0  0  0  0  0  0  0  0  0  0  0  0
    9.8440   -1.4030   24.7680 C   0  0  0  0  0  0  0  0  0  0  0  0
  1  2  1  0
  2  3  1  0
  3  4  2  0
  4  5  1  0
  5  6  2  0
  6  7  1  0
  3  8  1  0
  7  8  2  0
  8  9  1  0
  9 10  1  0
 10 11  1  0
 11 12  1  0
 12 13  1  0
 13 14  1  0
 14 15  1  0
 15 16  1  0
 16 17  2  0
 16 18  1  0
 18 19  1  0
 19 20  2  0
 20 21  1  0
 21 22  2  0
 22 23  1  0
 19 24  1  0
 23 24  2  0
 12 25  1  0
  9 26  1  0
 25 26  1  0
M  END
