pyridine_urea_14841
     RDKit          3D

 19 20  0  0  0  0  0  0  0  0999 V2000
   13.1590   -0.2060   23.0720 C   0  0  0  0  0  0  0  0  0  0  0  0
   12.3230    1.0380   22.9760 C   0  0  0  0  0  0  0  0  0  0  0  0
   12.8630    2.3710   22.7310 N   0  0  0  0  0  0  0  0  0  0  0  0
   11.9310    3.5030   22.6450 C   0  0  0  0  0  0  0  0  0  0  0  0
   10.5480    3.3280   22.7950 C   0  0  0  0  0  0  0  0  0  0  0  0
    9.9620    2.0910   23.0360 N   0  0  0  0  0  0  0  0  0  0  0  0
   10.8280    0.9190   23.1360 C   0  0  0  0  0  0  0  0  0  0  0  0
   10.1970   -0.2850   23.3960 C   0  0  0  0  0  0  0  0  0  0  0  0
   10.3360   -1.3280   22.2990 C   0  0  0  0  0  0  0  0  0  0  0  0
    9.2050   -1.4640   21.5410 N   0  0  0  0  0  0  0  0  0  0  0  0
    8.3030   -0.4220   21.2630 C   0  0  0  0  0  0  0  0  0  0  0  0
    8.5970    0.7720   21.2210 O   0  0  0  0  0  0  0  0  0  0  0  0
    7.0140   -0.7730   21.0210 N   0  0  0  0  0  0  0  0  0  0  0  0
    6.3470   -0.0520   20.0920 C   0  0  0  0  0  0  0  0  0  0  0  0
    5.1650    0.6560   20.3320 C   0  0  0  0  0  0  0  0  0  0  0  0
    4.6070    1.3530   19.2720 C   0  0  0  0  0  0  0  0  0  0  0  0
    5.2680    1.3200   17.9640 C   0  0  0  0  0  0  0  0  0  0  0  0
    6.4040    0.6350   17.7350 N   0  0  0  0  0  0  0  0  0  0  0  0
    6.8950   -0.0240   18.8050 C   0  0  0  0  0  0  0  0  0  0  0  0
  1  2  1  0
  2  3  2  0
  3  4  1  0
  4  5  2  0
  5  6  1  0
  2  7  1  0
  6  7  2  0
  7  8  1  0
  8  9  1  0
  9 10  1  0
 10 11  1  0
 11 12  2  0
 11 13  1  0
 13 14  1  0
 14 15  2  0
 15 16  1  0
 16 17  2  0
 17 18  1  0
 14 19  1  0
 18 19  2  0
M  END
