pyridine_urea_1612
     RDKit          3D

 18 19  0  0  0  0  0  0  0  0999 V2000
   10.0040    0.9660   22.8060 C   0  0  0  0  0  0  0  0  0  0  0  0
   10.5560   -0.4360   22.8130 C   0  0  2  0  0  0  0  0  0  0  0  0
   10.0920   -1.3570   21.9480 C   0  0  0  0  0  0  0  0  0  0  0  0
    8.7170   -1.3700   21.8400 N   0  0  0  0  0  0  0  0  0  0  0  0
    8.0220   -0.3080   21.3430 C   0  0  0  0  0  0  0  0  0  0  0  0
    8.4650    0.8230   21.1990 O   0  0  0  0  0  0  0  0  0  0  0  0
    6.7570   -0.6600   20.9880 N   0  0  0  0  0  0  0  0  0  0  0  0
    6.1810    0.0390   19.9410 C   0  0  0  0  0  0  0  0  0  0  0  0
    4.9810    0.7190   20.1690 C   0  0  0  0  0  0  0  0  0  0  0  0
    4.4050    1.4440   19.1350 C   0  0  0  0  0  0  0  0  0  0  0  0
    5.1550    1.4300   17.8050 C   0  0  0  0  0  0  0  0  0  0  0  0
    6.2960    0.7540   17.6380 N   0  0  0  0  0  0  0  0  0  0  0  0
    6.7730    0.0830   18.6990 C   0  0  0  0  0  0  0  0  0  0  0  0
   10.1280   -0.9040   24.1750 C   0  0  0  0  0  0  0  0  0  0  0  0
   11.3510   -0.7050   24.5630 C   0  0  0  0  0  0  0  0  0  0  0  0
   12.4770   -0.7100   25.1820 C   0  0  0  0  0  0  0  0  0  0  0  0
   12.6970    0.1490   24.0780 C   0  0  0  0  0  0  0  0  0  0  0  0
   11.9690   -0.5160   22.9310 C   0  0  0  0  0  0  0  0  0  0  0  0
  2  1  1  6
  2  3  1  0
  3  4  1  0
  4  5  1  0
  5  6  2  0
  5  7  1  0
  7  8  1  0
  8  9  2  0
  9 10  1  0
 10 11  2  0
 11 12  1  0
  8 13  1  0
 12 13  2  0
  2 14  1  0
 14 15  1  0
 15 16  2  0
 16 17  1  0
  2 18  1  0
 17 18  1  0
M  END
