pyridine_urea_1011
     RDKit          3D

 22 23  0  0  0  0  0  0  0  0999 V2000
   12.0820    1.8500   23.0880 O   0  0  0  0  0  0  0  0  0  0  0  0
   10.8530    1.8400   23.1030 C   0  0  0  0  0  0  0  0  0  0  0  0
   10.0290    0.6680   22.7290 C   0  0  0  0  0  0  0  0  0  0  0  0
   10.4020   -0.6570   22.8700 C   0  0  0  0  0  0  0  0  0  0  0  0
    9.2050   -1.2630   22.2150 N   0  0  0  0  0  0  0  0  0  0  0  0
    8.3340   -0.4980   21.4860 C   0  0  0  0  0  0  0  0  0  0  0  0
    8.6170    0.8650   21.1060 O   0  0  0  0  0  0  0  0  0  0  0  0
    7.0540   -1.0230   21.0470 N   0  0  0  0  0  0  0  0  0  0  0  0
    6.4600   -0.2790   20.0480 C   0  0  0  0  0  0  0  0  0  0  0  0
    5.1860    0.4960   20.3520 C   0  0  0  0  0  0  0  0  0  0  0  0
    4.5040    1.3460   19.2740 C   0  0  0  0  0  0  0  0  0  0  0  0
    5.2370    1.3120   17.9480 C   0  0  0  0  0  0  0  0  0  0  0  0
    6.3730    0.5840   17.7660 N   0  0  0  0  0  0  0  0  0  0  0  0
    6.9700   -0.1880   18.7660 C   0  0  0  0  0  0  0  0  0  0  0  0
    9.9560    2.8570   23.4660 N   0  0  0  0  0  0  0  0  0  0  0  0
   10.2010    4.0730   24.0300 C   0  0  0  0  0  0  0  0  0  0  0  0
   11.2120    4.7380   23.3790 C   0  0  0  0  0  0  0  0  0  0  0  0
   11.7060    5.9680   23.7640 C   0  0  0  0  0  0  0  0  0  0  0  0
   12.7190    6.4870   22.9890 C   0  0  0  0  0  0  0  0  0  0  0  0
   13.1720    5.7570   21.8970 C   0  0  0  0  0  0  0  0  0  0  0  0
   12.7020    4.5710   21.5260 N   0  0  0  0  0  0  0  0  0  0  0  0
   11.7170    4.0760   22.2780 C   0  0  0  0  0  0  0  0  0  0  0  0
  1  2  2  0
  2  3  1  0
  3  4  1  0
  4  5  1  0
  5  6  1  0
  6  7  2  0
  6  8  1  0
  8  9  1  0
  9 10  2  0
 10 11  1  0
 11 12  2  0
 12 13  1  0
  9 14  1  0
 13 14  2  0
  2 15  1  0
 15 16  1  0
 16 17  1  0
 17 18  2  0
 18 19  1  0
 19 20  2  0
 20 21  1  0
 17 22  1  0
 21 22  2  0
M  END
