pyridine_urea_4687
     RDKit          3D

 22 23  0  0  0  0  0  0  0  0999 V2000
    9.1090    0.1970   26.9150 C   0  0  0  0  0  0  0  0  0  0  0  0
   10.4400   -0.1950   26.5970 O   0  0  0  0  0  0  0  0  0  0  0  0
   10.6730   -0.6330   25.3360 C   0  0  0  0  0  0  0  0  0  0  0  0
    9.5500   -1.0100   24.5950 C   0  0  0  0  0  0  0  0  0  0  0  0
    9.6730   -1.4860   23.3820 C   0  0  0  0  0  0  0  0  0  0  0  0
    7.9640   -1.9820   22.7190 Br  0  0  0  0  0  0  0  0  0  0  0  0
   10.8420   -1.6880   22.5580 C   0  0  0  0  0  0  0  0  0  0  0  0
    9.7060   -2.0330   21.9250 C   0  0  0  0  0  0  0  0  0  0  0  0
    9.3710   -0.9050   21.0870 N   0  0  0  0  0  0  0  0  0  0  0  0
    8.4690    0.0990   21.3180 C   0  0  0  0  0  0  0  0  0  0  0  0
    8.7630    1.2220   21.6820 O   0  0  0  0  0  0  0  0  0  0  0  0
    7.2070   -0.3090   21.0240 N   0  0  0  0  0  0  0  0  0  0  0  0
    6.4630    0.2490   20.0550 C   0  0  0  0  0  0  0  0  0  0  0  0
    5.2990    0.9570   20.2350 C   0  0  0  0  0  0  0  0  0  0  0  0
    4.5970    1.5250   19.1910 C   0  0  0  0  0  0  0  0  0  0  0  0
    5.1370    1.3450   17.9130 C   0  0  0  0  0  0  0  0  0  0  0  0
    6.2660    0.6500   17.6850 N   0  0  0  0  0  0  0  0  0  0  0  0
    6.8970    0.1220   18.7510 C   0  0  0  0  0  0  0  0  0  0  0  0
   12.0170   -1.2950   23.3090 C   0  0  0  0  0  0  0  0  0  0  0  0
   11.8250   -0.8180   24.6500 C   0  0  0  0  0  0  0  0  0  0  0  0
   13.0660   -0.6020   25.2140 O   0  0  0  0  0  0  0  0  0  0  0  0
   13.5830   -1.9340   25.3730 C   0  0  0  0  0  0  0  0  0  0  0  0
  1  2  1  0
  2  3  1  0
  3  4  2  0
  4  5  1  0
  5  6  1  0
  5  7  2  0
  7  8  1  0
  8  9  1  0
  9 10  1  0
 10 11  2  0
 10 12  1  0
 12 13  1  0
 13 14  2  0
 14 15  1  0
 15 16  2  0
 16 17  1  0
 13 18  1  0
 17 18  2  0
  7 19  1  0
  3 20  1  0
 19 20  2  0
 20 21  1  0
 21 22  1  0
M  END
