pyridine_urea_8057
     RDKit          3D

 24 26  0  0  0  0  0  0  0  0999 V2000
   12.5960   -4.4550   19.3870 C   0  0  0  0  0  0  0  0  0  0  0  0
   13.8600   -4.2180   20.1800 C   0  0  0  0  0  0  0  0  0  0  0  0
   14.8370   -5.4510   20.1800 C   0  0  0  0  0  0  0  0  0  0  0  0
   13.2530   -4.1980   21.4050 O   0  0  0  0  0  0  0  0  0  0  0  0
   12.8130   -3.0880   21.9410 C   0  0  0  0  0  0  0  0  0  0  0  0
   13.6560   -2.5630   23.0280 C   0  0  0  0  0  0  0  0  0  0  0  0
   13.3710   -1.4040   23.5140 C   0  0  0  0  0  0  0  0  0  0  0  0
   12.2460   -0.6990   23.0420 C   0  0  0  0  0  0  0  0  0  0  0  0
   11.2650   -1.1690   22.1340 C   0  0  0  0  0  0  0  0  0  0  0  0
   11.6640   -2.4750   21.5280 C   0  0  0  0  0  0  0  0  0  0  0  0
   10.1870   -0.3370   22.0230 C   0  0  1  0  0  0  0  0  0  0  0  0
    9.0880   -0.9080   21.3410 N   0  0  0  0  0  0  0  0  0  0  0  0
    8.1040   -0.0130   21.2610 C   0  0  0  0  0  0  0  0  0  0  0  0
    8.3320    1.1730   21.4250 O   0  0  0  0  0  0  0  0  0  0  0  0
    6.8770   -0.5820   20.9330 N   0  0  0  0  0  0  0  0  0  0  0  0
    6.1750    0.0820   19.9900 C   0  0  0  0  0  0  0  0  0  0  0  0
    5.0260    0.8280   20.2170 C   0  0  0  0  0  0  0  0  0  0  0  0
    4.4840    1.4620   19.1200 C   0  0  0  0  0  0  0  0  0  0  0  0
    5.0620    1.3490   17.8790 C   0  0  0  0  0  0  0  0  0  0  0  0
    6.1520    0.6290   17.6320 N   0  0  0  0  0  0  0  0  0  0  0  0
    6.6790    0.0140   18.6980 C   0  0  0  0  0  0  0  0  0  0  0  0
    9.8390   -0.2440   23.4100 C   0  0  0  0  0  0  0  0  0  0  0  0
   10.7210    0.7640   23.0210 C   0  0  0  0  0  0  0  0  0  0  0  0
   12.0280    0.5930   23.4660 C   0  0  0  0  0  0  0  0  0  0  0  0
  1  2  1  0
  2  3  1  0
  2  4  1  0
  4  5  1  0
  5  6  2  0
  6  7  1  0
  7  8  2  0
  8  9  1  0
  5 10  1  0
  9 10  2  0
  9 11  1  0
 11 12  1  6
 12 13  1  0
 13 14  2  0
 13 15  1  0
 15 16  1  0
 16 17  2  0
 17 18  1  0
 18 19  2  0
 19 20  1  0
 16 21  1  0
 20 21  2  0
 11 22  1  0
 22 23  1  0
  8 24  1  0
 23 24  1  0
M  END
