pyridine_urea_11972
     RDKit          3D

 24 26  0  0  0  0  0  0  0  0999 V2000
   13.5490   -2.6720   25.3830 C   0  0  0  0  0  0  0  0  0  0  0  0
   12.3810   -2.2790   25.5110 O   0  0  0  0  0  0  0  0  0  0  0  0
   11.6530   -2.0080   24.4090 C   0  0  0  0  0  0  0  0  0  0  0  0
   10.6490   -1.1850   24.5420 C   0  0  0  0  0  0  0  0  0  0  0  0
    9.7580   -0.7270   23.6020 C   0  0  0  0  0  0  0  0  0  0  0  0
   10.0020   -1.2540   22.3820 C   0  0  0  0  0  0  0  0  0  0  0  0
    9.1540   -0.8970   21.3050 N   0  0  0  0  0  0  0  0  0  0  0  0
    8.3000    0.1130   21.3000 C   0  0  0  0  0  0  0  0  0  0  0  0
    8.6290    1.2830   21.4230 O   0  0  0  0  0  0  0  0  0  0  0  0
    6.9440   -0.3720   21.0900 N   0  0  0  0  0  0  0  0  0  0  0  0
    6.2820    0.2220   20.0700 C   0  0  0  0  0  0  0  0  0  0  0  0
    4.9840    0.9950   20.1510 C   0  0  0  0  0  0  0  0  0  0  0  0
    4.4830    1.5540   18.9990 C   0  0  0  0  0  0  0  0  0  0  0  0
    5.1640    1.3990   17.8130 C   0  0  0  0  0  0  0  0  0  0  0  0
    6.3160    0.7110   17.6790 N   0  0  0  0  0  0  0  0  0  0  0  0
    6.8410    0.1420   18.7960 C   0  0  0  0  0  0  0  0  0  0  0  0
   11.1240   -2.2070   22.1570 C   0  0  0  0  0  0  0  0  0  0  0  0
   11.8860   -2.5230   23.2590 C   0  0  0  0  0  0  0  0  0  0  0  0
   12.7700   -3.2300   23.3430 O   0  0  0  0  0  0  0  0  0  0  0  0
   13.6040   -2.4480   22.8460 C   0  0  0  0  0  0  0  0  0  0  0  0
   13.3230   -2.6140   21.5490 C   0  0  0  0  0  0  0  0  0  0  0  0
   13.3620   -1.4770   21.0010 C   0  0  0  0  0  0  0  0  0  0  0  0
   13.1860   -0.5340   22.0220 C   0  0  0  0  0  0  0  0  0  0  0  0
   13.2370   -1.1540   23.2720 C   0  0  0  0  0  0  0  0  0  0  0  0
  1  2  1  0
  2  3  1  0
  3  4  2  0
  4  5  1  0
  5  6  2  0
  6  7  1  0
  7  8  1  0
  8  9  2  0
  8 10  1  0
 10 11  1  0
 11 12  2  0
 12 13  1  0
 13 14  2  0
 14 15  1  0
 11 16  1  0
 15 16  2  0
  6 17  1  0
  3 18  1  0
 17 18  2  0
 18 19  1  0
 19 20  1  0
 20 21  1  0
 21 22  1  0
 22 23  1  0
 20 24  1  0
 23 24  1  0
M  END
