pyridine_urea_5740
     RDKit          3D

 21 23  0  0  0  0  0  0  0  0999 V2000
    8.8690    0.8770   21.3430 O   0  0  0  0  0  0  0  0  0  0  0  0
    8.3690   -0.2120   21.5620 C   0  0  0  0  0  0  0  0  0  0  0  0
    8.9400   -1.1940   22.4690 N   0  0  0  0  0  0  0  0  0  0  0  0
   10.1000   -0.8840   23.1850 C   0  0  0  0  0  0  0  0  0  0  0  0
   11.1560   -0.3570   22.4540 C   0  0  1  0  0  0  0  0  0  0  0  0
   11.2430    1.0420   22.6290 C   0  0  0  0  0  0  0  0  0  0  0  0
   11.2870    1.2470   23.9340 C   0  0  0  0  0  0  0  0  0  0  0  0
   11.8460    0.0190   24.4670 C   0  0  1  0  0  0  0  0  0  0  0  0
   10.7400   -0.8800   24.9060 C   0  0  0  0  0  0  0  0  0  0  0  0
   10.8910   -2.2210   24.7290 O   0  0  0  0  0  0  0  0  0  0  0  0
   12.2020   -2.7070   24.4180 C   0  0  0  0  0  0  0  0  0  0  0  0
   13.1140   -1.6760   24.4190 C   0  0  0  0  0  0  0  0  0  0  0  0
   12.7020   -0.6190   23.5990 C   0  0  1  0  0  0  0  0  0  0  0  0
   12.2560   -1.1840   22.3620 C   0  0  0  0  0  0  0  0  0  0  0  0
    7.1870   -0.6690   20.9950 N   0  0  0  0  0  0  0  0  0  0  0  0
    6.4360    0.0310   20.0420 C   0  0  0  0  0  0  0  0  0  0  0  0
    5.2630    0.7360   20.2920 C   0  0  0  0  0  0  0  0  0  0  0  0
    4.6670    1.3820   19.2220 C   0  0  0  0  0  0  0  0  0  0  0  0
    5.2180    1.3230   17.9600 C   0  0  0  0  0  0  0  0  0  0  0  0
    6.3390    0.6490   17.6860 N   0  0  0  0  0  0  0  0  0  0  0  0
    6.9120    0.0220   18.7370 C   0  0  0  0  0  0  0  0  0  0  0  0
  1  2  2  0
  2  3  1  0
  3  4  1  0
  5  4  1  1
  5  6  1  0
  6  7  1  0
  8  7  1  6
  8  9  1  0
  9 10  1  0
 10 11  1  0
 11 12  1  0
  8 13  1  0
 13 12  1  1
  5 14  1  0
 13 14  1  0
  2 15  1  0
 15 16  1  0
 16 17  2  0
 17 18  1  0
 18 19  2  0
 19 20  1  0
 16 21  1  0
 20 21  2  0
M  END
