pyridine_urea_2646
     RDKit          3D

 23 25  0  0  0  0  0  0  0  0999 V2000
    6.1970    0.1470   24.8880 C   0  0  0  0  0  0  0  0  0  0  0  0
    6.7710   -0.2990   23.5510 C   0  0  1  0  0  0  0  0  0  0  0  0
    7.7830    0.6390   23.0700 N   0  0  0  0  0  0  0  0  0  0  0  0
    8.1410    0.6530   21.7440 C   0  0  0  0  0  0  0  0  0  0  0  0
    9.0190    1.3820   21.2730 O   0  0  0  0  0  0  0  0  0  0  0  0
    7.3490   -0.2230   21.0550 N   0  0  0  0  0  0  0  0  0  0  0  0
    6.5980    0.2700   19.9500 C   0  0  0  0  0  0  0  0  0  0  0  0
    5.4780    1.0400   20.1950 C   0  0  0  0  0  0  0  0  0  0  0  0
    4.6940    1.6000   19.1910 C   0  0  0  0  0  0  0  0  0  0  0  0
    5.1010    1.3450   17.8860 C   0  0  0  0  0  0  0  0  0  0  0  0
    6.1970    0.5750   17.6320 N   0  0  0  0  0  0  0  0  0  0  0  0
    6.9510    0.0310   18.6560 C   0  0  0  0  0  0  0  0  0  0  0  0
    7.6260   -1.5040   23.6140 C   0  0  0  0  0  0  0  0  0  0  0  0
    8.9170   -1.3960   23.4350 N   0  0  0  0  0  0  0  0  0  0  0  0
    9.5310   -2.5400   23.5120 C   0  0  0  0  0  0  0  0  0  0  0  0
   10.8940   -2.4820   23.3250 C   0  0  0  0  0  0  0  0  0  0  0  0
   11.8050   -2.8540   24.2970 C   0  0  0  0  0  0  0  0  0  0  0  0
   13.1490   -2.7300   24.0220 C   0  0  0  0  0  0  0  0  0  0  0  0
   13.6490   -2.2810   22.8750 N   0  0  0  0  0  0  0  0  0  0  0  0
   12.7620   -1.9250   21.9290 C   0  0  0  0  0  0  0  0  0  0  0  0
   11.3890   -2.0070   22.1100 C   0  0  0  0  0  0  0  0  0  0  0  0
    8.7070   -3.6440   23.7710 C   0  0  0  0  0  0  0  0  0  0  0  0
    7.0790   -3.1050   23.9070 S   0  0  0  0  0  0  0  0  0  0  0  0
  2  1  1  1
  2  3  1  0
  3  4  1  0
  4  5  2  0
  4  6  1  0
  6  7  1  0
  7  8  2  0
  8  9  1  0
  9 10  2  0
 10 11  1  0
  7 12  1  0
 11 12  2  0
  2 13  1  0
 13 14  2  0
 14 15  1  0
 15 16  1  0
 16 17  2  0
 17 18  1  0
 18 19  2  0
 19 20  1  0
 16 21  1  0
 20 21  2  0
 15 22  2  0
 13 23  1  0
 22 23  1  0
M  END
