pyridine_urea_7136
     RDKit          3D

 19 20  0  0  0  0  0  0  0  0999 V2000
   12.8580    3.0050   22.8530 C   0  0  0  0  0  0  0  0  0  0  0  0
   13.1340    1.9070   23.3600 O   0  0  0  0  0  0  0  0  0  0  0  0
   12.2180    0.9850   23.1560 C   0  0  0  0  0  0  0  0  0  0  0  0
   10.9870    1.3390   23.6360 C   0  0  0  0  0  0  0  0  0  0  0  0
    9.9120    0.5240   23.4490 C   0  0  0  0  0  0  0  0  0  0  0  0
   10.1120   -0.6450   22.7640 C   0  0  0  0  0  0  0  0  0  0  0  0
    9.0520   -1.4820   22.4760 N   0  0  0  0  0  0  0  0  0  0  0  0
    8.2540   -0.6120   21.5580 C   0  0  0  0  0  0  0  0  0  0  0  0
    8.7040    0.5060   21.2860 O   0  0  0  0  0  0  0  0  0  0  0  0
    7.0540   -1.0030   21.0350 N   0  0  0  0  0  0  0  0  0  0  0  0
    6.3850   -0.2470   20.0950 C   0  0  0  0  0  0  0  0  0  0  0  0
    5.1970    0.4580   20.2680 C   0  0  0  0  0  0  0  0  0  0  0  0
    4.5830    1.2150   19.2640 C   0  0  0  0  0  0  0  0  0  0  0  0
    5.1960    1.2700   18.0170 C   0  0  0  0  0  0  0  0  0  0  0  0
    6.3480    0.6180   17.7510 N   0  0  0  0  0  0  0  0  0  0  0  0
    6.9340   -0.1540   18.8310 C   0  0  0  0  0  0  0  0  0  0  0  0
   11.3740   -1.0370   22.2970 C   0  0  0  0  0  0  0  0  0  0  0  0
   11.3870   -2.1160   21.7200 O   0  0  0  0  0  0  0  0  0  0  0  0
   12.4930   -0.2200   22.4870 C   0  0  0  0  0  0  0  0  0  0  0  0
  1  2  1  0
  2  3  1  0
  3  4  2  0
  4  5  1  0
  5  6  2  0
  6  7  1  0
  7  8  1  0
  8  9  2  0
  8 10  1  0
 10 11  1  0
 11 12  2  0
 12 13  1  0
 13 14  2  0
 14 15  1  0
 11 16  1  0
 15 16  2  0
  6 17  1  0
 17 18  1  0
  3 19  1  0
 17 19  2  0
M  END
