pyridine_urea_13265
     RDKit          3D

 15 15  0  0  0  0  0  0  0  0999 V2000
   12.7580   -2.1200   22.4610 C   0  0  0  0  0  0  0  0  0  0  0  0
   11.4150   -1.6260   21.9970 C   0  0  0  0  0  0  0  0  0  0  0  0
   10.5640   -0.9750   22.8930 C   0  0  1  0  0  0  0  0  0  0  0  0
   10.8300    0.3830   22.9500 C   0  0  0  0  0  0  0  0  0  0  0  0
   12.1970    0.5570   23.1870 C   0  0  0  0  0  0  0  0  0  0  0  0
    9.1850   -1.1390   22.3990 N   0  0  0  0  0  0  0  0  0  0  0  0
    8.5530   -0.2010   21.5820 C   0  0  0  0  0  0  0  0  0  0  0  0
    8.9870    0.9250   21.4040 O   0  0  0  0  0  0  0  0  0  0  0  0
    7.3850   -0.7090   21.0300 N   0  0  0  0  0  0  0  0  0  0  0  0
    6.5730   -0.0210   20.1020 C   0  0  0  0  0  0  0  0  0  0  0  0
    5.2920    0.7720   20.4130 C   0  0  0  0  0  0  0  0  0  0  0  0
    4.6830    1.3720   19.3210 C   0  0  0  0  0  0  0  0  0  0  0  0
    5.1880    1.2660   18.0480 C   0  0  0  0  0  0  0  0  0  0  0  0
    6.2970    0.5790   17.7330 N   0  0  0  0  0  0  0  0  0  0  0  0
    6.9340   -0.0290   18.7610 C   0  0  0  0  0  0  0  0  0  0  0  0
  1  2  3  0
  3  2  1  6
  3  4  1  0
  4  5  1  0
  3  6  1  0
  6  7  1  0
  7  8  2  0
  7  9  1  0
  9 10  1  0
 10 11  2  0
 11 12  1  0
 12 13  2  0
 13 14  1  0
 10 15  1  0
 14 15  2  0
M  END
