pyridine_urea_507
     RDKit          3D

 25 27  0  0  0  0  0  0  0  0999 V2000
   12.6400   -0.7260   24.8180 C   0  0  0  0  0  0  0  0  0  0  0  0
   12.4430    0.0840   23.5490 C   0  0  2  0  0  0  0  0  0  0  0  0
   11.6010    1.1520   23.6570 C   0  0  0  0  0  0  0  0  0  0  0  0
   10.2810    0.8550   23.9840 C   0  0  0  0  0  0  0  0  0  0  0  0
    9.8380   -0.2680   23.3680 C   0  0  1  0  0  0  0  0  0  0  0  0
    8.4990   -0.3320   22.9780 N   0  0  0  0  0  0  0  0  0  0  0  0
    8.2400    0.2730   21.6440 C   0  0  0  0  0  0  0  0  0  0  0  0
    8.8780    1.2440   21.2020 O   0  0  0  0  0  0  0  0  0  0  0  0
    7.2110   -0.3770   21.0220 N   0  0  0  0  0  0  0  0  0  0  0  0
    6.4670    0.2070   20.0500 C   0  0  0  0  0  0  0  0  0  0  0  0
    5.3040    0.9540   20.2670 C   0  0  0  0  0  0  0  0  0  0  0  0
    4.6360    1.5300   19.1860 C   0  0  0  0  0  0  0  0  0  0  0  0
    5.1540    1.3400   17.9250 C   0  0  0  0  0  0  0  0  0  0  0  0
    6.2450    0.6370   17.6200 N   0  0  0  0  0  0  0  0  0  0  0  0
    6.9050    0.0580   18.7540 C   0  0  0  0  0  0  0  0  0  0  0  0
   10.5150   -0.4930   22.2020 C   0  0  2  0  0  0  0  0  0  0  0  0
   10.0240   -1.3620   21.5060 O   0  0  0  0  0  0  0  0  0  0  0  0
    9.7990   -2.5060   22.2000 C   0  0  0  0  0  0  0  0  0  0  0  0
   10.9680   -2.6270   22.8670 C   0  0  0  0  0  0  0  0  0  0  0  0
   12.0310   -2.1770   22.1110 C   0  0  0  0  0  0  0  0  0  0  0  0
   13.2850   -2.1920   22.6300 C   0  0  0  0  0  0  0  0  0  0  0  0
   13.5130   -2.6640   23.8990 C   0  0  0  0  0  0  0  0  0  0  0  0
   12.4780   -3.1190   24.6490 C   0  0  0  0  0  0  0  0  0  0  0  0
   11.1700   -3.1110   24.1540 C   0  0  0  0  0  0  0  0  0  0  0  0
   12.0070   -0.7830   22.5620 C   0  0  0  0  0  0  0  0  0  0  0  0
  2  1  1  1
  2  3  1  0
  3  4  1  0
  4  5  1  0
  5  6  1  6
  6  7  1  0
  7  8  2  0
  7  9  1  0
  9 10  1  0
 10 11  2  0
 11 12  1  0
 12 13  2  0
 13 14  1  0
 10 15  1  0
 14 15  2  0
  5 16  1  0
 16 17  1  1
 17 18  1  0
 18 19  1  0
 19 20  2  0
 20 21  1  0
 21 22  2  0
 22 23  1  0
 19 24  1  0
 23 24  2  0
  2 25  1  0
 16 25  1  0
M  END
