pyridine_urea_12642
     RDKit          3D

 21 22  0  0  0  0  0  0  0  0999 V2000
    8.0130   -2.2200   25.2040 C   0  0  0  0  0  0  0  0  0  0  0  0
    9.4460   -1.6920   24.9600 C   0  0  0  0  0  0  0  0  0  0  0  0
   10.4660   -2.6110   25.3690 O   0  0  0  0  0  0  0  0  0  0  0  0
    9.5600   -0.3600   24.3580 N   0  0  0  0  0  0  0  0  0  0  0  0
   10.7880    0.2640   24.3000 C   0  0  0  0  0  0  0  0  0  0  0  0
   12.0630    0.6210   23.9480 C   0  0  0  0  0  0  0  0  0  0  0  0
   12.9690    0.2240   23.0540 C   0  0  0  0  0  0  0  0  0  0  0  0
   12.6470   -0.7740   22.2320 C   0  0  0  0  0  0  0  0  0  0  0  0
   11.4410   -1.4420   22.1890 C   0  0  0  0  0  0  0  0  0  0  0  0
   10.1380   -1.8580   22.4490 C   0  0  0  0  0  0  0  0  0  0  0  0
    9.3000   -1.4160   21.4200 N   0  0  0  0  0  0  0  0  0  0  0  0
    8.4670   -0.3020   21.3590 C   0  0  0  0  0  0  0  0  0  0  0  0
    8.9550    1.0070   21.4370 O   0  0  0  0  0  0  0  0  0  0  0  0
    7.1650   -0.6380   21.1770 N   0  0  0  0  0  0  0  0  0  0  0  0
    6.5290   -0.0230   20.1480 C   0  0  0  0  0  0  0  0  0  0  0  0
    5.3480    0.6980   20.4110 C   0  0  0  0  0  0  0  0  0  0  0  0
    4.6800    1.3770   19.2580 C   0  0  0  0  0  0  0  0  0  0  0  0
    5.2100    1.2910   18.0040 C   0  0  0  0  0  0  0  0  0  0  0  0
    6.3480    0.5860   17.7730 N   0  0  0  0  0  0  0  0  0  0  0  0
    6.9610   -0.0410   18.8210 C   0  0  0  0  0  0  0  0  0  0  0  0
   10.6640   -0.7680   23.3050 C   0  0  0  0  0  0  0  0  0  0  0  0
  1  2  1  0
  2  3  2  0
  2  4  1  0
  4  5  1  0
  5  6  2  0
  6  7  1  0
  7  8  2  0
  8  9  1  0
  9 10  1  0
 10 11  1  0
 11 12  1  0
 12 13  2  0
 12 14  1  0
 14 15  1  0
 15 16  2  0
 16 17  1  0
 17 18  2  0
 18 19  1  0
 15 20  1  0
 19 20  2  0
  5 21  1  0
  9 21  2  0
M  END
