pyridine_urea_712
     RDKit          3D

 23 24  0  0  0  0  0  0  0  0999 V2000
    7.5290    0.6570   24.6940 N   0  0  0  0  0  0  0  0  0  0  0  0
    8.0550   -0.8770   25.1360 S   0  0  0  0  0  0  0  0  0  0  0  0
    7.2970   -1.8550   24.3890 O   0  0  0  0  0  0  0  0  0  0  0  0
    8.0360   -0.8470   26.5810 O   0  0  0  0  0  0  0  0  0  0  0  0
    9.7350   -0.8020   24.5200 C   0  0  0  0  0  0  0  0  0  0  0  0
   10.3040   -1.7800   23.6070 C   0  0  0  0  0  0  0  0  0  0  0  0
   11.5620   -1.6620   23.1470 C   0  0  0  0  0  0  0  0  0  0  0  0
   12.5030   -0.6530   23.4320 C   0  0  0  0  0  0  0  0  0  0  0  0
   12.9520   -1.5760   22.5760 C   0  0  0  0  0  0  0  0  0  0  0  0
   11.8500   -1.8970   21.8110 C   0  0  0  0  0  0  0  0  0  0  0  0
   10.5900   -1.0170   22.1120 C   0  0  0  0  0  0  0  0  0  0  0  0
    9.3710   -1.3900   21.3860 N   0  0  0  0  0  0  0  0  0  0  0  0
    8.4810   -0.2540   21.2890 C   0  0  0  0  0  0  0  0  0  0  0  0
    8.8630    0.9000   21.4250 O   0  0  0  0  0  0  0  0  0  0  0  0
    7.1860   -0.5490   20.9850 N   0  0  0  0  0  0  0  0  0  0  0  0
    6.4100    0.1160   20.0360 C   0  0  0  0  0  0  0  0  0  0  0  0
    5.2150    0.8160   20.2850 C   0  0  0  0  0  0  0  0  0  0  0  0
    4.5590    1.4620   19.2240 C   0  0  0  0  0  0  0  0  0  0  0  0
    5.1450    1.3890   17.8760 C   0  0  0  0  0  0  0  0  0  0  0  0
    6.3150    0.6810   17.6730 N   0  0  0  0  0  0  0  0  0  0  0  0
    6.8960    0.0760   18.7380 C   0  0  0  0  0  0  0  0  0  0  0  0
   11.7000    0.1150   24.3270 C   0  0  0  0  0  0  0  0  0  0  0  0
   10.4160    0.2690   24.9880 C   0  0  0  0  0  0  0  0  0  0  0  0
  2  1  1  0
  2  3  2  0
  2  4  2  0
  2  5  1  0
  5  6  2  0
  6  7  1  0
  7  8  2  0
  8  9  1  0
  9 10  1  0
 10 11  1  0
 11 12  1  0
 12 13  1  0
 13 14  2  0
 13 15  1  0
 15 16  1  0
 16 17  2  0
 17 18  1  0
 18 19  2  0
 19 20  1  0
 16 21  1  0
 20 21  2  0
  8 22  1  0
  5 23  1  0
 22 23  2  0
M  END
