pyridine_urea_1263
     RDKit          3D

 21 22  0  0  0  0  0  0  0  0999 V2000
   10.5780    0.3280   23.1240 C   0  0  0  0  0  0  0  0  0  0  0  0
   10.3690   -1.1580   22.7450 C   0  0  1  0  0  0  0  0  0  0  0  0
   10.4470   -1.9560   24.0670 C   0  0  0  0  0  0  0  0  0  0  0  0
   11.2670   -3.1410   24.0520 O   0  0  0  0  0  0  0  0  0  0  0  0
   12.6280   -2.7990   24.3780 C   0  0  0  0  0  0  0  0  0  0  0  0
   12.9510   -1.8530   23.4850 C   0  0  0  0  0  0  0  0  0  0  0  0
   13.2240   -2.1120   22.1750 C   0  0  0  0  0  0  0  0  0  0  0  0
   13.5290   -1.0620   21.3620 C   0  0  0  0  0  0  0  0  0  0  0  0
   13.5490    0.2470   21.8660 C   0  0  0  0  0  0  0  0  0  0  0  0
   13.2660    0.4710   23.1530 C   0  0  0  0  0  0  0  0  0  0  0  0
   12.9810   -0.6010   23.9460 C   0  0  0  0  0  0  0  0  0  0  0  0
    9.0390   -1.3370   22.1670 N   0  0  0  0  0  0  0  0  0  0  0  0
    8.3830   -0.3000   21.5300 C   0  0  0  0  0  0  0  0  0  0  0  0
    8.8400    0.8310   21.4370 O   0  0  0  0  0  0  0  0  0  0  0  0
    7.1610   -0.7030   21.0320 N   0  0  0  0  0  0  0  0  0  0  0  0
    6.4780   -0.0270   20.0070 C   0  0  0  0  0  0  0  0  0  0  0  0
    5.3140    0.6720   20.3190 C   0  0  0  0  0  0  0  0  0  0  0  0
    4.6380    1.3710   19.2570 C   0  0  0  0  0  0  0  0  0  0  0  0
    5.1940    1.2940   18.0000 C   0  0  0  0  0  0  0  0  0  0  0  0
    6.3050    0.6150   17.7070 N   0  0  0  0  0  0  0  0  0  0  0  0
    6.9200   -0.0260   18.7090 C   0  0  0  0  0  0  0  0  0  0  0  0
  2  1  1  1
  2  3  1  0
  3  4  1  0
  4  5  1  0
  5  6  1  0
  6  7  2  0
  7  8  1  0
  8  9  2  0
  9 10  1  0
  6 11  1  0
 10 11  2  0
  2 12  1  0
 12 13  1  0
 13 14  2  0
 13 15  1  0
 15 16  1  0
 16 17  2  0
 17 18  1  0
 18 19  2  0
 19 20  1  0
 16 21  1  0
 20 21  2  0
M  END
