pyridine_urea_2909
     RDKit          3D

 22 23  0  0  0  0  0  0  0  0999 V2000
   11.3510    5.2340   23.3920 C   0  0  0  0  0  0  0  0  0  0  0  0
   11.6900    4.1700   22.3530 C   0  0  0  0  0  0  0  0  0  0  0  0
   10.5500    3.0900   22.4490 C   0  0  0  0  0  0  0  0  0  0  0  0
   13.0950    3.6210   22.6840 C   0  0  0  0  0  0  0  0  0  0  0  0
   13.2550    2.3810   22.8460 O   0  0  0  0  0  0  0  0  0  0  0  0
   12.2100    1.4470   23.0920 C   0  0  0  0  0  0  0  0  0  0  0  0
   11.2820    1.9950   23.9440 C   0  0  0  0  0  0  0  0  0  0  0  0
   10.0580    1.2270   24.3610 C   0  0  0  0  0  0  0  0  0  0  0  0
    9.8020   -0.1410   23.8490 C   0  0  0  0  0  0  0  0  0  0  0  0
   10.9110   -0.5950   22.9150 C   0  0  0  0  0  0  0  0  0  0  0  0
   10.5370   -1.9500   22.4230 C   0  0  0  0  0  0  0  0  0  0  0  0
    9.1260   -1.8840   21.9940 N   0  0  0  0  0  0  0  0  0  0  0  0
    8.5680   -0.6940   21.4980 C   0  0  0  0  0  0  0  0  0  0  0  0
    9.1600    0.3740   21.4930 O   0  0  0  0  0  0  0  0  0  0  0  0
    7.2360   -0.9070   21.0290 N   0  0  0  0  0  0  0  0  0  0  0  0
    6.5170   -0.1500   20.1010 C   0  0  0  0  0  0  0  0  0  0  0  0
    5.3530    0.5770   20.3780 C   0  0  0  0  0  0  0  0  0  0  0  0
    4.7320    1.2970   19.3450 C   0  0  0  0  0  0  0  0  0  0  0  0
    5.2840    1.2730   18.0750 C   0  0  0  0  0  0  0  0  0  0  0  0
    6.3990    0.5810   17.7900 N   0  0  0  0  0  0  0  0  0  0  0  0
    6.9800   -0.1080   18.7950 C   0  0  0  0  0  0  0  0  0  0  0  0
   12.0500    0.1580   22.5820 C   0  0  0  0  0  0  0  0  0  0  0  0
  1  2  1  0
  2  3  1  0
  2  4  1  0
  4  5  1  0
  5  6  1  0
  6  7  2  0
  7  8  1  0
  8  9  2  0
  9 10  1  0
 10 11  1  0
 11 12  1  0
 12 13  1  0
 13 14  2  0
 13 15  1  0
 15 16  1  0
 16 17  2  0
 17 18  1  0
 18 19  2  0
 19 20  1  0
 16 21  1  0
 20 21  2  0
  6 22  1  0
 10 22  2  0
M  END
