pyridine_urea_11411
     RDKit          3D

 23 24  0  0  0  0  0  0  0  0999 V2000
    7.9470   -3.9820   23.2150 C   0  0  0  0  0  0  0  0  0  0  0  0
    8.7780   -3.1740   23.5170 C   0  0  0  0  0  0  0  0  0  0  0  0
    8.0860   -2.1720   24.3260 O   0  0  0  0  0  0  0  0  0  0  0  0
    8.6960   -0.9540   24.4900 C   0  0  0  0  0  0  0  0  0  0  0  0
    8.5500   -0.2430   25.4830 O   0  0  0  0  0  0  0  0  0  0  0  0
    9.5460   -0.6150   23.3150 C   0  0  2  0  0  0  0  0  0  0  0  0
    8.9260   -1.0610   22.0900 N   0  0  0  0  0  0  0  0  0  0  0  0
    8.2170   -0.1460   21.3390 C   0  0  0  0  0  0  0  0  0  0  0  0
    8.7270    1.1630   21.0210 O   0  0  0  0  0  0  0  0  0  0  0  0
    7.0220   -0.6520   20.9830 N   0  0  0  0  0  0  0  0  0  0  0  0
    6.4330   -0.0080   19.9620 C   0  0  0  0  0  0  0  0  0  0  0  0
    5.1890    0.7560   20.2140 C   0  0  0  0  0  0  0  0  0  0  0  0
    4.4900    1.4630   19.2930 C   0  0  0  0  0  0  0  0  0  0  0  0
    5.2090    1.3350   17.9650 C   0  0  0  0  0  0  0  0  0  0  0  0
    6.3330    0.6460   17.7090 N   0  0  0  0  0  0  0  0  0  0  0  0
    6.9220   -0.0110   18.7000 C   0  0  0  0  0  0  0  0  0  0  0  0
   10.8790   -1.2510   23.5520 C   0  0  0  0  0  0  0  0  0  0  0  0
   11.2280   -0.0820   22.9410 C   0  0  2  0  0  0  0  0  0  0  0  0
   12.4580    0.6600   23.2500 C   0  0  0  0  0  0  0  0  0  0  0  0
   11.8980   -0.0530   24.4380 C   0  0  0  0  0  0  0  0  0  0  0  0
   12.2870    2.1890   23.1130 C   0  0  0  0  0  0  0  0  0  0  0  0
   13.5620    0.0080   22.6480 C   0  0  0  0  0  0  0  0  0  0  0  0
   10.0300    0.6600   23.0350 C   0  0  0  0  0  0  0  0  0  0  0  0
  1  2  1  0
  2  3  1  0
  3  4  1  0
  4  5  2  0
  6  4  1  0
  6  7  1  6
  7  8  1  0
  8  9  2  0
  8 10  1  0
 10 11  1  0
 11 12  2  0
 12 13  1  0
 13 14  2  0
 14 15  1  0
 11 16  1  0
 15 16  2  0
  6 17  1  0
 17 18  1  0
 18 19  1  1
 19 20  1  0
 19 21  1  0
 19 22  1  0
  6 23  1  0
 18 23  1  0
M  END
