pyridine_urea_139
     RDKit          3D

 20 21  0  0  0  0  0  0  0  0999 V2000
   11.7300   -3.0650   24.4720 N   0  0  0  0  0  0  0  0  0  0  0  0
   13.2120   -2.2480   24.3270 S   0  0  0  0  0  0  0  0  0  0  0  0
   13.4040   -1.5810   25.5850 O   0  0  0  0  0  0  0  0  0  0  0  0
   14.1450   -3.2330   23.8960 O   0  0  0  0  0  0  0  0  0  0  0  0
   13.0660   -1.0200   23.0130 C   0  0  0  0  0  0  0  0  0  0  0  0
   12.2170   -0.2830   23.2850 C   0  0  1  0  0  0  0  0  0  0  0  0
   11.3870    0.9230   23.5480 C   0  0  0  0  0  0  0  0  0  0  0  0
   10.0800    0.3380   23.8540 C   0  0  0  0  0  0  0  0  0  0  0  0
    9.9170   -0.8970   23.2800 C   0  0  1  0  0  0  0  0  0  0  0  0
    8.8190   -1.2470   22.5670 N   0  0  0  0  0  0  0  0  0  0  0  0
    8.3430   -0.3300   21.6740 C   0  0  0  0  0  0  0  0  0  0  0  0
    8.9380    0.7090   21.4170 O   0  0  0  0  0  0  0  0  0  0  0  0
    7.1370   -0.7150   21.1340 N   0  0  0  0  0  0  0  0  0  0  0  0
    6.4260    0.0020   20.0520 C   0  0  0  0  0  0  0  0  0  0  0  0
    5.2840    0.6280   20.4700 C   0  0  0  0  0  0  0  0  0  0  0  0
    4.7010    1.3150   19.2440 C   0  0  0  0  0  0  0  0  0  0  0  0
    5.2360    1.2960   17.9780 C   0  0  0  0  0  0  0  0  0  0  0  0
    6.3490    0.6420   17.7140 N   0  0  0  0  0  0  0  0  0  0  0  0
    6.9060    0.0180   18.7520 C   0  0  0  0  0  0  0  0  0  0  0  0
   11.0510   -0.5220   22.2740 C   0  0  0  0  0  0  0  0  0  0  0  0
  2  1  1  0
  2  3  2  0
  2  4  2  0
  2  5  1  0
  6  5  1  6
  6  7  1  0
  7  8  1  0
  8  9  1  0
  9 10  1  6
 10 11  1  0
 11 12  2  0
 11 13  1  0
 13 14  1  0
 14 15  2  0
 15 16  1  0
 16 17  2  0
 17 18  1  0
 14 19  1  0
 18 19  2  0
  6 20  1  0
  9 20  1  0
M  END
