pyridine_urea_14778
     RDKit          3D

 20 21  0  0  0  0  0  0  0  0999 V2000
    8.5170    1.1980   20.8530 O   0  0  0  0  0  0  0  0  0  0  0  0
    8.0680    0.1140   21.2490 C   0  0  0  0  0  0  0  0  0  0  0  0
    8.5870   -0.5180   22.2860 N   0  0  0  0  0  0  0  0  0  0  0  0
    9.1190    0.2500   23.2830 C   0  0  0  0  0  0  0  0  0  0  0  0
   10.3280    0.8630   23.1190 C   0  0  0  0  0  0  0  0  0  0  0  0
   10.3120   -0.5240   23.3620 C   0  0  0  0  0  0  0  0  0  0  0  0
   11.4010   -1.1780   23.4400 C   0  0  0  0  0  0  0  0  0  0  0  0
   11.7900    0.0760   23.1990 F   0  0  0  0  0  0  0  0  0  0  0  0
   12.6550   -1.1530   23.3930 C   0  0  0  0  0  0  0  0  0  0  0  0
   13.6170   -2.6920   23.6640 Br  0  0  0  0  0  0  0  0  0  0  0  0
   12.9520    0.2780   23.1140 C   0  0  0  0  0  0  0  0  0  0  0  0
   11.7970    1.1130   23.0100 C   0  0  0  0  0  0  0  0  0  0  0  0
   12.1660    2.3980   22.7640 F   0  0  0  0  0  0  0  0  0  0  0  0
    7.0020   -0.5620   20.7660 N   0  0  0  0  0  0  0  0  0  0  0  0
    6.2600    0.1490   19.7730 C   0  0  0  0  0  0  0  0  0  0  0  0
    5.0260    0.6920   20.0740 C   0  0  0  0  0  0  0  0  0  0  0  0
    4.3940    1.3960   19.0650 C   0  0  0  0  0  0  0  0  0  0  0  0
    5.0920    1.5050   17.7620 C   0  0  0  0  0  0  0  0  0  0  0  0
    6.2880    0.9430   17.5320 N   0  0  0  0  0  0  0  0  0  0  0  0
    6.8330    0.2820   18.5450 C   0  0  0  0  0  0  0  0  0  0  0  0
  1  2  2  0
  2  3  1  0
  3  4  1  0
  4  5  1  0
  5  6  2  0
  6  7  1  0
  7  8  1  0
  7  9  2  0
  9 10  1  0
  9 11  1  0
  5 12  1  0
 11 12  2  0
 12 13  1  0
  2 14  1  0
 14 15  1  0
 15 16  2  0
 16 17  1  0
 17 18  2  0
 18 19  1  0
 15 20  1  0
 19 20  2  0
M  END
