pyridine_urea_2968
     RDKit          3D

 21 22  0  0  0  0  0  0  0  0999 V2000
    9.9550   -0.3860   25.1660 C   0  0  0  0  0  0  0  0  0  0  0  0
   10.6830    0.3680   24.0410 C   0  0  0  0  0  0  0  0  0  0  0  0
    9.8630    1.6950   23.8820 C   0  0  0  0  0  0  0  0  0  0  0  0
   10.4740   -0.4080   22.7290 C   0  0  0  0  0  0  0  0  0  0  0  0
    9.1070   -0.5320   22.4240 N   0  0  0  0  0  0  0  0  0  0  0  0
    8.3690    0.0700   21.4510 C   0  0  0  0  0  0  0  0  0  0  0  0
    8.7170    1.2050   21.0890 O   0  0  0  0  0  0  0  0  0  0  0  0
    7.3070   -0.6300   20.9840 N   0  0  0  0  0  0  0  0  0  0  0  0
    6.5720    0.0210   20.0670 C   0  0  0  0  0  0  0  0  0  0  0  0
    5.2890    0.8170   20.3350 C   0  0  0  0  0  0  0  0  0  0  0  0
    4.5130    1.5480   19.2430 C   0  0  0  0  0  0  0  0  0  0  0  0
    5.1760    1.3830   17.8870 C   0  0  0  0  0  0  0  0  0  0  0  0
    6.3170    0.6500   17.7320 N   0  0  0  0  0  0  0  0  0  0  0  0
    6.9920   -0.0090   18.7580 C   0  0  0  0  0  0  0  0  0  0  0  0
   12.0880    0.6660   24.2010 C   0  0  0  0  0  0  0  0  0  0  0  0
   12.8900    0.5020   23.0120 C   0  0  0  0  0  0  0  0  0  0  0  0
   12.7740   -0.7480   22.4430 C   0  0  0  0  0  0  0  0  0  0  0  0
   12.1680   -1.9270   23.0440 C   0  0  0  0  0  0  0  0  0  0  0  0
   11.4110   -3.0510   24.0910 Cl  0  0  0  0  0  0  0  0  0  0  0  0
   11.9660   -1.4410   24.3900 C   0  0  0  0  0  0  0  0  0  0  0  0
   12.1120   -0.2870   25.0390 N   0  0  0  0  0  0  0  0  0  0  0  0
  2  1  1  0
  2  3  1  0
  2  4  1  0
  4  5  1  0
  5  6  1  0
  6  7  2  0
  6  8  1  0
  8  9  1  0
  9 10  2  0
 10 11  1  0
 11 12  2  0
 12 13  1  0
  9 14  1  0
 13 14  2  0
  2 15  1  0
 15 16  2  0
 16 17  1  0
 17 18  2  0
 18 19  1  0
 18 20  1  0
 15 21  1  0
 20 21  2  0
M  END
