pyridine_urea_13354
     RDKit          3D

 20 22  0  0  0  0  0  0  0  0999 V2000
   12.3900   -1.4650   25.1390 C   0  0  0  0  0  0  0  0  0  0  0  0
   11.3370   -0.5610   25.1280 N   0  0  0  0  0  0  0  0  0  0  0  0
   10.2920   -0.4810   26.0550 N   0  0  0  0  0  0  0  0  0  0  0  0
    9.4970    0.5190   25.6370 C   0  0  0  0  0  0  0  0  0  0  0  0
   10.0330    1.0350   24.5180 C   0  0  0  0  0  0  0  0  0  0  0  0
   11.1590    0.3830   24.2010 C   0  0  0  0  0  0  0  0  0  0  0  0
   11.9610    0.5390   23.1900 C   0  0  1  0  0  0  0  0  0  0  0  0
   12.5970   -0.4290   22.5060 C   0  0  0  0  0  0  0  0  0  0  0  0
   11.1500   -0.2220   22.2410 C   0  0  1  0  0  0  0  0  0  0  0  0
   10.1460   -1.2920   22.6460 C   0  0  0  0  0  0  0  0  0  0  0  0
    9.2090   -1.4580   21.6720 N   0  0  0  0  0  0  0  0  0  0  0  0
    8.4050   -0.3880   21.4140 C   0  0  0  0  0  0  0  0  0  0  0  0
    8.8290    0.7670   21.4220 O   0  0  0  0  0  0  0  0  0  0  0  0
    7.1300   -0.7620   21.1380 N   0  0  0  0  0  0  0  0  0  0  0  0
    6.4480   -0.0790   20.1640 C   0  0  0  0  0  0  0  0  0  0  0  0
    5.2670    0.6430   20.3510 C   0  0  0  0  0  0  0  0  0  0  0  0
    4.6800    1.3020   19.2740 C   0  0  0  0  0  0  0  0  0  0  0  0
    5.2410    1.2600   18.0170 C   0  0  0  0  0  0  0  0  0  0  0  0
    6.3740    0.5760   17.7810 N   0  0  0  0  0  0  0  0  0  0  0  0
    6.9450   -0.0760   18.8520 C   0  0  0  0  0  0  0  0  0  0  0  0
  1  2  1  0
  2  3  1  0
  3  4  2  0
  4  5  1  0
  2  6  1  0
  5  6  2  0
  7  6  1  1
  7  8  1  0
  7  9  1  0
  8  9  1  0
  9 10  1  1
 10 11  1  0
 11 12  1  0
 12 13  2  0
 12 14  1  0
 14 15  1  0
 15 16  2  0
 16 17  1  0
 17 18  2  0
 18 19  1  0
 15 20  1  0
 19 20  2  0
M  END
