pyridine_urea_2679
     RDKit          3D

 23 24  0  0  0  0  0  0  0  0999 V2000
    8.5100    1.0570   21.2260 O   0  0  0  0  0  0  0  0  0  0  0  0
    8.2330   -0.1340   21.1930 C   0  0  0  0  0  0  0  0  0  0  0  0
    6.9630   -0.6060   21.0200 N   0  0  0  0  0  0  0  0  0  0  0  0
    6.3030    0.0830   19.9630 C   0  0  0  0  0  0  0  0  0  0  0  0
    4.9610    0.8200   20.2290 C   0  0  0  0  0  0  0  0  0  0  0  0
    4.4000    1.4850   19.1500 C   0  0  0  0  0  0  0  0  0  0  0  0
    5.1650    1.4190   17.8250 C   0  0  0  0  0  0  0  0  0  0  0  0
    6.3270    0.7530   17.6580 N   0  0  0  0  0  0  0  0  0  0  0  0
    6.8570    0.1120   18.7100 C   0  0  0  0  0  0  0  0  0  0  0  0
    9.1100   -1.1440   21.2920 N   0  0  0  0  0  0  0  0  0  0  0  0
   10.0600   -0.9710   22.3280 C   0  0  0  0  0  0  0  0  0  0  0  0
   11.4860   -1.2750   21.9690 C   0  0  0  0  0  0  0  0  0  0  0  0
   12.4360   -1.0740   23.0960 C   0  0  0  0  0  0  0  0  0  0  0  0
   11.8000   -0.6320   24.4130 C   0  0  0  0  0  0  0  0  0  0  0  0
   12.5710   -0.5110   25.4480 O   0  0  0  0  0  0  0  0  0  0  0  0
   13.4430   -1.6170   25.3560 C   0  0  0  0  0  0  0  0  0  0  0  0
   12.9890   -2.9080   24.8080 C   0  0  0  0  0  0  0  0  0  0  0  0
   13.5680   -3.8130   25.6160 F   0  0  0  0  0  0  0  0  0  0  0  0
   11.6620   -3.0820   24.7480 F   0  0  0  0  0  0  0  0  0  0  0  0
   13.4820   -3.0620   23.5670 F   0  0  0  0  0  0  0  0  0  0  0  0
   10.4340   -0.3880   24.5800 C   0  0  0  0  0  0  0  0  0  0  0  0
    9.6050    0.0970   26.0270 Cl  0  0  0  0  0  0  0  0  0  0  0  0
    9.5960   -0.5520   23.5410 C   0  0  0  0  0  0  0  0  0  0  0  0
  1  2  2  0
  2  3  1  0
  3  4  1  0
  4  5  2  0
  5  6  1  0
  6  7  2  0
  7  8  1  0
  4  9  1  0
  8  9  2  0
  2 10  1  0
 10 11  1  0
 11 12  2  0
 12 13  1  0
 13 14  2  0
 14 15  1  0
 15 16  1  0
 16 17  1  0
 17 18  1  0
 17 19  1  0
 17 20  1  0
 14 21  1  0
 21 22  1  0
 11 23  1  0
 21 23  2  0
M  END
