pyridine_urea_13983
     RDKit          3D

 24 26  0  0  0  0  0  0  0  0999 V2000
    8.6020   -1.1590   20.4800 O   0  0  0  0  0  0  0  0  0  0  0  0
    7.9240   -1.0730   21.4360 C   0  0  0  0  0  0  0  0  0  0  0  0
    6.5870   -0.8320   21.3170 N   0  0  0  0  0  0  0  0  0  0  0  0
    6.1710   -0.1210   20.1210 C   0  0  0  0  0  0  0  0  0  0  0  0
    4.9100    0.7070   20.2920 C   0  0  0  0  0  0  0  0  0  0  0  0
    4.4810    1.4400   19.0760 C   0  0  0  0  0  0  0  0  0  0  0  0
    5.2310    1.3220   17.9220 C   0  0  0  0  0  0  0  0  0  0  0  0
    6.3490    0.5730   17.8050 N   0  0  0  0  0  0  0  0  0  0  0  0
    6.7970   -0.1250   18.8800 C   0  0  0  0  0  0  0  0  0  0  0  0
    8.4190   -1.1460   22.7030 N   0  0  0  0  0  0  0  0  0  0  0  0
    8.9600    0.1450   23.0870 C   0  0  2  0  0  0  0  0  0  0  0  0
    8.6800    0.9160   22.0290 C   0  0  0  0  0  0  0  0  0  0  0  0
    9.6200    1.9640   22.4900 C   0  0  0  0  0  0  0  0  0  0  0  0
   10.5360    1.5110   23.3010 N   0  0  0  0  0  0  0  0  0  0  0  0
   11.7260    2.2380   23.3060 C   0  0  0  0  0  0  0  0  0  0  0  0
   12.6000    3.3390   23.2390 O   0  0  0  0  0  0  0  0  0  0  0  0
   10.9090    3.3540   23.1400 C   0  0  0  0  0  0  0  0  0  0  0  0
   11.6510    4.4760   22.9500 C   0  0  0  0  0  0  0  0  0  0  0  0
   12.6590    4.3160   21.7880 C   0  0  0  0  0  0  0  0  0  0  0  0
   13.2660    5.6920   21.8940 C   0  0  0  0  0  0  0  0  0  0  0  0
   12.9510    6.8100   22.8330 C   0  0  0  0  0  0  0  0  0  0  0  0
   11.9980    6.6930   23.7800 C   0  0  0  0  0  0  0  0  0  0  0  0
   11.3300    5.5190   23.8560 C   0  0  0  0  0  0  0  0  0  0  0  0
   10.2850    0.1710   23.5290 C   0  0  0  0  0  0  0  0  0  0  0  0
  1  2  2  0
  2  3  1  0
  3  4  1  0
  4  5  2  0
  5  6  1  0
  6  7  2  0
  7  8  1  0
  4  9  1  0
  8  9  2  0
  2 10  1  0
 11 10  1  6
 11 12  1  0
 12 13  1  0
 13 14  1  0
 14 15  1  0
 15 16  2  0
 15 17  1  0
 17 18  1  0
 18 19  2  0
 19 20  1  0
 20 21  2  0
 21 22  1  0
 18 23  1  0
 22 23  2  0
 11 24  1  0
 14 24  1  0
M  END
