pyridine_urea_9925
     RDKit          3D

 25 27  0  0  0  0  0  0  0  0999 V2000
    8.9550    1.1990   21.2180 O   0  0  0  0  0  0  0  0  0  0  0  0
    8.4620    0.1210   21.5730 C   0  0  0  0  0  0  0  0  0  0  0  0
    8.9770   -0.6170   22.6230 N   0  0  0  0  0  0  0  0  0  0  0  0
   10.3500   -1.0420   22.5260 C   0  0  0  0  0  0  0  0  0  0  0  0
   11.2380   -0.5800   23.6780 C   0  0  2  0  0  0  0  0  0  0  0  0
   11.2480   -1.5080   24.6800 O   0  0  0  0  0  0  0  0  0  0  0  0
   10.9910    0.8630   24.0390 C   0  0  0  0  0  0  0  0  0  0  0  0
   10.3400    1.6100   23.0140 O   0  0  0  0  0  0  0  0  0  0  0  0
   10.0170    2.9000   23.3670 C   0  0  0  0  0  0  0  0  0  0  0  0
    8.7630    3.4440   24.0750 C   0  0  0  0  0  0  0  0  0  0  0  0
    8.5870    4.9260   24.3920 C   0  0  0  0  0  0  0  0  0  0  0  0
    9.5760    5.8210   24.0370 C   0  0  0  0  0  0  0  0  0  0  0  0
   10.7430    5.4540   23.3980 C   0  0  0  0  0  0  0  0  0  0  0  0
   11.6610    6.4420   23.0920 C   0  0  0  0  0  0  0  0  0  0  0  0
   12.8550    6.1640   22.4470 C   0  0  0  0  0  0  0  0  0  0  0  0
   13.1550    4.8630   22.0920 C   0  0  0  0  0  0  0  0  0  0  0  0
   12.1760    3.7960   22.4210 C   0  0  0  0  0  0  0  0  0  0  0  0
   10.9770    4.1000   23.0710 C   0  0  0  0  0  0  0  0  0  0  0  0
    7.3570   -0.4910   21.0190 N   0  0  0  0  0  0  0  0  0  0  0  0
    6.5470    0.1310   20.0630 C   0  0  0  0  0  0  0  0  0  0  0  0
    5.3780    0.8490   20.3170 C   0  0  0  0  0  0  0  0  0  0  0  0
    4.7020    1.4220   19.2750 C   0  0  0  0  0  0  0  0  0  0  0  0
    5.1690    1.2920   17.9870 C   0  0  0  0  0  0  0  0  0  0  0  0
    6.2800    0.6050   17.6920 N   0  0  0  0  0  0  0  0  0  0  0  0
    6.9340    0.0430   18.7350 C   0  0  0  0  0  0  0  0  0  0  0  0
  1  2  2  0
  2  3  1  0
  3  4  1  0
  4  5  1  0
  5  6  1  1
  5  7  1  0
  7  8  1  0
  8  9  1  0
  9 10  2  0
 10 11  1  0
 11 12  2  0
 12 13  1  0
 13 14  1  0
 14 15  2  0
 15 16  1  0
 16 17  2  0
  9 18  1  0
 13 18  2  0
 17 18  1  0
  2 19  1  0
 19 20  1  0
 20 21  2  0
 21 22  1  0
 22 23  2  0
 23 24  1  0
 20 25  1  0
 24 25  2  0
M  END
