pyridine_urea_2143
     RDKit          3D

 18 20  0  0  0  0  0  0  0  0999 V2000
    8.9160    1.1480   21.2410 O   0  0  0  0  0  0  0  0  0  0  0  0
    8.2600    0.1670   21.6390 C   0  0  0  0  0  0  0  0  0  0  0  0
    7.2780   -0.5010   20.9560 N   0  0  0  0  0  0  0  0  0  0  0  0
    6.4680    0.1390   20.0310 C   0  0  0  0  0  0  0  0  0  0  0  0
    5.1470    0.8490   20.3710 C   0  0  0  0  0  0  0  0  0  0  0  0
    4.4770    1.4940   19.1630 C   0  0  0  0  0  0  0  0  0  0  0  0
    5.1640    1.3610   17.8440 C   0  0  0  0  0  0  0  0  0  0  0  0
    6.3170    0.7030   17.6730 N   0  0  0  0  0  0  0  0  0  0  0  0
    6.9120    0.1310   18.7290 C   0  0  0  0  0  0  0  0  0  0  0  0
    8.4220   -0.3930   22.8830 N   0  0  0  0  0  0  0  0  0  0  0  0
    9.6520   -1.0170   23.2420 C   0  0  1  0  0  0  0  0  0  0  0  0
   10.6480   -0.7950   22.3220 C   0  0  0  0  0  0  0  0  0  0  0  0
   11.3940   -0.1730   23.2390 C   0  0  2  0  0  0  0  0  0  0  0  0
   12.3900    0.7480   23.2080 C   0  0  0  0  0  0  0  0  0  0  0  0
   13.3060   -0.2600   22.9400 C   0  0  0  0  0  0  0  0  0  0  0  0
   12.3840   -1.3150   22.9860 C   0  0  1  0  0  0  0  0  0  0  0  0
   12.6280   -2.2630   24.0240 O   0  0  0  0  0  0  0  0  0  0  0  0
   10.3770   -0.2110   24.3720 C   0  0  0  0  0  0  0  0  0  0  0  0
  1  2  2  0
  2  3  1  0
  3  4  1  0
  4  5  2  0
  5  6  1  0
  6  7  2  0
  7  8  1  0
  4  9  1  0
  8  9  2  0
  2 10  1  0
 11 10  1  6
 11 12  1  0
 13 12  1  6
 13 14  1  0
 14 15  1  0
 13 16  1  0
 15 16  1  0
 16 17  1  1
 11 18  1  0
 13 18  1  0
M  END
