pyridine_urea_10069
     RDKit          3D

 24 26  0  0  0  0  0  0  0  0999 V2000
    8.8340    1.1570   21.1350 O   0  0  0  0  0  0  0  0  0  0  0  0
    8.4420    0.0190   21.4410 C   0  0  0  0  0  0  0  0  0  0  0  0
    7.2610   -0.5420   21.0000 N   0  0  0  0  0  0  0  0  0  0  0  0
    6.4660    0.1010   20.0440 C   0  0  0  0  0  0  0  0  0  0  0  0
    5.2890    0.7980   20.2940 C   0  0  0  0  0  0  0  0  0  0  0  0
    4.6150    1.4080   19.2360 C   0  0  0  0  0  0  0  0  0  0  0  0
    5.1480    1.2960   17.9690 C   0  0  0  0  0  0  0  0  0  0  0  0
    6.2750    0.6220   17.7030 N   0  0  0  0  0  0  0  0  0  0  0  0
    6.8990    0.0450   18.7380 C   0  0  0  0  0  0  0  0  0  0  0  0
    9.1630   -0.8400   22.2500 N   0  0  0  0  0  0  0  0  0  0  0  0
   10.4660   -0.5090   22.6490 C   0  0  2  0  0  0  0  0  0  0  0  0
   11.4550   -1.4400   22.3500 C   0  0  0  0  0  0  0  0  0  0  0  0
   12.7600   -0.9770   22.5420 C   0  0  0  0  0  0  0  0  0  0  0  0
   12.8070    0.3380   22.9960 C   0  0  0  0  0  0  0  0  0  0  0  0
   11.9680    0.5220   24.0850 C   0  0  0  0  0  0  0  0  0  0  0  0
   10.5820    0.0160   23.9410 C   0  0  2  0  0  0  0  0  0  0  0  0
   10.0850   -0.6330   24.8520 O   0  0  0  0  0  0  0  0  0  0  0  0
    9.0610   -0.0460   25.5880 C   0  0  0  0  0  0  0  0  0  0  0  0
    7.8550    0.3500   25.0220 C   0  0  0  0  0  0  0  0  0  0  0  0
    6.8530    0.9350   25.7900 C   0  0  0  0  0  0  0  0  0  0  0  0
    7.0480    1.1320   27.1560 C   0  0  0  0  0  0  0  0  0  0  0  0
    6.0290    1.7090   27.8510 F   0  0  0  0  0  0  0  0  0  0  0  0
    8.2400    0.7520   27.7790 C   0  0  0  0  0  0  0  0  0  0  0  0
    9.2090    0.1760   26.9730 C   0  0  0  0  0  0  0  0  0  0  0  0
  1  2  2  0
  2  3  1  0
  3  4  1  0
  4  5  2  0
  5  6  1  0
  6  7  2  0
  7  8  1  0
  4  9  1  0
  8  9  2  0
  2 10  1  0
 11 10  1  1
 11 12  1  0
 12 13  1  0
 13 14  1  0
 14 15  1  0
 11 16  1  0
 15 16  1  0
 16 17  1  1
 17 18  1  0
 18 19  2  0
 19 20  1  0
 20 21  2  0
 21 22  1  0
 21 23  1  0
 18 24  1  0
 23 24  2  0
M  END
