pyridine_urea_11299
     RDKit          3D

 14 14  0  0  0  0  0  0  0  0999 V2000
   12.3930    0.9140   23.0200 C   0  0  0  0  0  0  0  0  0  0  0  0
   11.4350    0.1890   22.9090 C   0  0  0  0  0  0  0  0  0  0  0  0
   10.5250   -0.8830   22.3190 C   0  0  1  0  0  0  0  0  0  0  0  0
   10.8890   -2.1600   22.9550 C   0  0  0  0  0  0  0  0  0  0  0  0
    9.1160   -0.5120   22.5760 N   0  0  0  0  0  0  0  0  0  0  0  0
    8.4420    0.1630   21.5670 C   0  0  0  0  0  0  0  0  0  0  0  0
    8.8720    1.4890   21.1200 O   0  0  0  0  0  0  0  0  0  0  0  0
    7.3770   -0.5380   21.0920 N   0  0  0  0  0  0  0  0  0  0  0  0
    6.6600    0.0340   20.0780 C   0  0  0  0  0  0  0  0  0  0  0  0
    5.4280    0.8130   20.3900 C   0  0  0  0  0  0  0  0  0  0  0  0
    4.6080    1.4500   19.4930 C   0  0  0  0  0  0  0  0  0  0  0  0
    5.2220    1.1920   18.1320 C   0  0  0  0  0  0  0  0  0  0  0  0
    6.3050    0.5120   17.7530 N   0  0  0  0  0  0  0  0  0  0  0  0
    6.9740   -0.0400   18.7590 C   0  0  0  0  0  0  0  0  0  0  0  0
  1  2  1  0
  2  3  1  0
  3  4  1  1
  3  5  1  0
  5  6  1  0
  6  7  2  0
  6  8  1  0
  8  9  1  0
  9 10  2  0
 10 11  1  0
 11 12  2  0
 12 13  1  0
  9 14  1  0
 13 14  2  0
M  END
