pyridine_urea_12369
     RDKit          3D

 22 23  0  0  0  0  0  0  0  0999 V2000
    9.6140    0.2400   21.6330 C   0  0  0  0  0  0  0  0  0  0  0  0
   10.1850    0.1380   23.0000 C   0  0  0  0  0  0  0  0  0  0  0  0
    9.2150    1.2370   23.6170 C   0  0  0  0  0  0  0  0  0  0  0  0
    9.7280   -1.3040   23.2430 C   0  0  0  0  0  0  0  0  0  0  0  0
    8.5610   -1.4690   22.4700 N   0  0  0  0  0  0  0  0  0  0  0  0
    7.9690   -0.6540   21.5210 C   0  0  0  0  0  0  0  0  0  0  0  0
    8.4450    0.4450   21.2640 O   0  0  0  0  0  0  0  0  0  0  0  0
    6.8710   -1.1330   20.9350 N   0  0  0  0  0  0  0  0  0  0  0  0
    6.3090   -0.3090   20.0280 C   0  0  0  0  0  0  0  0  0  0  0  0
    5.0590    0.5430   20.2660 C   0  0  0  0  0  0  0  0  0  0  0  0
    4.4530    1.4590   19.2080 C   0  0  0  0  0  0  0  0  0  0  0  0
    5.2420    1.4210   17.9130 C   0  0  0  0  0  0  0  0  0  0  0  0
    6.3540    0.6320   17.7750 N   0  0  0  0  0  0  0  0  0  0  0  0
    6.8770   -0.2000   18.7740 C   0  0  0  0  0  0  0  0  0  0  0  0
   11.6430    0.2270   23.1430 C   0  0  0  0  0  0  0  0  0  0  0  0
   12.5700    1.4240   22.8990 C   0  0  0  0  0  0  0  0  0  0  0  0
   12.8280    0.2140   23.2660 C   0  0  0  0  0  0  0  0  0  0  0  0
   11.4830   -0.2930   23.2690 C   0  0  0  0  0  0  0  0  0  0  0  0
   10.5270    0.6080   22.9060 F   0  0  0  0  0  0  0  0  0  0  0  0
   11.2450   -1.5580   23.6140 C   0  0  0  0  0  0  0  0  0  0  0  0
   12.4370   -1.0200   23.5950 C   0  0  0  0  0  0  0  0  0  0  0  0
   12.8620   -2.6440   24.1170 Cl  0  0  0  0  0  0  0  0  0  0  0  0
  2  1  1  0
  2  3  1  0
  2  4  1  0
  4  5  1  0
  5  6  1  0
  6  7  2  0
  6  8  1  0
  8  9  1  0
  9 10  2  0
 10 11  1  0
 11 12  2  0
 12 13  1  0
  9 14  1  0
 13 14  2  0
  2 15  1  0
 15 16  2  0
 16 17  1  0
 17 18  2  0
 18 19  1  0
 18 20  1  0
 15 21  1  0
 20 21  2  0
 21 22  1  0
M  END
