pyridine_urea_1755
     RDKit          3D

 17 18  0  0  0  0  0  0  0  0999 V2000
    9.4890   -5.1920   26.7890 C   0  0  0  0  0  0  0  0  0  0  0  0
    9.8320   -4.2400   25.6710 C   0  0  0  0  0  0  0  0  0  0  0  0
   11.1930   -3.8600   25.4690 N   0  0  0  0  0  0  0  0  0  0  0  0
   11.1220   -3.0330   24.4150 C   0  0  0  0  0  0  0  0  0  0  0  0
    9.8370   -2.8420   23.9150 C   0  0  0  0  0  0  0  0  0  0  0  0
    9.6100   -2.0130   22.8180 C   0  0  0  0  0  0  0  0  0  0  0  0
    8.6640   -1.0510   22.8750 N   0  0  0  0  0  0  0  0  0  0  0  0
    8.4000   -0.3100   21.7600 C   0  0  0  0  0  0  0  0  0  0  0  0
    9.1190    0.6200   21.3970 O   0  0  0  0  0  0  0  0  0  0  0  0
    7.2320   -0.7330   21.1410 N   0  0  0  0  0  0  0  0  0  0  0  0
    6.5340   -0.0460   20.0580 C   0  0  0  0  0  0  0  0  0  0  0  0
    5.2590    0.7400   20.3660 C   0  0  0  0  0  0  0  0  0  0  0  0
    4.6290    1.3870   19.3210 C   0  0  0  0  0  0  0  0  0  0  0  0
    5.1960    1.2840   18.0440 C   0  0  0  0  0  0  0  0  0  0  0  0
    6.3240    0.5850   17.7580 N   0  0  0  0  0  0  0  0  0  0  0  0
    6.9740   -0.0680   18.7530 C   0  0  0  0  0  0  0  0  0  0  0  0
    9.0280   -3.6000   24.7090 N   0  0  0  0  0  0  0  0  0  0  0  0
  1  2  1  0
  2  3  2  0
  3  4  1  0
  4  5  2  0
  5  6  1  0
  6  7  1  0
  7  8  1  0
  8  9  2  0
  8 10  1  0
 10 11  1  0
 11 12  2  0
 12 13  1  0
 13 14  2  0
 14 15  1  0
 11 16  1  0
 15 16  2  0
  2 17  1  0
  5 17  1  0
M  END
