pyridine_urea_10730
     RDKit          3D

 20 22  0  0  0  0  0  0  0  0999 V2000
    8.5510    0.7680   21.1360 O   0  0  0  0  0  0  0  0  0  0  0  0
    8.0800   -0.2920   21.5260 C   0  0  0  0  0  0  0  0  0  0  0  0
    6.8440   -0.8240   20.9980 N   0  0  0  0  0  0  0  0  0  0  0  0
    6.2770   -0.0810   19.9810 C   0  0  0  0  0  0  0  0  0  0  0  0
    5.0940    0.6250   20.1950 C   0  0  0  0  0  0  0  0  0  0  0  0
    4.5660    1.3660   19.1370 C   0  0  0  0  0  0  0  0  0  0  0  0
    5.2370    1.3750   17.9120 C   0  0  0  0  0  0  0  0  0  0  0  0
    6.3740    0.6940   17.7020 N   0  0  0  0  0  0  0  0  0  0  0  0
    6.8700   -0.0200   18.7410 C   0  0  0  0  0  0  0  0  0  0  0  0
    8.6030   -1.1110   22.4810 N   0  0  0  0  0  0  0  0  0  0  0  0
    9.9570   -0.8100   22.8550 C   0  0  2  0  0  0  0  0  0  0  0  0
   10.8970   -1.8850   22.4480 C   0  0  0  0  0  0  0  0  0  0  0  0
   11.7150   -1.8190   23.3190 O   0  0  0  0  0  0  0  0  0  0  0  0
   12.1840   -0.5170   23.2850 C   0  0  0  0  0  0  0  0  0  0  0  0
   13.4340   -0.3690   22.7020 N   0  0  0  0  0  0  0  0  0  0  0  0
   13.5910    0.8730   22.8230 C   0  0  0  0  0  0  0  0  0  0  0  0
   12.5220    0.1750   23.2260 C   0  0  0  0  0  0  0  0  0  0  0  0
   12.2700    1.3650   23.5560 C   0  0  0  0  0  0  0  0  0  0  0  0
   11.2350    0.5550   23.9070 C   0  0  0  0  0  0  0  0  0  0  0  0
   10.3850   -0.4880   24.1250 C   0  0  0  0  0  0  0  0  0  0  0  0
  1  2  2  0
  2  3  1  0
  3  4  1  0
  4  5  2  0
  5  6  1  0
  6  7  2  0
  7  8  1  0
  4  9  1  0
  8  9  2  0
  2 10  1  0
 11 10  1  1
 11 12  1  0
 12 13  1  0
 13 14  1  0
 14 15  2  0
 15 16  1  0
 16 17  2  0
 17 18  1  0
 14 19  1  0
 18 19  2  0
 11 20  1  0
 19 20  1  0
M  END
