pyridine_urea_7661
     RDKit          3D

 17 18  0  0  0  0  0  0  0  0999 V2000
    8.8250    1.1260   21.1930 O   0  0  0  0  0  0  0  0  0  0  0  0
    8.2120    0.1080   21.5500 C   0  0  0  0  0  0  0  0  0  0  0  0
    8.5010   -0.6770   22.6230 N   0  0  0  0  0  0  0  0  0  0  0  0
    9.7680   -0.9660   23.1010 C   0  0  0  0  0  0  0  0  0  0  0  0
   10.2860   -0.0840   24.0280 C   0  0  0  0  0  0  0  0  0  0  0  0
   11.6220   -0.2540   24.2070 C   0  0  2  0  0  0  0  0  0  0  0  0
   12.4250    0.4470   23.3480 C   0  0  0  0  0  0  0  0  0  0  0  0
   13.1280   -0.4350   22.6120 C   0  0  0  0  0  0  0  0  0  0  0  0
   12.4660   -1.6220   22.7010 C   0  0  0  0  0  0  0  0  0  0  0  0
   11.8590   -1.4680   23.9960 O   0  0  0  0  0  0  0  0  0  0  0  0
    7.1120   -0.4370   20.9580 N   0  0  0  0  0  0  0  0  0  0  0  0
    6.4470    0.1620   19.9460 C   0  0  0  0  0  0  0  0  0  0  0  0
    5.2820    0.8910   20.2280 C   0  0  0  0  0  0  0  0  0  0  0  0
    4.6160    1.5190   19.1810 C   0  0  0  0  0  0  0  0  0  0  0  0
    5.1420    1.3890   17.9130 C   0  0  0  0  0  0  0  0  0  0  0  0
    6.2480    0.6870   17.6260 N   0  0  0  0  0  0  0  0  0  0  0  0
    6.8760    0.0890   18.6480 C   0  0  0  0  0  0  0  0  0  0  0  0
  1  2  2  0
  2  3  1  0
  3  4  1  0
  4  5  1  0
  6  5  1  6
  6  7  1  0
  7  8  1  0
  8  9  1  0
  6 10  1  0
  9 10  1  0
  2 11  1  0
 11 12  1  0
 12 13  2  0
 13 14  1  0
 14 15  2  0
 15 16  1  0
 12 17  1  0
 16 17  2  0
M  END
