pyridine_urea_1948
     RDKit          3D

 20 21  0  0  0  0  0  0  0  0999 V2000
   11.9710   -2.1410   21.5010 C   0  0  0  0  0  0  0  0  0  0  0  0
   11.3690   -1.1300   22.4710 C   0  0  1  0  0  0  0  0  0  0  0  0
   10.8050    0.0090   21.8570 O   0  0  0  0  0  0  0  0  0  0  0  0
   10.1640   -1.7590   23.1710 C   0  0  0  0  0  0  0  0  0  0  0  0
    8.8920   -1.6890   22.3160 N   0  0  0  0  0  0  0  0  0  0  0  0
    8.4180   -0.5600   21.6320 C   0  0  0  0  0  0  0  0  0  0  0  0
    9.0630    0.4770   21.5300 O   0  0  0  0  0  0  0  0  0  0  0  0
    7.1510   -0.7900   21.1190 N   0  0  0  0  0  0  0  0  0  0  0  0
    6.5080   -0.0840   20.0730 C   0  0  0  0  0  0  0  0  0  0  0  0
    5.3480    0.6360   20.3640 C   0  0  0  0  0  0  0  0  0  0  0  0
    4.7120    1.3380   19.3280 C   0  0  0  0  0  0  0  0  0  0  0  0
    5.2580    1.2940   18.0450 C   0  0  0  0  0  0  0  0  0  0  0  0
    6.3690    0.6020   17.7630 N   0  0  0  0  0  0  0  0  0  0  0  0
    6.9610   -0.0670   18.7710 C   0  0  0  0  0  0  0  0  0  0  0  0
   12.4600   -0.5650   23.4050 C   0  0  2  0  0  0  0  0  0  0  0  0
   12.0840   -0.7090   24.7020 C   0  0  0  0  0  0  0  0  0  0  0  0
   11.6910    0.4950   24.2870 C   0  0  0  0  0  0  0  0  0  0  0  0
   10.2750    0.8410   24.2480 C   0  0  0  0  0  0  0  0  0  0  0  0
   11.2280    1.6520   23.6600 C   0  0  0  0  0  0  0  0  0  0  0  0
   12.3980    0.8780   23.1760 C   0  0  0  0  0  0  0  0  0  0  0  0
  2  1  1  6
  2  3  1  0
  2  4  1  0
  4  5  1  0
  5  6  1  0
  6  7  2  0
  6  8  1  0
  8  9  1  0
  9 10  2  0
 10 11  1  0
 11 12  2  0
 12 13  1  0
  9 14  1  0
 13 14  2  0
  2 15  1  0
 15 16  1  1
 16 17  1  0
 17 18  2  0
 18 19  1  0
 15 20  1  0
 19 20  1  0
M  END
