pyridine_urea_8933
     RDKit          3D

 20 21  0  0  0  0  0  0  0  0999 V2000
    8.8950    1.0570   21.2420 O   0  0  0  0  0  0  0  0  0  0  0  0
    8.2970    0.0070   21.5390 C   0  0  0  0  0  0  0  0  0  0  0  0
    8.6840   -0.8290   22.5460 N   0  0  0  0  0  0  0  0  0  0  0  0
   10.0360   -0.8210   23.0180 C   0  0  0  0  0  0  0  0  0  0  0  0
   10.2130    0.2410   24.1090 C   0  0  0  0  0  0  0  0  0  0  0  0
   11.3940    0.9340   24.0340 C   0  0  0  0  0  0  0  0  0  0  0  0
   11.4010    2.1560   24.0580 O   0  0  0  0  0  0  0  0  0  0  0  0
   12.4650    0.0930   23.8880 N   0  0  0  0  0  0  0  0  0  0  0  0
   13.0660   -0.1000   22.6470 C   0  0  0  0  0  0  0  0  0  0  0  0
   12.8610   -1.4240   22.2430 C   0  0  0  0  0  0  0  0  0  0  0  0
   13.1740   -2.3190   23.2580 C   0  0  0  0  0  0  0  0  0  0  0  0
   12.3180   -2.1980   24.3430 C   0  0  0  0  0  0  0  0  0  0  0  0
   12.3530   -0.9130   24.8530 C   0  0  0  0  0  0  0  0  0  0  0  0
    7.1670   -0.4990   20.9670 N   0  0  0  0  0  0  0  0  0  0  0  0
    6.4840    0.1200   20.0040 C   0  0  0  0  0  0  0  0  0  0  0  0
    5.3100    0.8360   20.3260 C   0  0  0  0  0  0  0  0  0  0  0  0
    4.6420    1.5030   19.1670 C   0  0  0  0  0  0  0  0  0  0  0  0
    5.1600    1.4000   17.9160 C   0  0  0  0  0  0  0  0  0  0  0  0
    6.2760    0.7070   17.6060 N   0  0  0  0  0  0  0  0  0  0  0  0
    6.8590    0.1160   18.6750 C   0  0  0  0  0  0  0  0  0  0  0  0
  1  2  2  0
  2  3  1  0
  3  4  1  0
  4  5  1  0
  5  6  1  0
  6  7  2  0
  6  8  1  0
  8  9  1  0
  9 10  1  0
 10 11  1  0
 11 12  1  0
  8 13  1  0
 12 13  1  0
  2 14  1  0
 14 15  1  0
 15 16  2  0
 16 17  1  0
 17 18  2  0
 18 19  1  0
 15 20  1  0
 19 20  2  0
M  END
