pyridine_urea_12957
     RDKit          3D

 19 21  0  0  0  0  0  0  0  0999 V2000
    8.1190    1.4990   20.8620 O   0  0  0  0  0  0  0  0  0  0  0  0
    8.0950    0.3370   21.2530 C   0  0  0  0  0  0  0  0  0  0  0  0
    7.0510   -0.4880   21.0160 N   0  0  0  0  0  0  0  0  0  0  0  0
    6.4360    0.0800   19.8850 C   0  0  0  0  0  0  0  0  0  0  0  0
    5.1540    0.8750   20.1480 C   0  0  0  0  0  0  0  0  0  0  0  0
    4.5150    1.5040   19.0910 C   0  0  0  0  0  0  0  0  0  0  0  0
    5.0890    1.3760   17.8320 C   0  0  0  0  0  0  0  0  0  0  0  0
    6.2300    0.6420   17.6530 N   0  0  0  0  0  0  0  0  0  0  0  0
    6.9200   -0.0170   18.6580 C   0  0  0  0  0  0  0  0  0  0  0  0
    9.1020   -0.1920   21.8930 N   0  0  0  0  0  0  0  0  0  0  0  0
   10.2290   -0.4890   22.4460 C   0  0  0  0  0  0  0  0  0  0  0  0
   10.5300   -0.0430   23.5850 C   0  0  0  0  0  0  0  0  0  0  0  0
   11.7150   -0.5030   23.8190 N   0  0  0  0  0  0  0  0  0  0  0  0
   12.2840   -1.3280   22.7930 N   0  0  0  0  0  0  0  0  0  0  0  0
   13.2290   -1.2930   23.7550 C   0  0  0  0  0  0  0  0  0  0  0  0
   12.8840   -1.6990   25.0750 C   0  0  0  0  0  0  0  0  0  0  0  0
   13.2340   -2.9420   25.0780 C   0  0  0  0  0  0  0  0  0  0  0  0
   13.6240   -2.8040   23.7090 C   0  0  0  0  0  0  0  0  0  0  0  0
   11.1950   -1.2220   21.9670 C   0  0  0  0  0  0  0  0  0  0  0  0
  1  2  2  0
  2  3  1  0
  3  4  1  0
  4  5  2  0
  5  6  1  0
  6  7  2  0
  7  8  1  0
  4  9  1  0
  8  9  2  0
  2 10  1  0
 10 11  1  0
 11 12  1  0
 12 13  2  0
 13 14  1  0
 14 15  1  0
 15 16  1  0
 16 17  1  0
 15 18  1  0
 17 18  1  0
 11 19  2  0
 14 19  1  0
M  END
