pyridine_urea_7107
     RDKit          3D

 20 22  0  0  0  0  0  0  0  0999 V2000
    8.9990    1.2980   21.2880 O   0  0  0  0  0  0  0  0  0  0  0  0
    8.7800    0.0860   21.3770 C   0  0  0  0  0  0  0  0  0  0  0  0
    7.5340   -0.4780   21.0780 N   0  0  0  0  0  0  0  0  0  0  0  0
    6.6570    0.1060   20.1350 C   0  0  0  0  0  0  0  0  0  0  0  0
    5.4920    0.8160   20.4260 C   0  0  0  0  0  0  0  0  0  0  0  0
    4.7250    1.3590   19.3900 C   0  0  0  0  0  0  0  0  0  0  0  0
    5.1520    1.1720   18.0930 C   0  0  0  0  0  0  0  0  0  0  0  0
    6.2580    0.4900   17.7750 N   0  0  0  0  0  0  0  0  0  0  0  0
    6.9740   -0.0220   18.7910 C   0  0  0  0  0  0  0  0  0  0  0  0
    9.7590   -0.8670   21.7140 N   0  0  0  0  0  0  0  0  0  0  0  0
   10.4930   -0.9800   22.9550 C   0  0  2  0  0  0  0  0  0  0  0  0
    9.9580   -1.9290   23.6390 C   0  0  0  0  0  0  0  0  0  0  0  0
    9.6930   -0.8330   23.5910 O   0  0  0  0  0  0  0  0  0  0  0  0
   11.1310   -0.3730   23.1670 C   0  0  0  0  0  0  0  0  0  0  0  0
   11.2180   -1.4660   22.3660 C   0  0  0  0  0  0  0  0  0  0  0  0
   12.5570   -1.0500   22.0560 C   0  0  0  0  0  0  0  0  0  0  0  0
   12.5910    0.2150   22.9310 C   0  0  0  0  0  0  0  0  0  0  0  0
   13.7710    0.8320   22.8170 F   0  0  0  0  0  0  0  0  0  0  0  0
   11.6420    0.7980   23.7790 C   0  0  0  0  0  0  0  0  0  0  0  0
   10.4260    0.2250   23.9220 C   0  0  0  0  0  0  0  0  0  0  0  0
  1  2  2  0
  2  3  1  0
  3  4  1  0
  4  5  2  0
  5  6  1  0
  6  7  2  0
  7  8  1  0
  4  9  1  0
  8  9  2  0
  2 10  1  0
 11 10  1  6
 11 12  1  0
 12 13  1  0
 13 14  1  0
 14 15  1  0
 15 16  2  0
 16 17  1  0
 17 18  1  0
 17 19  2  0
 11 20  1  0
 14 20  2  0
 19 20  1  0
M  END
