pyridine_urea_11703
     RDKit          3D

 26 28  0  0  0  0  0  0  0  0999 V2000
    8.7500    1.0550   21.2640 O   0  0  0  0  0  0  0  0  0  0  0  0
    8.3340   -0.0980   21.2880 C   0  0  0  0  0  0  0  0  0  0  0  0
    7.0630   -0.4960   21.0220 N   0  0  0  0  0  0  0  0  0  0  0  0
    6.3890    0.1140   19.9810 C   0  0  0  0  0  0  0  0  0  0  0  0
    5.2080    0.8130   20.2320 C   0  0  0  0  0  0  0  0  0  0  0  0
    4.5570    1.4450   19.1760 C   0  0  0  0  0  0  0  0  0  0  0  0
    5.1160    1.3470   17.9210 C   0  0  0  0  0  0  0  0  0  0  0  0
    6.2410    0.6680   17.6620 N   0  0  0  0  0  0  0  0  0  0  0  0
    6.8490    0.0700   18.6930 C   0  0  0  0  0  0  0  0  0  0  0  0
    9.1410   -1.1380   21.5660 N   0  0  0  0  0  0  0  0  0  0  0  0
    9.9660   -0.9840   22.7300 C   0  0  2  0  0  0  0  0  0  0  0  0
   10.1870   -2.3200   23.4540 C   0  0  0  0  0  0  0  0  0  0  0  0
   11.2350   -2.1670   24.3290 C   0  0  0  0  0  0  0  0  0  0  0  0
   12.0440   -1.7000   23.4370 C   0  0  0  0  0  0  0  0  0  0  0  0
   12.0650   -2.4720   22.3260 C   0  0  0  0  0  0  0  0  0  0  0  0
   12.7780   -2.2560   21.2130 C   0  0  0  0  0  0  0  0  0  0  0  0
   13.5640   -1.1890   21.1120 C   0  0  0  0  0  0  0  0  0  0  0  0
   14.2650   -0.9440   20.0140 F   0  0  0  0  0  0  0  0  0  0  0  0
   13.6260   -0.2340   22.2970 C   0  0  0  0  0  0  0  0  0  0  0  0
   12.8560   -0.4650   23.5310 C   0  0  0  0  0  0  0  0  0  0  0  0
    9.3280   -0.1510   23.8250 C   0  0  0  0  0  0  0  0  0  0  0  0
    8.2840    0.6910   23.8330 C   0  0  0  0  0  0  0  0  0  0  0  0
    8.0010    1.2110   25.0890 C   0  0  0  0  0  0  0  0  0  0  0  0
    8.7820    0.8660   26.2480 C   0  0  0  0  0  0  0  0  0  0  0  0
    9.9310   -0.0110   26.3600 C   0  0  0  0  0  0  0  0  0  0  0  0
    9.8130   -0.2350   25.0520 C   0  0  0  0  0  0  0  0  0  0  0  0
  1  2  2  0
  2  3  1  0
  3  4  1  0
  4  5  2  0
  5  6  1  0
  6  7  2  0
  7  8  1  0
  4  9  1  0
  8  9  2  0
  2 10  1  0
 10 11  1  0
 11 12  1  1
 12 13  1  0
 13 14  1  0
 14 15  2  0
 15 16  1  0
 16 17  2  0
 17 18  1  0
 17 19  1  0
 14 20  1  0
 19 20  2  0
 11 21  1  0
 21 22  2  0
 22 23  1  0
 23 24  2  0
 24 25  1  0
 21 26  1  0
 25 26  2  0
M  END
