pyridine_urea_12979
     RDKit          3D

 19 20  0  0  0  0  0  0  0  0999 V2000
    8.7620    0.7930   21.1500 O   0  0  0  0  0  0  0  0  0  0  0  0
    8.2840   -0.2800   21.4630 C   0  0  0  0  0  0  0  0  0  0  0  0
    8.9700   -1.1330   22.2700 N   0  0  0  0  0  0  0  0  0  0  0  0
   10.2990   -0.7010   22.6360 C   0  0  0  0  0  0  0  0  0  0  0  0
   10.3020    0.7640   23.1360 C   0  0  0  0  0  0  0  0  0  0  0  0
    9.6210    1.6710   22.2000 O   0  0  0  0  0  0  0  0  0  0  0  0
    9.1490    2.9080   22.6760 C   0  0  0  0  0  0  0  0  0  0  0  0
    9.0900    2.9890   24.0660 C   0  0  0  0  0  0  0  0  0  0  0  0
    8.0570    3.8200   24.5210 C   0  0  0  0  0  0  0  0  0  0  0  0
    8.0170    4.8460   23.8560 O   0  0  0  0  0  0  0  0  0  0  0  0
    7.6390    4.6210   22.4930 C   0  0  0  0  0  0  0  0  0  0  0  0
    7.9710    3.3350   22.0730 C   0  0  0  0  0  0  0  0  0  0  0  0
    7.0610   -0.7180   21.0480 N   0  0  0  0  0  0  0  0  0  0  0  0
    6.3940   -0.0640   20.0330 C   0  0  0  0  0  0  0  0  0  0  0  0
    5.1950    0.6070   20.3140 C   0  0  0  0  0  0  0  0  0  0  0  0
    4.5370    1.2940   19.2810 C   0  0  0  0  0  0  0  0  0  0  0  0
    5.1650    1.2700   17.9250 C   0  0  0  0  0  0  0  0  0  0  0  0
    6.3020    0.6110   17.7000 N   0  0  0  0  0  0  0  0  0  0  0  0
    6.8770   -0.0290   18.7390 C   0  0  0  0  0  0  0  0  0  0  0  0
  1  2  2  0
  2  3  1  0
  3  4  1  0
  4  5  1  0
  5  6  1  0
  6  7  1  0
  7  8  1  0
  8  9  1  0
  9 10  1  0
 10 11  1  0
  7 12  1  0
 11 12  1  0
  2 13  1  0
 13 14  1  0
 14 15  2  0
 15 16  1  0
 16 17  2  0
 17 18  1  0
 14 19  1  0
 18 19  2  0
M  END
