pyridine_urea_4870
     RDKit          3D

 21 22  0  0  0  0  0  0  0  0999 V2000
   11.9800   -2.1830   21.3800 C   0  0  0  0  0  0  0  0  0  0  0  0
   13.1020   -1.8440   22.1460 O   0  0  0  0  0  0  0  0  0  0  0  0
   12.7790   -0.9830   23.1120 C   0  0  0  0  0  0  0  0  0  0  0  0
   12.1060   -1.7680   24.3530 C   0  0  0  0  0  0  0  0  0  0  0  0
   12.5930   -0.8120   24.9150 C   0  0  0  0  0  0  0  0  0  0  0  0
   11.7640    0.1570   24.1710 C   0  0  0  0  0  0  0  0  0  0  0  0
   10.4140   -0.1690   24.1930 C   0  0  1  0  0  0  0  0  0  0  0  0
    9.8950    0.9360   24.3070 O   0  0  0  0  0  0  0  0  0  0  0  0
   10.0740   -0.8390   23.0320 C   0  0  0  0  0  0  0  0  0  0  0  0
    8.7570   -0.7400   22.5840 N   0  0  0  0  0  0  0  0  0  0  0  0
    8.3030    0.0530   21.5550 C   0  0  0  0  0  0  0  0  0  0  0  0
    8.9310    1.2920   21.1740 O   0  0  0  0  0  0  0  0  0  0  0  0
    7.1810   -0.5120   20.9960 N   0  0  0  0  0  0  0  0  0  0  0  0
    6.4860    0.1030   19.9890 C   0  0  0  0  0  0  0  0  0  0  0  0
    5.3160    0.7960   20.3130 C   0  0  0  0  0  0  0  0  0  0  0  0
    4.6090    1.4430   19.2930 C   0  0  0  0  0  0  0  0  0  0  0  0
    5.1600    1.3510   17.9090 C   0  0  0  0  0  0  0  0  0  0  0  0
    6.2760    0.6710   17.6460 N   0  0  0  0  0  0  0  0  0  0  0  0
    6.9030    0.0710   18.6780 C   0  0  0  0  0  0  0  0  0  0  0  0
   12.2520    1.2280   23.7170 C   0  0  0  0  0  0  0  0  0  0  0  0
   13.1700    0.6120   23.0350 C   0  0  0  0  0  0  0  0  0  0  0  0
  1  2  1  0
  2  3  1  0
  3  4  2  0
  4  5  1  0
  5  6  2  0
  6  7  1  0
  7  8  1  6
  7  9  1  0
  9 10  1  0
 10 11  1  0
 11 12  2  0
 11 13  1  0
 13 14  1  0
 14 15  2  0
 15 16  1  0
 16 17  2  0
 17 18  1  0
 14 19  1  0
 18 19  2  0
  6 20  1  0
  3 21  1  0
 20 21  2  0
M  END
