pyridine_urea_2558
     RDKit          3D

 24 26  0  0  0  0  0  0  0  0999 V2000
    8.6410    0.7220   21.2560 O   0  0  0  0  0  0  0  0  0  0  0  0
    7.9550   -0.2790   21.4110 C   0  0  0  0  0  0  0  0  0  0  0  0
    6.6750   -0.4690   21.0350 N   0  0  0  0  0  0  0  0  0  0  0  0
    6.1720    0.1710   19.9330 C   0  0  0  0  0  0  0  0  0  0  0  0
    4.9930    0.8900   20.0630 C   0  0  0  0  0  0  0  0  0  0  0  0
    4.4830    1.5570   18.9620 C   0  0  0  0  0  0  0  0  0  0  0  0
    5.1770    1.4740   17.7740 C   0  0  0  0  0  0  0  0  0  0  0  0
    6.3140    0.7730   17.6330 N   0  0  0  0  0  0  0  0  0  0  0  0
    6.7870    0.1370   18.7080 C   0  0  0  0  0  0  0  0  0  0  0  0
    8.3880   -1.4000   21.9990 N   0  0  0  0  0  0  0  0  0  0  0  0
    9.6250   -1.2680   22.6970 C   0  0  0  0  0  0  0  0  0  0  0  0
    9.6320   -1.3750   24.1500 C   0  0  0  0  0  0  0  0  0  0  0  0
   10.8540   -1.2470   24.7440 C   0  0  0  0  0  0  0  0  0  0  0  0
   11.9960   -1.0200   24.0400 C   0  0  0  0  0  0  0  0  0  0  0  0
   13.1420   -0.9120   24.7050 F   0  0  0  0  0  0  0  0  0  0  0  0
   12.0060   -0.9200   22.6950 C   0  0  0  0  0  0  0  0  0  0  0  0
   13.1760   -0.7610   22.2460 N   0  0  0  0  0  0  0  0  0  0  0  0
   13.5430   -1.6760   23.1110 C   0  0  0  0  0  0  0  0  0  0  0  0
   13.9340   -1.5840   24.2480 O   0  0  0  0  0  0  0  0  0  0  0  0
   13.3510   -2.9220   22.6770 C   0  0  0  0  0  0  0  0  0  0  0  0
   13.1170   -2.7680   21.3030 C   0  0  0  0  0  0  0  0  0  0  0  0
   13.5140   -1.4460   21.0920 C   0  0  0  0  0  0  0  0  0  0  0  0
   14.0790   -1.0990   20.0780 O   0  0  0  0  0  0  0  0  0  0  0  0
   10.8570   -1.0380   21.9580 C   0  0  0  0  0  0  0  0  0  0  0  0
  1  2  2  0
  2  3  1  0
  3  4  1  0
  4  5  2  0
  5  6  1  0
  6  7  2  0
  7  8  1  0
  4  9  1  0
  8  9  2  0
  2 10  1  0
 10 11  1  0
 11 12  2  0
 12 13  1  0
 13 14  2  0
 14 15  1  0
 14 16  1  0
 16 17  1  0
 17 18  1  0
 18 19  2  0
 18 20  1  0
 20 21  1  0
 17 22  1  0
 21 22  1  0
 22 23  2  0
 11 24  1  0
 16 24  2  0
M  END
