pyridine_urea_9954
     RDKit          3D

 24 25  0  0  0  0  0  0  0  0999 V2000
    8.7070    1.0580   21.2700 O   0  0  0  0  0  0  0  0  0  0  0  0
    8.2660   -0.0830   21.2390 C   0  0  0  0  0  0  0  0  0  0  0  0
    6.9570   -0.4150   21.0140 N   0  0  0  0  0  0  0  0  0  0  0  0
    6.2540    0.2090   20.0030 C   0  0  0  0  0  0  0  0  0  0  0  0
    5.0610    0.8960   20.1480 C   0  0  0  0  0  0  0  0  0  0  0  0
    4.4870    1.4960   19.0340 C   0  0  0  0  0  0  0  0  0  0  0  0
    5.1400    1.3780   17.8240 C   0  0  0  0  0  0  0  0  0  0  0  0
    6.2900    0.7070   17.6610 N   0  0  0  0  0  0  0  0  0  0  0  0
    6.8140    0.1410   18.7460 C   0  0  0  0  0  0  0  0  0  0  0  0
    9.0140   -1.1970   21.4030 N   0  0  0  0  0  0  0  0  0  0  0  0
    9.9380   -1.3560   22.3990 C   0  0  0  0  0  0  0  0  0  0  0  0
   11.2460   -1.6710   22.1680 C   0  0  0  0  0  0  0  0  0  0  0  0
   12.0130   -1.7840   23.2960 C   0  0  0  0  0  0  0  0  0  0  0  0
   13.5930   -2.1330   23.0630 S   0  0  0  0  0  0  0  0  0  0  0  0
   13.6430   -3.2790   22.2520 O   0  0  0  0  0  0  0  0  0  0  0  0
   14.0350   -2.0430   24.4340 O   0  0  0  0  0  0  0  0  0  0  0  0
   13.3640   -0.6520   22.1700 C   0  0  0  0  0  0  0  0  0  0  0  0
   12.0850   -0.3180   22.3200 F   0  0  0  0  0  0  0  0  0  0  0  0
   13.9470    0.4890   22.5770 F   0  0  0  0  0  0  0  0  0  0  0  0
   13.6250   -0.8850   20.8630 F   0  0  0  0  0  0  0  0  0  0  0  0
   11.6300   -1.6350   24.5220 C   0  0  0  0  0  0  0  0  0  0  0  0
   10.2780   -1.3260   24.7000 C   0  0  0  0  0  0  0  0  0  0  0  0
    9.4170   -1.1700   23.6560 C   0  0  0  0  0  0  0  0  0  0  0  0
    8.2540   -0.8860   23.8550 O   0  0  0  0  0  0  0  0  0  0  0  0
  1  2  2  0
  2  3  1  0
  3  4  1  0
  4  5  2  0
  5  6  1  0
  6  7  2  0
  7  8  1  0
  4  9  1  0
  8  9  2  0
  2 10  1  0
 10 11  1  0
 11 12  2  0
 12 13  1  0
 14 13  1  0
 14 15  2  0
 14 16  2  0
 14 17  1  0
 17 18  1  0
 17 19  1  0
 17 20  1  0
 13 21  2  0
 21 22  1  0
 11 23  1  0
 22 23  2  0
 23 24  1  0
M  END
