pyridine_urea_12868
     RDKit          3D

 21 22  0  0  0  0  0  0  0  0999 V2000
    9.9930    0.5780   23.0000 C   0  0  0  0  0  0  0  0  0  0  0  0
   10.9320    1.7710   22.9420 C   0  0  0  0  0  0  0  0  0  0  0  0
   11.8470    0.6770   22.8480 C   0  0  0  0  0  0  0  0  0  0  0  0
   11.8790   -0.6270   22.8010 C   0  0  0  0  0  0  0  0  0  0  0  0
   11.0730   -1.7490   22.8040 C   0  0  0  0  0  0  0  0  0  0  0  0
    9.8150   -1.3850   23.2980 C   0  0  0  0  0  0  0  0  0  0  0  0
    8.8180   -1.5180   22.2020 N   0  0  0  0  0  0  0  0  0  0  0  0
    8.2950   -0.4520   21.4700 C   0  0  0  0  0  0  0  0  0  0  0  0
    8.8570    0.6140   21.2760 O   0  0  0  0  0  0  0  0  0  0  0  0
    7.0610   -0.7510   20.9840 N   0  0  0  0  0  0  0  0  0  0  0  0
    6.3690   -0.0540   20.0480 C   0  0  0  0  0  0  0  0  0  0  0  0
    5.1910    0.6380   20.2500 C   0  0  0  0  0  0  0  0  0  0  0  0
    4.5680    1.3330   19.2140 C   0  0  0  0  0  0  0  0  0  0  0  0
    5.1890    1.3040   17.9590 C   0  0  0  0  0  0  0  0  0  0  0  0
    6.3320    0.6360   17.7320 N   0  0  0  0  0  0  0  0  0  0  0  0
    6.8920   -0.0240   18.7670 C   0  0  0  0  0  0  0  0  0  0  0  0
   13.2890   -0.5040   22.7210 C   0  0  0  0  0  0  0  0  0  0  0  0
   13.5100    0.9670   22.7400 C   0  0  0  0  0  0  0  0  0  0  0  0
   12.4780    2.0480   22.8320 C   0  0  0  0  0  0  0  0  0  0  0  0
   12.9230    3.4990   22.8130 C   0  0  0  0  0  0  0  0  0  0  0  0
   12.4730    4.4090   21.9250 N   0  0  0  0  0  0  0  0  0  0  0  0
  1  2  1  0
  2  3  2  0
  3  4  1  0
  4  5  1  0
  5  6  1  0
  6  7  1  0
  7  8  1  0
  8  9  2  0
  8 10  1  0
 10 11  1  0
 11 12  2  0
 12 13  1  0
 13 14  2  0
 14 15  1  0
 11 16  1  0
 15 16  2  0
  4 17  2  0
 17 18  1  0
  2 19  1  0
 18 19  2  0
 19 20  1  0
 20 21  3  0
M  END
