pyridine_urea_1433
     RDKit          3D

 20 21  0  0  0  0  0  0  0  0999 V2000
   13.1020   -1.8250   21.6380 C   0  0  0  0  0  0  0  0  0  0  0  0
   12.7460   -1.4460   23.0810 C   0  0  0  0  0  0  0  0  0  0  0  0
   11.6640   -1.3190   22.1010 N   0  0  0  0  0  0  0  0  0  0  0  0
   10.3490   -0.9830   21.7490 C   0  0  0  0  0  0  0  0  0  0  0  0
   10.0470   -0.6080   23.0250 C   0  0  0  0  0  0  0  0  0  0  0  0
    8.7590   -0.2100   22.9180 N   0  0  0  0  0  0  0  0  0  0  0  0
    8.3030    0.3730   21.7300 C   0  0  0  0  0  0  0  0  0  0  0  0
    8.8330    1.3610   21.2070 O   0  0  0  0  0  0  0  0  0  0  0  0
    7.2060   -0.2890   21.2440 N   0  0  0  0  0  0  0  0  0  0  0  0
    6.5900    0.2030   20.0520 C   0  0  0  0  0  0  0  0  0  0  0  0
    5.4910    1.0190   20.2720 C   0  0  0  0  0  0  0  0  0  0  0  0
    4.7990    1.5990   19.2210 C   0  0  0  0  0  0  0  0  0  0  0  0
    5.1420    1.4120   17.9070 C   0  0  0  0  0  0  0  0  0  0  0  0
    6.2690    0.5560   17.6720 N   0  0  0  0  0  0  0  0  0  0  0  0
    6.9590   -0.0240   18.7430 C   0  0  0  0  0  0  0  0  0  0  0  0
   10.7360   -0.5890   24.1880 C   0  0  0  0  0  0  0  0  0  0  0  0
   12.1140   -1.0370   24.2000 C   0  0  0  0  0  0  0  0  0  0  0  0
   12.9290   -1.1330   25.2390 C   0  0  0  0  0  0  0  0  0  0  0  0
   13.6270   -2.2760   25.4240 N   0  0  0  0  0  0  0  0  0  0  0  0
   13.0550   -0.2410   26.0060 O   0  0  0  0  0  0  0  0  0  0  0  0
  1  2  1  0
  2  3  2  0
  3  4  1  0
  4  5  2  0
  5  6  1  0
  6  7  1  0
  7  8  2  0
  7  9  1  0
  9 10  1  0
 10 11  2  0
 11 12  1  0
 12 13  2  0
 13 14  1  0
 10 15  1  0
 14 15  2  0
  5 16  1  0
  2 17  1  0
 16 17  2  0
 17 18  1  0
 18 19  1  0
 18 20  2  0
M  END
