pyridine_urea_2889
     RDKit          3D

 22 24  0  0  0  0  0  0  0  0999 V2000
    8.0770    0.5860   21.0290 O   0  0  0  0  0  0  0  0  0  0  0  0
    7.5860   -0.4230   21.5170 C   0  0  0  0  0  0  0  0  0  0  0  0
    6.4330   -0.9250   21.0290 N   0  0  0  0  0  0  0  0  0  0  0  0
    5.9870   -0.1160   19.9370 C   0  0  0  0  0  0  0  0  0  0  0  0
    4.7110    0.7420   20.1260 C   0  0  0  0  0  0  0  0  0  0  0  0
    4.3190    1.5210   19.0570 C   0  0  0  0  0  0  0  0  0  0  0  0
    5.1870    1.4520   17.8000 C   0  0  0  0  0  0  0  0  0  0  0  0
    6.2920    0.6810   17.6830 N   0  0  0  0  0  0  0  0  0  0  0  0
    6.6670   -0.0740   18.7370 C   0  0  0  0  0  0  0  0  0  0  0  0
    8.1160   -1.1540   22.5230 N   0  0  0  0  0  0  0  0  0  0  0  0
    9.4870   -1.0160   22.2580 C   0  0  2  0  0  0  0  0  0  0  0  0
   10.3360   -2.2560   22.3720 C   0  0  0  0  0  0  0  0  0  0  0  0
   11.7850   -1.8840   22.0130 C   0  0  0  0  0  0  0  0  0  0  0  0
   12.2070   -0.9440   22.6430 O   0  0  0  0  0  0  0  0  0  0  0  0
   11.4400    0.2470   22.6730 C   0  0  0  0  0  0  0  0  0  0  0  0
   10.0390    0.1740   22.5060 C   0  0  0  0  0  0  0  0  0  0  0  0
    9.2770    1.5010   22.5790 C   0  0  0  0  0  0  0  0  0  0  0  0
    9.9960    2.6900   22.7640 C   0  0  0  0  0  0  0  0  0  0  0  0
   11.3910    2.6400   22.8710 C   0  0  0  0  0  0  0  0  0  0  0  0
   12.2680    4.1080   23.0380 Cl  0  0  0  0  0  0  0  0  0  0  0  0
   12.0110    1.3820   22.8210 C   0  0  0  0  0  0  0  0  0  0  0  0
   13.5860    1.0190   22.8960 Cl  0  0  0  0  0  0  0  0  0  0  0  0
  1  2  2  0
  2  3  1  0
  3  4  1  0
  4  5  2  0
  5  6  1  0
  6  7  2  0
  7  8  1  0
  4  9  1  0
  8  9  2  0
  2 10  1  0
 11 10  1  1
 11 12  1  0
 12 13  1  0
 13 14  1  0
 14 15  1  0
 11 16  1  0
 15 16  2  0
 16 17  1  0
 17 18  2  0
 18 19  1  0
 19 20  1  0
 15 21  1  0
 19 21  2  0
 21 22  1  0
M  END
