pyridine_urea_4751
     RDKit          3D

 22 23  0  0  0  0  0  0  0  0999 V2000
   10.0870    0.6760   23.2400 C   0  0  0  0  0  0  0  0  0  0  0  0
   10.1730   -0.8370   22.8570 C   0  0  1  0  0  0  0  0  0  0  0  0
    9.1660   -1.1280   21.8350 N   0  0  0  0  0  0  0  0  0  0  0  0
    8.3000   -0.1710   21.3210 C   0  0  0  0  0  0  0  0  0  0  0  0
    8.6670    1.1950   21.0490 O   0  0  0  0  0  0  0  0  0  0  0  0
    7.0680   -0.7510   21.1300 N   0  0  0  0  0  0  0  0  0  0  0  0
    6.4310   -0.0380   20.1370 C   0  0  0  0  0  0  0  0  0  0  0  0
    5.2690    0.7300   20.2700 C   0  0  0  0  0  0  0  0  0  0  0  0
    4.6860    1.4190   19.2070 C   0  0  0  0  0  0  0  0  0  0  0  0
    5.2890    1.3370   17.9720 C   0  0  0  0  0  0  0  0  0  0  0  0
    6.4040    0.6160   17.7810 N   0  0  0  0  0  0  0  0  0  0  0  0
    6.9370   -0.0430   18.8400 C   0  0  0  0  0  0  0  0  0  0  0  0
   11.5500   -1.2070   22.2930 C   0  0  0  0  0  0  0  0  0  0  0  0
   11.9070   -2.0410   21.4160 C   0  0  0  0  0  0  0  0  0  0  0  0
   12.8980   -1.1870   22.0860 C   0  0  0  0  0  0  0  0  0  0  0  0
   11.6830   -0.5750   22.9860 C   0  0  0  0  0  0  0  0  0  0  0  0
   11.1590    0.1210   23.8360 O   0  0  0  0  0  0  0  0  0  0  0  0
   11.2200   -0.6140   25.0690 C   0  0  0  0  0  0  0  0  0  0  0  0
   10.1020   -0.3730   25.7710 F   0  0  0  0  0  0  0  0  0  0  0  0
   11.2390   -1.9320   24.8150 F   0  0  0  0  0  0  0  0  0  0  0  0
   12.8450    0.2330   23.5240 C   0  0  0  0  0  0  0  0  0  0  0  0
   12.9450   -0.6270   22.6360 C   0  0  0  0  0  0  0  0  0  0  0  0
  2  1  1  6
  2  3  1  0
  3  4  1  0
  4  5  2  0
  4  6  1  0
  6  7  1  0
  7  8  2  0
  8  9  1  0
  9 10  2  0
 10 11  1  0
  7 12  1  0
 11 12  2  0
  2 13  1  0
 13 14  2  0
 14 15  1  0
 15 16  2  0
 16 17  1  0
 17 18  1  0
 18 19  1  0
 18 20  1  0
 16 21  1  0
 13 22  1  0
 21 22  2  0
M  END
