pyridine_urea_14497
     RDKit          3D

 21 22  0  0  0  0  0  0  0  0999 V2000
   13.6390   -2.3090   23.7150 C   0  0  0  0  0  0  0  0  0  0  0  0
   13.2370   -1.2650   22.7120 C   0  0  0  0  0  0  0  0  0  0  0  0
   13.5190    0.0860   22.7450 C   0  0  0  0  0  0  0  0  0  0  0  0
   13.2160   -1.8370   21.2860 C   0  0  0  0  0  0  0  0  0  0  0  0
   11.8630   -1.0190   23.1630 C   0  0  0  0  0  0  0  0  0  0  0  0
   11.7740   -0.4270   24.5250 C   0  0  0  0  0  0  0  0  0  0  0  0
   10.3820   -0.1830   24.9660 C   0  0  0  0  0  0  0  0  0  0  0  0
    9.6650    0.3130   26.0660 N   0  0  0  0  0  0  0  0  0  0  0  0
    9.2450   -0.5180   24.0600 C   0  0  0  0  0  0  0  0  0  0  0  0
    9.5240   -1.0630   22.8230 C   0  0  0  0  0  0  0  0  0  0  0  0
    8.4930   -1.3460   22.0400 N   0  0  0  0  0  0  0  0  0  0  0  0
    7.8360   -0.3790   21.3190 C   0  0  0  0  0  0  0  0  0  0  0  0
    8.4310    0.6660   21.0530 O   0  0  0  0  0  0  0  0  0  0  0  0
    6.5850   -0.6880   20.9860 N   0  0  0  0  0  0  0  0  0  0  0  0
    6.1430    0.0070   19.9410 C   0  0  0  0  0  0  0  0  0  0  0  0
    4.9740    0.7360   20.0950 C   0  0  0  0  0  0  0  0  0  0  0  0
    4.5340    1.4580   19.0150 C   0  0  0  0  0  0  0  0  0  0  0  0
    5.2420    1.4370   17.8390 C   0  0  0  0  0  0  0  0  0  0  0  0
    6.3670    0.7400   17.6570 N   0  0  0  0  0  0  0  0  0  0  0  0
    6.8000    0.0330   18.7220 C   0  0  0  0  0  0  0  0  0  0  0  0
   10.7970   -1.3090   22.3850 C   0  0  0  0  0  0  0  0  0  0  0  0
  2  1  1  0
  2  3  1  0
  2  4  1  0
  2  5  1  0
  5  6  2  0
  6  7  1  0
  7  8  1  0
  7  9  2  0
  9 10  1  0
 10 11  1  0
 11 12  1  0
 12 13  2  0
 12 14  1  0
 14 15  1  0
 15 16  2  0
 16 17  1  0
 17 18  2  0
 18 19  1  0
 15 20  1  0
 19 20  2  0
  5 21  1  0
 10 21  2  0
M  END
