pyridine_urea_14521
     RDKit          3D

 21 22  0  0  0  0  0  0  0  0999 V2000
   12.3980   -1.5820   22.9590 C   0  0  0  0  0  0  0  0  0  0  0  0
   12.5100   -0.0840   23.0100 C   0  0  0  0  0  0  0  0  0  0  0  0
   13.4080    0.7820   22.7020 C   0  0  0  0  0  0  0  0  0  0  0  0
   12.8170    2.0910   23.0000 C   0  0  0  0  0  0  0  0  0  0  0  0
   11.5700    2.5130   23.5280 N   0  0  0  0  0  0  0  0  0  0  0  0
   10.7390    1.4130   23.8240 C   0  0  0  0  0  0  0  0  0  0  0  0
   10.2790    0.0210   23.9530 C   0  0  0  0  0  0  0  0  0  0  0  0
   11.0280   -0.6950   25.0760 C   0  0  0  0  0  0  0  0  0  0  0  0
    9.5410   -0.2810   25.2380 C   0  0  0  0  0  0  0  0  0  0  0  0
    9.9830   -1.1120   22.9730 C   0  0  0  0  0  0  0  0  0  0  0  0
    8.6770   -1.0830   22.5720 N   0  0  0  0  0  0  0  0  0  0  0  0
    8.1100   -0.3010   21.5500 C   0  0  0  0  0  0  0  0  0  0  0  0
    8.6710    0.7400   21.2220 O   0  0  0  0  0  0  0  0  0  0  0  0
    6.9580   -0.7790   21.0370 N   0  0  0  0  0  0  0  0  0  0  0  0
    6.4000   -0.0830   20.0230 C   0  0  0  0  0  0  0  0  0  0  0  0
    5.2320    0.6400   20.2740 C   0  0  0  0  0  0  0  0  0  0  0  0
    4.6770    1.3500   19.2260 C   0  0  0  0  0  0  0  0  0  0  0  0
    5.2690    1.3350   17.9860 C   0  0  0  0  0  0  0  0  0  0  0  0
    6.3850    0.6520   17.7140 N   0  0  0  0  0  0  0  0  0  0  0  0
    6.9260   -0.0470   18.7400 C   0  0  0  0  0  0  0  0  0  0  0  0
   11.8570    1.0140   23.3420 C   0  0  0  0  0  0  0  0  0  0  0  0
  1  2  1  0
  2  3  2  0
  3  4  1  0
  4  5  2  0
  5  6  1  0
  6  7  1  0
  7  8  1  0
  7  9  1  0
  7 10  1  0
 10 11  1  0
 11 12  1  0
 12 13  2  0
 12 14  1  0
 14 15  1  0
 15 16  2  0
 16 17  1  0
 17 18  2  0
 18 19  1  0
 15 20  1  0
 19 20  2  0
  2 21  1  0
  6 21  2  0
M  END
