pyridine_urea_13786
     RDKit          3D

 25 28  0  0  0  0  0  0  0  0999 V2000
    8.4230    0.0070   20.8760 O   0  0  0  0  0  0  0  0  0  0  0  0
    7.4650   -0.4170   21.4890 C   0  0  0  0  0  0  0  0  0  0  0  0
    7.4930   -0.4360   22.8290 N   0  0  0  0  0  0  0  0  0  0  0  0
    8.7620    0.0800   23.0640 C   0  0  0  0  0  0  0  0  0  0  0  0
    9.0280    1.3880   23.8370 C   0  0  0  0  0  0  0  0  0  0  0  0
   10.4350    1.7980   23.9700 C   0  0  0  0  0  0  0  0  0  0  0  0
   11.2950    0.9690   23.4090 C   0  0  0  0  0  0  0  0  0  0  0  0
   12.4030    0.7370   23.2230 N   0  0  0  0  0  0  0  0  0  0  0  0
   13.4710    1.3560   22.8010 C   0  0  0  0  0  0  0  0  0  0  0  0
   14.0090    0.0710   22.9720 N   0  0  0  0  0  0  0  0  0  0  0  0
   13.3220   -1.1230   23.4540 C   0  0  0  0  0  0  0  0  0  0  0  0
   13.5500   -2.4300   23.7250 C   0  0  0  0  0  0  0  0  0  0  0  0
   12.1750   -2.9240   24.1990 C   0  0  0  0  0  0  0  0  0  0  0  0
   11.0130   -2.2440   24.3150 C   0  0  0  0  0  0  0  0  0  0  0  0
   10.9380   -0.9720   24.0270 C   0  0  0  0  0  0  0  0  0  0  0  0
   12.1330   -0.5320   23.6130 C   0  0  0  0  0  0  0  0  0  0  0  0
   11.0740   -0.2470   22.6760 C   0  0  0  0  0  0  0  0  0  0  0  0
    9.8060   -0.7890   22.4410 C   0  0  0  0  0  0  0  0  0  0  0  0
    6.3260   -0.8360   20.9460 N   0  0  0  0  0  0  0  0  0  0  0  0
    5.8980   -0.0460   19.8650 C   0  0  0  0  0  0  0  0  0  0  0  0
    4.7460    0.7280   19.9620 C   0  0  0  0  0  0  0  0  0  0  0  0
    4.3690    1.5140   18.8860 C   0  0  0  0  0  0  0  0  0  0  0  0
    5.1510    1.4990   17.7460 C   0  0  0  0  0  0  0  0  0  0  0  0
    6.2620    0.7550   17.6260 N   0  0  0  0  0  0  0  0  0  0  0  0
    6.6130    0.0040   18.6830 C   0  0  0  0  0  0  0  0  0  0  0  0
  1  2  2  0
  2  3  1  0
  3  4  1  0
  4  5  2  0
  5  6  1  0
  6  7  2  0
  7  8  1  0
  8  9  1  0
  9 10  2  0
 10 11  1  0
 11 12  1  0
 12 13  2  0
 13 14  1  0
 14 15  2  0
  8 16  1  0
 11 16  2  0
 15 16  1  0
  7 17  1  0
  4 18  1  0
 17 18  2  0
  2 19  1  0
 19 20  1  0
 20 21  2  0
 21 22  1  0
 22 23  2  0
 23 24  1  0
 20 25  1  0
 24 25  2  0
M  END
