pyridine_urea_13658
     RDKit          3D

 26 28  0  0  0  0  0  0  0  0999 V2000
    8.8890    1.4560   21.1630 O   0  0  0  0  0  0  0  0  0  0  0  0
    8.5240    0.3480   21.5600 C   0  0  0  0  0  0  0  0  0  0  0  0
    9.1790   -0.4530   22.4520 N   0  0  0  0  0  0  0  0  0  0  0  0
   10.5390   -0.3130   22.5790 C   0  0  0  0  0  0  0  0  0  0  0  0
   11.5870   -1.4090   22.3760 C   0  0  0  0  0  0  0  0  0  0  0  0
   13.0050   -0.9040   22.5670 C   0  0  0  0  0  0  0  0  0  0  0  0
   13.1830    0.5390   22.9080 C   0  0  0  0  0  0  0  0  0  0  0  0
   12.1940    1.4160   23.0670 N   0  0  0  0  0  0  0  0  0  0  0  0
   10.9390    0.9710   22.9050 C   0  0  0  0  0  0  0  0  0  0  0  0
    7.3880   -0.2530   21.1720 N   0  0  0  0  0  0  0  0  0  0  0  0
    6.5960    0.1740   20.0660 C   0  0  1  0  0  0  0  0  0  0  0  0
    6.1110    1.4670   20.1370 C   0  0  0  0  0  0  0  0  0  0  0  0
    5.1690    1.6960   19.1250 C   0  0  0  0  0  0  0  0  0  0  0  0
    5.1310    0.7120   18.1240 C   0  0  0  0  0  0  0  0  0  0  0  0
    5.9140   -0.3580   18.4900 N   0  0  0  0  0  0  0  0  0  0  0  0
    5.3190   -1.3910   19.6530 S   0  0  0  0  0  0  0  0  0  0  0  0
    6.3380   -1.7270   20.6330 O   0  0  0  0  0  0  0  0  0  0  0  0
    4.6330   -2.4810   19.0270 O   0  0  0  0  0  0  0  0  0  0  0  0
    4.2200   -0.1330   20.4940 C   0  0  0  0  0  0  0  0  0  0  0  0
    4.3400   -0.3500   21.8950 C   0  0  0  0  0  0  0  0  0  0  0  0
    3.5060    0.5840   22.7290 C   0  0  0  0  0  0  0  0  0  0  0  0
    2.7130    1.5420   22.1830 C   0  0  0  0  0  0  0  0  0  0  0  0
    1.6960    2.6640   23.3260 Br  0  0  0  0  0  0  0  0  0  0  0  0
    2.6300    1.7220   20.8040 C   0  0  0  0  0  0  0  0  0  0  0  0
    3.3190    0.9710   19.8140 C   0  0  0  0  0  0  0  0  0  0  0  0
    7.2680   -0.0010   18.7060 C   0  0  0  0  0  0  0  0  0  0  0  0
  1  2  2  0
  2  3  1  0
  3  4  1  0
  4  5  2  0
  5  6  1  0
  6  7  2  0
  7  8  1  0
  4  9  1  0
  8  9  2  0
  2 10  1  0
 11 10  1  1
 11 12  1  0
 12 13  1  0
 13 14  1  0
 14 15  1  0
 15 16  1  0
 16 17  2  0
 16 18  2  0
 16 19  1  0
 19 20  2  0
 20 21  1  0
 21 22  2  0
 22 23  1  0
 22 24  1  0
 19 25  1  0
 24 25  2  0
 11 26  1  0
 15 26  1  0
M  END
