pyridine_urea_2113
     RDKit          3D

 19 21  0  0  0  0  0  0  0  0999 V2000
    9.5860   -0.9300   21.1430 O   0  0  0  0  0  0  0  0  0  0  0  0
    8.5060   -0.5140   21.4460 C   0  0  0  0  0  0  0  0  0  0  0  0
    7.2670   -0.8460   20.9450 N   0  0  0  0  0  0  0  0  0  0  0  0
    6.4880   -0.0920   20.0520 C   0  0  0  0  0  0  0  0  0  0  0  0
    5.1910    0.6500   20.4210 C   0  0  0  0  0  0  0  0  0  0  0  0
    4.5450    1.4060   19.2590 C   0  0  0  0  0  0  0  0  0  0  0  0
    5.2270    1.3420   17.9290 C   0  0  0  0  0  0  0  0  0  0  0  0
    6.3620    0.6530   17.7250 N   0  0  0  0  0  0  0  0  0  0  0  0
    6.9360   -0.0170   18.7450 C   0  0  0  0  0  0  0  0  0  0  0  0
    8.4130    0.4200   22.3980 N   0  0  0  0  0  0  0  0  0  0  0  0
    8.9570    0.2170   23.6910 C   0  0  2  0  0  0  0  0  0  0  0  0
    9.9080    1.0480   23.9830 C   0  0  0  0  0  0  0  0  0  0  0  0
   10.5040   -0.2000   24.0780 C   0  0  2  0  0  0  0  0  0  0  0  0
   11.4870   -0.5450   23.1850 C   0  0  0  0  0  0  0  0  0  0  0  0
   11.8260   -1.4470   22.3010 C   0  0  0  0  0  0  0  0  0  0  0  0
   13.1560   -0.8890   21.9080 C   0  0  0  0  0  0  0  0  0  0  0  0
   13.5090    0.5270   22.7270 C   0  0  0  0  0  0  0  0  0  0  0  0
   12.5500    0.9660   23.6380 C   0  0  0  0  0  0  0  0  0  0  0  0
   12.6070   -0.0320   22.8700 C   0  0  0  0  0  0  0  0  0  0  0  0
  1  2  2  0
  2  3  1  0
  3  4  1  0
  4  5  2  0
  5  6  1  0
  6  7  2  0
  7  8  1  0
  4  9  1  0
  8  9  2  0
  2 10  1  0
 11 10  1  6
 11 12  1  0
 11 13  1  0
 12 13  1  0
 13 14  1  6
 14 15  2  0
 15 16  1  0
 16 17  2  0
 17 18  1  0
 14 19  1  0
 18 19  2  0
M  END
