pyridine_urea_5594
     RDKit          3D

 16 16  0  0  0  0  0  0  0  0999 V2000
    8.9200    1.1330   21.2300 O   0  0  0  0  0  0  0  0  0  0  0  0
    8.4100    0.0430   21.5380 C   0  0  0  0  0  0  0  0  0  0  0  0
    8.8960   -0.7560   22.5540 N   0  0  0  0  0  0  0  0  0  0  0  0
    9.9110   -0.2330   23.4470 C   0  0  0  0  0  0  0  0  0  0  0  0
   11.3270   -0.2880   22.8420 C   0  0  0  0  0  0  0  0  0  0  0  0
   11.1150   -0.9670   21.6420 O   0  0  0  0  0  0  0  0  0  0  0  0
   11.5630   -2.1840   21.9690 C   0  0  0  0  0  0  0  0  0  0  0  0
   13.0700   -2.3730   22.0680 C   0  0  0  0  0  0  0  0  0  0  0  0
   13.5810   -1.1360   22.2170 F   0  0  0  0  0  0  0  0  0  0  0  0
    7.3000   -0.5390   20.9690 N   0  0  0  0  0  0  0  0  0  0  0  0
    6.5530    0.0820   20.0490 C   0  0  0  0  0  0  0  0  0  0  0  0
    5.2560    0.8610   20.3100 C   0  0  0  0  0  0  0  0  0  0  0  0
    4.4740    1.5640   19.2090 C   0  0  0  0  0  0  0  0  0  0  0  0
    5.1410    1.3920   17.8590 C   0  0  0  0  0  0  0  0  0  0  0  0
    6.2900    0.6720   17.7140 N   0  0  0  0  0  0  0  0  0  0  0  0
    6.9690    0.0410   18.7440 C   0  0  0  0  0  0  0  0  0  0  0  0
  1  2  2  0
  2  3  1  0
  3  4  1  0
  4  5  1  0
  5  6  1  0
  6  7  1  0
  7  8  1  0
  8  9  1  0
  2 10  1  0
 10 11  1  0
 11 12  2  0
 12 13  1  0
 13 14  2  0
 14 15  1  0
 11 16  1  0
 15 16  2  0
M  END
