pyridine_urea_13880
     RDKit          3D

 24 26  0  0  0  0  0  0  0  0999 V2000
    8.8470    0.8600   21.3960 O   0  0  0  0  0  0  0  0  0  0  0  0
    8.4040   -0.2510   21.6270 C   0  0  0  0  0  0  0  0  0  0  0  0
    8.9970   -1.1470   22.5000 N   0  0  0  0  0  0  0  0  0  0  0  0
   10.2570   -1.7850   22.1370 C   0  0  0  0  0  0  0  0  0  0  0  0
   11.2630   -1.9310   23.2880 C   0  0  0  0  0  0  0  0  0  0  0  0
   12.6800   -2.0180   22.8100 C   0  0  0  0  0  0  0  0  0  0  0  0
   13.3590   -0.8100   22.8700 C   0  0  0  0  0  0  0  0  0  0  0  0
   13.3590   -0.4500   24.0350 O   0  0  0  0  0  0  0  0  0  0  0  0
   13.9030   -0.1900   21.7800 N   0  0  0  0  0  0  0  0  0  0  0  0
   14.0390   -0.8040   20.4980 C   0  0  0  0  0  0  0  0  0  0  0  0
   14.5480    0.4030   19.7310 C   0  0  0  0  0  0  0  0  0  0  0  0
   14.7460    0.5180   18.4700 C   0  0  0  0  0  0  0  0  0  0  0  0
   15.1800    1.8810   18.0630 C   0  0  0  0  0  0  0  0  0  0  0  0
   15.3290    2.9630   18.7720 C   0  0  0  0  0  0  0  0  0  0  0  0
   15.1090    2.8600   20.0250 C   0  0  0  0  0  0  0  0  0  0  0  0
   14.7820    1.6380   20.4850 C   0  0  0  0  0  0  0  0  0  0  0  0
   14.6020    1.2280   21.8500 C   0  0  0  0  0  0  0  0  0  0  0  0
    7.2470   -0.7290   21.0440 N   0  0  0  0  0  0  0  0  0  0  0  0
    6.5210   -0.0600   20.1100 C   0  0  0  0  0  0  0  0  0  0  0  0
    5.2360    0.6820   20.3280 C   0  0  0  0  0  0  0  0  0  0  0  0
    4.6120    1.3350   19.2620 C   0  0  0  0  0  0  0  0  0  0  0  0
    5.2260    1.2660   18.0130 C   0  0  0  0  0  0  0  0  0  0  0  0
    6.3800    0.6070   17.7700 N   0  0  0  0  0  0  0  0  0  0  0  0
    6.9780   -0.0260   18.8070 C   0  0  0  0  0  0  0  0  0  0  0  0
  1  2  2  0
  2  3  1  0
  3  4  1  0
  4  5  1  0
  5  6  1  0
  6  7  1  0
  7  8  2  0
  7  9  1  0
  9 10  1  0
 10 11  1  0
 11 12  1  0
 12 13  2  0
 13 14  1  0
 14 15  2  0
 11 16  2  0
 15 16  1  0
  9 17  1  0
 16 17  1  0
  2 18  1  0
 18 19  1  0
 19 20  2  0
 20 21  1  0
 21 22  2  0
 22 23  1  0
 19 24  1  0
 23 24  2  0
M  END
