pyridine_urea_1892
     RDKit          3D

 20 21  0  0  0  0  0  0  0  0999 V2000
   11.9950   -2.2360   21.5780 C   0  0  0  0  0  0  0  0  0  0  0  0
   11.1950   -1.5640   22.6590 C   0  0  2  0  0  0  0  0  0  0  0  0
    9.8880   -1.9550   22.8670 C   0  0  0  0  0  0  0  0  0  0  0  0
    8.9760   -1.6560   21.8250 N   0  0  0  0  0  0  0  0  0  0  0  0
    8.3490   -0.4580   21.4970 C   0  0  0  0  0  0  0  0  0  0  0  0
    8.8510    0.6590   21.5050 O   0  0  0  0  0  0  0  0  0  0  0  0
    7.0360   -0.6880   21.1220 N   0  0  0  0  0  0  0  0  0  0  0  0
    6.4050   -0.0100   20.0640 C   0  0  0  0  0  0  0  0  0  0  0  0
    5.2130    0.6850   20.3310 C   0  0  0  0  0  0  0  0  0  0  0  0
    4.5640    1.3780   19.3110 C   0  0  0  0  0  0  0  0  0  0  0  0
    5.2210    1.3310   17.9340 C   0  0  0  0  0  0  0  0  0  0  0  0
    6.3520    0.6560   17.7220 N   0  0  0  0  0  0  0  0  0  0  0  0
    6.9080    0.0090   18.7700 C   0  0  0  0  0  0  0  0  0  0  0  0
   11.0240   -0.1050   22.3090 C   0  0  0  0  0  0  0  0  0  0  0  0
   10.4600    0.6050   23.3230 C   0  0  0  0  0  0  0  0  0  0  0  0
   11.3040    0.6220   24.3760 C   0  0  0  0  0  0  0  0  0  0  0  0
   12.4190   -0.1920   24.2710 C   0  0  0  0  0  0  0  0  0  0  0  0
   13.3610    0.1760   23.3990 F   0  0  0  0  0  0  0  0  0  0  0  0
   13.0350   -0.5310   25.3950 F   0  0  0  0  0  0  0  0  0  0  0  0
   11.9250   -1.4990   23.8060 C   0  0  0  0  0  0  0  0  0  0  0  0
  2  1  1  6
  2  3  1  0
  3  4  1  0
  4  5  1  0
  5  6  2  0
  5  7  1  0
  7  8  1  0
  8  9  2  0
  9 10  1  0
 10 11  2  0
 11 12  1  0
  8 13  1  0
 12 13  2  0
  2 14  1  0
 14 15  1  0
 15 16  1  0
 16 17  1  0
 17 18  1  0
 17 19  1  0
  2 20  1  0
 17 20  1  0
M  END
