pyridine_urea_8435
     RDKit          3D

 22 23  0  0  0  0  0  0  0  0999 V2000
   13.4780   -2.3240   23.9770 C   0  0  0  0  0  0  0  0  0  0  0  0
   13.7370   -1.3740   23.0080 N   0  0  0  0  0  0  0  0  0  0  0  0
   13.3420   -0.0220   23.0910 C   0  0  0  0  0  0  0  0  0  0  0  0
   13.2900   -1.8680   21.7080 C   0  0  0  0  0  0  0  0  0  0  0  0
   13.8800   -1.8480   20.6330 O   0  0  0  0  0  0  0  0  0  0  0  0
   12.0600   -2.2450   21.8100 C   0  0  0  0  0  0  0  0  0  0  0  0
   11.5670   -1.1230   22.2790 C   0  0  0  0  0  0  0  0  0  0  0  0
   12.3940    0.0910   22.7320 C   0  0  0  0  0  0  0  0  0  0  0  0
   11.6970    1.1850   23.1680 C   0  0  0  0  0  0  0  0  0  0  0  0
   10.1720    1.0740   23.1590 C   0  0  0  0  0  0  0  0  0  0  0  0
    9.5840   -0.1020   22.7200 C   0  0  0  0  0  0  0  0  0  0  0  0
    8.2690   -0.1470   22.6970 N   0  0  0  0  0  0  0  0  0  0  0  0
    7.8010    0.2770   21.4780 C   0  0  0  0  0  0  0  0  0  0  0  0
    8.3720    1.3870   20.8810 O   0  0  0  0  0  0  0  0  0  0  0  0
    6.8240   -0.5010   21.0130 N   0  0  0  0  0  0  0  0  0  0  0  0
    6.2110    0.1220   20.0150 C   0  0  0  0  0  0  0  0  0  0  0  0
    5.0090    0.8130   20.1410 C   0  0  0  0  0  0  0  0  0  0  0  0
    4.4760    1.4490   19.0270 C   0  0  0  0  0  0  0  0  0  0  0  0
    5.1780    1.3590   17.8420 C   0  0  0  0  0  0  0  0  0  0  0  0
    6.3360    0.6910   17.6890 N   0  0  0  0  0  0  0  0  0  0  0  0
    6.8280    0.0850   18.7760 C   0  0  0  0  0  0  0  0  0  0  0  0
   10.2520   -1.1830   22.2880 C   0  0  0  0  0  0  0  0  0  0  0  0
  1  2  1  0
  2  3  1  0
  2  4  1  0
  4  5  2  0
  4  6  1  0
  6  7  1  0
  7  8  2  0
  8  9  1  0
  9 10  2  0
 10 11  1  0
 11 12  1  0
 12 13  1  0
 13 14  2  0
 13 15  1  0
 15 16  1  0
 16 17  2  0
 17 18  1  0
 18 19  2  0
 19 20  1  0
 16 21  1  0
 20 21  2  0
  7 22  1  0
 11 22  2  0
M  END
