pyridine_urea_5760
     RDKit          3D

 19 20  0  0  0  0  0  0  0  0999 V2000
    8.8640    1.2130   21.1220 O   0  0  0  0  0  0  0  0  0  0  0  0
    8.4830    0.0980   21.5000 C   0  0  0  0  0  0  0  0  0  0  0  0
    9.2940   -0.7180   22.3880 N   0  0  0  0  0  0  0  0  0  0  0  0
   10.5200   -0.1630   22.7590 C   0  0  0  0  0  0  0  0  0  0  0  0
   11.6200   -1.0090   22.7290 C   0  0  0  0  0  0  0  0  0  0  0  0
   12.5970   -0.3320   22.7920 C   0  0  0  0  0  0  0  0  0  0  0  0
   12.4470    0.9220   22.8600 C   0  0  0  0  0  0  0  0  0  0  0  0
   11.6050    2.2050   22.9080 C   0  0  0  0  0  0  0  0  0  0  0  0
   10.2970    2.1510   22.6210 F   0  0  0  0  0  0  0  0  0  0  0  0
   12.0480    3.1210   21.9970 F   0  0  0  0  0  0  0  0  0  0  0  0
   13.6210    0.5100   22.8670 N   0  0  0  0  0  0  0  0  0  0  0  0
   12.9950   -0.9870   22.7610 O   0  0  0  0  0  0  0  0  0  0  0  0
    7.2970   -0.5090   21.1580 N   0  0  0  0  0  0  0  0  0  0  0  0
    6.5640    0.0810   20.0620 C   0  0  0  0  0  0  0  0  0  0  0  0
    5.3030    0.8960   20.3480 C   0  0  0  0  0  0  0  0  0  0  0  0
    4.6330    1.4760   19.2730 C   0  0  0  0  0  0  0  0  0  0  0  0
    5.1170    1.3060   17.9710 C   0  0  0  0  0  0  0  0  0  0  0  0
    6.2400    0.5690   17.7010 N   0  0  0  0  0  0  0  0  0  0  0  0
    6.9730   -0.0550   18.7650 C   0  0  0  0  0  0  0  0  0  0  0  0
  1  2  2  0
  2  3  1  0
  3  4  1  0
  4  5  1  0
  5  6  2  0
  6  7  1  0
  7  8  1  0
  8  9  1  0
  8 10  1  0
  7 11  2  0
  5 12  1  0
 11 12  1  0
  2 13  1  0
 13 14  1  0
 14 15  2  0
 15 16  1  0
 16 17  2  0
 17 18  1  0
 14 19  1  0
 18 19  2  0
M  END
