pyridine_urea_10159
     RDKit          3D

 23 25  0  0  0  0  0  0  0  0999 V2000
   10.4030    6.4140   24.7810 C   0  0  0  0  0  0  0  0  0  0  0  0
   11.4480    5.6320   24.0120 C   0  0  0  0  0  0  0  0  0  0  0  0
   12.5780    6.2050   23.4650 C   0  0  0  0  0  0  0  0  0  0  0  0
   13.5050    5.4340   22.7770 C   0  0  0  0  0  0  0  0  0  0  0  0
   13.2860    4.0800   22.6390 C   0  0  0  0  0  0  0  0  0  0  0  0
   12.1890    3.3970   23.1290 C   0  0  0  0  0  0  0  0  0  0  0  0
   11.8580    1.8900   22.9710 C   0  0  0  0  0  0  0  0  0  0  0  0
   10.4960    1.8710   22.9960 C   0  0  0  0  0  0  0  0  0  0  0  0
    9.7670    0.7730   22.8510 C   0  0  0  0  0  0  0  0  0  0  0  0
   10.3980   -0.3860   22.6530 C   0  0  0  0  0  0  0  0  0  0  0  0
    9.3820   -1.3830   22.4360 N   0  0  0  0  0  0  0  0  0  0  0  0
    8.4850   -0.5720   21.5700 C   0  0  0  0  0  0  0  0  0  0  0  0
    8.8710    0.5250   21.1890 O   0  0  0  0  0  0  0  0  0  0  0  0
    7.2120   -1.0130   21.1890 N   0  0  0  0  0  0  0  0  0  0  0  0
    6.5730   -0.3290   20.0480 C   0  0  0  0  0  0  0  0  0  0  0  0
    5.4060    0.3680   20.4220 C   0  0  0  0  0  0  0  0  0  0  0  0
    4.6550    1.1090   19.4850 C   0  0  0  0  0  0  0  0  0  0  0  0
    5.1060    1.1360   18.1660 C   0  0  0  0  0  0  0  0  0  0  0  0
    6.2340    0.4550   17.8040 N   0  0  0  0  0  0  0  0  0  0  0  0
    6.9720   -0.2780   18.7330 C   0  0  0  0  0  0  0  0  0  0  0  0
   11.8000   -0.4780   22.6410 C   0  0  0  0  0  0  0  0  0  0  0  0
   12.6110    0.6790   22.8080 C   0  0  0  0  0  0  0  0  0  0  0  0
   11.2010    4.2680   23.8780 C   0  0  0  0  0  0  0  0  0  0  0  0
  1  2  1  0
  2  3  2  0
  3  4  1  0
  4  5  2  0
  5  6  1  0
  6  7  1  0
  7  8  2  0
  8  9  1  0
  9 10  2  0
 10 11  1  0
 11 12  1  0
 12 13  2  0
 12 14  1  0
 14 15  1  0
 15 16  2  0
 16 17  1  0
 17 18  2  0
 18 19  1  0
 15 20  1  0
 19 20  2  0
 10 21  1  0
  7 22  1  0
 21 22  2  0
  2 23  1  0
  6 23  2  0
M  END
