pyridine_urea_2599
     RDKit          3D

 23 26  0  0  0  0  0  0  0  0999 V2000
    8.8360    1.2950   21.1490 O   0  0  0  0  0  0  0  0  0  0  0  0
    8.6170    0.0870   21.2730 C   0  0  0  0  0  0  0  0  0  0  0  0
    7.3960   -0.4830   21.0220 N   0  0  0  0  0  0  0  0  0  0  0  0
    6.5860    0.0660   20.0240 C   0  0  0  0  0  0  0  0  0  0  0  0
    5.3980    0.7250   20.3600 C   0  0  0  0  0  0  0  0  0  0  0  0
    4.6250    1.2960   19.3460 C   0  0  0  0  0  0  0  0  0  0  0  0
    5.0760    1.1810   18.0510 C   0  0  0  0  0  0  0  0  0  0  0  0
    6.1980    0.5470   17.7070 N   0  0  0  0  0  0  0  0  0  0  0  0
    6.9240    0.0050   18.6980 C   0  0  0  0  0  0  0  0  0  0  0  0
    9.6450   -0.7570   21.6350 N   0  0  0  0  0  0  0  0  0  0  0  0
   10.6330   -0.0340   22.4460 C   0  0  2  0  0  0  0  0  0  0  0  0
   12.0450   -0.5990   22.6120 C   0  0  1  0  0  0  0  0  0  0  0  0
   12.4780    0.0160   23.7150 C   0  0  0  0  0  0  0  0  0  0  0  0
   11.3240    0.3290   24.3870 C   0  0  0  0  0  0  0  0  0  0  0  0
   10.1170    0.0890   23.6740 C   0  0  2  0  0  0  0  0  0  0  0  0
    9.4820   -1.1650   23.7600 C   0  0  0  0  0  0  0  0  0  0  0  0
   10.2100   -2.1220   24.3940 C   0  0  0  0  0  0  0  0  0  0  0  0
    9.5990   -2.7340   25.4740 C   0  0  0  0  0  0  0  0  0  0  0  0
   10.2860   -3.6880   26.1920 C   0  0  0  0  0  0  0  0  0  0  0  0
   11.5760   -3.9820   25.8170 C   0  0  0  0  0  0  0  0  0  0  0  0
   12.1410   -3.3500   24.7200 C   0  0  0  0  0  0  0  0  0  0  0  0
   11.5000   -2.4350   23.9540 C   0  0  0  0  0  0  0  0  0  0  0  0
   12.1860   -1.9150   22.8240 C   0  0  0  0  0  0  0  0  0  0  0  0
  1  2  2  0
  2  3  1  0
  3  4  1  0
  4  5  2  0
  5  6  1  0
  6  7  2  0
  7  8  1  0
  4  9  1  0
  8  9  2  0
  2 10  1  0
 11 10  1  6
 11 12  1  0
 12 13  1  1
 13 14  1  0
 11 15  1  0
 15 14  1  1
 15 16  1  0
 16 17  1  0
 17 18  1  0
 18 19  2  0
 19 20  1  0
 20 21  2  0
 17 22  2  0
 21 22  1  0
 12 23  1  0
 22 23  1  0
M  END
