pyridine_urea_2632
     RDKit          3D

 23 25  0  0  0  0  0  0  0  0999 V2000
    8.7430    1.4760   21.0670 O   0  0  0  0  0  0  0  0  0  0  0  0
    8.3870    0.3940   21.5290 C   0  0  0  0  0  0  0  0  0  0  0  0
    8.9790   -0.2230   22.5780 N   0  0  0  0  0  0  0  0  0  0  0  0
   10.3580   -0.1240   22.8200 C   0  0  0  0  0  0  0  0  0  0  0  0
   10.8780    1.0740   23.3200 C   0  0  0  0  0  0  0  0  0  0  0  0
   12.2350    1.0980   23.6580 C   0  0  0  0  0  0  0  0  0  0  0  0
   13.0520    0.0700   23.2410 C   0  0  0  0  0  0  0  0  0  0  0  0
   12.3920   -0.9570   22.6500 C   0  0  0  0  0  0  0  0  0  0  0  0
   12.6410   -1.7440   21.5370 C   0  0  0  0  0  0  0  0  0  0  0  0
   11.5620   -2.3890   21.6740 N   0  0  0  0  0  0  0  0  0  0  0  0
   10.5460   -2.3700   22.5470 C   0  0  0  0  0  0  0  0  0  0  0  0
    9.3330   -3.0330   22.7640 C   0  0  0  0  0  0  0  0  0  0  0  0
    8.5710   -2.6440   23.8730 C   0  0  0  0  0  0  0  0  0  0  0  0
    9.0330   -1.6170   24.7250 C   0  0  0  0  0  0  0  0  0  0  0  0
   10.2530   -0.9780   24.4700 C   0  0  0  0  0  0  0  0  0  0  0  0
   11.0300   -1.3440   23.3650 C   0  0  0  0  0  0  0  0  0  0  0  0
    7.3180   -0.3080   21.0240 N   0  0  0  0  0  0  0  0  0  0  0  0
    6.5000    0.2440   20.0450 C   0  0  0  0  0  0  0  0  0  0  0  0
    5.3120    0.9350   20.2810 C   0  0  0  0  0  0  0  0  0  0  0  0
    4.6170    1.4570   19.2000 C   0  0  0  0  0  0  0  0  0  0  0  0
    5.1310    1.2700   17.9320 C   0  0  0  0  0  0  0  0  0  0  0  0
    6.2580    0.6000   17.6840 N   0  0  0  0  0  0  0  0  0  0  0  0
    6.9120    0.1040   18.7410 C   0  0  0  0  0  0  0  0  0  0  0  0
  1  2  2  0
  2  3  1  0
  3  4  1  0
  4  5  1  0
  5  6  1  0
  6  7  1  0
  7  8  1  0
  8  9  2  0
  9 10  1  0
 10 11  1  0
 11 12  1  0
 12 13  2  0
 13 14  1  0
 14 15  2  0
  8 16  1  0
 11 16  2  0
 15 16  1  0
  2 17  1  0
 17 18  1  0
 18 19  2  0
 19 20  1  0
 20 21  2  0
 21 22  1  0
 18 23  1  0
 22 23  2  0
M  END
