pyridine_urea_376
     RDKit          3D

 26 29  0  0  0  0  0  0  0  0999 V2000
    9.1570    1.3260   21.1640 O   0  0  0  0  0  0  0  0  0  0  0  0
    8.6070    0.3430   21.6740 C   0  0  0  0  0  0  0  0  0  0  0  0
    7.5760   -0.3890   21.0970 N   0  0  0  0  0  0  0  0  0  0  0  0
    6.7680    0.1710   20.0290 C   0  0  0  0  0  0  0  0  0  0  0  0
    5.5070    0.9230   20.4440 C   0  0  0  0  0  0  0  0  0  0  0  0
    4.7210    1.4890   19.3110 C   0  0  0  0  0  0  0  0  0  0  0  0
    5.1840    1.2920   18.0270 C   0  0  0  0  0  0  0  0  0  0  0  0
    6.2990    0.6130   17.7130 N   0  0  0  0  0  0  0  0  0  0  0  0
    7.0510    0.0760   18.6960 C   0  0  0  0  0  0  0  0  0  0  0  0
    8.9360   -0.1530   22.9290 N   0  0  0  0  0  0  0  0  0  0  0  0
   10.3220   -0.3980   23.4370 C   0  0  0  0  0  0  0  0  0  0  0  0
   10.5510   -1.4300   24.2250 C   0  0  0  0  0  0  0  0  0  0  0  0
    9.5940   -2.3430   24.2190 N   0  0  0  0  0  0  0  0  0  0  0  0
    8.3080   -1.9080   24.3120 C   0  0  0  0  0  0  0  0  0  0  0  0
    7.3780   -2.7360   23.7280 C   0  0  0  0  0  0  0  0  0  0  0  0
    7.7340   -3.9770   23.8070 N   0  0  0  0  0  0  0  0  0  0  0  0
    6.9910   -4.6410   22.8840 C   0  0  0  0  0  0  0  0  0  0  0  0
    7.0420   -5.9770   23.0820 C   0  0  0  0  0  0  0  0  0  0  0  0
    6.4430   -7.1590   22.3680 C   0  0  0  0  0  0  0  0  0  0  0  0
    5.7120   -6.3920   21.2640 C   0  0  0  0  0  0  0  0  0  0  0  0
    5.6410   -4.9210   21.0300 C   0  0  0  0  0  0  0  0  0  0  0  0
    6.2850   -4.0850   21.8590 C   0  0  0  0  0  0  0  0  0  0  0  0
    8.9500   -4.2690   23.3170 C   0  0  0  0  0  0  0  0  0  0  0  0
    9.8330   -3.2280   23.2470 C   0  0  0  0  0  0  0  0  0  0  0  0
   11.6160    0.4440   22.7940 C   0  0  0  0  0  0  0  0  0  0  0  0
   11.2160   -0.7460   22.4020 C   0  0  0  0  0  0  0  0  0  0  0  0
  1  2  2  0
  2  3  1  0
  3  4  1  0
  4  5  2  0
  5  6  1  0
  6  7  2  0
  7  8  1  0
  4  9  1  0
  8  9  2  0
  2 10  1  0
 11 10  1  0
 11 12  1  0
 12 13  1  0
 13 14  1  0
 14 15  1  0
 15 16  1  0
 16 17  1  0
 17 18  2  0
 18 19  1  0
 19 20  2  0
 20 21  1  0
 17 22  1  0
 21 22  2  0
 16 23  1  0
 13 24  1  0
 23 24  1  0
 11 25  1  0
 11 26  1  0
 25 26  1  0
M  END
