pyridine_urea_10294
     RDKit          3D

 22 24  0  0  0  0  0  0  0  0999 V2000
    8.5030    1.4160   20.9410 O   0  0  0  0  0  0  0  0  0  0  0  0
    7.8740    0.4700   21.4270 C   0  0  0  0  0  0  0  0  0  0  0  0
    6.9180   -0.2890   20.8380 N   0  0  0  0  0  0  0  0  0  0  0  0
    6.2120    0.3140   19.8530 C   0  0  0  0  0  0  0  0  0  0  0  0
    5.0020    0.9550   20.0090 C   0  0  0  0  0  0  0  0  0  0  0  0
    4.4300    1.5610   18.9040 C   0  0  0  0  0  0  0  0  0  0  0  0
    5.1110    1.4840   17.7080 C   0  0  0  0  0  0  0  0  0  0  0  0
    6.2780    0.8500   17.5490 N   0  0  0  0  0  0  0  0  0  0  0  0
    6.7930    0.2840   18.6240 C   0  0  0  0  0  0  0  0  0  0  0  0
    8.0610    0.0240   22.6610 N   0  0  0  0  0  0  0  0  0  0  0  0
    9.2910   -0.4310   22.8630 C   0  0  0  0  0  0  0  0  0  0  0  0
    9.9510   -0.8790   21.7400 C   0  0  0  0  0  0  0  0  0  0  0  0
   11.2160   -1.3620   21.8210 C   0  0  0  0  0  0  0  0  0  0  0  0
   11.7690   -1.3850   23.0190 C   0  0  0  0  0  0  0  0  0  0  0  0
   11.1280   -0.9590   24.1380 C   0  0  0  0  0  0  0  0  0  0  0  0
    9.8170   -0.4360   24.1050 C   0  0  0  0  0  0  0  0  0  0  0  0
   11.7400   -1.0590   25.2740 C   0  0  0  0  0  0  0  0  0  0  0  0
   13.0770   -1.1200   25.2160 C   0  0  0  0  0  0  0  0  0  0  0  0
   13.4560   -2.3280   24.6880 C   0  0  0  0  0  0  0  0  0  0  0  0
   13.3470   -1.9950   23.0270 S   0  0  0  0  0  0  0  0  0  0  0  0
   13.3730   -3.1720   22.2230 O   0  0  0  0  0  0  0  0  0  0  0  0
   13.9230   -0.7400   22.6580 O   0  0  0  0  0  0  0  0  0  0  0  0
  1  2  2  0
  2  3  1  0
  3  4  1  0
  4  5  2  0
  5  6  1  0
  6  7  2  0
  7  8  1  0
  4  9  1  0
  8  9  2  0
  2 10  1  0
 10 11  1  0
 11 12  2  0
 12 13  1  0
 13 14  2  0
 14 15  1  0
 11 16  1  0
 15 16  2  0
 15 17  1  0
 17 18  1  0
 18 19  1  0
 14 20  1  0
 20 19  1  0
 20 21  2  0
 20 22  2  0
M  END
