pyridine_urea_1722
     RDKit          3D

 18 19  0  0  0  0  0  0  0  0999 V2000
   10.4390   -1.0730   21.6380 C   0  0  0  0  0  0  0  0  0  0  0  0
   10.5030   -0.0060   22.6640 C   0  0  1  0  0  0  0  0  0  0  0  0
    9.0960    0.1590   22.9260 N   0  0  0  0  0  0  0  0  0  0  0  0
    8.4630    0.6110   21.7740 C   0  0  0  0  0  0  0  0  0  0  0  0
    8.8900    1.6180   21.2120 O   0  0  0  0  0  0  0  0  0  0  0  0
    7.3860   -0.1380   21.3270 N   0  0  0  0  0  0  0  0  0  0  0  0
    6.6400    0.2490   20.1920 C   0  0  0  0  0  0  0  0  0  0  0  0
    5.4900    0.9930   20.3940 C   0  0  0  0  0  0  0  0  0  0  0  0
    4.7300    1.4210   19.3070 C   0  0  0  0  0  0  0  0  0  0  0  0
    5.1520    1.0860   18.0360 C   0  0  0  0  0  0  0  0  0  0  0  0
    6.2500    0.3620   17.8030 N   0  0  0  0  0  0  0  0  0  0  0  0
    6.9710   -0.0450   18.8720 C   0  0  0  0  0  0  0  0  0  0  0  0
   11.4110   -0.7040   23.5790 C   0  0  0  0  0  0  0  0  0  0  0  0
   11.3060   -1.9120   23.8280 C   0  0  0  0  0  0  0  0  0  0  0  0
   11.9870   -2.6590   24.5100 C   0  0  0  0  0  0  0  0  0  0  0  0
   12.8730   -1.8090   24.9130 N   0  0  0  0  0  0  0  0  0  0  0  0
   13.8450   -2.2950   25.6990 C   0  0  0  0  0  0  0  0  0  0  0  0
   12.5750   -0.4650   24.3650 N   0  0  0  0  0  0  0  0  0  0  0  0
  2  1  1  6
  2  3  1  0
  3  4  1  0
  4  5  2  0
  4  6  1  0
  6  7  1  0
  7  8  2  0
  8  9  1  0
  9 10  2  0
 10 11  1  0
  7 12  1  0
 11 12  2  0
  2 13  1  0
 13 14  1  0
 14 15  2  0
 15 16  1  0
 16 17  1  0
 13 18  2  0
 16 18  1  0
M  END
