pyridine_urea_1064
     RDKit          3D

 22 23  0  0  0  0  0  0  0  0999 V2000
   11.3550   -2.9830   24.2000 C   0  0  0  0  0  0  0  0  0  0  0  0
   12.7190   -2.4100   24.2390 C   0  0  0  0  0  0  0  0  0  0  0  0
   12.8890   -1.2070   24.9060 C   0  0  0  0  0  0  0  0  0  0  0  0
   13.1360   -2.2020   22.7780 C   0  0  0  0  0  0  0  0  0  0  0  0
   12.4280   -1.4210   22.1610 O   0  0  0  0  0  0  0  0  0  0  0  0
   11.0730   -1.6100   22.1450 C   0  0  0  0  0  0  0  0  0  0  0  0
   10.1510   -0.9400   23.1490 C   0  0  2  0  0  0  0  0  0  0  0  0
    8.7920   -0.7970   22.6680 N   0  0  0  0  0  0  0  0  0  0  0  0
    8.2850   -0.0790   21.6180 C   0  0  0  0  0  0  0  0  0  0  0  0
    8.8890    1.1070   21.2360 O   0  0  0  0  0  0  0  0  0  0  0  0
    7.0930   -0.6620   21.0180 N   0  0  0  0  0  0  0  0  0  0  0  0
    6.4690    0.0080   19.9950 C   0  0  0  0  0  0  0  0  0  0  0  0
    5.3120    0.7240   20.2500 C   0  0  0  0  0  0  0  0  0  0  0  0
    4.6560    1.4230   19.2350 C   0  0  0  0  0  0  0  0  0  0  0  0
    5.2040    1.3740   17.9620 C   0  0  0  0  0  0  0  0  0  0  0  0
    6.3220    0.6810   17.6890 N   0  0  0  0  0  0  0  0  0  0  0  0
    6.9250    0.0180   18.7000 C   0  0  0  0  0  0  0  0  0  0  0  0
   10.6040    0.4440   23.5430 C   0  0  0  0  0  0  0  0  0  0  0  0
   11.4210    1.6020   23.6940 C   0  0  0  0  0  0  0  0  0  0  0  0
   12.6530    1.6380   23.2040 C   0  0  0  0  0  0  0  0  0  0  0  0
   12.8220    0.4900   22.6780 C   0  0  0  0  0  0  0  0  0  0  0  0
   11.6930   -0.2260   22.8380 O   0  0  0  0  0  0  0  0  0  0  0  0
  1  2  1  0
  2  3  1  0
  2  4  1  0
  4  5  1  0
  5  6  1  0
  7  6  1  6
  7  8  1  0
  8  9  1  0
  9 10  2  0
  9 11  1  0
 11 12  1  0
 12 13  2  0
 13 14  1  0
 14 15  2  0
 15 16  1  0
 12 17  1  0
 16 17  2  0
  7 18  1  0
 18 19  2  0
 19 20  1  0
 20 21  2  0
 18 22  1  0
 21 22  1  0
M  END
