pyridine_urea_8165
     RDKit          3D

 23 24  0  0  0  0  0  0  0  0999 V2000
    3.5790   -3.4830   24.5290 C   0  0  0  0  0  0  0  0  0  0  0  0
    4.4540   -4.5540   24.8850 O   0  0  0  0  0  0  0  0  0  0  0  0
    4.6830   -4.6170   26.3000 C   0  0  0  0  0  0  0  0  0  0  0  0
    4.2880   -5.4830   27.0630 O   0  0  0  0  0  0  0  0  0  0  0  0
    5.5370   -3.3770   26.7670 C   0  0  0  0  0  0  0  0  0  0  0  0
    5.8380   -3.2510   28.1000 C   0  0  0  0  0  0  0  0  0  0  0  0
    6.6560   -2.0600   28.5730 C   0  0  0  0  0  0  0  0  0  0  0  0
    7.0920   -1.1060   27.6420 C   0  0  0  0  0  0  0  0  0  0  0  0
    6.7980   -1.1670   26.1130 C   0  0  0  0  0  0  0  0  0  0  0  0
    6.8260   -0.8240   25.0090 N   0  0  0  0  0  0  0  0  0  0  0  0
    8.2070   -0.6130   24.5670 C   0  0  0  0  0  0  0  0  0  0  0  0
    8.9430   -1.5130   23.5850 C   0  0  0  0  0  0  0  0  0  0  0  0
    9.1630   -1.1040   22.2460 N   0  0  0  0  0  0  0  0  0  0  0  0
    8.5120   -0.1080   21.5240 C   0  0  0  0  0  0  0  0  0  0  0  0
    9.0970    1.1770   21.2370 O   0  0  0  0  0  0  0  0  0  0  0  0
    7.2540   -0.5250   21.1180 N   0  0  0  0  0  0  0  0  0  0  0  0
    6.5500    0.0680   20.0610 C   0  0  0  0  0  0  0  0  0  0  0  0
    5.2770    0.8480   20.3480 C   0  0  0  0  0  0  0  0  0  0  0  0
    4.6090    1.4400   19.2840 C   0  0  0  0  0  0  0  0  0  0  0  0
    5.1410    1.2870   18.0030 C   0  0  0  0  0  0  0  0  0  0  0  0
    6.2590    0.5930   17.7290 N   0  0  0  0  0  0  0  0  0  0  0  0
    6.9320    0.0050   18.7410 C   0  0  0  0  0  0  0  0  0  0  0  0
    5.9580   -2.4510   25.8450 C   0  0  0  0  0  0  0  0  0  0  0  0
  1  2  1  0
  2  3  1  0
  3  4  2  0
  3  5  1  0
  5  6  2  0
  6  7  1  0
  7  8  2  0
  8  9  1  0
  9 10  1  0
 10 11  1  0
 11 12  1  0
 12 13  1  0
 13 14  1  0
 14 15  2  0
 14 16  1  0
 16 17  1  0
 17 18  2  0
 18 19  1  0
 19 20  2  0
 20 21  1  0
 17 22  1  0
 21 22  2  0
  5 23  1  0
  9 23  2  0
M  END
