pyridine_urea_14474
     RDKit          3D

 23 25  0  0  0  0  0  0  0  0999 V2000
    8.7390    1.3770   21.0160 O   0  0  0  0  0  0  0  0  0  0  0  0
    8.4150    0.3010   21.5140 C   0  0  0  0  0  0  0  0  0  0  0  0
    7.3210   -0.5120   20.9940 N   0  0  0  0  0  0  0  0  0  0  0  0
    6.5660    0.0990   20.0150 C   0  0  0  0  0  0  0  0  0  0  0  0
    5.4090    0.8140   20.3400 C   0  0  0  0  0  0  0  0  0  0  0  0
    4.6960    1.4260   19.3080 C   0  0  0  0  0  0  0  0  0  0  0  0
    5.1640    1.3010   18.0020 C   0  0  0  0  0  0  0  0  0  0  0  0
    6.2640    0.6110   17.6800 N   0  0  0  0  0  0  0  0  0  0  0  0
    6.9400    0.0250   18.6950 C   0  0  0  0  0  0  0  0  0  0  0  0
    8.9940   -0.2910   22.6000 N   0  0  0  0  0  0  0  0  0  0  0  0
   10.3540    0.0530   22.9990 C   0  0  0  0  0  0  0  0  0  0  0  0
   10.7640    1.5350   22.8230 C   0  0  0  0  0  0  0  0  0  0  0  0
   12.1090    1.8970   22.8020 C   0  0  0  0  0  0  0  0  0  0  0  0
   12.4970    3.2250   22.6770 C   0  0  0  0  0  0  0  0  0  0  0  0
   11.5410    4.2170   22.5730 C   0  0  0  0  0  0  0  0  0  0  0  0
   12.0570    5.8490   22.4330 Cl  0  0  0  0  0  0  0  0  0  0  0  0
   10.1980    3.8790   22.5870 C   0  0  0  0  0  0  0  0  0  0  0  0
    9.8020    2.5530   22.7100 C   0  0  0  0  0  0  0  0  0  0  0  0
   10.7380   -0.0220   24.2710 C   0  0  0  0  0  0  0  0  0  0  0  0
   12.0770    0.2730   24.4940 C   0  0  0  0  0  0  0  0  0  0  0  0
   12.9940   -0.4450   23.7010 O   0  0  0  0  0  0  0  0  0  0  0  0
   12.6540   -0.4180   22.3600 C   0  0  0  0  0  0  0  0  0  0  0  0
   11.3420   -0.9030   22.3020 C   0  0  0  0  0  0  0  0  0  0  0  0
  1  2  2  0
  2  3  1  0
  3  4  1  0
  4  5  2  0
  5  6  1  0
  6  7  2  0
  7  8  1  0
  4  9  1  0
  8  9  2  0
  2 10  1  0
 11 10  1  0
 11 12  1  0
 12 13  2  0
 13 14  1  0
 14 15  2  0
 15 16  1  0
 15 17  1  0
 12 18  1  0
 17 18  2  0
 11 19  1  0
 19 20  1  0
 20 21  1  0
 21 22  1  0
 11 23  1  0
 22 23  1  0
M  END
