pyridine_urea_2039
     RDKit          3D

 17 18  0  0  0  0  0  0  0  0999 V2000
   12.9580   -1.7230   24.9420 N   0  0  0  0  0  0  0  0  0  0  0  0
   12.5400   -0.4200   24.8640 C   0  0  0  0  0  0  0  0  0  0  0  0
   12.8440    0.2550   23.5230 C   0  0  0  0  0  0  0  0  0  0  0  0
   11.5410    0.2230   22.7990 C   0  0  1  0  0  0  0  0  0  0  0  0
   11.1890   -1.1750   22.2930 C   0  0  0  0  0  0  0  0  0  0  0  0
   10.0280   -1.1680   23.1180 C   0  0  2  0  0  0  0  0  0  0  0  0
    8.8090   -1.3160   22.5540 N   0  0  0  0  0  0  0  0  0  0  0  0
    8.3620   -0.3740   21.6790 C   0  0  0  0  0  0  0  0  0  0  0  0
    8.9870    0.6470   21.4190 O   0  0  0  0  0  0  0  0  0  0  0  0
    7.0740   -0.7610   21.1510 N   0  0  0  0  0  0  0  0  0  0  0  0
    6.4650   -0.0490   20.0570 C   0  0  0  0  0  0  0  0  0  0  0  0
    5.3190    0.7320   20.2520 C   0  0  0  0  0  0  0  0  0  0  0  0
    4.7310    1.4270   19.2020 C   0  0  0  0  0  0  0  0  0  0  0  0
    5.2370    1.3920   17.9150 C   0  0  0  0  0  0  0  0  0  0  0  0
    6.3580    0.6120   17.7660 N   0  0  0  0  0  0  0  0  0  0  0  0
    7.0290   -0.1470   18.8020 C   0  0  0  0  0  0  0  0  0  0  0  0
   10.1860    0.1020   23.7720 C   0  0  0  0  0  0  0  0  0  0  0  0
  1  2  3  0
  2  3  1  0
  4  3  1  1
  4  5  1  0
  5  6  1  0
  6  7  1  6
  7  8  1  0
  8  9  2  0
  8 10  1  0
 10 11  1  0
 11 12  2  0
 12 13  1  0
 13 14  2  0
 14 15  1  0
 11 16  1  0
 15 16  2  0
  4 17  1  0
  6 17  1  0
M  END
