pyridine_urea_10112
     RDKit          3D

 24 26  0  0  0  0  0  0  0  0999 V2000
    8.8430    0.9530   21.5000 O   0  0  0  0  0  0  0  0  0  0  0  0
    8.4160   -0.1750   21.2980 C   0  0  0  0  0  0  0  0  0  0  0  0
    9.1830   -1.3160   21.2470 N   0  0  0  0  0  0  0  0  0  0  0  0
   10.0780   -1.7940   22.2140 C   0  0  0  0  0  0  0  0  0  0  0  0
   11.3280   -1.2490   22.3820 C   0  0  0  0  0  0  0  0  0  0  0  0
   12.5080   -0.5100   22.6910 C   0  0  0  0  0  0  0  0  0  0  0  0
   12.5730    0.6140   23.4260 C   0  0  0  0  0  0  0  0  0  0  0  0
   11.4280    1.0720   23.9260 C   0  0  0  0  0  0  0  0  0  0  0  0
   10.9800    0.0360   23.4050 O   0  0  0  0  0  0  0  0  0  0  0  0
    9.8560   -0.4950   24.1690 C   0  0  0  0  0  0  0  0  0  0  0  0
    9.4220   -1.8340   23.9180 C   0  0  0  0  0  0  0  0  0  0  0  0
    8.8220   -2.5480   24.9710 C   0  0  0  0  0  0  0  0  0  0  0  0
    8.1600   -1.7940   25.9370 C   0  0  0  0  0  0  0  0  0  0  0  0
    8.8940   -0.7270   26.4460 C   0  0  0  0  0  0  0  0  0  0  0  0
    9.9670   -0.2160   25.5550 C   0  0  0  0  0  0  0  0  0  0  0  0
   10.2010    0.7980   23.9580 N   0  0  0  0  0  0  0  0  0  0  0  0
   10.2920   -0.4410   23.1040 C   0  0  0  0  0  0  0  0  0  0  0  0
    7.0910   -0.4610   21.0370 N   0  0  0  0  0  0  0  0  0  0  0  0
    6.4170    0.1320   20.0300 C   0  0  0  0  0  0  0  0  0  0  0  0
    5.2580    0.8360   20.3200 C   0  0  0  0  0  0  0  0  0  0  0  0
    4.6120    1.4470   19.2620 C   0  0  0  0  0  0  0  0  0  0  0  0
    5.1350    1.3350   17.9810 C   0  0  0  0  0  0  0  0  0  0  0  0
    6.2680    0.6390   17.6630 N   0  0  0  0  0  0  0  0  0  0  0  0
    6.8740    0.0530   18.7340 C   0  0  0  0  0  0  0  0  0  0  0  0
  1  2  2  0
  2  3  1  0
  3  4  1  0
  4  5  1  0
  5  6  2  0
  6  7  1  0
  7  8  2  0
  8  9  1  0
  9 10  1  0
 10 11  1  0
 11 12  1  0
 12 13  1  0
 13 14  1  0
 10 15  1  0
 14 15  1  0
  8 16  1  0
  5 17  1  0
 16 17  2  0
  2 18  1  0
 18 19  1  0
 19 20  2  0
 20 21  1  0
 21 22  2  0
 22 23  1  0
 19 24  1  0
 23 24  2  0
M  END
