pyridine_urea_2499
     RDKit          3D

 24 26  0  0  0  0  0  0  0  0999 V2000
    8.6430    0.6360   21.3390 O   0  0  0  0  0  0  0  0  0  0  0  0
    8.2940   -0.5070   21.5970 C   0  0  0  0  0  0  0  0  0  0  0  0
    9.0700   -1.3360   22.4020 N   0  0  0  0  0  0  0  0  0  0  0  0
   10.2760   -0.6860   22.6500 C   0  0  0  0  0  0  0  0  0  0  0  0
   11.5330   -1.1560   22.2320 C   0  0  0  0  0  0  0  0  0  0  0  0
   12.6830   -0.3730   22.4440 C   0  0  0  0  0  0  0  0  0  0  0  0
   12.5370    0.8570   23.0600 C   0  0  0  0  0  0  0  0  0  0  0  0
   13.3350    1.6990   23.2700 O   0  0  0  0  0  0  0  0  0  0  0  0
   12.6560    2.9100   23.1170 C   0  0  0  0  0  0  0  0  0  0  0  0
   11.2580    2.8730   23.1020 C   0  0  0  0  0  0  0  0  0  0  0  0
   10.5520    4.2110   22.9760 C   0  0  0  0  0  0  0  0  0  0  0  0
   11.2750    5.3870   22.8800 C   0  0  0  0  0  0  0  0  0  0  0  0
   10.3910    6.8530   22.7620 Cl  0  0  0  0  0  0  0  0  0  0  0  0
   12.6660    5.3530   22.8830 C   0  0  0  0  0  0  0  0  0  0  0  0
   13.3450    4.1370   23.0000 C   0  0  0  0  0  0  0  0  0  0  0  0
   11.1850    1.2970   23.5460 C   0  0  0  0  0  0  0  0  0  0  0  0
   10.1110    0.5060   23.3180 C   0  0  0  0  0  0  0  0  0  0  0  0
    7.1260   -1.0080   21.0930 N   0  0  0  0  0  0  0  0  0  0  0  0
    6.4720   -0.2680   20.0720 C   0  0  0  0  0  0  0  0  0  0  0  0
    5.2430    0.3600   20.3260 C   0  0  0  0  0  0  0  0  0  0  0  0
    4.6200    1.1010   19.3110 C   0  0  0  0  0  0  0  0  0  0  0  0
    5.2370    1.1980   18.0710 C   0  0  0  0  0  0  0  0  0  0  0  0
    6.4080    0.6010   17.8090 N   0  0  0  0  0  0  0  0  0  0  0  0
    6.9920   -0.1120   18.8020 C   0  0  0  0  0  0  0  0  0  0  0  0
  1  2  2  0
  2  3  1  0
  3  4  1  0
  4  5  2  0
  5  6  1  0
  6  7  2  0
  7  8  1  0
  8  9  1  0
  9 10  2  0
 10 11  1  0
 11 12  2  0
 12 13  1  0
 12 14  1  0
  9 15  1  0
 14 15  2  0
  7 16  1  0
  4 17  1  0
 16 17  2  0
  2 18  1  0
 18 19  1  0
 19 20  2  0
 20 21  1  0
 21 22  2  0
 22 23  1  0
 19 24  1  0
 23 24  2  0
M  END
