pyridine_urea_10547
     RDKit          3D

 21 23  0  0  0  0  0  0  0  0999 V2000
    8.8170    1.4450   20.9740 O   0  0  0  0  0  0  0  0  0  0  0  0
    8.3430    0.3600   21.3240 C   0  0  0  0  0  0  0  0  0  0  0  0
    8.8670   -0.4300   22.2870 N   0  0  0  0  0  0  0  0  0  0  0  0
   10.2380   -0.3270   22.4820 C   0  0  0  0  0  0  0  0  0  0  0  0
   11.1270   -1.5560   22.4610 C   0  0  1  0  0  0  0  0  0  0  0  0
   11.9050   -1.9980   20.9370 S   0  0  0  0  0  0  0  0  0  0  0  0
   13.5230   -1.6960   21.6380 C   0  0  0  0  0  0  0  0  0  0  0  0
   13.7760   -2.0650   23.1210 C   0  0  0  0  0  0  0  0  0  0  0  0
   13.4830   -1.0880   24.0630 C   0  0  0  0  0  0  0  0  0  0  0  0
   12.3110    0.1190   24.8270 C   0  0  0  0  0  0  0  0  0  0  0  0
   11.2280   -0.2240   23.9100 C   0  0  0  0  0  0  0  0  0  0  0  0
   12.2040    0.0840   24.7350 C   0  0  0  0  0  0  0  0  0  0  0  0
   12.5740   -0.5970   24.1760 C   0  0  0  0  0  0  0  0  0  0  0  0
   12.3680   -1.3250   23.2880 C   0  0  0  0  0  0  0  0  0  0  0  0
    7.2330   -0.2300   20.8470 N   0  0  0  0  0  0  0  0  0  0  0  0
    6.5420    0.2530   19.7780 C   0  0  0  0  0  0  0  0  0  0  0  0
    5.2060    0.9180   20.0980 C   0  0  0  0  0  0  0  0  0  0  0  0
    4.4910    1.4120   19.0390 C   0  0  0  0  0  0  0  0  0  0  0  0
    5.0210    1.2910   17.7460 C   0  0  0  0  0  0  0  0  0  0  0  0
    6.2200    0.6960   17.4450 N   0  0  0  0  0  0  0  0  0  0  0  0
    6.9590    0.2050   18.4700 C   0  0  0  0  0  0  0  0  0  0  0  0
  1  2  2  0
  2  3  1  0
  3  4  1  0
  5  4  1  6
  5  6  1  0
  6  7  1  0
  7  8  1  0
  8  9  1  0
  9 10  2  0
 10 11  1  0
 11 12  2  0
 12 13  1  0
  5 14  1  0
  9 14  1  0
 13 14  2  0
  2 15  1  0
 15 16  1  0
 16 17  2  0
 17 18  1  0
 18 19  2  0
 19 20  1  0
 16 21  1  0
 20 21  2  0
M  END
