pyridine_urea_5586
     RDKit          3D

 15 16  0  0  0  0  0  0  0  0999 V2000
    8.9070    0.5550   21.3210 O   0  0  0  0  0  0  0  0  0  0  0  0
    8.2890   -0.4570   21.6270 C   0  0  0  0  0  0  0  0  0  0  0  0
    7.0250   -0.7550   21.1450 N   0  0  0  0  0  0  0  0  0  0  0  0
    6.4070   -0.0260   20.0550 C   0  0  0  0  0  0  0  0  0  0  0  0
    5.1010    0.7880   20.3310 C   0  0  0  0  0  0  0  0  0  0  0  0
    4.5380    1.4750   19.2660 C   0  0  0  0  0  0  0  0  0  0  0  0
    5.2580    1.3700   17.9170 C   0  0  0  0  0  0  0  0  0  0  0  0
    6.3860    0.6500   17.7330 N   0  0  0  0  0  0  0  0  0  0  0  0
    6.9250   -0.0190   18.7750 C   0  0  0  0  0  0  0  0  0  0  0  0
    8.6800   -1.4530   22.4870 N   0  0  0  0  0  0  0  0  0  0  0  0
   10.0740   -1.6600   22.8770 C   0  0  2  0  0  0  0  0  0  0  0  0
   10.5960   -0.5950   23.8010 C   0  0  0  0  0  0  0  0  0  0  0  0
   11.6710   -0.3890   22.7570 C   0  0  1  0  0  0  0  0  0  0  0  0
   13.2740   -0.6990   23.1890 Cl  0  0  0  0  0  0  0  0  0  0  0  0
   10.9530   -1.3910   21.8700 C   0  0  0  0  0  0  0  0  0  0  0  0
  1  2  2  0
  2  3  1  0
  3  4  1  0
  4  5  2  0
  5  6  1  0
  6  7  2  0
  7  8  1  0
  4  9  1  0
  8  9  2  0
  2 10  1  0
 11 10  1  6
 11 12  1  0
 12 13  1  0
 13 14  1  1
 11 15  1  0
 13 15  1  0
M  END
