pyridine_urea_14232
     RDKit          3D

 22 23  0  0  0  0  0  0  0  0999 V2000
    8.9020    1.2650   21.1800 O   0  0  0  0  0  0  0  0  0  0  0  0
    8.3340    0.2550   21.6280 C   0  0  0  0  0  0  0  0  0  0  0  0
    8.7120   -0.3910   22.8660 N   0  0  0  0  0  0  0  0  0  0  0  0
   10.0390   -0.3020   23.2630 C   0  0  0  0  0  0  0  0  0  0  0  0
   10.5000    0.9470   23.6070 C   0  0  0  0  0  0  0  0  0  0  0  0
   11.8520    0.8910   23.9140 C   0  0  1  0  0  0  0  0  0  0  0  0
   11.9620   -0.2800   24.7450 O   0  0  0  0  0  0  0  0  0  0  0  0
   12.7470    0.6920   22.8580 C   0  0  0  0  0  0  0  0  0  0  0  0
   13.0750   -0.6980   22.3980 C   0  0  0  0  0  0  0  0  0  0  0  0
   11.8870   -1.5500   22.6930 C   0  0  0  0  0  0  0  0  0  0  0  0
   12.0810   -2.3850   23.9150 C   0  0  0  0  0  0  0  0  0  0  0  0
   11.0600   -3.1620   24.2810 C   0  0  0  0  0  0  0  0  0  0  0  0
    9.8560   -3.2150   23.5840 C   0  0  0  0  0  0  0  0  0  0  0  0
    9.6490   -2.4650   22.4330 C   0  0  0  0  0  0  0  0  0  0  0  0
   10.6700   -1.6260   21.9820 C   0  0  0  0  0  0  0  0  0  0  0  0
    7.2580   -0.3930   21.0560 N   0  0  0  0  0  0  0  0  0  0  0  0
    6.5500    0.1610   20.0030 C   0  0  0  0  0  0  0  0  0  0  0  0
    5.3950    0.8820   20.2550 C   0  0  0  0  0  0  0  0  0  0  0  0
    4.6530    1.4820   19.2560 C   0  0  0  0  0  0  0  0  0  0  0  0
    5.1260    1.3260   17.9620 C   0  0  0  0  0  0  0  0  0  0  0  0
    6.2320    0.6260   17.6650 N   0  0  0  0  0  0  0  0  0  0  0  0
    6.9190    0.0590   18.6820 C   0  0  0  0  0  0  0  0  0  0  0  0
  1  2  2  0
  2  3  1  0
  3  4  1  0
  4  5  1  0
  5  6  1  0
  6  7  1  1
  6  8  1  0
  8  9  1  0
  9 10  1  0
 10 11  2  0
 11 12  1  0
 12 13  2  0
 13 14  1  0
 10 15  1  0
 14 15  2  0
  2 16  1  0
 16 17  1  0
 17 18  2  0
 18 19  1  0
 19 20  2  0
 20 21  1  0
 17 22  1  0
 21 22  2  0
M  END
