pyridine_urea_12148
     RDKit          3D

 23 25  0  0  0  0  0  0  0  0999 V2000
    8.8230    0.7620   21.3270 O   0  0  0  0  0  0  0  0  0  0  0  0
    8.3330   -0.3300   21.5620 C   0  0  0  0  0  0  0  0  0  0  0  0
    8.8390   -1.3000   22.3940 N   0  0  0  0  0  0  0  0  0  0  0  0
   10.0830   -1.9430   22.2550 C   0  0  0  0  0  0  0  0  0  0  0  0
   10.9850   -1.9200   23.3290 C   0  0  1  0  0  0  0  0  0  0  0  0
   12.3430   -1.9980   22.9770 C   0  0  0  0  0  0  0  0  0  0  0  0
   12.8020   -0.7730   23.3740 C   0  0  0  0  0  0  0  0  0  0  0  0
   11.8050   -0.0940   23.9370 N   0  0  0  0  0  0  0  0  0  0  0  0
   11.6660    1.2170   23.5870 C   0  0  0  0  0  0  0  0  0  0  0  0
   12.6780    1.9450   22.9680 C   0  0  0  0  0  0  0  0  0  0  0  0
   12.4330    3.4100   22.6130 C   0  0  0  0  0  0  0  0  0  0  0  0
   11.1990    3.9890   22.9150 C   0  0  0  0  0  0  0  0  0  0  0  0
   10.2110    3.2220   23.5370 C   0  0  0  0  0  0  0  0  0  0  0  0
    8.5700    4.1050   23.9080 Br  0  0  0  0  0  0  0  0  0  0  0  0
   10.4530    1.8810   23.8570 C   0  0  0  0  0  0  0  0  0  0  0  0
   10.5640   -0.7540   24.0430 C   0  0  0  0  0  0  0  0  0  0  0  0
    7.1400   -0.7230   20.9970 N   0  0  0  0  0  0  0  0  0  0  0  0
    6.4460   -0.0400   20.0570 C   0  0  0  0  0  0  0  0  0  0  0  0
    5.2640    0.6980   20.2840 C   0  0  0  0  0  0  0  0  0  0  0  0
    4.6280    1.3870   19.2250 C   0  0  0  0  0  0  0  0  0  0  0  0
    5.1820    1.3280   17.9560 C   0  0  0  0  0  0  0  0  0  0  0  0
    6.3120    0.6130   17.7400 N   0  0  0  0  0  0  0  0  0  0  0  0
    6.9380   -0.0650   18.7690 C   0  0  0  0  0  0  0  0  0  0  0  0
  1  2  2  0
  2  3  1  0
  3  4  1  0
  5  4  1  6
  5  6  1  0
  6  7  1  0
  7  8  1  0
  8  9  1  0
  9 10  2  0
 10 11  1  0
 11 12  2  0
 12 13  1  0
 13 14  1  0
  9 15  1  0
 13 15  2  0
  5 16  1  0
  8 16  1  0
  2 17  1  0
 17 18  1  0
 18 19  2  0
 19 20  1  0
 20 21  2  0
 21 22  1  0
 18 23  1  0
 22 23  2  0
M  END
