pyridine_urea_2483
     RDKit          3D

 24 26  0  0  0  0  0  0  0  0999 V2000
    8.3800   -2.4620   23.0460 C   0  0  0  0  0  0  0  0  0  0  0  0
    9.8070   -1.9200   22.9290 C   0  0  0  0  0  0  0  0  0  0  0  0
   10.5320   -2.4100   21.8700 C   0  0  0  0  0  0  0  0  0  0  0  0
   11.8490   -2.1210   21.5210 C   0  0  0  0  0  0  0  0  0  0  0  0
   12.5080   -1.2260   22.3270 C   0  0  0  0  0  0  0  0  0  0  0  0
   11.9010   -0.6250   23.4340 C   0  0  0  0  0  0  0  0  0  0  0  0
   12.5130    0.2700   24.2400 C   0  0  0  0  0  0  0  0  0  0  0  0
   10.4460   -0.9980   23.7570 C   0  0  0  0  0  0  0  0  0  0  0  0
    9.7900   -0.3680   24.9060 N   0  0  0  0  0  0  0  0  0  0  0  0
   10.1740   -0.3500   26.1860 N   0  0  0  0  0  0  0  0  0  0  0  0
    9.2350    0.3630   26.9090 N   0  0  0  0  0  0  0  0  0  0  0  0
    8.2320    0.8310   26.1060 N   0  0  0  0  0  0  0  0  0  0  0  0
    8.6350    0.3340   24.8290 C   0  0  0  0  0  0  0  0  0  0  0  0
    7.8410    0.6170   23.7460 C   0  0  0  0  0  0  0  0  0  0  0  0
    8.3520   -0.1250   22.7140 N   0  0  0  0  0  0  0  0  0  0  0  0
    8.1760    0.3070   21.4500 C   0  0  0  0  0  0  0  0  0  0  0  0
    8.7650    1.3020   21.0060 O   0  0  0  0  0  0  0  0  0  0  0  0
    7.2860   -0.4910   20.8490 N   0  0  0  0  0  0  0  0  0  0  0  0
    6.5050    0.1390   19.9720 C   0  0  0  0  0  0  0  0  0  0  0  0
    5.3380    0.8450   20.2730 C   0  0  0  0  0  0  0  0  0  0  0  0
    4.6400    1.4660   19.2440 C   0  0  0  0  0  0  0  0  0  0  0  0
    5.1410    1.3520   17.9550 C   0  0  0  0  0  0  0  0  0  0  0  0
    6.2490    0.6700   17.6480 N   0  0  0  0  0  0  0  0  0  0  0  0
    6.9000    0.0840   18.6600 C   0  0  0  0  0  0  0  0  0  0  0  0
  1  2  1  0
  2  3  2  0
  3  4  1  0
  4  5  2  0
  5  6  1  0
  6  7  1  0
  2  8  1  0
  6  8  2  0
  8  9  1  0
  9 10  1  0
 10 11  2  0
 11 12  1  0
  9 13  1  0
 12 13  2  0
 13 14  1  0
 14 15  1  0
 15 16  1  0
 16 17  2  0
 16 18  1  0
 18 19  1  0
 19 20  2  0
 20 21  1  0
 21 22  2  0
 22 23  1  0
 19 24  1  0
 23 24  2  0
M  END
