pyridine_urea_1357
     RDKit          3D

 20 21  0  0  0  0  0  0  0  0999 V2000
    9.8670   -0.4560   25.7690 C   0  0  0  0  0  0  0  0  0  0  0  0
   11.1720   -1.3080   24.8890 S   0  0  0  0  0  0  0  0  0  0  0  0
   10.9080   -2.7280   24.8980 O   0  0  0  0  0  0  0  0  0  0  0  0
   12.4420   -0.7850   25.3420 O   0  0  0  0  0  0  0  0  0  0  0  0
   11.0000   -0.7660   23.1910 C   0  0  0  0  0  0  0  0  0  0  0  0
    9.7010   -1.3760   22.6740 C   0  0  0  0  0  0  0  0  0  0  0  0
    8.6660   -0.3910   22.7550 N   0  0  0  0  0  0  0  0  0  0  0  0
    8.2870    0.2530   21.6120 C   0  0  0  0  0  0  0  0  0  0  0  0
    8.9110    1.3790   21.1460 O   0  0  0  0  0  0  0  0  0  0  0  0
    7.2140   -0.3850   21.0450 N   0  0  0  0  0  0  0  0  0  0  0  0
    6.5090    0.1750   19.9900 C   0  0  0  0  0  0  0  0  0  0  0  0
    5.3440    0.8980   20.2760 C   0  0  0  0  0  0  0  0  0  0  0  0
    4.6440    1.4830   19.2320 C   0  0  0  0  0  0  0  0  0  0  0  0
    5.1400    1.3180   17.9510 C   0  0  0  0  0  0  0  0  0  0  0  0
    6.2430    0.6240   17.6530 N   0  0  0  0  0  0  0  0  0  0  0  0
    6.9050    0.0650   18.6800 C   0  0  0  0  0  0  0  0  0  0  0  0
   11.1240    0.6730   23.2280 C   0  0  0  0  0  0  0  0  0  0  0  0
   12.5180    0.8520   23.2580 C   0  0  0  0  0  0  0  0  0  0  0  0
   13.1060   -0.3350   22.6600 C   0  0  0  0  0  0  0  0  0  0  0  0
   12.1420   -1.2320   22.5180 C   0  0  0  0  0  0  0  0  0  0  0  0
  2  1  1  0
  2  3  2  0
  2  4  2  0
  2  5  1  0
  5  6  1  0
  6  7  1  0
  7  8  1  0
  8  9  2  0
  8 10  1  0
 10 11  1  0
 11 12  2  0
 12 13  1  0
 13 14  2  0
 14 15  1  0
 11 16  1  0
 15 16  2  0
  5 17  1  0
 17 18  1  0
 18 19  1  0
  5 20  1  0
 19 20  1  0
M  END
