pyridine_urea_9931
     RDKit          3D

 24 26  0  0  0  0  0  0  0  0999 V2000
    8.6530    0.7300   21.1770 O   0  0  0  0  0  0  0  0  0  0  0  0
    8.1700   -0.3210   21.5790 C   0  0  0  0  0  0  0  0  0  0  0  0
    7.0990   -0.9300   20.9670 N   0  0  0  0  0  0  0  0  0  0  0  0
    6.4440   -0.1590   19.9530 C   0  0  0  0  0  0  0  0  0  0  0  0
    5.1780    0.6040   20.3380 C   0  0  0  0  0  0  0  0  0  0  0  0
    4.5010    1.4320   19.2480 C   0  0  0  0  0  0  0  0  0  0  0  0
    5.1800    1.4050   17.8810 C   0  0  0  0  0  0  0  0  0  0  0  0
    6.3420    0.6450   17.6980 N   0  0  0  0  0  0  0  0  0  0  0  0
    6.9330   -0.0930   18.6760 C   0  0  0  0  0  0  0  0  0  0  0  0
    8.5860   -1.0210   22.7060 N   0  0  0  0  0  0  0  0  0  0  0  0
    9.9330   -1.1740   23.1740 C   0  0  2  0  0  0  0  0  0  0  0  0
   10.1790   -0.7360   24.4870 C   0  0  0  0  0  0  0  0  0  0  0  0
    9.3760    0.2680   24.9740 O   0  0  0  0  0  0  0  0  0  0  0  0
   11.0990   -1.3060   25.2520 N   0  0  0  0  0  0  0  0  0  0  0  0
   12.3230   -0.7070   25.2000 C   0  0  0  0  0  0  0  0  0  0  0  0
   13.1790   -1.7480   24.9470 C   0  0  0  0  0  0  0  0  0  0  0  0
   12.4210   -2.8760   24.7000 C   0  0  0  0  0  0  0  0  0  0  0  0
   11.0580   -2.5400   24.6570 C   0  0  0  0  0  0  0  0  0  0  0  0
   11.0260   -0.7680   22.1960 C   0  0  0  0  0  0  0  0  0  0  0  0
   10.2280    0.2690   22.6660 C   0  0  0  0  0  0  0  0  0  0  0  0
   10.8930    1.3610   23.4070 C   0  0  0  0  0  0  0  0  0  0  0  0
   12.1830    1.5750   22.9890 C   0  0  0  0  0  0  0  0  0  0  0  0
   12.9700    0.4370   22.9860 C   0  0  0  0  0  0  0  0  0  0  0  0
   12.4010   -0.7380   22.4810 C   0  0  0  0  0  0  0  0  0  0  0  0
  1  2  2  0
  2  3  1  0
  3  4  1  0
  4  5  2  0
  5  6  1  0
  6  7  2  0
  7  8  1  0
  4  9  1  0
  8  9  2  0
  2 10  1  0
 11 10  1  6
 11 12  1  0
 12 13  2  0
 12 14  1  0
 14 15  1  0
 15 16  1  0
 16 17  1  0
 14 18  1  0
 17 18  1  0
 11 19  1  0
 19 20  1  0
 20 21  1  0
 21 22  1  0
 22 23  1  0
 19 24  1  0
 23 24  1  0
M  END
