pyridine_urea_8900
     RDKit          3D

 20 21  0  0  0  0  0  0  0  0999 V2000
    8.9640    0.8990   21.4940 O   0  0  0  0  0  0  0  0  0  0  0  0
    8.5590   -0.2490   21.4280 C   0  0  0  0  0  0  0  0  0  0  0  0
    9.3830   -1.3150   21.6560 N   0  0  0  0  0  0  0  0  0  0  0  0
   10.1710   -1.3690   22.8780 C   0  0  0  0  0  0  0  0  0  0  0  0
   11.7020   -1.4230   22.6390 C   0  0  0  0  0  0  0  0  0  0  0  0
   12.5310   -0.6660   23.4780 C   0  0  0  0  0  0  0  0  0  0  0  0
   12.8400    0.6480   23.1400 C   0  0  0  0  0  0  0  0  0  0  0  0
   11.6750    1.0650   23.5090 C   0  0  0  0  0  0  0  0  0  0  0  0
   10.5630    0.5930   24.0160 C   0  0  0  0  0  0  0  0  0  0  0  0
   10.0820    1.8290   23.9550 C   0  0  0  0  0  0  0  0  0  0  0  0
    8.5160    2.3890   24.4140 Cl  0  0  0  0  0  0  0  0  0  0  0  0
   11.1670    2.6190   23.4110 C   0  0  0  0  0  0  0  0  0  0  0  0
   12.5110    2.0660   23.0170 C   0  0  0  0  0  0  0  0  0  0  0  0
    7.2800   -0.6270   21.0820 N   0  0  0  0  0  0  0  0  0  0  0  0
    6.5720   -0.0040   20.0480 C   0  0  0  0  0  0  0  0  0  0  0  0
    5.3180    0.7720   20.3260 C   0  0  0  0  0  0  0  0  0  0  0  0
    4.6010    1.4150   19.3420 C   0  0  0  0  0  0  0  0  0  0  0  0
    5.1490    1.2840   18.0340 C   0  0  0  0  0  0  0  0  0  0  0  0
    6.2680    0.5890   17.7410 N   0  0  0  0  0  0  0  0  0  0  0  0
    6.9500   -0.0340   18.7280 C   0  0  0  0  0  0  0  0  0  0  0  0
  1  2  2  0
  2  3  1  0
  3  4  1  0
  4  5  1  0
  5  6  1  0
  6  7  1  0
  7  8  2  0
  8  9  1  0
  9 10  2  0
 10 11  1  0
 10 12  1  0
  7 13  1  0
 12 13  2  0
  2 14  1  0
 14 15  1  0
 15 16  2  0
 16 17  1  0
 17 18  2  0
 18 19  1  0
 15 20  1  0
 19 20  2  0
M  END
