pyridine_urea_10395
     RDKit          3D

 23 24  0  0  0  0  0  0  0  0999 V2000
   13.2130   -2.0550   20.8960 C   0  0  0  0  0  0  0  0  0  0  0  0
   13.5970   -1.7250   22.1950 O   0  0  0  0  0  0  0  0  0  0  0  0
   13.4690   -2.7200   23.1010 C   0  0  0  0  0  0  0  0  0  0  0  0
   13.4430   -2.0120   24.3950 C   0  0  0  0  0  0  0  0  0  0  0  0
   13.2510   -0.9000   23.9200 O   0  0  0  0  0  0  0  0  0  0  0  0
   11.9480   -0.9900   23.7780 C   0  0  0  0  0  0  0  0  0  0  0  0
   11.4880   -0.4300   25.0510 C   0  0  0  0  0  0  0  0  0  0  0  0
   10.2020   -0.3340   25.3930 C   0  0  0  0  0  0  0  0  0  0  0  0
    9.4200    0.0790   26.4250 C   0  0  0  0  0  0  0  0  0  0  0  0
    9.5860   -0.8880   24.2450 C   0  0  0  0  0  0  0  0  0  0  0  0
    9.9300   -1.4040   23.0960 C   0  0  0  0  0  0  0  0  0  0  0  0
   11.2390   -1.5590   22.6320 C   0  0  0  0  0  0  0  0  0  0  0  0
   10.2180   -1.9930   21.8210 C   0  0  0  0  0  0  0  0  0  0  0  0
    9.5630   -0.9300   21.1140 N   0  0  0  0  0  0  0  0  0  0  0  0
    8.5620   -0.0900   21.5240 C   0  0  0  0  0  0  0  0  0  0  0  0
    8.8550    1.1070   22.2090 O   0  0  0  0  0  0  0  0  0  0  0  0
    7.3070   -0.5190   21.1390 N   0  0  0  0  0  0  0  0  0  0  0  0
    6.6030    0.0540   20.1060 C   0  0  0  0  0  0  0  0  0  0  0  0
    5.4710    0.8030   20.3630 C   0  0  0  0  0  0  0  0  0  0  0  0
    4.7510    1.4060   19.3530 C   0  0  0  0  0  0  0  0  0  0  0  0
    5.1670    1.2610   18.0540 C   0  0  0  0  0  0  0  0  0  0  0  0
    6.2530    0.5400   17.7310 N   0  0  0  0  0  0  0  0  0  0  0  0
    6.9450   -0.0470   18.7560 C   0  0  0  0  0  0  0  0  0  0  0  0
  1  2  1  0
  2  3  1  0
  3  4  1  0
  4  5  1  0
  5  6  1  0
  6  7  2  0
  7  8  1  0
  8  9  1  0
  8 10  2  0
 10 11  1  0
  6 12  1  0
 11 12  2  0
 12 13  1  0
 13 14  1  0
 14 15  1  0
 15 16  2  0
 15 17  1  0
 17 18  1  0
 18 19  2  0
 19 20  1  0
 20 21  2  0
 21 22  1  0
 18 23  1  0
 22 23  2  0
M  END
