pyridine_urea_14748
     RDKit          3D

 20 21  0  0  0  0  0  0  0  0999 V2000
   12.8730    3.8810   22.4710 C   0  0  0  0  0  0  0  0  0  0  0  0
   11.9760    3.2860   23.0530 O   0  0  0  0  0  0  0  0  0  0  0  0
   11.8470    1.9150   22.9590 C   0  0  0  0  0  0  0  0  0  0  0  0
   12.8370    1.0030   22.8400 C   0  0  0  0  0  0  0  0  0  0  0  0
   12.6150   -0.3740   22.7580 C   0  0  0  0  0  0  0  0  0  0  0  0
   11.4040   -1.1330   22.7890 C   0  0  0  0  0  0  0  0  0  0  0  0
   10.0560   -1.5240   22.8570 C   0  0  0  0  0  0  0  0  0  0  0  0
    9.4030   -1.3240   21.5540 N   0  0  0  0  0  0  0  0  0  0  0  0
    8.4760   -0.3310   21.3250 C   0  0  0  0  0  0  0  0  0  0  0  0
    8.8330    0.9900   21.2340 O   0  0  0  0  0  0  0  0  0  0  0  0
    7.1020   -0.8510   21.1720 N   0  0  0  0  0  0  0  0  0  0  0  0
    6.4690   -0.1310   20.0750 C   0  0  0  0  0  0  0  0  0  0  0  0
    5.3060    0.6040   20.3180 C   0  0  0  0  0  0  0  0  0  0  0  0
    4.6690    1.3160   19.3120 C   0  0  0  0  0  0  0  0  0  0  0  0
    5.1650    1.3280   18.0210 C   0  0  0  0  0  0  0  0  0  0  0  0
    6.2750    0.6490   17.6820 N   0  0  0  0  0  0  0  0  0  0  0  0
    6.9270   -0.0980   18.7730 C   0  0  0  0  0  0  0  0  0  0  0  0
   10.4040   -0.1150   22.9180 C   0  0  0  0  0  0  0  0  0  0  0  0
   10.5060    1.2640   22.9970 C   0  0  0  0  0  0  0  0  0  0  0  0
    8.9610    2.3530   23.1640 Br  0  0  0  0  0  0  0  0  0  0  0  0
  1  2  1  0
  2  3  1  0
  3  4  2  0
  4  5  1  0
  5  6  2  0
  6  7  1  0
  7  8  1  0
  8  9  1  0
  9 10  2  0
  9 11  1  0
 11 12  1  0
 12 13  2  0
 13 14  1  0
 14 15  2  0
 15 16  1  0
 12 17  1  0
 16 17  2  0
  6 18  1  0
  3 19  1  0
 18 19  2  0
 19 20  1  0
M  END
