pyridine_urea_10121
     RDKit          3D

 23 24  0  0  0  0  0  0  0  0999 V2000
   13.1030   -2.2270   23.0420 C   0  0  0  0  0  0  0  0  0  0  0  0
   12.3640   -1.6440   24.2310 C   0  0  0  0  0  0  0  0  0  0  0  0
   10.9460   -1.6970   24.0720 O   0  0  0  0  0  0  0  0  0  0  0  0
   10.3450   -2.9230   23.9280 C   0  0  0  0  0  0  0  0  0  0  0  0
   10.9370   -3.8710   24.3780 O   0  0  0  0  0  0  0  0  0  0  0  0
    9.1050   -2.9780   23.2630 C   0  0  0  0  0  0  0  0  0  0  0  0
    8.8590   -1.5210   22.3040 S   0  0  0  0  0  0  0  0  0  0  0  0
    7.3120   -2.1150   21.7800 C   0  0  0  0  0  0  0  0  0  0  0  0
    6.6950   -1.2630   20.9610 C   0  0  2  0  0  0  0  0  0  0  0  0
    6.0210   -1.7500   19.6530 C   0  0  0  0  0  0  0  0  0  0  0  0
    7.9870   -0.5770   20.7400 N   0  0  0  0  0  0  0  0  0  0  0  0
    8.1660    0.6970   21.1720 C   0  0  0  0  0  0  0  0  0  0  0  0
    9.1630    1.3860   21.2160 O   0  0  0  0  0  0  0  0  0  0  0  0
    6.8540    1.0870   21.5420 N   0  0  0  0  0  0  0  0  0  0  0  0
    6.1690    1.1020   20.2500 C   0  0  0  0  0  0  0  0  0  0  0  0
    4.9100    1.6520   20.2220 C   0  0  0  0  0  0  0  0  0  0  0  0
    4.3030    1.6700   18.9970 C   0  0  0  0  0  0  0  0  0  0  0  0
    5.0050    1.1220   17.8300 C   0  0  0  0  0  0  0  0  0  0  0  0
    6.2170    0.5850   17.8770 N   0  0  0  0  0  0  0  0  0  0  0  0
    6.7710    0.5850   19.0890 C   0  0  0  0  0  0  0  0  0  0  0  0
    6.9290   -3.3310   22.2510 N   0  0  0  0  0  0  0  0  0  0  0  0
    7.9370   -3.8480   23.0980 C   0  0  0  0  0  0  0  0  0  0  0  0
    7.6910   -5.0880   23.6520 C   0  0  0  0  0  0  0  0  0  0  0  0
  1  2  1  0
  2  3  1  0
  3  4  1  0
  4  5  2  0
  4  6  1  0
  6  7  1  0
  7  8  1  0
  8  9  1  0
  9 10  1  6
  9 11  1  0
 11 12  1  0
 12 13  2  0
 12 14  1  0
 14 15  1  0
 15 16  2  0
 16 17  1  0
 17 18  2  0
 18 19  1  0
 15 20  1  0
 19 20  2  0
  8 21  2  0
  6 22  2  0
 21 22  1  0
 22 23  1  0
M  END
