pyridine_urea_10013
     RDKit          3D

 24 25  0  0  0  0  0  0  0  0999 V2000
    8.8040    1.4140   21.2990 O   0  0  0  0  0  0  0  0  0  0  0  0
    8.4640    0.2330   21.2200 C   0  0  0  0  0  0  0  0  0  0  0  0
    9.3340   -0.8150   21.1590 N   0  0  0  0  0  0  0  0  0  0  0  0
   10.5960   -0.8740   21.7180 C   0  0  0  0  0  0  0  0  0  0  0  0
   11.3920   -1.9840   21.4980 C   0  0  2  0  0  0  0  0  0  0  0  0
   11.4370   -2.5700   20.4940 O   0  0  0  0  0  0  0  0  0  0  0  0
   10.6210   -2.2700   22.4520 C   0  0  0  0  0  0  0  0  0  0  0  0
   10.8430   -1.4550   23.2230 C   0  0  0  0  0  0  0  0  0  0  0  0
    9.5860   -1.2960   23.9690 C   0  0  0  0  0  0  0  0  0  0  0  0
    8.3200   -2.1820   23.4040 C   0  0  0  0  0  0  0  0  0  0  0  0
    6.7040   -1.8880   23.9230 Cl  0  0  0  0  0  0  0  0  0  0  0  0
    8.6200   -3.2400   22.4820 C   0  0  0  0  0  0  0  0  0  0  0  0
    9.6230   -2.9000   23.1120 C   0  0  0  0  0  0  0  0  0  0  0  0
   12.8330   -1.7410   21.7980 C   0  0  0  0  0  0  0  0  0  0  0  0
   13.0320   -0.7740   22.6930 F   0  0  0  0  0  0  0  0  0  0  0  0
   13.5780   -1.4130   20.7160 F   0  0  0  0  0  0  0  0  0  0  0  0
   13.4140   -2.8450   22.2560 F   0  0  0  0  0  0  0  0  0  0  0  0
    7.1800   -0.2250   21.0990 N   0  0  0  0  0  0  0  0  0  0  0  0
    6.3920    0.3110   20.0920 C   0  0  0  0  0  0  0  0  0  0  0  0
    5.1120    1.0300   20.2730 C   0  0  0  0  0  0  0  0  0  0  0  0
    4.5240    1.5080   19.1090 C   0  0  0  0  0  0  0  0  0  0  0  0
    5.1130    1.3130   17.8710 C   0  0  0  0  0  0  0  0  0  0  0  0
    6.2640    0.6520   17.7010 N   0  0  0  0  0  0  0  0  0  0  0  0
    6.8640    0.1730   18.7970 C   0  0  0  0  0  0  0  0  0  0  0  0
  1  2  2  0
  2  3  1  0
  3  4  1  0
  4  5  1  0
  5  6  1  6
  5  7  1  0
  7  8  2  0
  8  9  1  0
  9 10  2  0
 10 11  1  0
 10 12  1  0
  7 13  1  0
 12 13  2  0
  5 14  1  0
 14 15  1  0
 14 16  1  0
 14 17  1  0
  2 18  1  0
 18 19  1  0
 19 20  2  0
 20 21  1  0
 21 22  2  0
 22 23  1  0
 19 24  1  0
 23 24  2  0
M  END
