pyridine_urea_8259
     RDKit          3D

 23 25  0  0  0  0  0  0  0  0999 V2000
    8.7720    1.1620   21.2690 O   0  0  0  0  0  0  0  0  0  0  0  0
    7.9540    0.2940   21.6260 C   0  0  0  0  0  0  0  0  0  0  0  0
    7.7310   -0.0400   22.9450 N   0  0  0  0  0  0  0  0  0  0  0  0
    7.9240   -1.4090   23.3490 C   0  0  0  0  0  0  0  0  0  0  0  0
    9.4200   -1.7080   23.1630 C   0  0  0  0  0  0  0  0  0  0  0  0
   10.1490   -0.6430   23.6850 C   0  0  0  0  0  0  0  0  0  0  0  0
   11.2270   -0.0370   22.8090 C   0  0  0  0  0  0  0  0  0  0  0  0
   12.0840   -0.8990   22.3250 N   0  0  0  0  0  0  0  0  0  0  0  0
   12.5620   -1.5530   23.3090 C   0  0  0  0  0  0  0  0  0  0  0  0
   11.7260   -2.5080   23.6810 N   0  0  0  0  0  0  0  0  0  0  0  0
   11.9280   -3.4520   24.6790 C   0  0  0  0  0  0  0  0  0  0  0  0
   13.2400   -3.4110   25.4230 C   0  0  0  0  0  0  0  0  0  0  0  0
   14.0920   -2.3420   25.0240 C   0  0  0  0  0  0  0  0  0  0  0  0
   13.7090   -1.4230   23.9500 N   0  0  0  0  0  0  0  0  0  0  0  0
   11.5100   -1.8760   21.5630 C   0  0  0  0  0  0  0  0  0  0  0  0
    9.9980   -1.9760   21.7330 C   0  0  0  0  0  0  0  0  0  0  0  0
    7.1510   -0.4170   20.8020 N   0  0  0  0  0  0  0  0  0  0  0  0
    6.3930    0.1870   19.9580 C   0  0  0  0  0  0  0  0  0  0  0  0
    5.1830    0.8460   20.1550 C   0  0  0  0  0  0  0  0  0  0  0  0
    4.5590    1.4530   19.0700 C   0  0  0  0  0  0  0  0  0  0  0  0
    5.1620    1.3830   17.8280 C   0  0  0  0  0  0  0  0  0  0  0  0
    6.3140    0.7430   17.6220 N   0  0  0  0  0  0  0  0  0  0  0  0
    6.8870    0.1720   18.6780 C   0  0  0  0  0  0  0  0  0  0  0  0
  1  2  2  0
  2  3  1  0
  3  4  1  0
  4  5  1  0
  5  6  1  0
  6  7  1  0
  7  8  1  0
  8  9  1  0
  9 10  2  0
 10 11  1  0
 11 12  2  0
 12 13  1  0
  9 14  1  0
 13 14  2  0
  8 15  1  0
  5 16  1  0
 15 16  1  0
  2 17  1  0
 17 18  1  0
 18 19  2  0
 19 20  1  0
 20 21  2  0
 21 22  1  0
 18 23  1  0
 22 23  2  0
M  END
