pyridine_urea_6698
     RDKit          3D

 21 23  0  0  0  0  0  0  0  0999 V2000
    8.6870    1.2380   21.0760 O   0  0  0  0  0  0  0  0  0  0  0  0
    8.0580    0.3000   21.5950 C   0  0  0  0  0  0  0  0  0  0  0  0
    7.0610   -0.4340   21.0250 N   0  0  0  0  0  0  0  0  0  0  0  0
    6.3120    0.1780   20.0440 C   0  0  0  0  0  0  0  0  0  0  0  0
    4.9770    0.8710   20.3060 C   0  0  0  0  0  0  0  0  0  0  0  0
    4.3700    1.5040   19.0660 C   0  0  0  0  0  0  0  0  0  0  0  0
    5.1330    1.3700   17.7860 C   0  0  0  0  0  0  0  0  0  0  0  0
    6.2990    0.7210   17.6770 N   0  0  0  0  0  0  0  0  0  0  0  0
    6.8410    0.1600   18.7670 C   0  0  0  0  0  0  0  0  0  0  0  0
    8.3410   -0.0790   22.8660 N   0  0  0  0  0  0  0  0  0  0  0  0
    9.6890    0.2120   23.1130 C   0  0  0  0  0  0  0  0  0  0  0  0
   10.0930    1.3150   23.8000 C   0  0  0  0  0  0  0  0  0  0  0  0
   11.4240    1.5630   23.9730 C   0  0  0  0  0  0  0  0  0  0  0  0
   12.3790    0.7000   23.4740 C   0  0  0  0  0  0  0  0  0  0  0  0
   11.8770   -0.3920   22.7950 C   0  0  0  0  0  0  0  0  0  0  0  0
   12.7580   -1.3020   22.2520 C   0  0  0  0  0  0  0  0  0  0  0  0
   13.9910   -1.0900   22.4270 F   0  0  0  0  0  0  0  0  0  0  0  0
   12.1630   -2.4530   21.4970 C   0  0  0  0  0  0  0  0  0  0  0  0
   10.8120   -2.5120   21.4190 C   0  0  0  0  0  0  0  0  0  0  0  0
    9.9600   -1.7020   21.9240 N   0  0  0  0  0  0  0  0  0  0  0  0
   10.5620   -0.6510   22.6000 C   0  0  0  0  0  0  0  0  0  0  0  0
  1  2  2  0
  2  3  1  0
  3  4  1  0
  4  5  2  0
  5  6  1  0
  6  7  2  0
  7  8  1  0
  4  9  1  0
  8  9  2  0
  2 10  1  0
 10 11  1  0
 11 12  2  0
 12 13  1  0
 13 14  2  0
 14 15  1  0
 15 16  1  0
 16 17  1  0
 16 18  2  0
 18 19  1  0
 19 20  2  0
 11 21  1  0
 15 21  2  0
 20 21  1  0
M  END
