pyridine_urea_4842
     RDKit          3D

 21 24  0  0  0  0  0  0  0  0999 V2000
    8.9390    1.2150   21.1750 O   0  0  0  0  0  0  0  0  0  0  0  0
    8.6000    0.0480   21.3980 C   0  0  0  0  0  0  0  0  0  0  0  0
    9.4440   -0.8420   22.0320 N   0  0  0  0  0  0  0  0  0  0  0  0
   10.3200   -0.3290   23.0680 C   0  0  0  0  0  0  0  0  0  0  0  0
   11.8430   -0.3900   22.7490 C   0  0  1  0  0  0  0  0  0  0  0  0
   12.6170    0.6230   22.5870 C   0  0  1  0  0  0  0  0  0  0  0  0
   12.2350    1.9210   22.8580 C   0  0  0  0  0  0  0  0  0  0  0  0
   11.1910    1.5320   23.5700 C   0  0  0  0  0  0  0  0  0  0  0  0
    9.9750    2.1570   23.6560 C   0  0  0  0  0  0  0  0  0  0  0  0
    8.9720    1.6160   24.4490 C   0  0  0  0  0  0  0  0  0  0  0  0
    9.2340    0.4560   25.1470 C   0  0  0  0  0  0  0  0  0  0  0  0
   10.4770   -0.1750   25.0520 C   0  0  0  0  0  0  0  0  0  0  0  0
   11.4940    0.3800   24.2160 C   0  0  0  0  0  0  0  0  0  0  0  0
   12.9320   -0.1170   23.9290 C   0  0  1  0  0  0  0  0  0  0  0  0
    7.3870   -0.4990   21.0400 N   0  0  0  0  0  0  0  0  0  0  0  0
    6.6010    0.0810   20.0610 C   0  0  0  0  0  0  0  0  0  0  0  0
    5.4120    0.7840   20.4680 C   0  0  0  0  0  0  0  0  0  0  0  0
    4.6740    1.3640   19.4580 C   0  0  0  0  0  0  0  0  0  0  0  0
    5.1520    1.2220   18.0460 C   0  0  0  0  0  0  0  0  0  0  0  0
    6.2470    0.5590   17.7070 N   0  0  0  0  0  0  0  0  0  0  0  0
    6.9380    0.0080   18.7180 C   0  0  0  0  0  0  0  0  0  0  0  0
  1  2  2  0
  2  3  1  0
  3  4  1  0
  5  4  1  1
  5  6  1  0
  6  7  1  1
  7  8  1  0
  8  9  1  0
  9 10  2  0
 10 11  1  0
 11 12  2  0
  8 13  2  0
 12 13  1  0
  5 14  1  0
  6 14  1  0
 14 13  1  1
  2 15  1  0
 15 16  1  0
 16 17  2  0
 17 18  1  0
 18 19  2  0
 19 20  1  0
 16 21  1  0
 20 21  2  0
M  END
