pyridine_urea_5766
     RDKit          3D

 22 24  0  0  0  0  0  0  0  0999 V2000
   10.0700    1.8200   22.8090 C   0  0  0  0  0  0  0  0  0  0  0  0
   10.6690    0.4980   22.5450 N   0  0  0  0  0  0  0  0  0  0  0  0
   10.3900   -0.5400   23.3260 C   0  0  0  0  0  0  0  0  0  0  0  0
   11.5880   -1.1540   23.5000 C   0  0  0  0  0  0  0  0  0  0  0  0
   11.5940   -2.3390   23.9160 C   0  0  0  0  0  0  0  0  0  0  0  0
   12.7380   -1.6460   23.6220 C   0  0  0  0  0  0  0  0  0  0  0  0
   11.8980   -0.2360   23.1560 C   0  0  0  0  0  0  0  0  0  0  0  0
   10.3200   -0.0810   23.1640 C   0  0  0  0  0  0  0  0  0  0  0  0
    9.5490   -0.7130   22.0580 N   0  0  0  0  0  0  0  0  0  0  0  0
    8.6170    0.0960   21.4040 C   0  0  0  0  0  0  0  0  0  0  0  0
    8.7920    1.2700   21.0710 O   0  0  0  0  0  0  0  0  0  0  0  0
    7.4110   -0.4830   21.0940 N   0  0  0  0  0  0  0  0  0  0  0  0
    6.6250    0.0590   20.0680 C   0  0  0  0  0  0  0  0  0  0  0  0
    5.4500    0.7490   20.3640 C   0  0  0  0  0  0  0  0  0  0  0  0
    4.6690    1.3190   19.3650 C   0  0  0  0  0  0  0  0  0  0  0  0
    5.1060    1.1740   18.0640 C   0  0  0  0  0  0  0  0  0  0  0  0
    6.2230    0.5100   17.7360 N   0  0  0  0  0  0  0  0  0  0  0  0
    6.9540   -0.0330   18.7330 C   0  0  0  0  0  0  0  0  0  0  0  0
   13.0830    0.5120   22.8560 C   0  0  0  0  0  0  0  0  0  0  0  0
   12.9080   -0.6080   23.2460 C   0  0  0  0  0  0  0  0  0  0  0  0
   12.0740    0.5650   22.9120 C   0  0  0  0  0  0  0  0  0  0  0  0
   12.6720    1.7880   22.9640 O   0  0  0  0  0  0  0  0  0  0  0  0
  1  2  1  0
  2  3  1  0
  3  4  1  0
  4  5  2  0
  5  6  1  0
  6  7  2  0
  7  8  1  0
  8  9  1  0
  9 10  1  0
 10 11  2  0
 10 12  1  0
 12 13  1  0
 13 14  2  0
 14 15  1  0
 15 16  2  0
 16 17  1  0
 13 18  1  0
 17 18  2  0
  7 19  1  0
  4 20  1  0
 19 20  2  0
  2 21  1  0
 20 21  1  0
 21 22  2  0
M  END
