pyridine_urea_4802
     RDKit          3D

 21 22  0  0  0  0  0  0  0  0999 V2000
    8.9250    0.6880   21.2860 O   0  0  0  0  0  0  0  0  0  0  0  0
    8.1020   -0.0970   21.7350 C   0  0  0  0  0  0  0  0  0  0  0  0
    8.1190   -0.5420   23.0260 N   0  0  0  0  0  0  0  0  0  0  0  0
    9.3620   -0.8560   23.6760 C   0  0  0  0  0  0  0  0  0  0  0  0
    9.9130    0.3220   24.5230 C   0  0  0  0  0  0  0  0  0  0  0  0
    9.0450    1.3610   24.4050 F   0  0  0  0  0  0  0  0  0  0  0  0
    9.8910   -0.0130   25.8280 F   0  0  0  0  0  0  0  0  0  0  0  0
   11.1750    0.6910   24.1140 C   0  0  0  0  0  0  0  0  0  0  0  0
   12.4470    0.7620   23.4980 C   0  0  0  0  0  0  0  0  0  0  0  0
   13.0890   -0.0700   22.6010 C   0  0  0  0  0  0  0  0  0  0  0  0
   12.4860   -1.1830   22.1620 C   0  0  0  0  0  0  0  0  0  0  0  0
   13.1830   -2.2530   21.0690 Cl  0  0  0  0  0  0  0  0  0  0  0  0
   11.2870   -1.4200   22.6290 C   0  0  0  0  0  0  0  0  0  0  0  0
   10.7680   -0.5170   23.5130 C   0  0  0  0  0  0  0  0  0  0  0  0
    7.0390   -0.6300   21.0610 N   0  0  0  0  0  0  0  0  0  0  0  0
    6.4490   -0.0030   19.9990 C   0  0  0  0  0  0  0  0  0  0  0  0
    5.2960    0.7110   20.3450 C   0  0  0  0  0  0  0  0  0  0  0  0
    4.6350    1.4260   19.2130 C   0  0  0  0  0  0  0  0  0  0  0  0
    5.1520    1.3610   17.9400 C   0  0  0  0  0  0  0  0  0  0  0  0
    6.2670    0.6510   17.6500 N   0  0  0  0  0  0  0  0  0  0  0  0
    6.9050   -0.0300   18.7010 C   0  0  0  0  0  0  0  0  0  0  0  0
  1  2  2  0
  2  3  1  0
  3  4  1  0
  4  5  1  0
  5  6  1  0
  5  7  1  0
  5  8  1  0
  8  9  2  0
  9 10  1  0
 10 11  2  0
 11 12  1  0
 11 13  1  0
  8 14  1  0
 13 14  2  0
  2 15  1  0
 15 16  1  0
 16 17  2  0
 17 18  1  0
 18 19  2  0
 19 20  1  0
 16 21  1  0
 20 21  2  0
M  END
