pyridine_urea_5893
     RDKit          3D

 22 24  0  0  0  0  0  0  0  0999 V2000
   12.8750   -2.8030   24.6450 C   0  0  0  0  0  0  0  0  0  0  0  0
   13.1140   -1.4540   25.2320 C   0  0  0  0  0  0  0  0  0  0  0  0
   12.0950   -0.7750   25.3660 O   0  0  0  0  0  0  0  0  0  0  0  0
   11.8020   -0.2840   24.1630 C   0  0  2  0  0  0  0  0  0  0  0  0
   10.7540    0.5470   23.9930 C   0  0  0  0  0  0  0  0  0  0  0  0
   10.2790   -0.1330   22.9180 C   0  0  2  0  0  0  0  0  0  0  0  0
    8.9400   -0.5090   22.6400 N   0  0  0  0  0  0  0  0  0  0  0  0
    8.3850    0.1640   21.5720 C   0  0  0  0  0  0  0  0  0  0  0  0
    8.7990    1.2510   21.1480 O   0  0  0  0  0  0  0  0  0  0  0  0
    7.3010   -0.4740   21.0210 N   0  0  0  0  0  0  0  0  0  0  0  0
    6.5120    0.1400   20.0470 C   0  0  0  0  0  0  0  0  0  0  0  0
    5.2250    0.9120   20.2880 C   0  0  0  0  0  0  0  0  0  0  0  0
    4.6130    1.4600   19.1980 C   0  0  0  0  0  0  0  0  0  0  0  0
    5.1560    1.3060   17.9430 C   0  0  0  0  0  0  0  0  0  0  0  0
    6.2800    0.6240   17.6760 N   0  0  0  0  0  0  0  0  0  0  0  0
    6.9260    0.0590   18.7260 C   0  0  0  0  0  0  0  0  0  0  0  0
   11.1640   -1.3310   23.2230 C   0  0  1  0  0  0  0  0  0  0  0  0
   11.9600   -1.6880   22.2920 N   0  0  0  0  0  0  0  0  0  0  0  0
   12.9980   -0.9840   21.8410 C   0  0  0  0  0  0  0  0  0  0  0  0
   13.5830   -1.6360   20.8690 C   0  0  0  0  0  0  0  0  0  0  0  0
   12.9040   -2.7790   20.7470 C   0  0  0  0  0  0  0  0  0  0  0  0
   11.8760   -2.8680   21.5990 N   0  0  0  0  0  0  0  0  0  0  0  0
  1  2  1  0
  2  3  1  0
  4  3  1  1
  4  5  1  0
  5  6  1  0
  6  7  1  1
  7  8  1  0
  8  9  2  0
  8 10  1  0
 10 11  1  0
 11 12  2  0
 12 13  1  0
 13 14  2  0
 14 15  1  0
 11 16  1  0
 15 16  2  0
  4 17  1  0
  6 17  1  0
 17 18  1  6
 18 19  1  0
 19 20  2  0
 20 21  1  0
 18 22  1  0
 21 22  2  0
M  END
