pyridine_urea_12051
     RDKit          3D

 23 26  0  0  0  0  0  0  0  0999 V2000
    9.5920   -0.0740   26.1350 C   0  0  0  0  0  0  0  0  0  0  0  0
   10.3340   -0.1140   24.8390 C   0  0  1  0  0  0  0  0  0  0  0  0
   10.2030    1.2150   24.3760 C   0  0  0  0  0  0  0  0  0  0  0  0
   10.7450    1.3230   23.1800 C   0  0  1  0  0  0  0  0  0  0  0  0
   11.7340    2.2270   22.8240 C   0  0  0  0  0  0  0  0  0  0  0  0
   12.1560    0.7760   23.0170 C   0  0  0  0  0  0  0  0  0  0  0  0
   12.1620   -0.5640   23.3420 C   0  0  1  0  0  0  0  0  0  0  0  0
   13.4120   -1.0460   23.3160 F   0  0  0  0  0  0  0  0  0  0  0  0
   11.6840   -0.6320   24.7680 C   0  0  0  0  0  0  0  0  0  0  0  0
   11.4340   -1.3050   22.4170 C   0  0  0  0  0  0  0  0  0  0  0  0
   10.1170   -0.8810   22.6990 C   0  0  1  0  0  0  0  0  0  0  0  0
    9.1320   -1.3530   21.7920 N   0  0  0  0  0  0  0  0  0  0  0  0
    8.2360   -0.5060   21.2290 C   0  0  0  0  0  0  0  0  0  0  0  0
    8.5300    0.6680   21.0440 O   0  0  0  0  0  0  0  0  0  0  0  0
    7.0180   -0.9700   20.8750 N   0  0  0  0  0  0  0  0  0  0  0  0
    6.3120   -0.1830   19.9630 C   0  0  0  0  0  0  0  0  0  0  0  0
    5.1170    0.5010   20.1820 C   0  0  0  0  0  0  0  0  0  0  0  0
    4.5070    1.2800   19.1990 C   0  0  0  0  0  0  0  0  0  0  0  0
    5.1050    1.3920   17.9440 C   0  0  0  0  0  0  0  0  0  0  0  0
    6.3320    0.6830   17.7120 N   0  0  0  0  0  0  0  0  0  0  0  0
    6.8740   -0.0620   18.7130 C   0  0  0  0  0  0  0  0  0  0  0  0
    9.7270   -1.0340   24.0140 C   0  0  0  0  0  0  0  0  0  0  0  0
   10.0740    0.4510   22.4320 C   0  0  0  0  0  0  0  0  0  0  0  0
  2  1  1  1
  2  3  1  0
  3  4  1  0
  4  5  1  6
  4  6  1  0
  6  7  1  0
  7  8  1  1
  2  9  1  0
  7  9  1  0
  7 10  1  0
 10 11  1  0
 11 12  1  6
 12 13  1  0
 13 14  2  0
 13 15  1  0
 15 16  1  0
 16 17  2  0
 17 18  1  0
 18 19  2  0
 19 20  1  0
 16 21  1  0
 20 21  2  0
  2 22  1  0
 11 22  1  0
  4 23  1  0
 11 23  1  0
M  END
