pyridine_urea_6867
     RDKit          3D

 21 23  0  0  0  0  0  0  0  0999 V2000
    8.8660    0.8780   21.4890 O   0  0  0  0  0  0  0  0  0  0  0  0
    8.5010   -0.2870   21.4350 C   0  0  0  0  0  0  0  0  0  0  0  0
    9.3010   -1.3780   21.6520 N   0  0  0  0  0  0  0  0  0  0  0  0
    9.4070   -2.2040   22.7950 C   0  0  0  0  0  0  0  0  0  0  0  0
    8.1810   -2.8450   23.4810 C   0  0  0  0  0  0  0  0  0  0  0  0
    6.8260   -2.1870   23.4310 C   0  0  0  0  0  0  0  0  0  0  0  0
    5.9870   -2.9750   24.1170 N   0  0  0  0  0  0  0  0  0  0  0  0
    4.6080   -2.8800   24.4100 C   0  0  0  0  0  0  0  0  0  0  0  0
    3.9720   -3.8540   25.1660 C   0  0  0  0  0  0  0  0  0  0  0  0
    2.1600   -3.7780   25.5870 Br  0  0  0  0  0  0  0  0  0  0  0  0
    4.7240   -4.9310   25.6310 C   0  0  0  0  0  0  0  0  0  0  0  0
    6.0910   -5.0250   25.3390 C   0  0  0  0  0  0  0  0  0  0  0  0
    6.7590   -4.0740   24.5840 C   0  0  0  0  0  0  0  0  0  0  0  0
    8.0860   -3.9990   24.1920 N   0  0  0  0  0  0  0  0  0  0  0  0
    7.2070   -0.5450   21.0980 N   0  0  0  0  0  0  0  0  0  0  0  0
    6.5150    0.0760   20.0450 C   0  0  0  0  0  0  0  0  0  0  0  0
    5.3410    0.7990   20.3550 C   0  0  0  0  0  0  0  0  0  0  0  0
    4.5660    1.4800   19.3630 C   0  0  0  0  0  0  0  0  0  0  0  0
    5.1940    1.3020   17.9830 C   0  0  0  0  0  0  0  0  0  0  0  0
    6.3020    0.6070   17.7190 N   0  0  0  0  0  0  0  0  0  0  0  0
    6.9300    0.0130   18.7410 C   0  0  0  0  0  0  0  0  0  0  0  0
  1  2  2  0
  2  3  1  0
  3  4  1  0
  4  5  1  0
  5  6  2  0
  6  7  1  0
  7  8  1  0
  8  9  2  0
  9 10  1  0
  9 11  1  0
 11 12  2  0
  7 13  1  0
 12 13  1  0
  5 14  1  0
 13 14  2  0
  2 15  1  0
 15 16  1  0
 16 17  2  0
 17 18  1  0
 18 19  2  0
 19 20  1  0
 16 21  1  0
 20 21  2  0
M  END
