pyridine_urea_10407
     RDKit          3D

 22 24  0  0  0  0  0  0  0  0999 V2000
   13.5720   -2.9590   25.1330 C   0  0  0  0  0  0  0  0  0  0  0  0
   13.5390   -1.5500   25.2190 O   0  0  0  0  0  0  0  0  0  0  0  0
   12.6010   -1.0630   24.3990 C   0  0  0  0  0  0  0  0  0  0  0  0
   12.7550   -1.4330   22.8870 C   0  0  0  0  0  0  0  0  0  0  0  0
   11.4060   -0.6460   22.5570 C   0  0  0  0  0  0  0  0  0  0  0  0
   10.3660    0.1730   23.3750 C   0  0  0  0  0  0  0  0  0  0  0  0
   10.5000    0.3360   24.6940 C   0  0  0  0  0  0  0  0  0  0  0  0
   11.5970   -0.3290   24.9280 C   0  0  0  0  0  0  0  0  0  0  0  0
   11.3460   -0.3480   23.5780 C   0  0  1  0  0  0  0  0  0  0  0  0
   11.9580    0.7500   22.9290 C   0  0  0  0  0  0  0  0  0  0  0  0
   10.6520    0.7960   23.2050 C   0  0  0  0  0  0  0  0  0  0  0  0
    9.7510   -0.3730   23.4120 C   0  0  1  0  0  0  0  0  0  0  0  0
    9.0920   -0.8930   22.2270 N   0  0  0  0  0  0  0  0  0  0  0  0
    8.4120   -0.0100   21.4350 C   0  0  0  0  0  0  0  0  0  0  0  0
    8.9350    1.2870   21.1110 O   0  0  0  0  0  0  0  0  0  0  0  0
    7.2020   -0.4950   21.0240 N   0  0  0  0  0  0  0  0  0  0  0  0
    6.5100    0.0890   20.0090 C   0  0  0  0  0  0  0  0  0  0  0  0
    5.3560    0.7970   20.2700 C   0  0  0  0  0  0  0  0  0  0  0  0
    4.6510    1.4200   19.2540 C   0  0  0  0  0  0  0  0  0  0  0  0
    5.1290    1.3160   17.9650 C   0  0  0  0  0  0  0  0  0  0  0  0
    6.2420    0.6260   17.6710 N   0  0  0  0  0  0  0  0  0  0  0  0
    6.9040    0.0310   18.6920 C   0  0  0  0  0  0  0  0  0  0  0  0
  1  2  1  0
  2  3  1  0
  3  4  2  0
  4  5  1  0
  5  6  2  0
  6  7  1  0
  3  8  1  0
  7  8  2  0
  8  9  1  0
  9 10  1  6
  9 11  1  0
  9 12  1  0
 11 12  1  0
 12 13  1  6
 13 14  1  0
 14 15  2  0
 14 16  1  0
 16 17  1  0
 17 18  2  0
 18 19  1  0
 19 20  2  0
 20 21  1  0
 17 22  1  0
 21 22  2  0
M  END
