pyridine_urea_3980
     RDKit          3D

 28 30  0  0  0  0  0  0  0  0999 V2000
    9.8870   -2.1600   22.8900 C   0  0  0  0  0  0  0  0  0  0  0  0
   10.0660   -0.6800   22.9530 C   0  0  1  0  0  0  0  0  0  0  0  0
    8.7760   -0.0090   22.9540 N   0  0  0  0  0  0  0  0  0  0  0  0
    8.3230    0.4890   21.7360 C   0  0  0  0  0  0  0  0  0  0  0  0
    8.8340    1.4860   21.2100 O   0  0  0  0  0  0  0  0  0  0  0  0
    7.2780   -0.2410   21.2040 N   0  0  0  0  0  0  0  0  0  0  0  0
    6.5540    0.2300   20.0990 C   0  0  0  0  0  0  0  0  0  0  0  0
    5.4410    1.0130   20.3370 C   0  0  0  0  0  0  0  0  0  0  0  0
    4.7080    1.5220   19.2660 C   0  0  0  0  0  0  0  0  0  0  0  0
    5.1270    1.2210   17.9850 C   0  0  0  0  0  0  0  0  0  0  0  0
    6.1900    0.4610   17.7250 N   0  0  0  0  0  0  0  0  0  0  0  0
    6.8820   -0.0240   18.7790 C   0  0  0  0  0  0  0  0  0  0  0  0
   11.0210   -0.4030   24.1030 C   0  0  0  0  0  0  0  0  0  0  0  0
   10.9240   -0.7210   25.2900 C   0  0  0  0  0  0  0  0  0  0  0  0
   12.0640   -0.0280   24.7520 C   0  0  0  0  0  0  0  0  0  0  0  0
   11.3230   -0.0650   23.4400 C   0  0  0  0  0  0  0  0  0  0  0  0
   10.8880    0.0310   22.1980 N   0  0  0  0  0  0  0  0  0  0  0  0
   10.5860   -1.1820   21.6890 C   0  0  0  0  0  0  0  0  0  0  0  0
    9.3530   -1.5780   21.2260 O   0  0  0  0  0  0  0  0  0  0  0  0
   11.7540   -2.1010   21.6770 C   0  0  0  0  0  0  0  0  0  0  0  0
   12.1050   -2.9740   20.5240 C   0  0  0  0  0  0  0  0  0  0  0  0
   13.1050   -3.7460   20.4390 C   0  0  0  0  0  0  0  0  0  0  0  0
   13.8700   -3.8110   21.4360 C   0  0  0  0  0  0  0  0  0  0  0  0
   14.8850   -4.7060   21.1580 F   0  0  0  0  0  0  0  0  0  0  0  0
   13.6560   -3.0540   22.6410 C   0  0  0  0  0  0  0  0  0  0  0  0
   12.6030   -2.1940   22.7580 C   0  0  0  0  0  0  0  0  0  0  0  0
   12.4630    0.6290   22.9250 C   0  0  0  0  0  0  0  0  0  0  0  0
   12.2670    0.2540   24.0980 C   0  0  0  0  0  0  0  0  0  0  0  0
  2  1  1  1
  2  3  1  0
  3  4  1  0
  4  5  2  0
  4  6  1  0
  6  7  1  0
  7  8  2  0
  8  9  1  0
  9 10  2  0
 10 11  1  0
  7 12  1  0
 11 12  2  0
  2 13  1  0
 13 14  2  0
 14 15  1  0
 15 16  2  0
 16 17  1  0
 17 18  1  0
 18 19  2  0
 18 20  1  0
 20 21  2  0
 21 22  1  0
 22 23  2  0
 23 24  1  0
 23 25  1  0
 20 26  1  0
 25 26  2  0
 16 27  1  0
 13 28  1  0
 27 28  2  0
M  END
