pyridine_urea_13058
     RDKit          3D

 18 18  0  0  0  0  0  0  0  0999 V2000
   13.0550   -0.9850   22.4500 C   0  0  0  0  0  0  0  0  0  0  0  0
   12.6970    0.3730   22.9690 C   0  0  0  0  0  0  0  0  0  0  0  0
   11.9200    0.5050   24.1050 C   0  0  0  0  0  0  0  0  0  0  0  0
   10.5440    0.3100   24.0380 C   0  0  1  0  0  0  0  0  0  0  0  0
    9.7630    1.4560   23.9150 C   0  0  0  0  0  0  0  0  0  0  0  0
    8.4570    1.4490   24.7300 C   0  0  0  0  0  0  0  0  0  0  0  0
    7.7450    2.4440   24.8840 O   0  0  0  0  0  0  0  0  0  0  0  0
   10.2960   -0.7020   22.8850 C   0  0  0  0  0  0  0  0  0  0  0  0
    8.9010   -0.8210   22.5410 N   0  0  0  0  0  0  0  0  0  0  0  0
    8.4030   -0.0240   21.5340 C   0  0  0  0  0  0  0  0  0  0  0  0
    9.0040    1.2640   21.1770 O   0  0  0  0  0  0  0  0  0  0  0  0
    7.2870   -0.5920   20.9630 N   0  0  0  0  0  0  0  0  0  0  0  0
    6.4960    0.0680   20.0200 C   0  0  0  0  0  0  0  0  0  0  0  0
    5.3220    0.7550   20.2710 C   0  0  0  0  0  0  0  0  0  0  0  0
    4.6310    1.3940   19.2490 C   0  0  0  0  0  0  0  0  0  0  0  0
    5.1600    1.3130   17.9620 C   0  0  0  0  0  0  0  0  0  0  0  0
    6.2910    0.6440   17.6850 N   0  0  0  0  0  0  0  0  0  0  0  0
    6.9230    0.0430   18.7090 C   0  0  0  0  0  0  0  0  0  0  0  0
  1  2  1  0
  2  3  1  0
  4  3  1  6
  4  5  1  0
  5  6  1  0
  6  7  1  0
  4  8  1  0
  8  9  1  0
  9 10  1  0
 10 11  2  0
 10 12  1  0
 12 13  1  0
 13 14  2  0
 14 15  1  0
 15 16  2  0
 16 17  1  0
 13 18  1  0
 17 18  2  0
M  END
