pyridine_urea_2847
     RDKit          3D

 22 23  0  0  0  0  0  0  0  0999 V2000
    3.9640   -2.6610   24.3040 C   0  0  0  0  0  0  0  0  0  0  0  0
    5.0540   -2.4660   23.2520 C   0  0  2  0  0  0  0  0  0  0  0  0
    5.5970   -3.9050   22.9900 C   0  0  0  0  0  0  0  0  0  0  0  0
    6.6600   -4.4960   23.7350 C   0  0  0  0  0  0  0  0  0  0  0  0
    7.2140   -5.9080   23.4940 C   0  0  0  0  0  0  0  0  0  0  0  0
    6.6110   -6.6100   22.4890 C   0  0  0  0  0  0  0  0  0  0  0  0
    5.5480   -5.7190   21.9130 C   0  0  0  0  0  0  0  0  0  0  0  0
    4.9880   -4.7170   21.9100 N   0  0  0  0  0  0  0  0  0  0  0  0
    6.0460   -1.7910   23.8010 N   0  0  0  0  0  0  0  0  0  0  0  0
    5.7370   -0.4360   23.8960 C   0  0  0  0  0  0  0  0  0  0  0  0
    7.2620   -2.2040   23.2700 C   0  0  0  0  0  0  0  0  0  0  0  0
    8.3180   -1.1390   23.5520 C   0  0  0  0  0  0  0  0  0  0  0  0
    9.0280   -0.6040   22.4930 N   0  0  0  0  0  0  0  0  0  0  0  0
    8.4700    0.1710   21.4570 C   0  0  0  0  0  0  0  0  0  0  0  0
    8.8710    1.2930   21.1220 O   0  0  0  0  0  0  0  0  0  0  0  0
    7.4280   -0.5050   20.9190 N   0  0  0  0  0  0  0  0  0  0  0  0
    6.6280    0.1380   20.0350 C   0  0  0  0  0  0  0  0  0  0  0  0
    5.4950    0.8880   20.3470 C   0  0  0  0  0  0  0  0  0  0  0  0
    4.7760    1.4990   19.3180 C   0  0  0  0  0  0  0  0  0  0  0  0
    5.2000    1.3530   18.0080 C   0  0  0  0  0  0  0  0  0  0  0  0
    6.2850    0.6290   17.6960 N   0  0  0  0  0  0  0  0  0  0  0  0
    6.9590    0.0460   18.7030 C   0  0  0  0  0  0  0  0  0  0  0  0
  2  1  1  1
  2  3  1  0
  3  4  2  0
  4  5  1  0
  5  6  2  0
  6  7  1  0
  3  8  1  0
  7  8  2  0
  2  9  1  0
  9 10  1  0
  9 11  1  0
 11 12  1  0
 12 13  1  0
 13 14  1  0
 14 15  2  0
 14 16  1  0
 16 17  1  0
 17 18  2  0
 18 19  1  0
 19 20  2  0
 20 21  1  0
 17 22  1  0
 21 22  2  0
M  END
