pyridine_urea_13687
     RDKit          3D

 26 28  0  0  0  0  0  0  0  0999 V2000
   13.2990   -2.7250   23.1510 C   0  0  0  0  0  0  0  0  0  0  0  0
   12.6510   -2.5290   21.9390 N   0  0  0  0  0  0  0  0  0  0  0  0
   12.5400   -3.3110   20.7600 C   0  0  0  0  0  0  0  0  0  0  0  0
   13.7800   -4.0460   20.3290 C   0  0  0  0  0  0  0  0  0  0  0  0
   14.8560   -3.5080   19.5860 C   0  0  0  0  0  0  0  0  0  0  0  0
   16.0980   -4.1940   19.2620 C   0  0  0  0  0  0  0  0  0  0  0  0
   16.2020   -5.3690   19.6980 C   0  0  0  0  0  0  0  0  0  0  0  0
   15.2720   -5.9310   20.3040 C   0  0  0  0  0  0  0  0  0  0  0  0
   14.1730   -5.4060   20.5960 C   0  0  0  0  0  0  0  0  0  0  0  0
   12.9000   -1.3270   21.4530 C   0  0  0  0  0  0  0  0  0  0  0  0
   12.1600   -0.5900   22.2700 C   0  0  0  0  0  0  0  0  0  0  0  0
   12.5440    0.4240   23.1140 C   0  0  0  0  0  0  0  0  0  0  0  0
   11.6250    1.1010   23.9080 C   0  0  0  0  0  0  0  0  0  0  0  0
   10.2160    0.6070   23.7370 C   0  0  0  0  0  0  0  0  0  0  0  0
    9.8870   -0.4050   22.8750 C   0  0  0  0  0  0  0  0  0  0  0  0
    8.6180   -0.8840   22.6380 N   0  0  0  0  0  0  0  0  0  0  0  0
    7.9070   -0.2410   21.5500 C   0  0  0  0  0  0  0  0  0  0  0  0
    8.3130    0.8530   21.1680 O   0  0  0  0  0  0  0  0  0  0  0  0
    6.8620   -0.9110   21.0700 N   0  0  0  0  0  0  0  0  0  0  0  0
    6.2120   -0.1700   20.1560 C   0  0  0  0  0  0  0  0  0  0  0  0
    5.0600    0.5760   20.3590 C   0  0  0  0  0  0  0  0  0  0  0  0
    4.4550    1.3860   19.2140 C   0  0  0  0  0  0  0  0  0  0  0  0
    5.1490    1.3440   17.8740 C   0  0  0  0  0  0  0  0  0  0  0  0
    6.2550    0.6280   17.6580 N   0  0  0  0  0  0  0  0  0  0  0  0
    6.7830   -0.1070   18.7240 C   0  0  0  0  0  0  0  0  0  0  0  0
   10.8750   -1.0080   22.1400 C   0  0  0  0  0  0  0  0  0  0  0  0
  1  2  1  0
  2  3  1  0
  3  4  1  0
  4  5  2  0
  5  6  1  0
  6  7  2  0
  7  8  1  0
  4  9  1  0
  8  9  2  0
  2 10  1  0
 10 11  1  0
 11 12  2  0
 12 13  1  0
 13 14  2  0
 14 15  1  0
 15 16  1  0
 16 17  1  0
 17 18  2  0
 17 19  1  0
 19 20  1  0
 20 21  2  0
 21 22  1  0
 22 23  2  0
 23 24  1  0
 20 25  1  0
 24 25  2  0
 11 26  1  0
 15 26  2  0
M  END
