pyridine_urea_5902
     RDKit          3D

 28 30  0  0  0  0  0  0  0  0999 V2000
   21.1820    5.0760   25.8150 C   0  0  0  0  0  0  0  0  0  0  0  0
   20.0710    4.1050   26.0800 C   0  0  0  0  0  0  0  0  0  0  0  0
   20.0550    3.5100   27.3410 C   0  0  0  0  0  0  0  0  0  0  0  0
   19.0590    2.6030   27.7800 C   0  0  0  0  0  0  0  0  0  0  0  0
   17.9400    2.1430   26.9200 C   0  0  0  0  0  0  0  0  0  0  0  0
   16.4090    0.0520   27.5890 C   0  0  0  0  0  0  0  0  0  0  0  0
   15.5810   -1.4450   26.7480 C   0  0  0  0  0  0  0  0  0  0  0  0
   15.6900   -1.5570   26.8470 C   0  0  0  0  0  0  0  0  0  0  0  0
   18.0230    3.0330   24.9180 C   0  0  0  0  0  0  0  0  0  0  0  0
   17.0880    2.6060   23.3090 O   0  0  0  0  0  0  0  0  0  0  0  0
   15.1690    1.9250   22.2240 C   0  0  0  0  0  0  0  0  0  0  0  0
   13.7460    1.1390   22.5320 C   0  0  0  0  0  0  0  0  0  0  0  0
   12.6300    1.6880   23.2120 C   0  0  0  0  0  0  0  0  0  0  0  0
   11.3740    1.0630   23.3090 C   0  0  0  0  0  0  0  0  0  0  0  0
   11.0810   -0.1610   22.7500 C   0  0  0  0  0  0  0  0  0  0  0  0
    9.7560   -0.7400   22.7370 N   0  0  0  0  0  0  0  0  0  0  0  0
    8.7790   -0.0510   21.7650 C   0  0  0  0  0  0  0  0  0  0  0  0
    8.9480    1.2940   21.3380 O   0  0  0  0  0  0  0  0  0  0  0  0
    7.6590   -0.7650   21.2290 N   0  0  0  0  0  0  0  0  0  0  0  0
    6.7890   -0.1630   20.2720 C   0  0  0  0  0  0  0  0  0  0  0  0
    5.6140    0.5660   20.5570 C   0  0  0  0  0  0  0  0  0  0  0  0
    4.8250    1.1430   19.5440 C   0  0  0  0  0  0  0  0  0  0  0  0
    5.2380    0.9750   18.2180 C   0  0  0  0  0  0  0  0  0  0  0  0
    6.3410    0.2860   17.8850 N   0  0  0  0  0  0  0  0  0  0  0  0
    7.0770   -0.2610   18.9010 C   0  0  0  0  0  0  0  0  0  0  0  0
   12.1440   -0.7950   22.1330 C   0  0  0  0  0  0  0  0  0  0  0  0
   13.4140   -0.1820   22.0270 C   0  0  0  0  0  0  0  0  0  0  0  0
   19.1610    3.9010   25.0060 C   0  0  0  0  0  0  0  0  0  0  0  0
  1  2  1  0
  2  3  2  0
  3  4  1  0
  4  5  2  0
  5  6  1  0
  6  7  1  0
  6  8  1  0
  5  9  1  0
  9 10  1  0
 10 11  1  0
 11 12  1  0
 12 13  2  0
 13 14  1  0
 14 15  2  0
 15 16  1  0
 16 17  1  0
 17 18  2  0
 17 19  1  0
 19 20  1  0
 20 21  2  0
 21 22  1  0
 22 23  2  0
 23 24  1  0
 20 25  1  0
 24 25  2  0
 15 26  1  0
 12 27  1  0
 26 27  2  0
  2 28  1  0
  9 28  2  0
M  END
