pyridine_urea_1895
     RDKit          3D

 17 18  0  0  0  0  0  0  0  0999 V2000
   12.6600    1.7240   22.9990 C   0  0  0  0  0  0  0  0  0  0  0  0
   11.4870    0.8750   22.6210 C   0  0  0  0  0  0  0  0  0  0  0  0
   11.4460   -0.4970   22.8420 C   0  0  0  0  0  0  0  0  0  0  0  0
   10.1850   -1.0640   23.0040 C   0  0  0  0  0  0  0  0  0  0  0  0
    9.3030   -1.1350   21.8990 N   0  0  0  0  0  0  0  0  0  0  0  0
    8.4600   -0.1290   21.4390 C   0  0  0  0  0  0  0  0  0  0  0  0
    8.8440    1.0220   21.3020 O   0  0  0  0  0  0  0  0  0  0  0  0
    7.2160   -0.5890   21.1650 N   0  0  0  0  0  0  0  0  0  0  0  0
    6.5530    0.0030   20.1370 C   0  0  0  0  0  0  0  0  0  0  0  0
    5.3840    0.7090   20.4260 C   0  0  0  0  0  0  0  0  0  0  0  0
    4.6440    1.3900   19.2600 C   0  0  0  0  0  0  0  0  0  0  0  0
    5.1930    1.2540   18.0100 C   0  0  0  0  0  0  0  0  0  0  0  0
    6.3190    0.5640   17.7760 N   0  0  0  0  0  0  0  0  0  0  0  0
    6.9610   -0.0380   18.8090 C   0  0  0  0  0  0  0  0  0  0  0  0
   12.2340   -0.7790   24.1060 C   0  0  0  0  0  0  0  0  0  0  0  0
   13.0120   -1.5610   23.3460 C   0  0  0  0  0  0  0  0  0  0  0  0
   12.5620   -1.0640   22.1560 C   0  0  0  0  0  0  0  0  0  0  0  0
  1  2  3  0
  3  2  1  0
  3  4  1  0
  4  5  1  0
  5  6  1  0
  6  7  2  0
  6  8  1  0
  8  9  1  0
  9 10  2  0
 10 11  1  0
 11 12  2  0
 12 13  1  0
  9 14  1  0
 13 14  2  0
  3 15  1  0
 15 16  1  0
  3 17  1  0
 16 17  1  0
M  END
