pyridine_urea_2028
     RDKit          3D

 21 24  0  0  0  0  0  0  0  0999 V2000
    8.6400    0.7930   21.2960 O   0  0  0  0  0  0  0  0  0  0  0  0
    8.3670   -0.3930   21.1560 C   0  0  0  0  0  0  0  0  0  0  0  0
    7.1220   -0.8550   20.8550 N   0  0  0  0  0  0  0  0  0  0  0  0
    6.3400   -0.1010   19.9880 C   0  0  0  0  0  0  0  0  0  0  0  0
    5.0140    0.5880   20.3330 C   0  0  0  0  0  0  0  0  0  0  0  0
    4.4040    1.3670   19.1710 C   0  0  0  0  0  0  0  0  0  0  0  0
    5.1490    1.3650   17.8700 C   0  0  0  0  0  0  0  0  0  0  0  0
    6.3050    0.7130   17.6900 N   0  0  0  0  0  0  0  0  0  0  0  0
    6.8460    0.0270   18.7090 C   0  0  0  0  0  0  0  0  0  0  0  0
    9.3210   -1.3740   21.2640 N   0  0  0  0  0  0  0  0  0  0  0  0
   10.2720   -1.1700   22.2820 C   0  0  1  0  0  0  0  0  0  0  0  0
   11.5920   -1.0340   22.1740 C   0  0  2  0  0  0  0  0  0  0  0  0
   12.3100   -0.7190   23.3050 C   0  0  0  0  0  0  0  0  0  0  0  0
   11.2670   -0.3720   24.1640 C   0  0  0  0  0  0  0  0  0  0  0  0
   11.2370   -0.5250   25.4700 C   0  0  0  0  0  0  0  0  0  0  0  0
   10.0710   -0.1800   26.3220 C   0  0  0  0  0  0  0  0  0  0  0  0
    8.8820    0.3880   25.5380 C   0  0  0  0  0  0  0  0  0  0  0  0
    7.2570    0.8810   26.3700 Br  0  0  0  0  0  0  0  0  0  0  0  0
    9.0210    0.5140   24.2100 C   0  0  0  0  0  0  0  0  0  0  0  0
   10.1720    0.1330   23.6000 C   0  0  0  0  0  0  0  0  0  0  0  0
   10.4340    0.1230   22.3440 C   0  0  2  0  0  0  0  0  0  0  0  0
  1  2  2  0
  2  3  1  0
  3  4  1  0
  4  5  2  0
  5  6  1  0
  6  7  2  0
  7  8  1  0
  4  9  1  0
  8  9  2  0
  2 10  1  0
 11 10  1  6
 11 12  1  0
 12 13  1  1
 13 14  1  0
 14 15  1  0
 15 16  2  0
 16 17  1  0
 17 18  1  0
 17 19  2  0
 14 20  2  0
 19 20  1  0
 11 21  1  0
 12 21  1  0
 21 20  1  1
M  END
