pyridine_urea_10573
     RDKit          3D

 21 22  0  0  0  0  0  0  0  0999 V2000
   13.1280    0.1230   23.2690 C   0  0  0  0  0  0  0  0  0  0  0  0
   11.8380   -0.7060   23.2580 C   0  0  0  0  0  0  0  0  0  0  0  0
   10.8460    0.2640   22.5700 C   0  0  0  0  0  0  0  0  0  0  0  0
   12.1050   -2.0920   22.5140 C   0  0  0  0  0  0  0  0  0  0  0  0
   11.2290   -0.9160   24.7120 C   0  0  0  0  0  0  0  0  0  0  0  0
   12.3790   -0.3610   24.8720 C   0  0  0  0  0  0  0  0  0  0  0  0
   12.9420   -0.2110   23.6940 C   0  0  0  0  0  0  0  0  0  0  0  0
   12.2410   -0.6620   22.5730 C   0  0  0  0  0  0  0  0  0  0  0  0
   10.9140   -1.2860   22.4900 C   0  0  0  0  0  0  0  0  0  0  0  0
    9.6700   -1.8510   22.5940 C   0  0  0  0  0  0  0  0  0  0  0  0
    8.9580   -1.4800   21.4110 N   0  0  0  0  0  0  0  0  0  0  0  0
    8.2590   -0.2090   21.3630 C   0  0  0  0  0  0  0  0  0  0  0  0
    8.7870    0.8880   21.4720 O   0  0  0  0  0  0  0  0  0  0  0  0
    6.9390   -0.4240   21.1280 N   0  0  0  0  0  0  0  0  0  0  0  0
    6.3420    0.1690   20.0320 C   0  0  0  0  0  0  0  0  0  0  0  0
    5.0560    0.9610   20.2000 C   0  0  0  0  0  0  0  0  0  0  0  0
    4.5470    1.5340   19.0730 C   0  0  0  0  0  0  0  0  0  0  0  0
    5.1750    1.3930   17.8550 C   0  0  0  0  0  0  0  0  0  0  0  0
    6.3030    0.6940   17.6660 N   0  0  0  0  0  0  0  0  0  0  0  0
    6.8620    0.0960   18.7480 C   0  0  0  0  0  0  0  0  0  0  0  0
   10.4480   -1.3650   23.8210 N   0  0  0  0  0  0  0  0  0  0  0  0
  2  1  1  0
  2  3  1  0
  2  4  1  0
  2  5  1  0
  5  6  2  0
  6  7  1  0
  7  8  2  0
  8  9  1  0
  9 10  1  0
 10 11  1  0
 11 12  1  0
 12 13  2  0
 12 14  1  0
 14 15  1  0
 15 16  2  0
 16 17  1  0
 17 18  2  0
 18 19  1  0
 15 20  1  0
 19 20  2  0
  5 21  1  0
  9 21  2  0
M  END
