pyridine_urea_7080
     RDKit          3D

 20 21  0  0  0  0  0  0  0  0999 V2000
    4.1440    0.5870   20.3230 C   0  0  0  0  0  0  0  0  0  0  0  0
    5.3950    0.5080   19.4260 C   0  0  0  0  0  0  0  0  0  0  0  0
    5.8130   -0.8130   19.1160 C   0  0  0  0  0  0  0  0  0  0  0  0
    6.5470    1.3860   20.0170 C   0  0  0  0  0  0  0  0  0  0  0  0
    5.0010    1.1800   18.1290 C   0  0  0  0  0  0  0  0  0  0  0  0
    4.1390    1.3710   19.1700 N   0  0  0  0  0  0  0  0  0  0  0  0
    4.8610    0.6530   20.2750 C   0  0  0  0  0  0  0  0  0  0  0  0
    6.2490   -0.0490   19.9860 C   0  0  0  0  0  0  0  0  0  0  0  0
    6.9510   -0.7420   21.1130 N   0  0  0  0  0  0  0  0  0  0  0  0
    8.3310   -0.2890   21.2870 C   0  0  0  0  0  0  0  0  0  0  0  0
    8.6390    0.9040   21.2630 O   0  0  0  0  0  0  0  0  0  0  0  0
    9.2860   -1.2460   21.4740 N   0  0  0  0  0  0  0  0  0  0  0  0
   10.4250   -1.0510   22.2400 C   0  0  0  0  0  0  0  0  0  0  0  0
   11.7950   -1.5120   21.8200 C   0  0  0  0  0  0  0  0  0  0  0  0
   13.0110   -1.2980   22.5740 C   0  0  0  0  0  0  0  0  0  0  0  0
   12.6500   -0.6030   23.7270 C   0  0  0  0  0  0  0  0  0  0  0  0
   11.3760   -0.5990   23.3670 N   0  0  0  0  0  0  0  0  0  0  0  0
   10.1440   -0.3550   23.4640 C   0  0  0  0  0  0  0  0  0  0  0  0
    6.8500   -0.0380   18.6960 C   0  0  0  0  0  0  0  0  0  0  0  0
    6.1560    0.6300   17.7290 N   0  0  0  0  0  0  0  0  0  0  0  0
  2  1  1  0
  2  3  1  0
  2  4  1  0
  2  5  1  0
  5  6  2  0
  6  7  1  0
  7  8  2  0
  8  9  1  0
  9 10  1  0
 10 11  2  0
 10 12  1  0
 12 13  1  0
 13 14  2  0
 14 15  1  0
 15 16  2  0
 16 17  1  0
 13 18  1  0
 17 18  2  0
  8 19  1  0
  5 20  1  0
 19 20  2  0
M  END
