pyridine_urea_14121
     RDKit          3D

 23 25  0  0  0  0  0  0  0  0999 V2000
   13.5350   -1.4460   22.4470 C   0  0  0  0  0  0  0  0  0  0  0  0
   13.4680   -1.0150   23.5730 C   0  0  0  0  0  0  0  0  0  0  0  0
   13.8910   -1.9500   24.6010 O   0  0  0  0  0  0  0  0  0  0  0  0
   12.8810    0.2970   23.7380 N   0  0  0  0  0  0  0  0  0  0  0  0
   13.1960    1.3600   22.8400 C   0  0  0  0  0  0  0  0  0  0  0  0
   12.2950    2.5610   23.0180 C   0  0  0  0  0  0  0  0  0  0  0  0
   11.1400    2.1280   23.6090 C   0  0  0  0  0  0  0  0  0  0  0  0
   10.8270    0.7140   23.2330 C   0  0  0  0  0  0  0  0  0  0  0  0
    9.5370    0.3410   22.7800 C   0  0  0  0  0  0  0  0  0  0  0  0
    9.3900   -0.9200   22.4010 C   0  0  0  0  0  0  0  0  0  0  0  0
    8.2120   -1.2720   21.9650 N   0  0  0  0  0  0  0  0  0  0  0  0
    7.5740   -0.3620   21.1800 C   0  0  0  0  0  0  0  0  0  0  0  0
    8.0510    0.7190   20.8560 O   0  0  0  0  0  0  0  0  0  0  0  0
    6.3880   -0.8020   20.8330 N   0  0  0  0  0  0  0  0  0  0  0  0
    5.8950   -0.0170   19.8960 C   0  0  0  0  0  0  0  0  0  0  0  0
    4.7440    0.7310   20.0300 C   0  0  0  0  0  0  0  0  0  0  0  0
    4.3620    1.5090   18.9780 C   0  0  0  0  0  0  0  0  0  0  0  0
    5.1850    1.5320   17.7320 C   0  0  0  0  0  0  0  0  0  0  0  0
    6.3090    0.8040   17.5860 N   0  0  0  0  0  0  0  0  0  0  0  0
    6.6630    0.0460   18.6430 C   0  0  0  0  0  0  0  0  0  0  0  0
   10.5090   -1.9270   22.4370 C   0  0  0  0  0  0  0  0  0  0  0  0
   11.6990   -1.5100   22.9020 C   0  0  0  0  0  0  0  0  0  0  0  0
   11.8280   -0.2080   23.2940 C   0  0  0  0  0  0  0  0  0  0  0  0
  1  2  1  0
  2  3  2  0
  2  4  1  0
  4  5  1  0
  5  6  1  0
  6  7  1  0
  7  8  1  0
  8  9  1  0
  9 10  2  0
 10 11  1  0
 11 12  1  0
 12 13  2  0
 12 14  1  0
 14 15  1  0
 15 16  2  0
 16 17  1  0
 17 18  2  0
 18 19  1  0
 15 20  1  0
 19 20  2  0
 10 21  1  0
 21 22  2  0
  4 23  1  0
  8 23  2  0
 22 23  1  0
M  END
