pyridine_urea_5809
     RDKit          3D

 21 23  0  0  0  0  0  0  0  0999 V2000
    8.5030    0.9900   21.0270 O   0  0  0  0  0  0  0  0  0  0  0  0
    8.2450   -0.1420   21.4100 C   0  0  0  0  0  0  0  0  0  0  0  0
    7.0050   -0.7780   21.0090 N   0  0  0  0  0  0  0  0  0  0  0  0
    6.3560   -0.0730   20.0110 C   0  0  0  0  0  0  0  0  0  0  0  0
    5.1660    0.6130   20.2630 C   0  0  0  0  0  0  0  0  0  0  0  0
    4.5690    1.3180   19.2160 C   0  0  0  0  0  0  0  0  0  0  0  0
    5.1820    1.3120   17.9570 C   0  0  0  0  0  0  0  0  0  0  0  0
    6.3200    0.6480   17.7110 N   0  0  0  0  0  0  0  0  0  0  0  0
    6.8810   -0.0290   18.7380 C   0  0  0  0  0  0  0  0  0  0  0  0
    9.0040   -0.9240   22.2340 N   0  0  0  0  0  0  0  0  0  0  0  0
    9.6030   -0.2770   23.3780 C   0  0  2  0  0  0  0  0  0  0  0  0
   10.2730    1.0510   23.0020 C   0  0  0  0  0  0  0  0  0  0  0  0
   11.6600    1.1380   23.0680 C   0  0  0  0  0  0  0  0  0  0  0  0
   12.1960    0.4660   23.9220 O   0  0  0  0  0  0  0  0  0  0  0  0
   11.8510   -0.8340   23.9060 C   0  0  2  0  0  0  0  0  0  0  0  0
   12.3410   -1.2200   22.7960 C   0  0  0  0  0  0  0  0  0  0  0  0
   11.9800   -2.2610   22.0180 C   0  0  0  0  0  0  0  0  0  0  0  0
   12.7570   -2.2930   20.9240 C   0  0  0  0  0  0  0  0  0  0  0  0
   13.6600   -1.3080   20.9010 C   0  0  0  0  0  0  0  0  0  0  0  0
   13.5770   -0.2380   22.3070 S   0  0  0  0  0  0  0  0  0  0  0  0
   10.5430   -1.2060   24.0460 C   0  0  0  0  0  0  0  0  0  0  0  0
  1  2  2  0
  2  3  1  0
  3  4  1  0
  4  5  2  0
  5  6  1  0
  6  7  2  0
  7  8  1  0
  4  9  1  0
  8  9  2  0
  2 10  1  0
 11 10  1  6
 11 12  1  0
 12 13  1  0
 13 14  1  0
 14 15  1  0
 15 16  1  6
 16 17  2  0
 17 18  1  0
 18 19  2  0
 16 20  1  0
 19 20  1  0
 11 21  1  0
 15 21  1  0
M  END
