pyridine_urea_4249
     RDKit          3D

 24 25  0  0  0  0  0  0  0  0999 V2000
    6.2700    3.4110   23.3230 C   0  0  0  0  0  0  0  0  0  0  0  0
    7.4660    2.8120   24.0750 C   0  0  0  0  0  0  0  0  0  0  0  0
    8.6020    3.8300   24.0950 C   0  0  0  0  0  0  0  0  0  0  0  0
    7.0340    2.4440   25.4980 C   0  0  0  0  0  0  0  0  0  0  0  0
    7.8100    1.6500   23.3140 O   0  0  0  0  0  0  0  0  0  0  0  0
    9.1220    1.5840   22.7690 C   0  0  0  0  0  0  0  0  0  0  0  0
    9.6540    2.3260   21.9560 O   0  0  0  0  0  0  0  0  0  0  0  0
    9.8980    0.4000   23.3400 C   0  0  0  0  0  0  0  0  0  0  0  0
   10.1670   -0.7540   22.3890 C   0  0  0  0  0  0  0  0  0  0  0  0
    8.8730   -1.2640   21.9610 N   0  0  0  0  0  0  0  0  0  0  0  0
    8.1130   -0.3780   21.2580 C   0  0  0  0  0  0  0  0  0  0  0  0
    8.5110    0.7410   20.9810 O   0  0  0  0  0  0  0  0  0  0  0  0
    6.8950   -0.8500   20.8900 N   0  0  0  0  0  0  0  0  0  0  0  0
    6.2070   -0.0870   19.9590 C   0  0  0  0  0  0  0  0  0  0  0  0
    5.0160    0.5790   20.1360 C   0  0  0  0  0  0  0  0  0  0  0  0
    4.4960    1.3120   19.0920 C   0  0  0  0  0  0  0  0  0  0  0  0
    5.1450    1.3910   17.8730 C   0  0  0  0  0  0  0  0  0  0  0  0
    6.3060    0.7480   17.6650 N   0  0  0  0  0  0  0  0  0  0  0  0
    6.7850    0.0400   18.7070 C   0  0  0  0  0  0  0  0  0  0  0  0
    9.0800   -0.2300   24.4860 C   0  0  0  0  0  0  0  0  0  0  0  0
    9.8340   -0.1080   25.7430 C   0  0  0  0  0  0  0  0  0  0  0  0
   11.2220   -0.4150   25.5340 O   0  0  0  0  0  0  0  0  0  0  0  0
   11.8790    0.1510   24.3720 C   0  0  0  0  0  0  0  0  0  0  0  0
   11.0150    1.0090   23.8350 C   0  0  0  0  0  0  0  0  0  0  0  0
  1  2  1  0
  2  3  1  0
  2  4  1  0
  2  5  1  0
  5  6  1  0
  6  7  2  0
  8  6  1  0
  8  9  1  0
  9 10  1  0
 10 11  1  0
 11 12  2  0
 11 13  1  0
 13 14  1  0
 14 15  2  0
 15 16  1  0
 16 17  2  0
 17 18  1  0
 14 19  1  0
 18 19  2  0
  8 20  1  0
 20 21  1  0
 21 22  1  0
 22 23  1  0
  8 24  1  0
 23 24  1  0
M  END
