pyridine_urea_6494
     RDKit          3D

 23 24  0  0  0  0  0  0  0  0999 V2000
    8.8810    1.4170   21.1260 O   0  0  0  0  0  0  0  0  0  0  0  0
    8.4920    0.3070   21.5090 C   0  0  0  0  0  0  0  0  0  0  0  0
    9.1130   -0.3910   22.5130 N   0  0  0  0  0  0  0  0  0  0  0  0
   10.5270   -0.1810   22.7740 C   0  0  0  0  0  0  0  0  0  0  0  0
   11.3720   -1.3790   22.3620 C   0  0  0  0  0  0  0  0  0  0  0  0
   10.9980   -2.3630   22.9770 O   0  0  0  0  0  0  0  0  0  0  0  0
    9.6780   -2.4020   23.2970 C   0  0  0  0  0  0  0  0  0  0  0  0
    8.6720   -3.0150   22.5350 C   0  0  0  0  0  0  0  0  0  0  0  0
    7.1670   -3.1820   22.7230 C   0  0  0  0  0  0  0  0  0  0  0  0
    6.8220   -2.5580   23.9370 C   0  0  0  0  0  0  0  0  0  0  0  0
    5.8250   -2.2660   24.7920 C   0  0  0  0  0  0  0  0  0  0  0  0
    4.6620   -2.8490   24.3610 F   0  0  0  0  0  0  0  0  0  0  0  0
    5.5760   -0.9390   24.9200 F   0  0  0  0  0  0  0  0  0  0  0  0
    6.0330   -2.7510   26.0490 F   0  0  0  0  0  0  0  0  0  0  0  0
    7.7800   -1.8640   24.8230 C   0  0  0  0  0  0  0  0  0  0  0  0
    9.1500   -1.8030   24.4770 N   0  0  0  0  0  0  0  0  0  0  0  0
    7.3850   -0.3550   21.0070 N   0  0  0  0  0  0  0  0  0  0  0  0
    6.5640    0.2210   20.1050 C   0  0  0  0  0  0  0  0  0  0  0  0
    5.4010    0.9280   20.4390 C   0  0  0  0  0  0  0  0  0  0  0  0
    4.6720    1.4810   19.4000 C   0  0  0  0  0  0  0  0  0  0  0  0
    5.1810    1.2780   18.0080 C   0  0  0  0  0  0  0  0  0  0  0  0
    6.2790    0.6000   17.6700 N   0  0  0  0  0  0  0  0  0  0  0  0
    6.9570    0.0800   18.7030 C   0  0  0  0  0  0  0  0  0  0  0  0
  1  2  2  0
  2  3  1  0
  3  4  1  0
  4  5  1  0
  5  6  1  0
  6  7  1  0
  7  8  2  0
  8  9  1  0
  9 10  2  0
 10 11  1  0
 11 12  1  0
 11 13  1  0
 11 14  1  0
 10 15  1  0
  7 16  1  0
 15 16  2  0
  2 17  1  0
 17 18  1  0
 18 19  2  0
 19 20  1  0
 20 21  2  0
 21 22  1  0
 18 23  1  0
 22 23  2  0
M  END
