pyridine_urea_4741
     RDKit          3D

 22 24  0  0  0  0  0  0  0  0999 V2000
   13.0350    6.2030   22.1160 C   0  0  0  0  0  0  0  0  0  0  0  0
   12.9260    5.0960   23.1550 C   0  0  1  0  0  0  0  0  0  0  0  0
   11.5530    5.1240   23.7920 C   0  0  0  0  0  0  0  0  0  0  0  0
   11.0820    3.8570   23.6760 C   0  0  0  0  0  0  0  0  0  0  0  0
   12.1650    2.9280   23.2880 N   0  0  0  0  0  0  0  0  0  0  0  0
   11.8460    1.6260   23.0090 C   0  0  0  0  0  0  0  0  0  0  0  0
   10.4900    1.7210   22.9820 C   0  0  0  0  0  0  0  0  0  0  0  0
    9.7080    0.6650   22.7090 C   0  0  0  0  0  0  0  0  0  0  0  0
   10.2270   -0.5690   22.4320 C   0  0  0  0  0  0  0  0  0  0  0  0
    9.1510   -1.3670   22.1380 N   0  0  0  0  0  0  0  0  0  0  0  0
    8.2200   -0.6190   21.3770 C   0  0  0  0  0  0  0  0  0  0  0  0
    8.4990    0.5220   21.0350 O   0  0  0  0  0  0  0  0  0  0  0  0
    7.0420   -1.1660   21.0500 N   0  0  0  0  0  0  0  0  0  0  0  0
    6.4300   -0.3920   20.1010 C   0  0  0  0  0  0  0  0  0  0  0  0
    5.2350    0.2910   20.4010 C   0  0  0  0  0  0  0  0  0  0  0  0
    4.6450    1.1230   19.3030 C   0  0  0  0  0  0  0  0  0  0  0  0
    5.2250    1.2260   18.0700 C   0  0  0  0  0  0  0  0  0  0  0  0
    6.3770    0.5540   17.8080 N   0  0  0  0  0  0  0  0  0  0  0  0
    6.9270   -0.2130   18.8020 C   0  0  0  0  0  0  0  0  0  0  0  0
   11.6180   -0.8090   22.4550 C   0  0  0  0  0  0  0  0  0  0  0  0
   12.5090    0.3840   22.7710 C   0  0  0  0  0  0  0  0  0  0  0  0
   13.0430    3.7590   22.4490 C   0  0  0  0  0  0  0  0  0  0  0  0
  2  1  1  6
  2  3  1  0
  3  4  1  0
  4  5  1  0
  5  6  1  0
  6  7  2  0
  7  8  1  0
  8  9  2  0
  9 10  1  0
 10 11  1  0
 11 12  2  0
 11 13  1  0
 13 14  1  0
 14 15  2  0
 15 16  1  0
 16 17  2  0
 17 18  1  0
 14 19  1  0
 18 19  2  0
  9 20  1  0
  6 21  1  0
 20 21  2  0
  2 22  1  0
  5 22  1  0
M  END
