pyridine_urea_10605
     RDKit          3D

 21 22  0  0  0  0  0  0  0  0999 V2000
   12.3300    0.1380   24.2700 C   0  0  0  0  0  0  0  0  0  0  0  0
   12.9410    0.0460   22.8640 C   0  0  0  0  0  0  0  0  0  0  0  0
   13.6240   -1.1940   22.6390 O   0  0  0  0  0  0  0  0  0  0  0  0
   13.3480   -2.2030   23.5150 C   0  0  0  0  0  0  0  0  0  0  0  0
   11.8430   -2.3920   23.5650 C   0  0  0  0  0  0  0  0  0  0  0  0
   10.9390   -1.4360   23.0750 N   0  0  0  0  0  0  0  0  0  0  0  0
    9.8100   -2.0970   23.3680 C   0  0  0  0  0  0  0  0  0  0  0  0
    8.5330   -1.6880   23.1460 C   0  0  2  0  0  0  0  0  0  0  0  0
    7.9890   -2.3640   22.0730 C   0  0  0  0  0  0  0  0  0  0  0  0
    8.6010   -0.2590   22.8730 N   0  0  0  0  0  0  0  0  0  0  0  0
    8.2850    0.2710   21.6070 C   0  0  0  0  0  0  0  0  0  0  0  0
    8.7700    1.2620   21.0460 O   0  0  0  0  0  0  0  0  0  0  0  0
    7.3080   -0.4540   21.0290 N   0  0  0  0  0  0  0  0  0  0  0  0
    6.5490    0.1770   20.1220 C   0  0  0  0  0  0  0  0  0  0  0  0
    5.4000    0.9490   20.3020 C   0  0  0  0  0  0  0  0  0  0  0  0
    4.7030    1.5680   19.2520 C   0  0  0  0  0  0  0  0  0  0  0  0
    5.1820    1.4060   17.9420 C   0  0  0  0  0  0  0  0  0  0  0  0
    6.2600    0.6870   17.6270 N   0  0  0  0  0  0  0  0  0  0  0  0
    6.9000    0.1110   18.6530 C   0  0  0  0  0  0  0  0  0  0  0  0
   10.1160   -3.3050   23.9510 N   0  0  0  0  0  0  0  0  0  0  0  0
   11.3920   -3.4040   24.0460 O   0  0  0  0  0  0  0  0  0  0  0  0
  1  2  1  0
  2  3  1  0
  3  4  1  0
  4  5  1  0
  5  6  2  0
  6  7  1  0
  7  8  1  0
  8  9  1  6
  8 10  1  0
 10 11  1  0
 11 12  2  0
 11 13  1  0
 13 14  1  0
 14 15  2  0
 15 16  1  0
 16 17  2  0
 17 18  1  0
 14 19  1  0
 18 19  2  0
  7 20  2  0
  5 21  1  0
 20 21  1  0
M  END
