pyridine_urea_12125
     RDKit          3D

 23 25  0  0  0  0  0  0  0  0999 V2000
   17.0600    2.6710   23.4260 C   0  0  0  0  0  0  0  0  0  0  0  0
   14.9080    2.7340   22.4510 C   0  0  0  0  0  0  0  0  0  0  0  0
   14.0800    3.6780   21.8340 C   0  0  0  0  0  0  0  0  0  0  0  0
   12.7970    3.2670   21.7130 N   0  0  0  0  0  0  0  0  0  0  0  0
   12.8530    1.9730   22.3110 N   0  0  0  0  0  0  0  0  0  0  0  0
   11.8860    0.9880   22.5460 C   0  0  0  0  0  0  0  0  0  0  0  0
   10.7050    1.5840   22.7810 C   0  0  0  0  0  0  0  0  0  0  0  0
    9.6050    0.8230   22.9170 C   0  0  0  0  0  0  0  0  0  0  0  0
    9.6580   -0.5450   22.8140 C   0  0  0  0  0  0  0  0  0  0  0  0
    8.5230   -1.2360   22.8320 N   0  0  0  0  0  0  0  0  0  0  0  0
    7.8910   -0.6580   21.7010 C   0  0  0  0  0  0  0  0  0  0  0  0
    8.5020    0.1950   21.0670 O   0  0  0  0  0  0  0  0  0  0  0  0
    6.6360   -1.0300   21.3550 N   0  0  0  0  0  0  0  0  0  0  0  0
    6.1900   -0.2830   20.1960 C   0  0  0  0  0  0  0  0  0  0  0  0
    5.0170    0.4750   20.2870 C   0  0  0  0  0  0  0  0  0  0  0  0
    4.5370    1.2390   19.2030 C   0  0  0  0  0  0  0  0  0  0  0  0
    5.1850    1.3060   17.9590 C   0  0  0  0  0  0  0  0  0  0  0  0
    6.3460    0.5650   17.8310 N   0  0  0  0  0  0  0  0  0  0  0  0
    6.8840   -0.2130   18.8500 C   0  0  0  0  0  0  0  0  0  0  0  0
   11.0280   -1.2070   22.6150 C   0  0  0  0  0  0  0  0  0  0  0  0
   12.1290   -0.4050   22.4890 C   0  0  0  0  0  0  0  0  0  0  0  0
   13.3300   -0.9590   22.2820 F   0  0  0  0  0  0  0  0  0  0  0  0
   13.9840    1.5200   22.7390 C   0  0  0  0  0  0  0  0  0  0  0  0
  1  2  1  0
  2  3  1  0
  3  4  2  0
  4  5  1  0
  5  6  1  0
  6  7  2  0
  7  8  1  0
  8  9  2  0
  9 10  1  0
 10 11  1  0
 11 12  2  0
 11 13  1  0
 13 14  1  0
 14 15  2  0
 15 16  1  0
 16 17  2  0
 17 18  1  0
 14 19  1  0
 18 19  2  0
  9 20  1  0
  6 21  1  0
 20 21  2  0
 21 22  1  0
  2 23  2  0
  5 23  1  0
M  END
