pyridine_urea_3758
     RDKit          3D

 19 20  0  0  0  0  0  0  0  0999 V2000
    9.4460    0.1250   26.8480 C   0  0  0  0  0  0  0  0  0  0  0  0
    9.9680   -0.5710   25.7720 N   0  0  0  0  0  0  0  0  0  0  0  0
   11.3520   -0.6590   25.3880 C   0  0  0  0  0  0  0  0  0  0  0  0
   11.5550   -1.3980   24.3220 N   0  0  0  0  0  0  0  0  0  0  0  0
   10.3960   -1.8310   23.9370 C   0  0  0  0  0  0  0  0  0  0  0  0
   10.0730   -2.6790   22.7860 C   0  0  0  0  0  0  0  0  0  0  0  0
    9.7050   -1.7160   21.7100 C   0  0  0  0  0  0  0  0  0  0  0  0
    9.0300   -0.6590   22.2270 N   0  0  0  0  0  0  0  0  0  0  0  0
    8.3700    0.2650   21.4380 C   0  0  0  0  0  0  0  0  0  0  0  0
    8.8630    1.3590   21.1340 O   0  0  0  0  0  0  0  0  0  0  0  0
    7.1550   -0.2370   21.0620 N   0  0  0  0  0  0  0  0  0  0  0  0
    6.4670    0.2880   19.9880 C   0  0  0  0  0  0  0  0  0  0  0  0
    5.3040    1.0150   20.2310 C   0  0  0  0  0  0  0  0  0  0  0  0
    4.6160    1.5700   19.1610 C   0  0  0  0  0  0  0  0  0  0  0  0
    5.1290    1.3680   17.9010 C   0  0  0  0  0  0  0  0  0  0  0  0
    6.2370    0.6630   17.6440 N   0  0  0  0  0  0  0  0  0  0  0  0
    6.8830    0.1370   18.6920 C   0  0  0  0  0  0  0  0  0  0  0  0
    9.2820   -1.3150   24.8640 C   0  0  0  0  0  0  0  0  0  0  0  0
    7.4190   -1.6360   24.7690 Br  0  0  0  0  0  0  0  0  0  0  0  0
  1  2  1  0
  2  3  1  0
  3  4  2  0
  4  5  1  0
  5  6  1  0
  6  7  1  0
  7  8  1  0
  8  9  1  0
  9 10  2  0
  9 11  1  0
 11 12  1  0
 12 13  2  0
 13 14  1  0
 14 15  2  0
 15 16  1  0
 12 17  1  0
 16 17  2  0
  2 18  1  0
  5 18  2  0
 18 19  1  0
M  END
