pyridine_urea_5457
     RDKit          3D

 18 19  0  0  0  0  0  0  0  0999 V2000
    8.6890    1.1930   21.1480 O   0  0  0  0  0  0  0  0  0  0  0  0
    8.0960    0.1580   21.5040 C   0  0  0  0  0  0  0  0  0  0  0  0
    8.4630   -0.5820   22.5620 N   0  0  0  0  0  0  0  0  0  0  0  0
    9.8140   -0.9690   22.5160 C   0  0  0  0  0  0  0  0  0  0  0  0
   10.6890   -0.0500   23.4000 C   0  0  0  0  0  0  0  0  0  0  0  0
   11.6570   -0.8190   23.9660 C   0  0  0  0  0  0  0  0  0  0  0  0
   11.4350   -0.8110   22.2360 S   0  0  0  0  0  0  0  0  0  0  0  0
   12.6170   -1.8830   21.6740 C   0  0  0  0  0  0  0  0  0  0  0  0
   13.2560   -2.3360   22.6980 C   0  0  0  0  0  0  0  0  0  0  0  0
   12.7350   -1.7520   23.9760 C   0  0  0  0  0  0  0  0  0  0  0  0
   13.6460   -2.4380   25.4480 Br  0  0  0  0  0  0  0  0  0  0  0  0
    7.0150   -0.4300   20.9340 N   0  0  0  0  0  0  0  0  0  0  0  0
    6.3640    0.1900   19.9300 C   0  0  0  0  0  0  0  0  0  0  0  0
    5.0630    0.8960   20.2460 C   0  0  0  0  0  0  0  0  0  0  0  0
    4.4290    1.5840   19.0650 C   0  0  0  0  0  0  0  0  0  0  0  0
    5.1420    1.4920   17.7370 C   0  0  0  0  0  0  0  0  0  0  0  0
    6.2920    0.8180   17.5900 N   0  0  0  0  0  0  0  0  0  0  0  0
    6.8530    0.2060   18.6480 C   0  0  0  0  0  0  0  0  0  0  0  0
  1  2  2  0
  2  3  1  0
  3  4  1  0
  4  5  1  0
  5  6  1  0
  6  7  1  0
  7  8  1  0
  8  9  2  0
  6 10  2  0
  9 10  1  0
 10 11  1  0
  2 12  1  0
 12 13  1  0
 13 14  2  0
 14 15  1  0
 15 16  2  0
 16 17  1  0
 13 18  1  0
 17 18  2  0
M  END
