pyridine_urea_6083
     RDKit          3D

 25 26  0  0  0  0  0  0  0  0999 V2000
   12.1430    3.3910   22.4190 C   0  0  0  0  0  0  0  0  0  0  0  0
   10.8960    3.4210   23.2600 C   0  0  0  0  0  0  0  0  0  0  0  0
   10.8260    2.4700   24.0710 O   0  0  0  0  0  0  0  0  0  0  0  0
   11.4270    1.2720   23.7730 C   0  0  0  0  0  0  0  0  0  0  0  0
   12.4660    1.8620   23.5810 O   0  0  0  0  0  0  0  0  0  0  0  0
   10.0990    0.9640   24.0760 C   0  0  0  0  0  0  0  0  0  0  0  0
    9.6880   -0.3040   23.6500 C   0  0  1  0  0  0  0  0  0  0  0  0
    8.4700   -0.5040   22.9340 N   0  0  0  0  0  0  0  0  0  0  0  0
    8.2810    0.0930   21.6910 C   0  0  0  0  0  0  0  0  0  0  0  0
    8.9820    1.2060   21.2350 O   0  0  0  0  0  0  0  0  0  0  0  0
    7.2790   -0.5650   21.0080 N   0  0  0  0  0  0  0  0  0  0  0  0
    6.5040    0.0790   20.0440 C   0  0  0  0  0  0  0  0  0  0  0  0
    5.2120    0.8460   20.2710 C   0  0  0  0  0  0  0  0  0  0  0  0
    4.5840    1.4420   19.1980 C   0  0  0  0  0  0  0  0  0  0  0  0
    5.1600    1.3170   17.9330 C   0  0  0  0  0  0  0  0  0  0  0  0
    6.3000    0.6370   17.6960 N   0  0  0  0  0  0  0  0  0  0  0  0
    6.9160    0.0550   18.7390 C   0  0  0  0  0  0  0  0  0  0  0  0
   10.7160   -0.9620   22.7940 C   0  0  0  0  0  0  0  0  0  0  0  0
   10.8070   -1.9140   21.8990 C   0  0  0  0  0  0  0  0  0  0  0  0
   12.2330   -2.0290   21.4130 C   0  0  0  0  0  0  0  0  0  0  0  0
   13.5550   -1.2810   21.7570 C   0  0  0  0  0  0  0  0  0  0  0  0
   13.6280   -2.2490   20.8200 F   0  0  0  0  0  0  0  0  0  0  0  0
   13.0010   -0.4310   22.7080 C   0  0  0  0  0  0  0  0  0  0  0  0
   11.9160   -0.9140   22.5360 C   0  0  0  0  0  0  0  0  0  0  0  0
   12.1910   -1.8570   21.6020 F   0  0  0  0  0  0  0  0  0  0  0  0
  1  2  1  0
  2  3  1  0
  3  4  1  0
  4  5  2  0
  4  6  1  0
  7  6  1  6
  7  8  1  0
  8  9  1  0
  9 10  2  0
  9 11  1  0
 11 12  1  0
 12 13  2  0
 13 14  1  0
 14 15  2  0
 15 16  1  0
 12 17  1  0
 16 17  2  0
  7 18  1  0
 18 19  2  0
 19 20  1  0
 20 21  2  0
 21 22  1  0
 21 23  1  0
 18 24  1  0
 23 24  2  0
 24 25  1  0
M  END
