pyridine_urea_10417
     RDKit          3D

 23 24  0  0  0  0  0  0  0  0999 V2000
   11.1440   -2.4060   21.6380 C   0  0  0  0  0  0  0  0  0  0  0  0
   10.9730   -0.9180   21.8620 C   0  0  1  0  0  0  0  0  0  0  0  0
   10.0990   -0.7760   23.1040 C   0  0  0  0  0  0  0  0  0  0  0  0
    8.6500   -0.8450   22.7200 N   0  0  0  0  0  0  0  0  0  0  0  0
    8.2280   -0.0940   21.6500 C   0  0  0  0  0  0  0  0  0  0  0  0
    8.8280    0.9100   21.2920 O   0  0  0  0  0  0  0  0  0  0  0  0
    7.0940   -0.6030   21.0770 N   0  0  0  0  0  0  0  0  0  0  0  0
    6.4420    0.0330   20.0160 C   0  0  0  0  0  0  0  0  0  0  0  0
    5.2650    0.7180   20.2800 C   0  0  0  0  0  0  0  0  0  0  0  0
    4.6260    1.3720   19.2210 C   0  0  0  0  0  0  0  0  0  0  0  0
    5.1940    1.3080   17.9480 C   0  0  0  0  0  0  0  0  0  0  0  0
    6.3260    0.6380   17.6940 N   0  0  0  0  0  0  0  0  0  0  0  0
    6.9180    0.0220   18.7260 C   0  0  0  0  0  0  0  0  0  0  0  0
   12.3400   -0.2560   22.0940 C   0  0  0  0  0  0  0  0  0  0  0  0
   12.5420   -0.4370   23.2850 N   0  0  0  0  0  0  0  0  0  0  0  0
   12.4350    0.4140   24.3800 C   0  0  0  0  0  0  0  0  0  0  0  0
   12.7890   -0.4170   25.4030 C   0  0  0  0  0  0  0  0  0  0  0  0
   13.0400   -1.6690   24.6560 C   0  0  0  0  0  0  0  0  0  0  0  0
   13.4020   -2.8230   25.0860 C   0  0  0  0  0  0  0  0  0  0  0  0
   14.2040   -2.9550   26.1820 F   0  0  0  0  0  0  0  0  0  0  0  0
   14.0170   -3.3610   24.0740 F   0  0  0  0  0  0  0  0  0  0  0  0
   12.3010   -3.5640   25.2400 F   0  0  0  0  0  0  0  0  0  0  0  0
   12.8940   -1.6780   23.3790 N   0  0  0  0  0  0  0  0  0  0  0  0
  2  1  1  1
  2  3  1  0
  3  4  1  0
  4  5  1  0
  5  6  2  0
  5  7  1  0
  7  8  1  0
  8  9  2  0
  9 10  1  0
 10 11  2  0
 11 12  1  0
  8 13  1  0
 12 13  2  0
  2 14  1  0
 14 15  1  0
 15 16  1  0
 16 17  2  0
 17 18  1  0
 18 19  1  0
 19 20  1  0
 19 21  1  0
 19 22  1  0
 15 23  1  0
 18 23  2  0
M  END
