pyridine_urea_14567
     RDKit          3D

 21 23  0  0  0  0  0  0  0  0999 V2000
   12.9980    5.7990   22.0030 N   0  0  0  0  0  0  0  0  0  0  0  0
   11.8750    5.4020   22.6670 C   0  0  0  0  0  0  0  0  0  0  0  0
   11.5930    3.9080   22.7470 C   0  0  0  0  0  0  0  0  0  0  0  0
   10.2600    3.5150   22.7770 C   0  0  0  0  0  0  0  0  0  0  0  0
    9.8970    2.1670   22.8470 C   0  0  0  0  0  0  0  0  0  0  0  0
   10.8630    1.1730   22.8870 C   0  0  0  0  0  0  0  0  0  0  0  0
   10.4660   -0.1790   22.9500 C   0  0  0  0  0  0  0  0  0  0  0  0
    9.2180   -0.5010   22.4690 N   0  0  0  0  0  0  0  0  0  0  0  0
    8.5120    0.2010   21.5160 C   0  0  0  0  0  0  0  0  0  0  0  0
    8.8620    1.3090   21.1050 O   0  0  0  0  0  0  0  0  0  0  0  0
    7.3720   -0.4460   21.0800 N   0  0  0  0  0  0  0  0  0  0  0  0
    6.6030    0.1060   20.0460 C   0  0  0  0  0  0  0  0  0  0  0  0
    5.4370    0.8100   20.3610 C   0  0  0  0  0  0  0  0  0  0  0  0
    4.6910    1.3780   19.3340 C   0  0  0  0  0  0  0  0  0  0  0  0
    5.1350    1.2270   18.0310 C   0  0  0  0  0  0  0  0  0  0  0  0
    6.2380    0.5530   17.7060 N   0  0  0  0  0  0  0  0  0  0  0  0
    6.9450    0.0070   18.7150 C   0  0  0  0  0  0  0  0  0  0  0  0
   11.3150   -1.0850   23.5870 C   0  0  0  0  0  0  0  0  0  0  0  0
   11.7420   -1.0800   22.3640 C   0  0  0  0  0  0  0  0  0  0  0  0
   12.2100    1.5600   22.8610 C   0  0  0  0  0  0  0  0  0  0  0  0
   12.5670    2.9060   22.7910 C   0  0  0  0  0  0  0  0  0  0  0  0
  1  2  3  0
  2  3  1  0
  3  4  2  0
  4  5  1  0
  5  6  2  0
  6  7  1  0
  7  8  1  0
  8  9  1  0
  9 10  2  0
  9 11  1  0
 11 12  1  0
 12 13  2  0
 13 14  1  0
 14 15  2  0
 15 16  1  0
 12 17  1  0
 16 17  2  0
  7 18  1  0
  7 19  1  0
 18 19  1  0
  6 20  1  0
  3 21  1  0
 20 21  2  0
M  END
