pyridine_urea_12757
     RDKit          3D

 20 22  0  0  0  0  0  0  0  0999 V2000
   13.2570    0.7720   22.8080 C   0  0  0  0  0  0  0  0  0  0  0  0
   13.1630   -0.4970   22.1940 O   0  0  0  0  0  0  0  0  0  0  0  0
   12.2080   -1.2850   22.7350 C   0  0  2  0  0  0  0  0  0  0  0  0
   11.1340   -1.7070   21.8210 C   0  0  1  0  0  0  0  0  0  0  0  0
   10.2530   -2.7150   22.1550 C   0  0  0  0  0  0  0  0  0  0  0  0
   10.4590   -0.5600   22.4580 C   0  0  1  0  0  0  0  0  0  0  0  0
    9.0140   -0.6370   22.4460 N   0  0  0  0  0  0  0  0  0  0  0  0
    8.3990    0.1490   21.5030 C   0  0  0  0  0  0  0  0  0  0  0  0
    8.8320    1.2670   21.1920 O   0  0  0  0  0  0  0  0  0  0  0  0
    7.2810   -0.4680   20.9990 N   0  0  0  0  0  0  0  0  0  0  0  0
    6.5000    0.1480   20.0240 C   0  0  0  0  0  0  0  0  0  0  0  0
    5.3160    0.8750   20.2720 C   0  0  0  0  0  0  0  0  0  0  0  0
    4.6300    1.4720   19.2120 C   0  0  0  0  0  0  0  0  0  0  0  0
    5.1240    1.3440   17.9240 C   0  0  0  0  0  0  0  0  0  0  0  0
    6.2590    0.6350   17.6810 N   0  0  0  0  0  0  0  0  0  0  0  0
    6.9410    0.0380   18.7250 C   0  0  0  0  0  0  0  0  0  0  0  0
   11.2900   -0.6510   23.5770 C   0  0  0  0  0  0  0  0  0  0  0  0
   10.9840   -1.4630   24.5810 C   0  0  0  0  0  0  0  0  0  0  0  0
   11.7170   -0.5370   25.2660 C   0  0  0  0  0  0  0  0  0  0  0  0
   11.7140    0.4460   24.2850 C   0  0  0  0  0  0  0  0  0  0  0  0
  1  2  1  0
  3  2  1  6
  3  4  1  0
  4  5  1  1
  4  6  1  0
  6  7  1  1
  7  8  1  0
  8  9  2  0
  8 10  1  0
 10 11  1  0
 11 12  2  0
 12 13  1  0
 13 14  2  0
 14 15  1  0
 11 16  1  0
 15 16  2  0
  3 17  1  0
  6 17  1  0
 17 18  1  0
 18 19  1  0
 17 20  1  0
 19 20  1  0
M  END
