pyridine_urea_5292
     RDKit          3D

 19 20  0  0  0  0  0  0  0  0999 V2000
   12.7770   -2.6430   21.0320 C   0  0  0  0  0  0  0  0  0  0  0  0
   11.6240   -2.4520   21.9570 C   0  0  0  0  0  0  0  0  0  0  0  0
   11.4460   -1.2820   22.6170 C   0  0  0  0  0  0  0  0  0  0  0  0
   10.3160   -0.5530   22.2570 C   0  0  0  0  0  0  0  0  0  0  0  0
    9.3270   -1.0580   21.5150 N   0  0  0  0  0  0  0  0  0  0  0  0
    8.3600   -0.1600   21.2760 C   0  0  0  0  0  0  0  0  0  0  0  0
    8.5900    1.0420   21.2770 O   0  0  0  0  0  0  0  0  0  0  0  0
    7.1680   -0.7370   21.0210 N   0  0  0  0  0  0  0  0  0  0  0  0
    6.4580   -0.0570   20.0920 C   0  0  0  0  0  0  0  0  0  0  0  0
    5.2680    0.6680   20.3360 C   0  0  0  0  0  0  0  0  0  0  0  0
    4.5740    1.4130   19.1670 C   0  0  0  0  0  0  0  0  0  0  0  0
    5.1820    1.3190   17.9310 C   0  0  0  0  0  0  0  0  0  0  0  0
    6.3100    0.6090   17.7590 N   0  0  0  0  0  0  0  0  0  0  0  0
    6.9420   -0.0680   18.7910 C   0  0  0  0  0  0  0  0  0  0  0  0
   12.7310   -0.4720   22.5780 C   0  0  0  0  0  0  0  0  0  0  0  0
   12.4850    0.7870   23.0670 C   0  0  0  0  0  0  0  0  0  0  0  0
   11.8170    0.7640   24.2730 C   0  0  0  0  0  0  0  0  0  0  0  0
   10.9870   -0.2810   24.5960 C   0  0  0  0  0  0  0  0  0  0  0  0
   11.3010   -1.4600   23.9750 C   0  0  0  0  0  0  0  0  0  0  0  0
  1  2  1  0
  3  2  1  0
  3  4  1  0
  4  5  1  0
  5  6  1  0
  6  7  2  0
  6  8  1  0
  8  9  1  0
  9 10  2  0
 10 11  1  0
 11 12  2  0
 12 13  1  0
  9 14  1  0
 13 14  2  0
  3 15  1  0
 15 16  1  0
 16 17  1  0
 17 18  1  0
  3 19  1  0
 18 19  1  0
M  END
