pyridine_urea_7975
     RDKit          3D

 25 27  0  0  0  0  0  0  0  0999 V2000
    8.8020    0.9910   21.3170 O   0  0  0  0  0  0  0  0  0  0  0  0
    8.4680   -0.1800   21.2540 C   0  0  0  0  0  0  0  0  0  0  0  0
    7.2070   -0.6250   20.9810 N   0  0  0  0  0  0  0  0  0  0  0  0
    6.4780    0.0150   19.9850 C   0  0  0  0  0  0  0  0  0  0  0  0
    5.3070    0.7100   20.2980 C   0  0  0  0  0  0  0  0  0  0  0  0
    4.6080    1.3650   19.2830 C   0  0  0  0  0  0  0  0  0  0  0  0
    5.1110    1.2940   18.0020 C   0  0  0  0  0  0  0  0  0  0  0  0
    6.2260    0.6240   17.6820 N   0  0  0  0  0  0  0  0  0  0  0  0
    6.8820    0.0030   18.6770 C   0  0  0  0  0  0  0  0  0  0  0  0
    9.3760   -1.1770   21.4360 N   0  0  0  0  0  0  0  0  0  0  0  0
   10.3010   -0.9210   22.5210 C   0  0  0  0  0  0  0  0  0  0  0  0
   11.8050   -1.0090   22.3760 C   0  0  0  0  0  0  0  0  0  0  0  0
   12.5770   -0.7220   23.5070 C   0  0  0  0  0  0  0  0  0  0  0  0
   11.9550   -0.3780   24.7330 C   0  0  0  0  0  0  0  0  0  0  0  0
   10.5330   -0.3030   24.8840 C   0  0  0  0  0  0  0  0  0  0  0  0
    9.8260    0.0090   26.0680 C   0  0  0  0  0  0  0  0  0  0  0  0
    8.0640   -0.4760   25.9930 S   0  0  0  0  0  0  0  0  0  0  0  0
    7.2980    0.6440   25.4930 O   0  0  0  0  0  0  0  0  0  0  0  0
    7.8480   -0.4850   27.8220 C   0  0  0  0  0  0  0  0  0  0  0  0
    8.8160    0.1750   28.5620 C   0  0  0  0  0  0  0  0  0  0  0  0
    8.6730    0.1700   29.9430 C   0  0  0  0  0  0  0  0  0  0  0  0
    7.5850   -0.4790   30.5340 C   0  0  0  0  0  0  0  0  0  0  0  0
    6.6280   -1.1330   29.7460 C   0  0  0  0  0  0  0  0  0  0  0  0
    6.7470   -1.1470   28.3510 C   0  0  0  0  0  0  0  0  0  0  0  0
    9.7250   -0.5570   23.8140 C   0  0  0  0  0  0  0  0  0  0  0  0
  1  2  2  0
  2  3  1  0
  3  4  1  0
  4  5  2  0
  5  6  1  0
  6  7  2  0
  7  8  1  0
  4  9  1  0
  8  9  2  0
  2 10  1  0
 10 11  1  0
 11 12  2  0
 12 13  1  0
 13 14  2  0
 14 15  1  0
 15 16  1  0
 17 16  1  1
 17 18  2  0
 17 19  1  0
 19 20  2  0
 20 21  1  0
 21 22  2  0
 22 23  1  0
 19 24  1  0
 23 24  2  0
 11 25  1  0
 15 25  2  0
M  END
