pyridine_urea_1065
     RDKit          3D

 22 23  0  0  0  0  0  0  0  0999 V2000
    9.0420    1.2660   21.1990 O   0  0  0  0  0  0  0  0  0  0  0  0
    8.5610    0.1970   21.5840 C   0  0  0  0  0  0  0  0  0  0  0  0
    9.1460   -0.5750   22.6750 N   0  0  0  0  0  0  0  0  0  0  0  0
   10.1940   -1.4170   22.3310 C   0  0  0  0  0  0  0  0  0  0  0  0
   11.5090   -1.1130   22.6950 C   0  0  0  0  0  0  0  0  0  0  0  0
   11.6210    0.0680   23.3790 C   0  0  0  0  0  0  0  0  0  0  0  0
   12.6640    0.9410   23.0210 C   0  0  0  0  0  0  0  0  0  0  0  0
   12.4350    1.9170   22.3090 O   0  0  0  0  0  0  0  0  0  0  0  0
   12.3280    3.2120   22.8210 C   0  0  0  0  0  0  0  0  0  0  0  0
   13.4190    4.1680   22.3700 C   0  0  0  0  0  0  0  0  0  0  0  0
   13.2990    5.5830   22.9240 C   0  0  0  0  0  0  0  0  0  0  0  0
   12.2480    5.9050   23.7710 C   0  0  0  0  0  0  0  0  0  0  0  0
   12.1880    7.1620   24.2310 F   0  0  0  0  0  0  0  0  0  0  0  0
   11.2800    4.9490   24.1330 C   0  0  0  0  0  0  0  0  0  0  0  0
   11.3000    3.6200   23.6770 C   0  0  0  0  0  0  0  0  0  0  0  0
    7.4180   -0.4100   21.0670 N   0  0  0  0  0  0  0  0  0  0  0  0
    6.5930    0.1660   20.0900 C   0  0  0  0  0  0  0  0  0  0  0  0
    5.3800    0.7990   20.3200 C   0  0  0  0  0  0  0  0  0  0  0  0
    4.6690    1.3460   19.2530 C   0  0  0  0  0  0  0  0  0  0  0  0
    5.2090    1.2370   17.9810 C   0  0  0  0  0  0  0  0  0  0  0  0
    6.3740    0.6220   17.7330 N   0  0  0  0  0  0  0  0  0  0  0  0
    7.0320    0.1040   18.7840 C   0  0  0  0  0  0  0  0  0  0  0  0
  1  2  2  0
  2  3  1  0
  3  4  1  0
  4  5  1  0
  5  6  1  0
  6  7  1  0
  7  8  1  0
  8  9  1  0
  9 10  2  0
 10 11  1  0
 11 12  2  0
 12 13  1  0
 12 14  1  0
  9 15  1  0
 14 15  2  0
  2 16  1  0
 16 17  1  0
 17 18  2  0
 18 19  1  0
 19 20  2  0
 20 21  1  0
 17 22  1  0
 21 22  2  0
M  END
