pyridine_urea_6598
     RDKit          3D

 22 23  0  0  0  0  0  0  0  0999 V2000
    8.0740    2.8490   21.7810 C   0  0  0  0  0  0  0  0  0  0  0  0
    9.3760    2.5460   22.5630 C   0  0  1  0  0  0  0  0  0  0  0  0
   10.1240    3.7650   22.7230 O   0  0  0  0  0  0  0  0  0  0  0  0
    8.9660    1.8720   23.8920 C   0  0  0  0  0  0  0  0  0  0  0  0
    9.8500    0.6540   24.2440 C   0  0  1  0  0  0  0  0  0  0  0  0
    9.3430   -0.7040   23.7820 C   0  0  0  0  0  0  0  0  0  0  0  0
    8.8270   -1.2050   22.4990 N   0  0  0  0  0  0  0  0  0  0  0  0
    8.2950   -0.3360   21.5690 C   0  0  0  0  0  0  0  0  0  0  0  0
    8.8580    0.6820   21.2280 O   0  0  0  0  0  0  0  0  0  0  0  0
    7.0070   -0.7920   21.0760 N   0  0  0  0  0  0  0  0  0  0  0  0
    6.4260   -0.0990   20.0410 C   0  0  0  0  0  0  0  0  0  0  0  0
    5.2580    0.6360   20.2720 C   0  0  0  0  0  0  0  0  0  0  0  0
    4.6560    1.3510   19.2500 C   0  0  0  0  0  0  0  0  0  0  0  0
    5.2330    1.3250   18.0030 C   0  0  0  0  0  0  0  0  0  0  0  0
    6.3510    0.6320   17.7300 N   0  0  0  0  0  0  0  0  0  0  0  0
    6.9260   -0.0680   18.7490 C   0  0  0  0  0  0  0  0  0  0  0  0
   11.2470    0.9080   23.8220 C   0  0  0  0  0  0  0  0  0  0  0  0
   12.6010    0.7150   23.1960 C   0  0  0  0  0  0  0  0  0  0  0  0
   13.1540   -0.2950   22.4820 C   0  0  0  0  0  0  0  0  0  0  0  0
   12.8260   -1.5460   21.9960 C   0  0  0  0  0  0  0  0  0  0  0  0
   11.5700   -1.4290   22.5500 C   0  0  0  0  0  0  0  0  0  0  0  0
   10.8680   -0.4880   23.2890 C   0  0  0  0  0  0  0  0  0  0  0  0
  2  1  1  1
  2  3  1  0
  2  4  1  0
  5  4  1  6
  5  6  1  0
  6  7  1  0
  7  8  1  0
  8  9  2  0
  8 10  1  0
 10 11  1  0
 11 12  2  0
 12 13  1  0
 13 14  2  0
 14 15  1  0
 11 16  1  0
 15 16  2  0
  5 17  1  0
 17 18  2  0
 18 19  1  0
 19 20  2  0
 20 21  1  0
 17 22  1  0
 21 22  2  0
M  END
