pyridine_urea_15189
     RDKit          3D

 17 17  0  0  0  0  0  0  0  0999 V2000
   12.4870   -2.3370   22.1480 C   0  0  0  0  0  0  0  0  0  0  0  0
   11.1990   -1.6490   21.6680 C   0  0  0  0  0  0  0  0  0  0  0  0
   10.2050   -1.6400   22.8010 C   0  0  1  0  0  0  0  0  0  0  0  0
   10.5620   -0.4830   23.6730 C   0  0  0  0  0  0  0  0  0  0  0  0
   11.5850    0.2840   22.8550 C   0  0  0  0  0  0  0  0  0  0  0  0
   12.8890    0.6960   23.4410 C   0  0  0  0  0  0  0  0  0  0  0  0
   12.9450   -0.3360   22.5890 C   0  0  0  0  0  0  0  0  0  0  0  0
    8.9100   -1.4650   22.4300 N   0  0  0  0  0  0  0  0  0  0  0  0
    8.4650   -0.4310   21.6130 C   0  0  0  0  0  0  0  0  0  0  0  0
    9.0790    0.6170   21.4530 O   0  0  0  0  0  0  0  0  0  0  0  0
    7.2420   -0.7690   21.0530 N   0  0  0  0  0  0  0  0  0  0  0  0
    6.5020   -0.0390   20.0960 C   0  0  0  0  0  0  0  0  0  0  0  0
    5.3600    0.7070   20.3370 C   0  0  0  0  0  0  0  0  0  0  0  0
    4.7390    1.3780   19.2990 C   0  0  0  0  0  0  0  0  0  0  0  0
    5.2350    1.3230   18.0090 C   0  0  0  0  0  0  0  0  0  0  0  0
    6.3380    0.6090   17.7290 N   0  0  0  0  0  0  0  0  0  0  0  0
    6.9220   -0.0390   18.7700 C   0  0  0  0  0  0  0  0  0  0  0  0
  1  2  3  0
  3  2  1  6
  3  4  1  0
  4  5  1  0
  5  6  1  0
  5  7  1  0
  3  8  1  0
  8  9  1  0
  9 10  2  0
  9 11  1  0
 11 12  1  0
 12 13  2  0
 13 14  1  0
 14 15  2  0
 15 16  1  0
 12 17  1  0
 16 17  2  0
M  END
