pyridine_urea_7264
     RDKit          3D

 18 19  0  0  0  0  0  0  0  0999 V2000
   13.2000   -2.3920   24.7570 C   0  0  0  0  0  0  0  0  0  0  0  0
   12.0570   -2.1330   24.3840 O   0  0  0  0  0  0  0  0  0  0  0  0
   11.9800   -1.0630   23.5500 C   0  0  1  0  0  0  0  0  0  0  0  0
   11.4510   -1.4420   22.3510 C   0  0  0  0  0  0  0  0  0  0  0  0
   10.5640   -0.4400   22.5020 C   0  0  1  0  0  0  0  0  0  0  0  0
    9.1620   -0.8730   22.3840 N   0  0  0  0  0  0  0  0  0  0  0  0
    8.3610   -0.1750   21.5260 C   0  0  0  0  0  0  0  0  0  0  0  0
    8.6200    0.9740   21.1980 O   0  0  0  0  0  0  0  0  0  0  0  0
    7.2560   -0.8010   21.0520 N   0  0  0  0  0  0  0  0  0  0  0  0
    6.5150   -0.0970   20.1510 C   0  0  0  0  0  0  0  0  0  0  0  0
    5.3350    0.6110   20.4210 C   0  0  0  0  0  0  0  0  0  0  0  0
    4.6530    1.3460   19.2720 C   0  0  0  0  0  0  0  0  0  0  0  0
    5.2390    1.2770   18.0090 C   0  0  0  0  0  0  0  0  0  0  0  0
    6.3700    0.5850   17.7830 N   0  0  0  0  0  0  0  0  0  0  0  0
    6.9490   -0.0600   18.8280 C   0  0  0  0  0  0  0  0  0  0  0  0
   11.0280   -0.0330   23.9010 C   0  0  0  0  0  0  0  0  0  0  0  0
   10.2960   -0.3340   25.0510 C   0  0  0  0  0  0  0  0  0  0  0  0
   11.6280    1.2170   23.8110 C   0  0  0  0  0  0  0  0  0  0  0  0
  1  2  1  0
  3  2  1  1
  3  4  1  0
  4  5  1  0
  5  6  1  1
  6  7  1  0
  7  8  2  0
  7  9  1  0
  9 10  1  0
 10 11  2  0
 11 12  1  0
 12 13  2  0
 13 14  1  0
 10 15  1  0
 14 15  2  0
  3 16  1  0
  5 16  1  0
 16 17  1  0
 16 18  1  0
M  END
