pyridine_urea_15199
     RDKit          3D

 17 19  0  0  0  0  0  0  0  0999 V2000
    8.3880    0.9280   21.2170 O   0  0  0  0  0  0  0  0  0  0  0  0
    8.3240   -0.2910   21.2770 C   0  0  0  0  0  0  0  0  0  0  0  0
    7.1570   -0.9390   20.9850 N   0  0  0  0  0  0  0  0  0  0  0  0
    6.4480   -0.1880   19.9900 C   0  0  0  0  0  0  0  0  0  0  0  0
    5.1450    0.5120   20.3720 C   0  0  0  0  0  0  0  0  0  0  0  0
    4.4430    1.3220   19.2820 C   0  0  0  0  0  0  0  0  0  0  0  0
    5.1360    1.3390   17.9190 C   0  0  0  0  0  0  0  0  0  0  0  0
    6.3300    0.6330   17.7400 N   0  0  0  0  0  0  0  0  0  0  0  0
    6.9430   -0.0870   18.7160 C   0  0  0  0  0  0  0  0  0  0  0  0
    9.4130   -1.0740   21.6000 N   0  0  0  0  0  0  0  0  0  0  0  0
   10.3600   -0.3560   22.3490 C   0  0  0  0  0  0  0  0  0  0  0  0
   10.2080    1.0460   22.2450 C   0  0  0  0  0  0  0  0  0  0  0  0
    9.8450    1.7940   23.1310 C   0  0  0  0  0  0  0  0  0  0  0  0
   11.3140    1.9020   22.8470 C   0  0  0  0  0  0  0  0  0  0  0  0
   11.7590   -0.8020   22.3480 C   0  0  0  0  0  0  0  0  0  0  0  0
   11.8680   -1.1520   23.6920 C   0  0  0  0  0  0  0  0  0  0  0  0
   10.4800   -0.8370   23.7390 C   0  0  0  0  0  0  0  0  0  0  0  0
  1  2  2  0
  2  3  1  0
  3  4  1  0
  4  5  2  0
  5  6  1  0
  6  7  2  0
  7  8  1  0
  4  9  1  0
  8  9  2  0
  2 10  1  0
 11 10  1  0
 11 12  1  0
 12 13  1  0
 12 14  1  0
 13 14  1  0
 11 15  1  0
 15 16  1  0
 11 17  1  0
 16 17  1  0
M  END
