pyridine_urea_8596
     RDKit          3D

 21 23  0  0  0  0  0  0  0  0999 V2000
    8.7390    1.3520   21.1490 O   0  0  0  0  0  0  0  0  0  0  0  0
    8.4590    0.1550   21.2500 C   0  0  0  0  0  0  0  0  0  0  0  0
    7.2330   -0.3990   21.0280 N   0  0  0  0  0  0  0  0  0  0  0  0
    6.4860    0.1590   20.0000 C   0  0  0  0  0  0  0  0  0  0  0  0
    5.3080    0.8450   20.2860 C   0  0  0  0  0  0  0  0  0  0  0  0
    4.5870    1.4250   19.2470 C   0  0  0  0  0  0  0  0  0  0  0  0
    5.0870    1.2870   17.9670 C   0  0  0  0  0  0  0  0  0  0  0  0
    6.2070    0.6200   17.6740 N   0  0  0  0  0  0  0  0  0  0  0  0
    6.8800    0.0730   18.6920 C   0  0  0  0  0  0  0  0  0  0  0  0
    9.4220   -0.7520   21.5510 N   0  0  0  0  0  0  0  0  0  0  0  0
   10.4270   -0.2020   22.4110 C   0  0  1  0  0  0  0  0  0  0  0  0
    9.8130   -0.0070   23.7780 C   0  0  0  0  0  0  0  0  0  0  0  0
   10.7010    0.3610   24.7360 C   0  0  0  0  0  0  0  0  0  0  0  0
   11.9860   -0.1470   24.7270 C   0  0  0  0  0  0  0  0  0  0  0  0
   12.2990   -1.0650   23.7810 C   0  0  0  0  0  0  0  0  0  0  0  0
   13.3210   -1.9540   23.9920 C   0  0  0  0  0  0  0  0  0  0  0  0
   14.1000   -2.1030   25.1010 O   0  0  0  0  0  0  0  0  0  0  0  0
   13.6730   -2.8370   23.0310 C   0  0  0  0  0  0  0  0  0  0  0  0
   12.9940   -2.8570   21.8350 C   0  0  0  0  0  0  0  0  0  0  0  0
   11.9440   -2.0110   21.6270 C   0  0  0  0  0  0  0  0  0  0  0  0
   11.6060   -1.1270   22.6100 C   0  0  0  0  0  0  0  0  0  0  0  0
  1  2  2  0
  2  3  1  0
  3  4  1  0
  4  5  2  0
  5  6  1  0
  6  7  2  0
  7  8  1  0
  4  9  1  0
  8  9  2  0
  2 10  1  0
 11 10  1  6
 11 12  1  0
 12 13  1  0
 13 14  1  0
 14 15  1  0
 15 16  2  0
 16 17  1  0
 16 18  1  0
 18 19  2  0
 19 20  1  0
 11 21  1  0
 15 21  1  0
 20 21  2  0
M  END
