pyridine_urea_14600
     RDKit          3D

 21 22  0  0  0  0  0  0  0  0999 V2000
   11.6360   -2.4970   21.8250 C   0  0  0  0  0  0  0  0  0  0  0  0
   13.1350   -2.3800   21.8780 C   0  0  0  0  0  0  0  0  0  0  0  0
   13.5140   -1.6450   20.8360 C   0  0  0  0  0  0  0  0  0  0  0  0
   13.2960   -1.7200   23.1170 N   0  0  0  0  0  0  0  0  0  0  0  0
   13.7810   -2.6770   24.0860 C   0  0  0  0  0  0  0  0  0  0  0  0
   12.0550   -1.4610   23.4020 C   0  0  0  0  0  0  0  0  0  0  0  0
   11.6480   -1.4240   24.6710 C   0  0  0  0  0  0  0  0  0  0  0  0
   10.1850   -1.1650   25.0050 C   0  0  0  0  0  0  0  0  0  0  0  0
    9.2880   -0.9770   23.9860 C   0  0  0  0  0  0  0  0  0  0  0  0
    9.8050   -1.0450   22.7000 C   0  0  0  0  0  0  0  0  0  0  0  0
    8.9740   -0.9020   21.5670 N   0  0  0  0  0  0  0  0  0  0  0  0
    8.2580    0.2390   21.3180 C   0  0  0  0  0  0  0  0  0  0  0  0
    8.7600    1.3530   21.1550 O   0  0  0  0  0  0  0  0  0  0  0  0
    6.9670   -0.1020   21.2700 N   0  0  0  0  0  0  0  0  0  0  0  0
    6.3800    0.3650   20.0570 C   0  0  0  0  0  0  0  0  0  0  0  0
    5.1530    1.1900   20.1850 C   0  0  0  0  0  0  0  0  0  0  0  0
    4.5310    1.7090   19.0450 C   0  0  0  0  0  0  0  0  0  0  0  0
    5.1160    1.4150   17.8190 C   0  0  0  0  0  0  0  0  0  0  0  0
    6.2320    0.6500   17.7170 N   0  0  0  0  0  0  0  0  0  0  0  0
    6.8870    0.1070   18.8000 C   0  0  0  0  0  0  0  0  0  0  0  0
   11.1270   -1.2680   22.3970 C   0  0  0  0  0  0  0  0  0  0  0  0
  1  2  1  0
  2  3  1  0
  2  4  1  0
  4  5  1  0
  4  6  1  0
  6  7  2  0
  7  8  1  0
  8  9  2  0
  9 10  1  0
 10 11  1  0
 11 12  1  0
 12 13  2  0
 12 14  1  0
 14 15  1  0
 15 16  2  0
 16 17  1  0
 17 18  2  0
 18 19  1  0
 15 20  1  0
 19 20  2  0
  6 21  1  0
 10 21  2  0
M  END
