pyridine_urea_14865
     RDKit          3D

 19 20  0  0  0  0  0  0  0  0999 V2000
    8.9080    0.7320   21.4430 O   0  0  0  0  0  0  0  0  0  0  0  0
    8.3910   -0.3760   21.4820 C   0  0  0  0  0  0  0  0  0  0  0  0
    9.0330   -1.5350   21.8670 N   0  0  0  0  0  0  0  0  0  0  0  0
   10.1610   -1.6380   22.6990 C   0  0  0  0  0  0  0  0  0  0  0  0
   11.4550   -1.5490   22.1990 C   0  0  0  0  0  0  0  0  0  0  0  0
   12.2050   -0.4710   22.6370 C   0  0  2  0  0  0  0  0  0  0  0  0
   13.2160   -0.3360   21.9550 O   0  0  0  0  0  0  0  0  0  0  0  0
   12.8110   -0.7930   23.7930 C   0  0  0  0  0  0  0  0  0  0  0  0
   12.2070   -0.1750   24.8340 C   0  0  0  0  0  0  0  0  0  0  0  0
   10.6760   -0.1760   24.8340 C   0  0  0  0  0  0  0  0  0  0  0  0
   10.3590    0.4780   23.8690 O   0  0  0  0  0  0  0  0  0  0  0  0
   11.4110    0.6780   22.9060 C   0  0  0  0  0  0  0  0  0  0  0  0
    7.0950   -0.6490   21.1270 N   0  0  0  0  0  0  0  0  0  0  0  0
    6.4080    0.0440   20.0280 C   0  0  0  0  0  0  0  0  0  0  0  0
    5.2400    0.7440   20.2670 C   0  0  0  0  0  0  0  0  0  0  0  0
    4.5660    1.4250   19.2680 C   0  0  0  0  0  0  0  0  0  0  0  0
    5.1810    1.3560   17.9230 C   0  0  0  0  0  0  0  0  0  0  0  0
    6.3220    0.6630   17.6970 N   0  0  0  0  0  0  0  0  0  0  0  0
    6.9060    0.0260   18.7390 C   0  0  0  0  0  0  0  0  0  0  0  0
  1  2  2  0
  2  3  1  0
  3  4  1  0
  4  5  1  0
  5  6  1  0
  6  7  1  6
  6  8  1  0
  8  9  1  0
  9 10  1  0
 10 11  1  0
  6 12  1  0
 11 12  1  0
  2 13  1  0
 13 14  1  0
 14 15  2  0
 15 16  1  0
 16 17  2  0
 17 18  1  0
 14 19  1  0
 18 19  2  0
M  END
