pyridine_urea_5310
     RDKit          3D

 19 20  0  0  0  0  0  0  0  0999 V2000
   12.6150    3.4250   22.6430 C   0  0  0  0  0  0  0  0  0  0  0  0
   11.7750    2.6090   23.4510 O   0  0  0  0  0  0  0  0  0  0  0  0
   11.9510    1.2480   23.4440 C   0  0  0  0  0  0  0  0  0  0  0  0
   13.1000    0.6450   22.9400 C   0  0  0  0  0  0  0  0  0  0  0  0
   12.6060   -0.3870   22.6980 C   0  0  0  0  0  0  0  0  0  0  0  0
   11.5860   -1.0270   22.7350 C   0  0  0  0  0  0  0  0  0  0  0  0
   10.1030   -1.0360   23.1270 C   0  0  0  0  0  0  0  0  0  0  0  0
    9.2380   -1.2530   21.9900 N   0  0  0  0  0  0  0  0  0  0  0  0
    8.4800   -0.2100   21.4950 C   0  0  0  0  0  0  0  0  0  0  0  0
    8.9170    0.9210   21.3690 O   0  0  0  0  0  0  0  0  0  0  0  0
    7.1380   -0.6260   21.1410 N   0  0  0  0  0  0  0  0  0  0  0  0
    6.5050   -0.0100   20.0830 C   0  0  0  0  0  0  0  0  0  0  0  0
    5.3380    0.7170   20.3000 C   0  0  0  0  0  0  0  0  0  0  0  0
    4.6690    1.3670   19.2880 C   0  0  0  0  0  0  0  0  0  0  0  0
    5.1910    1.2850   18.0080 C   0  0  0  0  0  0  0  0  0  0  0  0
    6.3140    0.5890   17.7440 N   0  0  0  0  0  0  0  0  0  0  0  0
    6.9460   -0.0430   18.7720 C   0  0  0  0  0  0  0  0  0  0  0  0
   12.5970   -1.7320   22.2110 N   0  0  0  0  0  0  0  0  0  0  0  0
   13.5630   -0.6670   22.3490 O   0  0  0  0  0  0  0  0  0  0  0  0
  1  2  1  0
  2  3  1  0
  3  4  1  0
  4  5  2  0
  5  6  1  0
  6  7  1  0
  7  8  1  0
  8  9  1  0
  9 10  2  0
  9 11  1  0
 11 12  1  0
 12 13  2  0
 13 14  1  0
 14 15  2  0
 15 16  1  0
 12 17  1  0
 16 17  2  0
  6 18  2  0
  4 19  1  0
 18 19  1  0
M  END
