pyridine_urea_789
     RDKit          3D

 23 25  0  0  0  0  0  0  0  0999 V2000
   13.1970   -2.6530   21.1360 C   0  0  0  0  0  0  0  0  0  0  0  0
   12.6400   -1.4700   21.7970 C   0  0  0  0  0  0  0  0  0  0  0  0
   13.3230   -0.3760   22.2690 C   0  0  0  0  0  0  0  0  0  0  0  0
   12.3620    0.8900   22.9680 S   0  0  0  0  0  0  0  0  0  0  0  0
   11.0990   -0.2100   22.5690 C   0  0  0  0  0  0  0  0  0  0  0  0
    9.8710    0.1560   22.9020 C   0  0  1  0  0  0  0  0  0  0  0  0
    8.7690   -0.5470   22.3960 N   0  0  0  0  0  0  0  0  0  0  0  0
    8.1940    0.1320   21.3870 C   0  0  0  0  0  0  0  0  0  0  0  0
    8.6260    1.2280   21.0030 O   0  0  0  0  0  0  0  0  0  0  0  0
    7.1070   -0.5280   20.9020 N   0  0  0  0  0  0  0  0  0  0  0  0
    6.3660    0.1160   19.9400 C   0  0  0  0  0  0  0  0  0  0  0  0
    5.0520    0.8330   20.1220 C   0  0  0  0  0  0  0  0  0  0  0  0
    4.4520    1.4570   19.0620 C   0  0  0  0  0  0  0  0  0  0  0  0
    5.1130    1.3890   17.8350 C   0  0  0  0  0  0  0  0  0  0  0  0
    6.2830    0.7440   17.6370 N   0  0  0  0  0  0  0  0  0  0  0  0
    6.8710    0.1330   18.6730 C   0  0  0  0  0  0  0  0  0  0  0  0
    9.8700   -0.0030   24.3640 C   0  0  0  0  0  0  0  0  0  0  0  0
    8.9780    0.1230   25.1600 C   0  0  0  0  0  0  0  0  0  0  0  0
    9.8850   -0.1960   26.0010 C   0  0  0  0  0  0  0  0  0  0  0  0
   10.6090   -0.2030   24.5610 C   0  0  0  0  0  0  0  0  0  0  0  0
   11.9970   -0.5310   24.5020 C   0  0  0  0  0  0  0  0  0  0  0  0
   10.9970   -0.3760   25.2570 C   0  0  0  0  0  0  0  0  0  0  0  0
   11.3180   -1.3680   21.9850 N   0  0  0  0  0  0  0  0  0  0  0  0
  1  2  1  0
  2  3  2  0
  3  4  1  0
  4  5  1  0
  5  6  1  0
  6  7  1  6
  7  8  1  0
  8  9  2  0
  8 10  1  0
 10 11  1  0
 11 12  2  0
 12 13  1  0
 13 14  2  0
 14 15  1  0
 11 16  1  0
 15 16  2  0
  6 17  1  0
 17 18  2  0
 18 19  1  0
 19 20  2  0
 20 21  1  0
 17 22  1  0
 21 22  2  0
  2 23  1  0
  5 23  2  0
M  END
