pyridine_urea_1278
     RDKit          3D

 21 23  0  0  0  0  0  0  0  0999 V2000
    8.3310    1.8800   21.1070 O   0  0  0  0  0  0  0  0  0  0  0  0
    8.3060    0.7380   21.5290 C   0  0  0  0  0  0  0  0  0  0  0  0
    7.2670   -0.1160   21.2740 N   0  0  0  0  0  0  0  0  0  0  0  0
    6.6150    0.2490   20.0560 C   0  0  0  0  0  0  0  0  0  0  0  0
    5.3740    1.1260   20.2550 C   0  0  0  0  0  0  0  0  0  0  0  0
    4.6630    1.5850   19.1610 C   0  0  0  0  0  0  0  0  0  0  0  0
    5.1240    1.2170   17.9070 C   0  0  0  0  0  0  0  0  0  0  0  0
    6.2280    0.4220   17.7660 N   0  0  0  0  0  0  0  0  0  0  0  0
    6.9930   -0.0820   18.8140 C   0  0  0  0  0  0  0  0  0  0  0  0
    9.3140    0.1820   22.2040 N   0  0  0  0  0  0  0  0  0  0  0  0
   10.3900   -0.3750   22.7000 C   0  0  0  0  0  0  0  0  0  0  0  0
   10.9510   -1.2320   21.8150 C   0  0  0  0  0  0  0  0  0  0  0  0
   12.0640   -1.9390   22.0520 C   0  0  0  0  0  0  0  0  0  0  0  0
   12.6590   -1.8100   23.2440 C   0  0  0  0  0  0  0  0  0  0  0  0
   13.7400   -2.5960   23.4190 O   0  0  0  0  0  0  0  0  0  0  0  0
   13.8230   -2.9130   24.7270 C   0  0  0  0  0  0  0  0  0  0  0  0
   14.0260   -3.9960   25.1870 O   0  0  0  0  0  0  0  0  0  0  0  0
   13.6270   -1.8810   25.6620 C   0  0  0  0  0  0  0  0  0  0  0  0
   12.7950   -0.8650   25.4070 C   0  0  0  0  0  0  0  0  0  0  0  0
   12.1520   -0.9540   24.1930 C   0  0  0  0  0  0  0  0  0  0  0  0
   11.0370   -0.2110   23.9900 C   0  0  0  0  0  0  0  0  0  0  0  0
  1  2  2  0
  2  3  1  0
  3  4  1  0
  4  5  2  0
  5  6  1  0
  6  7  2  0
  7  8  1  0
  4  9  1  0
  8  9  2  0
  2 10  1  0
 10 11  1  0
 11 12  2  0
 12 13  1  0
 13 14  2  0
 14 15  1  0
 15 16  1  0
 16 17  2  0
 16 18  1  0
 18 19  2  0
 14 20  1  0
 19 20  1  0
 11 21  1  0
 20 21  2  0
M  END
