pyridine_urea_11451
     RDKit          3D

 21 22  0  0  0  0  0  0  0  0999 V2000
    8.9880    0.4680   21.4010 O   0  0  0  0  0  0  0  0  0  0  0  0
    8.3200   -0.5240   21.6430 C   0  0  0  0  0  0  0  0  0  0  0  0
    8.6850   -1.4720   22.5950 N   0  0  0  0  0  0  0  0  0  0  0  0
   10.0600   -1.6040   23.0790 C   0  0  0  0  0  0  0  0  0  0  0  0
   11.0440   -0.8990   22.1660 C   0  0  2  0  0  0  0  0  0  0  0  0
   12.4920   -1.0900   22.4850 C   0  0  0  0  0  0  0  0  0  0  0  0
   12.8420   -0.1870   23.4310 C   0  0  0  0  0  0  0  0  0  0  0  0
   11.7720    0.5600   24.2080 C   0  0  0  0  0  0  0  0  0  0  0  0
   10.5320    0.8140   23.4580 C   0  0  1  0  0  0  0  0  0  0  0  0
   10.2620    2.1220   23.2530 C   0  0  0  0  0  0  0  0  0  0  0  0
    9.6660    2.3290   22.0420 F   0  0  0  0  0  0  0  0  0  0  0  0
    9.3990    2.6140   24.1710 F   0  0  0  0  0  0  0  0  0  0  0  0
   11.3590    2.9280   23.2860 F   0  0  0  0  0  0  0  0  0  0  0  0
   10.8150    0.3240   22.1340 O   0  0  0  0  0  0  0  0  0  0  0  0
    7.1190   -0.8590   21.0480 N   0  0  0  0  0  0  0  0  0  0  0  0
    6.4230   -0.1080   20.0790 C   0  0  0  0  0  0  0  0  0  0  0  0
    5.2530    0.6180   20.2600 C   0  0  0  0  0  0  0  0  0  0  0  0
    4.6430    1.3360   19.2350 C   0  0  0  0  0  0  0  0  0  0  0  0
    5.2480    1.3080   17.9990 C   0  0  0  0  0  0  0  0  0  0  0  0
    6.3810    0.6230   17.7490 N   0  0  0  0  0  0  0  0  0  0  0  0
    6.9190   -0.0550   18.7870 C   0  0  0  0  0  0  0  0  0  0  0  0
  1  2  2  0
  2  3  1  0
  3  4  1  0
  5  4  1  1
  5  6  1  0
  6  7  1  0
  7  8  1  0
  8  9  1  0
  9 10  1  6
 10 11  1  0
 10 12  1  0
 10 13  1  0
  5 14  1  0
  9 14  1  0
  2 15  1  0
 15 16  1  0
 16 17  2  0
 17 18  1  0
 18 19  2  0
 19 20  1  0
 16 21  1  0
 20 21  2  0
M  END
