pyridine_urea_14796
     RDKit          3D

 20 21  0  0  0  0  0  0  0  0999 V2000
   10.8300   -2.1160   22.2070 C   0  0  0  0  0  0  0  0  0  0  0  0
   10.4270   -0.6560   22.2530 C   0  0  1  0  0  0  0  0  0  0  0  0
    9.0760   -0.4560   22.7350 N   0  0  0  0  0  0  0  0  0  0  0  0
    8.3060    0.1590   21.6660 C   0  0  0  0  0  0  0  0  0  0  0  0
    8.8180    1.4280   21.1950 O   0  0  0  0  0  0  0  0  0  0  0  0
    7.1810   -0.4880   21.1900 N   0  0  0  0  0  0  0  0  0  0  0  0
    6.4740    0.1230   20.0830 C   0  0  0  0  0  0  0  0  0  0  0  0
    5.3070    0.8440   20.3440 C   0  0  0  0  0  0  0  0  0  0  0  0
    4.6350    1.4590   19.2930 C   0  0  0  0  0  0  0  0  0  0  0  0
    5.1770    1.3420   17.8810 C   0  0  0  0  0  0  0  0  0  0  0  0
    6.3090    0.6200   17.6820 N   0  0  0  0  0  0  0  0  0  0  0  0
    6.9470    0.0160   18.7710 C   0  0  0  0  0  0  0  0  0  0  0  0
   11.4700    0.2430   22.8600 C   0  0  0  0  0  0  0  0  0  0  0  0
   11.5870    1.4970   22.8010 C   0  0  0  0  0  0  0  0  0  0  0  0
   12.5280    0.6830   23.4880 C   0  0  0  0  0  0  0  0  0  0  0  0
   11.5700   -0.5140   22.9890 C   0  0  0  0  0  0  0  0  0  0  0  0
   12.4340   -1.4150   23.6860 C   0  0  0  0  0  0  0  0  0  0  0  0
   13.5320   -1.6720   24.4690 C   0  0  0  0  0  0  0  0  0  0  0  0
   13.6580   -2.7800   25.2640 N   0  0  0  0  0  0  0  0  0  0  0  0
   12.5620   -0.1740   23.6330 C   0  0  0  0  0  0  0  0  0  0  0  0
  2  1  1  1
  2  3  1  0
  3  4  1  0
  4  5  2  0
  4  6  1  0
  6  7  1  0
  7  8  2  0
  8  9  1  0
  9 10  2  0
 10 11  1  0
  7 12  1  0
 11 12  2  0
  2 13  1  0
 13 14  2  0
 14 15  1  0
 15 16  2  0
 16 17  1  0
 17 18  1  0
 18 19  3  0
 13 20  1  0
 17 20  2  0
M  END
