pyridine_urea_9277
     RDKit          3D

 18 18  0  0  0  0  0  0  0  0999 V2000
   10.6990    1.3300   23.0690 N   0  0  0  0  0  0  0  0  0  0  0  0
   12.3260    1.1890   23.3820 S   0  0  0  0  0  0  0  0  0  0  0  0
   12.4360    0.5010   24.6400 O   0  0  0  0  0  0  0  0  0  0  0  0
   12.9110    2.4750   23.1050 O   0  0  0  0  0  0  0  0  0  0  0  0
   12.8740    0.0900   22.2880 N   0  0  0  0  0  0  0  0  0  0  0  0
   12.7110   -1.3200   22.6510 C   0  0  0  0  0  0  0  0  0  0  0  0
   11.2960   -1.7330   22.3570 C   0  0  0  0  0  0  0  0  0  0  0  0
   10.2540   -0.8370   22.6070 C   0  0  0  0  0  0  0  0  0  0  0  0
    9.0230   -1.1000   22.1530 N   0  0  0  0  0  0  0  0  0  0  0  0
    8.3900   -0.1830   21.4440 C   0  0  0  0  0  0  0  0  0  0  0  0
    8.9360    1.0560   21.1790 O   0  0  0  0  0  0  0  0  0  0  0  0
    7.2020   -0.5930   21.0390 N   0  0  0  0  0  0  0  0  0  0  0  0
    6.4520    0.0720   20.0960 C   0  0  0  0  0  0  0  0  0  0  0  0
    5.2690    0.7810   20.3400 C   0  0  0  0  0  0  0  0  0  0  0  0
    4.6170    1.4200   19.3080 C   0  0  0  0  0  0  0  0  0  0  0  0
    5.2230    1.3300   17.9200 C   0  0  0  0  0  0  0  0  0  0  0  0
    6.3480    0.6470   17.6890 N   0  0  0  0  0  0  0  0  0  0  0  0
    6.9000    0.0570   18.7760 C   0  0  0  0  0  0  0  0  0  0  0  0
  2  1  1  0
  2  3  2  0
  2  4  2  0
  2  5  1  0
  5  6  1  0
  6  7  1  0
  7  8  1  0
  8  9  1  0
  9 10  1  0
 10 11  2  0
 10 12  1  0
 12 13  1  0
 13 14  2  0
 14 15  1  0
 15 16  2  0
 16 17  1  0
 13 18  1  0
 17 18  2  0
M  END
