pyridine_urea_2865
     RDKit          3D

 22 23  0  0  0  0  0  0  0  0999 V2000
   12.8550   -2.0890   21.2380 C   0  0  0  0  0  0  0  0  0  0  0  0
   12.9580   -2.6450   22.6480 C   0  0  0  0  0  0  0  0  0  0  0  0
   13.4550   -1.6720   23.5640 N   0  0  0  0  0  0  0  0  0  0  0  0
   13.0860   -2.0610   24.9390 C   0  0  0  0  0  0  0  0  0  0  0  0
   13.3880   -0.4260   23.0330 C   0  0  0  0  0  0  0  0  0  0  0  0
   14.2110    0.2790   22.5770 O   0  0  0  0  0  0  0  0  0  0  0  0
   12.0880    0.1840   22.9980 C   0  0  0  0  0  0  0  0  0  0  0  0
   12.1470    1.5430   22.9940 C   0  0  0  0  0  0  0  0  0  0  0  0
   10.8810    2.3280   22.9620 C   0  0  0  0  0  0  0  0  0  0  0  0
    9.5390    1.6490   22.9330 C   0  0  0  0  0  0  0  0  0  0  0  0
    9.6760    0.1340   22.9290 C   0  0  0  0  0  0  0  0  0  0  0  0
    8.5320   -0.6510   22.8650 N   0  0  0  0  0  0  0  0  0  0  0  0
    8.0350   -0.7510   21.6070 C   0  0  0  0  0  0  0  0  0  0  0  0
    8.8340   -0.9620   20.5970 O   0  0  0  0  0  0  0  0  0  0  0  0
    6.6930   -0.5650   21.4170 N   0  0  0  0  0  0  0  0  0  0  0  0
    6.2250    0.0400   20.2330 C   0  0  0  0  0  0  0  0  0  0  0  0
    4.9530    0.8620   20.2950 C   0  0  0  0  0  0  0  0  0  0  0  0
    4.4990    1.4670   19.1320 C   0  0  0  0  0  0  0  0  0  0  0  0
    5.2260    1.2970   17.9560 C   0  0  0  0  0  0  0  0  0  0  0  0
    6.3580    0.5680   17.8660 N   0  0  0  0  0  0  0  0  0  0  0  0
    6.8320   -0.0400   18.9850 C   0  0  0  0  0  0  0  0  0  0  0  0
   10.9100   -0.5310   22.9620 C   0  0  0  0  0  0  0  0  0  0  0  0
  1  2  1  0
  2  3  1  0
  3  4  1  0
  3  5  1  0
  5  6  2  0
  5  7  1  0
  7  8  2  0
  8  9  1  0
  9 10  2  0
 10 11  1  0
 11 12  1  0
 12 13  1  0
 13 14  2  0
 13 15  1  0
 15 16  1  0
 16 17  2  0
 17 18  1  0
 18 19  2  0
 19 20  1  0
 16 21  1  0
 20 21  2  0
  7 22  1  0
 11 22  2  0
M  END
