pyridine_urea_12321
     RDKit          3D

 22 23  0  0  0  0  0  0  0  0999 V2000
   13.7480   -2.4500   25.3650 C   0  0  0  0  0  0  0  0  0  0  0  0
   13.2910   -1.0970   25.3870 O   0  0  0  0  0  0  0  0  0  0  0  0
   12.2070   -1.0080   24.4960 C   0  0  0  0  0  0  0  0  0  0  0  0
   12.5060   -1.3810   23.0130 C   0  0  0  0  0  0  0  0  0  0  0  0
   13.7610   -1.7380   22.6810 F   0  0  0  0  0  0  0  0  0  0  0  0
   11.5330   -1.3700   22.0720 C   0  0  0  0  0  0  0  0  0  0  0  0
   10.1460   -0.9680   22.5230 C   0  0  0  0  0  0  0  0  0  0  0  0
    9.1300   -0.9450   21.6470 N   0  0  0  0  0  0  0  0  0  0  0  0
    8.3720    0.1500   21.3180 C   0  0  0  0  0  0  0  0  0  0  0  0
    8.8020    1.3040   21.1910 O   0  0  0  0  0  0  0  0  0  0  0  0
    7.0540   -0.2380   21.1180 N   0  0  0  0  0  0  0  0  0  0  0  0
    6.4090    0.3030   19.9500 C   0  0  0  0  0  0  0  0  0  0  0  0
    5.1530    1.0980   20.2820 C   0  0  0  0  0  0  0  0  0  0  0  0
    4.4540    1.7350   19.0910 C   0  0  0  0  0  0  0  0  0  0  0  0
    5.1110    1.4890   17.7420 C   0  0  0  0  0  0  0  0  0  0  0  0
    6.2390    0.7300   17.6250 N   0  0  0  0  0  0  0  0  0  0  0  0
    6.8910    0.1380   18.6780 C   0  0  0  0  0  0  0  0  0  0  0  0
    9.8370   -0.6200   23.8150 C   0  0  0  0  0  0  0  0  0  0  0  0
    8.6980   -0.3020   24.1380 O   0  0  0  0  0  0  0  0  0  0  0  0
    8.5090    0.3210   25.4040 C   0  0  0  0  0  0  0  0  0  0  0  0
   10.9030   -0.6400   24.8700 C   0  0  0  0  0  0  0  0  0  0  0  0
   10.5600   -0.3290   26.1270 F   0  0  0  0  0  0  0  0  0  0  0  0
  1  2  1  0
  2  3  1  0
  3  4  2  0
  4  5  1  0
  4  6  1  0
  6  7  2  0
  7  8  1  0
  8  9  1  0
  9 10  2  0
  9 11  1  0
 11 12  1  0
 12 13  2  0
 13 14  1  0
 14 15  2  0
 15 16  1  0
 12 17  1  0
 16 17  2  0
  7 18  1  0
 18 19  1  0
 19 20  1  0
  3 21  1  0
 18 21  2  0
 21 22  1  0
M  END
