pyridine_urea_8849
     RDKit          3D

 20 21  0  0  0  0  0  0  0  0999 V2000
    8.7570    1.2270   21.0810 O   0  0  0  0  0  0  0  0  0  0  0  0
    8.3490    0.0920   21.3740 C   0  0  0  0  0  0  0  0  0  0  0  0
    9.1020   -0.7390   22.1360 N   0  0  0  0  0  0  0  0  0  0  0  0
   10.3210   -0.1420   22.5820 C   0  0  0  0  0  0  0  0  0  0  0  0
   11.5000   -1.1110   22.5990 C   0  0  1  0  0  0  0  0  0  0  0  0
   11.7190   -1.7490   21.3300 O   0  0  0  0  0  0  0  0  0  0  0  0
   13.0630   -1.9140   21.1220 C   0  0  0  0  0  0  0  0  0  0  0  0
   13.3170   -3.1570   20.6310 C   0  0  0  0  0  0  0  0  0  0  0  0
   13.6340   -3.9170   21.4750 O   0  0  0  0  0  0  0  0  0  0  0  0
   12.6710   -0.3130   23.0530 C   0  0  0  0  0  0  0  0  0  0  0  0
   12.5240   -0.0030   24.3700 C   0  0  0  0  0  0  0  0  0  0  0  0
   11.3450   -1.0990   24.9590 S   0  0  0  0  0  0  0  0  0  0  0  0
   11.5170   -2.0840   23.5860 C   0  0  0  0  0  0  0  0  0  0  0  0
    7.1600   -0.4560   21.0000 N   0  0  0  0  0  0  0  0  0  0  0  0
    6.4520    0.1330   19.9880 C   0  0  0  0  0  0  0  0  0  0  0  0
    5.2860    0.8380   20.3050 C   0  0  0  0  0  0  0  0  0  0  0  0
    4.5780    1.4670   19.2750 C   0  0  0  0  0  0  0  0  0  0  0  0
    5.1210    1.3410   17.8950 C   0  0  0  0  0  0  0  0  0  0  0  0
    6.2290    0.6480   17.6340 N   0  0  0  0  0  0  0  0  0  0  0  0
    6.8560    0.0690   18.6720 C   0  0  0  0  0  0  0  0  0  0  0  0
  1  2  2  0
  2  3  1  0
  3  4  1  0
  5  4  1  6
  5  6  1  0
  6  7  1  0
  7  8  1  0
  8  9  1  0
  5 10  1  0
 10 11  1  0
 11 12  1  0
  5 13  1  0
 12 13  1  0
  2 14  1  0
 14 15  1  0
 15 16  2  0
 16 17  1  0
 17 18  2  0
 18 19  1  0
 15 20  1  0
 19 20  2  0
M  END
