pyridine_urea_9588
     RDKit          3D

 19 20  0  0  0  0  0  0  0  0999 V2000
    7.3950   -3.5450   23.7970 C   0  0  0  0  0  0  0  0  0  0  0  0
    8.3910   -2.3830   23.8970 C   0  0  0  0  0  0  0  0  0  0  0  0
    9.5550   -2.6910   22.9700 C   0  0  0  0  0  0  0  0  0  0  0  0
   10.3500   -1.4440   22.6420 C   0  0  0  0  0  0  0  0  0  0  0  0
    9.6280   -0.9970   21.4350 N   0  0  0  0  0  0  0  0  0  0  0  0
    8.6330   -0.0370   21.4110 C   0  0  0  0  0  0  0  0  0  0  0  0
    8.8480    1.1340   21.6650 O   0  0  0  0  0  0  0  0  0  0  0  0
    7.3810   -0.5730   21.0280 N   0  0  0  0  0  0  0  0  0  0  0  0
    6.5650    0.0610   20.1070 C   0  0  0  0  0  0  0  0  0  0  0  0
    5.2850    0.8360   20.4480 C   0  0  0  0  0  0  0  0  0  0  0  0
    4.6800    1.3800   19.3250 C   0  0  0  0  0  0  0  0  0  0  0  0
    5.1740    1.2380   18.0470 C   0  0  0  0  0  0  0  0  0  0  0  0
    6.2800    0.5620   17.7410 N   0  0  0  0  0  0  0  0  0  0  0  0
    6.9420   -0.0070   18.7710 C   0  0  0  0  0  0  0  0  0  0  0  0
   10.2330   -0.4430   23.7690 C   0  0  0  0  0  0  0  0  0  0  0  0
   10.9420    0.1680   22.7550 C   0  0  0  0  0  0  0  0  0  0  0  0
   12.0680    0.3340   23.1520 O   0  0  0  0  0  0  0  0  0  0  0  0
   12.7780   -0.8580   22.8650 C   0  0  0  0  0  0  0  0  0  0  0  0
   11.8650   -1.7080   22.2050 C   0  0  0  0  0  0  0  0  0  0  0  0
  1  2  3  0
  2  3  1  0
  3  4  1  0
  4  5  1  0
  5  6  1  0
  6  7  2  0
  6  8  1  0
  8  9  1  0
  9 10  2  0
 10 11  1  0
 11 12  2  0
 12 13  1  0
  9 14  1  0
 13 14  2  0
  4 15  1  0
 15 16  1  0
 16 17  1  0
 17 18  1  0
  4 19  1  0
 18 19  1  0
M  END
