pyridine_urea_14650
     RDKit          3D

 21 22  0  0  0  0  0  0  0  0999 V2000
   12.2550    1.6720   23.5210 C   0  0  0  0  0  0  0  0  0  0  0  0
   11.2000    0.8780   22.8420 C   0  0  0  0  0  0  0  0  0  0  0  0
   10.7710   -0.2400   23.4630 C   0  0  2  0  0  0  0  0  0  0  0  0
    9.5090   -0.2770   23.9910 C   0  0  0  0  0  0  0  0  0  0  0  0
    8.5850   -0.8530   22.9900 N   0  0  0  0  0  0  0  0  0  0  0  0
    8.2530   -0.2240   21.7610 C   0  0  0  0  0  0  0  0  0  0  0  0
    8.8750    0.7450   21.3280 O   0  0  0  0  0  0  0  0  0  0  0  0
    7.1920   -0.7990   21.1330 N   0  0  0  0  0  0  0  0  0  0  0  0
    6.5750   -0.1240   20.1200 C   0  0  0  0  0  0  0  0  0  0  0  0
    5.2940    0.7200   20.3610 C   0  0  0  0  0  0  0  0  0  0  0  0
    4.6790    1.4040   19.3020 C   0  0  0  0  0  0  0  0  0  0  0  0
    5.2460    1.3130   18.0290 C   0  0  0  0  0  0  0  0  0  0  0  0
    6.3760    0.5700   17.8080 N   0  0  0  0  0  0  0  0  0  0  0  0
    7.0340   -0.1430   18.8170 C   0  0  0  0  0  0  0  0  0  0  0  0
   11.5930   -0.6940   24.2550 O   0  0  0  0  0  0  0  0  0  0  0  0
   12.3040   -1.1250   23.2340 C   0  0  0  0  0  0  0  0  0  0  0  0
   12.3580   -2.5440   23.0250 C   0  0  0  0  0  0  0  0  0  0  0  0
   13.0090   -3.0590   21.9300 C   0  0  0  0  0  0  0  0  0  0  0  0
   13.5760   -2.2530   21.0890 C   0  0  0  0  0  0  0  0  0  0  0  0
   13.5810   -0.9520   21.2560 C   0  0  0  0  0  0  0  0  0  0  0  0
   12.9660   -0.3310   22.3140 C   0  0  0  0  0  0  0  0  0  0  0  0
  1  2  1  0
  3  2  1  1
  3  4  1  0
  4  5  1  0
  5  6  1  0
  6  7  2  0
  6  8  1  0
  8  9  1  0
  9 10  2  0
 10 11  1  0
 11 12  2  0
 12 13  1  0
  9 14  1  0
 13 14  2  0
  3 15  1  0
 15 16  1  0
 16 17  2  0
 17 18  1  0
 18 19  2  0
 19 20  1  0
 16 21  1  0
 20 21  2  0
M  END
