pyridine_urea_5542
     RDKit          3D

 17 18  0  0  0  0  0  0  0  0999 V2000
   12.3300    2.4770   23.0290 O   0  0  0  0  0  0  0  0  0  0  0  0
   12.0940    1.2830   22.9500 C   0  0  0  0  0  0  0  0  0  0  0  0
   13.1200    0.2120   23.1590 C   0  0  0  0  0  0  0  0  0  0  0  0
   12.3780   -1.0400   22.6710 C   0  0  0  0  0  0  0  0  0  0  0  0
   11.0300   -0.7050   22.4790 C   0  0  1  0  0  0  0  0  0  0  0  0
   10.0500   -1.6390   23.1550 C   0  0  0  0  0  0  0  0  0  0  0  0
    8.7790   -1.4410   22.6280 N   0  0  0  0  0  0  0  0  0  0  0  0
    8.3580   -0.4480   21.7150 C   0  0  0  0  0  0  0  0  0  0  0  0
    8.9600    0.5870   21.4640 O   0  0  0  0  0  0  0  0  0  0  0  0
    7.1240   -0.8060   21.1290 N   0  0  0  0  0  0  0  0  0  0  0  0
    6.4890   -0.0840   20.0130 C   0  0  0  0  0  0  0  0  0  0  0  0
    5.2150    0.6660   20.4380 C   0  0  0  0  0  0  0  0  0  0  0  0
    4.5530    1.4350   19.2800 C   0  0  0  0  0  0  0  0  0  0  0  0
    5.1940    1.3750   17.9040 C   0  0  0  0  0  0  0  0  0  0  0  0
    6.3320    0.6460   17.7090 N   0  0  0  0  0  0  0  0  0  0  0  0
    6.9550   -0.0560   18.7190 C   0  0  0  0  0  0  0  0  0  0  0  0
   10.9000    0.6820   22.6450 N   0  0  0  0  0  0  0  0  0  0  0  0
  1  2  2  0
  2  3  1  0
  3  4  1  0
  4  5  1  0
  5  6  1  1
  6  7  1  0
  7  8  1  0
  8  9  2  0
  8 10  1  0
 10 11  1  0
 11 12  2  0
 12 13  1  0
 13 14  2  0
 14 15  1  0
 11 16  1  0
 15 16  2  0
  2 17  1  0
  5 17  1  0
M  END
