pyridine_urea_2424
     RDKit          3D

 25 27  0  0  0  0  0  0  0  0999 V2000
    9.2500    0.1340   21.5260 O   0  0  0  0  0  0  0  0  0  0  0  0
    8.2300   -0.4020   21.1880 C   0  0  0  0  0  0  0  0  0  0  0  0
    7.1820   -1.1790   20.8670 N   0  0  0  0  0  0  0  0  0  0  0  0
    6.4210   -0.4250   19.9540 C   0  0  0  0  0  0  0  0  0  0  0  0
    5.1750    0.1250   20.2870 C   0  0  0  0  0  0  0  0  0  0  0  0
    4.4860    0.9000   19.3420 C   0  0  0  0  0  0  0  0  0  0  0  0
    5.0690    1.0950   18.1040 C   0  0  0  0  0  0  0  0  0  0  0  0
    6.2540    0.5750   17.7660 N   0  0  0  0  0  0  0  0  0  0  0  0
    6.8930   -0.1670   18.6910 C   0  0  0  0  0  0  0  0  0  0  0  0
    8.9630   -1.5030   21.6390 N   0  0  0  0  0  0  0  0  0  0  0  0
   10.0390   -0.6420   22.1090 C   0  0  0  0  0  0  0  0  0  0  0  0
   11.4940   -1.0390   22.3970 C   0  0  0  0  0  0  0  0  0  0  0  0
   12.3390    0.0340   22.8370 C   0  0  0  0  0  0  0  0  0  0  0  0
   11.7250    1.3190   22.9390 C   0  0  0  0  0  0  0  0  0  0  0  0
   10.3760    1.6020   22.6340 C   0  0  0  0  0  0  0  0  0  0  0  0
    9.5950    0.6270   22.2490 C   0  0  0  0  0  0  0  0  0  0  0  0
    9.7080    2.8910   22.6830 C   0  0  0  0  0  0  0  0  0  0  0  0
   10.3720    3.8040   23.4230 C   0  0  0  0  0  0  0  0  0  0  0  0
   11.1680    2.8590   23.8830 C   0  0  0  0  0  0  0  0  0  0  0  0
   10.5280    2.0140   24.7440 O   0  0  0  0  0  0  0  0  0  0  0  0
   12.3150    2.5040   23.3890 N   0  0  0  0  0  0  0  0  0  0  0  0
   13.0550    3.4870   22.7690 C   0  0  0  0  0  0  0  0  0  0  0  0
   12.4630    4.3960   21.9070 C   0  0  0  0  0  0  0  0  0  0  0  0
   13.3360    5.2590   21.3960 F   0  0  0  0  0  0  0  0  0  0  0  0
   11.6610    5.2110   22.6410 F   0  0  0  0  0  0  0  0  0  0  0  0
  1  2  2  0
  2  3  1  0
  3  4  1  0
  4  5  2  0
  5  6  1  0
  6  7  2  0
  7  8  1  0
  4  9  1  0
  8  9  2  0
  2 10  1  0
 10 11  1  0
 11 12  2  0
 12 13  1  0
 13 14  2  0
 14 15  1  0
 11 16  1  0
 15 16  2  0
 15 17  1  0
 17 18  1  0
 18 19  1  0
 19 20  2  0
 14 21  1  0
 19 21  1  0
 21 22  1  0
 22 23  1  0
 23 24  1  0
 23 25  1  0
M  END
