pyridine_urea_9160
     RDKit          3D

 18 20  0  0  0  0  0  0  0  0999 V2000
    8.5390    1.3160   20.9790 O   0  0  0  0  0  0  0  0  0  0  0  0
    8.3480    0.1530   21.3460 C   0  0  0  0  0  0  0  0  0  0  0  0
    7.1820   -0.5000   21.0810 N   0  0  0  0  0  0  0  0  0  0  0  0
    6.5350    0.0680   19.9460 C   0  0  0  0  0  0  0  0  0  0  0  0
    5.2730    0.8880   20.2330 C   0  0  0  0  0  0  0  0  0  0  0  0
    4.5960    1.5040   19.1890 C   0  0  0  0  0  0  0  0  0  0  0  0
    5.1090    1.3450   17.9100 C   0  0  0  0  0  0  0  0  0  0  0  0
    6.2370    0.5930   17.6980 N   0  0  0  0  0  0  0  0  0  0  0  0
    6.9630   -0.0550   18.6890 C   0  0  0  0  0  0  0  0  0  0  0  0
    9.2340   -0.6000   22.0310 N   0  0  0  0  0  0  0  0  0  0  0  0
   10.1700   -1.2080   22.7480 C   0  0  1  0  0  0  0  0  0  0  0  0
   11.2190   -1.7290   22.0050 C   0  0  0  0  0  0  0  0  0  0  0  0
   12.3460   -1.2040   22.5590 C   0  0  1  0  0  0  0  0  0  0  0  0
   12.0700   -0.5060   23.6140 C   0  0  1  0  0  0  0  0  0  0  0  0
   10.6810   -0.4740   23.7860 C   0  0  0  0  0  0  0  0  0  0  0  0
   12.6280   -1.5670   24.1020 C   0  0  0  0  0  0  0  0  0  0  0  0
   11.8950   -2.5240   24.6790 F   0  0  0  0  0  0  0  0  0  0  0  0
   13.8410   -1.6810   24.5580 F   0  0  0  0  0  0  0  0  0  0  0  0
  1  2  2  0
  2  3  1  0
  3  4  1  0
  4  5  2  0
  5  6  1  0
  6  7  2  0
  7  8  1  0
  4  9  1  0
  8  9  2  0
  2 10  1  0
 11 10  1  6
 11 12  1  0
 13 12  1  1
 13 14  1  0
 11 15  1  0
 14 15  1  1
 13 16  1  0
 14 16  1  0
 16 17  1  0
 16 18  1  0
M  END
