pyridine_urea_175
     RDKit          3D

 22 24  0  0  0  0  0  0  0  0999 V2000
    8.9310    1.2700   21.1940 O   0  0  0  0  0  0  0  0  0  0  0  0
    8.4580    0.1760   21.5340 C   0  0  0  0  0  0  0  0  0  0  0  0
    8.9960   -0.6050   22.5350 N   0  0  0  0  0  0  0  0  0  0  0  0
   10.4010   -0.9960   22.4400 C   0  0  0  0  0  0  0  0  0  0  0  0
   11.3150   -0.5440   23.6280 C   0  0  0  0  0  0  0  0  0  0  0  0
   11.4060    0.9000   23.9980 C   0  0  0  0  0  0  0  0  0  0  0  0
   12.4380    0.7070   23.1600 C   0  0  0  0  0  0  0  0  0  0  0  0
   12.6300   -0.6840   22.5600 C   0  0  0  0  0  0  0  0  0  0  0  0
   11.5670   -1.4540   23.1100 N   0  0  0  0  0  0  0  0  0  0  0  0
   10.5100   -1.0250   24.0510 C   0  0  0  0  0  0  0  0  0  0  0  0
   10.3670    0.2330   24.5660 C   0  0  0  0  0  0  0  0  0  0  0  0
    9.3630    0.5850   25.4330 F   0  0  0  0  0  0  0  0  0  0  0  0
   12.9040   -0.6640   23.6380 C   0  0  0  0  0  0  0  0  0  0  0  0
   12.6960   -1.3220   24.8320 C   0  0  0  0  0  0  0  0  0  0  0  0
   11.3240   -1.4920   24.8950 C   0  0  0  0  0  0  0  0  0  0  0  0
    7.3280   -0.3770   20.9630 N   0  0  0  0  0  0  0  0  0  0  0  0
    6.5120    0.1970   20.0270 C   0  0  0  0  0  0  0  0  0  0  0  0
    5.2620    0.8710   20.6450 C   0  0  0  0  0  0  0  0  0  0  0  0
    4.6550    1.3930   19.3440 C   0  0  0  0  0  0  0  0  0  0  0  0
    5.1850    1.2390   17.9660 C   0  0  0  0  0  0  0  0  0  0  0  0
    6.2710    0.6120   17.6550 N   0  0  0  0  0  0  0  0  0  0  0  0
    6.8930    0.1150   18.7030 C   0  0  0  0  0  0  0  0  0  0  0  0
  1  2  2  0
  2  3  1  0
  3  4  1  0
  5  4  1  0
  5  6  1  0
  6  7  2  0
  7  8  1  0
  8  9  2  0
  9 10  1  0
  6 11  1  0
 10 11  2  0
 11 12  1  0
  5 13  1  0
 13 14  1  0
  5 15  1  0
 14 15  1  0
  2 16  1  0
 16 17  1  0
 17 18  2  0
 18 19  1  0
 19 20  2  0
 20 21  1  0
 17 22  1  0
 21 22  2  0
M  END
