pyridine_urea_1790
     RDKit          3D

 17 17  0  0  0  0  0  0  0  0999 V2000
    7.5960   -4.5670   23.6660 N   0  0  0  0  0  0  0  0  0  0  0  0
    7.6860   -2.9050   23.8390 S   0  0  0  0  0  0  0  0  0  0  0  0
    7.0540   -2.3710   22.6530 O   0  0  0  0  0  0  0  0  0  0  0  0
    7.2060   -2.5590   25.1590 O   0  0  0  0  0  0  0  0  0  0  0  0
    9.3440   -2.6620   23.7370 N   0  0  0  0  0  0  0  0  0  0  0  0
    9.8390   -1.2610   23.9050 C   0  0  0  0  0  0  0  0  0  0  0  0
   10.4750   -0.7960   22.6420 C   0  0  0  0  0  0  0  0  0  0  0  0
    9.4810   -0.9120   21.5780 N   0  0  0  0  0  0  0  0  0  0  0  0
    8.6400    0.0950   21.3570 C   0  0  0  0  0  0  0  0  0  0  0  0
    9.0730    1.4540   21.3030 O   0  0  0  0  0  0  0  0  0  0  0  0
    7.2660   -0.3470   21.1200 N   0  0  0  0  0  0  0  0  0  0  0  0
    6.5600    0.1840   20.0460 C   0  0  0  0  0  0  0  0  0  0  0  0
    5.4160    0.9430   20.2540 C   0  0  0  0  0  0  0  0  0  0  0  0
    4.6910    1.5260   19.2240 C   0  0  0  0  0  0  0  0  0  0  0  0
    5.1290    1.3410   17.9340 C   0  0  0  0  0  0  0  0  0  0  0  0
    6.2250    0.6010   17.6780 N   0  0  0  0  0  0  0  0  0  0  0  0
    6.9420    0.0180   18.7260 C   0  0  0  0  0  0  0  0  0  0  0  0
  2  1  1  0
  2  3  2  0
  2  4  2  0
  2  5  1  0
  5  6  1  0
  6  7  1  0
  7  8  1  0
  8  9  1  0
  9 10  2  0
  9 11  1  0
 11 12  1  0
 12 13  2  0
 13 14  1  0
 14 15  2  0
 15 16  1  0
 12 17  1  0
 16 17  2  0
M  END
