pyridine_urea_8162
     RDKit          3D

 23 25  0  0  0  0  0  0  0  0999 V2000
   13.2920   -1.9260   23.3560 C   0  0  0  0  0  0  0  0  0  0  0  0
   11.9280   -2.0400   23.2160 N   0  0  0  0  0  0  0  0  0  0  0  0
   11.2930   -2.3280   21.9670 C   0  0  0  0  0  0  0  0  0  0  0  0
    9.9890   -2.3740   22.1640 N   0  0  0  0  0  0  0  0  0  0  0  0
    9.8050   -2.0840   23.6470 C   0  0  0  0  0  0  0  0  0  0  0  0
    8.4790   -2.0520   24.1240 C   0  0  1  0  0  0  0  0  0  0  0  0
    7.6990   -0.9270   23.4910 C   0  0  0  0  0  0  0  0  0  0  0  0
    8.4950    0.0120   22.9050 N   0  0  0  0  0  0  0  0  0  0  0  0
    8.3380    0.4930   21.6150 C   0  0  0  0  0  0  0  0  0  0  0  0
    8.9890    1.4320   21.1550 O   0  0  0  0  0  0  0  0  0  0  0  0
    7.3510   -0.2310   21.0110 N   0  0  0  0  0  0  0  0  0  0  0  0
    6.5960    0.2900   19.9360 C   0  0  0  0  0  0  0  0  0  0  0  0
    5.3830    1.1120   20.3840 C   0  0  0  0  0  0  0  0  0  0  0  0
    4.6080    1.6920   19.2190 C   0  0  0  0  0  0  0  0  0  0  0  0
    5.1200    1.3910   17.8400 C   0  0  0  0  0  0  0  0  0  0  0  0
    6.1900    0.6410   17.6350 N   0  0  0  0  0  0  0  0  0  0  0  0
    6.9830    0.0500   18.6370 C   0  0  0  0  0  0  0  0  0  0  0  0
    7.8660   -3.2520   24.0430 N   0  0  0  0  0  0  0  0  0  0  0  0
    6.6920   -3.3320   24.7040 C   0  0  0  0  0  0  0  0  0  0  0  0
    5.9930   -4.4330   24.2740 C   0  0  0  0  0  0  0  0  0  0  0  0
    6.6980   -4.7960   23.1340 C   0  0  0  0  0  0  0  0  0  0  0  0
    7.5390   -3.7120   22.7980 C   0  0  0  0  0  0  0  0  0  0  0  0
   11.0290   -1.8800   24.2860 C   0  0  0  0  0  0  0  0  0  0  0  0
  1  2  1  0
  2  3  1  0
  3  4  2  0
  4  5  1  0
  5  6  1  0
  6  7  1  6
  7  8  1  0
  8  9  1  0
  9 10  2  0
  9 11  1  0
 11 12  1  0
 12 13  2  0
 13 14  1  0
 14 15  2  0
 15 16  1  0
 12 17  1  0
 16 17  2  0
  6 18  1  0
 18 19  1  0
 19 20  1  0
 20 21  1  0
 18 22  1  0
 21 22  1  0
  2 23  1  0
  5 23  2  0
M  END
