pyridine_urea_11340
     RDKit          3D

 19 21  0  0  0  0  0  0  0  0999 V2000
    8.9480    1.3130   21.1760 O   0  0  0  0  0  0  0  0  0  0  0  0
    8.3580    0.3440   21.6670 C   0  0  0  0  0  0  0  0  0  0  0  0
    8.7210   -0.2020   22.8730 N   0  0  0  0  0  0  0  0  0  0  0  0
    9.6120   -1.3290   22.8920 C   0  0  0  0  0  0  0  0  0  0  0  0
   10.9740   -1.0210   23.4740 C   0  0  1  0  0  0  0  0  0  0  0  0
   11.0300   -1.3160   24.9190 C   0  0  0  0  0  0  0  0  0  0  0  0
    9.9830   -0.6060   25.5760 O   0  0  0  0  0  0  0  0  0  0  0  0
   12.1470   -1.7890   22.6570 C   0  0  0  0  0  0  0  0  0  0  0  0
   12.8660   -0.5180   22.2380 C   0  0  2  0  0  0  0  0  0  0  0  0
   13.2090    0.2780   23.2650 C   0  0  0  0  0  0  0  0  0  0  0  0
   12.2020    0.8190   22.8150 C   0  0  2  0  0  0  0  0  0  0  0  0
   11.3100    0.4800   23.8870 C   0  0  0  0  0  0  0  0  0  0  0  0
    7.2760   -0.3240   21.1530 N   0  0  0  0  0  0  0  0  0  0  0  0
    6.5270    0.2240   20.0300 C   0  0  0  0  0  0  0  0  0  0  0  0
    5.3780    0.9210   20.3830 C   0  0  0  0  0  0  0  0  0  0  0  0
    4.6440    1.4840   19.3580 C   0  0  0  0  0  0  0  0  0  0  0  0
    5.1330    1.3050   17.9470 C   0  0  0  0  0  0  0  0  0  0  0  0
    6.2370    0.6180   17.6290 N   0  0  0  0  0  0  0  0  0  0  0  0
    6.9300    0.0800   18.6440 C   0  0  0  0  0  0  0  0  0  0  0  0
  1  2  2  0
  2  3  1  0
  3  4  1  0
  5  4  1  6
  5  6  1  0
  6  7  1  0
  5  8  1  0
  9  8  1  1
  9 10  1  0
  9 11  1  0
 11 10  1  1
  5 12  1  0
 11 12  1  0
  2 13  1  0
 13 14  1  0
 14 15  2  0
 15 16  1  0
 16 17  2  0
 17 18  1  0
 14 19  1  0
 18 19  2  0
M  END
