pyridine_urea_6316
     RDKit          3D

 19 19  0  0  0  0  0  0  0  0999 V2000
   13.0080   -2.0320   21.3190 C   0  0  0  0  0  0  0  0  0  0  0  0
   12.3000   -1.1550   22.1750 O   0  0  0  0  0  0  0  0  0  0  0  0
   10.9130   -1.4450   22.1240 C   0  0  0  0  0  0  0  0  0  0  0  0
   10.1700   -0.8520   23.3130 C   0  0  1  0  0  0  0  0  0  0  0  0
   10.7200    0.4740   23.6910 C   0  0  0  0  0  0  0  0  0  0  0  0
   12.0540    0.4750   24.0220 C   0  0  0  0  0  0  0  0  0  0  0  0
   12.7150    1.2510   23.3520 O   0  0  0  0  0  0  0  0  0  0  0  0
   12.4450   -0.4120   25.0780 O   0  0  0  0  0  0  0  0  0  0  0  0
   13.0390   -1.6280   24.6120 C   0  0  0  0  0  0  0  0  0  0  0  0
    8.7800   -0.7330   22.8440 N   0  0  0  0  0  0  0  0  0  0  0  0
    8.4060    0.0080   21.7270 C   0  0  0  0  0  0  0  0  0  0  0  0
    9.0750    1.1440   21.2890 O   0  0  0  0  0  0  0  0  0  0  0  0
    7.2150   -0.5760   21.1410 N   0  0  0  0  0  0  0  0  0  0  0  0
    6.5750    0.0480   19.9890 C   0  0  0  0  0  0  0  0  0  0  0  0
    5.3410    0.8450   20.2890 C   0  0  0  0  0  0  0  0  0  0  0  0
    4.6470    1.5040   19.2790 C   0  0  0  0  0  0  0  0  0  0  0  0
    5.1170    1.4170   17.9670 C   0  0  0  0  0  0  0  0  0  0  0  0
    6.3110    0.6310   17.6940 N   0  0  0  0  0  0  0  0  0  0  0  0
    6.9800   -0.0120   18.6920 C   0  0  0  0  0  0  0  0  0  0  0  0
  1  2  1  0
  2  3  1  0
  4  3  1  6
  4  5  1  0
  5  6  1  0
  6  7  2  0
  6  8  1  0
  8  9  1  0
  4 10  1  0
 10 11  1  0
 11 12  2  0
 11 13  1  0
 13 14  1  0
 14 15  2  0
 15 16  1  0
 16 17  2  0
 17 18  1  0
 14 19  1  0
 18 19  2  0
M  END
