pyridine_urea_131
     RDKit          3D

 18 19  0  0  0  0  0  0  0  0999 V2000
    9.6140    0.3570   25.5650 N   0  0  0  0  0  0  0  0  0  0  0  0
   10.1800   -0.0240   24.6340 C   0  0  0  0  0  0  0  0  0  0  0  0
    9.4240    0.6710   23.6510 O   0  0  0  0  0  0  0  0  0  0  0  0
   10.9450   -0.6540   23.9960 C   0  0  2  0  0  0  0  0  0  0  0  0
   12.0650   -0.1070   24.0090 O   0  0  0  0  0  0  0  0  0  0  0  0
   12.7050   -0.7950   22.9340 C   0  0  0  0  0  0  0  0  0  0  0  0
   11.6870   -1.5010   22.1570 C   0  0  0  0  0  0  0  0  0  0  0  0
   10.5590   -0.7870   22.4980 C   0  0  1  0  0  0  0  0  0  0  0  0
    9.2810   -1.1620   22.2220 N   0  0  0  0  0  0  0  0  0  0  0  0
    8.5540   -0.2370   21.5270 C   0  0  0  0  0  0  0  0  0  0  0  0
    8.9840    0.8900   21.3240 O   0  0  0  0  0  0  0  0  0  0  0  0
    7.3250   -0.6920   21.0940 N   0  0  0  0  0  0  0  0  0  0  0  0
    6.5180   -0.0050   20.0530 C   0  0  0  0  0  0  0  0  0  0  0  0
    5.4140    0.6380   20.5520 C   0  0  0  0  0  0  0  0  0  0  0  0
    4.7210    1.2980   19.3680 C   0  0  0  0  0  0  0  0  0  0  0  0
    5.1850    1.2090   18.0760 C   0  0  0  0  0  0  0  0  0  0  0  0
    6.2580    0.5540   17.7080 N   0  0  0  0  0  0  0  0  0  0  0  0
    6.8950   -0.0370   18.7160 C   0  0  0  0  0  0  0  0  0  0  0  0
  1  2  1  0
  2  3  2  0
  4  2  1  1
  4  5  1  0
  5  6  1  0
  6  7  1  0
  4  8  1  0
  7  8  1  0
  8  9  1  1
  9 10  1  0
 10 11  2  0
 10 12  1  0
 12 13  1  0
 13 14  2  0
 14 15  1  0
 15 16  2  0
 16 17  1  0
 13 18  1  0
 17 18  2  0
M  END
