pyridine_urea_10883
     RDKit          3D

 20 21  0  0  0  0  0  0  0  0999 V2000
   12.8090   -0.7530   22.6030 C   0  0  0  0  0  0  0  0  0  0  0  0
   11.5530   -1.5780   22.8060 C   0  0  0  0  0  0  0  0  0  0  0  0
   11.4240   -2.2750   24.0140 C   0  0  0  0  0  0  0  0  0  0  0  0
   10.3460   -0.6230   22.7310 C   0  0  2  0  0  0  0  0  0  0  0  0
    9.5640   -0.9130   21.6640 N   0  0  0  0  0  0  0  0  0  0  0  0
    8.6370    0.0710   21.3560 C   0  0  0  0  0  0  0  0  0  0  0  0
    8.9230    1.2610   21.1890 O   0  0  0  0  0  0  0  0  0  0  0  0
    7.3930   -0.4550   21.2110 N   0  0  0  0  0  0  0  0  0  0  0  0
    6.6840    0.0780   20.1730 C   0  0  0  0  0  0  0  0  0  0  0  0
    5.4610    0.8810   20.5300 C   0  0  0  0  0  0  0  0  0  0  0  0
    4.7120    1.4680   19.3670 C   0  0  0  0  0  0  0  0  0  0  0  0
    5.1820    1.2370   18.0970 C   0  0  0  0  0  0  0  0  0  0  0  0
    6.2440    0.5380   17.7160 N   0  0  0  0  0  0  0  0  0  0  0  0
    6.9650   -0.0280   18.8120 C   0  0  0  0  0  0  0  0  0  0  0  0
   10.7960    0.6820   22.7690 C   0  0  0  0  0  0  0  0  0  0  0  0
   10.9560    2.1180   22.9090 C   0  0  0  0  0  0  0  0  0  0  0  0
   10.1010    3.0840   23.2770 N   0  0  0  0  0  0  0  0  0  0  0  0
    9.0830    2.3830   23.4750 N   0  0  0  0  0  0  0  0  0  0  0  0
    7.9530    3.0140   23.8760 C   0  0  0  0  0  0  0  0  0  0  0  0
    9.3130    1.1160   23.2460 C   0  0  0  0  0  0  0  0  0  0  0  0
  1  2  1  0
  2  3  1  0
  2  4  1  0
  4  5  1  6
  5  6  1  0
  6  7  2  0
  6  8  1  0
  8  9  1  0
  9 10  2  0
 10 11  1  0
 11 12  2  0
 12 13  1  0
  9 14  1  0
 13 14  2  0
  4 15  1  0
 15 16  1  0
 16 17  2  0
 17 18  1  0
 18 19  1  0
 15 20  2  0
 18 20  1  0
M  END
