pyridine_urea_9225
     RDKit          3D

 18 19  0  0  0  0  0  0  0  0999 V2000
   13.4170   -2.1870   23.7820 C   0  0  0  0  0  0  0  0  0  0  0  0
   12.4700   -1.0930   23.3910 C   0  0  0  0  0  0  0  0  0  0  0  0
   12.7640    0.2790   23.3010 C   0  0  0  0  0  0  0  0  0  0  0  0
   11.8430    1.2530   22.9540 C   0  0  0  0  0  0  0  0  0  0  0  0
   12.2160    3.1550   22.8070 Br  0  0  0  0  0  0  0  0  0  0  0  0
   10.5960    0.7760   22.6960 C   0  0  0  0  0  0  0  0  0  0  0  0
   10.2150   -0.5490   22.7410 C   0  0  0  0  0  0  0  0  0  0  0  0
    8.9080   -0.9060   22.4250 N   0  0  0  0  0  0  0  0  0  0  0  0
    8.2240   -0.1370   21.5190 C   0  0  0  0  0  0  0  0  0  0  0  0
    8.6010    0.9710   21.1650 O   0  0  0  0  0  0  0  0  0  0  0  0
    7.0740   -0.7150   21.0460 N   0  0  0  0  0  0  0  0  0  0  0  0
    6.3110    0.0020   20.0290 C   0  0  0  0  0  0  0  0  0  0  0  0
    5.1090    0.6580   20.2250 C   0  0  0  0  0  0  0  0  0  0  0  0
    4.5270    1.3160   19.1460 C   0  0  0  0  0  0  0  0  0  0  0  0
    5.1620    1.2930   17.9170 C   0  0  0  0  0  0  0  0  0  0  0  0
    6.3210    0.6580   17.7050 N   0  0  0  0  0  0  0  0  0  0  0  0
    6.8650    0.0290   18.7570 C   0  0  0  0  0  0  0  0  0  0  0  0
   11.1710   -1.4960   23.0950 C   0  0  0  0  0  0  0  0  0  0  0  0
  1  2  1  0
  2  3  2  0
  3  4  1  0
  4  5  1  0
  4  6  2  0
  6  7  1  0
  7  8  1  0
  8  9  1  0
  9 10  2  0
  9 11  1  0
 11 12  1  0
 12 13  2  0
 13 14  1  0
 14 15  2  0
 15 16  1  0
 12 17  1  0
 16 17  2  0
  2 18  1  0
  7 18  2  0
M  END
