pyridine_urea_8451
     RDKit          3D

 22 24  0  0  0  0  0  0  0  0999 V2000
    8.1650    0.7840   21.2040 O   0  0  0  0  0  0  0  0  0  0  0  0
    7.3530   -0.0400   21.6250 C   0  0  0  0  0  0  0  0  0  0  0  0
    6.3810   -0.6180   20.9190 N   0  0  0  0  0  0  0  0  0  0  0  0
    5.9710    0.0760   19.8250 C   0  0  0  0  0  0  0  0  0  0  0  0
    4.8030    0.8110   19.9340 C   0  0  0  0  0  0  0  0  0  0  0  0
    4.3740    1.5540   18.8500 C   0  0  0  0  0  0  0  0  0  0  0  0
    5.1390    1.5200   17.7080 C   0  0  0  0  0  0  0  0  0  0  0  0
    6.2710    0.8040   17.5860 N   0  0  0  0  0  0  0  0  0  0  0  0
    6.6630    0.0980   18.6470 C   0  0  0  0  0  0  0  0  0  0  0  0
    7.3860   -0.4790   22.8900 N   0  0  0  0  0  0  0  0  0  0  0  0
    8.7220   -0.7060   23.0030 C   0  0  0  0  0  0  0  0  0  0  0  0
    9.7520    0.2600   23.3190 C   0  0  0  0  0  0  0  0  0  0  0  0
   10.7910   -0.5290   23.2300 N   0  0  0  0  0  0  0  0  0  0  0  0
   10.6660   -1.8930   22.9070 N   0  0  0  0  0  0  0  0  0  0  0  0
   11.6700   -1.3060   23.0990 C   0  0  0  0  0  0  0  0  0  0  0  0
   11.4920   -0.0920   22.5430 N   0  0  0  0  0  0  0  0  0  0  0  0
   12.4270    0.7480   22.5750 C   0  0  0  0  0  0  0  0  0  0  0  0
   13.4960    0.2850   23.1760 C   0  0  0  0  0  0  0  0  0  0  0  0
   13.5730   -1.0180   23.7560 C   0  0  0  0  0  0  0  0  0  0  0  0
   12.6290   -1.8910   23.7370 C   0  0  0  0  0  0  0  0  0  0  0  0
   12.6380   -3.1190   24.2520 F   0  0  0  0  0  0  0  0  0  0  0  0
    9.3590   -1.9630   22.7910 C   0  0  0  0  0  0  0  0  0  0  0  0
  1  2  2  0
  2  3  1  0
  3  4  1  0
  4  5  2  0
  5  6  1  0
  6  7  2  0
  7  8  1  0
  4  9  1  0
  8  9  2  0
  2 10  1  0
 10 11  1  0
 11 12  1  0
 12 13  2  0
 13 14  1  0
 14 15  1  0
 15 16  2  0
 16 17  1  0
 17 18  2  0
 18 19  1  0
 15 20  1  0
 19 20  2  0
 20 21  1  0
 11 22  2  0
 14 22  1  0
M  END
