pyridine_urea_6375
     RDKit          3D

 23 24  0  0  0  0  0  0  0  0999 V2000
    8.7870    0.9420   21.1680 O   0  0  0  0  0  0  0  0  0  0  0  0
    8.3520   -0.0840   21.6730 C   0  0  0  0  0  0  0  0  0  0  0  0
    7.2360   -0.7240   21.1590 N   0  0  0  0  0  0  0  0  0  0  0  0
    6.5540   -0.0630   20.0600 C   0  0  0  0  0  0  0  0  0  0  0  0
    5.2780    0.6940   20.4180 C   0  0  0  0  0  0  0  0  0  0  0  0
    4.6100    1.3750   19.2700 C   0  0  0  0  0  0  0  0  0  0  0  0
    5.1840    1.2690   18.0190 C   0  0  0  0  0  0  0  0  0  0  0  0
    6.3090    0.5840   17.7500 N   0  0  0  0  0  0  0  0  0  0  0  0
    6.9600   -0.0570   18.7490 C   0  0  0  0  0  0  0  0  0  0  0  0
    8.8790   -0.6980   22.8130 N   0  0  0  0  0  0  0  0  0  0  0  0
   10.3490   -0.7370   23.1480 C   0  0  2  0  0  0  0  0  0  0  0  0
   10.9400    0.4800   22.9820 C   0  0  0  0  0  0  0  0  0  0  0  0
    9.9970    1.3390   22.7930 C   0  0  0  0  0  0  0  0  0  0  0  0
   11.4310    1.6790   22.7990 C   0  0  0  0  0  0  0  0  0  0  0  0
   11.8590    0.1640   23.0890 C   0  0  0  0  0  0  0  0  0  0  0  0
   12.9000   -1.2030   23.3910 Cl  0  0  0  0  0  0  0  0  0  0  0  0
   13.2090    0.5790   23.0910 C   0  0  0  0  0  0  0  0  0  0  0  0
   12.1150    1.3120   22.9120 C   0  0  0  0  0  0  0  0  0  0  0  0
   12.1910    3.0370   22.6460 Cl  0  0  0  0  0  0  0  0  0  0  0  0
   10.9260   -1.9770   22.4060 C   0  0  0  0  0  0  0  0  0  0  0  0
   11.3690   -2.8620   23.3110 F   0  0  0  0  0  0  0  0  0  0  0  0
   11.9430   -1.7530   21.5430 F   0  0  0  0  0  0  0  0  0  0  0  0
    9.9370   -2.5920   21.7340 F   0  0  0  0  0  0  0  0  0  0  0  0
  1  2  2  0
  2  3  1  0
  3  4  1  0
  4  5  2  0
  5  6  1  0
  6  7  2  0
  7  8  1  0
  4  9  1  0
  8  9  2  0
  2 10  1  0
 11 10  1  6
 11 12  1  0
 12 13  2  0
 13 14  1  0
 14 15  2  0
 15 16  1  0
 15 17  1  0
 12 18  1  0
 17 18  2  0
 18 19  1  0
 11 20  1  0
 20 21  1  0
 20 22  1  0
 20 23  1  0
M  END
