pyridine_urea_14621
     RDKit          3D

 21 23  0  0  0  0  0  0  0  0999 V2000
    9.0430    1.0060   21.6540 O   0  0  0  0  0  0  0  0  0  0  0  0
    8.6760   -0.1510   21.5280 C   0  0  0  0  0  0  0  0  0  0  0  0
    9.5200   -1.2460   21.6590 N   0  0  0  0  0  0  0  0  0  0  0  0
   10.3330   -1.6350   22.7700 C   0  0  0  0  0  0  0  0  0  0  0  0
   11.5780   -1.0620   23.0950 C   0  0  0  0  0  0  0  0  0  0  0  0
   11.6980    0.3390   23.2400 C   0  0  0  0  0  0  0  0  0  0  0  0
   12.9120   -0.0550   22.8050 C   0  0  0  0  0  0  0  0  0  0  0  0
   12.4330    1.0680   23.1020 C   0  0  0  0  0  0  0  0  0  0  0  0
   10.9000    1.0960   23.6340 C   0  0  0  0  0  0  0  0  0  0  0  0
    9.5380    0.1050   24.0070 Cl  0  0  0  0  0  0  0  0  0  0  0  0
   11.1080    2.2490   23.6840 C   0  0  0  0  0  0  0  0  0  0  0  0
   12.3590    1.8140   23.2080 C   0  0  0  0  0  0  0  0  0  0  0  0
   12.7170   -1.7770   22.3100 C   0  0  0  0  0  0  0  0  0  0  0  0
   12.6630   -1.9260   23.5530 C   0  0  0  0  0  0  0  0  0  0  0  0
    7.3840   -0.5170   21.1910 N   0  0  0  0  0  0  0  0  0  0  0  0
    6.6860    0.0290   20.0280 C   0  0  0  0  0  0  0  0  0  0  0  0
    5.5500    0.7730   20.4080 C   0  0  0  0  0  0  0  0  0  0  0  0
    4.7570    1.3980   19.4220 C   0  0  0  0  0  0  0  0  0  0  0  0
    5.1260    1.2590   18.0860 C   0  0  0  0  0  0  0  0  0  0  0  0
    6.2210    0.5300   17.7390 N   0  0  0  0  0  0  0  0  0  0  0  0
    7.0030   -0.0890   18.7030 C   0  0  0  0  0  0  0  0  0  0  0  0
  1  2  2  0
  2  3  1  0
  3  4  1  0
  5  4  1  0
  5  6  1  0
  6  7  2  0
  7  8  1  0
  8  9  2  0
  9 10  1  0
  9 11  1  0
  6 12  1  0
 11 12  2  0
  5 13  1  0
  5 14  1  0
 13 14  1  0
  2 15  1  0
 15 16  1  0
 16 17  2  0
 17 18  1  0
 18 19  2  0
 19 20  1  0
 16 21  1  0
 20 21  2  0
M  END
