pyridine_urea_6283
     RDKit          3D

 23 25  0  0  0  0  0  0  0  0999 V2000
    8.9760    0.7740   21.2940 O   0  0  0  0  0  0  0  0  0  0  0  0
    8.5110   -0.3660   21.2360 C   0  0  0  0  0  0  0  0  0  0  0  0
    7.1620   -0.6040   21.0400 N   0  0  0  0  0  0  0  0  0  0  0  0
    6.4970    0.0580   19.9600 C   0  0  0  0  0  0  0  0  0  0  0  0
    5.2160    0.8100   20.3050 C   0  0  0  0  0  0  0  0  0  0  0  0
    4.5790    1.4930   19.1460 C   0  0  0  0  0  0  0  0  0  0  0  0
    5.1830    1.3880   17.9070 C   0  0  0  0  0  0  0  0  0  0  0  0
    6.3140    0.7020   17.6650 N   0  0  0  0  0  0  0  0  0  0  0  0
    6.9320    0.0650   18.6700 C   0  0  0  0  0  0  0  0  0  0  0  0
    9.2770   -1.5150   21.3510 N   0  0  0  0  0  0  0  0  0  0  0  0
   10.4520   -1.4620   22.2370 C   0  0  0  0  0  0  0  0  0  0  0  0
   11.7210   -1.4810   21.7420 C   0  0  0  0  0  0  0  0  0  0  0  0
   12.7360   -1.3520   22.8410 C   0  0  0  0  0  0  0  0  0  0  0  0
   12.4760   -1.2560   24.1740 C   0  0  0  0  0  0  0  0  0  0  0  0
   11.1670   -1.2940   24.5950 C   0  0  0  0  0  0  0  0  0  0  0  0
   10.1510   -1.3910   23.6980 C   0  0  0  0  0  0  0  0  0  0  0  0
    8.6800   -1.4550   24.1730 C   0  0  0  0  0  0  0  0  0  0  0  0
    8.8950   -2.8570   23.6720 C   0  0  0  0  0  0  0  0  0  0  0  0
    8.8030   -3.1130   22.3710 F   0  0  0  0  0  0  0  0  0  0  0  0
    7.9400   -3.6710   24.1800 F   0  0  0  0  0  0  0  0  0  0  0  0
   10.0960   -3.3240   24.0620 F   0  0  0  0  0  0  0  0  0  0  0  0
    7.5220   -0.5300   24.1950 C   0  0  0  0  0  0  0  0  0  0  0  0
    7.7260   -1.1550   22.9950 C   0  0  0  0  0  0  0  0  0  0  0  0
  1  2  2  0
  2  3  1  0
  3  4  1  0
  4  5  2  0
  5  6  1  0
  6  7  2  0
  7  8  1  0
  4  9  1  0
  8  9  2  0
  2 10  1  0
 10 11  1  0
 11 12  2  0
 12 13  1  0
 13 14  2  0
 14 15  1  0
 11 16  1  0
 15 16  2  0
 17 16  1  0
 17 18  1  0
 18 19  1  0
 18 20  1  0
 18 21  1  0
 17 22  1  0
 17 23  1  0
 22 23  1  0
M  END
