pyridine_urea_10891
     RDKit          3D

 20 21  0  0  0  0  0  0  0  0999 V2000
   10.2480    0.8700   24.0320 C   0  0  0  0  0  0  0  0  0  0  0  0
    9.1400   -0.0880   23.7000 C   0  0  2  0  0  0  0  0  0  0  0  0
    9.4150   -1.1290   22.8860 C   0  0  0  0  0  0  0  0  0  0  0  0
   10.2860   -1.6430   23.4100 O   0  0  0  0  0  0  0  0  0  0  0  0
   11.3700   -1.4540   22.7270 C   0  0  0  0  0  0  0  0  0  0  0  0
   11.4880   -2.3580   21.7540 C   0  0  0  0  0  0  0  0  0  0  0  0
   12.5880   -2.4080   20.8410 C   0  0  0  0  0  0  0  0  0  0  0  0
   13.6180   -1.3560   21.0220 C   0  0  0  0  0  0  0  0  0  0  0  0
   13.4210   -0.3440   22.1710 C   0  0  0  0  0  0  0  0  0  0  0  0
   12.3190   -0.4380   22.9650 C   0  0  0  0  0  0  0  0  0  0  0  0
    8.0730    0.5140   22.9960 N   0  0  0  0  0  0  0  0  0  0  0  0
    8.1060    0.6800   21.6420 C   0  0  0  0  0  0  0  0  0  0  0  0
    8.9440    1.6560   21.0390 O   0  0  0  0  0  0  0  0  0  0  0  0
    7.2350   -0.1810   21.0130 N   0  0  0  0  0  0  0  0  0  0  0  0
    6.4480    0.3120   20.0260 C   0  0  0  0  0  0  0  0  0  0  0  0
    5.2620    0.9830   20.2450 C   0  0  0  0  0  0  0  0  0  0  0  0
    4.5780    1.4650   19.1540 C   0  0  0  0  0  0  0  0  0  0  0  0
    5.1050    1.2590   17.8920 C   0  0  0  0  0  0  0  0  0  0  0  0
    6.2380    0.6030   17.6560 N   0  0  0  0  0  0  0  0  0  0  0  0
    6.8830    0.1430   18.7310 C   0  0  0  0  0  0  0  0  0  0  0  0
  2  1  1  6
  2  3  1  0
  3  4  1  0
  4  5  1  0
  5  6  2  0
  6  7  1  0
  7  8  2  0
  8  9  1  0
  5 10  1  0
  9 10  2  0
  2 11  1  0
 11 12  1  0
 12 13  2  0
 12 14  1  0
 14 15  1  0
 15 16  2  0
 16 17  1  0
 17 18  2  0
 18 19  1  0
 15 20  1  0
 19 20  2  0
M  END
