pyridine_urea_388
     RDKit          3D

 26 28  0  0  0  0  0  0  0  0999 V2000
    8.5790    1.4920   20.9460 O   0  0  0  0  0  0  0  0  0  0  0  0
    8.3890    0.3260   21.2780 C   0  0  0  0  0  0  0  0  0  0  0  0
    7.2740   -0.3980   20.9320 N   0  0  0  0  0  0  0  0  0  0  0  0
    6.4430    0.1840   19.9860 C   0  0  0  0  0  0  0  0  0  0  0  0
    5.2410    0.8320   20.2370 C   0  0  0  0  0  0  0  0  0  0  0  0
    4.5450    1.3960   19.1730 C   0  0  0  0  0  0  0  0  0  0  0  0
    5.0920    1.2800   17.9100 C   0  0  0  0  0  0  0  0  0  0  0  0
    6.2370    0.6480   17.6470 N   0  0  0  0  0  0  0  0  0  0  0  0
    6.8780    0.1180   18.6890 C   0  0  0  0  0  0  0  0  0  0  0  0
    9.2530   -0.3830   22.0310 N   0  0  0  0  0  0  0  0  0  0  0  0
    9.6340    0.0180   23.2970 C   0  0  1  0  0  0  0  0  0  0  0  0
   10.1670   -0.9580   24.0580 C   0  0  0  0  0  0  0  0  0  0  0  0
   10.9710   -0.3920   25.0160 C   0  0  0  0  0  0  0  0  0  0  0  0
   11.7780    0.3630   24.1420 N   0  0  0  0  0  0  0  0  0  0  0  0
   12.3710   -0.5590   23.3750 C   0  0  0  0  0  0  0  0  0  0  0  0
   12.9210   -0.1480   22.2270 C   0  0  0  0  0  0  0  0  0  0  0  0
   13.4920   -1.1290   21.2870 C   0  0  0  0  0  0  0  0  0  0  0  0
   13.4340   -2.4200   21.6500 C   0  0  0  0  0  0  0  0  0  0  0  0
   12.9090   -2.7450   22.8460 C   0  0  0  0  0  0  0  0  0  0  0  0
   12.3830   -1.9010   23.7060 C   0  0  0  0  0  0  0  0  0  0  0  0
   11.8830   -2.5160   24.8440 C   0  0  0  0  0  0  0  0  0  0  0  0
   11.1560   -3.6320   24.5990 F   0  0  0  0  0  0  0  0  0  0  0  0
   10.9920   -1.7680   25.5340 F   0  0  0  0  0  0  0  0  0  0  0  0
   12.8700   -2.9130   25.6940 F   0  0  0  0  0  0  0  0  0  0  0  0
   10.8130    1.0100   23.3510 C   0  0  0  0  0  0  0  0  0  0  0  0
   10.8450    2.0960   22.7820 O   0  0  0  0  0  0  0  0  0  0  0  0
  1  2  2  0
  2  3  1  0
  3  4  1  0
  4  5  2  0
  5  6  1  0
  6  7  2  0
  7  8  1  0
  4  9  1  0
  8  9  2  0
  2 10  1  0
 11 10  1  6
 11 12  1  0
 12 13  1  0
 13 14  1  0
 14 15  1  0
 15 16  2  0
 16 17  1  0
 17 18  2  0
 18 19  1  0
 15 20  1  0
 19 20  2  0
 20 21  1  0
 21 22  1  0
 21 23  1  0
 21 24  1  0
 11 25  1  0
 14 25  1  0
 25 26  2  0
M  END
