pyridine_urea_14087
     RDKit          3D

 23 24  0  0  0  0  0  0  0  0999 V2000
    7.7200    1.5390   24.0770 O   0  0  0  0  0  0  0  0  0  0  0  0
    8.0930    0.3870   24.2510 C   0  0  0  0  0  0  0  0  0  0  0  0
    8.7220   -0.1970   23.4100 C   0  0  0  0  0  0  0  0  0  0  0  0
    9.7460   -0.9950   22.5820 C   0  0  0  0  0  0  0  0  0  0  0  0
    8.9030   -1.6320   21.6020 N   0  0  0  0  0  0  0  0  0  0  0  0
    8.0630   -0.4990   21.1790 C   0  0  0  0  0  0  0  0  0  0  0  0
    8.5730    0.8250   21.0230 O   0  0  0  0  0  0  0  0  0  0  0  0
    6.7720   -0.9050   21.0030 N   0  0  0  0  0  0  0  0  0  0  0  0
    6.3850   -0.2220   19.9600 C   0  0  0  0  0  0  0  0  0  0  0  0
    5.1110    0.5740   20.2240 C   0  0  0  0  0  0  0  0  0  0  0  0
    4.5600    1.3890   19.1400 C   0  0  0  0  0  0  0  0  0  0  0  0
    5.2210    1.3820   17.9760 C   0  0  0  0  0  0  0  0  0  0  0  0
    6.3630    0.6720   17.7280 N   0  0  0  0  0  0  0  0  0  0  0  0
    6.9210   -0.1080   18.7040 C   0  0  0  0  0  0  0  0  0  0  0  0
    7.7640   -0.3200   25.3860 N   0  0  0  0  0  0  0  0  0  0  0  0
    7.3140    0.1900   26.5630 C   0  0  0  0  0  0  0  0  0  0  0  0
    6.1490    0.8830   26.7130 C   0  0  0  0  0  0  0  0  0  0  0  0
    5.6830    1.4040   27.9180 C   0  0  0  0  0  0  0  0  0  0  0  0
    4.1650    2.2290   27.7630 Cl  0  0  0  0  0  0  0  0  0  0  0  0
    6.2640    1.3810   29.3520 C   0  0  0  0  0  0  0  0  0  0  0  0
    7.5300    0.5910   29.0190 C   0  0  0  0  0  0  0  0  0  0  0  0
    8.5560    0.3040   30.3770 Cl  0  0  0  0  0  0  0  0  0  0  0  0
    8.0150    0.0380   27.7190 C   0  0  0  0  0  0  0  0  0  0  0  0
  1  2  2  0
  2  3  1  0
  3  4  1  0
  4  5  1  0
  5  6  1  0
  6  7  2  0
  6  8  1  0
  8  9  1  0
  9 10  2  0
 10 11  1  0
 11 12  2  0
 12 13  1  0
  9 14  1  0
 13 14  2  0
  2 15  1  0
 15 16  1  0
 16 17  2  0
 17 18  1  0
 18 19  1  0
 18 20  2  0
 20 21  1  0
 21 22  1  0
 16 23  1  0
 21 23  2  0
M  END
