pyridine_urea_9661
     RDKit          3D

 19 19  0  0  0  0  0  0  0  0999 V2000
   10.4230   -1.9410   21.7650 C   0  0  0  0  0  0  0  0  0  0  0  0
   10.8320   -1.2770   23.0740 C   0  0  0  0  0  0  0  0  0  0  0  0
   11.2410   -2.3860   24.0420 C   0  0  0  0  0  0  0  0  0  0  0  0
    9.6160   -0.5420   23.5800 C   0  0  0  0  0  0  0  0  0  0  0  0
    8.4630   -0.7260   22.7010 N   0  0  0  0  0  0  0  0  0  0  0  0
    8.2480    0.0340   21.5750 C   0  0  0  0  0  0  0  0  0  0  0  0
    8.9070    1.0320   21.2430 O   0  0  0  0  0  0  0  0  0  0  0  0
    7.1530   -0.5290   20.9060 N   0  0  0  0  0  0  0  0  0  0  0  0
    6.4190    0.1320   19.9700 C   0  0  0  0  0  0  0  0  0  0  0  0
    5.1210    0.8870   20.2370 C   0  0  0  0  0  0  0  0  0  0  0  0
    4.5630    1.4990   19.1110 C   0  0  0  0  0  0  0  0  0  0  0  0
    5.1840    1.3930   17.8720 C   0  0  0  0  0  0  0  0  0  0  0  0
    6.3190    0.7160   17.6570 N   0  0  0  0  0  0  0  0  0  0  0  0
    6.9010    0.1100   18.6930 C   0  0  0  0  0  0  0  0  0  0  0  0
   11.8930   -0.4640   23.3150 C   0  0  0  0  0  0  0  0  0  0  0  0
   13.2520   -1.0200   22.5270 S   0  0  0  0  0  0  0  0  0  0  0  0
   13.6820   -2.1770   23.7130 N   0  0  0  0  0  0  0  0  0  0  0  0
   14.0490    0.1580   22.5230 O   0  0  0  0  0  0  0  0  0  0  0  0
   12.9240   -1.7700   21.3360 O   0  0  0  0  0  0  0  0  0  0  0  0
  2  1  1  0
  2  3  1  0
  2  4  1  0
  4  5  1  0
  5  6  1  0
  6  7  2  0
  6  8  1  0
  8  9  1  0
  9 10  2  0
 10 11  1  0
 11 12  2  0
 12 13  1  0
  9 14  1  0
 13 14  2  0
  2 15  1  0
 15 16  1  0
 16 17  1  0
 16 18  2  0
 16 19  2  0
M  END
