pyridine_urea_15083
     RDKit          3D

 18 18  0  0  0  0  0  0  0  0999 V2000
   12.7280   -2.5660   21.1760 C   0  0  0  0  0  0  0  0  0  0  0  0
   13.6010   -1.7360   21.9130 O   0  0  0  0  0  0  0  0  0  0  0  0
   13.4680   -1.9050   23.3120 C   0  0  0  0  0  0  0  0  0  0  0  0
   13.5940   -2.9460   23.9480 O   0  0  0  0  0  0  0  0  0  0  0  0
   13.1520   -0.5920   23.8020 N   0  0  0  0  0  0  0  0  0  0  0  0
   12.2470    0.0270   22.9970 C   0  0  0  0  0  0  0  0  0  0  0  0
   11.2240   -0.9680   22.5200 C   0  0  0  0  0  0  0  0  0  0  0  0
    9.9180   -0.7880   23.2310 C   0  0  0  0  0  0  0  0  0  0  0  0
    8.7400   -0.9070   22.4870 N   0  0  0  0  0  0  0  0  0  0  0  0
    8.3370   -0.0200   21.5070 C   0  0  0  0  0  0  0  0  0  0  0  0
    8.9480    1.0350   21.2340 O   0  0  0  0  0  0  0  0  0  0  0  0
    7.1840   -0.4900   20.9390 N   0  0  0  0  0  0  0  0  0  0  0  0
    6.4050    0.1640   19.9930 C   0  0  0  0  0  0  0  0  0  0  0  0
    5.2290    0.8550   20.2330 C   0  0  0  0  0  0  0  0  0  0  0  0
    4.5880    1.4700   19.1640 C   0  0  0  0  0  0  0  0  0  0  0  0
    5.1550    1.3500   17.9090 C   0  0  0  0  0  0  0  0  0  0  0  0
    6.2770    0.6810   17.6500 N   0  0  0  0  0  0  0  0  0  0  0  0
    6.8660    0.1120   18.6990 C   0  0  0  0  0  0  0  0  0  0  0  0
  1  2  1  0
  2  3  1  0
  3  4  2  0
  3  5  1  0
  5  6  1  0
  6  7  1  0
  7  8  1  0
  8  9  1  0
  9 10  1  0
 10 11  2  0
 10 12  1  0
 12 13  1  0
 13 14  2  0
 14 15  1  0
 15 16  2  0
 16 17  1  0
 13 18  1  0
 17 18  2  0
M  END
