pyridine_urea_9716
     RDKit          3D

 27 30  0  0  0  0  0  0  0  0999 V2000
    8.8850    0.7710   21.1900 O   0  0  0  0  0  0  0  0  0  0  0  0
    8.5050   -0.3980   21.0920 C   0  0  0  0  0  0  0  0  0  0  0  0
    9.3870   -1.4610   21.1500 N   0  0  0  0  0  0  0  0  0  0  0  0
   10.3900   -1.4260   22.1600 C   0  0  0  0  0  0  0  0  0  0  0  0
    9.4920   -1.0060   23.2380 C   0  0  0  0  0  0  0  0  0  0  0  0
    8.8300    0.2570   23.0330 O   0  0  0  0  0  0  0  0  0  0  0  0
    8.1710    0.1160   24.1620 C   0  0  0  0  0  0  0  0  0  0  0  0
    7.1780    0.9650   24.8280 C   0  0  0  0  0  0  0  0  0  0  0  0
    7.8260   -0.3610   25.1360 C   0  0  0  0  0  0  0  0  0  0  0  0
    8.3510    0.2620   23.7010 C   0  0  0  0  0  0  0  0  0  0  0  0
    8.9570    0.5000   22.5270 F   0  0  0  0  0  0  0  0  0  0  0  0
    9.2020   -0.8650   23.5350 C   0  0  0  0  0  0  0  0  0  0  0  0
    8.5860   -1.0450   24.6720 C   0  0  0  0  0  0  0  0  0  0  0  0
    9.3780   -2.0440   24.4280 C   0  0  0  0  0  0  0  0  0  0  0  0
    8.8010   -2.4020   25.6430 C   0  0  0  0  0  0  0  0  0  0  0  0
    8.6490   -1.4550   26.6760 C   0  0  0  0  0  0  0  0  0  0  0  0
    8.0240   -1.8790   27.9630 C   0  0  0  0  0  0  0  0  0  0  0  0
    7.6180   -3.2050   28.0740 C   0  0  0  0  0  0  0  0  0  0  0  0
    7.7930   -4.1770   26.9650 C   0  0  0  0  0  0  0  0  0  0  0  0
    8.3810   -3.7450   25.7760 C   0  0  0  0  0  0  0  0  0  0  0  0
    7.2050   -0.7620   20.8830 N   0  0  0  0  0  0  0  0  0  0  0  0
    6.4770   -0.0760   19.9570 C   0  0  0  0  0  0  0  0  0  0  0  0
    5.3010    0.5940   20.3140 C   0  0  0  0  0  0  0  0  0  0  0  0
    4.6090    1.2970   19.3280 C   0  0  0  0  0  0  0  0  0  0  0  0
    5.1040    1.3090   18.0420 C   0  0  0  0  0  0  0  0  0  0  0  0
    6.2250    0.6670   17.6830 N   0  0  0  0  0  0  0  0  0  0  0  0
    6.8770   -0.0060   18.6510 C   0  0  0  0  0  0  0  0  0  0  0  0
  1  2  2  0
  2  3  1  0
  3  4  1  0
  4  5  1  0
  5  6  1  0
  6  7  1  0
  7  8  2  0
  8  9  1  0
  9 10  2  0
 10 11  1  0
 10 12  1  0
  7 13  1  0
 12 13  2  0
  5 14  2  0
 13 14  1  0
 14 15  1  0
 15 16  2  0
 16 17  1  0
 17 18  2  0
 18 19  1  0
 15 20  1  0
 19 20  2  0
  2 21  1  0
 21 22  1  0
 22 23  2  0
 23 24  1  0
 24 25  2  0
 25 26  1  0
 22 27  1  0
 26 27  2  0
M  END
