pyridine_urea_5777
     RDKit          3D

 19 20  0  0  0  0  0  0  0  0999 V2000
   13.3430   -2.8410   24.3070 C   0  0  0  0  0  0  0  0  0  0  0  0
   13.1880   -1.3900   25.3340 S   0  0  0  0  0  0  0  0  0  0  0  0
   12.2320   -0.2710   24.3890 C   0  0  1  0  0  0  0  0  0  0  0  0
   12.7660   -0.0600   23.1280 C   0  0  0  0  0  0  0  0  0  0  0  0
   12.5040   -1.1680   22.3660 C   0  0  0  0  0  0  0  0  0  0  0  0
   11.1440   -1.4550   22.3610 C   0  0  2  0  0  0  0  0  0  0  0  0
   10.2190   -0.3030   22.3280 C   0  0  0  0  0  0  0  0  0  0  0  0
    8.9120   -0.7040   21.9740 N   0  0  0  0  0  0  0  0  0  0  0  0
    8.0910    0.0970   21.3060 C   0  0  0  0  0  0  0  0  0  0  0  0
    8.4480    1.2310   20.9630 O   0  0  0  0  0  0  0  0  0  0  0  0
    6.8130   -0.4840   21.0190 N   0  0  0  0  0  0  0  0  0  0  0  0
    6.2500    0.1260   19.9520 C   0  0  0  0  0  0  0  0  0  0  0  0
    5.0640    0.8080   20.1300 C   0  0  0  0  0  0  0  0  0  0  0  0
    4.4990    1.4590   19.0410 C   0  0  0  0  0  0  0  0  0  0  0  0
    5.1530    1.3940   17.8210 C   0  0  0  0  0  0  0  0  0  0  0  0
    6.3000    0.7270   17.6380 N   0  0  0  0  0  0  0  0  0  0  0  0
    6.8220    0.1050   18.7030 C   0  0  0  0  0  0  0  0  0  0  0  0
   10.6990   -1.8570   23.7670 C   0  0  0  0  0  0  0  0  0  0  0  0
   10.9090   -0.6630   24.4490 C   0  0  0  0  0  0  0  0  0  0  0  0
  1  2  1  0
  3  2  1  6
  3  4  1  0
  4  5  1  0
  5  6  1  0
  6  7  1  1
  7  8  1  0
  8  9  1  0
  9 10  2  0
  9 11  1  0
 11 12  1  0
 12 13  2  0
 13 14  1  0
 14 15  2  0
 15 16  1  0
 12 17  1  0
 16 17  2  0
  6 18  1  0
  3 19  1  0
 18 19  1  0
M  END
