pyridine_urea_777
     RDKit          3D

 23 25  0  0  0  0  0  0  0  0999 V2000
    5.5080    2.0150   27.5330 C   0  0  0  0  0  0  0  0  0  0  0  0
    6.6170    1.1940   26.9360 C   0  0  0  0  0  0  0  0  0  0  0  0
    7.4760    0.4710   27.7500 C   0  0  0  0  0  0  0  0  0  0  0  0
    8.5040   -0.2900   27.2030 C   0  0  0  0  0  0  0  0  0  0  0  0
    8.7390   -0.3720   25.7900 C   0  0  0  0  0  0  0  0  0  0  0  0
    9.7250   -1.0990   24.9960 N   0  0  0  0  0  0  0  0  0  0  0  0
    8.7290   -0.4070   24.3980 N   0  0  0  0  0  0  0  0  0  0  0  0
    8.6560   -0.4320   23.1450 C   0  0  0  0  0  0  0  0  0  0  0  0
    9.7160   -1.2420   22.6860 C   0  0  0  0  0  0  0  0  0  0  0  0
    9.7480   -1.3680   21.4260 N   0  0  0  0  0  0  0  0  0  0  0  0
    8.7850   -0.4490   21.1290 C   0  0  0  0  0  0  0  0  0  0  0  0
    8.9690    0.7680   21.1810 O   0  0  0  0  0  0  0  0  0  0  0  0
    7.5170   -0.8350   20.7800 N   0  0  0  0  0  0  0  0  0  0  0  0
    6.6150   -0.1160   19.9830 C   0  0  0  0  0  0  0  0  0  0  0  0
    5.4410    0.5320   20.3880 C   0  0  0  0  0  0  0  0  0  0  0  0
    4.6740    1.2210   19.4410 C   0  0  0  0  0  0  0  0  0  0  0  0
    5.1130    1.2310   18.1300 C   0  0  0  0  0  0  0  0  0  0  0  0
    6.2270    0.6090   17.7250 N   0  0  0  0  0  0  0  0  0  0  0  0
    6.9380   -0.0410   18.6590 C   0  0  0  0  0  0  0  0  0  0  0  0
   10.4000   -1.6440   23.8010 C   0  0  0  0  0  0  0  0  0  0  0  0
   11.5410   -2.4460   23.8750 C   0  0  0  0  0  0  0  0  0  0  0  0
    7.8390    0.3790   25.0070 C   0  0  0  0  0  0  0  0  0  0  0  0
    6.8050    1.1430   25.5660 C   0  0  0  0  0  0  0  0  0  0  0  0
  1  2  1  0
  2  3  2  0
  3  4  1  0
  4  5  2  0
  5  6  1  0
  6  7  1  0
  7  8  2  0
  8  9  1  0
  9 10  1  0
 10 11  1  0
 11 12  2  0
 11 13  1  0
 13 14  1  0
 14 15  2  0
 15 16  1  0
 16 17  2  0
 17 18  1  0
 14 19  1  0
 18 19  2  0
  6 20  1  0
  9 20  2  0
 20 21  1  0
  5 22  1  0
  2 23  1  0
 22 23  2  0
M  END
