pyridine_urea_13359
     RDKit          3D

 20 23  0  0  0  0  0  0  0  0999 V2000
    8.8230    1.0560   21.6370 O   0  0  0  0  0  0  0  0  0  0  0  0
    8.5970   -0.1220   21.4160 C   0  0  0  0  0  0  0  0  0  0  0  0
    9.5140   -1.1430   21.4520 N   0  0  0  0  0  0  0  0  0  0  0  0
   10.1560   -1.7710   22.5420 C   0  0  0  0  0  0  0  0  0  0  0  0
   11.2050   -1.1370   23.2030 C   0  0  2  0  0  0  0  0  0  0  0  0
   12.0990   -1.9940   23.7980 C   0  0  0  0  0  0  0  0  0  0  0  0
   12.8350   -0.9030   23.6200 C   0  0  2  0  0  0  0  0  0  0  0  0
   12.2460    0.0310   24.5940 C   0  0  0  0  0  0  0  0  0  0  0  0
   10.9330   -0.3290   24.3120 N   0  0  0  0  0  0  0  0  0  0  0  0
    9.7770    0.4710   24.2520 C   0  0  0  0  0  0  0  0  0  0  0  0
    8.9280    0.7080   25.3040 C   0  0  0  0  0  0  0  0  0  0  0  0
    8.4100   -0.2890   24.3460 C   0  0  0  0  0  0  0  0  0  0  0  0
   12.2560   -0.5440   22.4070 C   0  0  0  0  0  0  0  0  0  0  0  0
    7.3310   -0.5460   21.0430 N   0  0  0  0  0  0  0  0  0  0  0  0
    6.5550    0.0640   20.1130 C   0  0  0  0  0  0  0  0  0  0  0  0
    5.3910    0.7930   20.3620 C   0  0  0  0  0  0  0  0  0  0  0  0
    4.6860    1.3890   19.3360 C   0  0  0  0  0  0  0  0  0  0  0  0
    5.1580    1.2480   18.0580 C   0  0  0  0  0  0  0  0  0  0  0  0
    6.2640    0.5550   17.7350 N   0  0  0  0  0  0  0  0  0  0  0  0
    6.9390   -0.0240   18.7680 C   0  0  0  0  0  0  0  0  0  0  0  0
  1  2  2  0
  2  3  1  0
  3  4  1  0
  5  4  1  6
  5  6  1  0
  7  6  1  1
  7  8  1  0
  5  9  1  0
  8  9  1  0
  9 10  1  0
 10 11  1  0
 10 12  1  0
 11 12  1  0
  5 13  1  0
  7 13  1  0
  2 14  1  0
 14 15  1  0
 15 16  2  0
 16 17  1  0
 17 18  2  0
 18 19  1  0
 15 20  1  0
 19 20  2  0
M  END
