pyridine_urea_12424
     RDKit          3D

 22 24  0  0  0  0  0  0  0  0999 V2000
    8.7350    0.7050   21.1250 O   0  0  0  0  0  0  0  0  0  0  0  0
    8.4550   -0.4250   21.4910 C   0  0  0  0  0  0  0  0  0  0  0  0
    9.3490   -1.1060   22.3330 N   0  0  0  0  0  0  0  0  0  0  0  0
   10.3290   -0.0710   22.5910 C   0  0  0  0  0  0  0  0  0  0  0  0
   11.8980   -0.2530   22.6200 C   0  0  0  0  0  0  0  0  0  0  0  0
   12.7140    0.9120   22.8250 C   0  0  0  0  0  0  0  0  0  0  0  0
   12.0240    2.3240   23.0100 C   0  0  0  0  0  0  0  0  0  0  0  0
   12.5100    3.6110   23.1980 N   0  0  0  0  0  0  0  0  0  0  0  0
   11.5580    4.4470   23.7480 C   0  0  0  0  0  0  0  0  0  0  0  0
   11.2760    5.6440   22.8420 C   0  0  0  0  0  0  0  0  0  0  0  0
   12.1580    5.6010   21.8130 O   0  0  0  0  0  0  0  0  0  0  0  0
   12.9690    4.4900   22.1780 C   0  0  0  0  0  0  0  0  0  0  0  0
   14.0580    4.3480   21.6610 O   0  0  0  0  0  0  0  0  0  0  0  0
   10.6650    2.3710   22.9970 C   0  0  0  0  0  0  0  0  0  0  0  0
    9.8020    1.1780   22.7930 C   0  0  0  0  0  0  0  0  0  0  0  0
    7.2840   -1.0000   21.0770 N   0  0  0  0  0  0  0  0  0  0  0  0
    6.5620   -0.2990   20.0720 C   0  0  0  0  0  0  0  0  0  0  0  0
    5.2460    0.4020   20.4000 C   0  0  0  0  0  0  0  0  0  0  0  0
    4.5840    1.0950   19.3880 C   0  0  0  0  0  0  0  0  0  0  0  0
    5.1650    1.1100   18.1240 C   0  0  0  0  0  0  0  0  0  0  0  0
    6.3210    0.5000   17.8060 N   0  0  0  0  0  0  0  0  0  0  0  0
    6.9870   -0.1850   18.7660 C   0  0  0  0  0  0  0  0  0  0  0  0
  1  2  2  0
  2  3  1  0
  3  4  1  0
  4  5  2  0
  5  6  1  0
  6  7  2  0
  7  8  1  0
  8  9  1  0
  9 10  1  0
 10 11  1  0
  8 12  1  0
 11 12  1  0
 12 13  2  0
  7 14  1  0
  4 15  1  0
 14 15  2  0
  2 16  1  0
 16 17  1  0
 17 18  2  0
 18 19  1  0
 19 20  2  0
 20 21  1  0
 17 22  1  0
 21 22  2  0
M  END
