pyridine_urea_1797
     RDKit          3D

 16 17  0  0  0  0  0  0  0  0999 V2000
    9.9060   -2.7130   23.6180 C   0  0  0  0  0  0  0  0  0  0  0  0
   10.2600   -1.5820   22.7060 C   0  0  2  0  0  0  0  0  0  0  0  0
    9.3080   -1.3630   21.6340 N   0  0  0  0  0  0  0  0  0  0  0  0
    8.5700   -0.2240   21.4480 C   0  0  0  0  0  0  0  0  0  0  0  0
    9.0540    0.8940   21.5080 O   0  0  0  0  0  0  0  0  0  0  0  0
    7.2590   -0.5130   21.1560 N   0  0  0  0  0  0  0  0  0  0  0  0
    6.5630    0.0800   20.0930 C   0  0  0  0  0  0  0  0  0  0  0  0
    5.4250    0.8200   20.3480 C   0  0  0  0  0  0  0  0  0  0  0  0
    4.7240    1.4280   19.3240 C   0  0  0  0  0  0  0  0  0  0  0  0
    5.1710    1.2920   18.0310 C   0  0  0  0  0  0  0  0  0  0  0  0
    6.2630    0.5830   17.7170 N   0  0  0  0  0  0  0  0  0  0  0  0
    6.9330   -0.0070   18.7500 C   0  0  0  0  0  0  0  0  0  0  0  0
   11.6600   -1.4740   22.2630 C   0  0  0  0  0  0  0  0  0  0  0  0
   11.8020   -0.2790   22.9010 C   0  0  2  0  0  0  0  0  0  0  0  0
   12.8330   -0.1630   23.7790 O   0  0  0  0  0  0  0  0  0  0  0  0
   10.5170   -0.2750   23.5170 C   0  0  0  0  0  0  0  0  0  0  0  0
  2  1  1  1
  2  3  1  0
  3  4  1  0
  4  5  2  0
  4  6  1  0
  6  7  1  0
  7  8  2  0
  8  9  1  0
  9 10  2  0
 10 11  1  0
  7 12  1  0
 11 12  2  0
  2 13  1  0
 13 14  1  0
 14 15  1  1
  2 16  1  0
 14 16  1  0
M  END
