pyridine_urea_14290
     RDKit          3D

 22 23  0  0  0  0  0  0  0  0999 V2000
    8.9770   -2.5800   23.7590 C   0  0  0  0  0  0  0  0  0  0  0  0
   10.1140   -1.9990   24.4150 O   0  0  0  0  0  0  0  0  0  0  0  0
    9.9970   -0.6580   24.6520 C   0  0  0  0  0  0  0  0  0  0  0  0
    9.9240   -0.2030   25.7850 O   0  0  0  0  0  0  0  0  0  0  0  0
    9.9600    0.1280   23.5260 C   0  0  2  0  0  0  0  0  0  0  0  0
    8.5520   -0.0360   23.0420 N   0  0  0  0  0  0  0  0  0  0  0  0
    8.0790    0.2230   21.7920 C   0  0  0  0  0  0  0  0  0  0  0  0
    8.4880    1.4580   21.2180 O   0  0  0  0  0  0  0  0  0  0  0  0
    7.1670   -0.6970   21.1350 N   0  0  0  0  0  0  0  0  0  0  0  0
    6.5320   -0.0850   20.0860 C   0  0  0  0  0  0  0  0  0  0  0  0
    5.2570    0.6840   20.3740 C   0  0  0  0  0  0  0  0  0  0  0  0
    4.5110    1.4160   19.2600 C   0  0  0  0  0  0  0  0  0  0  0  0
    5.1900    1.2740   17.9160 C   0  0  0  0  0  0  0  0  0  0  0  0
    6.3320    0.5570   17.7470 N   0  0  0  0  0  0  0  0  0  0  0  0
    6.9870   -0.1080   18.7810 C   0  0  0  0  0  0  0  0  0  0  0  0
   10.9800   -0.5500   22.9540 C   0  0  0  0  0  0  0  0  0  0  0  0
   11.8690    0.1470   23.8000 C   0  0  0  0  0  0  0  0  0  0  0  0
   12.1270   -0.7440   22.9030 C   0  0  0  0  0  0  0  0  0  0  0  0
   10.7960   -1.0490   22.4070 C   0  0  0  0  0  0  0  0  0  0  0  0
   11.4310   -1.8720   21.6540 C   0  0  0  0  0  0  0  0  0  0  0  0
   12.2440   -1.1710   22.4740 C   0  0  0  0  0  0  0  0  0  0  0  0
   13.1400   -2.3630   21.3540 Br  0  0  0  0  0  0  0  0  0  0  0  0
  1  2  1  0
  2  3  1  0
  3  4  2  0
  3  5  1  0
  5  6  1  6
  6  7  1  0
  7  8  2  0
  7  9  1  0
  9 10  1  0
 10 11  2  0
 11 12  1  0
 12 13  2  0
 13 14  1  0
 10 15  1  0
 14 15  2  0
  5 16  1  0
 16 17  2  0
 17 18  1  0
 18 19  2  0
 19 20  1  0
 16 21  1  0
 20 21  2  0
 21 22  1  0
M  END
