pyridine_urea_12320
     RDKit          3D

 22 24  0  0  0  0  0  0  0  0999 V2000
    9.0940    0.5840   21.4880 O   0  0  0  0  0  0  0  0  0  0  0  0
    8.6980   -0.5630   21.3320 C   0  0  0  0  0  0  0  0  0  0  0  0
    7.3440   -0.8280   21.1370 N   0  0  0  0  0  0  0  0  0  0  0  0
    6.5900   -0.1200   20.1000 C   0  0  0  0  0  0  0  0  0  0  0  0
    5.2820    0.6580   20.4770 C   0  0  0  0  0  0  0  0  0  0  0  0
    4.6110    1.3210   19.4510 C   0  0  0  0  0  0  0  0  0  0  0  0
    5.2190    1.2290   18.0470 C   0  0  0  0  0  0  0  0  0  0  0  0
    6.3450    0.5440   17.7720 N   0  0  0  0  0  0  0  0  0  0  0  0
    6.9910   -0.1030   18.7770 C   0  0  0  0  0  0  0  0  0  0  0  0
    9.4900   -1.7150   21.2930 N   0  0  0  0  0  0  0  0  0  0  0  0
   10.5130   -2.0010   22.3110 C   0  0  2  0  0  0  0  0  0  0  0  0
   10.1210   -1.0780   23.3150 C   0  0  0  0  0  0  0  0  0  0  0  0
    9.1070   -1.6700   24.2330 C   0  0  0  0  0  0  0  0  0  0  0  0
    8.6710   -0.7050   25.2970 C   0  0  0  0  0  0  0  0  0  0  0  0
    9.2990    0.6820   25.2870 C   0  0  0  0  0  0  0  0  0  0  0  0
    8.8360    1.4460   26.2810 F   0  0  0  0  0  0  0  0  0  0  0  0
   10.3740    1.0100   24.1340 C   0  0  0  0  0  0  0  0  0  0  0  0
   11.3790    2.3190   23.5820 Cl  0  0  0  0  0  0  0  0  0  0  0  0
   10.6750    0.1090   23.2810 C   0  0  0  0  0  0  0  0  0  0  0  0
   11.9040   -1.8860   22.0440 C   0  0  0  0  0  0  0  0  0  0  0  0
   12.4880   -0.7290   22.3280 C   0  0  0  0  0  0  0  0  0  0  0  0
   12.8000   -1.4090   23.3690 C   0  0  0  0  0  0  0  0  0  0  0  0
  1  2  2  0
  2  3  1  0
  3  4  1  0
  4  5  2  0
  5  6  1  0
  6  7  2  0
  7  8  1  0
  4  9  1  0
  8  9  2  0
  2 10  1  0
 11 10  1  6
 11 12  1  0
 12 13  2  0
 13 14  1  0
 14 15  2  0
 15 16  1  0
 15 17  1  0
 17 18  1  0
 12 19  1  0
 17 19  2  0
 11 20  1  0
 20 21  1  0
 20 22  1  0
 21 22  1  0
M  END
