pyridine_urea_10964
     RDKit          3D

 19 20  0  0  0  0  0  0  0  0999 V2000
    8.4590    0.8570   21.2270 O   0  0  0  0  0  0  0  0  0  0  0  0
    8.0330   -0.2170   21.6440 C   0  0  0  0  0  0  0  0  0  0  0  0
    6.8640   -0.8380   21.0620 N   0  0  0  0  0  0  0  0  0  0  0  0
    6.2930   -0.1120   20.0310 C   0  0  0  0  0  0  0  0  0  0  0  0
    5.1080    0.5970   20.2360 C   0  0  0  0  0  0  0  0  0  0  0  0
    4.5710    1.3240   19.1730 C   0  0  0  0  0  0  0  0  0  0  0  0
    5.2350    1.3190   17.9420 C   0  0  0  0  0  0  0  0  0  0  0  0
    6.3740    0.6360   17.7370 N   0  0  0  0  0  0  0  0  0  0  0  0
    6.8780   -0.0650   18.7810 C   0  0  0  0  0  0  0  0  0  0  0  0
    8.5930   -0.9410   22.6610 N   0  0  0  0  0  0  0  0  0  0  0  0
    9.9780   -0.6060   22.7700 C   0  0  0  0  0  0  0  0  0  0  0  0
   10.3140    0.7540   23.4110 C   0  0  0  0  0  0  0  0  0  0  0  0
   11.6460    1.1540   23.4960 C   0  0  0  0  0  0  0  0  0  0  0  0
   12.6430    0.3150   23.0020 C   0  0  0  0  0  0  0  0  0  0  0  0
   13.8760    0.6630   23.0310 F   0  0  0  0  0  0  0  0  0  0  0  0
   12.2910   -0.8830   22.4740 C   0  0  0  0  0  0  0  0  0  0  0  0
   12.7290   -2.0490   21.8950 C   0  0  0  0  0  0  0  0  0  0  0  0
   12.8430   -2.1060   20.6890 O   0  0  0  0  0  0  0  0  0  0  0  0
   10.9620   -1.4490   22.3050 C   0  0  0  0  0  0  0  0  0  0  0  0
  1  2  2  0
  2  3  1  0
  3  4  1  0
  4  5  2  0
  5  6  1  0
  6  7  2  0
  7  8  1  0
  4  9  1  0
  8  9  2  0
  2 10  1  0
 10 11  1  0
 11 12  2  0
 12 13  1  0
 13 14  2  0
 14 15  1  0
 14 16  1  0
 16 17  1  0
 17 18  1  0
 11 19  1  0
 16 19  2  0
M  END
