pyridine_urea_8405
     RDKit          3D

 22 23  0  0  0  0  0  0  0  0999 V2000
    8.9770    0.8570   21.5440 O   0  0  0  0  0  0  0  0  0  0  0  0
    8.5660   -0.2750   21.3470 C   0  0  0  0  0  0  0  0  0  0  0  0
    9.3860   -1.3830   21.3390 N   0  0  0  0  0  0  0  0  0  0  0  0
   10.1550   -1.8350   22.4840 C   0  0  0  0  0  0  0  0  0  0  0  0
   11.7200   -1.5060   22.5000 C   0  0  0  0  0  0  0  0  0  0  0  0
   12.0400   -0.2780   23.0790 C   0  0  0  0  0  0  0  0  0  0  0  0
   13.0030    0.6570   22.7150 C   0  0  0  0  0  0  0  0  0  0  0  0
   12.1430    0.9320   23.8230 C   0  0  0  0  0  0  0  0  0  0  0  0
   11.5010   -0.5730   23.5340 C   0  0  0  0  0  0  0  0  0  0  0  0
   10.7110   -1.6980   23.6560 O   0  0  0  0  0  0  0  0  0  0  0  0
   10.4180   -0.5740   24.6600 C   0  0  0  0  0  0  0  0  0  0  0  0
    9.8290    0.1820   25.7490 N   0  0  0  0  0  0  0  0  0  0  0  0
    8.6530    0.5170   25.5430 O   0  0  0  0  0  0  0  0  0  0  0  0
   10.1570   -0.1630   26.8890 O   0  0  0  0  0  0  0  0  0  0  0  0
   11.4200    0.3160   24.1920 C   0  0  0  0  0  0  0  0  0  0  0  0
    7.2630   -0.6160   21.0610 N   0  0  0  0  0  0  0  0  0  0  0  0
    6.4760    0.0460   20.1060 C   0  0  0  0  0  0  0  0  0  0  0  0
    5.1730    0.7830   20.3950 C   0  0  0  0  0  0  0  0  0  0  0  0
    4.5510    1.4250   19.1640 C   0  0  0  0  0  0  0  0  0  0  0  0
    5.1810    1.3000   17.9370 C   0  0  0  0  0  0  0  0  0  0  0  0
    6.3290    0.6290   17.7470 N   0  0  0  0  0  0  0  0  0  0  0  0
    6.9260    0.0350   18.7970 C   0  0  0  0  0  0  0  0  0  0  0  0
  1  2  2  0
  2  3  1  0
  3  4  1  0
  4  5  1  0
  5  6  1  0
  6  7  2  0
  7  8  1  0
  8  9  2  0
  9 10  1  0
  9 11  1  0
 11 12  1  0
 12 13  2  0
 12 14  1  0
  6 15  1  0
 11 15  2  0
  2 16  1  0
 16 17  1  0
 17 18  2  0
 18 19  1  0
 19 20  2  0
 20 21  1  0
 17 22  1  0
 21 22  2  0
M  CHG  2  12   1  14  -1
M  END
