pyridine_urea_14552
     RDKit          3D

 21 22  0  0  0  0  0  0  0  0999 V2000
   12.5430    1.4710   23.0310 C   0  0  0  0  0  0  0  0  0  0  0  0
   12.4740   -0.0140   22.7110 C   0  0  0  0  0  0  0  0  0  0  0  0
   11.2100   -0.6120   22.5060 C   0  0  0  0  0  0  0  0  0  0  0  0
    9.9730    0.0890   22.6610 C   0  0  1  0  0  0  0  0  0  0  0  0
    9.8820    1.4090   22.2720 C   0  0  0  0  0  0  0  0  0  0  0  0
    8.9790   -0.8720   22.2390 N   0  0  0  0  0  0  0  0  0  0  0  0
    8.0590   -0.7540   21.1170 C   0  0  0  0  0  0  0  0  0  0  0  0
    8.3430   -1.1580   20.0650 O   0  0  0  0  0  0  0  0  0  0  0  0
    6.8810   -0.1560   21.3340 N   0  0  0  0  0  0  0  0  0  0  0  0
    6.2330    0.3910   20.2610 C   0  0  0  0  0  0  0  0  0  0  0  0
    5.0600    1.1250   20.3060 C   0  0  0  0  0  0  0  0  0  0  0  0
    4.5320    1.6310   19.1190 C   0  0  0  0  0  0  0  0  0  0  0  0
    5.1430    1.4230   17.8950 C   0  0  0  0  0  0  0  0  0  0  0  0
    6.2730    0.7180   17.7660 N   0  0  0  0  0  0  0  0  0  0  0  0
    6.8080    0.1980   19.0000 C   0  0  0  0  0  0  0  0  0  0  0  0
    9.3410    0.2600   23.8720 C   0  0  0  0  0  0  0  0  0  0  0  0
   10.4210   -0.1850   24.3780 C   0  0  0  0  0  0  0  0  0  0  0  0
   11.5880   -0.5950   23.9660 C   0  0  0  0  0  0  0  0  0  0  0  0
   11.8150   -0.7990   25.2240 C   0  0  0  0  0  0  0  0  0  0  0  0
   10.5480   -0.3720   25.8950 C   0  0  0  0  0  0  0  0  0  0  0  0
    9.3420    0.1540   25.2580 C   0  0  0  0  0  0  0  0  0  0  0  0
  1  2  1  0
  2  3  1  0
  3  4  1  0
  4  5  1  6
  4  6  1  0
  6  7  1  0
  7  8  2  0
  7  9  1  0
  9 10  1  0
 10 11  2  0
 11 12  1  0
 12 13  2  0
 13 14  1  0
 10 15  1  0
 14 15  2  0
  4 16  1  0
 16 17  2  0
 17 18  1  0
 18 19  2  0
 19 20  1  0
 16 21  1  0
 20 21  2  0
M  END
