pyridine_urea_5223
     RDKit          3D

 19 20  0  0  0  0  0  0  0  0999 V2000
   10.6620    4.1070   23.6530 C   0  0  0  0  0  0  0  0  0  0  0  0
   11.4580    3.4960   22.5300 C   0  0  0  0  0  0  0  0  0  0  0  0
   12.6620    4.1330   22.2220 C   0  0  0  0  0  0  0  0  0  0  0  0
   11.6630    2.0690   22.7880 N   0  0  0  0  0  0  0  0  0  0  0  0
   10.4540    1.3810   22.8790 C   0  0  0  0  0  0  0  0  0  0  0  0
    9.4120    1.9480   23.1430 O   0  0  0  0  0  0  0  0  0  0  0  0
   10.4520   -0.0050   22.6560 C   0  0  0  0  0  0  0  0  0  0  0  0
    9.2680   -0.5810   22.3590 N   0  0  0  0  0  0  0  0  0  0  0  0
    8.4970    0.1290   21.4970 C   0  0  0  0  0  0  0  0  0  0  0  0
    8.8490    1.2450   21.0910 O   0  0  0  0  0  0  0  0  0  0  0  0
    7.2630   -0.5730   21.1450 N   0  0  0  0  0  0  0  0  0  0  0  0
    6.5580    0.0370   20.0480 C   0  0  0  0  0  0  0  0  0  0  0  0
    5.2890    0.8360   20.3750 C   0  0  0  0  0  0  0  0  0  0  0  0
    4.6620    1.4200   19.2910 C   0  0  0  0  0  0  0  0  0  0  0  0
    5.1540    1.2830   18.0180 C   0  0  0  0  0  0  0  0  0  0  0  0
    6.2590    0.5820   17.7030 N   0  0  0  0  0  0  0  0  0  0  0  0
    6.9290   -0.0210   18.7160 C   0  0  0  0  0  0  0  0  0  0  0  0
   11.5930   -0.5890   22.4210 C   0  0  0  0  0  0  0  0  0  0  0  0
   11.2900   -0.9330   23.6080 C   0  0  0  0  0  0  0  0  0  0  0  0
  1  2  1  0
  2  3  1  0
  2  4  1  0
  4  5  1  0
  5  6  2  0
  7  5  1  0
  7  8  1  0
  8  9  1  0
  9 10  2  0
  9 11  1  0
 11 12  1  0
 12 13  2  0
 13 14  1  0
 14 15  2  0
 15 16  1  0
 12 17  1  0
 16 17  2  0
  7 18  1  0
  7 19  1  0
 18 19  1  0
M  END
