pyridine_urea_4362
     RDKit          3D

 24 25  0  0  0  0  0  0  0  0999 V2000
   12.9540    6.0600   22.4020 C   0  0  0  0  0  0  0  0  0  0  0  0
   12.1150    5.7990   23.5210 O   0  0  0  0  0  0  0  0  0  0  0  0
   11.3430    4.6120   23.3470 C   0  0  0  0  0  0  0  0  0  0  0  0
   10.2400    4.4300   23.8370 O   0  0  0  0  0  0  0  0  0  0  0  0
   12.0660    3.5890   22.4750 C   0  0  0  0  0  0  0  0  0  0  0  0
   13.1500    2.9630   23.0170 N   0  0  0  0  0  0  0  0  0  0  0  0
   13.1760    1.6060   22.9630 C   0  0  0  0  0  0  0  0  0  0  0  0
   14.3390    0.8800   22.7100 O   0  0  0  0  0  0  0  0  0  0  0  0
   11.9570    0.8620   23.0400 C   0  0  0  0  0  0  0  0  0  0  0  0
   10.7360    1.3690   23.7200 C   0  0  0  0  0  0  0  0  0  0  0  0
    9.5270    0.4990   23.5730 C   0  0  0  0  0  0  0  0  0  0  0  0
    9.7340   -0.6590   22.8150 C   0  0  0  0  0  0  0  0  0  0  0  0
    8.6370   -1.3800   22.5690 N   0  0  0  0  0  0  0  0  0  0  0  0
    7.9630   -0.6770   21.5310 C   0  0  0  0  0  0  0  0  0  0  0  0
    8.3640    0.3760   21.0440 O   0  0  0  0  0  0  0  0  0  0  0  0
    6.8130   -1.1610   21.0430 N   0  0  0  0  0  0  0  0  0  0  0  0
    6.2340   -0.3390   20.1150 C   0  0  0  0  0  0  0  0  0  0  0  0
    5.0720    0.4080   20.3350 C   0  0  0  0  0  0  0  0  0  0  0  0
    4.5520    1.2230   19.3270 C   0  0  0  0  0  0  0  0  0  0  0  0
    5.2800    1.2600   18.0360 C   0  0  0  0  0  0  0  0  0  0  0  0
    6.3940    0.5420   17.8270 N   0  0  0  0  0  0  0  0  0  0  0  0
    6.8420   -0.2310   18.8550 C   0  0  0  0  0  0  0  0  0  0  0  0
   10.9340   -1.1050   22.2510 C   0  0  0  0  0  0  0  0  0  0  0  0
   12.0470   -0.3370   22.3770 C   0  0  0  0  0  0  0  0  0  0  0  0
  1  2  1  0
  2  3  1  0
  3  4  2  0
  3  5  1  0
  5  6  1  0
  6  7  1  0
  7  8  2  0
  7  9  1  0
  9 10  2  0
 10 11  1  0
 11 12  2  0
 12 13  1  0
 13 14  1  0
 14 15  2  0
 14 16  1  0
 16 17  1  0
 17 18  2  0
 18 19  1  0
 19 20  2  0
 20 21  1  0
 17 22  1  0
 21 22  2  0
 12 23  1  0
  9 24  1  0
 23 24  2  0
M  END
