pyridine_urea_9036
     RDKit          3D

 19 20  0  0  0  0  0  0  0  0999 V2000
    5.9140   -3.6540   26.8540 C   0  0  0  0  0  0  0  0  0  0  0  0
    5.3580   -4.4160   25.7850 O   0  0  0  0  0  0  0  0  0  0  0  0
    5.6530   -4.0120   24.5090 C   0  0  0  0  0  0  0  0  0  0  0  0
    4.5430   -4.1850   23.4590 C   0  0  0  0  0  0  0  0  0  0  0  0
    4.8790   -3.7460   22.1250 N   0  0  0  0  0  0  0  0  0  0  0  0
    6.1420   -3.2090   21.8880 C   0  0  0  0  0  0  0  0  0  0  0  0
    7.1000   -3.0960   22.9220 C   0  0  0  0  0  0  0  0  0  0  0  0
    8.3870   -2.5630   22.6560 C   0  0  0  0  0  0  0  0  0  0  0  0
    8.5830   -1.1890   22.6260 N   0  0  0  0  0  0  0  0  0  0  0  0
    8.1460   -0.3330   21.5910 C   0  0  0  0  0  0  0  0  0  0  0  0
    8.7400    0.6910   21.2710 O   0  0  0  0  0  0  0  0  0  0  0  0
    7.0020   -0.7570   21.0150 N   0  0  0  0  0  0  0  0  0  0  0  0
    6.4520   -0.0570   19.9930 C   0  0  0  0  0  0  0  0  0  0  0  0
    5.2850    0.6600   20.2210 C   0  0  0  0  0  0  0  0  0  0  0  0
    4.6860    1.3890   19.1930 C   0  0  0  0  0  0  0  0  0  0  0  0
    5.2970    1.3730   17.9410 C   0  0  0  0  0  0  0  0  0  0  0  0
    6.4210    0.6860   17.7050 N   0  0  0  0  0  0  0  0  0  0  0  0
    6.9720   -0.0120   18.7160 C   0  0  0  0  0  0  0  0  0  0  0  0
    6.8630   -3.4880   24.2080 N   0  0  0  0  0  0  0  0  0  0  0  0
  1  2  1  0
  2  3  1  0
  3  4  2  0
  4  5  1  0
  5  6  2  0
  6  7  1  0
  7  8  1  0
  8  9  1  0
  9 10  1  0
 10 11  2  0
 10 12  1  0
 12 13  1  0
 13 14  2  0
 14 15  1  0
 15 16  2  0
 16 17  1  0
 13 18  1  0
 17 18  2  0
  3 19  1  0
  7 19  2  0
M  END
