pyridine_urea_4798
     RDKit          3D

 21 22  0  0  0  0  0  0  0  0999 V2000
   11.0460   -1.0250   25.4830 C   0  0  0  0  0  0  0  0  0  0  0  0
   10.3590   -0.9760   24.1910 C   0  0  0  0  0  0  0  0  0  0  0  0
    8.8380   -0.8190   24.4100 C   0  0  0  0  0  0  0  0  0  0  0  0
   10.8050   -2.1590   23.3170 C   0  0  0  0  0  0  0  0  0  0  0  0
   11.1890   -1.4250   22.2360 C   0  0  0  0  0  0  0  0  0  0  0  0
   10.3050   -0.3740   22.3240 C   0  0  0  0  0  0  0  0  0  0  0  0
    8.9640   -0.8320   22.0030 N   0  0  0  0  0  0  0  0  0  0  0  0
    8.2470    0.0870   21.3180 C   0  0  0  0  0  0  0  0  0  0  0  0
    8.6830    1.2210   21.0750 O   0  0  0  0  0  0  0  0  0  0  0  0
    7.0480   -0.3980   20.9400 N   0  0  0  0  0  0  0  0  0  0  0  0
    6.3230    0.1970   19.9890 C   0  0  0  0  0  0  0  0  0  0  0  0
    5.1330    0.8630   20.1570 C   0  0  0  0  0  0  0  0  0  0  0  0
    4.4980    1.4700   19.0850 C   0  0  0  0  0  0  0  0  0  0  0  0
    5.1230    1.3720   17.8370 C   0  0  0  0  0  0  0  0  0  0  0  0
    6.2760    0.7160   17.6460 N   0  0  0  0  0  0  0  0  0  0  0  0
    6.8400    0.1490   18.7170 C   0  0  0  0  0  0  0  0  0  0  0  0
   12.5650   -1.3180   22.2600 C   0  0  0  0  0  0  0  0  0  0  0  0
   12.4960   -0.3110   23.2730 C   0  0  0  0  0  0  0  0  0  0  0  0
   13.0110   -0.8850   24.4010 C   0  0  0  0  0  0  0  0  0  0  0  0
   13.1540    0.9830   22.8950 C   0  0  0  0  0  0  0  0  0  0  0  0
   11.0910    0.1730   23.5940 C   0  0  0  0  0  0  0  0  0  0  0  0
  2  1  1  0
  2  3  1  0
  2  4  1  0
  4  5  1  0
  5  6  1  0
  6  7  1  0
  7  8  1  0
  8  9  2  0
  8 10  1  0
 10 11  1  0
 11 12  2  0
 12 13  1  0
 13 14  2  0
 14 15  1  0
 11 16  1  0
 15 16  2  0
  5 17  1  0
 17 18  1  0
 18 19  1  0
 18 20  1  0
  2 21  1  0
 18 21  1  0
M  END
