pyridine_urea_2158
     RDKit          3D

 28 30  0  0  0  0  0  0  0  0999 V2000
    8.5780    7.1640   22.3220 C   0  0  0  0  0  0  0  0  0  0  0  0
    9.1360    6.6220   23.4570 N   0  0  0  0  0  0  0  0  0  0  0  0
    8.6560    5.5070   24.1470 C   0  0  0  0  0  0  0  0  0  0  0  0
    9.1900    4.1080   23.8260 C   0  0  0  0  0  0  0  0  0  0  0  0
   10.5530    4.1360   23.6210 N   0  0  0  0  0  0  0  0  0  0  0  0
   11.2690    3.4640   22.6100 C   0  0  0  0  0  0  0  0  0  0  0  0
   12.6790    3.0190   22.9060 C   0  0  0  0  0  0  0  0  0  0  0  0
   13.4810    3.9220   22.7120 O   0  0  0  0  0  0  0  0  0  0  0  0
   12.8340    1.6190   23.3570 N   0  0  0  0  0  0  0  0  0  0  0  0
   13.7240    0.7500   22.8030 C   0  0  0  0  0  0  0  0  0  0  0  0
   11.8040    0.7910   23.1770 C   0  0  0  0  0  0  0  0  0  0  0  0
   10.5820    1.1590   23.6300 C   0  0  0  0  0  0  0  0  0  0  0  0
    9.4830    0.3870   23.3970 C   0  0  0  0  0  0  0  0  0  0  0  0
    9.4970   -0.8200   22.6970 C   0  0  0  0  0  0  0  0  0  0  0  0
    8.3340   -1.4160   22.4730 N   0  0  0  0  0  0  0  0  0  0  0  0
    7.6940   -0.6150   21.4430 C   0  0  0  0  0  0  0  0  0  0  0  0
    8.2530    0.6120   20.9880 O   0  0  0  0  0  0  0  0  0  0  0  0
    6.5530   -1.0980   20.9540 N   0  0  0  0  0  0  0  0  0  0  0  0
    6.0130   -0.2570   20.0340 C   0  0  0  0  0  0  0  0  0  0  0  0
    4.6320    0.4480   20.3690 C   0  0  0  0  0  0  0  0  0  0  0  0
    5.0390    0.8270   19.1950 C   0  0  0  0  0  0  0  0  0  0  0  0
    5.2850    1.3160   18.0080 C   0  0  0  0  0  0  0  0  0  0  0  0
    6.3990    0.7890   17.6630 N   0  0  0  0  0  0  0  0  0  0  0  0
    6.7250   -0.0240   18.7670 C   0  0  0  0  0  0  0  0  0  0  0  0
   10.8690   -1.2590   22.2370 C   0  0  0  0  0  0  0  0  0  0  0  0
   12.0330   -0.3910   22.5100 C   0  0  0  0  0  0  0  0  0  0  0  0
   11.1620    5.4480   23.9700 C   0  0  0  0  0  0  0  0  0  0  0  0
   10.5950    6.4910   23.2360 C   0  0  0  0  0  0  0  0  0  0  0  0
  1  2  1  0
  2  3  1  0
  3  4  1  0
  4  5  1  0
  5  6  1  0
  6  7  1  0
  7  8  2  0
  7  9  1  0
  9 10  1  0
  9 11  1  0
 11 12  2  0
 12 13  1  0
 13 14  2  0
 14 15  1  0
 15 16  1  0
 16 17  2  0
 16 18  1  0
 18 19  1  0
 19 20  2  0
 20 21  1  0
 21 22  2  0
 22 23  1  0
 19 24  1  0
 23 24  2  0
 14 25  1  0
 11 26  1  0
 25 26  2  0
  5 27  1  0
  2 28  1  0
 27 28  1  0
M  END
