pyridine_urea_7260
     RDKit          3D

 19 20  0  0  0  0  0  0  0  0999 V2000
   13.2660   -2.4210   22.9310 C   0  0  0  0  0  0  0  0  0  0  0  0
   13.1640   -1.4080   22.2320 O   0  0  0  0  0  0  0  0  0  0  0  0
   12.8740   -0.2030   22.8540 C   0  0  0  0  0  0  0  0  0  0  0  0
   12.1650    0.9740   23.5230 C   0  0  0  0  0  0  0  0  0  0  0  0
   12.8310    0.0950   23.0040 C   0  0  0  0  0  0  0  0  0  0  0  0
   11.4450   -0.7380   22.7900 C   0  0  0  0  0  0  0  0  0  0  0  0
   10.1560   -0.3480   23.1790 C   0  0  0  0  0  0  0  0  0  0  0  0
    9.2090   -0.8660   22.1970 N   0  0  0  0  0  0  0  0  0  0  0  0
    8.4150   -0.0010   21.4850 C   0  0  0  0  0  0  0  0  0  0  0  0
    8.8380    1.2670   21.1050 O   0  0  0  0  0  0  0  0  0  0  0  0
    7.1000   -0.6190   21.2120 N   0  0  0  0  0  0  0  0  0  0  0  0
    6.4820    0.0280   20.0740 C   0  0  0  0  0  0  0  0  0  0  0  0
    5.3330    0.7890   20.2840 C   0  0  0  0  0  0  0  0  0  0  0  0
    4.6960    1.4470   19.2500 C   0  0  0  0  0  0  0  0  0  0  0  0
    5.1770    1.3750   17.9570 C   0  0  0  0  0  0  0  0  0  0  0  0
    6.2740    0.6590   17.6470 N   0  0  0  0  0  0  0  0  0  0  0  0
    6.9260   -0.0270   18.7700 C   0  0  0  0  0  0  0  0  0  0  0  0
   11.5350   -1.9530   22.1710 C   0  0  0  0  0  0  0  0  0  0  0  0
   11.7970   -0.7940   22.7110 N   0  0  0  0  0  0  0  0  0  0  0  0
  1  2  1  0
  2  3  1  0
  3  4  2  0
  4  5  1  0
  5  6  2  0
  6  7  1  0
  7  8  1  0
  8  9  1  0
  9 10  2  0
  9 11  1  0
 11 12  1  0
 12 13  2  0
 13 14  1  0
 14 15  2  0
 15 16  1  0
 12 17  1  0
 16 17  2  0
  6 18  1  0
  3 19  1  0
 18 19  2  0
M  END
