pyridine_urea_14347
     RDKit          3D

 20 22  0  0  0  0  0  0  0  0999 V2000
    8.5600    0.8200   21.2290 O   0  0  0  0  0  0  0  0  0  0  0  0
    8.2820   -0.3560   21.4370 C   0  0  0  0  0  0  0  0  0  0  0  0
    6.9930   -0.8890   21.0400 N   0  0  0  0  0  0  0  0  0  0  0  0
    6.3670   -0.1530   20.0370 C   0  0  0  0  0  0  0  0  0  0  0  0
    5.1750    0.5370   20.2830 C   0  0  0  0  0  0  0  0  0  0  0  0
    4.5980    1.2690   19.2410 C   0  0  0  0  0  0  0  0  0  0  0  0
    5.2240    1.2940   17.9930 C   0  0  0  0  0  0  0  0  0  0  0  0
    6.3670    0.6310   17.7510 N   0  0  0  0  0  0  0  0  0  0  0  0
    6.9120   -0.0770   18.7710 C   0  0  0  0  0  0  0  0  0  0  0  0
    9.1280   -1.2630   22.0310 N   0  0  0  0  0  0  0  0  0  0  0  0
   10.4300   -0.6690   22.1810 C   0  0  2  0  0  0  0  0  0  0  0  0
   11.6970   -1.4860   21.9790 C   0  0  0  0  0  0  0  0  0  0  0  0
   12.6500   -0.7040   22.5730 C   0  0  0  0  0  0  0  0  0  0  0  0
   11.8630   -0.1660   23.5720 C   0  0  0  0  0  0  0  0  0  0  0  0
   12.1580   -1.2930   22.9900 C   0  0  0  0  0  0  0  0  0  0  0  0
   12.4640   -1.4710   24.2670 C   0  0  0  0  0  0  0  0  0  0  0  0
   13.4480   -2.7350   24.8660 Cl  0  0  0  0  0  0  0  0  0  0  0  0
   11.9530   -0.4080   25.0530 C   0  0  0  0  0  0  0  0  0  0  0  0
   10.8960    0.5300   24.6120 C   0  0  0  0  0  0  0  0  0  0  0  0
   10.4660    0.1140   23.4530 C   0  0  0  0  0  0  0  0  0  0  0  0
  1  2  2  0
  2  3  1  0
  3  4  1  0
  4  5  2  0
  5  6  1  0
  6  7  2  0
  7  8  1  0
  4  9  1  0
  8  9  2  0
  2 10  1  0
 11 10  1  1
 11 12  1  0
 12 13  1  0
 13 14  1  0
 14 15  1  0
 15 16  2  0
 16 17  1  0
 16 18  1  0
 18 19  2  0
 11 20  1  0
 14 20  2  0
 19 20  1  0
M  END
