pyridine_urea_10262
     RDKit          3D

 23 25  0  0  0  0  0  0  0  0999 V2000
    8.7460    1.1610   21.1200 O   0  0  0  0  0  0  0  0  0  0  0  0
    8.3360    0.0430   21.4580 C   0  0  0  0  0  0  0  0  0  0  0  0
    7.1770   -0.5410   20.9920 N   0  0  0  0  0  0  0  0  0  0  0  0
    6.4060    0.1000   20.0230 C   0  0  0  0  0  0  0  0  0  0  0  0
    5.2120    0.7780   20.2430 C   0  0  0  0  0  0  0  0  0  0  0  0
    4.5660    1.3930   19.1690 C   0  0  0  0  0  0  0  0  0  0  0  0
    5.1470    1.3010   17.9210 C   0  0  0  0  0  0  0  0  0  0  0  0
    6.2900    0.6440   17.6870 N   0  0  0  0  0  0  0  0  0  0  0  0
    6.8840    0.0640   18.7340 C   0  0  0  0  0  0  0  0  0  0  0  0
    9.0110   -0.7660   22.3420 N   0  0  0  0  0  0  0  0  0  0  0  0
   10.3420   -0.4940   22.6430 C   0  0  0  0  0  0  0  0  0  0  0  0
   11.3340   -1.4020   22.2690 C   0  0  0  0  0  0  0  0  0  0  0  0
   12.6740   -1.1320   22.5460 C   0  0  0  0  0  0  0  0  0  0  0  0
   13.0230    0.0360   23.1950 C   0  0  0  0  0  0  0  0  0  0  0  0
   12.0810    0.9580   23.5850 C   0  0  0  0  0  0  0  0  0  0  0  0
   10.6730    0.7060   23.3080 C   0  0  0  0  0  0  0  0  0  0  0  0
    9.5520    2.0350   23.8670 S   0  0  0  0  0  0  0  0  0  0  0  0
   10.5230    3.5220   23.3600 C   0  0  0  0  0  0  0  0  0  0  0  0
   10.0710    4.8060   23.4830 N   0  0  0  0  0  0  0  0  0  0  0  0
   10.9150    5.8750   23.0540 C   0  0  0  0  0  0  0  0  0  0  0  0
   12.1830    5.6750   22.5170 C   0  0  0  0  0  0  0  0  0  0  0  0
   12.5970    4.3690   22.4140 C   0  0  0  0  0  0  0  0  0  0  0  0
   11.8010    3.3710   22.8160 N   0  0  0  0  0  0  0  0  0  0  0  0
  1  2  2  0
  2  3  1  0
  3  4  1  0
  4  5  2  0
  5  6  1  0
  6  7  2  0
  7  8  1  0
  4  9  1  0
  8  9  2  0
  2 10  1  0
 10 11  1  0
 11 12  2  0
 12 13  1  0
 13 14  2  0
 14 15  1  0
 11 16  1  0
 15 16  2  0
 16 17  1  0
 17 18  1  0
 18 19  2  0
 19 20  1  0
 20 21  2  0
 21 22  1  0
 18 23  1  0
 22 23  2  0
M  END
