pyridine_urea_831
     RDKit          3D

 23 24  0  0  0  0  0  0  0  0999 V2000
   10.7320   -0.9020   24.9800 C   0  0  0  0  0  0  0  0  0  0  0  0
   11.6870   -1.9810   24.5430 C   0  0  0  0  0  0  0  0  0  0  0  0
   13.0250   -1.8570   24.8850 C   0  0  1  0  0  0  0  0  0  0  0  0
   13.6970   -2.9960   25.1910 C   0  0  0  0  0  0  0  0  0  0  0  0
   13.7930   -1.3550   23.7280 N   0  0  0  0  0  0  0  0  0  0  0  0
   13.4520   -0.1850   23.1550 C   0  0  0  0  0  0  0  0  0  0  0  0
   14.1560    0.6750   22.7080 O   0  0  0  0  0  0  0  0  0  0  0  0
   12.1020   -0.0270   23.0970 C   0  0  0  0  0  0  0  0  0  0  0  0
   11.3410    1.0380   23.7820 C   0  0  0  0  0  0  0  0  0  0  0  0
    9.8760    0.8930   23.5780 C   0  0  0  0  0  0  0  0  0  0  0  0
    9.4120   -0.1630   22.8050 C   0  0  0  0  0  0  0  0  0  0  0  0
    8.1180   -0.2750   22.6350 N   0  0  0  0  0  0  0  0  0  0  0  0
    7.6820    0.1320   21.4210 C   0  0  0  0  0  0  0  0  0  0  0  0
    8.2130    1.2700   20.7240 O   0  0  0  0  0  0  0  0  0  0  0  0
    6.7130   -0.5970   20.8790 N   0  0  0  0  0  0  0  0  0  0  0  0
    6.1990    0.0620   19.8640 C   0  0  0  0  0  0  0  0  0  0  0  0
    5.0080    0.7310   20.0500 C   0  0  0  0  0  0  0  0  0  0  0  0
    4.5000    1.4290   18.9810 C   0  0  0  0  0  0  0  0  0  0  0  0
    5.1640    1.4540   17.7710 C   0  0  0  0  0  0  0  0  0  0  0  0
    6.3170    0.7970   17.5890 N   0  0  0  0  0  0  0  0  0  0  0  0
    6.8030    0.1200   18.6380 C   0  0  0  0  0  0  0  0  0  0  0  0
   10.2290   -1.1060   22.1860 C   0  0  0  0  0  0  0  0  0  0  0  0
   11.5630   -1.0160   22.3490 C   0  0  0  0  0  0  0  0  0  0  0  0
  1  2  1  0
  2  3  1  0
  3  4  1  6
  3  5  1  0
  5  6  1  0
  6  7  2  0
  6  8  1  0
  8  9  2  0
  9 10  1  0
 10 11  2  0
 11 12  1  0
 12 13  1  0
 13 14  2  0
 13 15  1  0
 15 16  1  0
 16 17  2  0
 17 18  1  0
 18 19  2  0
 19 20  1  0
 16 21  1  0
 20 21  2  0
 11 22  1  0
  8 23  1  0
 22 23  2  0
M  END
