pyridine_urea_12242
     RDKit          3D

 22 24  0  0  0  0  0  0  0  0999 V2000
   11.3380   -2.5190   23.5990 C   0  0  0  0  0  0  0  0  0  0  0  0
   12.7580   -1.9420   23.6960 C   0  0  0  0  0  0  0  0  0  0  0  0
   13.6910   -3.0060   23.3730 C   0  0  0  0  0  0  0  0  0  0  0  0
   13.0960   -1.5210   25.0630 C   0  0  0  0  0  0  0  0  0  0  0  0
   12.8720   -0.2920   24.5840 N   0  0  0  0  0  0  0  0  0  0  0  0
   11.6830   -0.2140   24.2560 C   0  0  0  0  0  0  0  0  0  0  0  0
   10.6270   -0.1210   25.1100 C   0  0  0  0  0  0  0  0  0  0  0  0
    9.2990   -0.1250   24.5130 C   0  0  0  0  0  0  0  0  0  0  0  0
    9.2230   -0.2450   23.0440 C   0  0  0  0  0  0  0  0  0  0  0  0
    7.9370   -0.2650   22.5770 N   0  0  0  0  0  0  0  0  0  0  0  0
    7.8980    0.2110   21.3470 C   0  0  0  0  0  0  0  0  0  0  0  0
    8.5960    1.1710   20.9810 O   0  0  0  0  0  0  0  0  0  0  0  0
    6.9970   -0.5050   20.6590 N   0  0  0  0  0  0  0  0  0  0  0  0
    6.2440    0.1790   19.7760 C   0  0  0  0  0  0  0  0  0  0  0  0
    4.8920    0.7970   20.0590 C   0  0  0  0  0  0  0  0  0  0  0  0
    4.3390    1.5290   18.8630 C   0  0  0  0  0  0  0  0  0  0  0  0
    5.0780    1.5590   17.6940 C   0  0  0  0  0  0  0  0  0  0  0  0
    6.2720    0.9690   17.5260 N   0  0  0  0  0  0  0  0  0  0  0  0
    6.8020    0.3140   18.5460 C   0  0  0  0  0  0  0  0  0  0  0  0
   10.3370   -0.3260   22.2620 C   0  0  0  0  0  0  0  0  0  0  0  0
   11.5300   -0.3040   22.8770 C   0  0  0  0  0  0  0  0  0  0  0  0
   13.0950   -0.6270   23.2500 C   0  0  0  0  0  0  0  0  0  0  0  0
  2  1  1  0
  2  3  1  0
  2  4  1  0
  4  5  1  0
  5  6  1  0
  6  7  2  0
  7  8  1  0
  8  9  2  0
  9 10  1  0
 10 11  1  0
 11 12  2  0
 11 13  1  0
 13 14  1  0
 14 15  2  0
 15 16  1  0
 16 17  2  0
 17 18  1  0
 14 19  1  0
 18 19  2  0
  9 20  1  0
  6 21  1  0
 20 21  2  0
  2 22  1  0
  5 22  1  0
M  END
