pyridine_urea_6220
     RDKit          3D

 24 27  0  0  0  0  0  0  0  0999 V2000
    8.8180    1.0680   21.4710 O   0  0  0  0  0  0  0  0  0  0  0  0
    8.5090   -0.0910   21.2360 C   0  0  0  0  0  0  0  0  0  0  0  0
    7.2150   -0.5310   21.1050 N   0  0  0  0  0  0  0  0  0  0  0  0
    6.5140    0.0890   20.0170 C   0  0  0  0  0  0  0  0  0  0  0  0
    5.2400    0.8450   20.3610 C   0  0  0  0  0  0  0  0  0  0  0  0
    4.5750    1.4850   19.1950 C   0  0  0  0  0  0  0  0  0  0  0  0
    5.1550    1.3410   17.9430 C   0  0  0  0  0  0  0  0  0  0  0  0
    6.2800    0.6510   17.6990 N   0  0  0  0  0  0  0  0  0  0  0  0
    6.9260    0.0500   18.7120 C   0  0  0  0  0  0  0  0  0  0  0  0
    9.4340   -1.0780   21.0410 N   0  0  0  0  0  0  0  0  0  0  0  0
   10.3280   -1.3090   22.1360 C   0  0  0  0  0  0  0  0  0  0  0  0
   11.6700   -1.5390   22.0830 C   0  0  0  0  0  0  0  0  0  0  0  0
   12.1410   -1.7340   23.5120 C   0  0  0  0  0  0  0  0  0  0  0  0
   11.3480   -1.6910   24.6740 C   0  0  0  0  0  0  0  0  0  0  0  0
    9.9680   -1.4350   24.5660 C   0  0  0  0  0  0  0  0  0  0  0  0
    8.8930   -1.3240   25.4620 C   0  0  0  0  0  0  0  0  0  0  0  0
    7.7290   -2.1150   25.3660 N   0  0  0  0  0  0  0  0  0  0  0  0
    6.9070   -1.7950   26.2840 O   0  0  0  0  0  0  0  0  0  0  0  0
    7.4510   -0.7930   27.0310 C   0  0  0  0  0  0  0  0  0  0  0  0
    6.8480   -0.0990   28.2200 C   0  0  0  0  0  0  0  0  0  0  0  0
    7.2250   -0.4960   29.4690 C   0  0  0  0  0  0  0  0  0  0  0  0
    7.8770    0.7500   29.1340 C   0  0  0  0  0  0  0  0  0  0  0  0
    8.7180   -0.5080   26.4930 N   0  0  0  0  0  0  0  0  0  0  0  0
    9.5110   -1.2560   23.3590 C   0  0  0  0  0  0  0  0  0  0  0  0
  1  2  2  0
  2  3  1  0
  3  4  1  0
  4  5  2  0
  5  6  1  0
  6  7  2  0
  7  8  1  0
  4  9  1  0
  8  9  2  0
  2 10  1  0
 10 11  1  0
 11 12  2  0
 12 13  1  0
 13 14  2  0
 14 15  1  0
 15 16  1  0
 16 17  2  0
 17 18  1  0
 18 19  1  0
 19 20  1  0
 20 21  1  0
 20 22  1  0
 21 22  1  0
 16 23  1  0
 19 23  2  0
 11 24  1  0
 15 24  2  0
M  END
