pyridine_urea_11542
     RDKit          3D

 24 26  0  0  0  0  0  0  0  0999 V2000
   11.3310    6.3430   23.3970 N   0  0  0  0  0  0  0  0  0  0  0  0
   11.9130    5.4570   22.5350 C   0  0  0  0  0  0  0  0  0  0  0  0
   11.4350    4.0300   22.6500 C   0  0  0  0  0  0  0  0  0  0  0  0
   10.1020    3.6240   22.6770 C   0  0  0  0  0  0  0  0  0  0  0  0
    9.8080    2.2600   22.7840 C   0  0  0  0  0  0  0  0  0  0  0  0
   10.8270    1.3130   22.8620 C   0  0  0  0  0  0  0  0  0  0  0  0
   10.5240   -0.0680   22.9730 C   0  0  0  0  0  0  0  0  0  0  0  0
    9.1240   -0.3200   22.5850 N   0  0  0  0  0  0  0  0  0  0  0  0
    8.4080    0.2100   21.5440 C   0  0  0  0  0  0  0  0  0  0  0  0
    8.8200    1.2710   21.0740 O   0  0  0  0  0  0  0  0  0  0  0  0
    7.2970   -0.4430   21.1280 N   0  0  0  0  0  0  0  0  0  0  0  0
    6.5990    0.0950   20.0930 C   0  0  0  0  0  0  0  0  0  0  0  0
    5.4500    0.8180   20.3740 C   0  0  0  0  0  0  0  0  0  0  0  0
    4.7230    1.3990   19.3340 C   0  0  0  0  0  0  0  0  0  0  0  0
    5.1720    1.2370   18.0370 C   0  0  0  0  0  0  0  0  0  0  0  0
    6.2730    0.5350   17.7390 N   0  0  0  0  0  0  0  0  0  0  0  0
    6.9570   -0.0180   18.7640 C   0  0  0  0  0  0  0  0  0  0  0  0
   11.3270   -1.0140   22.3070 C   0  0  0  0  0  0  0  0  0  0  0  0
   12.8110   -0.8820   22.4770 C   0  0  0  0  0  0  0  0  0  0  0  0
   13.1430   -0.6440   23.8350 O   0  0  0  0  0  0  0  0  0  0  0  0
   12.0870   -0.1230   24.6520 C   0  0  0  0  0  0  0  0  0  0  0  0
   10.7860   -0.5590   24.3900 C   0  0  0  0  0  0  0  0  0  0  0  0
   12.1690    1.7700   22.8360 C   0  0  0  0  0  0  0  0  0  0  0  0
   12.4950    3.1220   22.7300 C   0  0  0  0  0  0  0  0  0  0  0  0
  1  2  3  0
  2  3  1  0
  3  4  2  0
  4  5  1  0
  5  6  2  0
  6  7  1  0
  7  8  1  0
  8  9  1  0
  9 10  2  0
  9 11  1  0
 11 12  1  0
 12 13  2  0
 13 14  1  0
 14 15  2  0
 15 16  1  0
 12 17  1  0
 16 17  2  0
  7 18  1  0
 18 19  1  0
 19 20  1  0
 20 21  1  0
  7 22  1  0
 21 22  1  0
  6 23  1  0
  3 24  1  0
 23 24  2  0
M  END
