pyridine_urea_14064
     RDKit          3D

 23 25  0  0  0  0  0  0  0  0999 V2000
    9.8800    4.8870   24.3830 C   0  0  0  0  0  0  0  0  0  0  0  0
   11.0430    5.0650   24.1480 C   0  0  0  0  0  0  0  0  0  0  0  0
   12.5200    5.2900   23.8500 C   0  0  0  0  0  0  0  0  0  0  0  0
   13.1010    4.0840   23.4290 C   0  0  0  0  0  0  0  0  0  0  0  0
   12.1070    3.1770   23.4600 C   0  0  0  0  0  0  0  0  0  0  0  0
   11.9640    1.6670   23.1410 C   0  0  0  0  0  0  0  0  0  0  0  0
   13.1620    0.8210   23.0730 C   0  0  0  0  0  0  0  0  0  0  0  0
   13.1960   -0.5140   22.7770 C   0  0  0  0  0  0  0  0  0  0  0  0
   11.8030   -1.1150   22.4880 C   0  0  0  0  0  0  0  0  0  0  0  0
   11.5900   -2.4470   22.1480 C   0  0  0  0  0  0  0  0  0  0  0  0
   10.5350   -0.2660   22.5560 C   0  0  0  0  0  0  0  0  0  0  0  0
    9.1950   -0.7820   22.2740 N   0  0  0  0  0  0  0  0  0  0  0  0
    8.5080   -0.0140   21.3560 C   0  0  0  0  0  0  0  0  0  0  0  0
    8.9600    1.0730   20.9630 O   0  0  0  0  0  0  0  0  0  0  0  0
    7.3220   -0.5750   20.9450 N   0  0  0  0  0  0  0  0  0  0  0  0
    6.5250    0.0420   19.9720 C   0  0  0  0  0  0  0  0  0  0  0  0
    5.1980    0.6870   20.1660 C   0  0  0  0  0  0  0  0  0  0  0  0
    4.5230    1.2970   18.9940 C   0  0  0  0  0  0  0  0  0  0  0  0
    5.1630    1.2480   17.7580 C   0  0  0  0  0  0  0  0  0  0  0  0
    6.3750    0.6470   17.6000 N   0  0  0  0  0  0  0  0  0  0  0  0
    7.0010    0.0790   18.6680 C   0  0  0  0  0  0  0  0  0  0  0  0
   10.5930    1.1890   22.9040 C   0  0  0  0  0  0  0  0  0  0  0  0
   11.0490    3.7870   23.8540 O   0  0  0  0  0  0  0  0  0  0  0  0
  1  2  1  0
  2  3  2  0
  3  4  1  0
  4  5  2  0
  5  6  1  0
  6  7  2  0
  7  8  1  0
  8  9  2  0
  9 10  1  0
  9 11  1  0
 11 12  1  0
 12 13  1  0
 13 14  2  0
 13 15  1  0
 15 16  1  0
 16 17  2  0
 17 18  1  0
 18 19  2  0
 19 20  1  0
 16 21  1  0
 20 21  2  0
  6 22  1  0
 11 22  2  0
  2 23  1  0
  5 23  1  0
M  END
