pyridine_urea_1853
     RDKit          3D

 16 17  0  0  0  0  0  0  0  0999 V2000
   11.9860   -2.3830   21.9990 C   0  0  0  0  0  0  0  0  0  0  0  0
   11.9450   -0.9620   22.4060 C   0  0  0  0  0  0  0  0  0  0  0  0
   12.9520   -0.0810   22.6890 C   0  0  0  0  0  0  0  0  0  0  0  0
   12.5140    1.5210   23.1200 S   0  0  0  0  0  0  0  0  0  0  0  0
   10.7940    1.0340   22.9310 C   0  0  0  0  0  0  0  0  0  0  0  0
   10.5870   -0.2710   22.5560 C   0  0  0  0  0  0  0  0  0  0  0  0
    9.2260   -0.7320   22.3680 N   0  0  0  0  0  0  0  0  0  0  0  0
    8.5180    0.0890   21.5180 C   0  0  0  0  0  0  0  0  0  0  0  0
    8.9380    1.2260   21.2280 O   0  0  0  0  0  0  0  0  0  0  0  0
    7.2810   -0.4950   21.0260 N   0  0  0  0  0  0  0  0  0  0  0  0
    6.5670    0.0610   20.0220 C   0  0  0  0  0  0  0  0  0  0  0  0
    5.2710    0.8270   20.3230 C   0  0  0  0  0  0  0  0  0  0  0  0
    4.5870    1.3990   19.2740 C   0  0  0  0  0  0  0  0  0  0  0  0
    5.1110    1.2520   17.9950 C   0  0  0  0  0  0  0  0  0  0  0  0
    6.2390    0.5770   17.7020 N   0  0  0  0  0  0  0  0  0  0  0  0
    6.9420   -0.0020   18.7000 C   0  0  0  0  0  0  0  0  0  0  0  0
  1  2  1  0
  2  3  2  0
  3  4  1  0
  4  5  1  0
  2  6  1  0
  5  6  2  0
  6  7  1  0
  7  8  1  0
  8  9  2  0
  8 10  1  0
 10 11  1  0
 11 12  2  0
 12 13  1  0
 13 14  2  0
 14 15  1  0
 11 16  1  0
 15 16  2  0
M  END
