pyridine_urea_4645
     RDKit          3D

 22 22  0  0  0  0  0  0  0  0999 V2000
   12.7960    0.1340   22.5600 C   0  0  0  0  0  0  0  0  0  0  0  0
   12.4700    0.6230   23.9570 C   0  0  0  0  0  0  0  0  0  0  0  0
   10.9850    0.5300   24.3190 C   0  0  0  0  0  0  0  0  0  0  0  0
   10.0600    0.3300   23.3500 C   0  0  0  0  0  0  0  0  0  0  0  0
   10.1090   -0.7730   22.5180 C   0  0  2  0  0  0  0  0  0  0  0  0
    8.7620   -1.0550   22.1670 N   0  0  0  0  0  0  0  0  0  0  0  0
    8.1850   -0.1000   21.3950 C   0  0  0  0  0  0  0  0  0  0  0  0
    8.7890    1.1130   21.1110 O   0  0  0  0  0  0  0  0  0  0  0  0
    6.9680   -0.5360   20.9720 N   0  0  0  0  0  0  0  0  0  0  0  0
    6.2980    0.1310   19.9760 C   0  0  0  0  0  0  0  0  0  0  0  0
    5.1120    0.8570   20.1240 C   0  0  0  0  0  0  0  0  0  0  0  0
    4.5410    1.5100   19.0490 C   0  0  0  0  0  0  0  0  0  0  0  0
    5.1350    1.4580   17.8000 C   0  0  0  0  0  0  0  0  0  0  0  0
    6.2890    0.7410   17.6460 N   0  0  0  0  0  0  0  0  0  0  0  0
    6.8640    0.0830   18.7190 C   0  0  0  0  0  0  0  0  0  0  0  0
   10.9200   -1.8490   22.8190 C   0  0  0  0  0  0  0  0  0  0  0  0
   11.4050   -2.5100   21.9100 O   0  0  0  0  0  0  0  0  0  0  0  0
   11.1430   -2.1440   24.1900 O   0  0  0  0  0  0  0  0  0  0  0  0
   12.5410   -2.0900   24.3700 C   0  0  0  0  0  0  0  0  0  0  0  0
   13.3670   -3.0200   25.0000 C   0  0  0  0  0  0  0  0  0  0  0  0
   12.7610   -0.8200   25.1250 C   0  0  0  0  0  0  0  0  0  0  0  0
   13.5210   -2.2630   23.1920 C   0  0  0  0  0  0  0  0  0  0  0  0
  1  2  1  0
  2  3  1  0
  3  4  1  0
  5  4  1  1
  5  6  1  0
  6  7  1  0
  7  8  2  0
  7  9  1  0
  9 10  1  0
 10 11  2  0
 11 12  1  0
 12 13  2  0
 13 14  1  0
 10 15  1  0
 14 15  2  0
  5 16  1  0
 16 17  2  0
 16 18  1  0
 19 18  1  0
 19 20  1  0
 19 21  1  0
 19 22  1  0
M  END
