pyridine_urea_1525
     RDKit          3D

 19 20  0  0  0  0  0  0  0  0999 V2000
    8.8380    1.1190   21.2120 O   0  0  0  0  0  0  0  0  0  0  0  0
    8.2230    0.0950   21.5650 C   0  0  0  0  0  0  0  0  0  0  0  0
    8.5650   -0.6450   22.6490 N   0  0  0  0  0  0  0  0  0  0  0  0
    9.9080   -0.5950   23.1180 C   0  0  0  0  0  0  0  0  0  0  0  0
   10.2140    0.7570   23.7740 C   0  0  0  0  0  0  0  0  0  0  0  0
   11.5370    1.0120   24.0310 C   0  0  0  0  0  0  0  0  0  0  0  0
   12.4660    0.6900   23.0920 C   0  0  0  0  0  0  0  0  0  0  0  0
   12.9310   -0.6000   23.2460 C   0  0  0  0  0  0  0  0  0  0  0  0
   12.0460   -1.4440   23.8980 C   0  0  0  0  0  0  0  0  0  0  0  0
   11.6980   -2.4200   22.9960 C   0  0  0  0  0  0  0  0  0  0  0  0
   12.1450   -2.0280   21.7610 C   0  0  0  0  0  0  0  0  0  0  0  0
   13.2230   -1.2100   22.0430 C   0  0  0  0  0  0  0  0  0  0  0  0
    7.1280   -0.4570   20.9820 N   0  0  0  0  0  0  0  0  0  0  0  0
    6.4690    0.1450   19.9330 C   0  0  0  0  0  0  0  0  0  0  0  0
    5.2270    0.9360   20.1840 C   0  0  0  0  0  0  0  0  0  0  0  0
    4.5470    1.5720   19.1760 C   0  0  0  0  0  0  0  0  0  0  0  0
    5.1500    1.3910   17.8990 C   0  0  0  0  0  0  0  0  0  0  0  0
    6.2560    0.6810   17.6250 N   0  0  0  0  0  0  0  0  0  0  0  0
    6.8900    0.0740   18.6420 C   0  0  0  0  0  0  0  0  0  0  0  0
  1  2  2  0
  2  3  1  0
  3  4  1  0
  4  5  1  0
  5  6  1  0
  6  7  1  0
  7  8  1  0
  8  9  1  0
  9 10  1  0
 10 11  1  0
  8 12  1  0
 11 12  1  0
  2 13  1  0
 13 14  1  0
 14 15  2  0
 15 16  1  0
 16 17  2  0
 17 18  1  0
 14 19  1  0
 18 19  2  0
M  END
