pyridine_urea_478
     RDKit          3D

 25 26  0  0  0  0  0  0  0  0999 V2000
   -0.9670    4.4960   21.5400 C   0  0  0  0  0  0  0  0  0  0  0  0
   -0.2950    3.3250   21.8510 N   0  0  0  0  0  0  0  0  0  0  0  0
    0.3870    2.4370   20.6070 S   0  0  0  0  0  0  0  0  0  0  0  0
    0.0990    3.1910   19.4120 O   0  0  0  0  0  0  0  0  0  0  0  0
   -0.0500    1.0570   20.7600 O   0  0  0  0  0  0  0  0  0  0  0  0
    2.1360    2.6220   20.8900 C   0  0  0  0  0  0  0  0  0  0  0  0
    2.9530    3.0840   19.8770 C   0  0  0  0  0  0  0  0  0  0  0  0
    4.3230    3.2550   20.0020 C   0  0  0  0  0  0  0  0  0  0  0  0
    4.8940    2.9390   21.2150 C   0  0  0  0  0  0  0  0  0  0  0  0
    4.1320    2.4620   22.2910 C   0  0  0  0  0  0  0  0  0  0  0  0
    4.8690    2.1880   23.4300 N   0  0  0  0  0  0  0  0  0  0  0  0
    6.1710    1.6820   23.5060 C   0  0  0  0  0  0  0  0  0  0  0  0
    6.9890    2.5900   23.4740 O   0  0  0  0  0  0  0  0  0  0  0  0
    6.5600    0.3320   23.6150 C   0  0  0  0  0  0  0  0  0  0  0  0
    7.8170    0.0080   23.1190 N   0  0  0  0  0  0  0  0  0  0  0  0
    8.2410   -0.1950   21.7980 C   0  0  0  0  0  0  0  0  0  0  0  0
    9.3310    0.2030   21.4160 O   0  0  0  0  0  0  0  0  0  0  0  0
    7.2240   -0.8790   21.0290 N   0  0  0  0  0  0  0  0  0  0  0  0
    6.5030   -0.1940   20.0180 C   0  0  0  0  0  0  0  0  0  0  0  0
    5.2670    0.4200   20.2330 C   0  0  0  0  0  0  0  0  0  0  0  0
    4.5450    1.1510   19.1460 C   0  0  0  0  0  0  0  0  0  0  0  0
    5.1580    1.2040   17.8970 C   0  0  0  0  0  0  0  0  0  0  0  0
    6.3720    0.5760   17.7210 N   0  0  0  0  0  0  0  0  0  0  0  0
    7.0200   -0.1060   18.7520 C   0  0  0  0  0  0  0  0  0  0  0  0
    2.7370    2.3070   22.1280 C   0  0  0  0  0  0  0  0  0  0  0  0
  1  2  1  0
  3  2  1  0
  3  4  2  0
  3  5  2  0
  3  6  1  0
  6  7  2  0
  7  8  1  0
  8  9  2  0
  9 10  1  0
 10 11  1  0
 11 12  1  0
 12 13  2  0
 12 14  1  0
 14 15  1  0
 15 16  1  0
 16 17  2  0
 16 18  1  0
 18 19  1  0
 19 20  2  0
 20 21  1  0
 21 22  2  0
 22 23  1  0
 19 24  1  0
 23 24  2  0
  6 25  1  0
 10 25  2  0
M  END
