pyridine_urea_4807
     RDKit          3D

 21 23  0  0  0  0  0  0  0  0999 V2000
    8.5100    1.4300   20.9700 O   0  0  0  0  0  0  0  0  0  0  0  0
    8.3900    0.2910   21.4160 C   0  0  0  0  0  0  0  0  0  0  0  0
    7.3050   -0.4760   21.1010 N   0  0  0  0  0  0  0  0  0  0  0  0
    6.6150    0.0620   19.9700 C   0  0  0  0  0  0  0  0  0  0  0  0
    5.3610    0.8910   20.2830 C   0  0  0  0  0  0  0  0  0  0  0  0
    4.6420    1.4810   19.2510 C   0  0  0  0  0  0  0  0  0  0  0  0
    5.1080    1.2890   17.9570 C   0  0  0  0  0  0  0  0  0  0  0  0
    6.2250    0.5330   17.7220 N   0  0  0  0  0  0  0  0  0  0  0  0
    6.9930   -0.0910   18.7030 C   0  0  0  0  0  0  0  0  0  0  0  0
    9.2820   -0.3080   22.2380 N   0  0  0  0  0  0  0  0  0  0  0  0
   10.2330   -0.7930   23.0440 C   0  0  1  0  0  0  0  0  0  0  0  0
   11.3360   -1.2590   22.3040 C   0  0  0  0  0  0  0  0  0  0  0  0
   12.4490   -0.4510   22.3470 C   0  0  0  0  0  0  0  0  0  0  0  0
   12.8870   -0.3650   23.5730 C   0  0  2  0  0  0  0  0  0  0  0  0
   12.8830   -1.5800   24.1840 C   0  0  0  0  0  0  0  0  0  0  0  0
   11.7450   -2.3150   24.3300 N   0  0  0  0  0  0  0  0  0  0  0  0
   12.1630   -3.3970   24.9660 N   0  0  0  0  0  0  0  0  0  0  0  0
   13.4600   -3.3300   25.2060 C   0  0  0  0  0  0  0  0  0  0  0  0
   13.9160   -2.2390   24.7250 N   0  0  0  0  0  0  0  0  0  0  0  0
   12.0670    0.1560   24.4760 C   0  0  0  0  0  0  0  0  0  0  0  0
   10.6910   -0.0680   24.1720 C   0  0  0  0  0  0  0  0  0  0  0  0
  1  2  2  0
  2  3  1  0
  3  4  1  0
  4  5  2  0
  5  6  1  0
  6  7  2  0
  7  8  1  0
  4  9  1  0
  8  9  2  0
  2 10  1  0
 11 10  1  6
 11 12  1  0
 12 13  1  0
 13 14  1  0
 14 15  1  1
 15 16  2  0
 16 17  1  0
 17 18  2  0
 15 19  1  0
 18 19  1  0
 14 20  1  0
 11 21  1  0
 20 21  1  0
M  END
