pyridine_urea_1562
     RDKit          3D

 19 21  0  0  0  0  0  0  0  0999 V2000
    8.7610    1.2620   21.1060 O   0  0  0  0  0  0  0  0  0  0  0  0
    8.2010    0.2430   21.5420 C   0  0  0  0  0  0  0  0  0  0  0  0
    8.5080   -0.4240   22.6720 N   0  0  0  0  0  0  0  0  0  0  0  0
    9.4460   -0.0120   23.5940 C   0  0  0  0  0  0  0  0  0  0  0  0
   10.3110   -0.9980   23.9340 C   0  0  2  0  0  0  0  0  0  0  0  0
   11.0700   -0.9820   24.9680 C   0  0  0  0  0  0  0  0  0  0  0  0
   11.9230   -0.7780   24.0350 C   0  0  0  0  0  0  0  0  0  0  0  0
   12.3800    0.4920   23.9020 C   0  0  0  0  0  0  0  0  0  0  0  0
   13.0260    0.7690   22.7310 C   0  0  0  0  0  0  0  0  0  0  0  0
   13.3650   -0.3290   21.9820 N   0  0  0  0  0  0  0  0  0  0  0  0
   12.8140   -1.6230   22.2580 C   0  0  0  0  0  0  0  0  0  0  0  0
   12.7020   -1.8380   23.5870 C   0  0  0  0  0  0  0  0  0  0  0  0
    7.1470   -0.3650   20.9400 N   0  0  0  0  0  0  0  0  0  0  0  0
    6.4770    0.1970   19.9400 C   0  0  0  0  0  0  0  0  0  0  0  0
    5.3190    0.9210   20.2250 C   0  0  0  0  0  0  0  0  0  0  0  0
    4.6320    1.5270   19.1820 C   0  0  0  0  0  0  0  0  0  0  0  0
    5.1490    1.3660   17.9200 C   0  0  0  0  0  0  0  0  0  0  0  0
    6.2510    0.6700   17.6100 N   0  0  0  0  0  0  0  0  0  0  0  0
    6.8910    0.0990   18.6370 C   0  0  0  0  0  0  0  0  0  0  0  0
  1  2  2  0
  2  3  1  0
  3  4  1  0
  5  4  1  1
  5  6  1  0
  5  7  1  0
  7  6  1  0
  7  8  1  0
  8  9  1  0
  9 10  1  0
 10 11  1  0
  7 12  1  0
 11 12  1  0
  2 13  1  0
 13 14  1  0
 14 15  2  0
 15 16  1  0
 16 17  2  0
 17 18  1  0
 14 19  1  0
 18 19  2  0
M  END
