pyridine_urea_11938
     RDKit          3D

 24 25  0  0  0  0  0  0  0  0999 V2000
    8.8630    1.5310   21.1070 O   0  0  0  0  0  0  0  0  0  0  0  0
    8.5750    0.4120   21.5200 C   0  0  0  0  0  0  0  0  0  0  0  0
    9.2640   -0.2570   22.5000 N   0  0  0  0  0  0  0  0  0  0  0  0
   10.6590   -0.1760   22.7220 C   0  0  0  0  0  0  0  0  0  0  0  0
   11.3580   -1.3310   22.4130 C   0  0  0  0  0  0  0  0  0  0  0  0
   10.5010   -2.3660   22.1830 N   0  0  0  0  0  0  0  0  0  0  0  0
    9.7750   -2.6250   23.6740 S   0  0  0  0  0  0  0  0  0  0  0  0
    9.7870   -1.3540   24.3550 O   0  0  0  0  0  0  0  0  0  0  0  0
   10.4240   -3.7520   24.2550 O   0  0  0  0  0  0  0  0  0  0  0  0
    8.0690   -3.0120   23.3320 C   0  0  0  0  0  0  0  0  0  0  0  0
    7.0880   -2.0400   23.1570 C   0  0  0  0  0  0  0  0  0  0  0  0
    5.7320   -2.3060   22.8930 C   0  0  0  0  0  0  0  0  0  0  0  0
    5.3740   -3.6490   22.8060 C   0  0  0  0  0  0  0  0  0  0  0  0
    4.1000   -4.0000   22.5630 F   0  0  0  0  0  0  0  0  0  0  0  0
    6.3880   -4.7640   22.9820 C   0  0  0  0  0  0  0  0  0  0  0  0
    5.9500   -6.4130   22.8640 Cl  0  0  0  0  0  0  0  0  0  0  0  0
    7.6970   -4.3610   23.2420 C   0  0  0  0  0  0  0  0  0  0  0  0
    7.4880   -0.2970   21.0360 N   0  0  0  0  0  0  0  0  0  0  0  0
    6.6710    0.2210   20.0910 C   0  0  0  0  0  0  0  0  0  0  0  0
    5.5070    0.9710   20.3340 C   0  0  0  0  0  0  0  0  0  0  0  0
    4.7380    1.4860   19.2740 C   0  0  0  0  0  0  0  0  0  0  0  0
    5.1430    1.2450   17.9670 C   0  0  0  0  0  0  0  0  0  0  0  0
    6.2530    0.5160   17.7680 N   0  0  0  0  0  0  0  0  0  0  0  0
    7.0010    0.0100   18.7680 C   0  0  0  0  0  0  0  0  0  0  0  0
  1  2  2  0
  2  3  1  0
  3  4  1  0
  4  5  1  0
  5  6  1  0
  7  6  1  0
  7  8  2  0
  7  9  2  0
  7 10  1  0
 10 11  2  0
 11 12  1  0
 12 13  2  0
 13 14  1  0
 13 15  1  0
 15 16  1  0
 10 17  1  0
 15 17  2  0
  2 18  1  0
 18 19  1  0
 19 20  2  0
 20 21  1  0
 21 22  2  0
 22 23  1  0
 19 24  1  0
 23 24  2  0
M  END
