pyridine_urea_14853
     RDKit          3D

 20 22  0  0  0  0  0  0  0  0999 V2000
    8.7730    1.5770   21.1710 O   0  0  0  0  0  0  0  0  0  0  0  0
    8.7920    0.3540   21.2220 C   0  0  0  0  0  0  0  0  0  0  0  0
    7.6940   -0.4450   20.7970 N   0  0  0  0  0  0  0  0  0  0  0  0
    6.7010    0.0860   19.9240 C   0  0  0  0  0  0  0  0  0  0  0  0
    5.4610    0.5770   20.3060 C   0  0  0  0  0  0  0  0  0  0  0  0
    4.5410    1.1050   19.4290 C   0  0  0  0  0  0  0  0  0  0  0  0
    4.8850    1.1080   18.0140 C   0  0  0  0  0  0  0  0  0  0  0  0
    6.1080    0.6480   17.5800 N   0  0  0  0  0  0  0  0  0  0  0  0
    6.9540    0.1510   18.5400 C   0  0  0  0  0  0  0  0  0  0  0  0
    9.8710   -0.5130   21.5250 N   0  0  0  0  0  0  0  0  0  0  0  0
   10.7950   -0.5770   22.9450 C   0  0  0  0  0  0  0  0  0  0  0  0
   11.8350   -0.1040   23.9390 C   0  0  0  0  0  0  0  0  0  0  0  0
   11.9650    0.7880   23.1680 N   0  0  0  0  0  0  0  0  0  0  0  0
   11.1530    0.2990   22.4710 C   0  0  0  0  0  0  0  0  0  0  0  0
   11.8190    1.3460   22.1920 C   0  0  0  0  0  0  0  0  0  0  0  0
   10.8860    0.4430   22.0540 C   0  0  0  0  0  0  0  0  0  0  0  0
   12.0230    1.5430   22.2210 C   0  0  0  0  0  0  0  0  0  0  0  0
   12.4100    0.9150   23.7370 C   0  0  0  0  0  0  0  0  0  0  0  0
   11.5390   -0.3560   23.6650 C   0  0  0  0  0  0  0  0  0  0  0  0
   10.8110   -1.6450   23.8010 C   0  0  0  0  0  0  0  0  0  0  0  0
  1  2  2  0
  2  3  1  0
  3  4  1  0
  4  5  2  0
  5  6  1  0
  6  7  2  0
  7  8  1  0
  4  9  1  0
  8  9  2  0
  2 10  1  0
 10 11  1  0
 11 12  2  0
 12 13  1  0
 13 14  2  0
 14 15  1  0
 15 16  2  0
 16 17  1  0
 17 18  2  0
 14 19  1  0
 18 19  1  0
 11 20  1  0
 19 20  2  0
M  END
