pyridine_urea_6925
     RDKit          3D

 20 21  0  0  0  0  0  0  0  0999 V2000
    7.9770   -0.9570   23.8540 C   0  0  0  0  0  0  0  0  0  0  0  0
    8.8050   -1.8080   23.5500 O   0  0  0  0  0  0  0  0  0  0  0  0
   10.0870   -1.4360   23.1500 C   0  0  0  0  0  0  0  0  0  0  0  0
   10.6390   -0.0960   23.4180 C   0  0  0  0  0  0  0  0  0  0  0  0
   11.9640    0.3920   23.0670 C   0  0  0  0  0  0  0  0  0  0  0  0
   12.7200   -0.5180   22.4440 C   0  0  0  0  0  0  0  0  0  0  0  0
   12.0830   -1.6780   22.2680 C   0  0  0  0  0  0  0  0  0  0  0  0
   10.8580   -0.9010   22.8860 C   0  0  1  0  0  0  0  0  0  0  0  0
   10.8970    0.4950   22.9580 C   0  0  0  0  0  0  0  0  0  0  0  0
    9.6630   -1.1440   22.0740 N   0  0  0  0  0  0  0  0  0  0  0  0
    8.7310   -0.0800   21.4820 C   0  0  0  0  0  0  0  0  0  0  0  0
    9.0970    1.3040   21.2520 O   0  0  0  0  0  0  0  0  0  0  0  0
    7.4070   -0.6160   21.1410 N   0  0  0  0  0  0  0  0  0  0  0  0
    6.6570    0.0070   20.1230 C   0  0  0  0  0  0  0  0  0  0  0  0
    5.4970    0.7600   20.3840 C   0  0  0  0  0  0  0  0  0  0  0  0
    4.7040    1.4410   19.3160 C   0  0  0  0  0  0  0  0  0  0  0  0
    5.1730    1.2980   18.0180 C   0  0  0  0  0  0  0  0  0  0  0  0
    6.3220    0.5370   17.7870 N   0  0  0  0  0  0  0  0  0  0  0  0
    7.0150   -0.0710   18.7860 C   0  0  0  0  0  0  0  0  0  0  0  0
   10.9880   -2.3880   22.4250 N   0  0  0  0  0  0  0  0  0  0  0  0
  1  2  1  0
  2  3  1  0
  3  4  2  0
  4  5  1  0
  5  6  2  0
  6  7  1  0
  7  8  1  0
  8  9  1  6
  8 10  1  0
 10 11  1  0
 11 12  2  0
 11 13  1  0
 13 14  1  0
 14 15  2  0
 15 16  1  0
 16 17  2  0
 17 18  1  0
 14 19  1  0
 18 19  2  0
  3 20  1  0
  7 20  2  0
M  END
