pyridine_urea_15055
     RDKit          3D

 19 20  0  0  0  0  0  0  0  0999 V2000
   13.5840   -2.6690   24.6840 C   0  0  0  0  0  0  0  0  0  0  0  0
   13.0610   -0.9610   24.4630 S   0  0  0  0  0  0  0  0  0  0  0  0
   12.9370   -0.3510   25.7480 O   0  0  0  0  0  0  0  0  0  0  0  0
   13.7540   -0.3560   23.3610 O   0  0  0  0  0  0  0  0  0  0  0  0
   11.4540   -1.2470   23.8080 C   0  0  2  0  0  0  0  0  0  0  0  0
   11.7210   -1.4440   22.3580 C   0  0  0  0  0  0  0  0  0  0  0  0
   10.3430   -1.2240   21.9050 C   0  0  0  0  0  0  0  0  0  0  0  0
    9.6170   -0.8840   23.2120 C   0  0  2  0  0  0  0  0  0  0  0  0
    8.4810   -0.0640   22.9350 N   0  0  0  0  0  0  0  0  0  0  0  0
    8.2680    0.3700   21.6510 C   0  0  0  0  0  0  0  0  0  0  0  0
    8.9370    1.3120   21.1950 O   0  0  0  0  0  0  0  0  0  0  0  0
    7.2700   -0.3340   21.0290 N   0  0  0  0  0  0  0  0  0  0  0  0
    6.5440    0.2100   19.9820 C   0  0  0  0  0  0  0  0  0  0  0  0
    5.3750    0.9230   20.2650 C   0  0  0  0  0  0  0  0  0  0  0  0
    4.6550    1.4950   19.2200 C   0  0  0  0  0  0  0  0  0  0  0  0
    5.1360    1.3280   17.9440 C   0  0  0  0  0  0  0  0  0  0  0  0
    6.2450    0.6390   17.6540 N   0  0  0  0  0  0  0  0  0  0  0  0
    6.9210    0.0960   18.6750 C   0  0  0  0  0  0  0  0  0  0  0  0
   10.4230   -0.1920   24.1290 C   0  0  0  0  0  0  0  0  0  0  0  0
  2  1  1  0
  2  3  2  0
  2  4  2  0
  5  2  1  1
  5  6  1  0
  6  7  1  0
  7  8  1  0
  8  9  1  6
  9 10  1  0
 10 11  2  0
 10 12  1  0
 12 13  1  0
 13 14  2  0
 14 15  1  0
 15 16  2  0
 16 17  1  0
 13 18  1  0
 17 18  2  0
  5 19  1  0
  8 19  1  0
M  END
