pyridine_urea_3643
     RDKit          3D

 17 18  0  0  0  0  0  0  0  0999 V2000
   13.3010   -1.0560   24.8730 O   0  0  0  0  0  0  0  0  0  0  0  0
   12.7570   -0.9250   23.7990 C   0  0  0  0  0  0  0  0  0  0  0  0
   12.3860    0.4130   23.1670 C   0  0  0  0  0  0  0  0  0  0  0  0
   10.8750    0.3990   22.9480 C   0  0  0  0  0  0  0  0  0  0  0  0
   10.4290   -0.8530   22.2530 C   0  0  2  0  0  0  0  0  0  0  0  0
    8.9720   -0.8250   22.3650 N   0  0  0  0  0  0  0  0  0  0  0  0
    8.3380    0.0250   21.4910 C   0  0  0  0  0  0  0  0  0  0  0  0
    8.8000    1.1460   21.2020 O   0  0  0  0  0  0  0  0  0  0  0  0
    7.1510   -0.5420   20.9970 N   0  0  0  0  0  0  0  0  0  0  0  0
    6.4110    0.0940   20.0370 C   0  0  0  0  0  0  0  0  0  0  0  0
    5.1000    0.8400   20.2830 C   0  0  0  0  0  0  0  0  0  0  0  0
    4.5430    1.4290   19.1450 C   0  0  0  0  0  0  0  0  0  0  0  0
    5.1720    1.3150   17.9120 C   0  0  0  0  0  0  0  0  0  0  0  0
    6.3170    0.6490   17.7070 N   0  0  0  0  0  0  0  0  0  0  0  0
    6.9020    0.0600   18.7560 C   0  0  0  0  0  0  0  0  0  0  0  0
   11.0500   -2.1280   22.7400 C   0  0  0  0  0  0  0  0  0  0  0  0
   12.3570   -1.9350   22.9720 N   0  0  0  0  0  0  0  0  0  0  0  0
  1  2  2  0
  2  3  1  0
  3  4  1  0
  4  5  1  0
  5  6  1  1
  6  7  1  0
  7  8  2  0
  7  9  1  0
  9 10  1  0
 10 11  2  0
 11 12  1  0
 12 13  2  0
 13 14  1  0
 10 15  1  0
 14 15  2  0
  5 16  1  0
  2 17  1  0
 16 17  1  0
M  END
