pyridine_urea_6094
     RDKit          3D

 25 27  0  0  0  0  0  0  0  0999 V2000
   12.4640   -2.0760   22.0150 C   0  0  0  0  0  0  0  0  0  0  0  0
   11.9140   -1.4270   23.1830 O   0  0  0  0  0  0  0  0  0  0  0  0
   12.0720   -0.0610   23.2090 C   0  0  0  0  0  0  0  0  0  0  0  0
   13.2580   -0.5300   22.7860 C   0  0  0  0  0  0  0  0  0  0  0  0
   12.7600    0.6180   23.0250 C   0  0  0  0  0  0  0  0  0  0  0  0
   11.3330    0.6980   23.5100 C   0  0  0  0  0  0  0  0  0  0  0  0
   10.1200   -0.1510   23.8620 C   0  0  0  0  0  0  0  0  0  0  0  0
   10.0300   -1.1680   22.7420 C   0  0  0  0  0  0  0  0  0  0  0  0
    8.8270   -1.3230   22.0570 N   0  0  0  0  0  0  0  0  0  0  0  0
    8.2140   -0.3040   21.3850 C   0  0  0  0  0  0  0  0  0  0  0  0
    8.7140    0.7990   21.2070 O   0  0  0  0  0  0  0  0  0  0  0  0
    6.9190   -0.7130   20.9160 N   0  0  0  0  0  0  0  0  0  0  0  0
    6.2900   -0.0160   19.9550 C   0  0  0  0  0  0  0  0  0  0  0  0
    5.1150    0.6970   20.1770 C   0  0  0  0  0  0  0  0  0  0  0  0
    4.5370    1.4100   19.1270 C   0  0  0  0  0  0  0  0  0  0  0  0
    5.1540    1.3860   17.8910 C   0  0  0  0  0  0  0  0  0  0  0  0
    6.2840    0.7060   17.6400 N   0  0  0  0  0  0  0  0  0  0  0  0
    6.8380    0.0020   18.7000 C   0  0  0  0  0  0  0  0  0  0  0  0
    8.9470    0.6580   23.8750 C   0  0  0  0  0  0  0  0  0  0  0  0
    8.6230    1.1630   25.1300 C   0  0  0  0  0  0  0  0  0  0  0  0
    8.1270    0.1410   25.9210 C   0  0  0  0  0  0  0  0  0  0  0  0
    8.8550   -1.0190   25.6890 C   0  0  0  0  0  0  0  0  0  0  0  0
   10.1320   -0.7480   25.1510 C   0  0  0  0  0  0  0  0  0  0  0  0
   11.5380    1.8630   23.5050 C   0  0  0  0  0  0  0  0  0  0  0  0
   12.7530    1.3830   23.0630 C   0  0  0  0  0  0  0  0  0  0  0  0
  1  2  1  0
  2  3  1  0
  3  4  2  0
  4  5  1  0
  5  6  2  0
  6  7  1  0
  7  8  1  0
  8  9  1  0
  9 10  1  0
 10 11  2  0
 10 12  1  0
 12 13  1  0
 13 14  2  0
 14 15  1  0
 15 16  2  0
 16 17  1  0
 13 18  1  0
 17 18  2  0
  7 19  1  0
 19 20  1  0
 20 21  1  0
 21 22  1  0
  7 23  1  0
 22 23  1  0
  6 24  1  0
  3 25  1  0
 24 25  2  0
M  END
