pyridine_urea_11432
     RDKit          3D

 20 22  0  0  0  0  0  0  0  0999 V2000
    8.5970    1.1910   21.0360 O   0  0  0  0  0  0  0  0  0  0  0  0
    8.1930    0.0630   21.3510 C   0  0  0  0  0  0  0  0  0  0  0  0
    6.9420   -0.4210   21.0900 N   0  0  0  0  0  0  0  0  0  0  0  0
    6.3420    0.1870   19.9560 C   0  0  0  0  0  0  0  0  0  0  0  0
    5.0510    0.9380   20.2180 C   0  0  0  0  0  0  0  0  0  0  0  0
    4.4770    1.5760   19.0120 C   0  0  0  0  0  0  0  0  0  0  0  0
    5.1460    1.4340   17.8090 C   0  0  0  0  0  0  0  0  0  0  0  0
    6.2860    0.7420   17.6410 N   0  0  0  0  0  0  0  0  0  0  0  0
    6.8520    0.1430   18.6930 C   0  0  0  0  0  0  0  0  0  0  0  0
    8.9240   -0.8630   21.9950 N   0  0  0  0  0  0  0  0  0  0  0  0
   10.2520   -0.4700   22.4250 C   0  0  2  0  0  0  0  0  0  0  0  0
   11.1060   -1.4700   22.0640 C   0  0  0  0  0  0  0  0  0  0  0  0
   12.2390   -0.8190   22.7360 C   0  0  0  0  0  0  0  0  0  0  0  0
   12.0210   -1.1030   24.0300 C   0  0  0  0  0  0  0  0  0  0  0  0
   11.2080   -0.2350   24.6440 C   0  0  0  0  0  0  0  0  0  0  0  0
   10.0590   -0.2950   23.9350 C   0  0  0  0  0  0  0  0  0  0  0  0
   13.3210   -1.2460   24.7460 C   0  0  0  0  0  0  0  0  0  0  0  0
   13.3240   -2.6610   24.9020 C   0  0  2  0  0  0  0  0  0  0  0  0
   14.0570   -3.1730   24.0840 O   0  0  0  0  0  0  0  0  0  0  0  0
   11.9620   -2.5230   24.3740 C   0  0  0  0  0  0  0  0  0  0  0  0
  1  2  2  0
  2  3  1  0
  3  4  1  0
  4  5  2  0
  5  6  1  0
  6  7  2  0
  7  8  1  0
  4  9  1  0
  8  9  2  0
  2 10  1  0
 11 10  1  6
 11 12  1  0
 12 13  1  0
 14 13  1  0
 14 15  1  0
 11 16  1  0
 15 16  1  0
 14 17  1  0
 17 18  1  0
 18 19  1  6
 14 20  1  0
 18 20  1  0
M  END
