pyridine_urea_13970
     RDKit          3D

 24 25  0  0  0  0  0  0  0  0999 V2000
    5.6580   -5.9600   21.6650 C   0  0  0  0  0  0  0  0  0  0  0  0
    6.9490   -6.1930   22.9090 S   0  0  0  0  0  0  0  0  0  0  0  0
    6.4420   -4.8390   24.0260 C   0  0  0  0  0  0  0  0  0  0  0  0
    5.1610   -4.7140   24.7430 N   0  0  0  0  0  0  0  0  0  0  0  0
    5.2160   -3.5530   25.4360 N   0  0  0  0  0  0  0  0  0  0  0  0
    6.4500   -2.9910   25.1680 C   0  0  0  0  0  0  0  0  0  0  0  0
    6.6620   -1.6760   25.8580 C   0  0  0  0  0  0  0  0  0  0  0  0
    7.6730   -0.8730   25.3220 C   0  0  0  0  0  0  0  0  0  0  0  0
    7.5050    0.1510   24.1550 C   0  0  0  0  0  0  0  0  0  0  0  0
    8.4450   -0.0030   23.1400 N   0  0  0  0  0  0  0  0  0  0  0  0
    8.2230    0.3100   21.7020 C   0  0  0  0  0  0  0  0  0  0  0  0
    8.9300    1.4370   21.1610 O   0  0  0  0  0  0  0  0  0  0  0  0
    7.3290   -0.4830   20.9160 N   0  0  0  0  0  0  0  0  0  0  0  0
    6.5760    0.1510   20.0180 C   0  0  0  0  0  0  0  0  0  0  0  0
    5.3360    0.9330   20.2930 C   0  0  0  0  0  0  0  0  0  0  0  0
    4.7270    1.5090   19.2010 C   0  0  0  0  0  0  0  0  0  0  0  0
    5.1920    1.4070   17.8950 C   0  0  0  0  0  0  0  0  0  0  0  0
    6.3070    0.6890   17.6790 N   0  0  0  0  0  0  0  0  0  0  0  0
    6.9550    0.0920   18.7050 C   0  0  0  0  0  0  0  0  0  0  0  0
    7.2210   -3.7500   24.3260 N   0  0  0  0  0  0  0  0  0  0  0  0
    8.4580   -3.5080   23.8690 C   0  0  0  0  0  0  0  0  0  0  0  0
    8.3480   -2.3860   22.9130 C   0  0  0  0  0  0  0  0  0  0  0  0
    7.1470   -2.4950   22.0160 C   0  0  0  0  0  0  0  0  0  0  0  0
    9.5760   -2.2320   22.0040 C   0  0  0  0  0  0  0  0  0  0  0  0
  1  2  1  0
  2  3  1  0
  3  4  2  0
  4  5  1  0
  5  6  2  0
  6  7  1  0
  7  8  1  0
  8  9  1  0
  9 10  1  0
 10 11  1  0
 11 12  2  0
 11 13  1  0
 13 14  1  0
 14 15  2  0
 15 16  1  0
 16 17  2  0
 17 18  1  0
 14 19  1  0
 18 19  2  0
  3 20  1  0
  6 20  1  0
 20 21  1  0
 21 22  1  0
 22 23  1  0
 22 24  1  0
M  END
