pyridine_urea_8297
     RDKit          3D

 22 24  0  0  0  0  0  0  0  0999 V2000
    9.0610    1.2430   21.1020 O   0  0  0  0  0  0  0  0  0  0  0  0
    8.4020    0.3160   21.5790 C   0  0  0  0  0  0  0  0  0  0  0  0
    8.5460   -0.1590   22.8850 N   0  0  0  0  0  0  0  0  0  0  0  0
    9.8440   -0.4660   23.4840 C   0  0  0  0  0  0  0  0  0  0  0  0
   10.7820    0.7570   23.8300 C   0  0  2  0  0  0  0  0  0  0  0  0
   11.2670    1.3210   22.6730 C   0  0  0  0  0  0  0  0  0  0  0  0
   12.7490    0.9010   22.3660 C   0  0  0  0  0  0  0  0  0  0  0  0
   13.0490   -0.5080   22.2640 C   0  0  0  0  0  0  0  0  0  0  0  0
   12.2120   -1.4880   23.1290 C   0  0  0  0  0  0  0  0  0  0  0  0
   12.7720   -1.9010   21.9990 C   0  0  0  0  0  0  0  0  0  0  0  0
   13.3400   -2.3220   20.8500 C   0  0  0  0  0  0  0  0  0  0  0  0
   13.8560   -0.8460   20.8450 C   0  0  0  0  0  0  0  0  0  0  0  0
   13.4010    0.1860   22.1390 C   0  0  0  0  0  0  0  0  0  0  0  0
   12.4430   -0.2590   23.4070 C   0  0  0  0  0  0  0  0  0  0  0  0
   11.9510    0.4280   24.4650 C   0  0  0  0  0  0  0  0  0  0  0  0
    7.4050   -0.3790   20.9330 N   0  0  0  0  0  0  0  0  0  0  0  0
    6.5750    0.1740   19.9480 C   0  0  0  0  0  0  0  0  0  0  0  0
    5.3050    0.7230   20.1830 C   0  0  0  0  0  0  0  0  0  0  0  0
    4.5900    1.2500   19.1090 C   0  0  0  0  0  0  0  0  0  0  0  0
    5.1640    1.2140   17.8290 C   0  0  0  0  0  0  0  0  0  0  0  0
    6.3840    0.6840   17.5830 N   0  0  0  0  0  0  0  0  0  0  0  0
    7.0520    0.1800   18.6420 C   0  0  0  0  0  0  0  0  0  0  0  0
  1  2  2  0
  2  3  1  0
  3  4  1  0
  5  4  1  6
  5  6  1  0
  6  7  1  0
  7  8  1  0
  8  9  1  0
  9 10  1  0
 10 11  2  0
 11 12  1  0
 12 13  2  0
  9 14  2  0
 13 14  1  0
  5 15  1  0
 14 15  1  0
  2 16  1  0
 16 17  1  0
 17 18  2  0
 18 19  1  0
 19 20  2  0
 20 21  1  0
 17 22  1  0
 21 22  2  0
M  END
