pyridine_urea_1237
     RDKit          3D

 21 22  0  0  0  0  0  0  0  0999 V2000
   12.5410    0.3120   24.3900 N   0  0  0  0  0  0  0  0  0  0  0  0
   11.4920    0.6580   24.0780 C   0  0  0  0  0  0  0  0  0  0  0  0
   11.8160    1.8760   23.4090 O   0  0  0  0  0  0  0  0  0  0  0  0
    9.9600    0.5640   23.9390 C   0  0  0  0  0  0  0  0  0  0  0  0
    9.7080   -0.8570   23.4610 C   0  0  1  0  0  0  0  0  0  0  0  0
    8.5550   -1.1910   22.8060 N   0  0  0  0  0  0  0  0  0  0  0  0
    8.3230   -0.3260   21.7510 C   0  0  0  0  0  0  0  0  0  0  0  0
    9.0540    0.6050   21.4390 O   0  0  0  0  0  0  0  0  0  0  0  0
    7.1490   -0.6830   21.1270 N   0  0  0  0  0  0  0  0  0  0  0  0
    6.5010   -0.0110   20.0780 C   0  0  0  0  0  0  0  0  0  0  0  0
    5.3660    0.7350   20.3490 C   0  0  0  0  0  0  0  0  0  0  0  0
    4.7310    1.4010   19.3120 C   0  0  0  0  0  0  0  0  0  0  0  0
    5.2240    1.3270   18.0050 C   0  0  0  0  0  0  0  0  0  0  0  0
    6.3030    0.6170   17.7200 N   0  0  0  0  0  0  0  0  0  0  0  0
    6.9130   -0.0380   18.7690 C   0  0  0  0  0  0  0  0  0  0  0  0
   10.8740   -1.2220   22.6250 C   0  0  0  0  0  0  0  0  0  0  0  0
   10.9560   -2.2220   21.7050 C   0  0  0  0  0  0  0  0  0  0  0  0
   12.2820   -2.3430   21.0030 C   0  0  0  0  0  0  0  0  0  0  0  0
   13.4010   -1.5210   21.2130 C   0  0  0  0  0  0  0  0  0  0  0  0
   13.2830   -0.4770   22.2070 C   0  0  0  0  0  0  0  0  0  0  0  0
   12.0610   -0.5960   22.6510 C   0  0  0  0  0  0  0  0  0  0  0  0
  1  2  1  0
  2  3  2  0
  2  4  1  0
  5  4  1  6
  5  6  1  0
  6  7  1  0
  7  8  2  0
  7  9  1  0
  9 10  1  0
 10 11  2  0
 11 12  1  0
 12 13  2  0
 13 14  1  0
 10 15  1  0
 14 15  2  0
  5 16  1  0
 16 17  2  0
 17 18  1  0
 18 19  2  0
 19 20  1  0
 16 21  1  0
 20 21  2  0
M  END
