pyridine_urea_10352
     RDKit          3D

 23 25  0  0  0  0  0  0  0  0999 V2000
    8.6120    1.1540   21.0350 O   0  0  0  0  0  0  0  0  0  0  0  0
    8.0600    0.1450   21.4970 C   0  0  0  0  0  0  0  0  0  0  0  0
    7.0490   -0.5480   20.9140 N   0  0  0  0  0  0  0  0  0  0  0  0
    6.2960    0.1110   19.9730 C   0  0  0  0  0  0  0  0  0  0  0  0
    4.9580    0.7940   20.2550 C   0  0  0  0  0  0  0  0  0  0  0  0
    4.3640    1.4850   19.0380 C   0  0  0  0  0  0  0  0  0  0  0  0
    5.1400    1.4080   17.7630 C   0  0  0  0  0  0  0  0  0  0  0  0
    6.3060    0.7640   17.6360 N   0  0  0  0  0  0  0  0  0  0  0  0
    6.8340    0.1540   18.7040 C   0  0  0  0  0  0  0  0  0  0  0  0
    8.4070   -0.3890   22.6980 N   0  0  0  0  0  0  0  0  0  0  0  0
    9.7360   -0.1290   23.0900 C   0  0  2  0  0  0  0  0  0  0  0  0
   10.0750    1.1820   22.7500 C   0  0  0  0  0  0  0  0  0  0  0  0
   11.4020    1.5120   23.0230 C   0  0  0  0  0  0  0  0  0  0  0  0
   11.7950    0.5750   23.6150 O   0  0  0  0  0  0  0  0  0  0  0  0
   11.9030   -0.5450   22.7650 C   0  0  1  0  0  0  0  0  0  0  0  0
   12.4160   -1.3960   23.5960 C   0  0  0  0  0  0  0  0  0  0  0  0
   13.5810   -1.2010   24.1400 C   0  0  0  0  0  0  0  0  0  0  0  0
   13.9630   -2.3130   25.0510 C   0  0  0  0  0  0  0  0  0  0  0  0
   13.1880   -3.2970   25.2170 C   0  0  0  0  0  0  0  0  0  0  0  0
   13.7260   -4.2240   26.0620 F   0  0  0  0  0  0  0  0  0  0  0  0
   11.9530   -3.3800   24.5870 C   0  0  0  0  0  0  0  0  0  0  0  0
   11.3730   -2.5040   23.7130 C   0  0  0  0  0  0  0  0  0  0  0  0
   10.5880   -1.0130   22.2230 C   0  0  0  0  0  0  0  0  0  0  0  0
  1  2  2  0
  2  3  1  0
  3  4  1  0
  4  5  2  0
  5  6  1  0
  6  7  2  0
  7  8  1  0
  4  9  1  0
  8  9  2  0
  2 10  1  0
 11 10  1  6
 11 12  1  0
 12 13  1  0
 13 14  1  0
 14 15  1  0
 15 16  1  1
 16 17  2  0
 17 18  1  0
 18 19  2  0
 19 20  1  0
 19 21  1  0
 16 22  1  0
 21 22  2  0
 11 23  1  0
 15 23  1  0
M  END
