pyridine_urea_11649
     RDKit          3D

 19 20  0  0  0  0  0  0  0  0999 V2000
   12.8060    0.9330   23.0280 C   0  0  0  0  0  0  0  0  0  0  0  0
   12.1560   -0.4030   22.9610 C   0  0  1  0  0  0  0  0  0  0  0  0
   10.9330   -0.5480   22.3610 C   0  0  0  0  0  0  0  0  0  0  0  0
    9.8570   -0.9530   23.1070 C   0  0  0  0  0  0  0  0  0  0  0  0
    8.5720   -0.5130   22.7640 N   0  0  0  0  0  0  0  0  0  0  0  0
    8.2140    0.1240   21.5820 C   0  0  0  0  0  0  0  0  0  0  0  0
    8.7800    1.1490   21.1700 O   0  0  0  0  0  0  0  0  0  0  0  0
    7.1930   -0.5550   21.0220 N   0  0  0  0  0  0  0  0  0  0  0  0
    6.5320    0.0670   20.0270 C   0  0  0  0  0  0  0  0  0  0  0  0
    5.3640    0.7650   20.3260 C   0  0  0  0  0  0  0  0  0  0  0  0
    4.6340    1.4760   19.1750 C   0  0  0  0  0  0  0  0  0  0  0  0
    5.1950    1.3670   17.9250 C   0  0  0  0  0  0  0  0  0  0  0  0
    6.3200    0.6740   17.6920 N   0  0  0  0  0  0  0  0  0  0  0  0
    6.9460    0.0550   18.7160 C   0  0  0  0  0  0  0  0  0  0  0  0
   13.1310   -1.3590   22.3030 C   0  0  0  0  0  0  0  0  0  0  0  0
   13.8790   -1.8510   23.2860 O   0  0  0  0  0  0  0  0  0  0  0  0
   13.0640   -2.6930   23.9330 C   0  0  0  0  0  0  0  0  0  0  0  0
   11.9990   -2.0380   24.4910 C   0  0  0  0  0  0  0  0  0  0  0  0
   11.9880   -0.6590   24.1510 O   0  0  0  0  0  0  0  0  0  0  0  0
  2  1  1  1
  2  3  1  0
  3  4  1  0
  4  5  1  0
  5  6  1  0
  6  7  2  0
  6  8  1  0
  8  9  1  0
  9 10  2  0
 10 11  1  0
 11 12  2  0
 12 13  1  0
  9 14  1  0
 13 14  2  0
  2 15  1  0
 15 16  1  0
 16 17  1  0
 17 18  1  0
  2 19  1  0
 18 19  1  0
M  END
