pyridine_urea_4928
     RDKit          3D

 21 23  0  0  0  0  0  0  0  0999 V2000
    8.0730    1.9900   20.8760 O   0  0  0  0  0  0  0  0  0  0  0  0
    8.0310    0.8670   21.3260 C   0  0  0  0  0  0  0  0  0  0  0  0
    7.0100   -0.0070   21.1230 N   0  0  0  0  0  0  0  0  0  0  0  0
    6.4370    0.3770   19.9100 C   0  0  0  0  0  0  0  0  0  0  0  0
    5.2170    1.2740   20.0840 C   0  0  0  0  0  0  0  0  0  0  0  0
    4.5770    1.7650   18.9750 C   0  0  0  0  0  0  0  0  0  0  0  0
    5.0950    1.4080   17.7440 C   0  0  0  0  0  0  0  0  0  0  0  0
    6.1820    0.5860   17.6330 N   0  0  0  0  0  0  0  0  0  0  0  0
    6.8790    0.0490   18.7030 C   0  0  0  0  0  0  0  0  0  0  0  0
    8.9740    0.3330   22.0140 N   0  0  0  0  0  0  0  0  0  0  0  0
    9.9280   -0.2610   22.5840 C   0  0  0  0  0  0  0  0  0  0  0  0
   10.6310   -1.0360   21.7140 C   0  0  0  0  0  0  0  0  0  0  0  0
   11.6970   -1.8050   22.0510 C   0  0  0  0  0  0  0  0  0  0  0  0
   11.9880   -1.7480   23.3430 C   0  0  0  0  0  0  0  0  0  0  0  0
   11.2870   -0.9590   24.1730 C   0  0  0  0  0  0  0  0  0  0  0  0
   10.1860   -0.1350   23.8680 C   0  0  0  0  0  0  0  0  0  0  0  0
   11.6520   -0.9700   25.3740 C   0  0  0  0  0  0  0  0  0  0  0  0
   13.0300   -1.1280   25.2800 C   0  0  0  0  0  0  0  0  0  0  0  0
   13.1380   -2.5440   24.2710 S   0  0  0  0  0  0  0  0  0  0  0  0
   14.2390   -2.7200   23.4210 O   0  0  0  0  0  0  0  0  0  0  0  0
   12.4140   -3.5570   24.9580 O   0  0  0  0  0  0  0  0  0  0  0  0
  1  2  2  0
  2  3  1  0
  3  4  1  0
  4  5  2  0
  5  6  1  0
  6  7  2  0
  7  8  1  0
  4  9  1  0
  8  9  2  0
  2 10  1  0
 10 11  1  0
 11 12  2  0
 12 13  1  0
 13 14  2  0
 14 15  1  0
 11 16  1  0
 15 16  2  0
 15 17  1  0
 17 18  1  0
 14 19  1  0
 19 18  1  0
 19 20  2  0
 19 21  2  0
M  END
