pyridine_urea_3705
     RDKit          3D

 18 20  0  0  0  0  0  0  0  0999 V2000
    8.8770    1.1240   21.2270 O   0  0  0  0  0  0  0  0  0  0  0  0
    8.4240    0.0450   21.6550 C   0  0  0  0  0  0  0  0  0  0  0  0
    7.3660   -0.6430   21.0830 N   0  0  0  0  0  0  0  0  0  0  0  0
    6.6150    0.0220   20.0500 C   0  0  0  0  0  0  0  0  0  0  0  0
    5.3600    0.7900   20.4590 C   0  0  0  0  0  0  0  0  0  0  0  0
    4.5800    1.5050   19.3530 C   0  0  0  0  0  0  0  0  0  0  0  0
    5.1600    1.3660   17.9470 C   0  0  0  0  0  0  0  0  0  0  0  0
    6.3210    0.6160   17.7420 N   0  0  0  0  0  0  0  0  0  0  0  0
    7.0040   -0.0210   18.7360 C   0  0  0  0  0  0  0  0  0  0  0  0
    8.9080   -0.6230   22.7790 N   0  0  0  0  0  0  0  0  0  0  0  0
   10.2930   -0.6370   23.0770 C   0  0  2  0  0  0  0  0  0  0  0  0
   11.0930    0.3400   22.8060 C   0  0  1  0  0  0  0  0  0  0  0  0
   12.3880    0.5240   23.2510 C   0  0  0  0  0  0  0  0  0  0  0  0
   13.1750   -0.4300   22.7170 C   0  0  0  0  0  0  0  0  0  0  0  0
   12.3830   -1.4870   22.3090 C   0  0  0  0  0  0  0  0  0  0  0  0
   12.4920   -2.5640   23.1120 F   0  0  0  0  0  0  0  0  0  0  0  0
   13.0020   -1.9610   21.1930 F   0  0  0  0  0  0  0  0  0  0  0  0
   11.0680   -1.0550   22.1240 C   0  0  1  0  0  0  0  0  0  0  0  0
  1  2  2  0
  2  3  1  0
  3  4  1  0
  4  5  2  0
  5  6  1  0
  6  7  2  0
  7  8  1  0
  4  9  1  0
  8  9  2  0
  2 10  1  0
 11 10  1  6
 11 12  1  0
 12 13  1  1
 13 14  1  0
 14 15  1  0
 15 16  1  0
 15 17  1  0
 11 18  1  0
 12 18  1  0
 18 15  1  1
M  END
