pyridine_urea_989
     RDKit          3D

 22 22  0  0  0  0  0  0  0  0999 V2000
   13.1670   -1.5200   21.8770 C   0  0  0  0  0  0  0  0  0  0  0  0
   12.4240   -0.5880   22.7830 C   0  0  0  0  0  0  0  0  0  0  0  0
   12.8230    0.7300   22.9770 C   0  0  0  0  0  0  0  0  0  0  0  0
   10.9990   -0.5690   22.2430 C   0  0  0  0  0  0  0  0  0  0  0  0
   10.0350   -1.0000   23.1230 C   0  0  2  0  0  0  0  0  0  0  0  0
    8.6740   -1.0040   22.6960 N   0  0  0  0  0  0  0  0  0  0  0  0
    8.3030   -0.1870   21.6470 C   0  0  0  0  0  0  0  0  0  0  0  0
    8.8930    0.8380   21.3300 O   0  0  0  0  0  0  0  0  0  0  0  0
    7.1830   -0.6840   21.0220 N   0  0  0  0  0  0  0  0  0  0  0  0
    6.4480    0.0060   20.0490 C   0  0  0  0  0  0  0  0  0  0  0  0
    5.1580    0.7760   20.2800 C   0  0  0  0  0  0  0  0  0  0  0  0
    4.5830    1.4110   19.1940 C   0  0  0  0  0  0  0  0  0  0  0  0
    5.2030    1.3200   17.9480 C   0  0  0  0  0  0  0  0  0  0  0  0
    6.3420    0.6350   17.7280 N   0  0  0  0  0  0  0  0  0  0  0  0
    6.9260    0.0030   18.7590 C   0  0  0  0  0  0  0  0  0  0  0  0
   10.1370   -0.1800   24.3950 C   0  0  0  0  0  0  0  0  0  0  0  0
   10.1220    0.1150   25.5620 O   0  0  0  0  0  0  0  0  0  0  0  0
    9.8300   -1.3130   24.7360 O   0  0  0  0  0  0  0  0  0  0  0  0
    8.7760   -1.4030   25.6980 C   0  0  0  0  0  0  0  0  0  0  0  0
    7.9420   -0.2840   25.8000 C   0  0  0  0  0  0  0  0  0  0  0  0
    8.8960   -0.6730   26.8990 C   0  0  0  0  0  0  0  0  0  0  0  0
    8.0950   -2.7850   25.9020 C   0  0  0  0  0  0  0  0  0  0  0  0
  1  2  1  0
  2  3  1  0
  2  4  1  0
  5  4  1  6
  5  6  1  0
  6  7  1  0
  7  8  2  0
  7  9  1  0
  9 10  1  0
 10 11  2  0
 11 12  1  0
 12 13  2  0
 13 14  1  0
 10 15  1  0
 14 15  2  0
  5 16  1  0
 16 17  2  0
 16 18  1  0
 19 18  1  0
 19 20  1  0
 19 21  1  0
 19 22  1  0
M  END
