pyridine_urea_8843
     RDKit          3D

 20 22  0  0  0  0  0  0  0  0999 V2000
    8.3010    1.2890   20.8270 O   0  0  0  0  0  0  0  0  0  0  0  0
    8.1100    0.1980   21.3760 C   0  0  0  0  0  0  0  0  0  0  0  0
    7.0410   -0.5690   21.0490 N   0  0  0  0  0  0  0  0  0  0  0  0
    6.4440    0.0330   19.9090 C   0  0  0  0  0  0  0  0  0  0  0  0
    5.1530    0.8250   20.1610 C   0  0  0  0  0  0  0  0  0  0  0  0
    4.5280    1.4760   19.1050 C   0  0  0  0  0  0  0  0  0  0  0  0
    5.1180    1.3770   17.8510 C   0  0  0  0  0  0  0  0  0  0  0  0
    6.2650    0.6510   17.6760 N   0  0  0  0  0  0  0  0  0  0  0  0
    6.9420   -0.0310   18.6830 C   0  0  0  0  0  0  0  0  0  0  0  0
    8.9190   -0.3090   22.3090 N   0  0  0  0  0  0  0  0  0  0  0  0
    9.8530   -0.5760   23.1880 C   0  0  2  0  0  0  0  0  0  0  0  0
   10.1620    0.6150   23.7750 C   0  0  0  0  0  0  0  0  0  0  0  0
   11.3640    0.7050   24.3670 C   0  0  0  0  0  0  0  0  0  0  0  0
   12.5010    0.3510   23.6850 C   0  0  0  0  0  0  0  0  0  0  0  0
   12.2860   -0.6570   22.7850 C   0  0  0  0  0  0  0  0  0  0  0  0
   13.3290   -1.3020   22.0400 C   0  0  0  0  0  0  0  0  0  0  0  0
   13.1590   -2.2760   21.1370 C   0  0  0  0  0  0  0  0  0  0  0  0
   11.8240   -2.5930   21.0200 C   0  0  0  0  0  0  0  0  0  0  0  0
   10.7790   -2.0730   21.6710 N   0  0  0  0  0  0  0  0  0  0  0  0
   11.0310   -1.1010   22.5490 C   0  0  0  0  0  0  0  0  0  0  0  0
  1  2  2  0
  2  3  1  0
  3  4  1  0
  4  5  2  0
  5  6  1  0
  6  7  2  0
  7  8  1  0
  4  9  1  0
  8  9  2  0
  2 10  1  0
 11 10  1  6
 11 12  1  0
 12 13  1  0
 13 14  1  0
 14 15  1  0
 15 16  2  0
 16 17  1  0
 17 18  2  0
 18 19  1  0
 11 20  1  0
 15 20  1  0
 19 20  2  0
M  END
