pyridine_urea_9853
     RDKit          3D

 25 27  0  0  0  0  0  0  0  0999 V2000
   11.3510   -2.4930   22.2300 C   0  0  0  0  0  0  0  0  0  0  0  0
   11.4920   -1.0250   22.4970 C   0  0  0  0  0  0  0  0  0  0  0  0
   12.8750   -0.4830   22.6770 C   0  0  0  0  0  0  0  0  0  0  0  0
   12.9630    0.9840   22.9260 C   0  0  0  0  0  0  0  0  0  0  0  0
   11.6870    1.8140   22.9910 C   0  0  0  0  0  0  0  0  0  0  0  0
   11.7150    3.3260   23.2410 C   0  0  0  0  0  0  0  0  0  0  0  0
   12.9580    4.0070   22.7630 C   0  0  0  0  0  0  0  0  0  0  0  0
   12.8770    5.3210   23.0400 C   0  0  0  0  0  0  0  0  0  0  0  0
   11.8210    5.9460   23.6640 C   0  0  0  0  0  0  0  0  0  0  0  0
   11.9080    7.3050   23.8750 C   0  0  0  0  0  0  0  0  0  0  0  0
   11.7750    7.5960   25.2890 N   0  0  0  0  0  0  0  0  0  0  0  0
   10.4520    5.4570   24.2320 C   0  0  0  0  0  0  0  0  0  0  0  0
   10.5670    4.0520   23.9230 C   0  0  0  0  0  0  0  0  0  0  0  0
   10.4680    1.1510   22.8080 C   0  0  0  0  0  0  0  0  0  0  0  0
   10.3750   -0.2150   22.5610 C   0  0  0  0  0  0  0  0  0  0  0  0
    9.0920   -0.6450   22.3750 N   0  0  0  0  0  0  0  0  0  0  0  0
    8.2820    0.0590   21.4600 C   0  0  0  0  0  0  0  0  0  0  0  0
    8.5790    1.1730   21.0120 O   0  0  0  0  0  0  0  0  0  0  0  0
    7.1530   -0.6000   21.1190 N   0  0  0  0  0  0  0  0  0  0  0  0
    6.4270    0.0340   20.1620 C   0  0  0  0  0  0  0  0  0  0  0  0
    5.2640    0.7370   20.3770 C   0  0  0  0  0  0  0  0  0  0  0  0
    4.6370    1.3540   19.2820 C   0  0  0  0  0  0  0  0  0  0  0  0
    5.1930    1.2450   18.0090 C   0  0  0  0  0  0  0  0  0  0  0  0
    6.3220    0.5640   17.7380 N   0  0  0  0  0  0  0  0  0  0  0  0
    6.9420   -0.0370   18.7670 C   0  0  0  0  0  0  0  0  0  0  0  0
  1  2  1  0
  2  3  2  0
  3  4  1  0
  4  5  2  0
  5  6  1  0
  6  7  2  0
  7  8  1  0
  8  9  2  0
  9 10  1  0
 10 11  3  0
  9 12  1  0
  6 13  1  0
 12 13  2  0
  5 14  1  0
  2 15  1  0
 14 15  2  0
 15 16  1  0
 16 17  1  0
 17 18  2  0
 17 19  1  0
 19 20  1  0
 20 21  2  0
 21 22  1  0
 22 23  2  0
 23 24  1  0
 20 25  1  0
 24 25  2  0
M  END
