pyridine_urea_11829
     RDKit          3D

 25 27  0  0  0  0  0  0  0  0999 V2000
    8.9210    1.1140   21.2280 O   0  0  0  0  0  0  0  0  0  0  0  0
    8.2260    0.1580   21.6160 C   0  0  0  0  0  0  0  0  0  0  0  0
    8.3910   -0.5730   22.7410 N   0  0  0  0  0  0  0  0  0  0  0  0
    9.5760   -0.7320   23.4260 C   0  0  0  0  0  0  0  0  0  0  0  0
   10.2710    0.4230   23.7330 C   0  0  0  0  0  0  0  0  0  0  0  0
   11.2980    1.3910   23.8100 C   0  0  0  0  0  0  0  0  0  0  0  0
   12.5670    1.4080   23.3090 C   0  0  0  0  0  0  0  0  0  0  0  0
   13.1720    0.4660   22.5880 C   0  0  0  0  0  0  0  0  0  0  0  0
   12.4180   -0.5850   22.3330 C   0  0  0  0  0  0  0  0  0  0  0  0
   13.0190   -1.7310   21.4950 C   0  0  0  0  0  0  0  0  0  0  0  0
   13.4980   -2.4920   22.5590 O   0  0  0  0  0  0  0  0  0  0  0  0
   12.6370   -1.8240   23.3680 C   0  0  0  0  0  0  0  0  0  0  0  0
   12.8680   -1.6900   24.7040 C   0  0  0  0  0  0  0  0  0  0  0  0
   13.2730   -2.9180   25.0960 C   0  0  0  0  0  0  0  0  0  0  0  0
   12.0390   -3.6470   24.9960 O   0  0  0  0  0  0  0  0  0  0  0  0
   11.0130   -2.8580   24.3450 C   0  0  0  0  0  0  0  0  0  0  0  0
   11.4570   -2.4830   23.1120 C   0  0  0  0  0  0  0  0  0  0  0  0
   11.1200   -0.5850   22.8560 C   0  0  0  0  0  0  0  0  0  0  0  0
    7.1300   -0.3410   20.9870 N   0  0  0  0  0  0  0  0  0  0  0  0
    6.4410    0.2460   19.8980 C   0  0  0  0  0  0  0  0  0  0  0  0
    5.2940    0.9570   20.2190 C   0  0  0  0  0  0  0  0  0  0  0  0
    4.6160    1.5630   19.1680 C   0  0  0  0  0  0  0  0  0  0  0  0
    5.1340    1.4110   17.8840 C   0  0  0  0  0  0  0  0  0  0  0  0
    6.2390    0.7070   17.5870 N   0  0  0  0  0  0  0  0  0  0  0  0
    6.8720    0.1380   18.6150 C   0  0  0  0  0  0  0  0  0  0  0  0
  1  2  2  0
  2  3  1  0
  3  4  1  0
  4  5  1  0
  5  6  2  0
  6  7  1  0
  7  8  2  0
  8  9  1  0
  9 10  1  0
 10 11  1  0
 11 12  1  0
 12 13  1  0
 13 14  1  0
 14 15  1  0
 15 16  1  0
 12 17  1  0
 16 17  1  0
  5 18  1  0
  9 18  2  0
  2 19  1  0
 19 20  1  0
 20 21  2  0
 21 22  1  0
 22 23  2  0
 23 24  1  0
 20 25  1  0
 24 25  2  0
M  END
