pyridine_urea_10530
     RDKit          3D

 21 23  0  0  0  0  0  0  0  0999 V2000
    9.5890   -0.7420   23.5750 C   0  0  0  0  0  0  0  0  0  0  0  0
   10.0060   -1.6400   22.3780 C   0  0  1  0  0  0  0  0  0  0  0  0
    8.9490   -1.5560   21.4110 N   0  0  0  0  0  0  0  0  0  0  0  0
    8.2730   -0.3760   21.3560 C   0  0  0  0  0  0  0  0  0  0  0  0
    8.8080    0.7130   21.5140 O   0  0  0  0  0  0  0  0  0  0  0  0
    6.9570   -0.5920   21.0760 N   0  0  0  0  0  0  0  0  0  0  0  0
    6.3770    0.0600   20.0000 C   0  0  0  0  0  0  0  0  0  0  0  0
    5.1220    0.8460   20.1830 C   0  0  0  0  0  0  0  0  0  0  0  0
    4.5450    1.5170   19.1210 C   0  0  0  0  0  0  0  0  0  0  0  0
    5.1160    1.4840   17.8440 C   0  0  0  0  0  0  0  0  0  0  0  0
    6.3250    0.7040   17.7000 N   0  0  0  0  0  0  0  0  0  0  0  0
    6.8900    0.0420   18.7410 C   0  0  0  0  0  0  0  0  0  0  0  0
   11.2890   -1.1340   21.6810 C   0  0  2  0  0  0  0  0  0  0  0  0
   12.2750   -1.9090   21.1760 C   0  0  0  0  0  0  0  0  0  0  0  0
   13.4440   -1.3100   21.9670 O   0  0  0  0  0  0  0  0  0  0  0  0
   13.5570   -1.5120   23.4180 C   0  0  0  0  0  0  0  0  0  0  0  0
   13.3960   -1.7190   24.8880 C   0  0  0  0  0  0  0  0  0  0  0  0
   11.9570   -1.7300   24.9770 C   0  0  0  0  0  0  0  0  0  0  0  0
   11.0580   -1.6000   24.2320 C   0  0  0  0  0  0  0  0  0  0  0  0
   11.3190   -1.3970   23.0800 C   0  0  0  0  0  0  0  0  0  0  0  0
   12.4530   -1.3010   22.4070 C   0  0  0  0  0  0  0  0  0  0  0  0
  2  1  1  1
  2  3  1  0
  3  4  1  0
  4  5  2  0
  4  6  1  0
  6  7  1  0
  7  8  2  0
  8  9  1  0
  9 10  2  0
 10 11  1  0
  7 12  1  0
 11 12  2  0
  2 13  1  0
 13 14  1  6
 14 15  1  0
 15 16  1  0
 16 17  1  0
 17 18  2  0
 18 19  1  0
 19 20  2  0
 13 21  1  0
 16 21  2  0
 20 21  1  0
M  END
