pyridine_urea_10514
     RDKit          3D

 22 24  0  0  0  0  0  0  0  0999 V2000
    8.8360    0.7390   21.3660 O   0  0  0  0  0  0  0  0  0  0  0  0
    8.4110   -0.4030   21.4550 C   0  0  0  0  0  0  0  0  0  0  0  0
    9.0780   -1.5100   21.9320 N   0  0  0  0  0  0  0  0  0  0  0  0
   10.0150   -1.5690   22.9840 C   0  0  0  0  0  0  0  0  0  0  0  0
   11.4590   -1.1160   22.7810 C   0  0  0  0  0  0  0  0  0  0  0  0
   11.4910    0.4030   22.8290 C   0  0  0  0  0  0  0  0  0  0  0  0
   10.3960    1.2690   22.8330 N   0  0  0  0  0  0  0  0  0  0  0  0
   10.7920    2.6170   22.8580 C   0  0  0  0  0  0  0  0  0  0  0  0
   10.0770    3.8080   22.8710 C   0  0  0  0  0  0  0  0  0  0  0  0
   10.7540    5.0700   22.8940 C   0  0  0  0  0  0  0  0  0  0  0  0
    9.9290    6.5510   22.9180 Cl  0  0  0  0  0  0  0  0  0  0  0  0
   12.1830    5.0610   22.8960 C   0  0  0  0  0  0  0  0  0  0  0  0
   12.9560    3.9090   22.8850 C   0  0  0  0  0  0  0  0  0  0  0  0
   12.2710    2.7380   22.8730 C   0  0  0  0  0  0  0  0  0  0  0  0
   13.0570    1.0760   22.8740 S   0  0  0  0  0  0  0  0  0  0  0  0
    7.1380   -0.7300   21.0430 N   0  0  0  0  0  0  0  0  0  0  0  0
    6.4200   -0.0330   20.1240 C   0  0  0  0  0  0  0  0  0  0  0  0
    5.2160    0.6830   20.4360 C   0  0  0  0  0  0  0  0  0  0  0  0
    4.6360    1.3840   19.1930 C   0  0  0  0  0  0  0  0  0  0  0  0
    5.2430    1.2960   17.9690 C   0  0  0  0  0  0  0  0  0  0  0  0
    6.3520    0.6230   17.7060 N   0  0  0  0  0  0  0  0  0  0  0  0
    6.9290   -0.0490   18.8310 C   0  0  0  0  0  0  0  0  0  0  0  0
  1  2  2  0
  2  3  1  0
  3  4  1  0
  4  5  1  0
  5  6  1  0
  6  7  2  0
  7  8  1  0
  8  9  2  0
  9 10  1  0
 10 11  1  0
 10 12  2  0
 12 13  1  0
  8 14  1  0
 13 14  2  0
  6 15  1  0
 14 15  1  0
  2 16  1  0
 16 17  1  0
 17 18  2  0
 18 19  1  0
 19 20  2  0
 20 21  1  0
 17 22  1  0
 21 22  2  0
M  END
