pyridine_urea_11402
     RDKit          3D

 18 20  0  0  0  0  0  0  0  0999 V2000
    8.9890    1.0750   21.2910 O   0  0  0  0  0  0  0  0  0  0  0  0
    8.3330    0.1020   21.6980 C   0  0  0  0  0  0  0  0  0  0  0  0
    8.6480   -0.6190   22.8340 N   0  0  0  0  0  0  0  0  0  0  0  0
    9.9950   -1.0720   23.0810 C   0  0  0  0  0  0  0  0  0  0  0  0
   10.7510   -0.1670   24.0510 C   0  0  1  0  0  0  0  0  0  0  0  0
   11.8370   -0.9120   24.8020 C   0  0  0  0  0  0  0  0  0  0  0  0
   12.8640   -1.1990   23.9690 C   0  0  1  0  0  0  0  0  0  0  0  0
   12.6620   -2.0410   22.7780 C   0  0  0  0  0  0  0  0  0  0  0  0
   12.6660   -0.7500   22.1850 C   0  0  0  0  0  0  0  0  0  0  0  0
   13.0320    0.0020   23.2820 C   0  0  1  0  0  0  0  0  0  0  0  0
   11.7840    0.7920   23.3770 C   0  0  0  0  0  0  0  0  0  0  0  0
    7.1940   -0.4200   21.1480 N   0  0  0  0  0  0  0  0  0  0  0  0
    6.4760    0.1770   20.0280 C   0  0  0  0  0  0  0  0  0  0  0  0
    5.3220    0.8780   20.3750 C   0  0  0  0  0  0  0  0  0  0  0  0
    4.6200    1.4800   19.3500 C   0  0  0  0  0  0  0  0  0  0  0  0
    5.1380    1.3420   17.9430 C   0  0  0  0  0  0  0  0  0  0  0  0
    6.2460    0.6510   17.6330 N   0  0  0  0  0  0  0  0  0  0  0  0
    6.9090    0.0760   18.6470 C   0  0  0  0  0  0  0  0  0  0  0  0
  1  2  2  0
  2  3  1  0
  3  4  1  0
  5  4  1  6
  5  6  1  0
  7  6  1  1
  7  8  1  0
  8  9  1  0
  7 10  1  0
 10  9  1  6
  5 11  1  0
 10 11  1  0
  2 12  1  0
 12 13  1  0
 13 14  2  0
 14 15  1  0
 15 16  2  0
 16 17  1  0
 13 18  1  0
 17 18  2  0
M  END
