pyridine_urea_12028
     RDKit          3D

 24 26  0  0  0  0  0  0  0  0999 V2000
    8.6220    0.8300   21.4500 O   0  0  0  0  0  0  0  0  0  0  0  0
    8.2690   -0.3370   21.5190 C   0  0  0  0  0  0  0  0  0  0  0  0
    7.0830   -0.8050   21.0250 N   0  0  0  0  0  0  0  0  0  0  0  0
    6.4280   -0.1090   20.0030 C   0  0  0  0  0  0  0  0  0  0  0  0
    5.2280    0.5670   20.2690 C   0  0  0  0  0  0  0  0  0  0  0  0
    4.5890    1.2750   19.2480 C   0  0  0  0  0  0  0  0  0  0  0  0
    5.1700    1.2840   17.9960 C   0  0  0  0  0  0  0  0  0  0  0  0
    6.3140    0.6360   17.7230 N   0  0  0  0  0  0  0  0  0  0  0  0
    6.9100   -0.0390   18.7190 C   0  0  0  0  0  0  0  0  0  0  0  0
    9.0810   -1.2810   22.1000 N   0  0  0  0  0  0  0  0  0  0  0  0
   10.4280   -0.7330   22.2800 C   0  0  2  0  0  0  0  0  0  0  0  0
   11.5860   -1.6810   22.1160 C   0  0  0  0  0  0  0  0  0  0  0  0
   12.6200   -1.1420   22.8980 C   0  0  0  0  0  0  0  0  0  0  0  0
   12.1290   -0.0580   23.5710 N   0  0  0  0  0  0  0  0  0  0  0  0
   12.6060    1.1070   23.0830 C   0  0  0  0  0  0  0  0  0  0  0  0
   13.7620    1.1850   22.7700 O   0  0  0  0  0  0  0  0  0  0  0  0
   11.6320    2.0920   22.9940 N   0  0  0  0  0  0  0  0  0  0  0  0
   11.8940    3.4520   22.9690 C   0  0  0  0  0  0  0  0  0  0  0  0
   13.0710    4.0990   22.6490 C   0  0  0  0  0  0  0  0  0  0  0  0
   13.2380    5.4760   22.6540 C   0  0  0  0  0  0  0  0  0  0  0  0
   12.1540    6.2700   23.0070 C   0  0  0  0  0  0  0  0  0  0  0  0
   10.9400    5.6570   23.3380 C   0  0  0  0  0  0  0  0  0  0  0  0
   10.8040    4.2600   23.3220 C   0  0  0  0  0  0  0  0  0  0  0  0
   10.7130   -0.1200   23.4530 C   0  0  0  0  0  0  0  0  0  0  0  0
  1  2  2  0
  2  3  1  0
  3  4  1  0
  4  5  2  0
  5  6  1  0
  6  7  2  0
  7  8  1  0
  4  9  1  0
  8  9  2  0
  2 10  1  0
 11 10  1  1
 11 12  1  0
 12 13  1  0
 13 14  1  0
 14 15  1  0
 15 16  2  0
 15 17  1  0
 17 18  1  0
 18 19  2  0
 19 20  1  0
 20 21  2  0
 21 22  1  0
 18 23  1  0
 22 23  2  0
 11 24  1  0
 14 24  1  0
M  END
