pyridine_urea_2144
     RDKit          3D

 27 30  0  0  0  0  0  0  0  0999 V2000
    9.3360   -2.7480   24.3090 C   0  0  0  0  0  0  0  0  0  0  0  0
    9.9820   -1.6390   23.8340 N   0  0  0  0  0  0  0  0  0  0  0  0
    9.5900   -0.7900   22.8300 C   0  0  0  0  0  0  0  0  0  0  0  0
   10.4970    0.4120   22.5320 C   0  0  0  0  0  0  0  0  0  0  0  0
    9.7130    1.5840   22.1060 C   0  0  0  0  0  0  0  0  0  0  0  0
    8.3830    1.3500   21.9810 N   0  0  0  0  0  0  0  0  0  0  0  0
    8.0260    0.1100   21.4060 C   0  0  0  0  0  0  0  0  0  0  0  0
    8.8620   -0.6660   21.0340 O   0  0  0  0  0  0  0  0  0  0  0  0
    6.6250   -0.0990   21.2610 N   0  0  0  0  0  0  0  0  0  0  0  0
    6.0550    0.4270   20.1270 C   0  0  0  0  0  0  0  0  0  0  0  0
    4.8790    1.1650   20.1050 C   0  0  0  0  0  0  0  0  0  0  0  0
    4.3970    1.6820   18.9100 C   0  0  0  0  0  0  0  0  0  0  0  0
    5.1310    1.4320   17.7800 C   0  0  0  0  0  0  0  0  0  0  0  0
    6.2690    0.7290   17.6850 N   0  0  0  0  0  0  0  0  0  0  0  0
    6.8020    0.1770   18.8430 C   0  0  0  0  0  0  0  0  0  0  0  0
   10.4980    2.9260   21.8680 C   0  0  0  0  0  0  0  0  0  0  0  0
   12.0240    2.9350   21.9700 C   0  0  0  0  0  0  0  0  0  0  0  0
   12.6590    1.4740   22.4200 C   0  0  0  0  0  0  0  0  0  0  0  0
   12.0080    0.2320   22.7690 C   0  0  0  0  0  0  0  0  0  0  0  0
   12.4010   -0.8780   23.2290 C   0  0  2  0  0  0  0  0  0  0  0  0
   12.9180   -1.4500   22.4350 C   0  0  0  0  0  0  0  0  0  0  0  0
   13.2920   -0.6830   21.5490 C   0  0  0  0  0  0  0  0  0  0  0  0
   13.8400   -1.2730   20.3840 C   0  0  0  0  0  0  0  0  0  0  0  0
   13.8750   -2.7120   20.5120 C   0  0  0  0  0  0  0  0  0  0  0  0
   13.5100   -3.2560   21.5650 C   0  0  0  0  0  0  0  0  0  0  0  0
   13.0000   -2.7170   22.5450 C   0  0  0  0  0  0  0  0  0  0  0  0
   11.2470   -1.9670   23.2760 C   0  0  0  0  0  0  0  0  0  0  0  0
  1  2  1  0
  2  3  1  0
  3  4  1  0
  4  5  1  0
  5  6  1  0
  6  7  1  0
  7  8  2  0
  7  9  1  0
  9 10  1  0
 10 11  2  0
 11 12  1  0
 12 13  2  0
 13 14  1  0
 10 15  1  0
 14 15  2  0
  5 16  2  0
 16 17  1  0
 17 18  2  0
  4 19  2  0
 18 19  1  0
 19 20  1  0
 20 21  1  6
 21 22  2  0
 22 23  1  0
 23 24  2  0
 24 25  1  0
 21 26  1  0
 25 26  2  0
  2 27  1  0
 20 27  1  0
M  END
