pyridine_urea_14559
     RDKit          3D

 21 22  0  0  0  0  0  0  0  0999 V2000
    8.1900   -4.2670   23.0870 C   0  0  0  0  0  0  0  0  0  0  0  0
    9.3510   -3.4460   23.6210 C   0  0  0  0  0  0  0  0  0  0  0  0
   10.0940   -2.7150   22.6320 O   0  0  0  0  0  0  0  0  0  0  0  0
   10.4640   -1.4610   23.0320 C   0  0  0  0  0  0  0  0  0  0  0  0
    9.5320   -0.8910   23.8610 C   0  0  0  0  0  0  0  0  0  0  0  0
    8.2310   -0.8810   23.1240 N   0  0  0  0  0  0  0  0  0  0  0  0
    8.0040   -0.3420   21.8180 C   0  0  0  0  0  0  0  0  0  0  0  0
    8.7550    0.7320   21.2560 O   0  0  0  0  0  0  0  0  0  0  0  0
    6.9770   -0.9260   21.1540 N   0  0  0  0  0  0  0  0  0  0  0  0
    6.4540   -0.2210   20.1160 C   0  0  0  0  0  0  0  0  0  0  0  0
    5.1870    0.6440   20.2630 C   0  0  0  0  0  0  0  0  0  0  0  0
    4.6120    1.3880   19.2330 C   0  0  0  0  0  0  0  0  0  0  0  0
    5.2510    1.3280   17.9920 C   0  0  0  0  0  0  0  0  0  0  0  0
    6.3850    0.5650   17.8210 N   0  0  0  0  0  0  0  0  0  0  0  0
    6.9900   -0.2020   18.8370 C   0  0  0  0  0  0  0  0  0  0  0  0
   10.5830   -0.5560   22.0540 C   0  0  0  0  0  0  0  0  0  0  0  0
   10.1540    0.8370   22.4390 C   0  0  0  0  0  0  0  0  0  0  0  0
   11.1300    1.5320   23.1480 C   0  0  0  0  0  0  0  0  0  0  0  0
   11.9900    0.7850   23.9270 C   0  0  0  0  0  0  0  0  0  0  0  0
   12.6290   -0.3190   23.4100 C   0  0  0  0  0  0  0  0  0  0  0  0
   11.8960   -1.4710   23.6160 C   0  0  0  0  0  0  0  0  0  0  0  0
  1  2  1  0
  2  3  1  0
  4  3  1  0
  4  5  1  0
  5  6  1  0
  6  7  1  0
  7  8  2  0
  7  9  1  0
  9 10  1  0
 10 11  2  0
 11 12  1  0
 12 13  2  0
 13 14  1  0
 10 15  1  0
 14 15  2  0
  4 16  1  0
 16 17  1  0
 17 18  1  0
 18 19  1  0
 19 20  1  0
  4 21  1  0
 20 21  1  0
M  END
