pyridine_urea_4727
     RDKit          3D

 22 24  0  0  0  0  0  0  0  0999 V2000
   13.9820    4.5960   22.9470 O   0  0  0  0  0  0  0  0  0  0  0  0
   13.1420    3.7270   22.7370 C   0  0  0  0  0  0  0  0  0  0  0  0
   11.7590    4.1570   22.2480 C   0  0  0  0  0  0  0  0  0  0  0  0
   10.7530    3.3000   23.0060 C   0  0  0  0  0  0  0  0  0  0  0  0
   10.9670    1.9270   22.9580 C   0  0  0  0  0  0  0  0  0  0  0  0
    9.8470    1.1440   22.9510 C   0  0  0  0  0  0  0  0  0  0  0  0
    9.9870   -0.2040   22.8790 C   0  0  0  0  0  0  0  0  0  0  0  0
    8.7610   -1.0330   22.8250 N   0  0  0  0  0  0  0  0  0  0  0  0
    8.2280   -0.8640   21.5710 C   0  0  0  0  0  0  0  0  0  0  0  0
    8.9410   -0.8110   20.6640 O   0  0  0  0  0  0  0  0  0  0  0  0
    6.8880   -0.6920   21.3930 N   0  0  0  0  0  0  0  0  0  0  0  0
    6.2730   -0.0390   20.3270 C   0  0  0  0  0  0  0  0  0  0  0  0
    5.1000    0.6980   20.4190 C   0  0  0  0  0  0  0  0  0  0  0  0
    4.5730    1.3200   19.2820 C   0  0  0  0  0  0  0  0  0  0  0  0
    5.2450    1.1870   18.0630 C   0  0  0  0  0  0  0  0  0  0  0  0
    6.3790    0.4840   17.9330 N   0  0  0  0  0  0  0  0  0  0  0  0
    6.8660   -0.1130   19.0540 C   0  0  0  0  0  0  0  0  0  0  0  0
   11.4110   -0.8230   22.8230 C   0  0  0  0  0  0  0  0  0  0  0  0
   11.4340   -2.0460   22.7570 O   0  0  0  0  0  0  0  0  0  0  0  0
   12.5580    0.0380   22.8440 C   0  0  0  0  0  0  0  0  0  0  0  0
   12.2760    1.4100   22.9090 C   0  0  0  0  0  0  0  0  0  0  0  0
   13.3090    2.3460   22.9100 N   0  0  0  0  0  0  0  0  0  0  0  0
  1  2  2  0
  2  3  1  0
  3  4  1  0
  4  5  1  0
  5  6  1  0
  6  7  2  0
  7  8  1  0
  8  9  1  0
  9 10  2  0
  9 11  1  0
 11 12  1  0
 12 13  2  0
 13 14  1  0
 14 15  2  0
 15 16  1  0
 12 17  1  0
 16 17  2  0
  7 18  1  0
 18 19  1  0
 18 20  2  0
  5 21  2  0
 20 21  1  0
  2 22  1  0
 21 22  1  0
M  END
