pyridine_urea_6002
     RDKit          3D

 25 27  0  0  0  0  0  0  0  0999 V2000
    8.6410    1.1980   21.0800 O   0  0  0  0  0  0  0  0  0  0  0  0
    8.3320   -0.0030   21.0540 C   0  0  0  0  0  0  0  0  0  0  0  0
    6.9620   -0.4500   21.0190 N   0  0  0  0  0  0  0  0  0  0  0  0
    6.3050    0.1680   19.9950 C   0  0  0  0  0  0  0  0  0  0  0  0
    5.1190    0.8610   20.2080 C   0  0  0  0  0  0  0  0  0  0  0  0
    4.5300    1.4840   19.1140 C   0  0  0  0  0  0  0  0  0  0  0  0
    5.1470    1.3900   17.8630 C   0  0  0  0  0  0  0  0  0  0  0  0
    6.2860    0.7110   17.6610 N   0  0  0  0  0  0  0  0  0  0  0  0
    6.8380    0.1150   18.7320 C   0  0  0  0  0  0  0  0  0  0  0  0
    9.1820   -1.0650   21.0240 N   0  0  0  0  0  0  0  0  0  0  0  0
    9.8840   -1.2650   22.1990 C   0  0  0  0  0  0  0  0  0  0  0  0
   11.3180   -1.7280   22.3820 C   0  0  0  0  0  0  0  0  0  0  0  0
   11.7730   -1.8430   23.6780 C   0  0  0  0  0  0  0  0  0  0  0  0
   10.9140   -1.5320   24.7710 C   0  0  0  0  0  0  0  0  0  0  0  0
    9.5400   -1.0810   24.6010 C   0  0  0  0  0  0  0  0  0  0  0  0
    8.3080   -0.6100   25.7820 S   0  0  0  0  0  0  0  0  0  0  0  0
    8.7980   -0.5110   27.1330 O   0  0  0  0  0  0  0  0  0  0  0  0
    7.6740    0.5680   25.2360 O   0  0  0  0  0  0  0  0  0  0  0  0
    6.9990   -1.8250   25.7350 C   0  0  0  0  0  0  0  0  0  0  0  0
    6.0270   -1.3830   24.8540 C   0  0  0  0  0  0  0  0  0  0  0  0
    4.8010   -2.0400   24.9770 C   0  0  0  0  0  0  0  0  0  0  0  0
    4.3420   -2.1440   26.2730 O   0  0  0  0  0  0  0  0  0  0  0  0
    5.2570   -1.5320   27.1840 C   0  0  0  0  0  0  0  0  0  0  0  0
    6.5280   -2.0930   27.0250 C   0  0  0  0  0  0  0  0  0  0  0  0
    9.0660   -0.9610   23.3720 C   0  0  0  0  0  0  0  0  0  0  0  0
  1  2  2  0
  2  3  1  0
  3  4  1  0
  4  5  2  0
  5  6  1  0
  6  7  2  0
  7  8  1  0
  4  9  1  0
  8  9  2  0
  2 10  1  0
 10 11  1  0
 11 12  2  0
 12 13  1  0
 13 14  2  0
 14 15  1  0
 16 15  1  0
 16 17  2  0
 16 18  2  0
 16 19  1  0
 19 20  1  0
 20 21  1  0
 21 22  1  0
 22 23  1  0
 19 24  1  0
 23 24  1  0
 11 25  1  0
 15 25  2  0
M  END
