pyridine_urea_5216
     RDKit          3D

 20 21  0  0  0  0  0  0  0  0999 V2000
   12.3840   -0.2680   25.1540 C   0  0  0  0  0  0  0  0  0  0  0  0
   12.5310    0.7770   24.2240 N   0  0  0  0  0  0  0  0  0  0  0  0
   11.6800    1.8450   23.8170 C   0  0  0  0  0  0  0  0  0  0  0  0
   12.0880   -0.1420   23.3780 C   0  0  0  0  0  0  0  0  0  0  0  0
   12.8310   -0.7650   22.5400 C   0  0  0  0  0  0  0  0  0  0  0  0
   12.2700   -1.6950   21.7750 C   0  0  0  0  0  0  0  0  0  0  0  0
   10.7600   -2.1290   21.7760 C   0  0  0  0  0  0  0  0  0  0  0  0
    9.4170   -2.3240   21.9660 C   0  0  0  0  0  0  0  0  0  0  0  0
    8.7970   -1.4690   21.0010 N   0  0  0  0  0  0  0  0  0  0  0  0
    8.1760   -0.2930   21.2890 C   0  0  0  0  0  0  0  0  0  0  0  0
    8.7740    0.7400   21.5580 O   0  0  0  0  0  0  0  0  0  0  0  0
    6.8480   -0.4780   21.2010 N   0  0  0  0  0  0  0  0  0  0  0  0
    6.2590    0.1420   20.1610 C   0  0  0  0  0  0  0  0  0  0  0  0
    5.0870    0.8740   20.2390 C   0  0  0  0  0  0  0  0  0  0  0  0
    4.5830    1.4740   19.0980 C   0  0  0  0  0  0  0  0  0  0  0  0
    5.2580    1.3360   17.8980 C   0  0  0  0  0  0  0  0  0  0  0  0
    6.3930    0.6370   17.7630 N   0  0  0  0  0  0  0  0  0  0  0  0
    6.8530    0.0610   18.8980 C   0  0  0  0  0  0  0  0  0  0  0  0
   10.1880   -1.3050   22.7550 C   0  0  0  0  0  0  0  0  0  0  0  0
   10.8140   -0.3930   23.4870 C   0  0  0  0  0  0  0  0  0  0  0  0
  1  2  1  0
  2  3  1  0
  2  4  1  0
  4  5  2  0
  5  6  1  0
  6  7  2  0
  7  8  1  0
  8  9  1  0
  9 10  1  0
 10 11  2  0
 10 12  1  0
 12 13  1  0
 13 14  2  0
 14 15  1  0
 15 16  2  0
 16 17  1  0
 13 18  1  0
 17 18  2  0
  7 19  1  0
  4 20  1  0
 19 20  2  0
M  END
