pyridine_urea_7908
     RDKit          3D

 26 28  0  0  0  0  0  0  0  0999 V2000
    8.7450    0.9780   21.4670 O   0  0  0  0  0  0  0  0  0  0  0  0
    8.3200   -0.1230   21.1610 C   0  0  0  0  0  0  0  0  0  0  0  0
    7.0220   -0.4720   20.9790 N   0  0  0  0  0  0  0  0  0  0  0  0
    6.3520    0.1440   19.9490 C   0  0  0  0  0  0  0  0  0  0  0  0
    5.1710    0.8450   20.1960 C   0  0  0  0  0  0  0  0  0  0  0  0
    4.5330    1.4830   19.1390 C   0  0  0  0  0  0  0  0  0  0  0  0
    5.1040    1.3870   17.8870 C   0  0  0  0  0  0  0  0  0  0  0  0
    6.2290    0.7070   17.6360 N   0  0  0  0  0  0  0  0  0  0  0  0
    6.8220    0.1050   18.6700 C   0  0  0  0  0  0  0  0  0  0  0  0
    9.1600   -1.1550   20.9220 N   0  0  0  0  0  0  0  0  0  0  0  0
   10.0560   -1.4060   21.9830 C   0  0  0  0  0  0  0  0  0  0  0  0
   11.4910   -1.8540   21.8370 C   0  0  0  0  0  0  0  0  0  0  0  0
   12.2000   -2.0430   23.0210 C   0  0  0  0  0  0  0  0  0  0  0  0
   11.5670   -1.8170   24.2650 C   0  0  0  0  0  0  0  0  0  0  0  0
   12.3230   -2.0210   25.3310 F   0  0  0  0  0  0  0  0  0  0  0  0
   10.1820   -1.3750   24.3660 C   0  0  0  0  0  0  0  0  0  0  0  0
    9.3690   -1.0500   25.3930 N   0  0  0  0  0  0  0  0  0  0  0  0
    8.0040   -1.2270   25.3310 C   0  0  0  0  0  0  0  0  0  0  0  0
    7.4420   -1.9300   24.5010 O   0  0  0  0  0  0  0  0  0  0  0  0
    7.0950   -0.6470   26.2300 C   0  0  0  0  0  0  0  0  0  0  0  0
    6.3440   -1.6500   26.8420 C   0  0  0  0  0  0  0  0  0  0  0  0
    6.4950   -1.5910   28.2310 C   0  0  0  0  0  0  0  0  0  0  0  0
    6.1400   -0.3440   28.7420 C   0  0  0  0  0  0  0  0  0  0  0  0
    6.7780    0.6890   28.0460 C   0  0  0  0  0  0  0  0  0  0  0  0
    7.7270    0.1920   27.1490 C   0  0  0  0  0  0  0  0  0  0  0  0
    9.4670   -1.1840   23.2590 C   0  0  0  0  0  0  0  0  0  0  0  0
  1  2  2  0
  2  3  1  0
  3  4  1  0
  4  5  2  0
  5  6  1  0
  6  7  2  0
  7  8  1  0
  4  9  1  0
  8  9  2  0
  2 10  1  0
 10 11  1  0
 11 12  2  0
 12 13  1  0
 13 14  2  0
 14 15  1  0
 14 16  1  0
 16 17  1  0
 17 18  1  0
 18 19  2  0
 18 20  1  0
 20 21  1  0
 21 22  1  0
 22 23  1  0
 23 24  1  0
 20 25  1  0
 24 25  1  0
 11 26  1  0
 16 26  2  0
M  END
