pyridine_urea_14534
     RDKit          3D

 21 22  0  0  0  0  0  0  0  0999 V2000
    8.9590    0.5550   21.2300 O   0  0  0  0  0  0  0  0  0  0  0  0
    8.0740   -0.1330   21.6990 C   0  0  0  0  0  0  0  0  0  0  0  0
    7.9890   -0.4480   23.0390 N   0  0  0  0  0  0  0  0  0  0  0  0
    8.6920    0.2280   24.0540 C   0  0  0  0  0  0  0  0  0  0  0  0
   10.0350    0.4110   23.8340 C   0  0  0  0  0  0  0  0  0  0  0  0
   10.7450    1.6270   23.8040 C   0  0  0  0  0  0  0  0  0  0  0  0
   12.0100    1.2680   23.5340 C   0  0  0  0  0  0  0  0  0  0  0  0
   12.0490   -0.0390   23.4170 N   0  0  0  0  0  0  0  0  0  0  0  0
   13.0950   -0.8160   23.1440 C   0  0  0  0  0  0  0  0  0  0  0  0
   13.0560   -2.1130   23.9910 C   0  0  0  0  0  0  0  0  0  0  0  0
   13.8720   -3.0460   23.4820 F   0  0  0  0  0  0  0  0  0  0  0  0
   13.4320   -1.9410   25.2820 F   0  0  0  0  0  0  0  0  0  0  0  0
   11.8240   -2.6840   24.0470 F   0  0  0  0  0  0  0  0  0  0  0  0
   10.8640   -0.6460   23.5890 N   0  0  0  0  0  0  0  0  0  0  0  0
    7.0290   -0.6670   20.9920 N   0  0  0  0  0  0  0  0  0  0  0  0
    6.4290   -0.0160   19.9940 C   0  0  0  0  0  0  0  0  0  0  0  0
    5.2330    0.6940   20.1860 C   0  0  0  0  0  0  0  0  0  0  0  0
    4.6080    1.3900   19.1450 C   0  0  0  0  0  0  0  0  0  0  0  0
    5.1530    1.4030   17.8690 C   0  0  0  0  0  0  0  0  0  0  0  0
    6.3820    0.6530   17.6880 N   0  0  0  0  0  0  0  0  0  0  0  0
    6.9580   -0.0170   18.7270 C   0  0  0  0  0  0  0  0  0  0  0  0
  1  2  2  0
  2  3  1  0
  3  4  1  0
  4  5  1  0
  5  6  1  0
  6  7  2  0
  7  8  1  0
  8  9  1  0
  9 10  1  0
 10 11  1  0
 10 12  1  0
 10 13  1  0
  5 14  2  0
  8 14  1  0
  2 15  1  0
 15 16  1  0
 16 17  2  0
 17 18  1  0
 18 19  2  0
 19 20  1  0
 16 21  1  0
 20 21  2  0
M  END
