pyridine_urea_10944
     RDKit          3D

 19 20  0  0  0  0  0  0  0  0999 V2000
   12.7160   -2.6400   21.0970 C   0  0  0  0  0  0  0  0  0  0  0  0
   11.5230   -1.8570   21.1010 O   0  0  0  0  0  0  0  0  0  0  0  0
   11.3880   -1.0450   22.1770 C   0  0  2  0  0  0  0  0  0  0  0  0
   12.5970   -0.9030   22.8410 C   0  0  0  0  0  0  0  0  0  0  0  0
   12.1990    0.1750   24.1310 S   0  0  0  0  0  0  0  0  0  0  0  0
   12.6260    1.5080   23.8370 O   0  0  0  0  0  0  0  0  0  0  0  0
   12.3870   -0.5060   25.3860 O   0  0  0  0  0  0  0  0  0  0  0  0
   10.6350    0.0100   23.4910 C   0  0  0  0  0  0  0  0  0  0  0  0
   10.1340   -1.2660   23.1510 C   0  0  1  0  0  0  0  0  0  0  0  0
    8.8900   -1.4560   22.4570 N   0  0  0  0  0  0  0  0  0  0  0  0
    8.4000   -0.4410   21.6360 C   0  0  0  0  0  0  0  0  0  0  0  0
    8.9840    0.6220   21.4780 O   0  0  0  0  0  0  0  0  0  0  0  0
    7.1940   -0.8120   21.0680 N   0  0  0  0  0  0  0  0  0  0  0  0
    6.4720   -0.0810   20.1010 C   0  0  0  0  0  0  0  0  0  0  0  0
    5.1930    0.7210   20.3280 C   0  0  0  0  0  0  0  0  0  0  0  0
    4.6480    1.3720   19.2510 C   0  0  0  0  0  0  0  0  0  0  0  0
    5.2400    1.3020   18.0060 C   0  0  0  0  0  0  0  0  0  0  0  0
    6.3640    0.6050   17.7540 N   0  0  0  0  0  0  0  0  0  0  0  0
    6.9430   -0.0620   18.7900 C   0  0  0  0  0  0  0  0  0  0  0  0
  1  2  1  0
  3  2  1  6
  3  4  1  0
  5  4  1  0
  5  6  2  0
  5  7  2  0
  5  8  1  0
  3  9  1  0
  8  9  1  0
  9 10  1  6
 10 11  1  0
 11 12  2  0
 11 13  1  0
 13 14  1  0
 14 15  2  0
 15 16  1  0
 16 17  2  0
 17 18  1  0
 14 19  1  0
 18 19  2  0
M  END
