pyridine_urea_11168
     RDKit          3D

 18 19  0  0  0  0  0  0  0  0999 V2000
   13.1230   -1.9860   21.6950 C   0  0  0  0  0  0  0  0  0  0  0  0
   13.1170   -0.9270   22.2110 C   0  0  0  0  0  0  0  0  0  0  0  0
   13.4090    0.4120   22.6800 C   0  0  0  0  0  0  0  0  0  0  0  0
   12.4800    1.0420   23.5490 C   0  0  0  0  0  0  0  0  0  0  0  0
   11.3170    0.4910   24.0090 C   0  0  0  0  0  0  0  0  0  0  0  0
   10.0910   -0.3090   24.3910 C   0  0  0  0  0  0  0  0  0  0  0  0
    9.6760   -1.1450   23.2380 C   0  0  0  0  0  0  0  0  0  0  0  0
    8.3940   -0.6660   22.8160 N   0  0  0  0  0  0  0  0  0  0  0  0
    8.2010   -0.0080   21.6250 C   0  0  0  0  0  0  0  0  0  0  0  0
    9.0020    1.1260   21.2550 O   0  0  0  0  0  0  0  0  0  0  0  0
    7.1690   -0.5830   20.9390 N   0  0  0  0  0  0  0  0  0  0  0  0
    6.4330    0.0910   19.9780 C   0  0  0  0  0  0  0  0  0  0  0  0
    5.2530    0.7930   20.1740 C   0  0  0  0  0  0  0  0  0  0  0  0
    4.6130    1.4430   19.1400 C   0  0  0  0  0  0  0  0  0  0  0  0
    5.1780    1.3810   17.8940 C   0  0  0  0  0  0  0  0  0  0  0  0
    6.3180    0.7080   17.6470 N   0  0  0  0  0  0  0  0  0  0  0  0
    6.9090    0.0840   18.6870 C   0  0  0  0  0  0  0  0  0  0  0  0
   11.5770   -1.0190   23.1370 S   0  0  0  0  0  0  0  0  0  0  0  0
  1  2  1  0
  2  3  2  0
  3  4  1  0
  4  5  2  0
  5  6  1  0
  6  7  1  0
  7  8  1  0
  8  9  1  0
  9 10  2  0
  9 11  1  0
 11 12  1  0
 12 13  2  0
 13 14  1  0
 14 15  2  0
 15 16  1  0
 12 17  1  0
 16 17  2  0
  2 18  1  0
  5 18  1  0
M  END
