pyridine_urea_2698
     RDKit          3D

 23 24  0  0  0  0  0  0  0  0999 V2000
   13.6430   -2.7020   25.4630 C   0  0  0  0  0  0  0  0  0  0  0  0
   12.3760   -2.9930   24.6890 C   0  0  0  0  0  0  0  0  0  0  0  0
   11.5850   -1.8340   24.5350 O   0  0  0  0  0  0  0  0  0  0  0  0
   11.8010   -1.3140   23.3090 C   0  0  0  0  0  0  0  0  0  0  0  0
   12.9110   -1.5720   22.4190 O   0  0  0  0  0  0  0  0  0  0  0  0
   10.8250   -0.4070   22.8690 C   0  0  1  0  0  0  0  0  0  0  0  0
    9.7430   -0.7180   21.9460 N   0  0  0  0  0  0  0  0  0  0  0  0
    8.7060    0.0690   21.4030 C   0  0  0  0  0  0  0  0  0  0  0  0
    8.8910    1.2720   21.1750 O   0  0  0  0  0  0  0  0  0  0  0  0
    7.5270   -0.5730   21.1330 N   0  0  0  0  0  0  0  0  0  0  0  0
    6.7380    0.0210   20.1890 C   0  0  0  0  0  0  0  0  0  0  0  0
    5.4760    0.8660   20.4750 C   0  0  0  0  0  0  0  0  0  0  0  0
    4.6200    1.5310   19.3880 C   0  0  0  0  0  0  0  0  0  0  0  0
    5.2170    1.2230   18.0270 C   0  0  0  0  0  0  0  0  0  0  0  0
    6.3290    0.4650   17.8280 N   0  0  0  0  0  0  0  0  0  0  0  0
    7.0670   -0.1210   18.8550 C   0  0  0  0  0  0  0  0  0  0  0  0
   10.2340    0.2180   24.1100 C   0  0  0  0  0  0  0  0  0  0  0  0
   11.5050    0.9470   23.8610 C   0  0  0  0  0  0  0  0  0  0  0  0
   12.1500    0.3460   22.8110 C   0  0  0  0  0  0  0  0  0  0  0  0
   11.4690   -0.7960   22.2210 C   0  0  0  0  0  0  0  0  0  0  0  0
   10.1840   -1.3900   22.5820 C   0  0  0  0  0  0  0  0  0  0  0  0
    9.6740   -2.4690   21.9070 O   0  0  0  0  0  0  0  0  0  0  0  0
    9.4800   -0.8180   23.6560 C   0  0  0  0  0  0  0  0  0  0  0  0
  1  2  1  0
  2  3  1  0
  3  4  1  0
  4  5  2  0
  4  6  1  0
  6  7  1  1
  7  8  1  0
  8  9  2  0
  8 10  1  0
 10 11  1  0
 11 12  2  0
 12 13  1  0
 13 14  2  0
 14 15  1  0
 11 16  1  0
 15 16  2  0
  6 17  1  0
 17 18  2  0
 18 19  1  0
 19 20  2  0
 20 21  1  0
 21 22  1  0
 17 23  1  0
 21 23  2  0
M  END
