pyridine_urea_8081
     RDKit          3D

 24 25  0  0  0  0  0  0  0  0999 V2000
    7.8730    7.1060   22.3620 C   0  0  0  0  0  0  0  0  0  0  0  0
    8.1430    5.8590   23.2130 C   0  0  0  0  0  0  0  0  0  0  0  0
    8.1390    6.3000   24.7200 C   0  0  0  0  0  0  0  0  0  0  0  0
    9.5530    5.3910   22.8710 C   0  0  0  0  0  0  0  0  0  0  0  0
   10.6420    6.4850   22.8580 C   0  0  0  0  0  0  0  0  0  0  0  0
   11.9500    6.1540   22.5520 C   0  0  0  0  0  0  0  0  0  0  0  0
   12.3020    4.7240   22.2240 C   0  0  0  0  0  0  0  0  0  0  0  0
   11.2910    3.5890   22.2150 C   0  0  0  0  0  0  0  0  0  0  0  0
    9.8570    4.0450   22.5800 C   0  0  0  0  0  0  0  0  0  0  0  0
    8.9220    3.1630   22.6230 O   0  0  0  0  0  0  0  0  0  0  0  0
    9.0200    1.7580   22.1830 C   0  0  0  0  0  0  0  0  0  0  0  0
    8.3950    0.7120   23.1980 C   0  0  1  0  0  0  0  0  0  0  0  0
    7.2220    0.3960   23.0720 O   0  0  0  0  0  0  0  0  0  0  0  0
    9.1790   -0.6420   23.1590 C   0  0  0  0  0  0  0  0  0  0  0  0
    8.5190   -1.3970   22.1480 N   0  0  0  0  0  0  0  0  0  0  0  0
    7.9720   -0.5900   21.2160 C   0  0  0  0  0  0  0  0  0  0  0  0
    8.5650    0.5850   20.8990 O   0  0  0  0  0  0  0  0  0  0  0  0
    6.8010   -1.0330   20.6980 N   0  0  0  0  0  0  0  0  0  0  0  0
    6.1310   -0.1900   19.8200 C   0  0  0  0  0  0  0  0  0  0  0  0
    4.9190    0.4470   20.0590 C   0  0  0  0  0  0  0  0  0  0  0  0
    4.4000    1.2700   19.0780 C   0  0  0  0  0  0  0  0  0  0  0  0
    5.1190    1.4250   17.8880 C   0  0  0  0  0  0  0  0  0  0  0  0
    6.2870    0.8140   17.6450 N   0  0  0  0  0  0  0  0  0  0  0  0
    6.7540    0.0260   18.6210 C   0  0  0  0  0  0  0  0  0  0  0  0
  1  2  1  0
  2  3  1  0
  2  4  1  0
  4  5  2  0
  5  6  1  0
  6  7  2  0
  7  8  1  0
  4  9  1  0
  8  9  2  0
  9 10  1  0
 10 11  1  0
 11 12  1  0
 12 13  1  6
 12 14  1  0
 14 15  1  0
 15 16  1  0
 16 17  2  0
 16 18  1  0
 18 19  1  0
 19 20  2  0
 20 21  1  0
 21 22  2  0
 22 23  1  0
 19 24  1  0
 23 24  2  0
M  END
