pyridine_urea_6813
     RDKit          3D

 21 22  0  0  0  0  0  0  0  0999 V2000
   10.5960    4.5350   24.3320 C   0  0  0  0  0  0  0  0  0  0  0  0
   11.8380    4.5200   23.4100 C   0  0  0  0  0  0  0  0  0  0  0  0
   12.1310    3.1560   22.7490 C   0  0  0  0  0  0  0  0  0  0  0  0
   11.4980    2.2910   23.3600 O   0  0  0  0  0  0  0  0  0  0  0  0
   11.6380    0.9400   23.1050 C   0  0  0  0  0  0  0  0  0  0  0  0
   13.0590    0.5450   22.7420 C   0  0  0  0  0  0  0  0  0  0  0  0
   13.3280   -0.7280   22.4560 C   0  0  0  0  0  0  0  0  0  0  0  0
   12.2210   -1.3480   22.5820 C   0  0  0  0  0  0  0  0  0  0  0  0
   10.9570   -1.1320   22.8930 C   0  0  0  0  0  0  0  0  0  0  0  0
   10.4010    0.1230   23.2310 C   0  0  0  0  0  0  0  0  0  0  0  0
    9.5790   -0.9740   23.2250 C   0  0  0  0  0  0  0  0  0  0  0  0
    8.2580   -0.5600   22.8950 N   0  0  0  0  0  0  0  0  0  0  0  0
    8.0710    0.0870   21.6060 C   0  0  0  0  0  0  0  0  0  0  0  0
    8.8590    1.2060   21.1690 O   0  0  0  0  0  0  0  0  0  0  0  0
    7.0580   -0.5260   20.9430 N   0  0  0  0  0  0  0  0  0  0  0  0
    6.4190    0.1030   19.9110 C   0  0  0  0  0  0  0  0  0  0  0  0
    5.1270    0.8600   20.1620 C   0  0  0  0  0  0  0  0  0  0  0  0
    4.5410    1.4890   19.0950 C   0  0  0  0  0  0  0  0  0  0  0  0
    5.1430    1.4140   17.8430 C   0  0  0  0  0  0  0  0  0  0  0  0
    6.2840    0.7380   17.6140 N   0  0  0  0  0  0  0  0  0  0  0  0
    6.8880    0.1060   18.6360 C   0  0  0  0  0  0  0  0  0  0  0  0
  1  2  2  3
  2  3  1  0
  3  4  1  0
  4  5  1  0
  5  6  2  0
  6  7  1  0
  7  8  2  0
  8  9  1  0
  5 10  1  0
  9 10  2  0
 10 11  1  0
 11 12  1  0
 12 13  1  0
 13 14  2  0
 13 15  1  0
 15 16  1  0
 16 17  2  0
 17 18  1  0
 18 19  2  0
 19 20  1  0
 16 21  1  0
 20 21  2  0
M  END
