pyridine_urea_851
     RDKit          3D

 23 24  0  0  0  0  0  0  0  0999 V2000
   13.9550    1.2210   22.0820 C   0  0  0  0  0  0  0  0  0  0  0  0
   12.5490    1.6870   23.0640 S   0  0  0  0  0  0  0  0  0  0  0  0
   12.7360    3.0580   23.4270 O   0  0  0  0  0  0  0  0  0  0  0  0
   11.2980    1.2980   22.4780 O   0  0  0  0  0  0  0  0  0  0  0  0
   12.8670    0.3990   24.1530 N   0  0  0  0  0  0  0  0  0  0  0  0
   12.0310   -0.3970   23.4650 C   0  0  0  0  0  0  0  0  0  0  0  0
   10.7620   -0.4590   23.8950 C   0  0  0  0  0  0  0  0  0  0  0  0
   10.2500    0.2240   25.2300 Cl  0  0  0  0  0  0  0  0  0  0  0  0
    9.7220   -1.0590   23.3630 C   0  0  0  0  0  0  0  0  0  0  0  0
    9.8210   -1.7630   22.2560 C   0  0  0  0  0  0  0  0  0  0  0  0
    8.7530   -2.2690   21.7350 N   0  0  0  0  0  0  0  0  0  0  0  0
    8.0930   -1.1410   21.3040 C   0  0  0  0  0  0  0  0  0  0  0  0
    8.7320    0.0800   21.2370 O   0  0  0  0  0  0  0  0  0  0  0  0
    6.8090   -1.1970   20.9400 N   0  0  0  0  0  0  0  0  0  0  0  0
    6.2860   -0.3200   19.9200 C   0  0  0  0  0  0  0  0  0  0  0  0
    5.0130    0.4830   20.1390 C   0  0  0  0  0  0  0  0  0  0  0  0
    4.5050    1.3320   19.1650 C   0  0  0  0  0  0  0  0  0  0  0  0
    5.2000    1.4400   17.9500 C   0  0  0  0  0  0  0  0  0  0  0  0
    6.3610    0.7170   17.7240 N   0  0  0  0  0  0  0  0  0  0  0  0
    6.9190   -0.1770   18.7180 C   0  0  0  0  0  0  0  0  0  0  0  0
   11.1880   -1.8950   21.6870 C   0  0  0  0  0  0  0  0  0  0  0  0
   12.2280   -1.2650   22.2330 C   0  0  0  0  0  0  0  0  0  0  0  0
   13.6490   -1.5440   21.3990 Cl  0  0  0  0  0  0  0  0  0  0  0  0
  1  2  1  0
  2  3  2  0
  2  4  2  0
  2  5  1  0
  5  6  1  0
  6  7  2  0
  7  8  1  0
  7  9  1  0
  9 10  2  0
 10 11  1  0
 11 12  1  0
 12 13  2  0
 12 14  1  0
 14 15  1  0
 15 16  2  0
 16 17  1  0
 17 18  2  0
 18 19  1  0
 15 20  1  0
 19 20  2  0
 10 21  1  0
  6 22  1  0
 21 22  2  0
 22 23  1  0
M  END
