pyridine_urea_1583
     RDKit          3D

 19 20  0  0  0  0  0  0  0  0999 V2000
   10.1000   -0.2110   24.6670 C   0  0  0  0  0  0  0  0  0  0  0  0
   10.3050   -0.1140   23.1770 C   0  0  2  0  0  0  0  0  0  0  0  0
    9.1670   -0.6560   22.4460 N   0  0  0  0  0  0  0  0  0  0  0  0
    8.5310    0.1260   21.5010 C   0  0  0  0  0  0  0  0  0  0  0  0
    8.9650    1.2360   21.1680 O   0  0  0  0  0  0  0  0  0  0  0  0
    7.3860   -0.4680   21.0210 N   0  0  0  0  0  0  0  0  0  0  0  0
    6.6180    0.1040   19.9970 C   0  0  0  0  0  0  0  0  0  0  0  0
    5.4480    0.7820   20.3150 C   0  0  0  0  0  0  0  0  0  0  0  0
    4.6900    1.3680   19.2980 C   0  0  0  0  0  0  0  0  0  0  0  0
    5.1320    1.2520   17.9940 C   0  0  0  0  0  0  0  0  0  0  0  0
    6.2520    0.5960   17.6650 N   0  0  0  0  0  0  0  0  0  0  0  0
    6.9650    0.0390   18.6660 C   0  0  0  0  0  0  0  0  0  0  0  0
   11.5800   -0.7990   22.6960 C   0  0  0  0  0  0  0  0  0  0  0  0
   11.7870   -1.9330   22.2480 C   0  0  0  0  0  0  0  0  0  0  0  0
   12.8920   -0.9880   22.3930 C   0  0  0  0  0  0  0  0  0  0  0  0
   11.9370    0.0820   22.9590 C   0  0  0  0  0  0  0  0  0  0  0  0
   11.3960    1.5910   23.6060 Cl  0  0  0  0  0  0  0  0  0  0  0  0
   13.0640    0.9170   23.0450 C   0  0  0  0  0  0  0  0  0  0  0  0
   13.0310   -0.3730   22.5840 C   0  0  0  0  0  0  0  0  0  0  0  0
  2  1  1  1
  2  3  1  0
  3  4  1  0
  4  5  2  0
  4  6  1  0
  6  7  1  0
  7  8  2  0
  8  9  1  0
  9 10  2  0
 10 11  1  0
  7 12  1  0
 11 12  2  0
  2 13  1  0
 13 14  2  0
 14 15  1  0
 15 16  2  0
 16 17  1  0
 16 18  1  0
 13 19  1  0
 18 19  2  0
M  END
