pyridine_urea_10932
     RDKit          3D

 19 20  0  0  0  0  0  0  0  0999 V2000
   12.8250   -0.6550   24.9510 C   0  0  0  0  0  0  0  0  0  0  0  0
   12.8420   -1.9030   24.1690 C   0  0  0  0  0  0  0  0  0  0  0  0
   13.5270   -2.0610   22.9930 C   0  0  0  0  0  0  0  0  0  0  0  0
   13.2210   -3.0310   25.0810 C   0  0  0  0  0  0  0  0  0  0  0  0
   11.7300   -2.0730   23.8940 O   0  0  0  0  0  0  0  0  0  0  0  0
   11.3240   -1.0340   23.1530 C   0  0  1  0  0  0  0  0  0  0  0  0
   10.3910   -1.3990   22.1540 C   0  0  0  0  0  0  0  0  0  0  0  0
    9.4620   -0.8510   23.1890 C   0  0  2  0  0  0  0  0  0  0  0  0
    8.3920   -0.0830   22.8040 N   0  0  0  0  0  0  0  0  0  0  0  0
    8.2200    0.4190   21.5560 C   0  0  0  0  0  0  0  0  0  0  0  0
    8.8690    1.3640   21.0980 O   0  0  0  0  0  0  0  0  0  0  0  0
    7.1770   -0.3280   20.9120 N   0  0  0  0  0  0  0  0  0  0  0  0
    6.4490    0.2370   19.9480 C   0  0  0  0  0  0  0  0  0  0  0  0
    5.2820    0.9470   20.2060 C   0  0  0  0  0  0  0  0  0  0  0  0
    4.6000    1.5340   19.1460 C   0  0  0  0  0  0  0  0  0  0  0  0
    5.1180    1.3810   17.8780 C   0  0  0  0  0  0  0  0  0  0  0  0
    6.2310    0.6940   17.5890 N   0  0  0  0  0  0  0  0  0  0  0  0
    6.8860    0.1220   18.6650 C   0  0  0  0  0  0  0  0  0  0  0  0
   10.4960   -0.1760   23.9140 C   0  0  0  0  0  0  0  0  0  0  0  0
  1  2  1  0
  2  3  1  0
  2  4  1  0
  2  5  1  0
  6  5  1  1
  6  7  1  0
  7  8  1  0
  8  9  1  6
  9 10  1  0
 10 11  2  0
 10 12  1  0
 12 13  1  0
 13 14  2  0
 14 15  1  0
 15 16  2  0
 16 17  1  0
 13 18  1  0
 17 18  2  0
  6 19  1  0
  8 19  1  0
M  END
