pyridine_urea_8455
     RDKit          3D

 22 23  0  0  0  0  0  0  0  0999 V2000
   10.5120   -1.4360   21.6240 C   0  0  0  0  0  0  0  0  0  0  0  0
   10.0030   -0.9720   22.9220 C   0  0  1  0  0  0  0  0  0  0  0  0
   10.6440    0.0240   23.6200 C   0  0  0  0  0  0  0  0  0  0  0  0
   11.8010    0.7460   23.2450 C   0  0  0  0  0  0  0  0  0  0  0  0
   12.2220    0.4650   22.1870 O   0  0  0  0  0  0  0  0  0  0  0  0
   12.0780   -0.9200   22.0420 C   0  0  0  0  0  0  0  0  0  0  0  0
   12.3760   -1.7430   23.1710 C   0  0  0  0  0  0  0  0  0  0  0  0
   11.5340   -2.6990   23.5240 C   0  0  0  0  0  0  0  0  0  0  0  0
   11.9400   -3.5100   24.6540 C   0  0  0  0  0  0  0  0  0  0  0  0
   13.1380   -3.2800   25.2820 C   0  0  0  0  0  0  0  0  0  0  0  0
   13.8950   -2.3140   24.8990 C   0  0  0  0  0  0  0  0  0  0  0  0
   13.5200   -1.5240   23.8360 C   0  0  0  0  0  0  0  0  0  0  0  0
    8.6330   -0.5930   22.7000 N   0  0  0  0  0  0  0  0  0  0  0  0
    8.2460    0.0740   21.5930 C   0  0  0  0  0  0  0  0  0  0  0  0
    8.8890    1.2340   21.1780 O   0  0  0  0  0  0  0  0  0  0  0  0
    7.1850   -0.4910   20.9750 N   0  0  0  0  0  0  0  0  0  0  0  0
    6.4230    0.1500   20.0070 C   0  0  0  0  0  0  0  0  0  0  0  0
    5.2500    0.8430   20.2420 C   0  0  0  0  0  0  0  0  0  0  0  0
    4.6050    1.4520   19.1750 C   0  0  0  0  0  0  0  0  0  0  0  0
    5.1690    1.3400   17.9130 C   0  0  0  0  0  0  0  0  0  0  0  0
    6.2960    0.6660   17.6680 N   0  0  0  0  0  0  0  0  0  0  0  0
    6.8920    0.0890   18.7170 C   0  0  0  0  0  0  0  0  0  0  0  0
  2  1  1  6
  2  3  1  0
  3  4  1  0
  4  5  1  0
  5  6  1  0
  6  7  1  0
  7  8  2  0
  8  9  1  0
  9 10  2  0
 10 11  1  0
  7 12  1  0
 11 12  2  0
  2 13  1  0
 13 14  1  0
 14 15  2  0
 14 16  1  0
 16 17  1  0
 17 18  2  0
 18 19  1  0
 19 20  2  0
 20 21  1  0
 17 22  1  0
 21 22  2  0
M  END
