pyridine_urea_11722
     RDKit          3D

 27 29  0  0  0  0  0  0  0  0999 V2000
    8.2810   -1.3480   27.9500 C   0  0  0  0  0  0  0  0  0  0  0  0
    7.5410   -1.7920   26.8190 O   0  0  0  0  0  0  0  0  0  0  0  0
    7.2390   -0.7830   25.9200 C   0  0  0  0  0  0  0  0  0  0  0  0
    6.0980   -0.3690   25.7460 O   0  0  0  0  0  0  0  0  0  0  0  0
    8.3340   -0.2430   25.2230 C   0  0  2  0  0  0  0  0  0  0  0  0
    8.1060    0.1710   23.9040 C   0  0  0  0  0  0  0  0  0  0  0  0
    8.3830   -0.5930   22.7630 N   0  0  0  0  0  0  0  0  0  0  0  0
    8.1450   -0.0930   21.5140 C   0  0  0  0  0  0  0  0  0  0  0  0
    8.7720    0.8560   21.0760 O   0  0  0  0  0  0  0  0  0  0  0  0
    7.1370   -0.7600   20.9230 N   0  0  0  0  0  0  0  0  0  0  0  0
    6.4820   -0.0660   19.9740 C   0  0  0  0  0  0  0  0  0  0  0  0
    5.3070    0.6050   20.3080 C   0  0  0  0  0  0  0  0  0  0  0  0
    4.5980    1.3940   19.1920 C   0  0  0  0  0  0  0  0  0  0  0  0
    5.1860    1.3720   17.9530 C   0  0  0  0  0  0  0  0  0  0  0  0
    6.3180    0.7050   17.6880 N   0  0  0  0  0  0  0  0  0  0  0  0
    6.9270    0.0150   18.6780 C   0  0  0  0  0  0  0  0  0  0  0  0
    9.5100   -1.2350   25.2840 C   0  0  0  0  0  0  0  0  0  0  0  0
    9.9570   -1.3160   23.9910 C   0  0  0  0  0  0  0  0  0  0  0  0
   10.1910   -1.6470   22.6350 C   0  0  0  0  0  0  0  0  0  0  0  0
    9.4230   -2.7300   21.9530 C   0  0  0  0  0  0  0  0  0  0  0  0
    8.3510   -3.5510   22.6890 C   0  0  0  0  0  0  0  0  0  0  0  0
    7.5330   -4.6040   22.2170 C   0  0  0  0  0  0  0  0  0  0  0  0
    6.5950   -5.2830   22.9950 C   0  0  0  0  0  0  0  0  0  0  0  0
    6.4520   -4.9000   24.3210 C   0  0  0  0  0  0  0  0  0  0  0  0
    7.2640   -3.8620   24.7660 C   0  0  0  0  0  0  0  0  0  0  0  0
    8.1880   -3.2140   23.9460 C   0  0  0  0  0  0  0  0  0  0  0  0
    8.9420   -2.2040   24.4530 C   0  0  0  0  0  0  0  0  0  0  0  0
  1  2  1  0
  2  3  1  0
  3  4  2  0
  3  5  1  0
  5  6  1  6
  6  7  1  0
  7  8  1  0
  8  9  2  0
  8 10  1  0
 10 11  1  0
 11 12  2  0
 12 13  1  0
 13 14  2  0
 14 15  1  0
 11 16  1  0
 15 16  2  0
  5 17  1  0
 17 18  1  0
 18 19  2  0
 19 20  1  0
 20 21  2  0
 21 22  1  0
 22 23  2  0
 23 24  1  0
 24 25  2  0
 21 26  1  0
 25 26  1  0
 18 27  1  0
 26 27  2  0
M  END
