pyridine_urea_6684
     RDKit          3D

 22 23  0  0  0  0  0  0  0  0999 V2000
   12.9950    6.5870   22.6930 C   0  0  0  0  0  0  0  0  0  0  0  0
   11.6690    5.8420   22.9180 C   0  0  0  0  0  0  0  0  0  0  0  0
   10.4410    6.6490   23.3770 C   0  0  0  0  0  0  0  0  0  0  0  0
    9.1410    5.8760   23.5840 C   0  0  0  0  0  0  0  0  0  0  0  0
    9.1130    4.3990   23.3390 C   0  0  0  0  0  0  0  0  0  0  0  0
   10.2340    3.7010   22.9280 C   0  0  0  0  0  0  0  0  0  0  0  0
   10.0980    2.3630   22.7310 N   0  0  0  0  0  0  0  0  0  0  0  0
    8.8280    2.0060   22.3530 C   0  0  0  0  0  0  0  0  0  0  0  0
    8.5060    2.2160   21.1880 O   0  0  0  0  0  0  0  0  0  0  0  0
    7.9230    1.4000   23.2360 C   0  0  0  0  0  0  0  0  0  0  0  0
    7.9620    0.0600   22.9210 N   0  0  0  0  0  0  0  0  0  0  0  0
    8.1860   -0.4190   21.6290 C   0  0  0  0  0  0  0  0  0  0  0  0
    9.2980   -0.3840   21.1570 O   0  0  0  0  0  0  0  0  0  0  0  0
    7.0420   -0.8800   21.0600 N   0  0  0  0  0  0  0  0  0  0  0  0
    6.4600   -0.1600   20.0530 C   0  0  0  0  0  0  0  0  0  0  0  0
    5.2790    0.5700   20.3430 C   0  0  0  0  0  0  0  0  0  0  0  0
    4.5790    1.3630   19.3700 C   0  0  0  0  0  0  0  0  0  0  0  0
    5.3030    1.2830   18.0320 C   0  0  0  0  0  0  0  0  0  0  0  0
    6.4150    0.5900   17.7710 N   0  0  0  0  0  0  0  0  0  0  0  0
    6.9630   -0.1110   18.7710 C   0  0  0  0  0  0  0  0  0  0  0  0
   11.4700    4.3300   22.7160 C   0  0  0  0  0  0  0  0  0  0  0  0
   12.5750    3.6370   22.3120 C   0  0  0  0  0  0  0  0  0  0  0  0
  1  2  1  0
  2  3  2  0
  3  4  1  0
  4  5  2  0
  5  6  1  0
  6  7  1  0
  7  8  1  0
  8  9  2  0
  8 10  1  0
 10 11  1  0
 11 12  1  0
 12 13  2  0
 12 14  1  0
 14 15  1  0
 15 16  2  0
 16 17  1  0
 17 18  2  0
 18 19  1  0
 15 20  1  0
 19 20  2  0
  2 21  1  0
  6 21  2  0
 21 22  1  0
M  END
