pyridine_urea_2800
     RDKit          3D

 22 24  0  0  0  0  0  0  0  0999 V2000
    8.7760    1.4050   20.8980 O   0  0  0  0  0  0  0  0  0  0  0  0
    8.2630    0.4260   21.4230 C   0  0  0  0  0  0  0  0  0  0  0  0
    7.3660   -0.4360   20.8490 N   0  0  0  0  0  0  0  0  0  0  0  0
    6.5470    0.1940   19.8860 C   0  0  0  0  0  0  0  0  0  0  0  0
    5.2510    0.9450   20.3140 C   0  0  0  0  0  0  0  0  0  0  0  0
    4.5340    1.5530   19.3020 C   0  0  0  0  0  0  0  0  0  0  0  0
    5.1010    1.4120   17.8870 C   0  0  0  0  0  0  0  0  0  0  0  0
    6.2240    0.7330   17.5870 N   0  0  0  0  0  0  0  0  0  0  0  0
    6.9040    0.1540   18.5800 C   0  0  0  0  0  0  0  0  0  0  0  0
    8.4560    0.0450   22.6700 N   0  0  0  0  0  0  0  0  0  0  0  0
    9.7310   -0.4050   23.1040 C   0  0  0  0  0  0  0  0  0  0  0  0
   10.6850   -1.0110   22.0950 C   0  0  0  0  0  0  0  0  0  0  0  0
   12.0040   -1.5220   22.6390 C   0  0  0  0  0  0  0  0  0  0  0  0
   12.2230   -1.3760   24.1430 C   0  0  0  0  0  0  0  0  0  0  0  0
   13.6100   -2.0100   24.8480 Cl  0  0  0  0  0  0  0  0  0  0  0  0
   11.1880   -0.7050   25.0240 C   0  0  0  0  0  0  0  0  0  0  0  0
    9.9270   -0.2360   24.4330 C   0  0  0  0  0  0  0  0  0  0  0  0
    8.8940    0.3540   25.1660 C   0  0  0  0  0  0  0  0  0  0  0  0
    8.3720    1.5770   24.9300 N   0  0  0  0  0  0  0  0  0  0  0  0
    7.3710    1.7550   25.8520 N   0  0  0  0  0  0  0  0  0  0  0  0
    7.2610    0.6990   26.6430 N   0  0  0  0  0  0  0  0  0  0  0  0
    8.1970   -0.1660   26.2270 N   0  0  0  0  0  0  0  0  0  0  0  0
  1  2  2  0
  2  3  1  0
  3  4  1  0
  4  5  2  0
  5  6  1  0
  6  7  2  0
  7  8  1  0
  4  9  1  0
  8  9  2  0
  2 10  1  0
 10 11  1  0
 11 12  2  0
 12 13  1  0
 13 14  2  0
 14 15  1  0
 14 16  1  0
 11 17  1  0
 16 17  2  0
 17 18  1  0
 18 19  2  0
 19 20  1  0
 20 21  2  0
 18 22  1  0
 21 22  1  0
M  END
