pyridine_urea_577
     RDKit          3D

 24 26  0  0  0  0  0  0  0  0999 V2000
    9.7240    0.8100   25.3060 N   0  0  0  0  0  0  0  0  0  0  0  0
   10.1680    0.0510   24.2940 C   0  0  0  0  0  0  0  0  0  0  0  0
    9.1750   -0.5230   23.4320 C   0  0  0  0  0  0  0  0  0  0  0  0
    9.4370   -1.3180   22.3540 C   0  0  0  0  0  0  0  0  0  0  0  0
    8.3510   -1.6860   21.7320 N   0  0  0  0  0  0  0  0  0  0  0  0
    7.6790   -0.5440   21.2240 C   0  0  0  0  0  0  0  0  0  0  0  0
    8.2420    0.5620   21.0760 O   0  0  0  0  0  0  0  0  0  0  0  0
    6.3200   -0.7680   20.9110 N   0  0  0  0  0  0  0  0  0  0  0  0
    5.9550   -0.0210   19.8660 C   0  0  0  0  0  0  0  0  0  0  0  0
    4.8010    0.7300   20.0440 C   0  0  0  0  0  0  0  0  0  0  0  0
    4.4030    1.5840   18.8600 C   0  0  0  0  0  0  0  0  0  0  0  0
    5.1640    1.5750   17.7210 C   0  0  0  0  0  0  0  0  0  0  0  0
    6.2800    0.8230   17.5870 N   0  0  0  0  0  0  0  0  0  0  0  0
    6.6440    0.0610   18.6390 C   0  0  0  0  0  0  0  0  0  0  0  0
   10.8100   -1.6500   21.9970 C   0  0  0  0  0  0  0  0  0  0  0  0
   11.7550   -1.1140   22.7940 C   0  0  0  0  0  0  0  0  0  0  0  0
   11.4380   -0.2540   23.9590 C   0  0  0  0  0  0  0  0  0  0  0  0
   12.3770    0.1800   24.5990 N   0  0  0  0  0  0  0  0  0  0  0  0
   12.7890   -0.9820   25.0950 C   0  0  0  0  0  0  0  0  0  0  0  0
   13.3730   -1.8240   24.1620 C   0  0  0  0  0  0  0  0  0  0  0  0
   13.8350   -1.2720   23.1500 O   0  0  0  0  0  0  0  0  0  0  0  0
   13.4500    0.0330   22.6490 C   0  0  0  0  0  0  0  0  0  0  0  0
   12.9000    0.9020   23.5150 C   0  0  0  0  0  0  0  0  0  0  0  0
   12.8270    2.2400   23.2820 O   0  0  0  0  0  0  0  0  0  0  0  0
  1  2  1  0
  2  3  2  0
  3  4  1  0
  4  5  1  0
  5  6  1  0
  6  7  2  0
  6  8  1  0
  8  9  1  0
  9 10  2  0
 10 11  1  0
 11 12  2  0
 12 13  1  0
  9 14  1  0
 13 14  2  0
  4 15  2  0
 15 16  1  0
  2 17  1  0
 16 17  2  0
 17 18  1  0
 18 19  1  0
 19 20  1  0
 20 21  1  0
 21 22  1  0
 18 23  1  0
 22 23  1  0
 23 24  2  0
M  END
