pyridine_urea_12881
     RDKit          3D

 19 20  0  0  0  0  0  0  0  0999 V2000
    8.6580    1.2170   21.0610 O   0  0  0  0  0  0  0  0  0  0  0  0
    8.3120    0.1290   21.5500 C   0  0  0  0  0  0  0  0  0  0  0  0
    7.2210   -0.5620   21.0990 N   0  0  0  0  0  0  0  0  0  0  0  0
    6.5790    0.0310   19.9640 C   0  0  0  0  0  0  0  0  0  0  0  0
    5.3140    0.8520   20.2620 C   0  0  0  0  0  0  0  0  0  0  0  0
    4.6330    1.4870   19.2270 C   0  0  0  0  0  0  0  0  0  0  0  0
    5.1420    1.3480   17.9430 C   0  0  0  0  0  0  0  0  0  0  0  0
    6.2700    0.5960   17.7240 N   0  0  0  0  0  0  0  0  0  0  0  0
    6.9980   -0.0690   18.7040 C   0  0  0  0  0  0  0  0  0  0  0  0
    8.9600   -0.5020   22.5700 N   0  0  0  0  0  0  0  0  0  0  0  0
    9.6860   -1.0210   23.5860 C   0  0  1  0  0  0  0  0  0  0  0  0
   10.5820   -1.9770   23.0800 C   0  0  0  0  0  0  0  0  0  0  0  0
   11.4130   -1.4550   22.0450 O   0  0  0  0  0  0  0  0  0  0  0  0
   10.3760   -0.1880   24.4390 C   0  0  0  0  0  0  0  0  0  0  0  0
   11.3470    0.3930   23.7040 C   0  0  2  0  0  0  0  0  0  0  0  0
   12.6070   -0.1860   23.7670 C   0  0  0  0  0  0  0  0  0  0  0  0
   13.1490    0.7230   22.8230 C   0  0  0  0  0  0  0  0  0  0  0  0
   12.4350    1.8660   23.0410 C   0  0  0  0  0  0  0  0  0  0  0  0
   11.5720    1.6110   23.9090 O   0  0  0  0  0  0  0  0  0  0  0  0
  1  2  2  0
  2  3  1  0
  3  4  1  0
  4  5  2  0
  5  6  1  0
  6  7  2  0
  7  8  1  0
  4  9  1  0
  8  9  2  0
  2 10  1  0
 10 11  1  0
 11 12  1  6
 12 13  1  0
 11 14  1  0
 15 14  1  1
 15 16  1  0
 16 17  1  0
 17 18  1  0
 15 19  1  0
 18 19  1  0
M  END
