pyridine_urea_1311
     RDKit          3D

 20 21  0  0  0  0  0  0  0  0999 V2000
   12.0940    2.8230   22.7200 C   0  0  0  0  0  0  0  0  0  0  0  0
   11.9110    1.4090   22.6350 O   0  0  0  0  0  0  0  0  0  0  0  0
   10.6430    0.9170   22.8120 C   0  0  0  0  0  0  0  0  0  0  0  0
    9.6790    1.6320   23.0470 O   0  0  0  0  0  0  0  0  0  0  0  0
   10.5360   -0.6280   22.6940 C   0  0  2  0  0  0  0  0  0  0  0  0
    9.2050   -0.9560   22.2080 N   0  0  0  0  0  0  0  0  0  0  0  0
    8.4930   -0.0390   21.4600 C   0  0  0  0  0  0  0  0  0  0  0  0
    8.9650    1.2090   21.1420 O   0  0  0  0  0  0  0  0  0  0  0  0
    7.2670   -0.5330   21.0750 N   0  0  0  0  0  0  0  0  0  0  0  0
    6.5370    0.0760   20.0500 C   0  0  0  0  0  0  0  0  0  0  0  0
    5.3740    0.8020   20.3610 C   0  0  0  0  0  0  0  0  0  0  0  0
    4.7060    1.4040   19.3120 C   0  0  0  0  0  0  0  0  0  0  0  0
    5.1790    1.2800   18.0290 C   0  0  0  0  0  0  0  0  0  0  0  0
    6.2640    0.5930   17.6870 N   0  0  0  0  0  0  0  0  0  0  0  0
    6.9190    0.0050   18.7170 C   0  0  0  0  0  0  0  0  0  0  0  0
   10.7310   -1.2620   24.0120 C   0  0  0  0  0  0  0  0  0  0  0  0
   12.0810   -1.4560   24.2960 C   0  0  0  0  0  0  0  0  0  0  0  0
   12.9260   -0.4830   23.5280 C   0  0  0  0  0  0  0  0  0  0  0  0
   12.7160   -0.7950   22.1370 O   0  0  0  0  0  0  0  0  0  0  0  0
   11.4830   -1.3660   22.0040 C   0  0  0  0  0  0  0  0  0  0  0  0
  1  2  1  0
  2  3  1  0
  3  4  2  0
  5  3  1  0
  5  6  1  6
  6  7  1  0
  7  8  2  0
  7  9  1  0
  9 10  1  0
 10 11  2  0
 11 12  1  0
 12 13  2  0
 13 14  1  0
 10 15  1  0
 14 15  2  0
  5 16  1  0
 16 17  1  0
 17 18  1  0
 18 19  1  0
  5 20  1  0
 19 20  1  0
M  END
