pyridine_urea_237
     RDKit          3D

 17 17  0  0  0  0  0  0  0  0999 V2000
   13.1990    0.1840   22.9880 C   0  0  0  0  0  0  0  0  0  0  0  0
   12.5200   -0.7470   22.6890 C   0  0  2  0  0  0  0  0  0  0  0  0
   11.2180   -1.4140   22.3210 C   0  0  0  0  0  0  0  0  0  0  0  0
   10.1240   -0.6670   22.9910 C   0  0  0  0  0  0  0  0  0  0  0  0
    8.8570   -0.9380   22.3410 N   0  0  0  0  0  0  0  0  0  0  0  0
    8.2820   -0.0160   21.4990 C   0  0  0  0  0  0  0  0  0  0  0  0
    8.9130    1.2570   21.1270 O   0  0  0  0  0  0  0  0  0  0  0  0
    7.0770   -0.4690   21.1060 N   0  0  0  0  0  0  0  0  0  0  0  0
    6.4860    0.0910   20.0270 C   0  0  0  0  0  0  0  0  0  0  0  0
    5.2440    0.8660   20.2500 C   0  0  0  0  0  0  0  0  0  0  0  0
    4.4990    1.5130   19.3200 C   0  0  0  0  0  0  0  0  0  0  0  0
    5.2110    1.2760   18.0030 C   0  0  0  0  0  0  0  0  0  0  0  0
    6.3280    0.5850   17.7370 N   0  0  0  0  0  0  0  0  0  0  0  0
    6.9540   -0.0060   18.7550 C   0  0  0  0  0  0  0  0  0  0  0  0
   13.0540   -1.8130   23.6540 C   0  0  0  0  0  0  0  0  0  0  0  0
   12.1260   -2.7800   23.8030 F   0  0  0  0  0  0  0  0  0  0  0  0
   13.1890   -1.3060   24.8920 F   0  0  0  0  0  0  0  0  0  0  0  0
  2  1  1  1
  2  3  1  0
  3  4  1  0
  4  5  1  0
  5  6  1  0
  6  7  2  0
  6  8  1  0
  8  9  1  0
  9 10  2  0
 10 11  1  0
 11 12  2  0
 12 13  1  0
  9 14  1  0
 13 14  2  0
  2 15  1  0
 15 16  1  0
 15 17  1  0
M  END
