pyridine_urea_2574
     RDKit          3D

 23 25  0  0  0  0  0  0  0  0999 V2000
   13.2470    4.5110   22.1580 C   0  0  0  0  0  0  0  0  0  0  0  0
   13.5800    3.4090   22.6170 O   0  0  0  0  0  0  0  0  0  0  0  0
   12.5520    2.5170   22.7750 C   0  0  0  0  0  0  0  0  0  0  0  0
   11.1570    2.9180   22.9400 C   0  0  0  0  0  0  0  0  0  0  0  0
    9.9200    2.0880   23.1140 C   0  0  0  0  0  0  0  0  0  0  0  0
    9.9220    0.6130   23.1320 C   0  0  0  0  0  0  0  0  0  0  0  0
   10.3330   -0.7130   23.0900 C   0  0  0  0  0  0  0  0  0  0  0  0
    9.2500   -1.1720   22.2560 N   0  0  0  0  0  0  0  0  0  0  0  0
    8.7220   -0.1610   21.5130 C   0  0  0  0  0  0  0  0  0  0  0  0
    9.3340    1.1230   21.3600 O   0  0  0  0  0  0  0  0  0  0  0  0
    7.6060   -0.2950   20.8880 N   0  0  0  0  0  0  0  0  0  0  0  0
    6.6600    0.0910   20.0190 C   0  0  0  0  0  0  0  0  0  0  0  0
    5.4280    0.6040   20.4460 C   0  0  0  0  0  0  0  0  0  0  0  0
    4.5550    1.0220   19.4770 C   0  0  0  0  0  0  0  0  0  0  0  0
    4.9030    0.9260   18.1580 C   0  0  0  0  0  0  0  0  0  0  0  0
    6.0570    0.4300   17.7120 N   0  0  0  0  0  0  0  0  0  0  0  0
    6.9030    0.0240   18.6670 C   0  0  0  0  0  0  0  0  0  0  0  0
   11.1350    1.1130   22.9810 C   0  0  0  0  0  0  0  0  0  0  0  0
   11.1740    2.3290   22.9460 C   0  0  0  0  0  0  0  0  0  0  0  0
   12.4410    1.5940   22.8260 C   0  0  0  0  0  0  0  0  0  0  0  0
   11.8280    0.1800   22.9230 C   0  0  0  0  0  0  0  0  0  0  0  0
   13.1800   -0.0470   22.7760 C   0  0  0  0  0  0  0  0  0  0  0  0
   12.4580    1.0300   22.8310 C   0  0  0  0  0  0  0  0  0  0  0  0
  1  2  1  0
  2  3  1  0
  3  4  2  0
  4  5  1  0
  5  6  2  0
  6  7  1  0
  7  8  1  0
  8  9  1  0
  9 10  2  0
  9 11  1  0
 11 12  1  0
 12 13  2  0
 13 14  1  0
 14 15  2  0
 15 16  1  0
 12 17  1  0
 16 17  2  0
  6 18  1  0
 18 19  1  0
 19 20  2  0
 20 21  1  0
 21 22  2  0
  3 23  1  0
 18 23  2  0
 22 23  1  0
M  END
