pyridine_urea_3099
     RDKit          3D

 21 22  0  0  0  0  0  0  0  0999 V2000
   12.3390   -2.1390   21.4300 C   0  0  0  0  0  0  0  0  0  0  0  0
   10.6690   -1.7520   21.9530 S   0  0  0  0  0  0  0  0  0  0  0  0
    9.9930   -0.8980   21.0440 O   0  0  0  0  0  0  0  0  0  0  0  0
   10.0250   -2.9560   22.4310 O   0  0  0  0  0  0  0  0  0  0  0  0
   10.7840   -0.6480   23.3460 C   0  0  0  0  0  0  0  0  0  0  0  0
    9.4930   -0.6640   23.8290 C   0  0  0  0  0  0  0  0  0  0  0  0
    8.5670   -1.0730   22.7590 N   0  0  0  0  0  0  0  0  0  0  0  0
    8.1400   -0.2120   21.7490 C   0  0  0  0  0  0  0  0  0  0  0  0
    8.7180    0.8290   21.4520 O   0  0  0  0  0  0  0  0  0  0  0  0
    6.9300   -0.7410   21.1120 N   0  0  0  0  0  0  0  0  0  0  0  0
    6.3620   -0.0510   20.0680 C   0  0  0  0  0  0  0  0  0  0  0  0
    5.0850    0.7340   20.3180 C   0  0  0  0  0  0  0  0  0  0  0  0
    4.5230    1.4340   19.2630 C   0  0  0  0  0  0  0  0  0  0  0  0
    5.2520    1.3480   17.9180 C   0  0  0  0  0  0  0  0  0  0  0  0
    6.3870    0.6330   17.7410 N   0  0  0  0  0  0  0  0  0  0  0  0
    6.9070   -0.0390   18.7970 C   0  0  0  0  0  0  0  0  0  0  0  0
   10.9910    0.7830   22.8800 C   0  0  0  0  0  0  0  0  0  0  0  0
   12.2930    1.2100   22.8990 C   0  0  0  0  0  0  0  0  0  0  0  0
   12.7010    0.9470   24.2010 O   0  0  0  0  0  0  0  0  0  0  0  0
   12.8960   -0.4250   24.4560 C   0  0  0  0  0  0  0  0  0  0  0  0
   11.8200   -1.1850   24.0950 C   0  0  0  0  0  0  0  0  0  0  0  0
  2  1  1  0
  2  3  2  0
  2  4  2  0
  2  5  1  0
  5  6  1  0
  6  7  1  0
  7  8  1  0
  8  9  2  0
  8 10  1  0
 10 11  1  0
 11 12  2  0
 12 13  1  0
 13 14  2  0
 14 15  1  0
 11 16  1  0
 15 16  2  0
  5 17  1  0
 17 18  1  0
 18 19  1  0
 19 20  1  0
  5 21  1  0
 20 21  1  0
M  END
