pyridine_urea_14983
     RDKit          3D

 19 20  0  0  0  0  0  0  0  0999 V2000
    5.5470    3.0530   21.3250 C   0  0  0  0  0  0  0  0  0  0  0  0
    4.6090    1.9680   20.7460 C   0  0  0  0  0  0  0  0  0  0  0  0
    4.2350    2.3610   19.3120 C   0  0  0  0  0  0  0  0  0  0  0  0
    4.8910    1.5410   18.2340 C   0  0  0  0  0  0  0  0  0  0  0  0
    5.8110    0.5000   17.7080 N   0  0  0  0  0  0  0  0  0  0  0  0
    6.5300   -0.1700   18.5430 C   0  0  0  0  0  0  0  0  0  0  0  0
    7.5200   -1.2580   18.6000 C   0  0  0  0  0  0  0  0  0  0  0  0
    6.5710   -0.0130   19.9230 C   0  0  0  0  0  0  0  0  0  0  0  0
    7.1990   -0.5030   21.1490 N   0  0  0  0  0  0  0  0  0  0  0  0
    8.4540    0.0300   21.5260 C   0  0  0  0  0  0  0  0  0  0  0  0
    8.8410    1.1430   21.1370 O   0  0  0  0  0  0  0  0  0  0  0  0
    9.1580   -0.8050   22.3290 N   0  0  0  0  0  0  0  0  0  0  0  0
   10.4260   -0.3600   22.5220 C   0  0  0  0  0  0  0  0  0  0  0  0
   11.4690   -1.2650   22.4090 C   0  0  0  0  0  0  0  0  0  0  0  0
   12.7720   -0.8810   22.5780 C   0  0  0  0  0  0  0  0  0  0  0  0
   13.0470    0.4270   22.8590 C   0  0  0  0  0  0  0  0  0  0  0  0
   12.0950    1.3830   22.9860 N   0  0  0  0  0  0  0  0  0  0  0  0
   10.6720    0.9930   22.8190 C   0  0  0  0  0  0  0  0  0  0  0  0
    5.4260    1.2080   19.9780 S   0  0  0  0  0  0  0  0  0  0  0  0
  1  2  1  0
  2  3  1  0
  3  4  1  0
  4  5  2  0
  5  6  1  0
  6  7  1  0
  6  8  2  0
  8  9  1  0
  9 10  1  0
 10 11  2  0
 10 12  1  0
 12 13  1  0
 13 14  2  0
 14 15  1  0
 15 16  2  0
 16 17  1  0
 13 18  1  0
 17 18  2  0
  4 19  1  0
  8 19  1  0
M  END
