pyridine_urea_7788
     RDKit          3D

 26 29  0  0  0  0  0  0  0  0999 V2000
    8.2810    0.9600   20.9300 O   0  0  0  0  0  0  0  0  0  0  0  0
    7.9500   -0.2120   20.7840 C   0  0  0  0  0  0  0  0  0  0  0  0
    6.6940   -0.6680   20.6900 N   0  0  0  0  0  0  0  0  0  0  0  0
    6.0610    0.0700   19.7530 C   0  0  0  0  0  0  0  0  0  0  0  0
    4.8260    0.6510   19.9730 C   0  0  0  0  0  0  0  0  0  0  0  0
    4.2890    1.4190   18.9550 C   0  0  0  0  0  0  0  0  0  0  0  0
    5.0160    1.5580   17.7850 C   0  0  0  0  0  0  0  0  0  0  0  0
    6.2070    0.9840   17.5700 N   0  0  0  0  0  0  0  0  0  0  0  0
    6.6930    0.2570   18.5630 C   0  0  0  0  0  0  0  0  0  0  0  0
    8.8740   -1.1680   20.6850 N   0  0  0  0  0  0  0  0  0  0  0  0
    9.5860   -0.9630   21.8280 C   0  0  0  0  0  0  0  0  0  0  0  0
   10.9750   -1.5220   21.9330 C   0  0  0  0  0  0  0  0  0  0  0  0
   11.5300   -1.2800   23.1500 C   0  0  0  0  0  0  0  0  0  0  0  0
   10.7130   -0.5740   24.0490 C   0  0  0  0  0  0  0  0  0  0  0  0
    9.4900   -0.0610   23.8670 C   0  0  0  0  0  0  0  0  0  0  0  0
    8.9230   -0.2620   22.7510 C   0  0  0  0  0  0  0  0  0  0  0  0
    8.8080    0.6350   24.8200 C   0  0  0  0  0  0  0  0  0  0  0  0
    8.8250   -0.0780   25.9550 C   0  0  0  0  0  0  0  0  0  0  0  0
   10.1600   -0.2000   26.2640 C   0  0  0  0  0  0  0  0  0  0  0  0
   10.2760   -0.0790   27.6050 O   0  0  0  0  0  0  0  0  0  0  0  0
   11.1650   -0.3900   25.2740 N   0  0  0  0  0  0  0  0  0  0  0  0
   12.4990   -0.3330   25.2520 C   0  0  0  0  0  0  0  0  0  0  0  0
   13.0990   -1.2950   24.5120 C   0  0  0  0  0  0  0  0  0  0  0  0
   12.2830   -2.2150   23.9780 C   0  0  0  0  0  0  0  0  0  0  0  0
   13.0270   -3.1110   24.6320 C   0  0  0  0  0  0  0  0  0  0  0  0
   13.7860   -2.3120   25.4380 C   0  0  0  0  0  0  0  0  0  0  0  0
  1  2  2  0
  2  3  1  0
  3  4  1  0
  4  5  2  0
  5  6  1  0
  6  7  2  0
  7  8  1  0
  4  9  1  0
  8  9  2  0
  2 10  1  0
 10 11  1  0
 11 12  2  0
 12 13  1  0
 13 14  2  0
 14 15  1  0
 11 16  1  0
 15 16  2  0
 15 17  1  0
 17 18  1  0
 18 19  1  0
 19 20  2  0
 14 21  1  0
 19 21  1  0
 21 22  1  0
 22 23  1  0
 23 24  1  0
 24 25  1  0
 23 26  1  0
 25 26  1  0
M  END
