pyridine_urea_9912
     RDKit          3D

 25 27  0  0  0  0  0  0  0  0999 V2000
    8.7160    0.9100   21.2560 O   0  0  0  0  0  0  0  0  0  0  0  0
    8.4660   -0.2880   21.2460 C   0  0  0  0  0  0  0  0  0  0  0  0
    7.2030   -0.7890   21.0280 N   0  0  0  0  0  0  0  0  0  0  0  0
    6.4980   -0.0690   20.0100 C   0  0  0  0  0  0  0  0  0  0  0  0
    5.2150    0.6700   20.3880 C   0  0  0  0  0  0  0  0  0  0  0  0
    4.5030    1.4450   19.2790 C   0  0  0  0  0  0  0  0  0  0  0  0
    5.1690    1.3920   17.9040 C   0  0  0  0  0  0  0  0  0  0  0  0
    6.3450    0.6580   17.7300 N   0  0  0  0  0  0  0  0  0  0  0  0
    6.9670   -0.0320   18.7250 C   0  0  0  0  0  0  0  0  0  0  0  0
    9.4300   -1.2470   21.4370 N   0  0  0  0  0  0  0  0  0  0  0  0
   10.3720   -0.9530   22.4160 C   0  0  0  0  0  0  0  0  0  0  0  0
   11.7600   -0.9720   22.3890 C   0  0  0  0  0  0  0  0  0  0  0  0
   12.5880   -0.6480   23.4350 C   0  0  0  0  0  0  0  0  0  0  0  0
   12.0130   -0.2800   24.6350 C   0  0  0  0  0  0  0  0  0  0  0  0
   10.6020   -0.2210   24.8210 C   0  0  0  0  0  0  0  0  0  0  0  0
    9.7530    0.0970   25.9100 C   0  0  0  0  0  0  0  0  0  0  0  0
   10.2220   -0.1960   26.9850 O   0  0  0  0  0  0  0  0  0  0  0  0
    8.5070    0.6520   25.7710 N   0  0  0  0  0  0  0  0  0  0  0  0
    7.8420    0.8250   27.0590 C   0  0  0  0  0  0  0  0  0  0  0  0
    7.1980   -0.3720   27.3990 C   0  0  0  0  0  0  0  0  0  0  0  0
    6.5000   -1.4120   26.6530 C   0  0  0  0  0  0  0  0  0  0  0  0
    5.9950   -2.4570   27.3850 C   0  0  0  0  0  0  0  0  0  0  0  0
    6.2400   -2.3500   28.7620 C   0  0  0  0  0  0  0  0  0  0  0  0
    7.1380   -0.8710   29.1100 S   0  0  0  0  0  0  0  0  0  0  0  0
    9.6810   -0.5640   23.6620 C   0  0  0  0  0  0  0  0  0  0  0  0
  1  2  2  0
  2  3  1  0
  3  4  1  0
  4  5  2  0
  5  6  1  0
  6  7  2  0
  7  8  1  0
  4  9  1  0
  8  9  2  0
  2 10  1  0
 10 11  1  0
 11 12  2  0
 12 13  1  0
 13 14  2  0
 14 15  1  0
 15 16  1  0
 16 17  2  0
 16 18  1  0
 18 19  1  0
 19 20  1  0
 20 21  2  0
 21 22  1  0
 22 23  2  0
 20 24  1  0
 23 24  1  0
 11 25  1  0
 15 25  2  0
M  END
