pyridine_urea_3411
     RDKit          3D

 19 19  0  0  0  0  0  0  0  0999 V2000
   10.3180   -1.2390   24.5750 C   0  0  0  0  0  0  0  0  0  0  0  0
   10.1970   -0.1870   23.4980 C   0  0  0  0  0  0  0  0  0  0  0  0
   10.1350    1.1190   23.9700 C   0  0  0  0  0  0  0  0  0  0  0  0
   11.4640   -0.1840   22.6110 C   0  0  0  0  0  0  0  0  0  0  0  0
   12.5580   -0.7090   23.2360 C   0  0  0  0  0  0  0  0  0  0  0  0
   12.7760   -2.3960   23.2530 S   0  0  0  0  0  0  0  0  0  0  0  0
   12.9280   -2.3300   21.5400 C   0  0  0  0  0  0  0  0  0  0  0  0
   11.5180   -3.0060   23.6280 O   0  0  0  0  0  0  0  0  0  0  0  0
   14.0110   -2.7720   23.8920 O   0  0  0  0  0  0  0  0  0  0  0  0
    9.0090   -0.5270   22.7180 N   0  0  0  0  0  0  0  0  0  0  0  0
    8.5030    0.1840   21.6370 C   0  0  0  0  0  0  0  0  0  0  0  0
    8.9900    1.2510   21.2410 O   0  0  0  0  0  0  0  0  0  0  0  0
    7.3420   -0.4990   21.0830 N   0  0  0  0  0  0  0  0  0  0  0  0
    6.6340    0.0820   20.0570 C   0  0  0  0  0  0  0  0  0  0  0  0
    5.4900    0.8300   20.3310 C   0  0  0  0  0  0  0  0  0  0  0  0
    4.7400    1.4490   19.3540 C   0  0  0  0  0  0  0  0  0  0  0  0
    5.1770    1.2990   18.0460 C   0  0  0  0  0  0  0  0  0  0  0  0
    6.2700    0.5820   17.7250 N   0  0  0  0  0  0  0  0  0  0  0  0
    6.9700   -0.0090   18.7240 C   0  0  0  0  0  0  0  0  0  0  0  0
  1  2  1  0
  2  3  1  0
  2  4  1  0
  4  5  1  0
  6  5  1  0
  6  7  1  0
  6  8  2  0
  6  9  2  0
  2 10  1  0
 10 11  1  0
 11 12  2  0
 11 13  1  0
 13 14  1  0
 14 15  2  0
 15 16  1  0
 16 17  2  0
 17 18  1  0
 14 19  1  0
 18 19  2  0
M  END
