pyridine_urea_12058
     RDKit          3D

 23 25  0  0  0  0  0  0  0  0999 V2000
   13.4820   -3.3570   25.4700 C   0  0  0  0  0  0  0  0  0  0  0  0
   13.8430   -2.6800   24.3960 N   0  0  0  0  0  0  0  0  0  0  0  0
   13.3520   -2.8480   23.0920 C   0  0  0  0  0  0  0  0  0  0  0  0
   13.2270   -1.6360   22.5050 C   0  0  0  0  0  0  0  0  0  0  0  0
   13.1020   -0.8130   23.5740 C   0  0  1  0  0  0  0  0  0  0  0  0
   11.7510   -0.7490   23.6160 N   0  0  0  0  0  0  0  0  0  0  0  0
   11.5240   -0.4010   22.3590 C   0  0  0  0  0  0  0  0  0  0  0  0
   10.2370   -0.6370   22.1660 C   0  0  0  0  0  0  0  0  0  0  0  0
    9.4000    0.1560   22.9030 C   0  0  0  0  0  0  0  0  0  0  0  0
    8.1330   -0.2270   22.8220 N   0  0  0  0  0  0  0  0  0  0  0  0
    7.6530    0.0390   21.5670 C   0  0  0  0  0  0  0  0  0  0  0  0
    8.1910    0.9000   20.8880 O   0  0  0  0  0  0  0  0  0  0  0  0
    6.5910   -0.6920   21.1810 N   0  0  0  0  0  0  0  0  0  0  0  0
    6.1380   -0.0270   20.0230 C   0  0  0  0  0  0  0  0  0  0  0  0
    4.9850    0.7380   20.0770 C   0  0  0  0  0  0  0  0  0  0  0  0
    4.4990    1.4530   18.9840 C   0  0  0  0  0  0  0  0  0  0  0  0
    5.1390    1.4580   17.7400 C   0  0  0  0  0  0  0  0  0  0  0  0
    6.2910    0.6960   17.6400 N   0  0  0  0  0  0  0  0  0  0  0  0
    6.8210   -0.0370   18.6850 C   0  0  0  0  0  0  0  0  0  0  0  0
    9.8880    0.4380   24.3450 C   0  0  0  0  0  0  0  0  0  0  0  0
   11.2170    0.1510   24.4980 C   0  0  0  0  0  0  0  0  0  0  0  0
   13.4010   -1.3570   24.7490 C   0  0  0  0  0  0  0  0  0  0  0  0
   13.2750   -0.8530   25.8260 O   0  0  0  0  0  0  0  0  0  0  0  0
  1  2  1  0
  2  3  1  0
  3  4  1  0
  4  5  1  0
  5  6  1  1
  6  7  1  0
  7  8  1  0
  8  9  1  0
  9 10  1  0
 10 11  1  0
 11 12  2  0
 11 13  1  0
 13 14  1  0
 14 15  2  0
 15 16  1  0
 16 17  2  0
 17 18  1  0
 14 19  1  0
 18 19  2  0
  9 20  1  0
  6 21  1  0
 20 21  1  0
  2 22  1  0
  5 22  1  0
 22 23  2  0
M  END
