pyridine_urea_12765
     RDKit          3D

 20 20  0  0  0  0  0  0  0  0999 V2000
    8.4800   -1.0990   27.5260 C   0  0  0  0  0  0  0  0  0  0  0  0
    7.5380   -2.2830   27.2080 C   0  0  0  0  0  0  0  0  0  0  0  0
    7.2280   -2.3140   25.6940 C   0  0  0  0  0  0  0  0  0  0  0  0
    8.2080   -2.8050   24.8310 C   0  0  0  0  0  0  0  0  0  0  0  0
    8.4540   -2.0160   23.9170 O   0  0  0  0  0  0  0  0  0  0  0  0
    9.4550   -1.0800   24.0640 C   0  0  0  0  0  0  0  0  0  0  0  0
    9.0290   -1.0650   25.2040 O   0  0  0  0  0  0  0  0  0  0  0  0
    9.6690   -1.3530   22.7130 C   0  0  0  0  0  0  0  0  0  0  0  0
   10.2140   -0.4430   21.8850 C   0  0  0  0  0  0  0  0  0  0  0  0
   10.6600   -2.4530   22.3910 C   0  0  0  0  0  0  0  0  0  0  0  0
    8.3880   -1.5650   22.0950 N   0  0  0  0  0  0  0  0  0  0  0  0
    7.8820   -0.5050   21.4240 C   0  0  0  0  0  0  0  0  0  0  0  0
    8.4700    0.5660   21.2990 O   0  0  0  0  0  0  0  0  0  0  0  0
    6.6340   -0.7850   20.9070 N   0  0  0  0  0  0  0  0  0  0  0  0
    6.1810   -0.0580   19.8650 C   0  0  0  0  0  0  0  0  0  0  0  0
    4.9920    0.6140   20.1140 C   0  0  0  0  0  0  0  0  0  0  0  0
    4.4650    1.4430   18.9980 C   0  0  0  0  0  0  0  0  0  0  0  0
    5.1670    1.4950   17.8180 C   0  0  0  0  0  0  0  0  0  0  0  0
    6.3230    0.8270   17.6000 N   0  0  0  0  0  0  0  0  0  0  0  0
    6.8130    0.0470   18.6530 C   0  0  0  0  0  0  0  0  0  0  0  0
  1  2  1  0
  2  3  1  0
  3  4  1  0
  4  5  1  0
  5  6  1  0
  6  7  2  0
  8  6  1  0
  8  9  1  0
  8 10  1  0
  8 11  1  0
 11 12  1  0
 12 13  2  0
 12 14  1  0
 14 15  1  0
 15 16  2  0
 16 17  1  0
 17 18  2  0
 18 19  1  0
 15 20  1  0
 19 20  2  0
M  END
