pyridine_urea_12766
     RDKit          3D

 20 22  0  0  0  0  0  0  0  0999 V2000
   12.9850   -2.6840   21.0280 C   0  0  0  0  0  0  0  0  0  0  0  0
   12.8590   -2.2440   22.2960 N   0  0  0  0  0  0  0  0  0  0  0  0
   13.7640   -2.5420   23.3700 C   0  0  0  0  0  0  0  0  0  0  0  0
   13.2660   -1.8330   24.5680 C   0  0  0  0  0  0  0  0  0  0  0  0
   12.1420   -1.2040   24.1900 C   0  0  0  0  0  0  0  0  0  0  0  0
   11.3830   -0.4530   25.0160 C   0  0  0  0  0  0  0  0  0  0  0  0
   10.2330    0.0860   24.4850 C   0  0  0  0  0  0  0  0  0  0  0  0
    9.8920   -0.1350   23.1710 C   0  0  0  0  0  0  0  0  0  0  0  0
    8.7420    0.3770   22.7200 N   0  0  0  0  0  0  0  0  0  0  0  0
    8.3280    0.5600   21.4640 C   0  0  0  0  0  0  0  0  0  0  0  0
    8.8180    1.5250   20.8940 O   0  0  0  0  0  0  0  0  0  0  0  0
    7.4030   -0.3060   20.9970 N   0  0  0  0  0  0  0  0  0  0  0  0
    6.6460    0.2110   20.0170 C   0  0  0  0  0  0  0  0  0  0  0  0
    5.4890    0.9200   20.3740 C   0  0  0  0  0  0  0  0  0  0  0  0
    4.7030    1.4840   19.3610 C   0  0  0  0  0  0  0  0  0  0  0  0
    5.1520    1.2940   17.9570 C   0  0  0  0  0  0  0  0  0  0  0  0
    6.2520    0.6040   17.6590 N   0  0  0  0  0  0  0  0  0  0  0  0
    6.9600    0.0870   18.6840 C   0  0  0  0  0  0  0  0  0  0  0  0
   10.7170   -0.8880   22.3350 C   0  0  0  0  0  0  0  0  0  0  0  0
   11.8430   -1.4320   22.8390 C   0  0  0  0  0  0  0  0  0  0  0  0
  1  2  1  0
  2  3  1  0
  3  4  2  0
  4  5  1  0
  5  6  1  0
  6  7  2  0
  7  8  1  0
  8  9  1  0
  9 10  1  0
 10 11  2  0
 10 12  1  0
 12 13  1  0
 13 14  2  0
 14 15  1  0
 15 16  2  0
 16 17  1  0
 13 18  1  0
 17 18  2  0
  8 19  2  0
  2 20  1  0
  5 20  2  0
 19 20  1  0
M  END
