pyridine_urea_11689
     RDKit          3D

 26 29  0  0  0  0  0  0  0  0999 V2000
    8.8490    1.0350   21.4680 O   0  0  0  0  0  0  0  0  0  0  0  0
    8.5580   -0.1460   21.3200 C   0  0  0  0  0  0  0  0  0  0  0  0
    9.4460   -1.1860   21.3470 N   0  0  0  0  0  0  0  0  0  0  0  0
   10.6060   -1.1240   22.1200 C   0  0  0  0  0  0  0  0  0  0  0  0
   11.8210   -1.7250   21.7050 C   0  0  0  0  0  0  0  0  0  0  0  0
   12.4610   -1.2230   22.5480 C   0  0  0  0  0  0  0  0  0  0  0  0
   12.3280   -0.4980   23.4500 C   0  0  0  0  0  0  0  0  0  0  0  0
   11.2990    0.1940   24.0300 C   0  0  0  0  0  0  0  0  0  0  0  0
   10.1450    0.7280   24.6280 C   0  0  0  0  0  0  0  0  0  0  0  0
    8.7810    0.2090   25.0860 C   0  0  0  0  0  0  0  0  0  0  0  0
    8.5750   -1.0510   24.8950 C   0  0  0  0  0  0  0  0  0  0  0  0
    9.5170   -1.7820   24.3420 C   0  0  0  0  0  0  0  0  0  0  0  0
   10.7820   -1.3000   23.9270 C   0  0  0  0  0  0  0  0  0  0  0  0
    9.3120   -3.1040   24.1290 O   0  0  0  0  0  0  0  0  0  0  0  0
    8.0780   -3.2680   23.5770 C   0  0  0  0  0  0  0  0  0  0  0  0
    7.0750   -2.6540   24.3340 C   0  0  0  0  0  0  0  0  0  0  0  0
    7.5320   -1.6100   25.2140 O   0  0  0  0  0  0  0  0  0  0  0  0
   13.4600   -0.8070   23.3920 O   0  0  0  0  0  0  0  0  0  0  0  0
   13.2530   -1.7420   22.1140 N   0  0  0  0  0  0  0  0  0  0  0  0
    7.2660   -0.5070   21.0510 N   0  0  0  0  0  0  0  0  0  0  0  0
    6.5730    0.0530   20.0520 C   0  0  0  0  0  0  0  0  0  0  0  0
    5.3040    0.8420   20.3370 C   0  0  0  0  0  0  0  0  0  0  0  0
    4.6190    1.4360   19.2860 C   0  0  0  0  0  0  0  0  0  0  0  0
    5.1190    1.2870   17.9970 C   0  0  0  0  0  0  0  0  0  0  0  0
    6.2270    0.5920   17.6920 N   0  0  0  0  0  0  0  0  0  0  0  0
    6.9390   -0.0200   18.7290 C   0  0  0  0  0  0  0  0  0  0  0  0
  1  2  2  0
  2  3  1  0
  3  4  1  0
  4  5  1  0
  5  6  1  0
  6  7  2  0
  7  8  1  0
  8  9  2  0
  9 10  1  0
 10 11  2  0
 11 12  1  0
  8 13  1  0
 12 13  2  0
 12 14  1  0
 14 15  1  0
 15 16  1  0
 11 17  1  0
 16 17  1  0
  7 18  1  0
  5 19  2  0
 18 19  1  0
  2 20  1  0
 20 21  1  0
 21 22  2  0
 22 23  1  0
 23 24  2  0
 24 25  1  0
 21 26  1  0
 25 26  2  0
M  END
