pyridine_urea_7166
     RDKit          3D

 19 20  0  0  0  0  0  0  0  0999 V2000
   13.1750   -1.9650   21.7510 C   0  0  0  0  0  0  0  0  0  0  0  0
   12.1810   -1.0480   22.3940 C   0  0  0  0  0  0  0  0  0  0  0  0
   12.6170    0.0540   23.1120 C   0  0  0  0  0  0  0  0  0  0  0  0
   13.9980    0.1160   23.1130 O   0  0  0  0  0  0  0  0  0  0  0  0
   11.7630    0.9530   23.7340 C   0  0  0  0  0  0  0  0  0  0  0  0
   10.4290    0.7310   23.6170 C   0  0  0  0  0  0  0  0  0  0  0  0
    9.9210   -0.3370   22.9140 C   0  0  0  0  0  0  0  0  0  0  0  0
    8.5120   -0.5200   22.7850 N   0  0  0  0  0  0  0  0  0  0  0  0
    8.0270    0.0540   21.6430 C   0  0  0  0  0  0  0  0  0  0  0  0
    8.6040    1.2080   21.1080 O   0  0  0  0  0  0  0  0  0  0  0  0
    6.8780   -0.7110   21.1350 N   0  0  0  0  0  0  0  0  0  0  0  0
    6.3350   -0.0120   20.0010 C   0  0  0  0  0  0  0  0  0  0  0  0
    5.1550    0.7170   20.1980 C   0  0  0  0  0  0  0  0  0  0  0  0
    4.5900    1.4230   19.1350 C   0  0  0  0  0  0  0  0  0  0  0  0
    5.2070    1.3980   17.8880 C   0  0  0  0  0  0  0  0  0  0  0  0
    6.3330    0.7200   17.6310 N   0  0  0  0  0  0  0  0  0  0  0  0
    6.8940   -0.0070   18.7510 C   0  0  0  0  0  0  0  0  0  0  0  0
   10.8330   -1.2810   22.2750 C   0  0  0  0  0  0  0  0  0  0  0  0
   10.2300   -2.3700   21.5740 O   0  0  0  0  0  0  0  0  0  0  0  0
  1  2  1  0
  2  3  2  0
  3  4  1  0
  3  5  1  0
  5  6  2  0
  6  7  1  0
  7  8  1  0
  8  9  1  0
  9 10  2  0
  9 11  1  0
 11 12  1  0
 12 13  2  0
 13 14  1  0
 14 15  2  0
 15 16  1  0
 12 17  1  0
 16 17  2  0
  2 18  1  0
  7 18  2  0
 18 19  1  0
M  END
