pyridine_urea_13131
     RDKit          3D

 18 19  0  0  0  0  0  0  0  0999 V2000
    9.5640   -2.8840   23.6380 C   0  0  0  0  0  0  0  0  0  0  0  0
   10.6880   -2.3160   22.9690 O   0  0  0  0  0  0  0  0  0  0  0  0
   10.9300   -0.9920   23.1900 C   0  0  0  0  0  0  0  0  0  0  0  0
   10.0860   -0.0400   22.7130 C   0  0  0  0  0  0  0  0  0  0  0  0
    8.8390   -0.6260   22.3400 N   0  0  0  0  0  0  0  0  0  0  0  0
    8.1900    0.0950   21.3960 C   0  0  0  0  0  0  0  0  0  0  0  0
    8.6170    1.1980   21.0210 O   0  0  0  0  0  0  0  0  0  0  0  0
    6.9980   -0.5970   20.9470 N   0  0  0  0  0  0  0  0  0  0  0  0
    6.3550    0.0520   19.9540 C   0  0  0  0  0  0  0  0  0  0  0  0
    5.0620    0.7810   20.2470 C   0  0  0  0  0  0  0  0  0  0  0  0
    4.4480    1.4540   19.2050 C   0  0  0  0  0  0  0  0  0  0  0  0
    5.1560    1.3900   17.8470 C   0  0  0  0  0  0  0  0  0  0  0  0
    6.3050    0.7150   17.6470 N   0  0  0  0  0  0  0  0  0  0  0  0
    6.8670    0.0720   18.6840 C   0  0  0  0  0  0  0  0  0  0  0  0
   12.2630   -0.6380   22.5690 C   0  0  0  0  0  0  0  0  0  0  0  0
   13.1560   -0.4170   23.5540 C   0  0  0  0  0  0  0  0  0  0  0  0
   12.4060   -0.1660   24.6830 C   0  0  0  0  0  0  0  0  0  0  0  0
   11.1670   -0.7360   24.5270 C   0  0  0  0  0  0  0  0  0  0  0  0
  1  2  1  0
  3  2  1  0
  3  4  1  0
  4  5  1  0
  5  6  1  0
  6  7  2  0
  6  8  1  0
  8  9  1  0
  9 10  2  0
 10 11  1  0
 11 12  2  0
 12 13  1  0
  9 14  1  0
 13 14  2  0
  3 15  1  0
 15 16  1  0
 16 17  1  0
  3 18  1  0
 17 18  1  0
M  END
