pyridine_urea_12061
     RDKit          3D

 23 25  0  0  0  0  0  0  0  0999 V2000
    9.7460    0.6550   21.9810 O   0  0  0  0  0  0  0  0  0  0  0  0
    8.7040    0.2180   21.5910 C   0  0  0  0  0  0  0  0  0  0  0  0
    7.6730   -0.5720   21.1330 N   0  0  0  0  0  0  0  0  0  0  0  0
    6.8730   -0.0820   20.0760 C   0  0  0  0  0  0  0  0  0  0  0  0
    5.6000    0.7240   20.2990 C   0  0  0  0  0  0  0  0  0  0  0  0
    4.7050    1.3040   19.2150 C   0  0  0  0  0  0  0  0  0  0  0  0
    5.1950    1.0130   17.9760 C   0  0  0  0  0  0  0  0  0  0  0  0
    6.1060    0.4180   18.4890 N   0  0  0  0  0  0  0  0  0  0  0  0
    7.1080   -0.2320   18.7440 C   0  0  0  0  0  0  0  0  0  0  0  0
    9.3680   -1.0080   21.5700 N   0  0  0  0  0  0  0  0  0  0  0  0
   10.3820   -1.4140   22.6120 C   0  0  2  0  0  0  0  0  0  0  0  0
   10.5730   -0.4360   23.6650 C   0  0  0  0  0  0  0  0  0  0  0  0
   11.9120   -0.4680   23.4000 C   0  0  2  0  0  0  0  0  0  0  0  0
   12.5640    0.7120   23.0030 C   0  0  0  0  0  0  0  0  0  0  0  0
   12.3020    1.7770   23.5550 O   0  0  0  0  0  0  0  0  0  0  0  0
   11.2920    2.5870   23.0160 C   0  0  0  0  0  0  0  0  0  0  0  0
   11.6700    3.9190   23.0060 C   0  0  0  0  0  0  0  0  0  0  0  0
   12.9770    4.2650   22.6780 C   0  0  0  0  0  0  0  0  0  0  0  0
   13.3570    5.5940   22.6740 C   0  0  0  0  0  0  0  0  0  0  0  0
   12.4440    6.5890   22.9980 C   0  0  0  0  0  0  0  0  0  0  0  0
   11.1350    6.2520   23.3230 C   0  0  0  0  0  0  0  0  0  0  0  0
   10.7450    4.9190   23.3280 C   0  0  0  0  0  0  0  0  0  0  0  0
   11.8040   -1.5170   22.3590 C   0  0  0  0  0  0  0  0  0  0  0  0
  1  2  2  0
  2  3  1  0
  3  4  1  0
  4  5  2  0
  5  6  1  0
  6  7  2  0
  7  8  1  0
  4  9  1  0
  8  9  2  0
  2 10  1  0
 11 10  1  6
 11 12  1  0
 12 13  1  0
 13 14  1  6
 14 15  1  0
 15 16  1  0
 16 17  1  0
 17 18  2  0
 18 19  1  0
 19 20  2  0
 20 21  1  0
 17 22  1  0
 21 22  2  0
 11 23  1  0
 13 23  1  0
M  END
