pyridine_urea_9944
     RDKit          3D

 24 25  0  0  0  0  0  0  0  0999 V2000
   10.8690   -1.3950   22.0920 C   0  0  0  0  0  0  0  0  0  0  0  0
    9.7830   -1.5890   23.1240 C   0  0  2  0  0  0  0  0  0  0  0  0
    9.1890   -2.8530   23.1400 C   0  0  0  0  0  0  0  0  0  0  0  0
    7.8700   -2.9160   23.7720 N   0  0  0  0  0  0  0  0  0  0  0  0
    7.1940   -4.1860   23.4570 C   0  0  0  0  0  0  0  0  0  0  0  0
    7.8620   -5.1780   23.8010 O   0  0  0  0  0  0  0  0  0  0  0  0
    6.0910   -4.2420   22.9070 O   0  0  0  0  0  0  0  0  0  0  0  0
    5.3350   -5.4060   23.2630 C   0  0  0  0  0  0  0  0  0  0  0  0
    3.9780   -5.3440   23.6080 C   0  0  0  0  0  0  0  0  0  0  0  0
    2.9470   -6.3670   23.1420 C   0  0  0  0  0  0  0  0  0  0  0  0
    1.6070   -6.3350   23.4630 C   0  0  0  0  0  0  0  0  0  0  0  0
    1.1670   -5.2860   24.2800 C   0  0  0  0  0  0  0  0  0  0  0  0
    2.0670   -4.3100   24.7430 C   0  0  0  0  0  0  0  0  0  0  0  0
    3.4400   -4.3290   24.4200 C   0  0  0  0  0  0  0  0  0  0  0  0
    8.6780   -0.6010   22.9380 N   0  0  0  0  0  0  0  0  0  0  0  0
    8.3630    0.0680   21.6500 C   0  0  0  0  0  0  0  0  0  0  0  0
    8.9480    1.0750   21.2140 O   0  0  0  0  0  0  0  0  0  0  0  0
    7.3270   -0.5760   21.0470 N   0  0  0  0  0  0  0  0  0  0  0  0
    6.6510    0.0370   20.0520 C   0  0  0  0  0  0  0  0  0  0  0  0
    5.5270    0.8120   20.3430 C   0  0  0  0  0  0  0  0  0  0  0  0
    4.7970    1.4650   19.3650 C   0  0  0  0  0  0  0  0  0  0  0  0
    5.1950    1.3490   18.0500 C   0  0  0  0  0  0  0  0  0  0  0  0
    6.2620    0.6150   17.6980 N   0  0  0  0  0  0  0  0  0  0  0  0
    6.9880   -0.0430   18.7070 C   0  0  0  0  0  0  0  0  0  0  0  0
  2  1  1  6
  2  3  1  0
  3  4  1  0
  4  5  1  0
  5  6  2  0
  5  7  1  0
  7  8  1  0
  8  9  1  0
  9 10  2  0
 10 11  1  0
 11 12  2  0
 12 13  1  0
  9 14  1  0
 13 14  2  0
  2 15  1  0
 15 16  1  0
 16 17  2  0
 16 18  1  0
 18 19  1  0
 19 20  2  0
 20 21  1  0
 21 22  2  0
 22 23  1  0
 19 24  1  0
 23 24  2  0
M  END
