pyridine_urea_11928
     RDKit          3D

 24 26  0  0  0  0  0  0  0  0999 V2000
   13.2320    3.9990   22.6760 C   0  0  0  0  0  0  0  0  0  0  0  0
   12.6280    2.5880   22.7730 C   0  0  0  0  0  0  0  0  0  0  0  0
   11.3480    2.3090   22.7770 C   0  0  0  0  0  0  0  0  0  0  0  0
   10.8130    0.9790   22.8730 C   0  0  0  0  0  0  0  0  0  0  0  0
   11.4310   -0.3750   22.9750 C   0  0  0  0  0  0  0  0  0  0  0  0
   10.0600   -0.2420   22.9660 C   0  0  1  0  0  0  0  0  0  0  0  0
    9.2200   -1.0010   22.1240 N   0  0  0  0  0  0  0  0  0  0  0  0
    8.6030   -0.0780   21.3800 C   0  0  0  0  0  0  0  0  0  0  0  0
    9.0660    1.0540   21.1900 O   0  0  0  0  0  0  0  0  0  0  0  0
    7.4700   -0.2910   20.8180 N   0  0  0  0  0  0  0  0  0  0  0  0
    6.5970    0.1830   19.9330 C   0  0  0  0  0  0  0  0  0  0  0  0
    5.3950    0.7890   20.2780 C   0  0  0  0  0  0  0  0  0  0  0  0
    4.5930    1.3020   19.2920 C   0  0  0  0  0  0  0  0  0  0  0  0
    4.9840    1.2090   17.9760 C   0  0  0  0  0  0  0  0  0  0  0  0
    6.1220    0.6120   17.6040 N   0  0  0  0  0  0  0  0  0  0  0  0
    6.8650    0.1340   18.6020 C   0  0  0  0  0  0  0  0  0  0  0  0
    9.4570   -0.1870   24.3470 C   0  0  0  0  0  0  0  0  0  0  0  0
   10.4700   -0.2860   25.3150 C   0  0  0  0  0  0  0  0  0  0  0  0
    9.6400   -0.1730   26.5030 C   0  0  0  0  0  0  0  0  0  0  0  0
    8.2660   -0.0220   26.6880 C   0  0  0  0  0  0  0  0  0  0  0  0
    7.4870    0.0380   25.6120 C   0  0  0  0  0  0  0  0  0  0  0  0
    8.1050   -0.0460   24.4840 N   0  0  0  0  0  0  0  0  0  0  0  0
   12.8330   -0.0630   22.9580 C   0  0  0  0  0  0  0  0  0  0  0  0
   13.1840    1.2340   22.8740 C   0  0  0  0  0  0  0  0  0  0  0  0
  1  2  1  0
  2  3  2  0
  3  4  1  0
  4  5  2  0
  5  6  1  0
  6  7  1  6
  7  8  1  0
  8  9  2  0
  8 10  1  0
 10 11  1  0
 11 12  2  0
 12 13  1  0
 13 14  2  0
 14 15  1  0
 11 16  1  0
 15 16  2  0
  6 17  1  0
 17 18  2  0
 18 19  1  0
 19 20  2  0
 20 21  1  0
 17 22  1  0
 21 22  2  0
  5 23  1  0
  2 24  1  0
 23 24  2  0
M  END
