pyridine_urea_7652
     RDKit          3D

 18 19  0  0  0  0  0  0  0  0999 V2000
   13.3970   -2.6930   24.5840 C   0  0  0  0  0  0  0  0  0  0  0  0
   12.5170   -1.7190   23.8240 C   0  0  0  0  0  0  0  0  0  0  0  0
   11.2900   -2.4040   23.6420 O   0  0  0  0  0  0  0  0  0  0  0  0
   10.6350   -1.9240   22.5570 C   0  0  0  0  0  0  0  0  0  0  0  0
   10.2330   -0.6100   22.7680 C   0  0  0  0  0  0  0  0  0  0  0  0
    8.7930   -0.5450   22.5730 N   0  0  0  0  0  0  0  0  0  0  0  0
    8.2790    0.0780   21.4910 C   0  0  0  0  0  0  0  0  0  0  0  0
    8.6950    1.1740   21.0840 O   0  0  0  0  0  0  0  0  0  0  0  0
    7.2700   -0.6100   20.9210 N   0  0  0  0  0  0  0  0  0  0  0  0
    6.5030    0.0670   20.0450 C   0  0  0  0  0  0  0  0  0  0  0  0
    5.3380    0.7740   20.3410 C   0  0  0  0  0  0  0  0  0  0  0  0
    4.6260    1.4810   19.1980 C   0  0  0  0  0  0  0  0  0  0  0  0
    5.1850    1.3790   17.9240 C   0  0  0  0  0  0  0  0  0  0  0  0
    6.3050    0.6800   17.6860 N   0  0  0  0  0  0  0  0  0  0  0  0
    6.9050    0.0670   18.7240 C   0  0  0  0  0  0  0  0  0  0  0  0
   12.9760   -1.0810   22.6140 C   0  0  0  0  0  0  0  0  0  0  0  0
   12.8020    0.1750   23.0750 C   0  0  0  0  0  0  0  0  0  0  0  0
   12.4370   -0.3600   24.2530 C   0  0  0  0  0  0  0  0  0  0  0  0
  1  2  1  0
  2  3  1  0
  3  4  1  0
  4  5  1  0
  5  6  1  0
  6  7  1  0
  7  8  2  0
  7  9  1  0
  9 10  1  0
 10 11  2  0
 11 12  1  0
 12 13  2  0
 13 14  1  0
 10 15  1  0
 14 15  2  0
  2 16  1  0
 16 17  1  0
  2 18  1  0
 17 18  1  0
M  END
