pyridine_urea_13610
     RDKit          3D

 28 30  0  0  0  0  0  0  0  0999 V2000
    8.5030   -5.3740   27.3920 C   0  0  0  0  0  0  0  0  0  0  0  0
    7.2290   -4.5100   26.4220 S   0  0  0  0  0  0  0  0  0  0  0  0
    6.9930   -5.2100   25.1830 O   0  0  0  0  0  0  0  0  0  0  0  0
    6.1660   -4.0260   27.2800 O   0  0  0  0  0  0  0  0  0  0  0  0
    8.1480   -3.0060   25.9140 C   0  0  0  0  0  0  0  0  0  0  0  0
    8.5000   -1.9430   26.8900 C   0  0  0  0  0  0  0  0  0  0  0  0
    9.2910   -0.7380   26.3920 C   0  0  0  0  0  0  0  0  0  0  0  0
    9.8370   -0.3100   25.0220 C   0  0  0  0  0  0  0  0  0  0  0  0
    9.3820   -1.4180   24.2360 C   0  0  0  0  0  0  0  0  0  0  0  0
    9.6750   -1.3020   22.9170 C   0  0  1  0  0  0  0  0  0  0  0  0
    8.9600   -0.0740   22.7450 N   0  0  0  0  0  0  0  0  0  0  0  0
    8.4630    0.3710   21.5700 C   0  0  0  0  0  0  0  0  0  0  0  0
    8.9630    1.3800   21.0790 O   0  0  0  0  0  0  0  0  0  0  0  0
    7.4070   -0.3680   21.1060 N   0  0  0  0  0  0  0  0  0  0  0  0
    6.6290    0.1630   20.0970 C   0  0  0  0  0  0  0  0  0  0  0  0
    5.4450    0.8650   20.3280 C   0  0  0  0  0  0  0  0  0  0  0  0
    4.6750    1.4290   19.3010 C   0  0  0  0  0  0  0  0  0  0  0  0
    5.1070    1.2830   17.9740 C   0  0  0  0  0  0  0  0  0  0  0  0
    6.2100    0.6230   17.6430 N   0  0  0  0  0  0  0  0  0  0  0  0
    6.9390    0.0890   18.6260 C   0  0  0  0  0  0  0  0  0  0  0  0
   10.9840   -1.1790   22.5930 C   0  0  0  0  0  0  0  0  0  0  0  0
   11.9080   -1.8520   21.9720 C   0  0  0  0  0  0  0  0  0  0  0  0
   13.0650   -1.0210   22.0300 C   0  0  0  0  0  0  0  0  0  0  0  0
   13.1220    0.3240   22.6900 C   0  0  0  0  0  0  0  0  0  0  0  0
   14.1990    1.0050   22.6650 F   0  0  0  0  0  0  0  0  0  0  0  0
   11.8970    0.9800   23.4260 C   0  0  0  0  0  0  0  0  0  0  0  0
   11.8900   -0.2620   22.7910 C   0  0  0  0  0  0  0  0  0  0  0  0
    8.6580   -2.6220   24.5350 C   0  0  0  0  0  0  0  0  0  0  0  0
  2  1  1  0
  2  3  2  0
  2  4  2  0
  2  5  1  0
  5  6  2  0
  6  7  1  0
  7  8  2  0
  8  9  1  0
  9 10  1  0
 10 11  1  1
 11 12  1  0
 12 13  2  0
 12 14  1  0
 14 15  1  0
 15 16  2  0
 16 17  1  0
 17 18  2  0
 18 19  1  0
 15 20  1  0
 19 20  2  0
 10 21  1  0
 21 22  2  0
 22 23  1  0
 23 24  2  0
 24 25  1  0
 24 26  1  0
 21 27  1  0
 26 27  2  0
  5 28  1  0
  9 28  2  0
M  END
