pyridine_urea_7197
     RDKit          3D

 19 19  0  0  0  0  0  0  0  0999 V2000
   12.8580   -2.2750   23.8320 C   0  0  0  0  0  0  0  0  0  0  0  0
   12.0400   -1.3660   23.6680 O   0  0  0  0  0  0  0  0  0  0  0  0
   11.6390   -1.0550   22.3860 C   0  0  0  0  0  0  0  0  0  0  0  0
   12.8310   -1.1360   22.0870 O   0  0  0  0  0  0  0  0  0  0  0  0
   10.4490   -1.0630   23.1160 C   0  0  2  0  0  0  0  0  0  0  0  0
    9.2880   -1.4410   22.2820 N   0  0  0  0  0  0  0  0  0  0  0  0
    8.4990   -0.4050   21.5850 C   0  0  0  0  0  0  0  0  0  0  0  0
    9.0570    0.8850   21.3190 O   0  0  0  0  0  0  0  0  0  0  0  0
    7.2060   -0.7760   21.2060 N   0  0  0  0  0  0  0  0  0  0  0  0
    6.5370   -0.0640   20.1100 C   0  0  0  0  0  0  0  0  0  0  0  0
    5.3780    0.6980   20.3540 C   0  0  0  0  0  0  0  0  0  0  0  0
    4.6620    1.4590   19.2130 C   0  0  0  0  0  0  0  0  0  0  0  0
    5.2200    1.3500   17.9550 C   0  0  0  0  0  0  0  0  0  0  0  0
    6.3350    0.6000   17.7790 N   0  0  0  0  0  0  0  0  0  0  0  0
    7.0070   -0.1040   18.7830 C   0  0  0  0  0  0  0  0  0  0  0  0
   10.3220    0.2010   23.8870 C   0  0  0  0  0  0  0  0  0  0  0  0
    9.9140   -0.0340   25.2030 C   0  0  0  0  0  0  0  0  0  0  0  0
   11.6420    0.9760   23.8710 C   0  0  0  0  0  0  0  0  0  0  0  0
    9.3990    1.0050   23.3470 F   0  0  0  0  0  0  0  0  0  0  0  0
  1  2  1  0
  2  3  1  0
  3  4  2  0
  3  5  1  0
  5  6  1  6
  6  7  1  0
  7  8  2  0
  7  9  1  0
  9 10  1  0
 10 11  2  0
 11 12  1  0
 12 13  2  0
 13 14  1  0
 10 15  1  0
 14 15  2  0
  5 16  1  0
 16 17  1  0
 16 18  1  0
 16 19  1  0
M  END
