pyridine_urea_399
     RDKit          3D

 25 27  0  0  0  0  0  0  0  0999 V2000
   11.8450   -1.7610   22.6320 C   0  0  0  0  0  0  0  0  0  0  0  0
   11.4040   -0.3890   23.1300 C   0  0  1  0  0  0  0  0  0  0  0  0
   12.3570    0.6510   22.9800 C   0  0  0  0  0  0  0  0  0  0  0  0
   11.8660    2.0590   23.1750 N   0  0  0  0  0  0  0  0  0  0  0  0
   12.6210    3.1680   22.5710 C   0  0  0  0  0  0  0  0  0  0  0  0
   12.3640    4.4370   23.0720 C   0  0  0  0  0  0  0  0  0  0  0  0
   13.0540    5.5270   22.5590 C   0  0  0  0  0  0  0  0  0  0  0  0
   12.7560    6.9040   23.1270 C   0  0  0  0  0  0  0  0  0  0  0  0
   11.8330    7.1140   24.1270 C   0  0  0  0  0  0  0  0  0  0  0  0
   11.1580    5.9860   24.6160 C   0  0  0  0  0  0  0  0  0  0  0  0
   11.4130    4.6930   24.1050 C   0  0  0  0  0  0  0  0  0  0  0  0
   10.4570    2.3650   23.1200 C   0  0  0  0  0  0  0  0  0  0  0  0
    9.4860    1.3790   22.6560 C   0  0  2  0  0  0  0  0  0  0  0  0
    8.3560    1.2720   23.4770 C   0  0  0  0  0  0  0  0  0  0  0  0
   10.0800   -0.0100   22.4160 C   0  0  0  0  0  0  0  0  0  0  0  0
    9.0220   -0.8700   22.4910 N   0  0  0  0  0  0  0  0  0  0  0  0
    8.1550   -0.8510   21.3780 C   0  0  0  0  0  0  0  0  0  0  0  0
    8.5300   -1.2390   20.3530 O   0  0  0  0  0  0  0  0  0  0  0  0
    6.9080   -0.3230   21.4930 N   0  0  0  0  0  0  0  0  0  0  0  0
    6.2550    0.2390   20.3550 C   0  0  0  0  0  0  0  0  0  0  0  0
    5.0710    0.9610   20.4000 C   0  0  0  0  0  0  0  0  0  0  0  0
    4.5420    1.4700   19.2210 C   0  0  0  0  0  0  0  0  0  0  0  0
    5.2040    1.2490   18.0120 C   0  0  0  0  0  0  0  0  0  0  0  0
    6.3420    0.5530   17.9230 N   0  0  0  0  0  0  0  0  0  0  0  0
    6.8370    0.0650   19.0850 C   0  0  0  0  0  0  0  0  0  0  0  0
  2  1  1  6
  2  3  1  0
  3  4  1  0
  4  5  1  0
  5  6  1  0
  6  7  2  0
  7  8  1  0
  8  9  2  0
  9 10  1  0
  6 11  1  0
 10 11  2  0
  4 12  1  0
 12 13  1  0
 13 14  1  1
  2 15  1  0
 13 15  1  0
 15 16  1  0
 16 17  1  0
 17 18  2  0
 17 19  1  0
 19 20  1  0
 20 21  2  0
 21 22  1  0
 22 23  2  0
 23 24  1  0
 20 25  1  0
 24 25  2  0
M  END
