pyridine_urea_2367
     RDKit          3D

 25 27  0  0  0  0  0  0  0  0999 V2000
    8.3710    1.3640   24.3230 C   0  0  0  0  0  0  0  0  0  0  0  0
    9.5030    0.6570   23.5770 C   0  0  0  0  0  0  0  0  0  0  0  0
   10.7420    1.1990   23.7510 C   0  0  0  0  0  0  0  0  0  0  0  0
   11.8010    0.6470   23.1310 C   0  0  0  0  0  0  0  0  0  0  0  0
   12.9680    1.0710   23.2360 C   0  0  0  0  0  0  0  0  0  0  0  0
   13.3490    2.1660   22.8860 O   0  0  0  0  0  0  0  0  0  0  0  0
   13.5220   -0.1050   23.8310 N   0  0  0  0  0  0  0  0  0  0  0  0
   13.0040   -1.3140   23.6470 C   0  0  0  0  0  0  0  0  0  0  0  0
   13.2590   -2.1420   24.7060 C   0  0  0  0  0  0  0  0  0  0  0  0
   12.1700   -3.1010   24.4670 C   0  0  0  0  0  0  0  0  0  0  0  0
   11.1210   -2.4470   23.8700 C   0  0  0  0  0  0  0  0  0  0  0  0
   11.6030   -1.1630   23.6060 C   0  0  0  0  0  0  0  0  0  0  0  0
   11.6690   -0.5430   22.2790 C   0  0  0  0  0  0  0  0  0  0  0  0
   10.4490   -1.0800   22.0930 C   0  0  0  0  0  0  0  0  0  0  0  0
    9.3780   -0.4730   22.7370 C   0  0  0  0  0  0  0  0  0  0  0  0
    8.1540   -0.9510   22.5410 N   0  0  0  0  0  0  0  0  0  0  0  0
    7.6140   -0.3430   21.4310 C   0  0  0  0  0  0  0  0  0  0  0  0
    8.1290    0.7980   20.9000 O   0  0  0  0  0  0  0  0  0  0  0  0
    6.5650   -0.9670   20.9370 N   0  0  0  0  0  0  0  0  0  0  0  0
    6.0370   -0.1560   19.9470 C   0  0  0  0  0  0  0  0  0  0  0  0
    4.8740    0.5930   20.0620 C   0  0  0  0  0  0  0  0  0  0  0  0
    4.4510    1.3850   18.9980 C   0  0  0  0  0  0  0  0  0  0  0  0
    5.1930    1.4240   17.8220 C   0  0  0  0  0  0  0  0  0  0  0  0
    6.3230    0.7250   17.6360 N   0  0  0  0  0  0  0  0  0  0  0  0
    6.7230   -0.0750   18.7550 C   0  0  0  0  0  0  0  0  0  0  0  0
  1  2  1  0
  2  3  2  0
  3  4  1  0
  4  5  1  0
  5  6  2  0
  5  7  1  0
  7  8  1  0
  8  9  1  0
  9 10  1  0
 10 11  1  0
  8 12  1  0
 11 12  1  0
  4 13  2  0
 13 14  1  0
  2 15  1  0
 14 15  2  0
 15 16  1  0
 16 17  1  0
 17 18  2  0
 17 19  1  0
 19 20  1  0
 20 21  2  0
 21 22  1  0
 22 23  2  0
 23 24  1  0
 20 25  1  0
 24 25  2  0
M  END
