pyridine_urea_2470
     RDKit          3D

 24 26  0  0  0  0  0  0  0  0999 V2000
   13.2670    6.7120   22.4910 C   0  0  0  0  0  0  0  0  0  0  0  0
   12.3740    5.6230   22.9660 C   0  0  0  0  0  0  0  0  0  0  0  0
   12.7610    4.3380   22.6020 N   0  0  0  0  0  0  0  0  0  0  0  0
   11.8210    3.5780   23.1470 C   0  0  0  0  0  0  0  0  0  0  0  0
   11.9840    2.2310   22.9330 C   0  0  0  0  0  0  0  0  0  0  0  0
   12.8000    1.6210   23.6100 O   0  0  0  0  0  0  0  0  0  0  0  0
   13.0040    0.3570   23.1810 C   0  0  0  0  0  0  0  0  0  0  0  0
   11.7110    0.8580   23.1910 C   0  0  0  0  0  0  0  0  0  0  0  0
   10.5140    0.3240   22.8410 C   0  0  0  0  0  0  0  0  0  0  0  0
   10.2860   -1.0140   22.3170 C   0  0  0  0  0  0  0  0  0  0  0  0
    9.0280   -1.4050   21.9920 N   0  0  0  0  0  0  0  0  0  0  0  0
    8.1580   -0.4950   21.3640 C   0  0  0  0  0  0  0  0  0  0  0  0
    8.5210    0.8100   21.1520 O   0  0  0  0  0  0  0  0  0  0  0  0
    6.9550   -0.9440   20.9760 N   0  0  0  0  0  0  0  0  0  0  0  0
    6.3400   -0.1800   20.0410 C   0  0  0  0  0  0  0  0  0  0  0  0
    5.1620    0.5720   20.2290 C   0  0  0  0  0  0  0  0  0  0  0  0
    4.6070    1.3390   19.1810 C   0  0  0  0  0  0  0  0  0  0  0  0
    5.2460    1.3450   17.9430 C   0  0  0  0  0  0  0  0  0  0  0  0
    6.3680    0.6190   17.7830 N   0  0  0  0  0  0  0  0  0  0  0  0
    6.9050   -0.1190   18.7800 C   0  0  0  0  0  0  0  0  0  0  0  0
   11.6340   -1.6210   22.2750 C   0  0  0  0  0  0  0  0  0  0  0  0
   12.8170   -0.9620   22.6780 C   0  0  0  0  0  0  0  0  0  0  0  0
   10.8420    4.2900   23.8380 N   0  0  0  0  0  0  0  0  0  0  0  0
   11.2310    5.6660   23.7070 O   0  0  0  0  0  0  0  0  0  0  0  0
  1  2  1  0
  2  3  2  0
  3  4  1  0
  4  5  1  0
  5  6  1  0
  6  7  1  0
  7  8  2  0
  8  9  1  0
  9 10  2  0
 10 11  1  0
 11 12  1  0
 12 13  2  0
 12 14  1  0
 14 15  1  0
 15 16  2  0
 16 17  1  0
 17 18  2  0
 18 19  1  0
 15 20  1  0
 19 20  2  0
 10 21  1  0
  7 22  1  0
 21 22  2  0
  4 23  2  0
  2 24  1  0
 23 24  1  0
M  END
