pyridine_urea_11825
     RDKit          3D

 25 27  0  0  0  0  0  0  0  0999 V2000
    8.8860    1.5570   21.1210 O   0  0  0  0  0  0  0  0  0  0  0  0
    8.2960    0.6100   21.6440 C   0  0  0  0  0  0  0  0  0  0  0  0
    8.5710    0.1250   22.8670 N   0  0  0  0  0  0  0  0  0  0  0  0
    9.7990   -0.4040   23.1620 C   0  0  0  0  0  0  0  0  0  0  0  0
   10.8680    0.4370   23.3950 C   0  0  0  0  0  0  0  0  0  0  0  0
   12.2170    0.9190   23.3240 C   0  0  0  0  0  0  0  0  0  0  0  0
   13.3100    0.4170   22.6930 C   0  0  0  0  0  0  0  0  0  0  0  0
   13.3400   -0.6950   21.9480 C   0  0  0  0  0  0  0  0  0  0  0  0
   12.1880   -1.2410   21.8860 C   0  0  0  0  0  0  0  0  0  0  0  0
   11.9450   -2.3480   21.1610 O   0  0  0  0  0  0  0  0  0  0  0  0
   10.8280   -2.5410   21.8590 C   0  0  0  0  0  0  0  0  0  0  0  0
   11.2270   -2.8950   23.0740 C   0  0  0  0  0  0  0  0  0  0  0  0
   10.3980   -3.1790   24.0580 C   0  0  0  0  0  0  0  0  0  0  0  0
    9.0190   -3.1150   23.8770 C   0  0  0  0  0  0  0  0  0  0  0  0
    8.4840   -2.7470   22.6640 C   0  0  0  0  0  0  0  0  0  0  0  0
    7.1470   -2.6980   22.5420 F   0  0  0  0  0  0  0  0  0  0  0  0
    9.2950   -2.4310   21.5850 C   0  0  0  0  0  0  0  0  0  0  0  0
   11.0970   -0.7750   22.5120 C   0  0  0  0  0  0  0  0  0  0  0  0
    7.2680   -0.0940   21.0880 N   0  0  0  0  0  0  0  0  0  0  0  0
    6.5330    0.3530   19.9590 C   0  0  0  0  0  0  0  0  0  0  0  0
    5.3890    1.0740   20.2570 C   0  0  0  0  0  0  0  0  0  0  0  0
    4.6550    1.5630   19.1910 C   0  0  0  0  0  0  0  0  0  0  0  0
    5.1130    1.2980   17.9080 C   0  0  0  0  0  0  0  0  0  0  0  0
    6.2150    0.5860   17.6260 N   0  0  0  0  0  0  0  0  0  0  0  0
    6.9060    0.1230   18.6690 C   0  0  0  0  0  0  0  0  0  0  0  0
  1  2  2  0
  2  3  1  0
  3  4  1  0
  4  5  1  0
  5  6  2  0
  6  7  1  0
  7  8  2  0
  8  9  1  0
  9 10  1  0
 10 11  1  0
 11 12  2  0
 12 13  1  0
 13 14  2  0
 14 15  1  0
 15 16  1  0
 11 17  1  0
 15 17  2  0
  5 18  1  0
  9 18  2  0
  2 19  1  0
 19 20  1  0
 20 21  2  0
 21 22  1  0
 22 23  2  0
 23 24  1  0
 20 25  1  0
 24 25  2  0
M  END
