pyridine_urea_10428
     RDKit          3D

 23 24  0  0  0  0  0  0  0  0999 V2000
    8.6090    0.8640   21.1790 O   0  0  0  0  0  0  0  0  0  0  0  0
    8.2190   -0.2790   21.3800 C   0  0  0  0  0  0  0  0  0  0  0  0
    8.8930   -1.2740   22.0080 N   0  0  0  0  0  0  0  0  0  0  0  0
    9.8700   -1.0230   22.9610 C   0  0  0  0  0  0  0  0  0  0  0  0
    9.9980    0.3970   23.5090 C   0  0  0  0  0  0  0  0  0  0  0  0
   11.3390    0.5530   24.1660 C   0  0  0  0  0  0  0  0  0  0  0  0
   12.4390    0.7870   23.2150 C   0  0  0  0  0  0  0  0  0  0  0  0
   12.9560   -0.3240   22.6060 C   0  0  0  0  0  0  0  0  0  0  0  0
   13.0240   -1.5080   23.4630 N   0  0  0  0  0  0  0  0  0  0  0  0
   13.2470   -2.6590   22.8040 C   0  0  0  0  0  0  0  0  0  0  0  0
   13.1230   -2.5810   21.4100 C   0  0  0  0  0  0  0  0  0  0  0  0
   13.6680   -1.4990   20.8130 F   0  0  0  0  0  0  0  0  0  0  0  0
   13.5850   -3.6130   20.6670 F   0  0  0  0  0  0  0  0  0  0  0  0
   11.8180   -2.5030   21.0870 F   0  0  0  0  0  0  0  0  0  0  0  0
   12.0830   -1.6350   24.4930 C   0  0  0  0  0  0  0  0  0  0  0  0
   11.6830   -0.4640   25.0540 C   0  0  0  0  0  0  0  0  0  0  0  0
    6.9900   -0.6990   20.9640 N   0  0  0  0  0  0  0  0  0  0  0  0
    6.2960   -0.0040   20.0520 C   0  0  0  0  0  0  0  0  0  0  0  0
    5.0640    0.6700   20.3220 C   0  0  0  0  0  0  0  0  0  0  0  0
    4.5230    1.3980   19.0750 C   0  0  0  0  0  0  0  0  0  0  0  0
    5.2030    1.3560   17.8790 C   0  0  0  0  0  0  0  0  0  0  0  0
    6.3450    0.7110   17.6640 N   0  0  0  0  0  0  0  0  0  0  0  0
    6.8600    0.0330   18.7980 C   0  0  0  0  0  0  0  0  0  0  0  0
  1  2  2  0
  2  3  1  0
  3  4  1  0
  4  5  1  0
  5  6  1  0
  6  7  1  0
  7  8  1  0
  8  9  1  0
  9 10  1  0
 10 11  1  0
 11 12  1  0
 11 13  1  0
 11 14  1  0
  9 15  1  0
  6 16  1  0
 15 16  1  0
  2 17  1  0
 17 18  1  0
 18 19  2  0
 19 20  1  0
 20 21  2  0
 21 22  1  0
 18 23  1  0
 22 23  2  0
M  END
