pyridine_urea_7081
     RDKit          3D

 20 21  0  0  0  0  0  0  0  0999 V2000
   13.3390   -3.4600   20.6860 C   0  0  0  0  0  0  0  0  0  0  0  0
   13.1950   -2.0080   21.0350 C   0  0  0  0  0  0  0  0  0  0  0  0
   11.8570   -1.6750   21.2320 O   0  0  0  0  0  0  0  0  0  0  0  0
   11.5760   -1.2280   22.4530 C   0  0  0  0  0  0  0  0  0  0  0  0
   12.5640   -1.0550   23.4120 C   0  0  0  0  0  0  0  0  0  0  0  0
   12.2160   -0.6200   24.6630 C   0  0  0  0  0  0  0  0  0  0  0  0
   13.0980   -0.4830   25.6040 F   0  0  0  0  0  0  0  0  0  0  0  0
   10.9070   -0.3240   24.9840 C   0  0  0  0  0  0  0  0  0  0  0  0
    9.8260   -0.4910   23.9600 C   0  0  0  0  0  0  0  0  0  0  0  0
   10.2400   -0.9510   22.7420 C   0  0  0  0  0  0  0  0  0  0  0  0
    9.1480   -1.1360   21.7920 N   0  0  0  0  0  0  0  0  0  0  0  0
    8.3500    0.0260   21.3570 C   0  0  0  0  0  0  0  0  0  0  0  0
    8.8830    1.3550   21.1620 O   0  0  0  0  0  0  0  0  0  0  0  0
    6.9830   -0.3880   21.1500 N   0  0  0  0  0  0  0  0  0  0  0  0
    6.3560    0.2020   20.0710 C   0  0  0  0  0  0  0  0  0  0  0  0
    5.1810    0.9400   20.2170 C   0  0  0  0  0  0  0  0  0  0  0  0
    4.5550    1.5820   19.0360 C   0  0  0  0  0  0  0  0  0  0  0  0
    5.1380    1.4500   17.7870 C   0  0  0  0  0  0  0  0  0  0  0  0
    6.3070    0.6880   17.7080 N   0  0  0  0  0  0  0  0  0  0  0  0
    6.8720    0.1020   18.7870 C   0  0  0  0  0  0  0  0  0  0  0  0
  1  2  1  0
  2  3  1  0
  3  4  1  0
  4  5  2  0
  5  6  1  0
  6  7  1  0
  6  8  2  0
  8  9  1  0
  4 10  1  0
  9 10  2  0
 10 11  1  0
 11 12  1  0
 12 13  2  0
 12 14  1  0
 14 15  1  0
 15 16  2  0
 16 17  1  0
 17 18  2  0
 18 19  1  0
 15 20  1  0
 19 20  2  0
M  END
