pyridine_urea_5208
     RDKit          3D

 20 21  0  0  0  0  0  0  0  0999 V2000
   11.3490    1.4020   23.8570 C   0  0  0  0  0  0  0  0  0  0  0  0
   10.0570    0.6930   24.1730 C   0  0  1  0  0  0  0  0  0  0  0  0
    9.0460    1.7000   23.9910 O   0  0  0  0  0  0  0  0  0  0  0  0
    9.9710   -0.5570   23.5900 C   0  0  1  0  0  0  0  0  0  0  0  0
    8.7830   -0.7490   22.7420 N   0  0  0  0  0  0  0  0  0  0  0  0
    8.4330    0.0320   21.6400 C   0  0  0  0  0  0  0  0  0  0  0  0
    9.0190    1.0720   21.2890 O   0  0  0  0  0  0  0  0  0  0  0  0
    7.2540   -0.5920   21.0110 N   0  0  0  0  0  0  0  0  0  0  0  0
    6.5460    0.0540   20.0280 C   0  0  0  0  0  0  0  0  0  0  0  0
    5.2770    0.8150   20.4000 C   0  0  0  0  0  0  0  0  0  0  0  0
    4.6090    1.4590   19.3610 C   0  0  0  0  0  0  0  0  0  0  0  0
    5.2040    1.3430   17.9570 C   0  0  0  0  0  0  0  0  0  0  0  0
    6.3270    0.6480   17.6950 N   0  0  0  0  0  0  0  0  0  0  0  0
    6.9560    0.0310   18.7180 C   0  0  0  0  0  0  0  0  0  0  0  0
   11.0960   -0.8710   22.8710 C   0  0  0  0  0  0  0  0  0  0  0  0
   10.7700   -1.9290   22.1490 C   0  0  0  0  0  0  0  0  0  0  0  0
   12.0510   -2.2080   21.3670 C   0  0  0  0  0  0  0  0  0  0  0  0
   13.3670   -1.3970   21.4650 C   0  0  0  0  0  0  0  0  0  0  0  0
   13.3210   -0.3280   22.3900 C   0  0  0  0  0  0  0  0  0  0  0  0
   12.2320   -0.7950   22.4620 C   0  0  0  0  0  0  0  0  0  0  0  0
  2  1  1  6
  2  3  1  0
  2  4  1  0
  4  5  1  6
  5  6  1  0
  6  7  2  0
  6  8  1  0
  8  9  1  0
  9 10  2  0
 10 11  1  0
 11 12  2  0
 12 13  1  0
  9 14  1  0
 13 14  2  0
  4 15  1  0
 15 16  2  0
 16 17  1  0
 17 18  2  0
 18 19  1  0
 15 20  1  0
 19 20  2  0
M  END
