pyridine_urea_12729
     RDKit          3D

 20 22  0  0  0  0  0  0  0  0999 V2000
    8.2050    1.6160   20.7440 O   0  0  0  0  0  0  0  0  0  0  0  0
    8.1970    0.5400   21.3110 C   0  0  0  0  0  0  0  0  0  0  0  0
    7.2260   -0.3800   21.0810 N   0  0  0  0  0  0  0  0  0  0  0  0
    6.5560    0.1080   19.9360 C   0  0  0  0  0  0  0  0  0  0  0  0
    5.3110    0.9520   20.2210 C   0  0  0  0  0  0  0  0  0  0  0  0
    4.6060    1.5170   19.1760 C   0  0  0  0  0  0  0  0  0  0  0  0
    5.0830    1.2850   17.8950 C   0  0  0  0  0  0  0  0  0  0  0  0
    6.1920    0.5120   17.6860 N   0  0  0  0  0  0  0  0  0  0  0  0
    6.9480   -0.0920   18.6860 C   0  0  0  0  0  0  0  0  0  0  0  0
    9.1410    0.1950   22.1600 N   0  0  0  0  0  0  0  0  0  0  0  0
   10.1720   -0.0310   22.9160 C   0  0  0  0  0  0  0  0  0  0  0  0
   11.2020   -0.6940   22.4530 C   0  0  0  0  0  0  0  0  0  0  0  0
   12.0820   -0.7730   23.3810 N   0  0  0  0  0  0  0  0  0  0  0  0
   11.7530   -0.1830   24.6150 N   0  0  0  0  0  0  0  0  0  0  0  0
   12.9980   -0.7550   24.7550 C   0  0  0  0  0  0  0  0  0  0  0  0
   13.0250   -2.0720   24.2880 C   0  0  0  0  0  0  0  0  0  0  0  0
   11.7320   -2.5960   24.3490 C   0  0  0  0  0  0  0  0  0  0  0  0
   11.7690   -2.4640   22.9450 C   0  0  0  0  0  0  0  0  0  0  0  0
   13.1400   -2.3000   22.8390 C   0  0  0  0  0  0  0  0  0  0  0  0
   10.5390    0.2600   24.1770 C   0  0  0  0  0  0  0  0  0  0  0  0
  1  2  2  0
  2  3  1  0
  3  4  1  0
  4  5  2  0
  5  6  1  0
  6  7  2  0
  7  8  1  0
  4  9  1  0
  8  9  2  0
  2 10  1  0
 10 11  1  0
 11 12  1  0
 12 13  2  0
 13 14  1  0
 14 15  1  0
 15 16  1  0
 16 17  1  0
 17 18  1  0
 16 19  1  0
 18 19  1  0
 11 20  2  0
 14 20  1  0
M  END
