pyridine_urea_5383
     RDKit          3D

 18 19  0  0  0  0  0  0  0  0999 V2000
   13.3320   -2.3960   25.0590 C   0  0  0  0  0  0  0  0  0  0  0  0
   12.0680   -1.7510   25.0070 O   0  0  0  0  0  0  0  0  0  0  0  0
   11.8440   -1.0580   23.7780 C   0  0  0  0  0  0  0  0  0  0  0  0
   10.3920   -0.6660   23.7380 C   0  0  0  0  0  0  0  0  0  0  0  0
    9.7570   -1.0930   22.6290 C   0  0  0  0  0  0  0  0  0  0  0  0
    8.4670   -0.7310   22.4170 N   0  0  0  0  0  0  0  0  0  0  0  0
    7.9920   -0.0270   21.3930 C   0  0  0  0  0  0  0  0  0  0  0  0
    8.5320    1.1840   20.9980 O   0  0  0  0  0  0  0  0  0  0  0  0
    6.9520   -0.6540   20.8420 N   0  0  0  0  0  0  0  0  0  0  0  0
    6.3320    0.0470   19.9180 C   0  0  0  0  0  0  0  0  0  0  0  0
    5.0480    0.8550   20.1280 C   0  0  0  0  0  0  0  0  0  0  0  0
    4.3650    1.6620   19.0340 C   0  0  0  0  0  0  0  0  0  0  0  0
    5.1780    1.5070   17.7650 C   0  0  0  0  0  0  0  0  0  0  0  0
    6.3180    0.7670   17.6380 N   0  0  0  0  0  0  0  0  0  0  0  0
    6.8880    0.0530   18.6750 C   0  0  0  0  0  0  0  0  0  0  0  0
   12.2500   -1.7040   22.5720 C   0  0  0  0  0  0  0  0  0  0  0  0
   13.3320   -0.8100   22.3100 C   0  0  0  0  0  0  0  0  0  0  0  0
   12.8590   -0.1120   23.3700 C   0  0  0  0  0  0  0  0  0  0  0  0
  1  2  1  0
  3  2  1  0
  3  4  1  0
  4  5  1  0
  5  6  1  0
  6  7  1  0
  7  8  2  0
  7  9  1  0
  9 10  1  0
 10 11  2  0
 11 12  1  0
 12 13  2  0
 13 14  1  0
 10 15  1  0
 14 15  2  0
  3 16  1  0
 16 17  1  0
  3 18  1  0
 17 18  1  0
M  END
