pyridine_urea_13766
     RDKit          3D

 25 27  0  0  0  0  0  0  0  0999 V2000
    8.8210    1.3220   21.0560 O   0  0  0  0  0  0  0  0  0  0  0  0
    8.4520    0.2120   21.4520 C   0  0  0  0  0  0  0  0  0  0  0  0
    7.2780   -0.4130   21.0840 N   0  0  0  0  0  0  0  0  0  0  0  0
    6.5560    0.1660   19.9940 C   0  0  0  0  0  0  0  0  0  0  0  0
    5.2960    0.9400   20.3590 C   0  0  0  0  0  0  0  0  0  0  0  0
    4.5950    1.5420   19.1980 C   0  0  0  0  0  0  0  0  0  0  0  0
    5.1300    1.3500   17.9400 C   0  0  0  0  0  0  0  0  0  0  0  0
    6.2420    0.6480   17.6720 N   0  0  0  0  0  0  0  0  0  0  0  0
    6.9180    0.0800   18.6810 C   0  0  0  0  0  0  0  0  0  0  0  0
    9.1620   -0.5640   22.3140 N   0  0  0  0  0  0  0  0  0  0  0  0
   10.5450   -0.2420   22.7250 C   0  0  1  0  0  0  0  0  0  0  0  0
   10.3330   -0.2320   24.0400 C   0  0  0  0  0  0  0  0  0  0  0  0
    8.9810    0.3690   23.9190 C   0  0  0  0  0  0  0  0  0  0  0  0
    8.1580    0.6480   25.0130 C   0  0  0  0  0  0  0  0  0  0  0  0
    8.6120    0.3650   26.3000 C   0  0  0  0  0  0  0  0  0  0  0  0
    7.6870    0.6690   27.7340 Cl  0  0  0  0  0  0  0  0  0  0  0  0
    9.8660   -0.1800   26.4350 C   0  0  0  0  0  0  0  0  0  0  0  0
   10.8140   -0.5200   25.2950 C   0  0  0  0  0  0  0  0  0  0  0  0
   11.2500   -1.2140   21.7120 C   0  0  0  0  0  0  0  0  0  0  0  0
   12.1040   -1.6380   22.7990 C   0  0  0  0  0  0  0  0  0  0  0  0
   11.6580   -0.8710   23.7670 C   0  0  0  0  0  0  0  0  0  0  0  0
   12.6400   -1.8690   23.8340 C   0  0  0  0  0  0  0  0  0  0  0  0
   13.6960   -2.5240   25.4290 I   0  0  0  0  0  0  0  0  0  0  0  0
   12.9200   -2.5250   22.5940 C   0  0  0  0  0  0  0  0  0  0  0  0
   12.1870   -2.1740   21.4370 C   0  0  0  0  0  0  0  0  0  0  0  0
  1  2  2  0
  2  3  1  0
  3  4  1  0
  4  5  2  0
  5  6  1  0
  6  7  2  0
  7  8  1  0
  4  9  1  0
  8  9  2  0
  2 10  1  0
 11 10  1  6
 11 12  1  0
 12 13  2  0
 13 14  1  0
 14 15  2  0
 15 16  1  0
 15 17  1  0
 12 18  1  0
 17 18  2  0
 11 19  1  0
 19 20  2  0
 20 21  1  0
 21 22  2  0
 22 23  1  0
 22 24  1  0
 19 25  1  0
 24 25  2  0
M  END
