pyridine_urea_11851
     RDKit          3D

 24 26  0  0  0  0  0  0  0  0999 V2000
    8.3710    0.2570   21.1450 O   0  0  0  0  0  0  0  0  0  0  0  0
    7.7600   -0.7960   21.3030 C   0  0  0  0  0  0  0  0  0  0  0  0
    6.5170   -1.0250   20.8560 N   0  0  0  0  0  0  0  0  0  0  0  0
    6.0450   -0.1970   19.8540 C   0  0  0  0  0  0  0  0  0  0  0  0
    4.8770    0.5320   20.0500 C   0  0  0  0  0  0  0  0  0  0  0  0
    4.4180    1.3710   19.0410 C   0  0  0  0  0  0  0  0  0  0  0  0
    5.1510    1.4470   17.8740 C   0  0  0  0  0  0  0  0  0  0  0  0
    6.2790    0.7480   17.6660 N   0  0  0  0  0  0  0  0  0  0  0  0
    6.7010   -0.0550   18.6560 C   0  0  0  0  0  0  0  0  0  0  0  0
    8.3290   -1.8380   21.9660 N   0  0  0  0  0  0  0  0  0  0  0  0
    9.5360   -1.2440   22.3770 C   0  0  0  0  0  0  0  0  0  0  0  0
    9.5430   -0.2640   23.3700 C   0  0  0  0  0  0  0  0  0  0  0  0
   10.8060    0.0780   23.4320 N   0  0  0  0  0  0  0  0  0  0  0  0
   11.7290   -0.5990   22.5410 N   0  0  0  0  0  0  0  0  0  0  0  0
   12.1220    0.3260   23.3440 C   0  0  0  0  0  0  0  0  0  0  0  0
   11.6330    1.6450   23.0790 C   0  0  0  0  0  0  0  0  0  0  0  0
   10.4020    2.3120   23.1520 C   0  0  0  0  0  0  0  0  0  0  0  0
   10.3860    3.6750   22.8270 C   0  0  0  0  0  0  0  0  0  0  0  0
    9.2120    4.3430   22.9020 F   0  0  0  0  0  0  0  0  0  0  0  0
   11.5840    4.3200   22.4400 C   0  0  0  0  0  0  0  0  0  0  0  0
   12.7640    3.5840   22.3780 C   0  0  0  0  0  0  0  0  0  0  0  0
   12.6640    2.2380   22.7160 C   0  0  0  0  0  0  0  0  0  0  0  0
   13.6820    0.8940   22.7920 Cl  0  0  0  0  0  0  0  0  0  0  0  0
   10.8790   -1.4630   21.8910 C   0  0  0  0  0  0  0  0  0  0  0  0
  1  2  2  0
  2  3  1  0
  3  4  1  0
  4  5  2  0
  5  6  1  0
  6  7  2  0
  7  8  1  0
  4  9  1  0
  8  9  2  0
  2 10  1  0
 10 11  1  0
 11 12  1  0
 12 13  2  0
 13 14  1  0
 14 15  1  0
 15 16  1  0
 16 17  2  0
 17 18  1  0
 18 19  1  0
 18 20  2  0
 20 21  1  0
 16 22  1  0
 21 22  2  0
 22 23  1  0
 11 24  2  0
 14 24  1  0
M  END
