pyridine_urea_4495
     RDKit          3D

 23 24  0  0  0  0  0  0  0  0999 V2000
    9.0700    3.1580   21.7550 C   0  0  0  0  0  0  0  0  0  0  0  0
    9.5500    1.9640   21.1610 O   0  0  0  0  0  0  0  0  0  0  0  0
   10.2440    1.2010   22.1830 C   0  0  0  0  0  0  0  0  0  0  0  0
   10.2500    1.6120   23.3460 O   0  0  0  0  0  0  0  0  0  0  0  0
   10.9190   -0.0750   21.6950 N   0  0  0  0  0  0  0  0  0  0  0  0
   11.9560   -0.6000   22.4870 C   0  0  0  0  0  0  0  0  0  0  0  0
   11.3790    0.7470   22.6550 C   0  0  0  0  0  0  0  0  0  0  0  0
   12.2440    0.8180   23.6950 C   0  0  0  0  0  0  0  0  0  0  0  0
   11.5360   -0.3500   24.4940 C   0  0  0  0  0  0  0  0  0  0  0  0
   10.0000   -0.3810   24.3740 C   0  0  0  0  0  0  0  0  0  0  0  0
    9.7270   -1.2900   23.3260 C   0  0  0  0  0  0  0  0  0  0  0  0
    8.4900   -0.9850   22.7640 N   0  0  0  0  0  0  0  0  0  0  0  0
    8.1990   -0.4440   21.4770 C   0  0  0  0  0  0  0  0  0  0  0  0
    8.8850    0.3520   20.8620 O   0  0  0  0  0  0  0  0  0  0  0  0
    7.0210   -0.9140   20.9980 N   0  0  0  0  0  0  0  0  0  0  0  0
    6.3960   -0.1450   20.0570 C   0  0  0  0  0  0  0  0  0  0  0  0
    5.2210    0.5790   20.2730 C   0  0  0  0  0  0  0  0  0  0  0  0
    4.6950    1.3210   19.2160 C   0  0  0  0  0  0  0  0  0  0  0  0
    5.3580    1.3490   17.8880 C   0  0  0  0  0  0  0  0  0  0  0  0
    6.4890    0.6370   17.7090 N   0  0  0  0  0  0  0  0  0  0  0  0
    6.9590   -0.0670   18.7740 C   0  0  0  0  0  0  0  0  0  0  0  0
   12.6920   -0.6400   25.1860 C   0  0  0  0  0  0  0  0  0  0  0  0
   12.9590   -0.9090   23.8000 C   0  0  0  0  0  0  0  0  0  0  0  0
  1  2  1  0
  2  3  1  0
  3  4  2  0
  3  5  1  0
  5  6  1  0
  6  7  2  0
  7  8  1  0
  8  9  2  0
  9 10  1  0
 10 11  1  0
 11 12  1  0
 12 13  1  0
 13 14  2  0
 13 15  1  0
 15 16  1  0
 16 17  2  0
 17 18  1  0
 18 19  2  0
 19 20  1  0
 16 21  1  0
 20 21  2  0
  9 22  1  0
  6 23  1  0
 22 23  2  0
M  END
