pyridine_urea_14722
     RDKit          3D

 20 21  0  0  0  0  0  0  0  0999 V2000
    8.5200    1.4490   20.9740 O   0  0  0  0  0  0  0  0  0  0  0  0
    7.9650    0.4520   21.4500 C   0  0  0  0  0  0  0  0  0  0  0  0
    6.9320   -0.2590   20.9200 N   0  0  0  0  0  0  0  0  0  0  0  0
    6.2350    0.3230   19.9070 C   0  0  0  0  0  0  0  0  0  0  0  0
    5.0350    0.9820   20.0490 C   0  0  0  0  0  0  0  0  0  0  0  0
    4.4590    1.5580   18.9320 C   0  0  0  0  0  0  0  0  0  0  0  0
    5.1220    1.4390   17.7330 C   0  0  0  0  0  0  0  0  0  0  0  0
    6.2800    0.7870   17.5770 N   0  0  0  0  0  0  0  0  0  0  0  0
    6.8060    0.2460   18.6690 C   0  0  0  0  0  0  0  0  0  0  0  0
    8.3280   -0.1060   22.5960 N   0  0  0  0  0  0  0  0  0  0  0  0
    9.5960   -0.5360   22.6380 C   0  0  0  0  0  0  0  0  0  0  0  0
    9.8760   -1.7920   22.2060 C   0  0  0  0  0  0  0  0  0  0  0  0
   11.1430   -2.1980   22.2650 C   0  0  0  0  0  0  0  0  0  0  0  0
   12.0310   -1.3600   22.7360 C   0  0  0  0  0  0  0  0  0  0  0  0
   13.5630   -1.9830   22.8080 Cl  0  0  0  0  0  0  0  0  0  0  0  0
   11.7430   -0.1070   23.1410 C   0  0  0  0  0  0  0  0  0  0  0  0
   12.8780    0.5610   23.5680 C   0  0  0  0  0  0  0  0  0  0  0  0
   13.7920    0.6130   22.5880 F   0  0  0  0  0  0  0  0  0  0  0  0
   13.3660   -0.3350   24.4480 F   0  0  0  0  0  0  0  0  0  0  0  0
   10.4770    0.3950   23.1200 C   0  0  0  0  0  0  0  0  0  0  0  0
  1  2  2  0
  2  3  1  0
  3  4  1  0
  4  5  2  0
  5  6  1  0
  6  7  2  0
  7  8  1  0
  4  9  1  0
  8  9  2  0
  2 10  1  0
 10 11  1  0
 11 12  2  0
 12 13  1  0
 13 14  2  0
 14 15  1  0
 14 16  1  0
 16 17  1  0
 17 18  1  0
 17 19  1  0
 11 20  1  0
 16 20  2  0
M  END
