pyridine_urea_1618
     RDKit          3D

 19 20  0  0  0  0  0  0  0  0999 V2000
   13.1770   -1.8840   22.4580 C   0  0  0  0  0  0  0  0  0  0  0  0
   11.9490   -1.0700   22.6990 C   0  0  0  0  0  0  0  0  0  0  0  0
   12.5990    0.1480   22.7990 C   0  0  0  0  0  0  0  0  0  0  0  0
   11.8770    1.3850   23.0370 C   0  0  0  0  0  0  0  0  0  0  0  0
   13.1420    1.6560   22.9310 C   0  0  0  0  0  0  0  0  0  0  0  0
   12.6690    0.2970   22.8030 N   0  0  0  0  0  0  0  0  0  0  0  0
   11.2730    0.0470   22.9200 C   0  0  0  0  0  0  0  0  0  0  0  0
   10.0330   -0.5670   22.9730 C   0  0  1  0  0  0  0  0  0  0  0  0
    9.0310    0.4950   23.4520 C   0  0  0  0  0  0  0  0  0  0  0  0
    9.3890   -1.0220   21.8420 N   0  0  0  0  0  0  0  0  0  0  0  0
    8.4350   -0.2110   21.2950 C   0  0  0  0  0  0  0  0  0  0  0  0
    8.6760    0.9740   21.0690 O   0  0  0  0  0  0  0  0  0  0  0  0
    7.2350   -0.7640   21.0210 N   0  0  0  0  0  0  0  0  0  0  0  0
    6.5520   -0.1040   20.0480 C   0  0  0  0  0  0  0  0  0  0  0  0
    5.3940    0.6090   20.3770 C   0  0  0  0  0  0  0  0  0  0  0  0
    4.6970    1.2970   19.3820 C   0  0  0  0  0  0  0  0  0  0  0  0
    5.1820    1.2490   18.0940 C   0  0  0  0  0  0  0  0  0  0  0  0
    6.2870    0.5710   17.7460 N   0  0  0  0  0  0  0  0  0  0  0  0
    6.9420   -0.0870   18.7250 C   0  0  0  0  0  0  0  0  0  0  0  0
  1  2  1  0
  2  3  2  0
  3  4  1  0
  4  5  2  0
  5  6  1  0
  2  7  1  0
  6  7  2  0
  7  8  1  0
  8  9  1  6
  8 10  1  0
 10 11  1  0
 11 12  2  0
 11 13  1  0
 13 14  1  0
 14 15  2  0
 15 16  1  0
 16 17  2  0
 17 18  1  0
 14 19  1  0
 18 19  2  0
M  END
