pyridine_urea_15177
     RDKit          3D

 17 18  0  0  0  0  0  0  0  0999 V2000
   13.0530   -1.8590   24.8260 N   0  0  0  0  0  0  0  0  0  0  0  0
   13.1040   -0.5870   24.3610 C   0  0  0  0  0  0  0  0  0  0  0  0
   12.2440   -0.2120   23.1960 C   0  0  1  0  0  0  0  0  0  0  0  0
   12.7610   -1.2710   22.2930 C   0  0  0  0  0  0  0  0  0  0  0  0
   11.4790   -1.9430   21.9940 C   0  0  0  0  0  0  0  0  0  0  0  0
   10.4550   -0.8530   22.3160 C   0  0  1  0  0  0  0  0  0  0  0  0
    9.1210   -1.1660   22.0390 N   0  0  0  0  0  0  0  0  0  0  0  0
    8.3180   -0.2170   21.4480 C   0  0  0  0  0  0  0  0  0  0  0  0
    8.6830    0.9440   21.3270 O   0  0  0  0  0  0  0  0  0  0  0  0
    7.1080   -0.7070   21.0120 N   0  0  0  0  0  0  0  0  0  0  0  0
    6.3650   -0.0150   20.0380 C   0  0  0  0  0  0  0  0  0  0  0  0
    5.1650    0.6730   20.2510 C   0  0  0  0  0  0  0  0  0  0  0  0
    4.5510    1.3310   19.1850 C   0  0  0  0  0  0  0  0  0  0  0  0
    5.1550    1.2810   17.9480 C   0  0  0  0  0  0  0  0  0  0  0  0
    6.3050    0.6240   17.7210 N   0  0  0  0  0  0  0  0  0  0  0  0
    6.8710   -0.0030   18.7600 C   0  0  0  0  0  0  0  0  0  0  0  0
   10.7380   -0.2460   23.5200 C   0  0  0  0  0  0  0  0  0  0  0  0
  1  2  3  0
  3  2  1  1
  3  4  1  0
  4  5  1  0
  5  6  1  0
  6  7  1  1
  7  8  1  0
  8  9  2  0
  8 10  1  0
 10 11  1  0
 11 12  2  0
 12 13  1  0
 13 14  2  0
 14 15  1  0
 11 16  1  0
 15 16  2  0
  3 17  1  0
  6 17  1  0
M  END
