pyridine_urea_8464
     RDKit          3D

 22 23  0  0  0  0  0  0  0  0999 V2000
   14.2060    0.2460   18.4600 C   0  0  0  0  0  0  0  0  0  0  0  0
   14.2990   -0.4080   19.8410 C   0  0  0  0  0  0  0  0  0  0  0  0
   13.5720   -1.0870   20.9060 C   0  0  0  0  0  0  0  0  0  0  0  0
   12.7410   -1.9110   20.6540 O   0  0  0  0  0  0  0  0  0  0  0  0
   12.1560   -1.6290   21.8270 C   0  0  0  0  0  0  0  0  0  0  0  0
   12.9110   -1.0960   22.8010 C   0  0  0  0  0  0  0  0  0  0  0  0
   12.2620   -0.8030   23.9970 C   0  0  0  0  0  0  0  0  0  0  0  0
   12.4120   -0.3360   25.1830 C   0  0  0  0  0  0  0  0  0  0  0  0
   10.9210   -0.9470   24.4140 C   0  0  0  0  0  0  0  0  0  0  0  0
   10.2570   -1.4990   23.3480 C   0  0  0  0  0  0  0  0  0  0  0  0
   10.6340   -1.9070   22.0260 C   0  0  0  0  0  0  0  0  0  0  0  0
    9.3390   -2.0720   22.3880 C   0  0  0  0  0  0  0  0  0  0  0  0
    8.7210   -1.3300   21.3540 N   0  0  0  0  0  0  0  0  0  0  0  0
    7.9110   -0.2850   21.3920 C   0  0  0  0  0  0  0  0  0  0  0  0
    8.3220    0.9550   21.7900 O   0  0  0  0  0  0  0  0  0  0  0  0
    6.6770   -0.5720   20.9900 N   0  0  0  0  0  0  0  0  0  0  0  0
    6.0810    0.1310   19.9690 C   0  0  0  0  0  0  0  0  0  0  0  0
    4.9020    0.8370   20.0690 C   0  0  0  0  0  0  0  0  0  0  0  0
    4.4380    1.5120   18.9560 C   0  0  0  0  0  0  0  0  0  0  0  0
    5.1780    1.4530   17.7830 C   0  0  0  0  0  0  0  0  0  0  0  0
    6.3240    0.7650   17.6630 N   0  0  0  0  0  0  0  0  0  0  0  0
    6.7460    0.1230   18.7570 C   0  0  0  0  0  0  0  0  0  0  0  0
  1  2  1  0
  2  3  1  0
  3  4  1  0
  4  5  1  0
  5  6  2  0
  6  7  1  0
  7  8  1  0
  7  9  2  0
  9 10  1  0
  5 11  1  0
 10 11  2  0
 11 12  1  0
 12 13  1  0
 13 14  1  0
 14 15  2  0
 14 16  1  0
 16 17  1  0
 17 18  2  0
 18 19  1  0
 19 20  2  0
 20 21  1  0
 17 22  1  0
 21 22  2  0
M  END
