pyridine_urea_10701
     RDKit          3D

 20 21  0  0  0  0  0  0  0  0999 V2000
   12.5410    3.2730   22.8660 C   0  0  0  0  0  0  0  0  0  0  0  0
   12.2630    1.9350   23.0690 N   0  0  0  0  0  0  0  0  0  0  0  0
   11.0710    1.3670   23.6470 C   0  0  0  0  0  0  0  0  0  0  0  0
   12.2180    0.7820   23.1280 C   0  0  0  0  0  0  0  0  0  0  0  0
   12.7910   -0.4310   22.8730 C   0  0  0  0  0  0  0  0  0  0  0  0
   11.5460   -1.0740   23.4090 C   0  0  0  0  0  0  0  0  0  0  0  0
   11.4440   -1.4320   24.7390 C   0  0  0  0  0  0  0  0  0  0  0  0
   11.5270   -2.5410   23.7830 C   0  0  0  0  0  0  0  0  0  0  0  0
   10.1180   -0.6040   23.3320 C   0  0  0  0  0  0  0  0  0  0  0  0
    9.4310   -0.8660   22.1520 N   0  0  0  0  0  0  0  0  0  0  0  0
    8.5670    0.0210   21.4350 C   0  0  0  0  0  0  0  0  0  0  0  0
    8.8880    1.1850   21.1540 O   0  0  0  0  0  0  0  0  0  0  0  0
    7.3820   -0.5670   21.1060 N   0  0  0  0  0  0  0  0  0  0  0  0
    6.6610    0.0220   20.1060 C   0  0  0  0  0  0  0  0  0  0  0  0
    5.5040    0.7580   20.4530 C   0  0  0  0  0  0  0  0  0  0  0  0
    4.6710    1.4270   19.5030 C   0  0  0  0  0  0  0  0  0  0  0  0
    5.2170    1.2270   18.0940 C   0  0  0  0  0  0  0  0  0  0  0  0
    6.3080    0.5240   17.7820 N   0  0  0  0  0  0  0  0  0  0  0  0
    6.9990   -0.0590   18.7740 C   0  0  0  0  0  0  0  0  0  0  0  0
   13.2830    0.9080   22.6450 N   0  0  0  0  0  0  0  0  0  0  0  0
  1  2  1  0
  2  3  1  0
  3  4  2  0
  4  5  1  0
  5  6  1  0
  6  7  1  0
  6  8  1  0
  6  9  1  0
  9 10  1  0
 10 11  1  0
 11 12  2  0
 11 13  1  0
 13 14  1  0
 14 15  2  0
 15 16  1  0
 16 17  2  0
 17 18  1  0
 14 19  1  0
 18 19  2  0
  2 20  1  0
  5 20  2  0
M  END
