pyridine_urea_1874
     RDKit          3D

 16 16  0  0  0  0  0  0  0  0999 V2000
   11.3040   -2.1320   21.8130 C   0  0  0  0  0  0  0  0  0  0  0  0
   11.6670   -1.1600   22.8740 C   0  0  1  0  0  0  0  0  0  0  0  0
   12.8350   -0.4180   22.7740 C   0  0  0  0  0  0  0  0  0  0  0  0
   12.7380    0.9330   23.0360 C   0  0  0  0  0  0  0  0  0  0  0  0
   12.2780    1.0720   24.1520 O   0  0  0  0  0  0  0  0  0  0  0  0
   10.4090   -0.2680   23.1150 C   0  0  0  0  0  0  0  0  0  0  0  0
    9.1460   -0.7020   22.5270 N   0  0  0  0  0  0  0  0  0  0  0  0
    8.5670    0.1260   21.5900 C   0  0  0  0  0  0  0  0  0  0  0  0
    9.0090    1.2390   21.2720 O   0  0  0  0  0  0  0  0  0  0  0  0
    7.3540   -0.4510   21.0320 N   0  0  0  0  0  0  0  0  0  0  0  0
    6.6340    0.0900   20.0240 C   0  0  0  0  0  0  0  0  0  0  0  0
    5.3550    0.8760   20.3050 C   0  0  0  0  0  0  0  0  0  0  0  0
    4.6350    1.4460   19.2850 C   0  0  0  0  0  0  0  0  0  0  0  0
    5.1260    1.2720   17.9950 C   0  0  0  0  0  0  0  0  0  0  0  0
    6.2460    0.5770   17.7010 N   0  0  0  0  0  0  0  0  0  0  0  0
    6.9700    0.0040   18.6950 C   0  0  0  0  0  0  0  0  0  0  0  0
  2  1  1  6
  2  3  1  0
  3  4  1  0
  4  5  1  0
  2  6  1  0
  6  7  1  0
  7  8  1  0
  8  9  2  0
  8 10  1  0
 10 11  1  0
 11 12  2  0
 12 13  1  0
 13 14  2  0
 14 15  1  0
 11 16  1  0
 15 16  2  0
M  END
