pyridine_urea_8496
     RDKit          3D

 22 23  0  0  0  0  0  0  0  0999 V2000
    6.8450   -1.9560   25.0730 O   0  0  0  0  0  0  0  0  0  0  0  0
    7.2600   -1.2720   24.1460 C   0  0  0  0  0  0  0  0  0  0  0  0
    8.1430   -1.8510   23.0660 C   0  0  0  0  0  0  0  0  0  0  0  0
    9.0850   -0.8520   22.5810 N   0  0  0  0  0  0  0  0  0  0  0  0
    8.4950    0.0420   21.5540 C   0  0  0  0  0  0  0  0  0  0  0  0
    9.0040    1.1340   21.2570 O   0  0  0  0  0  0  0  0  0  0  0  0
    7.3470   -0.4910   21.0270 N   0  0  0  0  0  0  0  0  0  0  0  0
    6.5910    0.1060   20.0220 C   0  0  0  0  0  0  0  0  0  0  0  0
    5.4370    0.7960   20.3640 C   0  0  0  0  0  0  0  0  0  0  0  0
    4.6350    1.4640   19.2560 C   0  0  0  0  0  0  0  0  0  0  0  0
    5.1580    1.3040   17.9910 C   0  0  0  0  0  0  0  0  0  0  0  0
    6.2660    0.6250   17.6740 N   0  0  0  0  0  0  0  0  0  0  0  0
    6.9480    0.0480   18.6880 C   0  0  0  0  0  0  0  0  0  0  0  0
    6.9580    0.0700   24.0000 N   0  0  0  0  0  0  0  0  0  0  0  0
    6.2410    0.8080   25.0270 C   0  0  0  0  0  0  0  0  0  0  0  0
    5.9980    2.1270   24.6500 C   0  0  0  0  0  0  0  0  0  0  0  0
    6.5250    3.1450   25.3770 N   0  0  0  0  0  0  0  0  0  0  0  0
    7.8560    3.2510   25.3600 C   0  0  0  0  0  0  0  0  0  0  0  0
    8.2450    3.9120   26.5340 C   0  0  0  0  0  0  0  0  0  0  0  0
    7.4960    5.0480   26.8280 C   0  0  0  0  0  0  0  0  0  0  0  0
    6.4680    5.3410   25.9500 C   0  0  0  0  0  0  0  0  0  0  0  0
    5.7850    4.2890   25.3370 C   0  0  0  0  0  0  0  0  0  0  0  0
  1  2  2  0
  2  3  1  0
  3  4  1  0
  4  5  1  0
  5  6  2  0
  5  7  1  0
  7  8  1  0
  8  9  2  0
  9 10  1  0
 10 11  2  0
 11 12  1  0
  8 13  1  0
 12 13  2  0
  2 14  1  0
 14 15  1  0
 15 16  1  0
 16 17  1  0
 17 18  1  0
 18 19  1  0
 19 20  1  0
 20 21  1  0
 17 22  1  0
 21 22  1  0
M  END
