pyridine_urea_3195
     RDKit          3D

 20 21  0  0  0  0  0  0  0  0999 V2000
    8.3600    3.0490   24.1560 C   0  0  0  0  0  0  0  0  0  0  0  0
    8.7010    1.6090   24.4100 C   0  0  0  0  0  0  0  0  0  0  0  0
   10.0810    1.3980   24.0650 O   0  0  0  0  0  0  0  0  0  0  0  0
   10.5010    0.1030   23.9460 C   0  0  1  0  0  0  0  0  0  0  0  0
   10.0960   -0.5480   22.7840 C   0  0  0  0  0  0  0  0  0  0  0  0
    8.8040   -0.7340   22.5020 N   0  0  0  0  0  0  0  0  0  0  0  0
    8.2980   -0.0160   21.4770 C   0  0  0  0  0  0  0  0  0  0  0  0
    8.7820    1.0770   21.1400 O   0  0  0  0  0  0  0  0  0  0  0  0
    7.2330   -0.6670   20.9580 N   0  0  0  0  0  0  0  0  0  0  0  0
    6.5180    0.0130   20.0430 C   0  0  0  0  0  0  0  0  0  0  0  0
    5.3500    0.7490   20.2880 C   0  0  0  0  0  0  0  0  0  0  0  0
    4.6180    1.5040   19.1580 C   0  0  0  0  0  0  0  0  0  0  0  0
    5.1780    1.4140   17.8920 C   0  0  0  0  0  0  0  0  0  0  0  0
    6.3030    0.6810   17.7270 N   0  0  0  0  0  0  0  0  0  0  0  0
    6.9640   -0.0040   18.7390 C   0  0  0  0  0  0  0  0  0  0  0  0
   12.0060    0.1160   24.1120 C   0  0  2  0  0  0  0  0  0  0  0  0
   12.7020    0.1690   22.8980 C   0  0  0  0  0  0  0  0  0  0  0  0
   12.9340   -1.0710   22.3510 C   0  0  0  0  0  0  0  0  0  0  0  0
   13.0290   -1.9420   23.3460 O   0  0  0  0  0  0  0  0  0  0  0  0
   12.6020   -1.2950   24.5270 C   0  0  0  0  0  0  0  0  0  0  0  0
  1  2  1  0
  2  3  1  0
  3  4  1  0
  4  5  1  6
  5  6  1  0
  6  7  1  0
  7  8  2  0
  7  9  1  0
  9 10  1  0
 10 11  2  0
 11 12  1  0
 12 13  2  0
 13 14  1  0
 10 15  1  0
 14 15  2  0
  4 16  1  0
 16 17  1  6
 17 18  1  0
 18 19  1  0
 16 20  1  0
 19 20  1  0
M  END
