pyridine_urea_9279
     RDKit          3D

 17 18  0  0  0  0  0  0  0  0999 V2000
    8.9270    0.8760   21.3320 O   0  0  0  0  0  0  0  0  0  0  0  0
    8.4030   -0.2020   21.5900 C   0  0  0  0  0  0  0  0  0  0  0  0
    7.2070   -0.6370   21.0790 N   0  0  0  0  0  0  0  0  0  0  0  0
    6.5180    0.0000   20.0380 C   0  0  0  0  0  0  0  0  0  0  0  0
    5.3510    0.7190   20.3250 C   0  0  0  0  0  0  0  0  0  0  0  0
    4.6640    1.3700   19.2960 C   0  0  0  0  0  0  0  0  0  0  0  0
    5.1700    1.2790   18.0180 C   0  0  0  0  0  0  0  0  0  0  0  0
    6.2820    0.5920   17.7210 N   0  0  0  0  0  0  0  0  0  0  0  0
    6.9270   -0.0310   18.7270 C   0  0  0  0  0  0  0  0  0  0  0  0
    8.9800   -1.1070   22.4500 N   0  0  0  0  0  0  0  0  0  0  0  0
   10.3650   -0.9210   22.8850 C   0  0  0  0  0  0  0  0  0  0  0  0
   10.5270    0.6100   23.0860 C   0  0  0  0  0  0  0  0  0  0  0  0
   11.2310    0.9160   24.2050 C   0  0  0  0  0  0  0  0  0  0  0  0
   12.2280   -0.0170   24.2840 C   0  0  0  0  0  0  0  0  0  0  0  0
   13.0490   -0.9670   23.7680 C   0  0  0  0  0  0  0  0  0  0  0  0
   12.8680   -1.1970   22.4260 C   0  0  0  0  0  0  0  0  0  0  0  0
   11.5240   -1.5210   22.2040 C   0  0  0  0  0  0  0  0  0  0  0  0
  1  2  2  0
  2  3  1  0
  3  4  1  0
  4  5  2  0
  5  6  1  0
  6  7  2  0
  7  8  1  0
  4  9  1  0
  8  9  2  0
  2 10  1  0
 10 11  1  0
 11 12  1  0
 12 13  1  0
 13 14  1  0
 14 15  2  0
 15 16  1  0
 11 17  1  0
 16 17  1  0
M  END
