pyridine_urea_4384
     RDKit          3D

 24 25  0  0  0  0  0  0  0  0999 V2000
   12.9810    0.5470   22.9410 C   0  0  0  0  0  0  0  0  0  0  0  0
   11.8090    0.9250   23.8410 C   0  0  0  0  0  0  0  0  0  0  0  0
   10.4350    0.7420   23.1880 C   0  0  0  0  0  0  0  0  0  0  0  0
   10.3780   -0.4680   22.3390 C   0  0  2  0  0  0  0  0  0  0  0  0
    9.0160   -0.9980   22.3170 N   0  0  0  0  0  0  0  0  0  0  0  0
    8.2240   -0.1880   21.5440 C   0  0  0  0  0  0  0  0  0  0  0  0
    8.5220    0.9800   21.3430 O   0  0  0  0  0  0  0  0  0  0  0  0
    7.0830   -0.7950   21.0070 N   0  0  0  0  0  0  0  0  0  0  0  0
    6.3690   -0.1030   20.0510 C   0  0  0  0  0  0  0  0  0  0  0  0
    5.0530    0.6390   20.2980 C   0  0  0  0  0  0  0  0  0  0  0  0
    4.5260    1.2910   19.1770 C   0  0  0  0  0  0  0  0  0  0  0  0
    5.1820    1.2430   17.9540 C   0  0  0  0  0  0  0  0  0  0  0  0
    6.3310    0.5850   17.7440 N   0  0  0  0  0  0  0  0  0  0  0  0
    6.8880   -0.0650   18.7780 C   0  0  0  0  0  0  0  0  0  0  0  0
   11.5490   -1.3270   22.5750 C   0  0  0  0  0  0  0  0  0  0  0  0
   11.8820   -1.8430   21.4130 C   0  0  0  0  0  0  0  0  0  0  0  0
   13.1460   -2.7760   21.6180 C   0  0  0  0  0  0  0  0  0  0  0  0
   13.8010   -2.9890   22.9570 C   0  0  0  0  0  0  0  0  0  0  0  0
   13.2180   -2.3030   24.0440 C   0  0  0  0  0  0  0  0  0  0  0  0
   13.2200   -2.0690   25.2870 C   0  0  0  0  0  0  0  0  0  0  0  0
   14.1960   -2.5650   26.0520 F   0  0  0  0  0  0  0  0  0  0  0  0
   12.1030   -2.6960   25.6060 F   0  0  0  0  0  0  0  0  0  0  0  0
   13.0310   -0.7650   25.5330 F   0  0  0  0  0  0  0  0  0  0  0  0
   12.4410   -1.9060   23.0820 C   0  0  0  0  0  0  0  0  0  0  0  0
  1  2  1  0
  2  3  1  0
  4  3  1  1
  4  5  1  0
  5  6  1  0
  6  7  2  0
  6  8  1  0
  8  9  1  0
  9 10  2  0
 10 11  1  0
 11 12  2  0
 12 13  1  0
  9 14  1  0
 13 14  2  0
  4 15  1  0
 15 16  2  0
 16 17  1  0
 17 18  2  0
 18 19  1  0
 19 20  1  0
 20 21  1  0
 20 22  1  0
 20 23  1  0
 15 24  1  0
 19 24  2  0
M  END
