pyridine_urea_10176
     RDKit          3D

 23 24  0  0  0  0  0  0  0  0999 V2000
    9.0000    1.1910   20.9600 O   0  0  0  0  0  0  0  0  0  0  0  0
    8.4930    0.1410   21.3700 C   0  0  0  0  0  0  0  0  0  0  0  0
    7.2890   -0.3800   20.9420 N   0  0  0  0  0  0  0  0  0  0  0  0
    6.4980    0.1730   19.9340 C   0  0  0  0  0  0  0  0  0  0  0  0
    5.2390    0.7450   20.1210 C   0  0  0  0  0  0  0  0  0  0  0  0
    4.5490    1.2840   19.0240 C   0  0  0  0  0  0  0  0  0  0  0  0
    5.1500    1.2280   17.7820 C   0  0  0  0  0  0  0  0  0  0  0  0
    6.3620    0.6750   17.5750 N   0  0  0  0  0  0  0  0  0  0  0  0
    6.9960    0.1630   18.6430 C   0  0  0  0  0  0  0  0  0  0  0  0
    9.0820   -0.6720   22.3220 N   0  0  0  0  0  0  0  0  0  0  0  0
   10.4760   -0.8520   22.4340 C   0  0  2  0  0  0  0  0  0  0  0  0
   10.8750   -2.1560   22.6730 C   0  0  0  0  0  0  0  0  0  0  0  0
    9.9410   -2.9110   22.3770 O   0  0  0  0  0  0  0  0  0  0  0  0
   11.0820    0.1800   23.3700 C   0  0  0  0  0  0  0  0  0  0  0  0
   11.0710    1.0230   24.2780 C   0  0  0  0  0  0  0  0  0  0  0  0
   12.8420    1.0020   23.7670 C   0  0  0  0  0  0  0  0  0  0  0  0
   12.5290   -0.0680   22.7190 C   0  0  0  0  0  0  0  0  0  0  0  0
   13.6380   -0.4850   21.9780 C   0  0  0  0  0  0  0  0  0  0  0  0
   14.7950   -0.7030   22.6160 F   0  0  0  0  0  0  0  0  0  0  0  0
   13.9610    0.4520   21.0340 F   0  0  0  0  0  0  0  0  0  0  0  0
   13.4070   -1.6130   21.2570 F   0  0  0  0  0  0  0  0  0  0  0  0
   12.8370    0.9870   23.7520 C   0  0  0  0  0  0  0  0  0  0  0  0
   11.8850    0.9090   23.9280 C   0  0  0  0  0  0  0  0  0  0  0  0
  1  2  2  0
  2  3  1  0
  3  4  1  0
  4  5  2  0
  5  6  1  0
  6  7  2  0
  7  8  1  0
  4  9  1  0
  8  9  2  0
  2 10  1  0
 10 11  1  0
 11 12  1  1
 12 13  1  0
 11 14  1  0
 14 15  2  0
 15 16  1  0
 16 17  2  0
 17 18  1  0
 18 19  1  0
 18 20  1  0
 18 21  1  0
 17 22  1  0
 14 23  1  0
 22 23  2  0
M  END
