pyridine_urea_5092
     RDKit          3D

 20 21  0  0  0  0  0  0  0  0999 V2000
    8.9380    1.2990   21.1780 O   0  0  0  0  0  0  0  0  0  0  0  0
    8.4970    0.1890   21.4990 C   0  0  0  0  0  0  0  0  0  0  0  0
    7.3330   -0.3810   21.0500 N   0  0  0  0  0  0  0  0  0  0  0  0
    6.5790    0.1630   20.0150 C   0  0  0  0  0  0  0  0  0  0  0  0
    5.4100    0.8640   20.3170 C   0  0  0  0  0  0  0  0  0  0  0  0
    4.6650    1.4320   19.2870 C   0  0  0  0  0  0  0  0  0  0  0  0
    5.1230    1.2710   17.9980 C   0  0  0  0  0  0  0  0  0  0  0  0
    6.2320    0.5950   17.6880 N   0  0  0  0  0  0  0  0  0  0  0  0
    6.9360    0.0560   18.6950 C   0  0  0  0  0  0  0  0  0  0  0  0
    9.1760   -0.6240   22.3700 N   0  0  0  0  0  0  0  0  0  0  0  0
   10.3400   -0.0560   23.0210 C   0  0  2  0  0  0  0  0  0  0  0  0
   11.6540   -0.7920   22.6760 C   0  0  0  0  0  0  0  0  0  0  0  0
   11.7300   -1.9400   22.2760 C   0  0  0  0  0  0  0  0  0  0  0  0
   12.7160   -0.9620   22.5450 C   0  0  0  0  0  0  0  0  0  0  0  0
   11.6000    0.1130   23.0090 C   0  0  0  0  0  0  0  0  0  0  0  0
   12.7690    0.7660   23.1370 C   0  0  0  0  0  0  0  0  0  0  0  0
   13.0710   -0.3270   22.7340 C   0  0  0  0  0  0  0  0  0  0  0  0
   10.2610   -0.3210   24.4740 C   0  0  0  0  0  0  0  0  0  0  0  0
    9.4360    0.6060   25.0530 F   0  0  0  0  0  0  0  0  0  0  0  0
    9.6070   -1.4990   24.6600 F   0  0  0  0  0  0  0  0  0  0  0  0
  1  2  2  0
  2  3  1  0
  3  4  1  0
  4  5  2  0
  5  6  1  0
  6  7  2  0
  7  8  1  0
  4  9  1  0
  8  9  2  0
  2 10  1  0
 11 10  1  6
 11 12  1  0
 12 13  2  0
 13 14  1  0
 14 15  2  0
 15 16  1  0
 12 17  1  0
 16 17  2  0
 11 18  1  0
 18 19  1  0
 18 20  1  0
M  END
