pyridine_urea_10651
     RDKit          3D

 21 22  0  0  0  0  0  0  0  0999 V2000
   13.0180   -2.1790   21.2260 C   0  0  0  0  0  0  0  0  0  0  0  0
   13.5520   -0.9360   21.4860 N   0  0  0  0  0  0  0  0  0  0  0  0
   13.6590   -0.3410   22.7530 C   0  0  0  0  0  0  0  0  0  0  0  0
   13.9580   -1.0240   23.9070 O   0  0  0  0  0  0  0  0  0  0  0  0
   13.3350    1.0670   22.8250 N   0  0  0  0  0  0  0  0  0  0  0  0
   12.1040    0.7710   22.8570 C   0  0  0  0  0  0  0  0  0  0  0  0
   10.9210    1.6060   23.0610 C   0  0  0  0  0  0  0  0  0  0  0  0
    9.6100    1.0300   23.0490 C   0  0  0  0  0  0  0  0  0  0  0  0
    9.4280   -0.2930   22.8380 C   0  0  0  0  0  0  0  0  0  0  0  0
    8.1330   -0.7980   22.8030 N   0  0  0  0  0  0  0  0  0  0  0  0
    7.5950   -0.3500   21.5690 C   0  0  0  0  0  0  0  0  0  0  0  0
    8.1590    0.5770   20.9900 O   0  0  0  0  0  0  0  0  0  0  0  0
    6.4560   -0.9810   21.0790 N   0  0  0  0  0  0  0  0  0  0  0  0
    6.1180   -0.1780   19.9020 C   0  0  0  0  0  0  0  0  0  0  0  0
    4.9710    0.5610   20.0910 C   0  0  0  0  0  0  0  0  0  0  0  0
    4.5240    1.3720   19.0750 C   0  0  0  0  0  0  0  0  0  0  0  0
    5.2100    1.4560   17.8610 C   0  0  0  0  0  0  0  0  0  0  0  0
    6.3400    0.7250   17.6800 N   0  0  0  0  0  0  0  0  0  0  0  0
    6.7750   -0.0750   18.6940 C   0  0  0  0  0  0  0  0  0  0  0  0
   10.7410   -1.0480   22.6390 C   0  0  0  0  0  0  0  0  0  0  0  0
   12.0830   -0.7640   22.6140 C   0  0  0  0  0  0  0  0  0  0  0  0
  1  2  1  0
  2  3  1  0
  3  4  2  0
  3  5  1  0
  5  6  1  0
  6  7  2  0
  7  8  1  0
  8  9  2  0
  9 10  1  0
 10 11  1  0
 11 12  2  0
 11 13  1  0
 13 14  1  0
 14 15  2  0
 15 16  1  0
 16 17  2  0
 17 18  1  0
 14 19  1  0
 18 19  2  0
  9 20  1  0
  6 21  1  0
 20 21  2  0
M  END
