pyridine_urea_12580
     RDKit          3D

 21 23  0  0  0  0  0  0  0  0999 V2000
    6.9610   -1.8650   23.1050 C   0  0  0  0  0  0  0  0  0  0  0  0
    7.9680   -2.4060   22.0920 C   0  0  1  0  0  0  0  0  0  0  0  0
    8.2230   -1.5020   20.9960 N   0  0  0  0  0  0  0  0  0  0  0  0
    8.1440   -0.1280   21.4200 C   0  0  0  0  0  0  0  0  0  0  0  0
    9.0900    0.6170   21.6340 O   0  0  0  0  0  0  0  0  0  0  0  0
    6.6980    0.1500   21.5060 N   0  0  0  0  0  0  0  0  0  0  0  0
    6.1930    0.5690   20.2220 C   0  0  0  0  0  0  0  0  0  0  0  0
    4.9370    1.4280   20.2060 C   0  0  0  0  0  0  0  0  0  0  0  0
    4.4630    1.8520   18.9930 C   0  0  0  0  0  0  0  0  0  0  0  0
    5.1780    1.4700   17.7250 C   0  0  0  0  0  0  0  0  0  0  0  0
    6.3010    0.6820   17.7720 N   0  0  0  0  0  0  0  0  0  0  0  0
    6.8040    0.2330   19.0050 C   0  0  0  0  0  0  0  0  0  0  0  0
    9.3260   -2.4080   22.6460 C   0  0  0  0  0  0  0  0  0  0  0  0
   10.2980   -1.5190   22.0100 N   0  0  0  0  0  0  0  0  0  0  0  0
   11.4750   -1.6820   22.6500 C   0  0  0  0  0  0  0  0  0  0  0  0
   11.4090   -2.6510   23.7410 C   0  0  0  0  0  0  0  0  0  0  0  0
    9.8660   -3.3540   23.9550 S   0  0  0  0  0  0  0  0  0  0  0  0
   12.6640   -2.8940   24.5030 C   0  0  0  0  0  0  0  0  0  0  0  0
   13.3280   -1.7270   24.7330 C   0  0  0  0  0  0  0  0  0  0  0  0
   13.0760   -0.7130   23.7700 C   0  0  0  0  0  0  0  0  0  0  0  0
   12.7140   -1.1270   22.5100 C   0  0  0  0  0  0  0  0  0  0  0  0
  2  1  1  1
  2  3  1  0
  3  4  1  0
  4  5  2  0
  4  6  1  0
  6  7  1  0
  7  8  2  0
  8  9  1  0
  9 10  2  0
 10 11  1  0
  7 12  1  0
 11 12  2  0
  2 13  1  0
 13 14  2  0
 14 15  1  0
 15 16  2  0
 13 17  1  0
 16 17  1  0
 16 18  1  0
 18 19  1  0
 19 20  1  0
 15 21  1  0
 20 21  1  0
M  END
