pyridine_urea_7151
     RDKit          3D

 19 20  0  0  0  0  0  0  0  0999 V2000
    8.6620    0.9630   21.1940 O   0  0  0  0  0  0  0  0  0  0  0  0
    8.3490   -0.1620   21.5560 C   0  0  0  0  0  0  0  0  0  0  0  0
    7.2060   -0.7700   21.0690 N   0  0  0  0  0  0  0  0  0  0  0  0
    6.4350   -0.0890   20.0990 C   0  0  0  0  0  0  0  0  0  0  0  0
    5.2290    0.5750   20.3190 C   0  0  0  0  0  0  0  0  0  0  0  0
    4.5890    1.2280   19.2580 C   0  0  0  0  0  0  0  0  0  0  0  0
    5.1810    1.1940   18.0100 C   0  0  0  0  0  0  0  0  0  0  0  0
    6.3370    0.5570   17.7710 N   0  0  0  0  0  0  0  0  0  0  0  0
    6.9260   -0.0620   18.8070 C   0  0  0  0  0  0  0  0  0  0  0  0
    9.1150   -0.8920   22.4630 N   0  0  0  0  0  0  0  0  0  0  0  0
   10.4360   -0.4460   22.6790 C   0  0  0  0  0  0  0  0  0  0  0  0
   11.5460   -1.2550   22.8430 C   0  0  0  0  0  0  0  0  0  0  0  0
   12.7880   -0.6410   23.0160 C   0  0  0  0  0  0  0  0  0  0  0  0
   12.8620    0.7510   23.0030 C   0  0  0  0  0  0  0  0  0  0  0  0
   11.7250    1.5450   22.8340 C   0  0  0  0  0  0  0  0  0  0  0  0
   11.7730    3.0520   22.7680 C   0  0  0  0  0  0  0  0  0  0  0  0
   10.9090    3.6600   23.6120 F   0  0  0  0  0  0  0  0  0  0  0  0
   12.9940    3.5460   23.0750 F   0  0  0  0  0  0  0  0  0  0  0  0
   10.4780    0.9420   22.6800 C   0  0  0  0  0  0  0  0  0  0  0  0
  1  2  2  0
  2  3  1  0
  3  4  1  0
  4  5  2  0
  5  6  1  0
  6  7  2  0
  7  8  1  0
  4  9  1  0
  8  9  2  0
  2 10  1  0
 10 11  1  0
 11 12  2  0
 12 13  1  0
 13 14  2  0
 14 15  1  0
 15 16  1  0
 16 17  1  0
 16 18  1  0
 11 19  1  0
 15 19  2  0
M  END
