pyridine_urea_4
     RDKit          3D

 18 19  0  0  0  0  0  0  0  0999 V2000
   13.6290   -2.5460   24.4670 C   0  0  0  0  0  0  0  0  0  0  0  0
   13.4870   -1.2420   23.9160 O   0  0  0  0  0  0  0  0  0  0  0  0
   12.1390   -0.8570   24.0130 C   0  0  2  0  0  0  0  0  0  0  0  0
   11.3820   -1.2990   22.7870 C   0  0  0  0  0  0  0  0  0  0  0  0
   10.0530   -0.7690   23.0280 C   0  0  2  0  0  0  0  0  0  0  0  0
    9.2470   -0.8590   21.8270 N   0  0  0  0  0  0  0  0  0  0  0  0
    8.4010    0.1090   21.3420 C   0  0  0  0  0  0  0  0  0  0  0  0
    8.7570    1.2740   21.1510 O   0  0  0  0  0  0  0  0  0  0  0  0
    7.1770   -0.4120   21.1000 N   0  0  0  0  0  0  0  0  0  0  0  0
    6.5310    0.1240   20.0390 C   0  0  0  0  0  0  0  0  0  0  0  0
    5.2970    0.9050   20.3010 C   0  0  0  0  0  0  0  0  0  0  0  0
    4.5310    1.5170   19.3550 C   0  0  0  0  0  0  0  0  0  0  0  0
    5.1840    1.2470   18.0130 C   0  0  0  0  0  0  0  0  0  0  0  0
    6.2930    0.5450   17.7460 N   0  0  0  0  0  0  0  0  0  0  0  0
    6.9460   -0.0080   18.7570 C   0  0  0  0  0  0  0  0  0  0  0  0
   10.3960    0.6540   23.4980 C   0  0  0  0  0  0  0  0  0  0  0  0
   11.7890    0.6300   23.6990 C   0  0  2  0  0  0  0  0  0  0  0  0
   12.4250    1.0500   22.5020 O   0  0  0  0  0  0  0  0  0  0  0  0
  1  2  1  0
  3  2  1  6
  3  4  1  0
  4  5  1  0
  5  6  1  6
  6  7  1  0
  7  8  2  0
  7  9  1  0
  9 10  1  0
 10 11  2  0
 11 12  1  0
 12 13  2  0
 13 14  1  0
 10 15  1  0
 14 15  2  0
  5 16  1  0
  3 17  1  0
 16 17  1  0
 17 18  1  6
M  END
