pyridine_urea_6898
     RDKit          3D

 20 21  0  0  0  0  0  0  0  0999 V2000
   10.1240   -0.2620   25.8410 C   0  0  0  0  0  0  0  0  0  0  0  0
   10.6930   -1.0370   24.6730 C   0  0  0  0  0  0  0  0  0  0  0  0
    9.8190   -0.9660   23.6090 N   0  0  0  0  0  0  0  0  0  0  0  0
   10.4360   -1.7180   22.5830 C   0  0  0  0  0  0  0  0  0  0  0  0
    9.6790   -1.7360   21.5310 C   0  0  0  0  0  0  0  0  0  0  0  0
    8.4360   -1.5400   21.9830 N   0  0  0  0  0  0  0  0  0  0  0  0
    7.8330   -0.3500   21.4830 C   0  0  0  0  0  0  0  0  0  0  0  0
    8.4890    0.6950   21.4240 O   0  0  0  0  0  0  0  0  0  0  0  0
    6.4670   -0.5560   21.0780 N   0  0  0  0  0  0  0  0  0  0  0  0
    6.0400    0.1260   19.9980 C   0  0  0  0  0  0  0  0  0  0  0  0
    4.8070    1.0280   20.0230 C   0  0  0  0  0  0  0  0  0  0  0  0
    4.4470    1.7030   18.8780 C   0  0  0  0  0  0  0  0  0  0  0  0
    5.1480    1.6110   17.6810 C   0  0  0  0  0  0  0  0  0  0  0  0
    6.3060    0.7470   17.6640 N   0  0  0  0  0  0  0  0  0  0  0  0
    6.7250    0.0340   18.8010 C   0  0  0  0  0  0  0  0  0  0  0  0
   11.9410   -2.4620   22.7830 S   0  0  0  0  0  0  0  0  0  0  0  0
   11.9880   -1.8590   24.4500 C   0  0  0  0  0  0  0  0  0  0  0  0
   13.2240   -2.3230   25.1020 C   0  0  0  0  0  0  0  0  0  0  0  0
   13.8010   -1.8250   26.1540 N   0  0  0  0  0  0  0  0  0  0  0  0
   13.8190   -3.2750   24.6430 O   0  0  0  0  0  0  0  0  0  0  0  0
  1  2  1  0
  2  3  1  0
  3  4  2  0
  4  5  1  0
  5  6  1  0
  6  7  1  0
  7  8  2  0
  7  9  1  0
  9 10  1  0
 10 11  2  0
 11 12  1  0
 12 13  2  0
 13 14  1  0
 10 15  1  0
 14 15  2  0
  4 16  1  0
  2 17  2  0
 16 17  1  0
 17 18  1  0
 18 19  1  0
 18 20  2  0
M  END
