pyridine_urea_9902
     RDKit          3D

 25 27  0  0  0  0  0  0  0  0999 V2000
    8.6760   -1.3710   20.7860 O   0  0  0  0  0  0  0  0  0  0  0  0
    7.9390   -0.7060   21.4430 C   0  0  0  0  0  0  0  0  0  0  0  0
    8.4390    0.0260   22.4660 N   0  0  0  0  0  0  0  0  0  0  0  0
    9.6130    0.6760   21.9810 C   0  0  0  0  0  0  0  0  0  0  0  0
   10.6360    0.9960   23.0030 C   0  0  0  0  0  0  0  0  0  0  0  0
   11.6550    0.8420   24.1220 C   0  0  0  0  0  0  0  0  0  0  0  0
   12.0970   -0.3970   24.8670 C   0  0  0  0  0  0  0  0  0  0  0  0
   11.5340   -1.7110   24.5450 C   0  0  0  0  0  0  0  0  0  0  0  0
   11.8900   -2.6960   25.1780 O   0  0  0  0  0  0  0  0  0  0  0  0
   13.1690   -2.5400   25.0630 C   0  0  0  0  0  0  0  0  0  0  0  0
   13.2710   -1.9420   23.8740 C   0  0  0  0  0  0  0  0  0  0  0  0
   13.2610   -2.7420   22.8160 C   0  0  0  0  0  0  0  0  0  0  0  0
   13.3640   -2.3240   21.5550 C   0  0  0  0  0  0  0  0  0  0  0  0
   13.5040   -1.0210   21.3230 C   0  0  0  0  0  0  0  0  0  0  0  0
   13.4890   -0.0930   22.3740 C   0  0  0  0  0  0  0  0  0  0  0  0
   13.3620   -0.5990   23.7200 C   0  0  0  0  0  0  0  0  0  0  0  0
   10.5480   -1.7760   23.4590 C   0  0  0  0  0  0  0  0  0  0  0  0
   10.1810   -0.5080   22.8010 C   0  0  0  0  0  0  0  0  0  0  0  0
    6.6030   -0.5610   21.2530 N   0  0  0  0  0  0  0  0  0  0  0  0
    6.0680    0.1200   20.1550 C   0  0  0  0  0  0  0  0  0  0  0  0
    4.9210    0.8640   20.1990 C   0  0  0  0  0  0  0  0  0  0  0  0
    4.4860    1.5110   19.0410 C   0  0  0  0  0  0  0  0  0  0  0  0
    5.2210    1.3880   17.8680 C   0  0  0  0  0  0  0  0  0  0  0  0
    6.3610    0.6660   17.7440 N   0  0  0  0  0  0  0  0  0  0  0  0
    6.7950    0.0350   18.8510 C   0  0  0  0  0  0  0  0  0  0  0  0
  1  2  2  0
  2  3  1  0
  3  4  1  0
  4  5  1  0
  5  6  2  0
  6  7  1  0
  7  8  2  0
  8  9  1  0
  9 10  1  0
 10 11  1  0
 11 12  2  0
 12 13  1  0
 13 14  2  0
 14 15  1  0
 11 16  1  0
 15 16  2  0
  8 17  1  0
  5 18  1  0
 17 18  2  0
  2 19  1  0
 19 20  1  0
 20 21  2  0
 21 22  1  0
 22 23  2  0
 23 24  1  0
 20 25  1  0
 24 25  2  0
M  END
