pyridine_urea_12173
     RDKit          3D

 23 24  0  0  0  0  0  0  0  0999 V2000
   14.8390    3.1780   18.5390 C   0  0  0  0  0  0  0  0  0  0  0  0
   14.7390    1.8330   18.3420 N   0  0  0  0  0  0  0  0  0  0  0  0
   14.8240    1.0400   19.8320 S   0  0  0  0  0  0  0  0  0  0  0  0
   14.5630    2.0000   20.8610 O   0  0  0  0  0  0  0  0  0  0  0  0
   16.1320    0.8720   19.4540 O   0  0  0  0  0  0  0  0  0  0  0  0
   13.9690   -0.7330   20.3240 C   0  0  0  0  0  0  0  0  0  0  0  0
   13.0790   -0.8640   21.5750 C   0  0  0  0  0  0  0  0  0  0  0  0
   13.5160   -0.2590   22.7040 C   0  0  0  0  0  0  0  0  0  0  0  0
   12.8070   -0.1180   23.8000 C   0  0  0  0  0  0  0  0  0  0  0  0
   11.5660   -0.5620   23.8450 C   0  0  0  0  0  0  0  0  0  0  0  0
   11.0690   -1.2220   22.8310 C   0  0  0  0  0  0  0  0  0  0  0  0
   11.7060   -1.5300   21.5030 C   0  0  0  0  0  0  0  0  0  0  0  0
   10.4030   -2.0230   21.8170 C   0  0  0  0  0  0  0  0  0  0  0  0
    9.4160   -1.3340   21.1300 N   0  0  0  0  0  0  0  0  0  0  0  0
    8.4990   -0.3090   21.4350 C   0  0  0  0  0  0  0  0  0  0  0  0
    8.8350    0.7970   21.8180 O   0  0  0  0  0  0  0  0  0  0  0  0
    7.1970   -0.6430   21.2260 N   0  0  0  0  0  0  0  0  0  0  0  0
    6.5170   -0.0030   20.2280 C   0  0  0  0  0  0  0  0  0  0  0  0
    5.3590    0.7600   20.4050 C   0  0  0  0  0  0  0  0  0  0  0  0
    4.7540    1.3750   19.3150 C   0  0  0  0  0  0  0  0  0  0  0  0
    5.2690    1.2550   18.0510 C   0  0  0  0  0  0  0  0  0  0  0  0
    6.3730    0.5390   17.7910 N   0  0  0  0  0  0  0  0  0  0  0  0
    6.9830   -0.0910   18.9060 C   0  0  0  0  0  0  0  0  0  0  0  0
  1  2  1  0
  3  2  1  0
  3  4  2  0
  3  5  2  0
  3  6  1  0
  6  7  1  0
  7  8  2  0
  8  9  1  0
  9 10  2  0
 10 11  1  0
  7 12  1  0
 11 12  2  0
 12 13  1  0
 13 14  1  0
 14 15  1  0
 15 16  2  0
 15 17  1  0
 17 18  1  0
 18 19  2  0
 19 20  1  0
 20 21  2  0
 21 22  1  0
 18 23  1  0
 22 23  2  0
M  END
