pyridine_urea_12774
     RDKit          3D

 20 21  0  0  0  0  0  0  0  0999 V2000
    8.9770    0.8660   21.3130 O   0  0  0  0  0  0  0  0  0  0  0  0
    8.3880   -0.1660   21.6050 C   0  0  0  0  0  0  0  0  0  0  0  0
    8.8120   -0.9820   22.6160 N   0  0  0  0  0  0  0  0  0  0  0  0
    9.9430   -1.8720   22.4620 C   0  0  0  0  0  0  0  0  0  0  0  0
   10.1250   -2.6830   23.7590 C   0  0  0  0  0  0  0  0  0  0  0  0
   11.1540   -2.9630   24.5320 N   0  0  0  0  0  0  0  0  0  0  0  0
   10.9830   -3.7150   25.6190 N   0  0  0  0  0  0  0  0  0  0  0  0
    9.6200   -3.9370   25.5040 C   0  0  0  0  0  0  0  0  0  0  0  0
    8.9950   -4.7090   26.4710 C   0  0  0  0  0  0  0  0  0  0  0  0
    9.4450   -4.7460   27.7290 F   0  0  0  0  0  0  0  0  0  0  0  0
    7.7040   -4.2720   26.5710 F   0  0  0  0  0  0  0  0  0  0  0  0
    8.9170   -6.0020   26.0760 F   0  0  0  0  0  0  0  0  0  0  0  0
    9.0060   -3.3520   24.4080 N   0  0  0  0  0  0  0  0  0  0  0  0
    7.2420   -0.6530   21.0180 N   0  0  0  0  0  0  0  0  0  0  0  0
    6.4700    0.0320   20.0630 C   0  0  0  0  0  0  0  0  0  0  0  0
    5.2920    0.7450   20.3140 C   0  0  0  0  0  0  0  0  0  0  0  0
    4.6390    1.3900   19.2600 C   0  0  0  0  0  0  0  0  0  0  0  0
    5.1850    1.2990   17.9960 C   0  0  0  0  0  0  0  0  0  0  0  0
    6.3140    0.6110   17.7330 N   0  0  0  0  0  0  0  0  0  0  0  0
    6.9160    0.0050   18.7580 C   0  0  0  0  0  0  0  0  0  0  0  0
  1  2  2  0
  2  3  1  0
  3  4  1  0
  4  5  1  0
  5  6  2  0
  6  7  1  0
  7  8  2  0
  8  9  1  0
  9 10  1  0
  9 11  1  0
  9 12  1  0
  5 13  1  0
  8 13  1  0
  2 14  1  0
 14 15  1  0
 15 16  2  0
 16 17  1  0
 17 18  2  0
 18 19  1  0
 15 20  1  0
 19 20  2  0
M  END
