pyridine_urea_15102
     RDKit          3D

 17 18  0  0  0  0  0  0  0  0999 V2000
    8.8310    0.6440   21.3920 O   0  0  0  0  0  0  0  0  0  0  0  0
    8.1730   -0.3690   21.5990 C   0  0  0  0  0  0  0  0  0  0  0  0
    8.5160   -1.3430   22.5070 N   0  0  0  0  0  0  0  0  0  0  0  0
    9.7540   -1.2490   23.2180 C   0  0  0  0  0  0  0  0  0  0  0  0
   10.8620   -0.8480   22.2870 C   0  0  0  0  0  0  0  0  0  0  0  0
   12.0940   -0.5780   23.0690 C   0  0  0  0  0  0  0  0  0  0  0  0
   13.3150   -1.4590   22.9470 C   0  0  0  0  0  0  0  0  0  0  0  0
   12.9030   -2.5760   22.6890 O   0  0  0  0  0  0  0  0  0  0  0  0
   12.0330    0.2760   24.2380 C   0  0  0  0  0  0  0  0  0  0  0  0
   12.8830    0.8060   23.0650 C   0  0  0  0  0  0  0  0  0  0  0  0
    7.0000   -0.7210   20.9910 N   0  0  0  0  0  0  0  0  0  0  0  0
    6.3250    0.0080   20.0080 C   0  0  0  0  0  0  0  0  0  0  0  0
    5.1360    0.7090   20.2090 C   0  0  0  0  0  0  0  0  0  0  0  0
    4.5880    1.3930   19.1360 C   0  0  0  0  0  0  0  0  0  0  0  0
    5.2260    1.3630   17.9110 C   0  0  0  0  0  0  0  0  0  0  0  0
    6.3650    0.6890   17.7020 N   0  0  0  0  0  0  0  0  0  0  0  0
    6.8820    0.0300   18.7510 C   0  0  0  0  0  0  0  0  0  0  0  0
  1  2  2  0
  2  3  1  0
  3  4  1  0
  4  5  1  0
  6  5  1  0
  6  7  1  0
  7  8  1  0
  6  9  1  0
  6 10  1  0
  9 10  1  0
  2 11  1  0
 11 12  1  0
 12 13  2  0
 13 14  1  0
 14 15  2  0
 15 16  1  0
 12 17  1  0
 16 17  2  0
M  END
