pyridine_urea_14968
     RDKit          3D

 18 19  0  0  0  0  0  0  0  0999 V2000
   12.7760    0.8500   23.1350 C   0  0  0  0  0  0  0  0  0  0  0  0
   12.8560   -0.6240   22.7470 C   0  0  1  0  0  0  0  0  0  0  0  0
   13.6770   -1.2620   23.7330 O   0  0  0  0  0  0  0  0  0  0  0  0
   12.9540   -2.2690   24.3800 C   0  0  0  0  0  0  0  0  0  0  0  0
   11.5480   -2.2990   23.8850 C   0  0  0  0  0  0  0  0  0  0  0  0
   11.4210   -1.2460   22.7630 C   0  0  2  0  0  0  0  0  0  0  0  0
   11.2840   -1.9270   21.7540 O   0  0  0  0  0  0  0  0  0  0  0  0
   10.3080   -0.2320   22.9800 C   0  0  0  0  0  0  0  0  0  0  0  0
    9.0650   -0.7160   22.3880 N   0  0  0  0  0  0  0  0  0  0  0  0
    8.4110    0.0790   21.4730 C   0  0  0  0  0  0  0  0  0  0  0  0
    8.8280    1.2000   21.1460 O   0  0  0  0  0  0  0  0  0  0  0  0
    7.2000   -0.5850   20.9990 N   0  0  0  0  0  0  0  0  0  0  0  0
    6.4390    0.0840   20.0340 C   0  0  0  0  0  0  0  0  0  0  0  0
    5.2590    0.7890   20.2870 C   0  0  0  0  0  0  0  0  0  0  0  0
    4.6270    1.4140   19.2270 C   0  0  0  0  0  0  0  0  0  0  0  0
    5.1750    1.3240   17.9590 C   0  0  0  0  0  0  0  0  0  0  0  0
    6.3020    0.6460   17.6960 N   0  0  0  0  0  0  0  0  0  0  0  0
    6.8990    0.0460   18.7370 C   0  0  0  0  0  0  0  0  0  0  0  0
  2  1  1  1
  2  3  1  0
  3  4  1  0
  4  5  1  0
  2  6  1  0
  5  6  1  0
  6  7  1  6
  6  8  1  0
  8  9  1  0
  9 10  1  0
 10 11  2  0
 10 12  1  0
 12 13  1  0
 13 14  2  0
 14 15  1  0
 15 16  2  0
 16 17  1  0
 13 18  1  0
 17 18  2  0
M  END
