pyridine_urea_6495
     RDKit          3D

 22 24  0  0  0  0  0  0  0  0999 V2000
    8.8890    1.3570   21.1640 O   0  0  0  0  0  0  0  0  0  0  0  0
    8.4910    0.2300   21.4840 C   0  0  0  0  0  0  0  0  0  0  0  0
    9.1600   -0.5120   22.4330 N   0  0  0  0  0  0  0  0  0  0  0  0
   10.2850    0.1210   23.1120 C   0  0  0  0  0  0  0  0  0  0  0  0
   11.6240   -0.5550   22.8580 C   0  0  0  0  0  0  0  0  0  0  0  0
   11.7960   -2.0410   22.0840 S   0  0  0  0  0  0  0  0  0  0  0  0
   10.8750   -2.8460   23.2810 C   0  0  0  0  0  0  0  0  0  0  0  0
    9.5700   -3.1970   23.3080 C   0  0  0  0  0  0  0  0  0  0  0  0
    8.8490   -3.9250   24.4150 C   0  0  0  0  0  0  0  0  0  0  0  0
    9.6660   -4.2910   25.5890 C   0  0  0  0  0  0  0  0  0  0  0  0
    8.8480   -5.2070   27.0210 Br  0  0  0  0  0  0  0  0  0  0  0  0
   10.9960   -4.0130   25.7280 C   0  0  0  0  0  0  0  0  0  0  0  0
   11.6590   -3.2610   24.5570 C   0  0  0  0  0  0  0  0  0  0  0  0
   12.7130   -0.2570   23.8890 C   0  0  0  0  0  0  0  0  0  0  0  0
   12.9010    0.4660   22.8210 C   0  0  0  0  0  0  0  0  0  0  0  0
    7.3750   -0.4120   20.9880 N   0  0  0  0  0  0  0  0  0  0  0  0
    6.5300    0.1780   20.0380 C   0  0  0  0  0  0  0  0  0  0  0  0
    5.2770    0.8460   20.6610 C   0  0  0  0  0  0  0  0  0  0  0  0
    4.6910    1.3610   19.3540 C   0  0  0  0  0  0  0  0  0  0  0  0
    5.1840    1.2380   17.9620 C   0  0  0  0  0  0  0  0  0  0  0  0
    6.2780    0.6120   17.6650 N   0  0  0  0  0  0  0  0  0  0  0  0
    6.9100    0.1060   18.7060 C   0  0  0  0  0  0  0  0  0  0  0  0
  1  2  2  0
  2  3  1  0
  3  4  1  0
  4  5  1  0
  5  6  1  0
  6  7  1  0
  7  8  2  0
  8  9  1  0
  9 10  2  0
 10 11  1  0
 10 12  1  0
  7 13  1  0
 12 13  2  0
  5 14  1  0
  5 15  1  0
 14 15  1  0
  2 16  1  0
 16 17  1  0
 17 18  2  0
 18 19  1  0
 19 20  2  0
 20 21  1  0
 17 22  1  0
 21 22  2  0
M  END
