pyridine_urea_13944
     RDKit          3D

 24 25  0  0  0  0  0  0  0  0999 V2000
   13.6030    0.9540   22.8090 C   0  0  0  0  0  0  0  0  0  0  0  0
   13.6410   -0.0890   23.7120 O   0  0  0  0  0  0  0  0  0  0  0  0
   12.3710   -0.4860   23.5460 C   0  0  0  0  0  0  0  0  0  0  0  0
   12.0490    0.7860   23.2000 C   0  0  0  0  0  0  0  0  0  0  0  0
   10.6370    0.7090   22.9050 C   0  0  0  0  0  0  0  0  0  0  0  0
    9.8080   -0.3610   22.9440 C   0  0  2  0  0  0  0  0  0  0  0  0
   10.1280   -1.7100   22.2360 C   0  0  0  0  0  0  0  0  0  0  0  0
    8.4290    0.0300   22.7560 N   0  0  0  0  0  0  0  0  0  0  0  0
    8.0050   -0.4850   21.5800 C   0  0  0  0  0  0  0  0  0  0  0  0
    8.9170   -0.9580   20.6630 O   0  0  0  0  0  0  0  0  0  0  0  0
    6.5920   -0.4810   21.3740 N   0  0  0  0  0  0  0  0  0  0  0  0
    6.1950    0.1210   20.1070 C   0  0  0  0  0  0  0  0  0  0  0  0
    4.9640    0.9520   20.1590 C   0  0  0  0  0  0  0  0  0  0  0  0
    4.5010    1.5850   19.0340 C   0  0  0  0  0  0  0  0  0  0  0  0
    5.1550    1.4810   17.8160 C   0  0  0  0  0  0  0  0  0  0  0  0
    6.3630    0.6640   17.7370 N   0  0  0  0  0  0  0  0  0  0  0  0
    6.8190    0.0300   18.8710 C   0  0  0  0  0  0  0  0  0  0  0  0
   10.1100    1.9710   22.5140 C   0  0  0  0  0  0  0  0  0  0  0  0
   11.6060    1.8940   22.8540 C   0  0  0  0  0  0  0  0  0  0  0  0
   11.0300    0.3850   23.0770 C   0  0  0  0  0  0  0  0  0  0  0  0
   10.0860    1.4430   22.6490 O   0  0  0  0  0  0  0  0  0  0  0  0
   10.2540    2.8770   22.9560 C   0  0  0  0  0  0  0  0  0  0  0  0
    9.3860    3.2150   23.9520 F   0  0  0  0  0  0  0  0  0  0  0  0
   11.5010    3.1730   23.3610 F   0  0  0  0  0  0  0  0  0  0  0  0
  1  2  1  0
  2  3  1  0
  3  4  2  0
  4  5  1  0
  5  6  1  0
  6  7  1  6
  6  8  1  0
  8  9  1  0
  9 10  2  0
  9 11  1  0
 11 12  1  0
 12 13  2  0
 13 14  1  0
 14 15  2  0
 15 16  1  0
 12 17  1  0
 16 17  2  0
  5 18  2  0
 18 19  1  0
  3 20  1  0
 19 20  2  0
 20 21  1  0
 21 22  1  0
 22 23  1  0
 22 24  1  0
M  END
