pyridine_urea_9696
     RDKit          3D

 29 31  0  0  0  0  0  0  0  0999 V2000
   13.8170   -2.3910   25.7220 C   0  0  0  0  0  0  0  0  0  0  0  0
   12.9930   -2.0590   24.4930 C   0  0  0  0  0  0  0  0  0  0  0  0
   13.5700   -2.5240   23.1510 C   0  0  0  0  0  0  0  0  0  0  0  0
   12.8260   -2.2560   21.7670 C   0  0  0  0  0  0  0  0  0  0  0  0
   11.4570   -1.5270   21.7160 C   0  0  0  0  0  0  0  0  0  0  0  0
   10.2470   -0.8180   22.2600 C   0  0  1  0  0  0  0  0  0  0  0  0
    9.2440   -1.0290   21.2660 N   0  0  0  0  0  0  0  0  0  0  0  0
    8.3040   -0.0600   21.1840 C   0  0  0  0  0  0  0  0  0  0  0  0
    8.5930    1.1240   21.2590 O   0  0  0  0  0  0  0  0  0  0  0  0
    6.9800   -0.6100   20.9780 N   0  0  0  0  0  0  0  0  0  0  0  0
    6.2850    0.0700   19.9930 C   0  0  0  0  0  0  0  0  0  0  0  0
    5.0950    0.7580   20.1450 C   0  0  0  0  0  0  0  0  0  0  0  0
    4.5040    1.4170   19.0960 C   0  0  0  0  0  0  0  0  0  0  0  0
    5.1470    1.3700   17.8680 C   0  0  0  0  0  0  0  0  0  0  0  0
    6.3010    0.7050   17.6760 N   0  0  0  0  0  0  0  0  0  0  0  0
    6.8350    0.0760   18.7340 C   0  0  0  0  0  0  0  0  0  0  0  0
    9.4560   -1.3920   23.4040 C   0  0  0  0  0  0  0  0  0  0  0  0
    9.2200   -0.6440   24.5960 C   0  0  0  0  0  0  0  0  0  0  0  0
    8.3380   -1.5720   25.3930 C   0  0  0  0  0  0  0  0  0  0  0  0
    7.8460   -2.8350   25.1270 C   0  0  0  0  0  0  0  0  0  0  0  0
    8.1200   -3.4900   24.0080 C   0  0  0  0  0  0  0  0  0  0  0  0
    7.3850   -5.0570   23.9530 S   0  0  0  0  0  0  0  0  0  0  0  0
    7.2950   -5.3160   22.2880 C   0  0  0  0  0  0  0  0  0  0  0  0
    8.3360   -5.9780   24.4930 O   0  0  0  0  0  0  0  0  0  0  0  0
    6.0390   -4.9520   24.4760 O   0  0  0  0  0  0  0  0  0  0  0  0
    8.9900   -2.7020   23.0760 C   0  0  0  0  0  0  0  0  0  0  0  0
   12.0140   -1.6860   22.8960 C   0  0  0  0  0  0  0  0  0  0  0  0
   13.2200   -2.3240   22.8030 C   0  0  0  0  0  0  0  0  0  0  0  0
   11.8320   -1.4450   24.2010 C   0  0  0  0  0  0  0  0  0  0  0  0
  1  2  1  0
  2  3  2  0
  3  4  1  0
  4  5  2  0
  5  6  1  0
  6  7  1  6
  7  8  1  0
  8  9  2  0
  8 10  1  0
 10 11  1  0
 11 12  2  0
 12 13  1  0
 13 14  2  0
 14 15  1  0
 11 16  1  0
 15 16  2  0
  6 17  1  0
 17 18  2  0
 18 19  1  0
 19 20  2  0
 20 21  1  0
 21 22  1  0
 22 23  1  0
 22 24  2  0
 22 25  2  0
 17 26  1  0
 21 26  2  0
  5 27  1  0
 27 28  1  0
  2 29  1  0
 27 29  2  0
M  END
