pyridine_urea_1523
     RDKit          3D

 19 21  0  0  0  0  0  0  0  0999 V2000
    8.6120    1.4760   20.9960 O   0  0  0  0  0  0  0  0  0  0  0  0
    8.3490    0.3940   21.5130 C   0  0  0  0  0  0  0  0  0  0  0  0
    7.2950   -0.3880   21.1110 N   0  0  0  0  0  0  0  0  0  0  0  0
    6.6260    0.1320   19.9670 C   0  0  0  0  0  0  0  0  0  0  0  0
    5.3780    0.9810   20.2570 C   0  0  0  0  0  0  0  0  0  0  0  0
    4.6660    1.5570   19.2150 C   0  0  0  0  0  0  0  0  0  0  0  0
    5.1310    1.3300   17.9260 C   0  0  0  0  0  0  0  0  0  0  0  0
    6.2390    0.5570   17.7090 N   0  0  0  0  0  0  0  0  0  0  0  0
    7.0010   -0.0520   18.7030 C   0  0  0  0  0  0  0  0  0  0  0  0
    9.0590   -0.1700   22.5040 N   0  0  0  0  0  0  0  0  0  0  0  0
    9.8600   -0.6960   23.4280 C   0  0  0  0  0  0  0  0  0  0  0  0
   10.7360    0.1940   24.0490 C   0  0  0  0  0  0  0  0  0  0  0  0
   11.8170   -0.5360   23.7690 C   0  0  0  0  0  0  0  0  0  0  0  0
   12.7390    0.0080   22.9330 C   0  0  0  0  0  0  0  0  0  0  0  0
   13.1530   -1.0830   22.1910 C   0  0  0  0  0  0  0  0  0  0  0  0
   13.6350   -1.9620   22.9120 O   0  0  0  0  0  0  0  0  0  0  0  0
   13.2310   -2.1710   24.2770 C   0  0  0  0  0  0  0  0  0  0  0  0
   12.4110   -1.1850   24.8170 C   0  0  0  0  0  0  0  0  0  0  0  0
   10.9800   -1.4790   23.1950 C   0  0  0  0  0  0  0  0  0  0  0  0
  1  2  2  0
  2  3  1  0
  3  4  1  0
  4  5  2  0
  5  6  1  0
  6  7  2  0
  7  8  1  0
  4  9  1  0
  8  9  2  0
  2 10  1  0
 10 11  1  0
 11 12  1  0
 13 12  1  0
 13 14  1  0
 14 15  1  0
 15 16  1  0
 16 17  1  0
 13 18  1  0
 17 18  1  0
 11 19  1  0
 13 19  1  0
M  END
