pyridine_urea_9037
     RDKit          3D

 19 20  0  0  0  0  0  0  0  0999 V2000
    8.4270    1.5410   20.9880 O   0  0  0  0  0  0  0  0  0  0  0  0
    8.4820    0.3940   21.4180 C   0  0  0  0  0  0  0  0  0  0  0  0
    7.4620   -0.4800   21.1450 N   0  0  0  0  0  0  0  0  0  0  0  0
    6.7050    0.0120   20.0220 C   0  0  0  0  0  0  0  0  0  0  0  0
    5.4580    0.8500   20.3640 C   0  0  0  0  0  0  0  0  0  0  0  0
    4.6800    1.3960   19.3500 C   0  0  0  0  0  0  0  0  0  0  0  0
    5.0760    1.1550   18.0420 C   0  0  0  0  0  0  0  0  0  0  0  0
    6.1830    0.3980   17.7760 N   0  0  0  0  0  0  0  0  0  0  0  0
    7.0100   -0.1850   18.7380 C   0  0  0  0  0  0  0  0  0  0  0  0
    9.5460   -0.0620   22.1240 N   0  0  0  0  0  0  0  0  0  0  0  0
   10.7130   -0.2910   22.7600 C   0  0  0  0  0  0  0  0  0  0  0  0
   11.5360    0.8390   22.7420 C   0  0  0  0  0  0  0  0  0  0  0  0
   10.8140    2.0450   22.8180 C   0  0  0  0  0  0  0  0  0  0  0  0
   11.5850    3.2130   22.8100 C   0  0  0  0  0  0  0  0  0  0  0  0
   11.6400    3.9430   21.6970 F   0  0  0  0  0  0  0  0  0  0  0  0
   11.3230    4.1430   23.7410 F   0  0  0  0  0  0  0  0  0  0  0  0
   12.8890    2.8990   23.0000 F   0  0  0  0  0  0  0  0  0  0  0  0
   10.9730   -1.3000   23.8110 C   0  0  0  0  0  0  0  0  0  0  0  0
   11.3840   -1.5590   22.5640 C   0  0  0  0  0  0  0  0  0  0  0  0
  1  2  2  0
  2  3  1  0
  3  4  1  0
  4  5  2  0
  5  6  1  0
  6  7  2  0
  7  8  1  0
  4  9  1  0
  8  9  2  0
  2 10  1  0
 11 10  1  0
 11 12  1  0
 12 13  1  0
 13 14  1  0
 14 15  1  0
 14 16  1  0
 14 17  1  0
 11 18  1  0
 11 19  1  0
 18 19  1  0
M  END
