pyridine_urea_13720
     RDKit          3D

 26 28  0  0  0  0  0  0  0  0999 V2000
   13.6660    5.4450   21.6010 N   0  0  0  0  0  0  0  0  0  0  0  0
   13.1460    6.3060   22.5180 C   0  0  0  0  0  0  0  0  0  0  0  0
   12.0670    5.6270   23.3520 C   0  0  0  0  0  0  0  0  0  0  0  0
   11.6830    6.1890   24.7250 C   0  0  0  0  0  0  0  0  0  0  0  0
   10.5820    5.3820   25.4250 C   0  0  0  0  0  0  0  0  0  0  0  0
    9.9970    4.1650   24.7430 C   0  0  0  0  0  0  0  0  0  0  0  0
   10.3910    3.7010   23.4910 C   0  0  0  0  0  0  0  0  0  0  0  0
    9.8080    2.5740   22.9380 C   0  0  0  0  0  0  0  0  0  0  0  0
    9.9780    1.5290   23.5440 O   0  0  0  0  0  0  0  0  0  0  0  0
   11.1680    0.7450   23.2440 C   0  0  0  0  0  0  0  0  0  0  0  0
   11.0390   -0.4460   22.5470 C   0  0  0  0  0  0  0  0  0  0  0  0
   11.1760   -1.6870   21.8590 C   0  0  0  0  0  0  0  0  0  0  0  0
   10.3610   -0.7810   22.2510 C   0  0  0  0  0  0  0  0  0  0  0  0
    9.2350   -1.3630   21.7370 N   0  0  0  0  0  0  0  0  0  0  0  0
    8.2830   -0.4560   21.1830 C   0  0  0  0  0  0  0  0  0  0  0  0
    8.5740    0.9380   21.1210 O   0  0  0  0  0  0  0  0  0  0  0  0
    7.1240   -0.9890   20.7300 N   0  0  0  0  0  0  0  0  0  0  0  0
    6.4150   -0.1840   19.8640 C   0  0  0  0  0  0  0  0  0  0  0  0
    4.9280    0.1630   20.1830 C   0  0  0  0  0  0  0  0  0  0  0  0
    4.3850    1.0510   19.0840 C   0  0  0  0  0  0  0  0  0  0  0  0
    5.2220    1.3420   18.1220 C   0  0  0  0  0  0  0  0  0  0  0  0
    6.0220    0.6890   18.7030 N   0  0  0  0  0  0  0  0  0  0  0  0
    7.2280    0.2300   18.7420 C   0  0  0  0  0  0  0  0  0  0  0  0
   11.8810   -0.6410   22.5660 C   0  0  0  0  0  0  0  0  0  0  0  0
   12.3740    0.5820   23.3160 C   0  0  0  0  0  0  0  0  0  0  0  0
   11.3910    4.3730   22.7730 C   0  0  0  0  0  0  0  0  0  0  0  0
  1  2  3  0
  2  3  1  0
  3  4  2  0
  4  5  1  0
  5  6  2  0
  6  7  1  0
  7  8  1  0
  8  9  1  0
  9 10  1  0
 10 11  2  0
 11 12  1  0
 12 13  2  0
 13 14  1  0
 14 15  1  0
 15 16  2  0
 15 17  1  0
 17 18  1  0
 18 19  2  0
 19 20  1  0
 20 21  2  0
 21 22  1  0
 18 23  1  0
 22 23  2  0
 13 24  1  0
 10 25  1  0
 24 25  2  0
  3 26  1  0
  7 26  2  0
M  END
