pyridine_urea_9141
     RDKit          3D

 19 20  0  0  0  0  0  0  0  0999 V2000
    8.8110   -3.0540   22.7580 C   0  0  0  0  0  0  0  0  0  0  0  0
    9.5550   -2.4790   21.5090 C   0  0  0  0  0  0  0  0  0  0  0  0
   10.9760   -2.0060   21.8120 C   0  0  0  0  0  0  0  0  0  0  0  0
   11.9940   -2.3460   20.9740 C   0  0  0  0  0  0  0  0  0  0  0  0
   13.2300   -2.0160   21.0830 C   0  0  0  0  0  0  0  0  0  0  0  0
   13.4550   -1.3200   22.0920 C   0  0  0  0  0  0  0  0  0  0  0  0
   12.5220   -1.0150   22.8800 C   0  0  0  0  0  0  0  0  0  0  0  0
   11.0910   -1.2540   22.9430 C   0  0  0  0  0  0  0  0  0  0  0  0
    9.7730   -1.5870   22.8170 C   0  0  0  0  0  0  0  0  0  0  0  0
    8.8410   -0.4640   22.8280 N   0  0  0  0  0  0  0  0  0  0  0  0
    8.4490    0.1960   21.6710 C   0  0  0  0  0  0  0  0  0  0  0  0
    9.0310    1.2060   21.2510 O   0  0  0  0  0  0  0  0  0  0  0  0
    7.3480   -0.4160   21.1090 N   0  0  0  0  0  0  0  0  0  0  0  0
    6.6330    0.1270   20.0400 C   0  0  0  0  0  0  0  0  0  0  0  0
    5.3950    0.9270   20.2850 C   0  0  0  0  0  0  0  0  0  0  0  0
    4.6390    1.5160   19.3000 C   0  0  0  0  0  0  0  0  0  0  0  0
    5.1550    1.2870   17.9970 C   0  0  0  0  0  0  0  0  0  0  0  0
    6.2600    0.5670   17.7110 N   0  0  0  0  0  0  0  0  0  0  0  0
    6.9690    0.0040   18.7190 C   0  0  0  0  0  0  0  0  0  0  0  0
  1  2  1  0
  2  3  1  0
  3  4  2  0
  4  5  1  0
  5  6  2  0
  6  7  1  0
  3  8  1  0
  7  8  2  0
  8  9  1  0
  9 10  1  0
 10 11  1  0
 11 12  2  0
 11 13  1  0
 13 14  1  0
 14 15  2  0
 15 16  1  0
 16 17  2  0
 17 18  1  0
 14 19  1  0
 18 19  2  0
M  END
