pyridine_urea_3107
     RDKit          3D

 21 22  0  0  0  0  0  0  0  0999 V2000
   12.4610    2.0960   22.8730 C   0  0  0  0  0  0  0  0  0  0  0  0
   12.0250    0.6990   23.2840 C   0  0  0  0  0  0  0  0  0  0  0  0
   12.2250   -0.3950   22.5470 C   0  0  0  0  0  0  0  0  0  0  0  0
   13.4560    0.1760   22.7890 C   0  0  0  0  0  0  0  0  0  0  0  0
   13.1630   -0.8470   22.1460 C   0  0  0  0  0  0  0  0  0  0  0  0
   11.6400   -1.1600   22.1340 C   0  0  0  0  0  0  0  0  0  0  0  0
   10.4790   -0.5740   22.6900 C   0  0  0  0  0  0  0  0  0  0  0  0
   10.0930   -1.2850   23.9840 C   0  0  0  0  0  0  0  0  0  0  0  0
   10.3350    0.9260   22.7570 C   0  0  0  0  0  0  0  0  0  0  0  0
    9.4310   -0.8990   21.7370 N   0  0  0  0  0  0  0  0  0  0  0  0
    8.5190    0.0560   21.3290 C   0  0  0  0  0  0  0  0  0  0  0  0
    8.7840    1.2530   21.1660 O   0  0  0  0  0  0  0  0  0  0  0  0
    7.2730   -0.4760   21.0660 N   0  0  0  0  0  0  0  0  0  0  0  0
    6.5260    0.0940   20.0390 C   0  0  0  0  0  0  0  0  0  0  0  0
    5.3570    0.7980   20.3410 C   0  0  0  0  0  0  0  0  0  0  0  0
    4.6290    1.3910   19.3110 C   0  0  0  0  0  0  0  0  0  0  0  0
    5.1070    1.2510   18.0210 C   0  0  0  0  0  0  0  0  0  0  0  0
    6.2180    0.5730   17.7040 N   0  0  0  0  0  0  0  0  0  0  0  0
    6.9070    0.0060   18.7100 C   0  0  0  0  0  0  0  0  0  0  0  0
   11.7040   -2.1930   21.4300 C   0  0  0  0  0  0  0  0  0  0  0  0
   13.0340   -1.4360   21.7720 C   0  0  0  0  0  0  0  0  0  0  0  0
  1  2  1  0
  2  3  1  0
  3  4  2  0
  4  5  1  0
  5  6  2  0
  6  7  1  0
  7  8  1  0
  7  9  1  0
  7 10  1  0
 10 11  1  0
 11 12  2  0
 11 13  1  0
 13 14  1  0
 14 15  2  0
 15 16  1  0
 16 17  2  0
 17 18  1  0
 14 19  1  0
 18 19  2  0
  6 20  1  0
  3 21  1  0
 20 21  2  0
M  END
