pyridine_urea_1134
     RDKit          3D

 21 22  0  0  0  0  0  0  0  0999 V2000
   13.6860   -2.4810   24.9820 C   0  0  0  0  0  0  0  0  0  0  0  0
   13.4670   -1.0990   24.6990 O   0  0  0  0  0  0  0  0  0  0  0  0
   12.2900   -0.9680   24.1030 C   0  0  0  0  0  0  0  0  0  0  0  0
   12.3130    0.2550   23.9040 C   0  0  0  0  0  0  0  0  0  0  0  0
   11.0730    0.4380   23.2860 C   0  0  0  0  0  0  0  0  0  0  0  0
   10.1520   -0.5910   23.0260 C   0  0  2  0  0  0  0  0  0  0  0  0
   10.5570   -1.4470   21.8590 C   0  0  0  0  0  0  0  0  0  0  0  0
    8.7820   -0.2810   22.7970 N   0  0  0  0  0  0  0  0  0  0  0  0
    8.3000    0.1980   21.6200 C   0  0  0  0  0  0  0  0  0  0  0  0
    8.8740    1.3400   21.1070 O   0  0  0  0  0  0  0  0  0  0  0  0
    7.1990   -0.5450   21.0330 N   0  0  0  0  0  0  0  0  0  0  0  0
    6.5190    0.0720   20.0170 C   0  0  0  0  0  0  0  0  0  0  0  0
    5.3730    0.7920   20.3220 C   0  0  0  0  0  0  0  0  0  0  0  0
    4.7010    1.4260   19.2800 C   0  0  0  0  0  0  0  0  0  0  0  0
    5.1690    1.3350   17.9850 C   0  0  0  0  0  0  0  0  0  0  0  0
    6.2680    0.6360   17.6810 N   0  0  0  0  0  0  0  0  0  0  0  0
    6.9170    0.0220   18.6960 C   0  0  0  0  0  0  0  0  0  0  0  0
   10.9900    1.6680   23.0340 C   0  0  0  0  0  0  0  0  0  0  0  0
   12.0870    0.9930   23.6600 C   0  0  0  0  0  0  0  0  0  0  0  0
   11.2360   -0.2780   23.4710 C   0  0  0  0  0  0  0  0  0  0  0  0
   10.9340   -1.6070   23.5540 F   0  0  0  0  0  0  0  0  0  0  0  0
  1  2  1  0
  2  3  1  0
  3  4  2  0
  4  5  1  0
  5  6  1  0
  6  7  1  6
  6  8  1  0
  8  9  1  0
  9 10  2  0
  9 11  1  0
 11 12  1  0
 12 13  2  0
 13 14  1  0
 14 15  2  0
 15 16  1  0
 12 17  1  0
 16 17  2  0
  5 18  2  0
 18 19  1  0
  3 20  1  0
 19 20  2  0
 20 21  1  0
M  END
