pyridine_urea_10312
     RDKit          3D

 22 24  0  0  0  0  0  0  0  0999 V2000
    7.7610    3.0420   24.1790 N   0  0  0  0  0  0  0  0  0  0  0  0
    8.5200    1.9720   23.7860 C   0  0  0  0  0  0  0  0  0  0  0  0
    9.9830    2.2480   23.4680 C   0  0  0  0  0  0  0  0  0  0  0  0
   10.5010    3.4530   23.2690 C   0  0  0  0  0  0  0  0  0  0  0  0
   11.8140    3.4570   23.0120 C   0  0  0  0  0  0  0  0  0  0  0  0
   12.5670    2.2870   22.9600 C   0  0  0  0  0  0  0  0  0  0  0  0
   12.3550    0.8850   23.1070 C   0  0  0  0  0  0  0  0  0  0  0  0
   11.8520   -0.5530   23.3140 C   0  0  2  0  0  0  0  0  0  0  0  0
   11.0620   -1.0960   22.3270 C   0  0  0  0  0  0  0  0  0  0  0  0
   10.1050   -1.3950   23.2330 C   0  0  2  0  0  0  0  0  0  0  0  0
    8.7650   -0.8840   22.9110 N   0  0  0  0  0  0  0  0  0  0  0  0
    8.3990   -0.2400   21.7020 C   0  0  0  0  0  0  0  0  0  0  0  0
    8.9870    0.7420   21.2800 O   0  0  0  0  0  0  0  0  0  0  0  0
    7.3160   -0.8400   21.1320 N   0  0  0  0  0  0  0  0  0  0  0  0
    6.6200   -0.1190   20.0620 C   0  0  0  0  0  0  0  0  0  0  0  0
    5.3780    0.6630   20.3940 C   0  0  0  0  0  0  0  0  0  0  0  0
    4.7350    1.3520   19.3300 C   0  0  0  0  0  0  0  0  0  0  0  0
    5.2280    1.3130   18.0250 C   0  0  0  0  0  0  0  0  0  0  0  0
    6.3460    0.5920   17.7780 N   0  0  0  0  0  0  0  0  0  0  0  0
    7.0360   -0.1130   18.7510 C   0  0  0  0  0  0  0  0  0  0  0  0
   10.6730   -0.6990   24.3400 C   0  0  0  0  0  0  0  0  0  0  0  0
   10.9490    1.0500   23.3710 C   0  0  0  0  0  0  0  0  0  0  0  0
  1  2  3  0
  2  3  1  0
  3  4  2  0
  4  5  1  0
  5  6  2  0
  6  7  1  0
  8  7  1  6
  8  9  1  0
  9 10  1  0
 10 11  1  6
 11 12  1  0
 12 13  2  0
 12 14  1  0
 14 15  1  0
 15 16  2  0
 16 17  1  0
 17 18  2  0
 18 19  1  0
 15 20  1  0
 19 20  2  0
  8 21  1  0
 10 21  1  0
  3 22  1  0
  7 22  2  0
M  END
