pyridine_urea_7762
     RDKit          3D

 27 29  0  0  0  0  0  0  0  0999 V2000
   14.1310   -2.9650   26.0100 C   0  0  0  0  0  0  0  0  0  0  0  0
   12.8190   -3.2510   25.4250 C   0  0  0  0  0  0  0  0  0  0  0  0
   11.8500   -3.9450   26.1130 C   0  0  0  0  0  0  0  0  0  0  0  0
   10.5770   -4.2060   25.6650 C   0  0  0  0  0  0  0  0  0  0  0  0
   10.3550   -3.7270   24.3910 C   0  0  0  0  0  0  0  0  0  0  0  0
   11.3770   -3.0770   23.6740 C   0  0  0  0  0  0  0  0  0  0  0  0
   11.1260   -2.7080   22.3640 N   0  0  0  0  0  0  0  0  0  0  0  0
   12.2180   -2.2400   21.6890 C   0  0  0  0  0  0  0  0  0  0  0  0
   12.8170   -0.9760   22.2270 C   0  0  0  0  0  0  0  0  0  0  0  0
   11.7790   -0.2530   22.6860 N   0  0  0  0  0  0  0  0  0  0  0  0
   11.7120    1.0090   23.2120 C   0  0  0  0  0  0  0  0  0  0  0  0
   10.3950    1.3120   22.9310 C   0  0  0  0  0  0  0  0  0  0  0  0
    9.5250    0.4920   23.6590 C   0  0  2  0  0  0  0  0  0  0  0  0
   10.2490   -0.4960   24.3470 C   0  0  0  0  0  0  0  0  0  0  0  0
    8.6060   -0.1810   22.9110 N   0  0  0  0  0  0  0  0  0  0  0  0
    8.2160    0.3150   21.7040 C   0  0  0  0  0  0  0  0  0  0  0  0
    8.7090    1.3000   21.1280 O   0  0  0  0  0  0  0  0  0  0  0  0
    7.1730   -0.3040   21.0770 N   0  0  0  0  0  0  0  0  0  0  0  0
    6.4860    0.2060   20.0310 C   0  0  0  0  0  0  0  0  0  0  0  0
    5.3100    0.9160   20.2820 C   0  0  0  0  0  0  0  0  0  0  0  0
    4.6380    1.4560   19.2020 C   0  0  0  0  0  0  0  0  0  0  0  0
    5.1240    1.2900   17.9240 C   0  0  0  0  0  0  0  0  0  0  0  0
    6.2380    0.6040   17.6640 N   0  0  0  0  0  0  0  0  0  0  0  0
    6.8910    0.0780   18.7190 C   0  0  0  0  0  0  0  0  0  0  0  0
   10.4800   -0.6470   22.0660 C   0  0  0  0  0  0  0  0  0  0  0  0
    9.9850   -1.8670   22.3670 C   0  0  0  0  0  0  0  0  0  0  0  0
   12.5850   -2.8300   24.2100 C   0  0  0  0  0  0  0  0  0  0  0  0
  1  2  1  0
  2  3  2  0
  3  4  1  0
  4  5  2  0
  5  6  1  0
  6  7  1  0
  7  8  1  0
  8  9  1  0
  9 10  1  0
 10 11  1  0
 11 12  1  0
 12 13  1  0
 13 14  1  6
 13 15  1  0
 15 16  1  0
 16 17  2  0
 16 18  1  0
 18 19  1  0
 19 20  2  0
 20 21  1  0
 21 22  2  0
 22 23  1  0
 19 24  1  0
 23 24  2  0
 10 25  1  0
  7 26  1  0
 25 26  1  0
  2 27  1  0
  6 27  2  0
M  END
