pyridine_urea_14325
     RDKit          3D

 20 22  0  0  0  0  0  0  0  0999 V2000
    9.0800    0.6610   21.4140 O   0  0  0  0  0  0  0  0  0  0  0  0
    8.5290   -0.4130   21.5900 C   0  0  0  0  0  0  0  0  0  0  0  0
    9.0640   -1.4660   22.4720 N   0  0  0  0  0  0  0  0  0  0  0  0
   10.3460   -2.0290   22.2810 C   0  0  0  0  0  0  0  0  0  0  0  0
   11.3760   -1.1630   21.9560 C   0  0  2  0  0  0  0  0  0  0  0  0
   12.6050   -1.5480   21.6730 C   0  0  0  0  0  0  0  0  0  0  0  0
   12.7540   -1.0850   22.8570 C   0  0  2  0  0  0  0  0  0  0  0  0
   13.1200   -2.1120   23.8370 C   0  0  0  0  0  0  0  0  0  0  0  0
   11.9740   -2.1580   24.7600 C   0  0  0  0  0  0  0  0  0  0  0  0
   11.6910   -0.6960   25.1280 C   0  0  1  0  0  0  0  0  0  0  0  0
   12.7230   -0.3780   25.6760 O   0  0  0  0  0  0  0  0  0  0  0  0
   11.5340    0.2140   24.0960 C   0  0  0  0  0  0  0  0  0  0  0  0
   12.6580    0.1890   23.3190 C   0  0  0  0  0  0  0  0  0  0  0  0
    7.3100   -0.7820   21.0120 N   0  0  0  0  0  0  0  0  0  0  0  0
    6.5370   -0.0620   20.1080 C   0  0  0  0  0  0  0  0  0  0  0  0
    5.3850    0.6660   20.4140 C   0  0  0  0  0  0  0  0  0  0  0  0
    4.7540    1.3240   19.3670 C   0  0  0  0  0  0  0  0  0  0  0  0
    5.2430    1.2650   18.0780 C   0  0  0  0  0  0  0  0  0  0  0  0
    6.3360    0.5790   17.7460 N   0  0  0  0  0  0  0  0  0  0  0  0
    6.9370   -0.0580   18.7770 C   0  0  0  0  0  0  0  0  0  0  0  0
  1  2  2  0
  2  3  1  0
  3  4  1  0
  5  4  1  1
  5  6  1  0
  5  7  1  0
  7  6  1  6
  7  8  1  0
  8  9  1  0
  9 10  1  0
 10 11  1  1
 10 12  1  0
  7 13  1  0
 12 13  1  0
  2 14  1  0
 14 15  1  0
 15 16  2  0
 16 17  1  0
 17 18  2  0
 18 19  1  0
 15 20  1  0
 19 20  2  0
M  END
