pyridine_urea_8790
     RDKit          3D

 21 22  0  0  0  0  0  0  0  0999 V2000
   10.9080   -1.2730   22.0520 C   0  0  0  0  0  0  0  0  0  0  0  0
   10.0960   -0.6460   23.1450 C   0  0  1  0  0  0  0  0  0  0  0  0
   10.4250    0.6330   23.6230 C   0  0  0  0  0  0  0  0  0  0  0  0
   11.7280    1.1220   23.4220 C   0  0  0  0  0  0  0  0  0  0  0  0
   12.5310    0.2040   22.8350 C   0  0  0  0  0  0  0  0  0  0  0  0
   13.3530   -1.0830   22.4840 C   0  0  0  0  0  0  0  0  0  0  0  0
   13.4670   -2.2910   23.1990 C   0  0  0  0  0  0  0  0  0  0  0  0
   12.7350   -2.4150   24.4710 C   0  0  0  0  0  0  0  0  0  0  0  0
   12.7680   -3.4050   25.1610 O   0  0  0  0  0  0  0  0  0  0  0  0
   12.0240   -1.3580   24.8150 C   0  0  0  0  0  0  0  0  0  0  0  0
   11.9710   -0.2370   24.0650 C   0  0  0  0  0  0  0  0  0  0  0  0
    8.7320   -0.6540   22.6770 N   0  0  0  0  0  0  0  0  0  0  0  0
    8.3480    0.1090   21.5980 C   0  0  0  0  0  0  0  0  0  0  0  0
    8.9200    1.1470   21.2330 O   0  0  0  0  0  0  0  0  0  0  0  0
    7.2370   -0.4550   21.0230 N   0  0  0  0  0  0  0  0  0  0  0  0
    6.5220    0.1400   19.9880 C   0  0  0  0  0  0  0  0  0  0  0  0
    5.3600    0.8570   20.2900 C   0  0  0  0  0  0  0  0  0  0  0  0
    4.6640    1.4620   19.2550 C   0  0  0  0  0  0  0  0  0  0  0  0
    5.1450    1.3320   17.9640 C   0  0  0  0  0  0  0  0  0  0  0  0
    6.2480    0.6400   17.6620 N   0  0  0  0  0  0  0  0  0  0  0  0
    6.9090    0.0610   18.6770 C   0  0  0  0  0  0  0  0  0  0  0  0
  2  1  1  6
  2  3  1  0
  3  4  1  0
  4  5  1  0
  5  6  2  0
  6  7  1  0
  7  8  2  0
  8  9  1  0
  8 10  1  0
  5 11  1  0
 10 11  2  0
  2 12  1  0
 12 13  1  0
 13 14  2  0
 13 15  1  0
 15 16  1  0
 16 17  2  0
 17 18  1  0
 18 19  2  0
 19 20  1  0
 16 21  1  0
 20 21  2  0
M  END
