pyridine_urea_2760
     RDKit          3D

 22 23  0  0  0  0  0  0  0  0999 V2000
    8.8570    1.4540   21.0400 O   0  0  0  0  0  0  0  0  0  0  0  0
    8.4730    0.3830   21.5030 C   0  0  0  0  0  0  0  0  0  0  0  0
    9.0840   -0.1200   22.6170 N   0  0  0  0  0  0  0  0  0  0  0  0
    9.9360    0.8400   23.3190 C   0  0  0  0  0  0  0  0  0  0  0  0
   11.4660    0.6570   23.0770 C   0  0  0  0  0  0  0  0  0  0  0  0
   11.7220   -0.7790   23.0190 N   0  0  0  0  0  0  0  0  0  0  0  0
   10.8320   -1.5670   24.1740 S   0  0  0  0  0  0  0  0  0  0  0  0
    9.5010   -1.7390   23.6470 O   0  0  0  0  0  0  0  0  0  0  0  0
   11.1170   -0.8970   25.4140 O   0  0  0  0  0  0  0  0  0  0  0  0
   11.7050   -3.0680   24.0380 C   0  0  0  0  0  0  0  0  0  0  0  0
   12.8750   -2.8860   24.9730 C   0  0  0  0  0  0  0  0  0  0  0  0
   13.4590   -1.8070   25.4490 C   0  0  0  0  0  0  0  0  0  0  0  0
   14.5530   -2.3350   26.3320 C   0  0  0  0  0  0  0  0  0  0  0  0
   14.5620   -3.6090   26.3380 O   0  0  0  0  0  0  0  0  0  0  0  0
   13.5630   -3.9140   25.5270 N   0  0  0  0  0  0  0  0  0  0  0  0
    7.4340   -0.3770   21.0200 N   0  0  0  0  0  0  0  0  0  0  0  0
    6.5660    0.1820   20.0820 C   0  0  0  0  0  0  0  0  0  0  0  0
    5.2610    0.8860   20.3940 C   0  0  0  0  0  0  0  0  0  0  0  0
    4.4960    1.4530   19.2340 C   0  0  0  0  0  0  0  0  0  0  0  0
    5.1460    1.2400   17.8910 C   0  0  0  0  0  0  0  0  0  0  0  0
    6.3020    0.5910   17.7060 N   0  0  0  0  0  0  0  0  0  0  0  0
    6.9440    0.1030   18.7430 C   0  0  0  0  0  0  0  0  0  0  0  0
  1  2  2  0
  2  3  1  0
  3  4  1  0
  4  5  1  0
  5  6  1  0
  7  6  1  0
  7  8  2  0
  7  9  2  0
  7 10  1  0
 10 11  1  0
 11 12  1  0
 12 13  2  0
 13 14  1  0
 11 15  2  0
 14 15  1  0
  2 16  1  0
 16 17  1  0
 17 18  2  0
 18 19  1  0
 19 20  2  0
 20 21  1  0
 17 22  1  0
 21 22  2  0
M  END
