pyridine_urea_8684
     RDKit          3D

 21 22  0  0  0  0  0  0  0  0999 V2000
    5.9010   -1.9820   18.6720 C   0  0  0  0  0  0  0  0  0  0  0  0
    7.3760   -1.8090   18.8990 C   0  0  0  0  0  0  0  0  0  0  0  0
    7.8570   -1.8450   20.2060 C   0  0  0  0  0  0  0  0  0  0  0  0
    7.6870   -0.5200   18.4040 O   0  0  0  0  0  0  0  0  0  0  0  0
    6.6830    0.2810   18.7330 C   0  0  0  0  0  0  0  0  0  0  0  0
    6.0350    0.8590   17.7350 N   0  0  0  0  0  0  0  0  0  0  0  0
    4.9990    1.6580   18.0250 C   0  0  0  0  0  0  0  0  0  0  0  0
    4.5440    1.9010   19.4620 C   0  0  0  0  0  0  0  0  0  0  0  0
    3.0620    3.0130   19.8440 Br  0  0  0  0  0  0  0  0  0  0  0  0
    5.2460    1.2870   20.4860 C   0  0  0  0  0  0  0  0  0  0  0  0
    6.4210    0.4080   20.0890 C   0  0  0  0  0  0  0  0  0  0  0  0
    7.1020   -0.1790   21.1430 N   0  0  0  0  0  0  0  0  0  0  0  0
    8.4360    0.0750   21.5640 C   0  0  0  0  0  0  0  0  0  0  0  0
    9.0050    1.1290   21.2390 O   0  0  0  0  0  0  0  0  0  0  0  0
    9.0060   -0.9370   22.3250 N   0  0  0  0  0  0  0  0  0  0  0  0
   10.3340   -1.0610   22.7920 C   0  0  0  0  0  0  0  0  0  0  0  0
   11.3690   -1.2140   21.9640 C   0  0  0  0  0  0  0  0  0  0  0  0
   12.6660   -1.2970   22.3540 C   0  0  0  0  0  0  0  0  0  0  0  0
   13.1240   -1.2500   23.6420 C   0  0  0  0  0  0  0  0  0  0  0  0
   11.9130   -1.1240   24.2940 N   0  0  0  0  0  0  0  0  0  0  0  0
   10.4920   -1.0180   24.1450 C   0  0  0  0  0  0  0  0  0  0  0  0
  1  2  1  0
  2  3  1  0
  2  4  1  0
  4  5  1  0
  5  6  2  0
  6  7  1  0
  7  8  2  0
  8  9  1  0
  8 10  1  0
  5 11  1  0
 10 11  2  0
 11 12  1  0
 12 13  1  0
 13 14  2  0
 13 15  1  0
 15 16  1  0
 16 17  2  0
 17 18  1  0
 18 19  2  0
 19 20  1  0
 16 21  1  0
 20 21  2  0
M  END
