pyridine_urea_4879
     RDKit          3D

 21 23  0  0  0  0  0  0  0  0999 V2000
    8.7720    1.2820   21.0920 O   0  0  0  0  0  0  0  0  0  0  0  0
    8.4850    0.1360   21.4590 C   0  0  0  0  0  0  0  0  0  0  0  0
    7.2870   -0.4480   21.1390 N   0  0  0  0  0  0  0  0  0  0  0  0
    6.6220    0.0970   19.9940 C   0  0  0  0  0  0  0  0  0  0  0  0
    5.3760    0.9450   20.2900 C   0  0  0  0  0  0  0  0  0  0  0  0
    4.6690    1.5380   19.2510 C   0  0  0  0  0  0  0  0  0  0  0  0
    5.1360    1.3330   17.9590 C   0  0  0  0  0  0  0  0  0  0  0  0
    6.2460    0.5610   17.7370 N   0  0  0  0  0  0  0  0  0  0  0  0
    7.0040   -0.0690   18.7270 C   0  0  0  0  0  0  0  0  0  0  0  0
    9.2720   -0.6960   22.1970 N   0  0  0  0  0  0  0  0  0  0  0  0
   10.0750   -1.4920   22.9340 C   0  0  0  0  0  0  0  0  0  0  0  0
    9.7320   -2.8060   23.2670 C   0  0  0  0  0  0  0  0  0  0  0  0
    8.4750   -3.0220   23.8140 C   0  0  0  0  0  0  0  0  0  0  0  0
    7.8250   -1.9920   24.4940 C   0  0  0  0  0  0  0  0  0  0  0  0
    6.5600   -2.2240   25.0510 C   0  0  0  0  0  0  0  0  0  0  0  0
    5.9570   -3.5860   24.8830 C   0  0  0  0  0  0  0  0  0  0  0  0
    4.4050   -3.8800   25.5640 Cl  0  0  0  0  0  0  0  0  0  0  0  0
    6.5770   -4.6170   24.2130 C   0  0  0  0  0  0  0  0  0  0  0  0
    7.8620   -4.2910   23.6820 C   0  0  0  0  0  0  0  0  0  0  0  0
   11.6000   -1.5060   22.6030 C   0  0  0  0  0  0  0  0  0  0  0  0
   11.2440   -0.7480   23.6710 C   0  0  0  0  0  0  0  0  0  0  0  0
  1  2  2  0
  2  3  1  0
  3  4  1  0
  4  5  2  0
  5  6  1  0
  6  7  2  0
  7  8  1  0
  4  9  1  0
  8  9  2  0
  2 10  1  0
 11 10  1  0
 11 12  1  0
 12 13  1  0
 13 14  2  0
 14 15  1  0
 15 16  2  0
 16 17  1  0
 16 18  1  0
 13 19  1  0
 18 19  2  0
 11 20  1  0
 11 21  1  0
 20 21  1  0
M  END
