pyridine_urea_5764
     RDKit          3D

 21 22  0  0  0  0  0  0  0  0999 V2000
    8.7040    0.5980   21.3640 O   0  0  0  0  0  0  0  0  0  0  0  0
    8.3340   -0.5630   21.4010 C   0  0  0  0  0  0  0  0  0  0  0  0
    9.1760   -1.6930   21.8390 N   0  0  0  0  0  0  0  0  0  0  0  0
    9.8870   -1.7190   23.0640 C   0  0  0  0  0  0  0  0  0  0  0  0
   11.2310   -1.3150   23.0960 C   0  0  0  0  0  0  0  0  0  0  0  0
   11.7610   -1.7410   24.2830 F   0  0  0  0  0  0  0  0  0  0  0  0
   11.9020   -2.0540   22.1570 F   0  0  0  0  0  0  0  0  0  0  0  0
   11.4150    0.0370   22.9080 C   0  0  0  0  0  0  0  0  0  0  0  0
   12.6230    0.0920   22.1470 O   0  0  0  0  0  0  0  0  0  0  0  0
   11.7470    0.8410   23.9710 C   0  0  0  0  0  0  0  0  0  0  0  0
   10.6340    1.8180   24.3630 C   0  0  0  0  0  0  0  0  0  0  0  0
    9.7120    2.3580   23.5410 O   0  0  0  0  0  0  0  0  0  0  0  0
   10.1350    2.0310   22.2810 C   0  0  0  0  0  0  0  0  0  0  0  0
   10.2280    0.5160   22.3780 C   0  0  0  0  0  0  0  0  0  0  0  0
    7.0600   -0.9250   20.9880 N   0  0  0  0  0  0  0  0  0  0  0  0
    6.3980   -0.1900   20.0440 C   0  0  0  0  0  0  0  0  0  0  0  0
    5.2080    0.5030   20.2740 C   0  0  0  0  0  0  0  0  0  0  0  0
    4.5870    1.2490   19.2640 C   0  0  0  0  0  0  0  0  0  0  0  0
    5.1940    1.2820   18.0230 C   0  0  0  0  0  0  0  0  0  0  0  0
    6.3400    0.6320   17.7400 N   0  0  0  0  0  0  0  0  0  0  0  0
    6.9230   -0.1040   18.7770 C   0  0  0  0  0  0  0  0  0  0  0  0
  1  2  2  0
  2  3  1  0
  3  4  1  0
  4  5  1  0
  5  6  1  0
  5  7  1  0
  5  8  1  0
  8  9  1  0
  8 10  1  0
 10 11  1  0
 11 12  1  0
 12 13  1  0
  8 14  1  0
 13 14  1  0
  2 15  1  0
 15 16  1  0
 16 17  2  0
 17 18  1  0
 18 19  2  0
 19 20  1  0
 16 21  1  0
 20 21  2  0
M  END
