pyridine_urea_10789
     RDKit          3D

 20 22  0  0  0  0  0  0  0  0999 V2000
    8.9820    1.0330   21.1660 O   0  0  0  0  0  0  0  0  0  0  0  0
    8.5190   -0.0710   21.5070 C   0  0  0  0  0  0  0  0  0  0  0  0
    7.2360   -0.5910   21.0240 N   0  0  0  0  0  0  0  0  0  0  0  0
    6.5350    0.0720   20.0270 C   0  0  0  0  0  0  0  0  0  0  0  0
    5.3950    0.8190   20.3340 C   0  0  0  0  0  0  0  0  0  0  0  0
    4.7270    1.4740   19.2970 C   0  0  0  0  0  0  0  0  0  0  0  0
    5.2200    1.3580   17.9980 C   0  0  0  0  0  0  0  0  0  0  0  0
    6.3080    0.6370   17.6920 N   0  0  0  0  0  0  0  0  0  0  0  0
    6.9420    0.0100   18.7140 C   0  0  0  0  0  0  0  0  0  0  0  0
    9.0470   -1.0260   22.3670 N   0  0  0  0  0  0  0  0  0  0  0  0
   10.3140   -0.9650   23.1050 C   0  0  1  0  0  0  0  0  0  0  0  0
   11.5040   -1.4190   22.2540 C   0  0  0  0  0  0  0  0  0  0  0  0
   12.7010   -0.7670   22.4930 C   0  0  0  0  0  0  0  0  0  0  0  0
   12.4840    0.5200   22.9460 C   0  0  0  0  0  0  0  0  0  0  0  0
   11.7810    0.5820   24.1310 C   0  0  0  0  0  0  0  0  0  0  0  0
   10.4860    0.0830   24.0380 C   0  0  0  0  0  0  0  0  0  0  0  0
   10.0890   -0.4160   25.2890 C   0  0  0  0  0  0  0  0  0  0  0  0
    9.0060    0.2950   25.7610 C   0  0  0  0  0  0  0  0  0  0  0  0
    8.7190    1.2690   24.8380 C   0  0  0  0  0  0  0  0  0  0  0  0
    9.5450    1.0960   23.7260 C   0  0  0  0  0  0  0  0  0  0  0  0
  1  2  2  0
  2  3  1  0
  3  4  1  0
  4  5  2  0
  5  6  1  0
  6  7  2  0
  7  8  1  0
  4  9  1  0
  8  9  2  0
  2 10  1  0
 11 10  1  6
 11 12  1  0
 12 13  1  0
 13 14  1  0
 14 15  1  0
 11 16  1  0
 16 15  1  0
 16 17  1  0
 17 18  1  0
 18 19  1  0
 16 20  1  0
 19 20  1  0
M  END
