pyridine_urea_12273
     RDKit          3D

 22 24  0  0  0  0  0  0  0  0999 V2000
    8.6870    0.3780   21.0530 O   0  0  0  0  0  0  0  0  0  0  0  0
    7.7830   -0.2790   21.5180 C   0  0  0  0  0  0  0  0  0  0  0  0
    7.7160   -0.5230   22.8320 N   0  0  0  0  0  0  0  0  0  0  0  0
    8.7210    0.2280   23.4710 C   0  0  0  0  0  0  0  0  0  0  0  0
   10.0490   -0.4640   23.2060 C   0  0  0  0  0  0  0  0  0  0  0  0
   10.4080    0.9080   23.2460 C   0  0  0  0  0  0  0  0  0  0  0  0
   11.7180    1.6980   23.1220 C   0  0  0  0  0  0  0  0  0  0  0  0
   12.8650    1.0410   22.9260 C   0  0  0  0  0  0  0  0  0  0  0  0
   12.6530   -0.4020   22.8270 C   0  0  0  0  0  0  0  0  0  0  0  0
   13.7330   -1.1890   22.5470 N   0  0  0  0  0  0  0  0  0  0  0  0
   13.4470   -0.9580   21.2820 C   0  0  0  0  0  0  0  0  0  0  0  0
   12.5670   -2.1480   21.0250 C   0  0  0  0  0  0  0  0  0  0  0  0
   13.4310   -2.4400   22.1550 C   0  0  0  0  0  0  0  0  0  0  0  0
   13.8710   -3.5380   22.6050 O   0  0  0  0  0  0  0  0  0  0  0  0
   11.4690   -0.9840   22.9430 C   0  0  0  0  0  0  0  0  0  0  0  0
    6.7340   -0.8000   20.8520 N   0  0  0  0  0  0  0  0  0  0  0  0
    6.2170   -0.0830   19.8650 C   0  0  0  0  0  0  0  0  0  0  0  0
    5.0060    0.5750   20.0630 C   0  0  0  0  0  0  0  0  0  0  0  0
    4.4710    1.3490   19.0300 C   0  0  0  0  0  0  0  0  0  0  0  0
    5.1450    1.4620   17.8200 C   0  0  0  0  0  0  0  0  0  0  0  0
    6.3080    0.8500   17.5700 N   0  0  0  0  0  0  0  0  0  0  0  0
    6.8370    0.0490   18.6590 C   0  0  0  0  0  0  0  0  0  0  0  0
  1  2  2  0
  2  3  1  0
  3  4  1  0
  4  5  1  0
  5  6  2  0
  6  7  1  0
  7  8  2  0
  8  9  1  0
  9 10  1  0
 10 11  1  0
 11 12  1  0
 10 13  1  0
 12 13  1  0
 13 14  2  0
  5 15  1  0
  9 15  2  0
  2 16  1  0
 16 17  1  0
 17 18  2  0
 18 19  1  0
 19 20  2  0
 20 21  1  0
 17 22  1  0
 21 22  2  0
M  END
