pyridine_urea_5488
     RDKit          3D

 18 19  0  0  0  0  0  0  0  0999 V2000
   13.2370   -2.5870   21.0580 C   0  0  0  0  0  0  0  0  0  0  0  0
   13.3260   -2.5090   22.5810 C   0  0  0  0  0  0  0  0  0  0  0  0
   12.4240   -1.3700   22.8860 C   0  0  0  0  0  0  0  0  0  0  0  0
   12.8390   -0.0680   22.9880 N   0  0  0  0  0  0  0  0  0  0  0  0
   11.7820    0.7010   23.2490 C   0  0  0  0  0  0  0  0  0  0  0  0
   10.3150    0.1070   23.4010 C   0  0  0  0  0  0  0  0  0  0  0  0
    9.2640   -0.7780   23.4500 C   0  0  0  0  0  0  0  0  0  0  0  0
    8.1040   -0.3500   22.8910 N   0  0  0  0  0  0  0  0  0  0  0  0
    8.0660    0.2170   21.5570 C   0  0  0  0  0  0  0  0  0  0  0  0
    8.7590    1.1620   21.1440 O   0  0  0  0  0  0  0  0  0  0  0  0
    7.1200   -0.4730   20.8610 N   0  0  0  0  0  0  0  0  0  0  0  0
    6.4200    0.1620   19.8770 C   0  0  0  0  0  0  0  0  0  0  0  0
    5.1130    0.8430   20.2290 C   0  0  0  0  0  0  0  0  0  0  0  0
    4.4050    1.5580   19.0930 C   0  0  0  0  0  0  0  0  0  0  0  0
    5.1390    1.4700   17.7650 C   0  0  0  0  0  0  0  0  0  0  0  0
    6.2930    0.8210   17.5780 N   0  0  0  0  0  0  0  0  0  0  0  0
    6.8850    0.2030   18.6020 C   0  0  0  0  0  0  0  0  0  0  0  0
   10.7280   -1.6550   23.1190 S   0  0  0  0  0  0  0  0  0  0  0  0
  1  2  1  0
  2  3  1  0
  3  4  2  0
  4  5  1  0
  5  6  2  0
  6  7  1  0
  7  8  1  0
  8  9  1  0
  9 10  2  0
  9 11  1  0
 11 12  1  0
 12 13  2  0
 13 14  1  0
 14 15  2  0
 15 16  1  0
 12 17  1  0
 16 17  2  0
  3 18  1  0
  6 18  1  0
M  END
