pyridine_urea_13837
     RDKit          3D

 24 26  0  0  0  0  0  0  0  0999 V2000
    8.3420    1.2730   20.8270 O   0  0  0  0  0  0  0  0  0  0  0  0
    8.0320    0.1660   21.2810 C   0  0  0  0  0  0  0  0  0  0  0  0
    8.7910   -0.4690   22.1780 N   0  0  0  0  0  0  0  0  0  0  0  0
   10.0170    0.2350   22.3840 C   0  0  0  0  0  0  0  0  0  0  0  0
   10.2020    0.7310   23.7810 C   0  0  2  0  0  0  0  0  0  0  0  0
   11.2230    1.7890   23.7150 C   0  0  0  0  0  0  0  0  0  0  0  0
   12.3550    1.3190   23.1360 C   0  0  0  0  0  0  0  0  0  0  0  0
   12.6870   -0.1460   23.2490 C   0  0  0  0  0  0  0  0  0  0  0  0
   12.0390   -0.6710   24.4770 C   0  0  0  0  0  0  0  0  0  0  0  0
   10.5780   -0.4120   24.5660 N   0  0  0  0  0  0  0  0  0  0  0  0
    9.7520   -1.4950   24.0140 C   0  0  0  0  0  0  0  0  0  0  0  0
   10.7610   -1.9030   23.0490 C   0  0  0  0  0  0  0  0  0  0  0  0
   10.7700   -1.9540   21.7480 C   0  0  0  0  0  0  0  0  0  0  0  0
   11.9550   -2.3530   21.2790 C   0  0  0  0  0  0  0  0  0  0  0  0
   13.0120   -2.6770   22.0960 C   0  0  0  0  0  0  0  0  0  0  0  0
   13.2620   -2.7150   23.6290 C   0  0  0  0  0  0  0  0  0  0  0  0
   11.8750   -2.2470   23.9720 C   0  0  0  0  0  0  0  0  0  0  0  0
    6.9080   -0.4950   20.9030 N   0  0  0  0  0  0  0  0  0  0  0  0
    6.2180    0.1230   19.9610 C   0  0  0  0  0  0  0  0  0  0  0  0
    4.9960    0.7710   20.1260 C   0  0  0  0  0  0  0  0  0  0  0  0
    4.4400    1.3990   19.0210 C   0  0  0  0  0  0  0  0  0  0  0  0
    5.1290    1.3490   17.8230 C   0  0  0  0  0  0  0  0  0  0  0  0
    6.2940    0.7250   17.6460 N   0  0  0  0  0  0  0  0  0  0  0  0
    6.8090    0.1270   18.7190 C   0  0  0  0  0  0  0  0  0  0  0  0
  1  2  2  0
  2  3  1  0
  3  4  1  0
  5  4  1  6
  5  6  1  0
  6  7  1  0
  7  8  1  0
  8  9  1  0
  5 10  1  0
  9 10  1  0
 10 11  1  0
 11 12  1  0
 12 13  2  0
 13 14  1  0
 14 15  2  0
 15 16  1  0
 12 17  1  0
 16 17  2  0
  2 18  1  0
 18 19  1  0
 19 20  2  0
 20 21  1  0
 21 22  2  0
 22 23  1  0
 19 24  1  0
 23 24  2  0
M  END
