pyridine_urea_1288
     RDKit          3D

 21 22  0  0  0  0  0  0  0  0999 V2000
   12.8090    5.0680   22.7730 C   0  0  0  0  0  0  0  0  0  0  0  0
   12.0970    4.0240   21.8760 C   0  0  0  0  0  0  0  0  0  0  0  0
   11.1930    3.1390   22.7640 C   0  0  0  0  0  0  0  0  0  0  0  0
   11.9710    2.2250   23.5300 O   0  0  0  0  0  0  0  0  0  0  0  0
   11.8810    0.8220   23.1660 C   0  0  0  0  0  0  0  0  0  0  0  0
   13.0950    0.3910   22.7300 C   0  0  0  0  0  0  0  0  0  0  0  0
   13.2550   -0.8780   22.3240 C   0  0  0  0  0  0  0  0  0  0  0  0
   12.1920   -1.6650   22.3780 C   0  0  0  0  0  0  0  0  0  0  0  0
   10.9940   -1.1800   22.8370 C   0  0  0  0  0  0  0  0  0  0  0  0
   10.6490    0.1140   23.2940 C   0  0  0  0  0  0  0  0  0  0  0  0
    9.6280   -0.8250   23.3030 C   0  0  0  0  0  0  0  0  0  0  0  0
    8.4180   -0.1540   22.9150 N   0  0  0  0  0  0  0  0  0  0  0  0
    8.2690    0.3330   21.6430 C   0  0  0  0  0  0  0  0  0  0  0  0
    8.9320    1.2690   21.1850 O   0  0  0  0  0  0  0  0  0  0  0  0
    7.2780   -0.3640   21.0040 N   0  0  0  0  0  0  0  0  0  0  0  0
    6.5400    0.1930   19.9710 C   0  0  0  0  0  0  0  0  0  0  0  0
    5.3830    0.8960   20.2940 C   0  0  0  0  0  0  0  0  0  0  0  0
    4.6430    1.4870   19.2210 C   0  0  0  0  0  0  0  0  0  0  0  0
    5.1620    1.2930   17.9740 C   0  0  0  0  0  0  0  0  0  0  0  0
    6.2550    0.6190   17.6450 N   0  0  0  0  0  0  0  0  0  0  0  0
    6.9240    0.0780   18.6640 C   0  0  0  0  0  0  0  0  0  0  0  0
  1  2  3  0
  2  3  1  0
  3  4  1  0
  4  5  1  0
  5  6  2  0
  6  7  1  0
  7  8  2  0
  8  9  1  0
  5 10  1  0
  9 10  2  0
 10 11  1  0
 11 12  1  0
 12 13  1  0
 13 14  2  0
 13 15  1  0
 15 16  1  0
 16 17  2  0
 17 18  1  0
 18 19  2  0
 19 20  1  0
 16 21  1  0
 20 21  2  0
M  END
