pyridine_urea_9858
     RDKit          3D

 25 27  0  0  0  0  0  0  0  0999 V2000
    8.7910    1.3180   21.1300 O   0  0  0  0  0  0  0  0  0  0  0  0
    8.0660    0.4210   21.5760 C   0  0  0  0  0  0  0  0  0  0  0  0
    8.0480    0.0640   22.8840 N   0  0  0  0  0  0  0  0  0  0  0  0
    9.2560   -0.4510   23.3840 C   0  0  0  0  0  0  0  0  0  0  0  0
   10.1910    0.6270   23.8550 C   0  0  0  0  0  0  0  0  0  0  0  0
   11.3960    1.4200   24.0050 C   0  0  0  0  0  0  0  0  0  0  0  0
   12.6040    1.0930   23.3060 C   0  0  0  0  0  0  0  0  0  0  0  0
   12.7850    0.0050   22.3770 C   0  0  0  0  0  0  0  0  0  0  0  0
   11.8050   -1.0390   21.8380 C   0  0  0  0  0  0  0  0  0  0  0  0
   10.7870   -1.6170   21.6820 O   0  0  0  0  0  0  0  0  0  0  0  0
   10.9370   -2.3180   22.7190 C   0  0  0  0  0  0  0  0  0  0  0  0
    9.8040   -2.8970   23.1290 C   0  0  0  0  0  0  0  0  0  0  0  0
    9.9740   -3.6410   24.1970 C   0  0  0  0  0  0  0  0  0  0  0  0
   11.2530   -3.7590   24.7790 C   0  0  0  0  0  0  0  0  0  0  0  0
   12.3850   -3.1410   24.3680 C   0  0  0  0  0  0  0  0  0  0  0  0
   12.1840   -2.3630   23.2310 C   0  0  0  0  0  0  0  0  0  0  0  0
   13.4460   -1.5050   22.5010 Cl  0  0  0  0  0  0  0  0  0  0  0  0
   10.6840   -0.4220   22.7870 C   0  0  0  0  0  0  0  0  0  0  0  0
    7.1680   -0.3430   20.9000 N   0  0  0  0  0  0  0  0  0  0  0  0
    6.3920    0.2480   19.9340 C   0  0  0  0  0  0  0  0  0  0  0  0
    5.2030    0.9220   20.1730 C   0  0  0  0  0  0  0  0  0  0  0  0
    4.5550    1.4920   19.1020 C   0  0  0  0  0  0  0  0  0  0  0  0
    5.1150    1.3660   17.8370 C   0  0  0  0  0  0  0  0  0  0  0  0
    6.2510    0.7050   17.6010 N   0  0  0  0  0  0  0  0  0  0  0  0
    6.8570    0.1660   18.6550 C   0  0  0  0  0  0  0  0  0  0  0  0
  1  2  2  0
  2  3  1  0
  3  4  1  0
  4  5  1  0
  5  6  2  0
  6  7  1  0
  7  8  2  0
  8  9  1  0
  9 10  1  0
 10 11  1  0
 11 12  2  0
 12 13  1  0
 13 14  2  0
 14 15  1  0
 11 16  1  0
 15 16  2  0
 16 17  1  0
  5 18  1  0
  9 18  2  0
  2 19  1  0
 19 20  1  0
 20 21  2  0
 21 22  1  0
 22 23  2  0
 23 24  1  0
 20 25  1  0
 24 25  2  0
M  END
