pyridine_urea_10606
     RDKit          3D

 21 22  0  0  0  0  0  0  0  0999 V2000
    8.9020    0.7260   21.3060 O   0  0  0  0  0  0  0  0  0  0  0  0
    8.3830   -0.3230   21.6640 C   0  0  0  0  0  0  0  0  0  0  0  0
    8.9460   -1.2640   22.4970 N   0  0  0  0  0  0  0  0  0  0  0  0
    8.7720   -1.3860   23.8970 C   0  0  0  0  0  0  0  0  0  0  0  0
    9.3510   -2.5650   24.7110 C   0  0  0  0  0  0  0  0  0  0  0  0
    8.5600   -3.2700   25.5920 N   0  0  0  0  0  0  0  0  0  0  0  0
    9.2800   -4.2750   26.2170 C   0  0  0  0  0  0  0  0  0  0  0  0
   10.6690   -4.1900   25.6700 C   0  0  0  0  0  0  0  0  0  0  0  0
   10.6250   -3.0700   24.7060 N   0  0  0  0  0  0  0  0  0  0  0  0
   11.6290   -2.5190   23.8720 C   0  0  0  0  0  0  0  0  0  0  0  0
   12.3380   -1.4380   24.3780 C   0  0  0  0  0  0  0  0  0  0  0  0
   13.3400   -1.8570   25.1880 F   0  0  0  0  0  0  0  0  0  0  0  0
   11.5500   -0.6010   25.0960 F   0  0  0  0  0  0  0  0  0  0  0  0
   12.9050   -0.7040   23.3850 F   0  0  0  0  0  0  0  0  0  0  0  0
    7.1290   -0.6040   21.2050 N   0  0  0  0  0  0  0  0  0  0  0  0
    6.5110    0.0250   20.0180 C   0  0  0  0  0  0  0  0  0  0  0  0
    5.3690    0.7500   20.3270 C   0  0  0  0  0  0  0  0  0  0  0  0
    4.6770    1.4100   19.3290 C   0  0  0  0  0  0  0  0  0  0  0  0
    5.1730    1.3110   18.0290 C   0  0  0  0  0  0  0  0  0  0  0  0
    6.2730    0.6110   17.6960 N   0  0  0  0  0  0  0  0  0  0  0  0
    6.9270   -0.0250   18.7030 C   0  0  0  0  0  0  0  0  0  0  0  0
  1  2  2  0
  2  3  1  0
  3  4  1  0
  4  5  1  0
  5  6  2  0
  6  7  1  0
  7  8  2  0
  5  9  1  0
  8  9  1  0
  9 10  1  0
 10 11  1  0
 11 12  1  0
 11 13  1  0
 11 14  1  0
  2 15  1  0
 15 16  1  0
 16 17  2  0
 17 18  1  0
 18 19  2  0
 19 20  1  0
 16 21  1  0
 20 21  2  0
M  END
