pyridine_urea_10167
     RDKit          3D

 23 25  0  0  0  0  0  0  0  0999 V2000
   11.5290    6.3800   24.5790 C   0  0  0  0  0  0  0  0  0  0  0  0
   11.9170    5.1540   23.7800 C   0  0  0  0  0  0  0  0  0  0  0  0
   11.3000    3.8910   24.0280 N   0  0  0  0  0  0  0  0  0  0  0  0
   11.9860    3.0660   23.0680 C   0  0  0  0  0  0  0  0  0  0  0  0
   11.6610    1.7360   22.9260 C   0  0  0  0  0  0  0  0  0  0  0  0
   10.3170    1.7450   22.9740 C   0  0  0  0  0  0  0  0  0  0  0  0
    9.5980    0.6430   22.8210 C   0  0  0  0  0  0  0  0  0  0  0  0
   10.2990   -0.6520   22.5770 C   0  0  0  0  0  0  0  0  0  0  0  0
    9.2720   -1.6740   22.3570 N   0  0  0  0  0  0  0  0  0  0  0  0
    8.4330   -0.7920   21.4940 C   0  0  0  0  0  0  0  0  0  0  0  0
    8.8500    0.3200   21.1860 O   0  0  0  0  0  0  0  0  0  0  0  0
    7.1950   -1.1360   21.0220 N   0  0  0  0  0  0  0  0  0  0  0  0
    6.4450   -0.3410   20.1130 C   0  0  0  0  0  0  0  0  0  0  0  0
    5.2370    0.3440   20.3930 C   0  0  0  0  0  0  0  0  0  0  0  0
    4.5820    1.1200   19.4080 C   0  0  0  0  0  0  0  0  0  0  0  0
    5.1850    1.2120   18.0580 C   0  0  0  0  0  0  0  0  0  0  0  0
    6.3720    0.5170   17.8330 N   0  0  0  0  0  0  0  0  0  0  0  0
    6.9540   -0.2180   18.8240 C   0  0  0  0  0  0  0  0  0  0  0  0
   11.7100   -0.7070   22.5590 C   0  0  0  0  0  0  0  0  0  0  0  0
   12.4170    0.5240   22.7420 C   0  0  0  0  0  0  0  0  0  0  0  0
   12.8260    3.5040   22.3200 O   0  0  0  0  0  0  0  0  0  0  0  0
   12.8230    4.8900   22.7300 C   0  0  0  0  0  0  0  0  0  0  0  0
   13.6780    5.6720   22.0440 C   0  0  0  0  0  0  0  0  0  0  0  0
  1  2  1  0
  2  3  1  0
  3  4  2  0
  4  5  1  0
  5  6  2  0
  6  7  1  0
  7  8  2  0
  8  9  1  0
  9 10  1  0
 10 11  2  0
 10 12  1  0
 12 13  1  0
 13 14  2  0
 14 15  1  0
 15 16  2  0
 16 17  1  0
 13 18  1  0
 17 18  2  0
  8 19  1  0
  5 20  1  0
 19 20  2  0
  4 21  1  0
  2 22  2  0
 21 22  1  0
 22 23  1  0
M  END
