pyridine_urea_13979
     RDKit          3D

 23 25  0  0  0  0  0  0  0  0999 V2000
   10.7010    0.9480   22.3500 C   0  0  0  0  0  0  0  0  0  0  0  0
   11.7080    0.2940   22.5640 C   0  0  0  0  0  0  0  0  0  0  0  0
   13.1940   -0.1730   22.5410 C   0  0  0  0  0  0  0  0  0  0  0  0
   11.0710   -1.0610   22.3910 C   0  0  0  0  0  0  0  0  0  0  0  0
   10.0950   -1.0840   23.4030 C   0  0  2  0  0  0  0  0  0  0  0  0
    8.8420   -1.3740   22.6440 N   0  0  0  0  0  0  0  0  0  0  0  0
    8.3110   -0.4780   21.6820 C   0  0  0  0  0  0  0  0  0  0  0  0
    8.8090    0.6000   21.4180 O   0  0  0  0  0  0  0  0  0  0  0  0
    7.1550   -0.9250   21.0610 N   0  0  0  0  0  0  0  0  0  0  0  0
    6.3920   -0.1550   20.1360 C   0  0  0  0  0  0  0  0  0  0  0  0
    5.2370    0.4750   20.5040 C   0  0  0  0  0  0  0  0  0  0  0  0
    4.6880    1.2100   19.2800 C   0  0  0  0  0  0  0  0  0  0  0  0
    5.2940    1.2070   18.0410 C   0  0  0  0  0  0  0  0  0  0  0  0
    6.4140    0.5570   17.8050 N   0  0  0  0  0  0  0  0  0  0  0  0
    6.9210   -0.1000   18.8500 C   0  0  0  0  0  0  0  0  0  0  0  0
   10.1440    0.4650   23.8500 C   0  0  0  0  0  0  0  0  0  0  0  0
   11.6510    0.4900   23.7310 C   0  0  0  0  0  0  0  0  0  0  0  0
   11.1890   -0.8280   23.4950 C   0  0  0  0  0  0  0  0  0  0  0  0
    9.8770   -0.5690   23.7190 F   0  0  0  0  0  0  0  0  0  0  0  0
   12.5840   -0.1910   23.4640 C   0  0  0  0  0  0  0  0  0  0  0  0
   12.4350    1.2480   23.7890 C   0  0  0  0  0  0  0  0  0  0  0  0
   11.0760    1.4690   24.0130 C   0  0  0  0  0  0  0  0  0  0  0  0
   11.5120    0.3990   23.7230 O   0  0  0  0  0  0  0  0  0  0  0  0
  2  1  1  0
  2  3  1  0
  2  4  1  0
  4  5  1  0
  5  6  1  6
  6  7  1  0
  7  8  2  0
  7  9  1  0
  9 10  1  0
 10 11  2  0
 11 12  1  0
 12 13  2  0
 13 14  1  0
 10 15  1  0
 14 15  2  0
  5 16  1  0
 16 17  1  0
 17 18  2  0
 18 19  1  0
 18 20  1  0
 20 21  2  0
 16 22  2  0
 21 22  1  0
  2 23  1  0
 22 23  1  0
M  END
