pyridine_urea_3655
     RDKit          3D

 15 15  0  0  0  0  0  0  0  0999 V2000
   13.0590   -1.9860   22.7110 C   0  0  0  0  0  0  0  0  0  0  0  0
   13.1910   -0.4850   22.4290 C   0  0  0  0  0  0  0  0  0  0  0  0
   12.3240    0.2660   23.3970 C   0  0  0  0  0  0  0  0  0  0  0  0
   10.8610    0.2680   22.9630 C   0  0  0  0  0  0  0  0  0  0  0  0
   10.4580   -1.1290   22.5110 C   0  0  0  0  0  0  0  0  0  0  0  0
    9.0130   -1.1580   22.3530 N   0  0  0  0  0  0  0  0  0  0  0  0
    8.4090   -0.2030   21.5640 C   0  0  0  0  0  0  0  0  0  0  0  0
    8.9110    0.8890   21.3590 O   0  0  0  0  0  0  0  0  0  0  0  0
    7.2030   -0.6380   21.0740 N   0  0  0  0  0  0  0  0  0  0  0  0
    6.5110   -0.0000   20.0370 C   0  0  0  0  0  0  0  0  0  0  0  0
    5.3460    0.7220   20.3340 C   0  0  0  0  0  0  0  0  0  0  0  0
    4.6620    1.3730   19.3070 C   0  0  0  0  0  0  0  0  0  0  0  0
    5.1620    1.2810   18.0270 C   0  0  0  0  0  0  0  0  0  0  0  0
    6.2680    0.5870   17.7210 N   0  0  0  0  0  0  0  0  0  0  0  0
    6.9160   -0.0350   18.7260 C   0  0  0  0  0  0  0  0  0  0  0  0
  1  2  3  0
  2  3  1  0
  3  4  1  0
  4  5  1  0
  5  6  1  0
  6  7  1  0
  7  8  2  0
  7  9  1  0
  9 10  1  0
 10 11  2  0
 11 12  1  0
 12 13  2  0
 13 14  1  0
 10 15  1  0
 14 15  2  0
M  END
