pyridine_urea_747
     RDKit          3D

 23 25  0  0  0  0  0  0  0  0999 V2000
   12.7480    1.7210   23.0540 C   0  0  0  0  0  0  0  0  0  0  0  0
   12.0280    0.5040   23.5540 C   0  0  1  0  0  0  0  0  0  0  0  0
   12.6050   -0.6190   23.9040 C   0  0  0  0  0  0  0  0  0  0  0  0
   12.8640   -1.5100   22.8540 C   0  0  0  0  0  0  0  0  0  0  0  0
   13.3980   -2.7180   23.1240 C   0  0  0  0  0  0  0  0  0  0  0  0
   13.6740   -3.0250   24.4320 C   0  0  0  0  0  0  0  0  0  0  0  0
   13.4170   -2.0530   25.4980 C   0  0  0  0  0  0  0  0  0  0  0  0
   12.8840   -0.8770   25.2070 C   0  0  0  0  0  0  0  0  0  0  0  0
   10.8510    0.7050   24.4210 C   0  0  0  0  0  0  0  0  0  0  0  0
    9.6760    0.3910   23.7930 C   0  0  0  0  0  0  0  0  0  0  0  0
    9.6710   -0.9030   23.2720 C   0  0  1  0  0  0  0  0  0  0  0  0
    8.5890   -1.1990   22.4610 N   0  0  0  0  0  0  0  0  0  0  0  0
    8.1120   -0.3200   21.5360 C   0  0  0  0  0  0  0  0  0  0  0  0
    8.6820    0.7200   21.2300 O   0  0  0  0  0  0  0  0  0  0  0  0
    6.9170   -0.7430   21.0150 N   0  0  0  0  0  0  0  0  0  0  0  0
    6.3140   -0.0170   19.9340 C   0  0  0  0  0  0  0  0  0  0  0  0
    5.1290    0.6780   20.1230 C   0  0  0  0  0  0  0  0  0  0  0  0
    4.5200    1.4060   19.1200 C   0  0  0  0  0  0  0  0  0  0  0  0
    5.1570    1.4130   17.8880 C   0  0  0  0  0  0  0  0  0  0  0  0
    6.3060    0.7460   17.6600 N   0  0  0  0  0  0  0  0  0  0  0  0
    6.8530    0.0520   18.6760 C   0  0  0  0  0  0  0  0  0  0  0  0
   10.8220   -1.1030   22.5600 C   0  0  0  0  0  0  0  0  0  0  0  0
   11.4790    0.1110   22.4380 C   0  0  0  0  0  0  0  0  0  0  0  0
  2  1  1  6
  2  3  1  0
  3  4  2  0
  4  5  1  0
  5  6  2  0
  6  7  1  0
  3  8  1  0
  7  8  2  0
  2  9  1  0
  9 10  1  0
 10 11  1  0
 11 12  1  6
 12 13  1  0
 13 14  2  0
 13 15  1  0
 15 16  1  0
 16 17  2  0
 17 18  1  0
 18 19  2  0
 19 20  1  0
 16 21  1  0
 20 21  2  0
 11 22  1  0
  2 23  1  0
 22 23  1  0
M  END
