pyridine_urea_8653
     RDKit          3D

 21 22  0  0  0  0  0  0  0  0999 V2000
    8.5760    1.1970   21.0090 O   0  0  0  0  0  0  0  0  0  0  0  0
    8.0770    0.1260   21.3820 C   0  0  0  0  0  0  0  0  0  0  0  0
    6.9190   -0.4290   20.9700 N   0  0  0  0  0  0  0  0  0  0  0  0
    6.3000    0.1790   19.9100 C   0  0  0  0  0  0  0  0  0  0  0  0
    5.1070    0.8590   20.1140 C   0  0  0  0  0  0  0  0  0  0  0  0
    4.5050    1.4980   19.0410 C   0  0  0  0  0  0  0  0  0  0  0  0
    5.1310    1.4230   17.8130 C   0  0  0  0  0  0  0  0  0  0  0  0
    6.2770    0.7580   17.6080 N   0  0  0  0  0  0  0  0  0  0  0  0
    6.8320    0.1530   18.6550 C   0  0  0  0  0  0  0  0  0  0  0  0
    8.7010   -0.6330   22.2880 N   0  0  0  0  0  0  0  0  0  0  0  0
   10.0030   -0.1380   22.4980 C   0  0  1  0  0  0  0  0  0  0  0  0
   10.1030    0.9840   23.5460 C   0  0  0  0  0  0  0  0  0  0  0  0
   11.2980    1.7030   23.5520 C   0  0  0  0  0  0  0  0  0  0  0  0
   11.3530    2.9230   23.6420 O   0  0  0  0  0  0  0  0  0  0  0  0
   10.7570   -1.0750   23.2360 C   0  0  0  0  0  0  0  0  0  0  0  0
   10.8560   -2.2270   23.8490 C   0  0  0  0  0  0  0  0  0  0  0  0
   12.2410   -2.2930   24.4380 C   0  0  0  0  0  0  0  0  0  0  0  0
   13.4820   -1.3450   24.4430 C   0  0  0  0  0  0  0  0  0  0  0  0
   13.7870   -2.8760   25.4080 Br  0  0  0  0  0  0  0  0  0  0  0  0
   12.8820   -0.4000   23.6840 C   0  0  0  0  0  0  0  0  0  0  0  0
   11.9000   -1.0530   23.6510 C   0  0  0  0  0  0  0  0  0  0  0  0
  1  2  2  0
  2  3  1  0
  3  4  1  0
  4  5  2  0
  5  6  1  0
  6  7  2  0
  7  8  1  0
  4  9  1  0
  8  9  2  0
  2 10  1  0
 10 11  1  0
 11 12  1  1
 12 13  1  0
 13 14  1  0
 11 15  1  0
 15 16  2  0
 16 17  1  0
 17 18  2  0
 18 19  1  0
 18 20  1  0
 15 21  1  0
 20 21  2  0
M  END
