pyridine_urea_3619
     RDKit          3D

 16 17  0  0  0  0  0  0  0  0999 V2000
   12.4170    1.8940   23.3560 C   0  0  0  0  0  0  0  0  0  0  0  0
   11.6560    0.8980   22.5640 C   0  0  0  0  0  0  0  0  0  0  0  0
   11.5870   -0.4980   23.0850 C   0  0  0  0  0  0  0  0  0  0  0  0
   10.1880   -1.0870   23.2370 C   0  0  0  0  0  0  0  0  0  0  0  0
    9.4760   -1.1440   21.9330 N   0  0  0  0  0  0  0  0  0  0  0  0
    8.6250   -0.1490   21.4760 C   0  0  0  0  0  0  0  0  0  0  0  0
    8.9240    1.0320   21.4750 O   0  0  0  0  0  0  0  0  0  0  0  0
    7.3880   -0.6670   21.0080 N   0  0  0  0  0  0  0  0  0  0  0  0
    6.5800   -0.0110   20.0880 C   0  0  0  0  0  0  0  0  0  0  0  0
    5.2990    0.7620   20.4340 C   0  0  0  0  0  0  0  0  0  0  0  0
    4.6570    1.3560   19.3400 C   0  0  0  0  0  0  0  0  0  0  0  0
    5.1760    1.2270   18.0600 C   0  0  0  0  0  0  0  0  0  0  0  0
    6.2900    0.5460   17.7570 N   0  0  0  0  0  0  0  0  0  0  0  0
    6.9580   -0.0510   18.7610 C   0  0  0  0  0  0  0  0  0  0  0  0
   12.5990   -1.2630   22.7790 C   0  0  0  0  0  0  0  0  0  0  0  0
   12.8100   -1.0640   24.0420 C   0  0  0  0  0  0  0  0  0  0  0  0
  1  2  1  0
  3  2  1  0
  3  4  1  0
  4  5  1  0
  5  6  1  0
  6  7  2  0
  6  8  1  0
  8  9  1  0
  9 10  2  0
 10 11  1  0
 11 12  2  0
 12 13  1  0
  9 14  1  0
 13 14  2  0
  3 15  1  0
  3 16  1  0
 15 16  1  0
M  END
