pyridine_urea_123
     RDKit          3D

 20 22  0  0  0  0  0  0  0  0999 V2000
    9.0420    1.2080   21.1800 O   0  0  0  0  0  0  0  0  0  0  0  0
    8.5240    0.1950   21.6690 C   0  0  0  0  0  0  0  0  0  0  0  0
    7.5080   -0.5360   21.0690 N   0  0  0  0  0  0  0  0  0  0  0  0
    6.7100    0.0720   20.0210 C   0  0  0  0  0  0  0  0  0  0  0  0
    5.4690    0.8490   20.4600 C   0  0  0  0  0  0  0  0  0  0  0  0
    4.6980    1.4660   19.3430 C   0  0  0  0  0  0  0  0  0  0  0  0
    5.1530    1.2900   18.0520 C   0  0  0  0  0  0  0  0  0  0  0  0
    6.2500    0.5890   17.7160 N   0  0  0  0  0  0  0  0  0  0  0  0
    6.9880    0.0050   18.6840 C   0  0  0  0  0  0  0  0  0  0  0  0
    8.8700   -0.3200   22.9150 N   0  0  0  0  0  0  0  0  0  0  0  0
   10.1620   -0.9850   23.2930 C   0  0  0  0  0  0  0  0  0  0  0  0
   10.0450   -2.2900   23.6400 C   0  0  2  0  0  0  0  0  0  0  0  0
    8.6590   -2.0260   24.1680 C   0  0  0  0  0  0  0  0  0  0  0  0
    8.1830   -3.0190   25.0070 C   0  0  0  0  0  0  0  0  0  0  0  0
    9.0620   -4.0940   25.0960 C   0  0  0  0  0  0  0  0  0  0  0  0
   10.3620   -3.7170   25.4030 C   0  0  0  0  0  0  0  0  0  0  0  0
   10.7880   -2.6070   24.5600 O   0  0  0  0  0  0  0  0  0  0  0  0
   11.2180   -1.3770   22.1610 C   0  0  0  0  0  0  0  0  0  0  0  0
   12.1210   -0.4690   22.8890 C   0  0  0  0  0  0  0  0  0  0  0  0
   11.2480   -0.0290   24.0000 C   0  0  0  0  0  0  0  0  0  0  0  0
  1  2  2  0
  2  3  1  0
  3  4  1  0
  4  5  2  0
  5  6  1  0
  6  7  2  0
  7  8  1  0
  4  9  1  0
  8  9  2  0
  2 10  1  0
 11 10  1  0
 12 11  1  1
 12 13  1  0
 13 14  1  0
 14 15  1  0
 15 16  1  0
 12 17  1  0
 16 17  1  0
 11 18  1  0
 18 19  1  0
 11 20  1  0
 19 20  1  0
M  END
