pyridine_urea_483
     RDKit          3D

 25 27  0  0  0  0  0  0  0  0999 V2000
   11.8530    7.1760   25.6640 C   0  0  0  0  0  0  0  0  0  0  0  0
   11.6460    7.0270   24.1670 C   0  0  0  0  0  0  0  0  0  0  0  0
   11.7750    5.6310   23.7530 N   0  0  0  0  0  0  0  0  0  0  0  0
   10.5580    4.8650   23.5080 C   0  0  0  0  0  0  0  0  0  0  0  0
   10.8670    3.5940   23.0310 C   0  0  0  0  0  0  0  0  0  0  0  0
   12.2310    3.3300   22.9990 N   0  0  0  0  0  0  0  0  0  0  0  0
   12.8320    1.9560   23.1110 C   0  0  0  0  0  0  0  0  0  0  0  0
   11.9650    0.9860   22.8630 C   0  0  0  0  0  0  0  0  0  0  0  0
   10.5400    1.3190   23.0060 C   0  0  0  0  0  0  0  0  0  0  0  0
    9.6340    0.4110   22.7540 C   0  0  0  0  0  0  0  0  0  0  0  0
   10.0360   -0.8410   22.3480 C   0  0  0  0  0  0  0  0  0  0  0  0
    8.9670   -1.5990   22.0640 N   0  0  0  0  0  0  0  0  0  0  0  0
    8.1150   -0.7330   21.3300 C   0  0  0  0  0  0  0  0  0  0  0  0
    8.4960    0.4030   21.0820 O   0  0  0  0  0  0  0  0  0  0  0  0
    6.8770   -1.1750   20.9080 N   0  0  0  0  0  0  0  0  0  0  0  0
    6.2870   -0.3630   19.9620 C   0  0  0  0  0  0  0  0  0  0  0  0
    5.0230    0.3630   20.2230 C   0  0  0  0  0  0  0  0  0  0  0  0
    4.4890    1.1830   19.2210 C   0  0  0  0  0  0  0  0  0  0  0  0
    5.1830    1.2790   18.0110 C   0  0  0  0  0  0  0  0  0  0  0  0
    6.3420    0.6170   17.7600 N   0  0  0  0  0  0  0  0  0  0  0  0
    6.8580   -0.1760   18.7260 C   0  0  0  0  0  0  0  0  0  0  0  0
   11.4060   -1.2190   22.2230 C   0  0  0  0  0  0  0  0  0  0  0  0
   12.4200   -0.2770   22.4930 C   0  0  0  0  0  0  0  0  0  0  0  0
   12.8610    4.2410   22.1490 C   0  0  0  0  0  0  0  0  0  0  0  0
   12.6010    5.5640   22.5360 C   0  0  0  0  0  0  0  0  0  0  0  0
  1  2  1  0
  2  3  1  0
  3  4  1  0
  4  5  1  0
  5  6  1  0
  6  7  1  0
  7  8  1  0
  8  9  2  0
  9 10  1  0
 10 11  2  0
 11 12  1  0
 12 13  1  0
 13 14  2  0
 13 15  1  0
 15 16  1  0
 16 17  2  0
 17 18  1  0
 18 19  2  0
 19 20  1  0
 16 21  1  0
 20 21  2  0
 11 22  1  0
  8 23  1  0
 22 23  2  0
  6 24  1  0
  3 25  1  0
 24 25  1  0
M  END
