pyridine_urea_15081
     RDKit          3D

 17 18  0  0  0  0  0  0  0  0999 V2000
    8.8200    1.2870   21.1920 O   0  0  0  0  0  0  0  0  0  0  0  0
    8.5870    0.0810   21.3460 C   0  0  0  0  0  0  0  0  0  0  0  0
    7.3370   -0.4870   21.1530 N   0  0  0  0  0  0  0  0  0  0  0  0
    6.5860    0.1140   20.0840 C   0  0  0  0  0  0  0  0  0  0  0  0
    5.3210    0.8850   20.4450 C   0  0  0  0  0  0  0  0  0  0  0  0
    4.5480    1.5390   19.2990 C   0  0  0  0  0  0  0  0  0  0  0  0
    5.1470    1.3400   17.9080 C   0  0  0  0  0  0  0  0  0  0  0  0
    6.3120    0.5940   17.7470 N   0  0  0  0  0  0  0  0  0  0  0  0
    6.9910    0.0100   18.7750 C   0  0  0  0  0  0  0  0  0  0  0  0
    9.5560   -0.8450   21.6720 N   0  0  0  0  0  0  0  0  0  0  0  0
   10.3550   -0.7120   22.8380 C   0  0  1  0  0  0  0  0  0  0  0  0
   10.1620   -1.6680   23.8140 C   0  0  0  0  0  0  0  0  0  0  0  0
    8.8890   -1.5770   24.2850 F   0  0  0  0  0  0  0  0  0  0  0  0
   11.0090   -1.5160   24.8520 F   0  0  0  0  0  0  0  0  0  0  0  0
   11.8550   -0.8060   22.4250 C   0  0  0  0  0  0  0  0  0  0  0  0
   12.5900   -0.8620   23.4440 C   0  0  0  0  0  0  0  0  0  0  0  0
   12.9510    0.3130   22.7400 C   0  0  0  0  0  0  0  0  0  0  0  0
  1  2  2  0
  2  3  1  0
  3  4  1  0
  4  5  2  0
  5  6  1  0
  6  7  2  0
  7  8  1  0
  4  9  1  0
  8  9  2  0
  2 10  1  0
 11 10  1  6
 11 12  1  0
 12 13  1  0
 12 14  1  0
 11 15  1  0
 15 16  1  0
 15 17  1  0
 16 17  1  0
M  END
