pyridine_urea_4811
     RDKit          3D

 21 22  0  0  0  0  0  0  0  0999 V2000
   13.4010   -2.4560   25.3460 C   0  0  0  0  0  0  0  0  0  0  0  0
   13.6410   -1.5290   24.3170 O   0  0  0  0  0  0  0  0  0  0  0  0
   13.6570   -2.0970   23.0950 C   0  0  0  0  0  0  0  0  0  0  0  0
   13.8730   -3.2520   22.9230 O   0  0  0  0  0  0  0  0  0  0  0  0
   13.3260   -1.1380   21.9710 C   0  0  0  0  0  0  0  0  0  0  0  0
   11.9900   -1.0980   22.3240 N   0  0  0  0  0  0  0  0  0  0  0  0
   11.5160   -0.3390   23.2930 C   0  0  0  0  0  0  0  0  0  0  0  0
   10.1790   -0.4170   23.5850 C   0  0  0  0  0  0  0  0  0  0  0  0
    8.8810   -0.8090   23.5190 C   0  0  0  0  0  0  0  0  0  0  0  0
    8.1120    0.1220   22.9310 N   0  0  0  0  0  0  0  0  0  0  0  0
    8.0240    0.3590   21.5640 C   0  0  0  0  0  0  0  0  0  0  0  0
    8.6940    1.2790   21.0760 O   0  0  0  0  0  0  0  0  0  0  0  0
    7.1750   -0.4670   20.9250 N   0  0  0  0  0  0  0  0  0  0  0  0
    6.4900    0.1260   19.9460 C   0  0  0  0  0  0  0  0  0  0  0  0
    5.3360    0.8330   20.2420 C   0  0  0  0  0  0  0  0  0  0  0  0
    4.6200    1.4780   19.2440 C   0  0  0  0  0  0  0  0  0  0  0  0
    5.1180    1.3650   17.9460 C   0  0  0  0  0  0  0  0  0  0  0  0
    6.2260    0.6770   17.6280 N   0  0  0  0  0  0  0  0  0  0  0  0
    6.8840    0.0790   18.6330 C   0  0  0  0  0  0  0  0  0  0  0  0
    9.9570   -1.3690   22.5810 N   0  0  0  0  0  0  0  0  0  0  0  0
   11.0490   -1.7940   21.8030 N   0  0  0  0  0  0  0  0  0  0  0  0
  1  2  1  0
  2  3  1  0
  3  4  2  0
  3  5  1  0
  5  6  1  0
  6  7  1  0
  7  8  2  0
  8  9  1  0
  9 10  1  0
 10 11  1  0
 11 12  2  0
 11 13  1  0
 13 14  1  0
 14 15  2  0
 15 16  1  0
 16 17  2  0
 17 18  1  0
 14 19  1  0
 18 19  2  0
  8 20  1  0
  6 21  1  0
 20 21  2  0
M  END
