pyridine_urea_2815
     RDKit          3D

 22 23  0  0  0  0  0  0  0  0999 V2000
    8.8390    1.3630   21.1170 O   0  0  0  0  0  0  0  0  0  0  0  0
    8.2680    0.3540   21.5510 C   0  0  0  0  0  0  0  0  0  0  0  0
    8.6370   -0.2390   22.7260 N   0  0  0  0  0  0  0  0  0  0  0  0
   10.0420   -0.2390   23.0220 C   0  0  0  0  0  0  0  0  0  0  0  0
   10.6850   -1.5830   22.5870 C   0  0  1  0  0  0  0  0  0  0  0  0
    9.9290   -2.3310   21.7280 C   0  0  0  0  0  0  0  0  0  0  0  0
    9.0650   -3.2570   22.2630 O   0  0  0  0  0  0  0  0  0  0  0  0
   12.1360   -1.4370   22.0410 C   0  0  0  0  0  0  0  0  0  0  0  0
   12.7360   -1.9230   23.1080 C   0  0  0  0  0  0  0  0  0  0  0  0
   12.2300   -0.6620   23.5520 C   0  0  0  0  0  0  0  0  0  0  0  0
   11.4870    0.4400   22.9810 C   0  0  0  0  0  0  0  0  0  0  0  0
   11.6830    0.8600   24.3160 C   0  0  0  0  0  0  0  0  0  0  0  0
   12.4990   -0.2830   25.0990 C   0  0  0  0  0  0  0  0  0  0  0  0
   13.0280   -1.6460   24.5380 C   0  0  0  0  0  0  0  0  0  0  0  0
   13.9290   -2.7870   25.6570 Br  0  0  0  0  0  0  0  0  0  0  0  0
    7.2160   -0.3170   20.9870 N   0  0  0  0  0  0  0  0  0  0  0  0
    6.4460    0.2550   20.0180 C   0  0  0  0  0  0  0  0  0  0  0  0
    5.2710    0.9660   20.2580 C   0  0  0  0  0  0  0  0  0  0  0  0
    4.6050    1.5160   19.1720 C   0  0  0  0  0  0  0  0  0  0  0  0
    5.1510    1.3230   17.9210 C   0  0  0  0  0  0  0  0  0  0  0  0
    6.2600    0.6410   17.6510 N   0  0  0  0  0  0  0  0  0  0  0  0
    6.8860    0.1210   18.7130 C   0  0  0  0  0  0  0  0  0  0  0  0
  1  2  2  0
  2  3  1  0
  3  4  1  0
  5  4  1  6
  5  6  1  0
  6  7  1  0
  5  8  1  0
  8  9  1  0
  9 10  2  0
 10 11  1  0
 11 12  2  0
 12 13  1  0
  9 14  1  0
 13 14  2  0
 14 15  1  0
  2 16  1  0
 16 17  1  0
 17 18  2  0
 18 19  1  0
 19 20  2  0
 20 21  1  0
 17 22  1  0
 21 22  2  0
M  END
