pyridine_urea_6359
     RDKit          3D

 23 24  0  0  0  0  0  0  0  0999 V2000
    7.9350   -2.5320   24.1570 C   0  0  0  0  0  0  0  0  0  0  0  0
    8.8880   -3.0710   23.6760 C   0  0  0  0  0  0  0  0  0  0  0  0
   10.0610   -2.4380   24.2670 O   0  0  0  0  0  0  0  0  0  0  0  0
   11.2050   -3.1560   24.1220 C   0  0  0  0  0  0  0  0  0  0  0  0
   12.3660   -2.6360   24.8660 C   0  0  0  0  0  0  0  0  0  0  0  0
   13.4560   -2.2140   24.1860 C   0  0  0  0  0  0  0  0  0  0  0  0
   13.0350   -1.1110   23.3800 N   0  0  0  0  0  0  0  0  0  0  0  0
   12.7230   -1.4590   22.1240 C   0  0  0  0  0  0  0  0  0  0  0  0
   11.2720   -1.7440   21.9880 C   0  0  0  0  0  0  0  0  0  0  0  0
   10.4080   -0.7730   22.3330 C   0  0  2  0  0  0  0  0  0  0  0  0
    9.3290   -0.6340   21.4480 N   0  0  0  0  0  0  0  0  0  0  0  0
    8.3810    0.4370   21.4350 C   0  0  0  0  0  0  0  0  0  0  0  0
    9.2950    1.1050   21.8190 O   0  0  0  0  0  0  0  0  0  0  0  0
    7.5660   -0.5470   21.0010 N   0  0  0  0  0  0  0  0  0  0  0  0
    6.6760    0.0110   20.1330 C   0  0  0  0  0  0  0  0  0  0  0  0
    5.4890    0.6540   20.4790 C   0  0  0  0  0  0  0  0  0  0  0  0
    4.6600    1.2180   19.5300 C   0  0  0  0  0  0  0  0  0  0  0  0
    5.1060    1.1030   18.1030 C   0  0  0  0  0  0  0  0  0  0  0  0
    6.2360    0.4820   17.7280 N   0  0  0  0  0  0  0  0  0  0  0  0
    7.0000   -0.0510   18.7080 C   0  0  0  0  0  0  0  0  0  0  0  0
   11.2990    0.4320   22.6770 C   0  0  1  0  0  0  0  0  0  0  0  0
   10.7390    1.6680   23.0260 C   0  0  0  0  0  0  0  0  0  0  0  0
   12.1870   -0.1160   23.7830 C   0  0  0  0  0  0  0  0  0  0  0  0
  1  2  1  0
  2  3  1  0
  3  4  1  0
  4  5  1  0
  5  6  1  0
  6  7  1  0
  7  8  1  0
  8  9  1  0
  9 10  1  0
 10 11  1  6
 11 12  1  0
 12 13  2  0
 12 14  1  0
 14 15  1  0
 15 16  2  0
 16 17  1  0
 17 18  2  0
 18 19  1  0
 15 20  1  0
 19 20  2  0
 10 21  1  0
 21 22  1  1
  7 23  1  0
 21 23  1  0
M  END
