pyridine_urea_6758
     RDKit          3D

 21 22  0  0  0  0  0  0  0  0999 V2000
   12.8260   -4.1200   26.2220 C   0  0  0  0  0  0  0  0  0  0  0  0
   12.4530   -3.0190   25.2430 C   0  0  0  0  0  0  0  0  0  0  0  0
   13.7510   -2.0640   24.7930 S   0  0  0  0  0  0  0  0  0  0  0  0
   12.6480   -0.7870   24.3820 C   0  0  0  0  0  0  0  0  0  0  0  0
   12.1890   -1.4800   23.2540 C   0  0  0  0  0  0  0  0  0  0  0  0
   11.1280   -0.6250   22.6270 C   0  0  0  0  0  0  0  0  0  0  0  0
   10.6170   -1.1580   21.6110 C   0  0  0  0  0  0  0  0  0  0  0  0
   11.6190   -1.7820   22.3240 C   0  0  0  0  0  0  0  0  0  0  0  0
   11.5890   -0.5380   23.2650 C   0  0  0  0  0  0  0  0  0  0  0  0
   10.7700    0.5720   23.1690 C   0  0  0  0  0  0  0  0  0  0  0  0
    9.5320    0.2580   23.7140 C   0  0  0  0  0  0  0  0  0  0  0  0
    8.7230   -0.5150   22.7970 N   0  0  0  0  0  0  0  0  0  0  0  0
    8.2790    0.1720   21.5840 C   0  0  0  0  0  0  0  0  0  0  0  0
    8.8050    1.2090   21.1520 O   0  0  0  0  0  0  0  0  0  0  0  0
    7.2140   -0.4650   21.0260 N   0  0  0  0  0  0  0  0  0  0  0  0
    6.5210    0.1220   19.9860 C   0  0  0  0  0  0  0  0  0  0  0  0
    5.2610    0.9160   20.2590 C   0  0  0  0  0  0  0  0  0  0  0  0
    4.6420    1.4900   19.1920 C   0  0  0  0  0  0  0  0  0  0  0  0
    5.1420    1.3560   17.9140 C   0  0  0  0  0  0  0  0  0  0  0  0
    6.2510    0.6490   17.6350 N   0  0  0  0  0  0  0  0  0  0  0  0
    6.9070    0.0540   18.6650 C   0  0  0  0  0  0  0  0  0  0  0  0
  1  2  1  0
  2  3  1  0
  3  4  1  0
  4  5  2  0
  5  6  1  0
  6  7  2  0
  7  8  1  0
  4  9  1  0
  8  9  2  0
  9 10  1  0
 10 11  1  0
 11 12  1  0
 12 13  1  0
 13 14  2  0
 13 15  1  0
 15 16  1  0
 16 17  2  0
 17 18  1  0
 18 19  2  0
 19 20  1  0
 16 21  1  0
 20 21  2  0
M  END
