pyridine_urea_3258
     RDKit          3D

 20 22  0  0  0  0  0  0  0  0999 V2000
    8.8210    1.3800   21.1710 O   0  0  0  0  0  0  0  0  0  0  0  0
    8.0970    0.4410   21.5250 C   0  0  0  0  0  0  0  0  0  0  0  0
    8.0270   -0.1480   22.7230 N   0  0  0  0  0  0  0  0  0  0  0  0
    8.1170   -1.5180   22.8360 C   0  0  0  0  0  0  0  0  0  0  0  0
    9.4020   -1.8210   23.0770 C   0  0  0  0  0  0  0  0  0  0  0  0
    9.9410   -1.9360   24.3130 N   0  0  0  0  0  0  0  0  0  0  0  0
   11.2160   -2.2260   24.1330 C   0  0  0  0  0  0  0  0  0  0  0  0
   12.0790   -2.4180   25.1580 N   0  0  0  0  0  0  0  0  0  0  0  0
   13.2910   -2.7170   24.8640 C   0  0  0  0  0  0  0  0  0  0  0  0
   13.8180   -2.8580   23.4530 C   0  0  0  0  0  0  0  0  0  0  0  0
   12.9180   -2.6290   22.4240 C   0  0  0  0  0  0  0  0  0  0  0  0
   11.5300   -2.3030   22.8600 C   0  0  0  0  0  0  0  0  0  0  0  0
   10.4210   -2.0520   22.1070 N   0  0  0  0  0  0  0  0  0  0  0  0
    7.1850   -0.2300   20.7850 N   0  0  0  0  0  0  0  0  0  0  0  0
    6.4370    0.3460   19.8840 C   0  0  0  0  0  0  0  0  0  0  0  0
    5.2880    1.0570   20.1620 C   0  0  0  0  0  0  0  0  0  0  0  0
    4.6140    1.6350   19.0950 C   0  0  0  0  0  0  0  0  0  0  0  0
    5.1280    1.4640   17.8150 C   0  0  0  0  0  0  0  0  0  0  0  0
    6.2340    0.7610   17.5510 N   0  0  0  0  0  0  0  0  0  0  0  0
    6.8550    0.2230   18.5970 C   0  0  0  0  0  0  0  0  0  0  0  0
  1  2  2  0
  2  3  1  0
  3  4  1  0
  4  5  1  0
  5  6  2  0
  6  7  1  0
  7  8  2  0
  8  9  1  0
  9 10  2  0
 10 11  1  0
  7 12  1  0
 11 12  2  0
  5 13  1  0
 12 13  1  0
  2 14  1  0
 14 15  1  0
 15 16  2  0
 16 17  1  0
 17 18  2  0
 18 19  1  0
 15 20  1  0
 19 20  2  0
M  END
