pyridine_urea_2433
     RDKit          3D

 24 26  0  0  0  0  0  0  0  0999 V2000
   13.1330   -1.0780   21.9930 C   0  0  0  0  0  0  0  0  0  0  0  0
   12.7790    0.2480   22.6610 C   0  0  0  0  0  0  0  0  0  0  0  0
   11.5640    0.3830   23.2930 C   0  0  0  0  0  0  0  0  0  0  0  0
   10.2800   -0.0840   22.9500 C   0  0  0  0  0  0  0  0  0  0  0  0
   10.3560   -1.2330   22.4570 C   0  0  0  0  0  0  0  0  0  0  0  0
    9.0550   -0.5500   22.6090 N   0  0  0  0  0  0  0  0  0  0  0  0
    8.4650    0.3220   21.6810 C   0  0  0  0  0  0  0  0  0  0  0  0
    9.0710    1.3310   21.2870 O   0  0  0  0  0  0  0  0  0  0  0  0
    7.1120   -0.1080   21.2780 N   0  0  0  0  0  0  0  0  0  0  0  0
    6.4070    0.4360   20.2290 C   0  0  0  0  0  0  0  0  0  0  0  0
    5.1130    1.2240   20.3860 C   0  0  0  0  0  0  0  0  0  0  0  0
    4.5050    1.7300   19.2400 C   0  0  0  0  0  0  0  0  0  0  0  0
    5.1150    1.4880   18.0230 C   0  0  0  0  0  0  0  0  0  0  0  0
    6.2420    0.7980   17.8380 N   0  0  0  0  0  0  0  0  0  0  0  0
    6.8600    0.2850   18.9200 C   0  0  0  0  0  0  0  0  0  0  0  0
   11.7460   -1.3770   22.5270 C   0  0  0  0  0  0  0  0  0  0  0  0
   10.7350   -2.2100   22.0880 N   0  0  0  0  0  0  0  0  0  0  0  0
    9.6080   -1.2640   22.3900 N   0  0  0  0  0  0  0  0  0  0  0  0
    8.2620   -1.6970   22.1280 C   0  0  0  0  0  0  0  0  0  0  0  0
    7.5920   -2.2550   23.2170 C   0  0  0  0  0  0  0  0  0  0  0  0
    6.2800   -2.6990   23.0610 C   0  0  0  0  0  0  0  0  0  0  0  0
    5.6420   -2.5880   21.8310 C   0  0  0  0  0  0  0  0  0  0  0  0
    6.3140   -2.0310   20.7450 C   0  0  0  0  0  0  0  0  0  0  0  0
    7.6450   -1.5770   20.8800 C   0  0  0  0  0  0  0  0  0  0  0  0
  1  2  1  0
  2  3  1  0
  3  4  1  0
  4  5  2  0
  5  6  1  0
  6  7  1  0
  7  8  2  0
  7  9  1  0
  9 10  1  0
 10 11  2  0
 11 12  1  0
 12 13  2  0
 13 14  1  0
 10 15  1  0
 14 15  2  0
  5 16  1  0
 16 17  2  0
  4 18  1  0
 17 18  1  0
 18 19  1  0
 19 20  2  0
 20 21  1  0
 21 22  2  0
 22 23  1  0
 19 24  1  0
 23 24  2  0
M  END
