pyridine_urea_720
     RDKit          3D

 23 24  0  0  0  0  0  0  0  0999 V2000
    7.7670   -0.4340   27.5440 C   0  0  0  0  0  0  0  0  0  0  0  0
    7.5970   -0.7320   26.0570 C   0  0  0  0  0  0  0  0  0  0  0  0
    8.6970   -0.6850   25.1860 C   0  0  0  0  0  0  0  0  0  0  0  0
    9.9680   -0.2530   25.6020 C   0  0  0  0  0  0  0  0  0  0  0  0
   10.7080    0.9400   24.4140 S   0  0  0  0  0  0  0  0  0  0  0  0
   12.0570    1.3010   24.6110 O   0  0  0  0  0  0  0  0  0  0  0  0
    9.6880    1.7690   23.8000 O   0  0  0  0  0  0  0  0  0  0  0  0
   11.2170   -0.0870   23.2840 C   0  0  0  0  0  0  0  0  0  0  0  0
   12.5030   -0.3850   22.9700 C   0  0  0  0  0  0  0  0  0  0  0  0
   12.7530   -1.3720   21.8690 C   0  0  0  0  0  0  0  0  0  0  0  0
   11.6470   -1.9150   21.2450 C   0  0  0  0  0  0  0  0  0  0  0  0
   10.3710   -1.5120   21.6660 C   0  0  0  0  0  0  0  0  0  0  0  0
    9.1160   -1.8350   21.2360 N   0  0  0  0  0  0  0  0  0  0  0  0
    8.2200   -0.6790   21.1040 C   0  0  0  0  0  0  0  0  0  0  0  0
    8.5960    0.4830   21.2290 O   0  0  0  0  0  0  0  0  0  0  0  0
    6.9270   -1.0110   20.7960 N   0  0  0  0  0  0  0  0  0  0  0  0
    6.2420   -0.1970   19.8980 C   0  0  0  0  0  0  0  0  0  0  0  0
    5.0300    0.6120   20.1480 C   0  0  0  0  0  0  0  0  0  0  0  0
    4.4920    1.3810   19.1310 C   0  0  0  0  0  0  0  0  0  0  0  0
    5.1260    1.3630   17.8990 C   0  0  0  0  0  0  0  0  0  0  0  0
    6.2300    0.6410   17.6240 N   0  0  0  0  0  0  0  0  0  0  0  0
    6.7540   -0.1160   18.6140 C   0  0  0  0  0  0  0  0  0  0  0  0
   10.2240   -0.6390   22.6480 C   0  0  0  0  0  0  0  0  0  0  0  0
  1  2  1  0
  2  3  1  0
  3  4  1  0
  5  4  1  0
  5  6  2  0
  5  7  2  0
  5  8  1  0
  8  9  2  0
  9 10  1  0
 10 11  2  0
 11 12  1  0
 12 13  1  0
 13 14  1  0
 14 15  2  0
 14 16  1  0
 16 17  1  0
 17 18  2  0
 18 19  1  0
 19 20  2  0
 20 21  1  0
 17 22  1  0
 21 22  2  0
  8 23  1  0
 12 23  2  0
M  END
