pyridine_urea_14391
     RDKit          3D

 22 24  0  0  0  0  0  0  0  0999 V2000
    8.7620    1.3940   21.3180 O   0  0  0  0  0  0  0  0  0  0  0  0
    8.4890    0.1980   21.2240 C   0  0  0  0  0  0  0  0  0  0  0  0
    7.1270   -0.3010   21.1750 N   0  0  0  0  0  0  0  0  0  0  0  0
    6.4270    0.2270   20.1110 C   0  0  0  0  0  0  0  0  0  0  0  0
    5.2540    0.9430   20.3240 C   0  0  0  0  0  0  0  0  0  0  0  0
    4.6000    1.4780   19.2190 C   0  0  0  0  0  0  0  0  0  0  0  0
    5.1430    1.2770   17.9480 C   0  0  0  0  0  0  0  0  0  0  0  0
    6.2640    0.5800   17.7280 N   0  0  0  0  0  0  0  0  0  0  0  0
    6.8850    0.0660   18.8140 C   0  0  0  0  0  0  0  0  0  0  0  0
    9.3680   -0.8280   21.0680 N   0  0  0  0  0  0  0  0  0  0  0  0
   10.4120   -1.1180   21.9770 C   0  0  0  0  0  0  0  0  0  0  0  0
   10.2490   -0.4790   23.3180 C   0  0  0  0  0  0  0  0  0  0  0  0
   11.2040   -0.8230   24.1580 C   0  0  0  0  0  0  0  0  0  0  0  0
   11.4290   -0.5170   25.4010 C   0  0  0  0  0  0  0  0  0  0  0  0
   10.2410   -0.2810   26.1640 O   0  0  0  0  0  0  0  0  0  0  0  0
   12.7120   -0.4600   25.7510 N   0  0  0  0  0  0  0  0  0  0  0  0
   13.5330   -1.6250   25.6700 C   0  0  0  0  0  0  0  0  0  0  0  0
   13.4230   -2.3100   24.6340 N   0  0  0  0  0  0  0  0  0  0  0  0
   12.4020   -1.7810   23.8630 C   0  0  0  0  0  0  0  0  0  0  0  0
   12.4870   -2.2390   22.6580 C   0  0  0  0  0  0  0  0  0  0  0  0
   11.5520   -1.9290   21.7680 C   0  0  0  0  0  0  0  0  0  0  0  0
   11.8600   -2.5340   20.6440 F   0  0  0  0  0  0  0  0  0  0  0  0
  1  2  2  0
  2  3  1  0
  3  4  1  0
  4  5  2  0
  5  6  1  0
  6  7  2  0
  7  8  1  0
  4  9  1  0
  8  9  2  0
  2 10  1  0
 10 11  1  0
 11 12  2  0
 12 13  1  0
 13 14  1  0
 14 15  2  0
 14 16  1  0
 16 17  1  0
 17 18  2  0
 13 19  2  0
 18 19  1  0
 19 20  1  0
 11 21  1  0
 20 21  2  0
 21 22  1  0
M  END
