pyridine_urea_14510
     RDKit          3D

 21 22  0  0  0  0  0  0  0  0999 V2000
   12.0770    2.2860   23.0280 C   0  0  0  0  0  0  0  0  0  0  0  0
   11.3950    1.0800   23.6090 C   0  0  1  0  0  0  0  0  0  0  0  0
   10.9100    1.5770   24.5920 O   0  0  0  0  0  0  0  0  0  0  0  0
   10.2920    0.7250   22.8490 C   0  0  0  0  0  0  0  0  0  0  0  0
   10.0470   -0.6330   22.6640 C   0  0  0  0  0  0  0  0  0  0  0  0
    8.8590   -1.1620   22.4500 N   0  0  0  0  0  0  0  0  0  0  0  0
    8.2430   -0.3210   21.5520 C   0  0  0  0  0  0  0  0  0  0  0  0
    8.6970    0.7450   21.1700 O   0  0  0  0  0  0  0  0  0  0  0  0
    7.0580   -0.8090   21.1380 N   0  0  0  0  0  0  0  0  0  0  0  0
    6.4860   -0.1320   20.1050 C   0  0  0  0  0  0  0  0  0  0  0  0
    5.2330    0.6480   20.4100 C   0  0  0  0  0  0  0  0  0  0  0  0
    4.6340    1.3890   19.2460 C   0  0  0  0  0  0  0  0  0  0  0  0
    5.2540    1.2980   18.0220 C   0  0  0  0  0  0  0  0  0  0  0  0
    6.3540    0.6250   17.7020 N   0  0  0  0  0  0  0  0  0  0  0  0
    6.9360   -0.0800   18.7950 C   0  0  0  0  0  0  0  0  0  0  0  0
   12.1370   -0.0580   23.9540 C   0  0  0  0  0  0  0  0  0  0  0  0
   12.7130   -0.6610   24.9790 C   0  0  0  0  0  0  0  0  0  0  0  0
   13.2940   -1.8730   24.4370 C   0  0  0  0  0  0  0  0  0  0  0  0
   13.2280   -2.3070   23.0070 C   0  0  0  0  0  0  0  0  0  0  0  0
   12.5410   -1.5060   22.0280 C   0  0  0  0  0  0  0  0  0  0  0  0
   12.5600   -1.0670   23.2230 C   0  0  0  0  0  0  0  0  0  0  0  0
  2  1  1  6
  2  3  1  0
  2  4  1  0
  4  5  1  0
  5  6  1  0
  6  7  1  0
  7  8  2  0
  7  9  1  0
  9 10  1  0
 10 11  2  0
 11 12  1  0
 12 13  2  0
 13 14  1  0
 10 15  1  0
 14 15  2  0
  2 16  1  0
 16 17  2  0
 17 18  1  0
 18 19  2  0
 19 20  1  0
 16 21  1  0
 20 21  2  0
M  END
