pyridine_urea_6274
     RDKit          3D

 24 26  0  0  0  0  0  0  0  0999 V2000
    8.7630    0.7480   21.2790 O   0  0  0  0  0  0  0  0  0  0  0  0
    8.4930   -0.4170   21.5520 C   0  0  0  0  0  0  0  0  0  0  0  0
    9.2100   -1.1370   22.4710 N   0  0  0  0  0  0  0  0  0  0  0  0
   10.6180   -0.8290   22.5550 C   0  0  0  0  0  0  0  0  0  0  0  0
   10.7750    0.6400   22.9390 C   0  0  0  0  0  0  0  0  0  0  0  0
   12.1390    1.1090   23.0500 C   0  0  0  0  0  0  0  0  0  0  0  0
   13.0580    0.1800   22.8040 C   0  0  0  0  0  0  0  0  0  0  0  0
   12.7950   -1.1000   22.4710 N   0  0  0  0  0  0  0  0  0  0  0  0
   11.6150   -1.8080   22.2930 C   0  0  0  0  0  0  0  0  0  0  0  0
    7.4460   -1.0940   20.9690 N   0  0  0  0  0  0  0  0  0  0  0  0
    6.5650   -0.2230   20.1830 C   0  0  0  0  0  0  0  0  0  0  0  0
    5.4850    0.3300   20.7940 C   0  0  0  0  0  0  0  0  0  0  0  0
    4.7640    1.2180   19.8290 C   0  0  0  0  0  0  0  0  0  0  0  0
    5.0870    1.4690   18.5360 C   0  0  0  0  0  0  0  0  0  0  0  0
    4.1370    2.3980   18.0710 O   0  0  0  0  0  0  0  0  0  0  0  0
    3.4670    2.9960   19.2150 C   0  0  0  0  0  0  0  0  0  0  0  0
    2.0950    3.1780   19.0320 C   0  0  0  0  0  0  0  0  0  0  0  0
    0.9250    3.7400   19.8800 C   0  0  0  0  0  0  0  0  0  0  0  0
    1.7640    4.0850   21.1080 C   0  0  0  0  0  0  0  0  0  0  0  0
    3.2320    3.9090   21.3390 C   0  0  0  0  0  0  0  0  0  0  0  0
    4.0560    3.3750   20.4030 C   0  0  0  0  0  0  0  0  0  0  0  0
    5.3640    3.2640   20.7290 F   0  0  0  0  0  0  0  0  0  0  0  0
    6.1320    0.8940   17.9480 N   0  0  0  0  0  0  0  0  0  0  0  0
    6.9660    0.0000   18.7160 C   0  0  0  0  0  0  0  0  0  0  0  0
  1  2  2  0
  2  3  1  0
  3  4  1  0
  4  5  2  0
  5  6  1  0
  6  7  2  0
  7  8  1  0
  4  9  1  0
  8  9  2  0
  2 10  1  0
 10 11  1  0
 11 12  2  0
 12 13  1  0
 13 14  2  0
 14 15  1  0
 15 16  1  0
 16 17  2  0
 17 18  1  0
 18 19  2  0
 19 20  1  0
 16 21  1  0
 20 21  2  0
 21 22  1  0
 14 23  1  0
 11 24  1  0
 23 24  2  0
M  END
