pyridine_urea_11632
     RDKit          3D

 28 30  0  0  0  0  0  0  0  0999 V2000
    8.6350   -0.6550   29.5390 C   0  0  0  0  0  0  0  0  0  0  0  0
    6.9090   -0.5020   29.0500 S   0  0  0  0  0  0  0  0  0  0  0  0
    6.5110    0.8900   29.1240 O   0  0  0  0  0  0  0  0  0  0  0  0
    6.1610   -1.5490   29.7090 O   0  0  0  0  0  0  0  0  0  0  0  0
    7.0930   -0.9790   27.3010 C   0  0  0  0  0  0  0  0  0  0  0  0
    6.2880   -2.0330   26.8800 C   0  0  0  0  0  0  0  0  0  0  0  0
    6.2920   -2.5370   25.5920 C   0  0  0  0  0  0  0  0  0  0  0  0
    7.1690   -1.9110   24.7280 C   0  0  0  0  0  0  0  0  0  0  0  0
    8.0130   -0.8440   25.0710 C   0  0  0  0  0  0  0  0  0  0  0  0
    8.7460   -0.3780   24.2020 O   0  0  0  0  0  0  0  0  0  0  0  0
    9.8810    0.3920   24.5690 C   0  0  0  0  0  0  0  0  0  0  0  0
   11.1980    0.5900   24.1450 N   0  0  0  0  0  0  0  0  0  0  0  0
   11.6720   -0.2180   22.9410 C   0  0  0  0  0  0  0  0  0  0  0  0
   12.8310    0.2260   22.8880 C   0  0  0  0  0  0  0  0  0  0  0  0
   12.0740    0.7010   23.8310 C   0  0  0  0  0  0  0  0  0  0  0  0
   10.7100   -0.0270   23.6350 C   0  0  0  0  0  0  0  0  0  0  0  0
   10.4100   -0.9660   22.6400 C   0  0  0  0  0  0  0  0  0  0  0  0
    9.0700   -0.8720   22.3870 N   0  0  0  0  0  0  0  0  0  0  0  0
    8.4000   -0.0250   21.4700 C   0  0  0  0  0  0  0  0  0  0  0  0
    8.8690    1.0820   21.1600 O   0  0  0  0  0  0  0  0  0  0  0  0
    7.2480   -0.6040   21.0560 N   0  0  0  0  0  0  0  0  0  0  0  0
    6.6000    0.0080   20.0500 C   0  0  0  0  0  0  0  0  0  0  0  0
    5.3610    0.8400   20.3370 C   0  0  0  0  0  0  0  0  0  0  0  0
    4.6850    1.4870   19.3140 C   0  0  0  0  0  0  0  0  0  0  0  0
    5.1750    1.3540   18.0170 C   0  0  0  0  0  0  0  0  0  0  0  0
    6.2650    0.6230   17.7010 N   0  0  0  0  0  0  0  0  0  0  0  0
    6.9600   -0.0410   18.7250 C   0  0  0  0  0  0  0  0  0  0  0  0
    7.9830   -0.3560   26.3870 C   0  0  0  0  0  0  0  0  0  0  0  0
  2  1  1  0
  2  3  2  0
  2  4  2  0
  2  5  1  0
  5  6  2  0
  6  7  1  0
  7  8  2  0
  8  9  1  0
  9 10  1  0
 10 11  1  0
 11 12  2  0
 12 13  1  0
 13 14  2  0
 14 15  1  0
 11 16  1  0
 15 16  2  0
 16 17  1  0
 17 18  1  0
 18 19  1  0
 19 20  2  0
 19 21  1  0
 21 22  1  0
 22 23  2  0
 23 24  1  0
 24 25  2  0
 25 26  1  0
 22 27  1  0
 26 27  2  0
  5 28  1  0
  9 28  2  0
M  END
