pyridine_urea_5086
     RDKit          3D

 20 21  0  0  0  0  0  0  0  0999 V2000
   13.4080   -2.6500   21.0120 C   0  0  0  0  0  0  0  0  0  0  0  0
   13.5290   -1.4380   21.7860 C   0  0  0  0  0  0  0  0  0  0  0  0
   12.3700   -1.0700   22.1610 C   0  0  0  0  0  0  0  0  0  0  0  0
   11.3990   -2.1140   22.0120 N   0  0  0  0  0  0  0  0  0  0  0  0
   10.3330   -1.5120   22.4080 N   0  0  0  0  0  0  0  0  0  0  0  0
   10.6530   -0.1980   22.7690 C   0  0  0  0  0  0  0  0  0  0  0  0
    9.6120    0.4960   23.1670 C   0  0  0  0  0  0  0  0  0  0  0  0
    8.6380   -0.5250   23.7080 C   0  0  0  0  0  0  0  0  0  0  0  0
    8.1490   -1.2670   22.5870 N   0  0  0  0  0  0  0  0  0  0  0  0
    7.8970   -0.4500   21.4490 C   0  0  0  0  0  0  0  0  0  0  0  0
    8.6260    0.4750   21.1130 O   0  0  0  0  0  0  0  0  0  0  0  0
    6.7410   -0.8300   20.8560 N   0  0  0  0  0  0  0  0  0  0  0  0
    6.2090   -0.0680   19.8400 C   0  0  0  0  0  0  0  0  0  0  0  0
    5.0160    0.6140   20.0250 C   0  0  0  0  0  0  0  0  0  0  0  0
    4.4690    1.3890   19.0370 C   0  0  0  0  0  0  0  0  0  0  0  0
    5.1430    1.4760   17.8320 C   0  0  0  0  0  0  0  0  0  0  0  0
    6.3020    0.8210   17.6230 N   0  0  0  0  0  0  0  0  0  0  0  0
    6.8150    0.0650   18.6190 C   0  0  0  0  0  0  0  0  0  0  0  0
   11.9430    0.0880   22.6340 N   0  0  0  0  0  0  0  0  0  0  0  0
   12.6620    1.2050   22.8700 C   0  0  0  0  0  0  0  0  0  0  0  0
  1  2  1  0
  2  3  1  0
  3  4  2  0
  4  5  1  0
  5  6  2  0
  6  7  1  0
  7  8  1  0
  8  9  1  0
  9 10  1  0
 10 11  2  0
 10 12  1  0
 12 13  1  0
 13 14  2  0
 14 15  1  0
 15 16  2  0
 16 17  1  0
 13 18  1  0
 17 18  2  0
  3 19  1  0
  6 19  1  0
 19 20  1  0
M  END
