pyridine_urea_9782
     RDKit          3D

 26 28  0  0  0  0  0  0  0  0999 V2000
    8.6310    1.2650   21.1160 O   0  0  0  0  0  0  0  0  0  0  0  0
    8.2700    0.0800   21.0530 C   0  0  0  0  0  0  0  0  0  0  0  0
    6.9700   -0.3360   21.0590 N   0  0  0  0  0  0  0  0  0  0  0  0
    6.6590   -0.6180   19.7150 C   0  0  0  0  0  0  0  0  0  0  0  0
    6.1390    0.8040   20.1660 C   0  0  0  0  0  0  0  0  0  0  0  0
    5.3930    1.8640   19.3560 C   0  0  0  0  0  0  0  0  0  0  0  0
    5.1320    1.5090   17.9480 C   0  0  0  0  0  0  0  0  0  0  0  0
    5.5840    0.2840   17.5880 N   0  0  0  0  0  0  0  0  0  0  0  0
    6.2280   -0.6040   18.3900 C   0  0  0  0  0  0  0  0  0  0  0  0
    9.1340   -0.9980   20.8880 N   0  0  0  0  0  0  0  0  0  0  0  0
   10.1930   -1.0070   21.7370 C   0  0  0  0  0  0  0  0  0  0  0  0
   11.4430   -1.6290   21.8350 C   0  0  0  0  0  0  0  0  0  0  0  0
   12.2800   -1.4440   22.9120 C   0  0  0  0  0  0  0  0  0  0  0  0
   11.7720   -0.5980   23.8860 C   0  0  0  0  0  0  0  0  0  0  0  0
   12.1900   -0.2930   25.0360 N   0  0  0  0  0  0  0  0  0  0  0  0
   10.8430   -0.2730   25.3480 C   0  0  0  0  0  0  0  0  0  0  0  0
    9.3980   -0.4420   25.5320 C   0  0  0  0  0  0  0  0  0  0  0  0
    8.4050   -1.4260   24.9680 C   0  0  0  0  0  0  0  0  0  0  0  0
    8.8730   -2.3800   24.1510 C   0  0  0  0  0  0  0  0  0  0  0  0
    8.0360   -3.3030   23.6160 F   0  0  0  0  0  0  0  0  0  0  0  0
   10.2840   -2.3970   23.8720 C   0  0  0  0  0  0  0  0  0  0  0  0
   11.1120   -1.4010   24.4560 C   0  0  0  0  0  0  0  0  0  0  0  0
   12.4270   -1.5100   24.1260 F   0  0  0  0  0  0  0  0  0  0  0  0
   10.5420    0.1020   23.7800 C   0  0  0  0  0  0  0  0  0  0  0  0
    9.5890    1.3420   24.8330 Br  0  0  0  0  0  0  0  0  0  0  0  0
    9.7980   -0.1110   22.7490 C   0  0  0  0  0  0  0  0  0  0  0  0
  1  2  2  0
  2  3  1  0
  3  4  1  0
  4  5  2  0
  5  6  1  0
  6  7  2  0
  7  8  1  0
  4  9  1  0
  8  9  2  0
  2 10  1  0
 10 11  1  0
 11 12  2  0
 12 13  1  0
 13 14  2  0
 14 15  1  0
 15 16  1  0
 16 17  2  0
 17 18  1  0
 18 19  2  0
 19 20  1  0
 19 21  1  0
 16 22  1  0
 21 22  2  0
 22 23  1  0
 14 24  1  0
 24 25  1  0
 11 26  1  0
 24 26  2  0
M  END
