pyridine_urea_10609
     RDKit          3D

 21 22  0  0  0  0  0  0  0  0999 V2000
   12.1040   -2.8820   24.4110 C   0  0  0  0  0  0  0  0  0  0  0  0
   11.5700   -2.2730   23.2370 O   0  0  0  0  0  0  0  0  0  0  0  0
   10.2700   -1.8850   23.3370 C   0  0  0  0  0  0  0  0  0  0  0  0
    9.4400   -2.5800   23.9230 O   0  0  0  0  0  0  0  0  0  0  0  0
    9.9200   -0.5400   22.6680 C   0  0  2  0  0  0  0  0  0  0  0  0
   10.3840    0.6930   23.4730 C   0  0  0  0  0  0  0  0  0  0  0  0
   11.5230    0.1810   24.2040 C   0  0  0  0  0  0  0  0  0  0  0  0
   12.6990   -0.4860   24.4590 C   0  0  0  0  0  0  0  0  0  0  0  0
   13.4970   -1.2000   23.6290 C   0  0  0  0  0  0  0  0  0  0  0  0
   13.1140   -1.3040   22.0620 S   0  0  0  0  0  0  0  0  0  0  0  0
   11.7690   -0.2990   22.7670 C   0  0  0  0  0  0  0  0  0  0  0  0
    8.4570   -0.4640   22.5850 N   0  0  0  0  0  0  0  0  0  0  0  0
    8.0650    0.1940   21.4850 C   0  0  0  0  0  0  0  0  0  0  0  0
    8.7230    1.3950   21.0460 O   0  0  0  0  0  0  0  0  0  0  0  0
    7.0070   -0.4350   20.9090 N   0  0  0  0  0  0  0  0  0  0  0  0
    6.3060    0.2030   19.9190 C   0  0  0  0  0  0  0  0  0  0  0  0
    5.0920    0.9050   20.1140 C   0  0  0  0  0  0  0  0  0  0  0  0
    4.3930    1.5940   19.0670 C   0  0  0  0  0  0  0  0  0  0  0  0
    5.1580    1.4460   17.7570 C   0  0  0  0  0  0  0  0  0  0  0  0
    6.3080    0.7560   17.6120 N   0  0  0  0  0  0  0  0  0  0  0  0
    6.8730    0.1390   18.6830 C   0  0  0  0  0  0  0  0  0  0  0  0
  1  2  1  0
  2  3  1  0
  3  4  2  0
  3  5  1  0
  5  6  1  1
  6  7  1  0
  7  8  1  0
  8  9  2  0
  9 10  1  0
  7 11  2  0
 10 11  1  0
  5 12  1  0
 12 13  1  0
 13 14  2  0
 13 15  1  0
 15 16  1  0
 16 17  2  0
 17 18  1  0
 18 19  2  0
 19 20  1  0
 16 21  1  0
 20 21  2  0
M  END
