pyridine_urea_215
     RDKit          3D

 21 23  0  0  0  0  0  0  0  0999 V2000
    8.8000    1.4290   21.2410 O   0  0  0  0  0  0  0  0  0  0  0  0
    8.5650    0.2260   21.3970 C   0  0  0  0  0  0  0  0  0  0  0  0
    7.3180   -0.3400   21.2110 N   0  0  0  0  0  0  0  0  0  0  0  0
    6.5820    0.1800   20.0830 C   0  0  0  0  0  0  0  0  0  0  0  0
    5.3190    0.9600   20.4200 C   0  0  0  0  0  0  0  0  0  0  0  0
    4.6020    1.5050   19.2370 C   0  0  0  0  0  0  0  0  0  0  0  0
    5.1250    1.2610   17.9830 C   0  0  0  0  0  0  0  0  0  0  0  0
    6.2390    0.5560   17.7320 N   0  0  0  0  0  0  0  0  0  0  0  0
    6.9330    0.0360   18.7610 C   0  0  0  0  0  0  0  0  0  0  0  0
    9.5250   -0.6970   21.7100 N   0  0  0  0  0  0  0  0  0  0  0  0
   10.1360   -0.9040   23.0520 C   0  0  2  0  0  0  0  0  0  0  0  0
    9.6850   -0.1510   24.0160 C   0  0  0  0  0  0  0  0  0  0  0  0
   11.1000    0.0710   23.8860 C   0  0  1  0  0  0  0  0  0  0  0  0
   12.0450   -0.7620   24.4600 C   0  0  0  0  0  0  0  0  0  0  0  0
   11.9230   -1.0010   23.1500 C   0  0  0  0  0  0  0  0  0  0  0  0
   13.1350   -2.1740   23.4310 Cl  0  0  0  0  0  0  0  0  0  0  0  0
   12.1190   -1.5370   21.9520 C   0  0  0  0  0  0  0  0  0  0  0  0
   13.1090   -2.5910   21.7000 C   0  0  0  0  0  0  0  0  0  0  0  0
   13.4850   -2.6020   23.1650 C   0  0  0  0  0  0  0  0  0  0  0  0
   13.0260   -1.8140   24.3900 C   0  0  0  0  0  0  0  0  0  0  0  0
   13.8840   -2.4050   25.7670 Cl  0  0  0  0  0  0  0  0  0  0  0  0
  1  2  2  0
  2  3  1  0
  3  4  1  0
  4  5  2  0
  5  6  1  0
  6  7  2  0
  7  8  1  0
  4  9  1  0
  8  9  2  0
  2 10  1  0
 11 10  1  6
 11 12  1  0
 11 13  1  0
 12 13  1  0
 13 14  1  1
 14 15  2  0
 15 16  1  0
 15 17  1  0
 17 18  2  0
 18 19  1  0
 14 20  1  0
 19 20  2  0
 20 21  1  0
M  END
