pyridine_urea_6012
     RDKit          3D

 25 27  0  0  0  0  0  0  0  0999 V2000
   13.2740    0.7360   22.9130 C   0  0  0  0  0  0  0  0  0  0  0  0
   12.6510    2.0960   23.0540 C   0  0  0  0  0  0  0  0  0  0  0  0
   13.3540    3.2830   22.7010 C   0  0  0  0  0  0  0  0  0  0  0  0
   12.8700    4.5930   22.7840 C   0  0  0  0  0  0  0  0  0  0  0  0
   11.5940    4.8340   23.2430 C   0  0  0  0  0  0  0  0  0  0  0  0
   10.7920    3.6530   23.6330 C   0  0  0  0  0  0  0  0  0  0  0  0
   11.3700    2.2470   23.5280 C   0  0  0  0  0  0  0  0  0  0  0  0
   10.4890    1.2600   23.9100 N   0  0  0  0  0  0  0  0  0  0  0  0
   10.9650    0.8740   22.6380 N   0  0  0  0  0  0  0  0  0  0  0  0
   10.4170   -0.2320   22.1520 C   0  0  0  0  0  0  0  0  0  0  0  0
    9.5630   -0.7250   22.9350 C   0  0  0  0  0  0  0  0  0  0  0  0
    8.8660   -1.7480   22.6040 N   0  0  0  0  0  0  0  0  0  0  0  0
    8.2220   -0.8990   21.6210 C   0  0  0  0  0  0  0  0  0  0  0  0
    8.7790    0.1380   21.2570 O   0  0  0  0  0  0  0  0  0  0  0  0
    6.9760   -1.2150   21.1150 N   0  0  0  0  0  0  0  0  0  0  0  0
    6.4410   -0.3950   20.0140 C   0  0  0  0  0  0  0  0  0  0  0  0
    5.2720    0.2660   20.3540 C   0  0  0  0  0  0  0  0  0  0  0  0
    4.6810    1.0740   19.3990 C   0  0  0  0  0  0  0  0  0  0  0  0
    5.2320    1.2300   18.1350 C   0  0  0  0  0  0  0  0  0  0  0  0
    6.3720    0.5870   17.8040 N   0  0  0  0  0  0  0  0  0  0  0  0
    6.9530   -0.2120   18.7430 C   0  0  0  0  0  0  0  0  0  0  0  0
    9.5650    0.0550   24.0670 C   0  0  0  0  0  0  0  0  0  0  0  0
    8.7630   -0.2110   25.1930 C   0  0  0  0  0  0  0  0  0  0  0  0
    7.8040    0.7480   25.3410 F   0  0  0  0  0  0  0  0  0  0  0  0
    8.0250   -1.3430   25.0040 F   0  0  0  0  0  0  0  0  0  0  0  0
  1  2  1  0
  2  3  2  0
  3  4  1  0
  4  5  2  0
  5  6  1  0
  2  7  1  0
  6  7  2  0
  7  8  1  0
  8  9  1  0
  9 10  2  0
 10 11  1  0
 11 12  1  0
 12 13  1  0
 13 14  2  0
 13 15  1  0
 15 16  1  0
 16 17  2  0
 17 18  1  0
 18 19  2  0
 19 20  1  0
 16 21  1  0
 20 21  2  0
  8 22  1  0
 11 22  2  0
 22 23  1  0
 23 24  1  0
 23 25  1  0
M  END
