pyridine_urea_7920
     RDKit          3D

 25 27  0  0  0  0  0  0  0  0999 V2000
    8.7960    0.6780   21.2300 O   0  0  0  0  0  0  0  0  0  0  0  0
    8.1270   -0.2500   21.6580 C   0  0  0  0  0  0  0  0  0  0  0  0
    8.3000   -0.9180   22.8430 N   0  0  0  0  0  0  0  0  0  0  0  0
    7.3220   -1.0680   23.8470 C   0  0  0  0  0  0  0  0  0  0  0  0
    7.1430   -0.0170   24.7540 C   0  0  0  0  0  0  0  0  0  0  0  0
    7.3520    1.3070   24.3170 C   0  0  0  0  0  0  0  0  0  0  0  0
    8.6970    1.5620   24.0830 C   0  0  0  0  0  0  0  0  0  0  0  0
    9.6070    0.7410   24.6160 N   0  0  0  0  0  0  0  0  0  0  0  0
   10.8110    0.6090   23.9820 C   0  0  0  0  0  0  0  0  0  0  0  0
   11.6830   -0.4980   24.1000 C   0  0  0  0  0  0  0  0  0  0  0  0
   12.6660   -0.8030   25.1970 C   0  0  0  0  0  0  0  0  0  0  0  0
   13.4450   -1.9370   25.1100 C   0  0  0  0  0  0  0  0  0  0  0  0
   13.3160   -2.7580   24.0170 C   0  0  0  0  0  0  0  0  0  0  0  0
   12.4020   -2.4910   23.0000 C   0  0  0  0  0  0  0  0  0  0  0  0
   11.5830   -1.3780   23.0400 C   0  0  0  0  0  0  0  0  0  0  0  0
   10.4900   -1.1620   21.7680 Cl  0  0  0  0  0  0  0  0  0  0  0  0
    9.3760   -0.3170   25.4740 C   0  0  0  0  0  0  0  0  0  0  0  0
    8.0660   -0.3050   25.9690 C   0  0  0  0  0  0  0  0  0  0  0  0
    7.0490   -0.7540   20.9720 N   0  0  0  0  0  0  0  0  0  0  0  0
    6.3510   -0.0250   20.0140 C   0  0  0  0  0  0  0  0  0  0  0  0
    5.1620    0.6810   20.2080 C   0  0  0  0  0  0  0  0  0  0  0  0
    4.5800    1.3840   19.1600 C   0  0  0  0  0  0  0  0  0  0  0  0
    5.1890    1.3780   17.9170 C   0  0  0  0  0  0  0  0  0  0  0  0
    6.3210    0.7320   17.6170 N   0  0  0  0  0  0  0  0  0  0  0  0
    6.8740    0.0250   18.7390 C   0  0  0  0  0  0  0  0  0  0  0  0
  1  2  2  0
  2  3  1  0
  3  4  1  0
  4  5  1  0
  5  6  1  0
  6  7  1  0
  7  8  1  0
  8  9  1  0
  9 10  1  0
 10 11  2  0
 11 12  1  0
 12 13  2  0
 13 14  1  0
 10 15  1  0
 14 15  2  0
 15 16  1  0
  8 17  1  0
  5 18  1  0
 17 18  1  0
  2 19  1  0
 19 20  1  0
 20 21  2  0
 21 22  1  0
 22 23  2  0
 23 24  1  0
 20 25  1  0
 24 25  2  0
M  END
