pyridine_urea_3978
     RDKit          3D

 27 30  0  0  0  0  0  0  0  0999 V2000
    8.9480    0.7440   21.3820 O   0  0  0  0  0  0  0  0  0  0  0  0
    8.3700   -0.3100   21.6170 C   0  0  0  0  0  0  0  0  0  0  0  0
    7.1590   -0.6880   21.0890 N   0  0  0  0  0  0  0  0  0  0  0  0
    6.4980   -0.0260   20.0440 C   0  0  0  0  0  0  0  0  0  0  0  0
    5.3280    0.6910   20.3100 C   0  0  0  0  0  0  0  0  0  0  0  0
    4.6670    1.3660   19.2780 C   0  0  0  0  0  0  0  0  0  0  0  0
    5.2080    1.2960   18.0100 C   0  0  0  0  0  0  0  0  0  0  0  0
    6.3240    0.6110   17.7310 N   0  0  0  0  0  0  0  0  0  0  0  0
    6.9420   -0.0340   18.7410 C   0  0  0  0  0  0  0  0  0  0  0  0
    8.8970   -1.2520   22.4710 N   0  0  0  0  0  0  0  0  0  0  0  0
   10.1430   -0.9790   23.1850 C   0  0  0  0  0  0  0  0  0  0  0  0
   10.2510   -2.1780   24.1670 C   0  0  0  0  0  0  0  0  0  0  0  0
   11.3920   -2.5950   24.8200 N   0  0  0  0  0  0  0  0  0  0  0  0
   10.9930   -3.7170   25.5990 O   0  0  0  0  0  0  0  0  0  0  0  0
    9.6580   -3.8700   25.3480 C   0  0  0  0  0  0  0  0  0  0  0  0
    8.7480   -4.8010   25.8380 C   0  0  1  0  0  0  0  0  0  0  0  0
    9.2420   -5.4160   26.9890 C   0  0  0  0  0  0  0  0  0  0  0  0
    8.4150   -5.1460   28.0500 C   0  0  0  0  0  0  0  0  0  0  0  0
    7.2880   -4.5590   27.5510 C   0  0  0  0  0  0  0  0  0  0  0  0
    7.6280   -4.1940   26.2180 O   0  0  0  0  0  0  0  0  0  0  0  0
    9.2100   -2.9560   24.4950 N   0  0  0  0  0  0  0  0  0  0  0  0
   10.1410    0.2680   23.8370 C   0  0  0  0  0  0  0  0  0  0  0  0
   11.5650    0.7300   24.1570 C   0  0  0  0  0  0  0  0  0  0  0  0
   12.4610    0.8250   23.1180 C   0  0  0  0  0  0  0  0  0  0  0  0
   13.1970   -0.3330   22.9780 C   0  0  0  0  0  0  0  0  0  0  0  0
   12.3960   -1.3740   22.5750 C   0  0  0  0  0  0  0  0  0  0  0  0
   11.1440   -0.9020   22.2180 C   0  0  0  0  0  0  0  0  0  0  0  0
  1  2  2  0
  2  3  1  0
  3  4  1  0
  4  5  2  0
  5  6  1  0
  6  7  2  0
  7  8  1  0
  4  9  1  0
  8  9  2  0
  2 10  1  0
 11 10  1  0
 11 12  1  0
 12 13  2  0
 13 14  1  0
 14 15  1  0
 16 15  1  1
 16 17  1  0
 17 18  1  0
 18 19  1  0
 16 20  1  0
 19 20  1  0
 12 21  1  0
 15 21  2  0
 11 22  1  0
 22 23  1  0
 23 24  1  0
 24 25  1  0
 25 26  1  0
 11 27  1  0
 26 27  1  0
M  END
