pyridine_urea_7098
     RDKit          3D

 20 21  0  0  0  0  0  0  0  0999 V2000
    7.6290   -0.1200   25.5790 N   0  0  0  0  0  0  0  0  0  0  0  0
    8.9670    0.1510   25.5280 C   0  0  0  0  0  0  0  0  0  0  0  0
    9.7080   -0.1930   26.4390 O   0  0  0  0  0  0  0  0  0  0  0  0
    9.4930    0.8930   24.3000 C   0  0  0  0  0  0  0  0  0  0  0  0
   10.5770    0.3300   23.6370 C   0  0  0  0  0  0  0  0  0  0  0  0
   11.8710    0.7880   23.8650 C   0  0  0  0  0  0  0  0  0  0  0  0
   12.9270    0.2010   23.1970 C   0  0  0  0  0  0  0  0  0  0  0  0
   12.7960   -0.8320   22.3080 C   0  0  0  0  0  0  0  0  0  0  0  0
   11.3880   -1.3460   22.0370 C   0  0  0  0  0  0  0  0  0  0  0  0
   10.3580   -0.7150   22.7240 C   0  0  0  0  0  0  0  0  0  0  0  0
    9.0190   -1.1830   22.4450 N   0  0  0  0  0  0  0  0  0  0  0  0
    8.4070   -0.1950   21.5180 C   0  0  0  0  0  0  0  0  0  0  0  0
    8.9510    1.1220   21.2120 O   0  0  0  0  0  0  0  0  0  0  0  0
    7.2380   -0.6810   20.9940 N   0  0  0  0  0  0  0  0  0  0  0  0
    6.4670    0.0120   20.0580 C   0  0  0  0  0  0  0  0  0  0  0  0
    5.2910    0.7130   20.3270 C   0  0  0  0  0  0  0  0  0  0  0  0
    4.6090    1.4060   19.2090 C   0  0  0  0  0  0  0  0  0  0  0  0
    5.1620    1.3330   17.9390 C   0  0  0  0  0  0  0  0  0  0  0  0
    6.2890    0.6550   17.6700 N   0  0  0  0  0  0  0  0  0  0  0  0
    6.9140    0.0070   18.7480 C   0  0  0  0  0  0  0  0  0  0  0  0
  1  2  1  0
  2  3  2  0
  2  4  1  0
  4  5  1  0
  5  6  2  0
  6  7  1  0
  7  8  2  0
  8  9  1  0
  5 10  1  0
  9 10  2  0
 10 11  1  0
 11 12  1  0
 12 13  2  0
 12 14  1  0
 14 15  1  0
 15 16  2  0
 16 17  1  0
 17 18  2  0
 18 19  1  0
 15 20  1  0
 19 20  2  0
M  END
