pyridine_urea_3791
     RDKit          3D

 21 22  0  0  0  0  0  0  0  0999 V2000
    8.9560    0.5430   21.4270 O   0  0  0  0  0  0  0  0  0  0  0  0
    8.4070   -0.5460   21.4370 C   0  0  0  0  0  0  0  0  0  0  0  0
    9.0370   -1.7200   21.8150 N   0  0  0  0  0  0  0  0  0  0  0  0
   10.0360   -1.7530   22.8720 C   0  0  0  0  0  0  0  0  0  0  0  0
   11.4580   -1.8640   22.3300 C   0  0  0  0  0  0  0  0  0  0  0  0
   12.1560   -0.5440   22.4370 C   0  0  2  0  0  0  0  0  0  0  0  0
   12.6570   -0.2870   23.7880 C   0  0  0  0  0  0  0  0  0  0  0  0
   11.6290    0.6690   24.2900 C   0  0  0  0  0  0  0  0  0  0  0  0
   10.5870    0.8070   23.2040 C   0  0  1  0  0  0  0  0  0  0  0  0
   10.3100    2.1860   23.1170 C   0  0  0  0  0  0  0  0  0  0  0  0
    9.5420    2.5530   24.1810 F   0  0  0  0  0  0  0  0  0  0  0  0
   11.4420    2.9360   23.1890 F   0  0  0  0  0  0  0  0  0  0  0  0
    9.6300    2.5290   22.0050 F   0  0  0  0  0  0  0  0  0  0  0  0
   11.1340    0.4270   22.1630 O   0  0  0  0  0  0  0  0  0  0  0  0
    7.1020   -0.7830   21.0560 N   0  0  0  0  0  0  0  0  0  0  0  0
    6.3980   -0.0580   20.0770 C   0  0  0  0  0  0  0  0  0  0  0  0
    5.2260    0.6510   20.2710 C   0  0  0  0  0  0  0  0  0  0  0  0
    4.6340    1.3360   19.2240 C   0  0  0  0  0  0  0  0  0  0  0  0
    5.2230    1.3100   17.9760 C   0  0  0  0  0  0  0  0  0  0  0  0
    6.3580    0.6310   17.7430 N   0  0  0  0  0  0  0  0  0  0  0  0
    6.9160   -0.0360   18.7870 C   0  0  0  0  0  0  0  0  0  0  0  0
  1  2  2  0
  2  3  1  0
  3  4  1  0
  4  5  1  0
  6  5  1  1
  6  7  1  0
  7  8  1  0
  8  9  1  0
  9 10  1  6
 10 11  1  0
 10 12  1  0
 10 13  1  0
  6 14  1  0
  9 14  1  0
  2 15  1  0
 15 16  1  0
 16 17  2  0
 17 18  1  0
 18 19  2  0
 19 20  1  0
 16 21  1  0
 20 21  2  0
M  END
