pyridine_urea_2426
     RDKit          3D

 25 27  0  0  0  0  0  0  0  0999 V2000
    8.7720    1.5460   20.9610 O   0  0  0  0  0  0  0  0  0  0  0  0
    8.2540    0.5670   21.4770 C   0  0  0  0  0  0  0  0  0  0  0  0
    7.2360   -0.2010   20.9920 N   0  0  0  0  0  0  0  0  0  0  0  0
    6.5080    0.2950   19.9450 C   0  0  0  0  0  0  0  0  0  0  0  0
    5.3330    0.9910   20.2120 C   0  0  0  0  0  0  0  0  0  0  0  0
    4.6080    1.5260   19.1610 C   0  0  0  0  0  0  0  0  0  0  0  0
    5.1000    1.3350   17.8900 C   0  0  0  0  0  0  0  0  0  0  0  0
    6.2180    0.6580   17.6160 N   0  0  0  0  0  0  0  0  0  0  0  0
    6.8960    0.1520   18.6450 C   0  0  0  0  0  0  0  0  0  0  0  0
    8.6600    0.1320   22.6720 N   0  0  0  0  0  0  0  0  0  0  0  0
    9.7870   -0.7610   22.7110 C   0  0  2  0  0  0  0  0  0  0  0  0
    9.7410   -1.2980   24.0590 C   0  0  0  0  0  0  0  0  0  0  0  0
   11.0390   -1.5130   24.3420 C   0  0  0  0  0  0  0  0  0  0  0  0
   11.6670   -2.4580   23.5640 C   0  0  0  0  0  0  0  0  0  0  0  0
   12.9630   -2.7990   23.7080 C   0  0  0  0  0  0  0  0  0  0  0  0
   13.6280   -2.1630   24.6890 C   0  0  0  0  0  0  0  0  0  0  0  0
   12.9810   -1.2120   25.4340 C   0  0  0  0  0  0  0  0  0  0  0  0
   11.6830   -0.8700   25.2760 N   0  0  0  0  0  0  0  0  0  0  0  0
   11.2400   -0.2330   22.6940 C   0  0  0  0  0  0  0  0  0  0  0  0
   12.5090    0.4160   22.6950 C   0  0  0  0  0  0  0  0  0  0  0  0
   12.8310    1.7520   22.7910 C   0  0  0  0  0  0  0  0  0  0  0  0
   11.8880    2.7040   22.8960 C   0  0  0  0  0  0  0  0  0  0  0  0
   12.3420    4.5490   22.9870 Br  0  0  0  0  0  0  0  0  0  0  0  0
   10.6200    2.2690   22.9210 C   0  0  0  0  0  0  0  0  0  0  0  0
   10.3530    0.8950   22.8280 C   0  0  0  0  0  0  0  0  0  0  0  0
  1  2  2  0
  2  3  1  0
  3  4  1  0
  4  5  2  0
  5  6  1  0
  6  7  2  0
  7  8  1  0
  4  9  1  0
  8  9  2  0
  2 10  1  0
 10 11  1  0
 11 12  1  1
 12 13  1  0
 13 14  2  0
 14 15  1  0
 15 16  2  0
 16 17  1  0
 13 18  1  0
 17 18  2  0
 11 19  1  0
 19 20  2  0
 20 21  1  0
 21 22  2  0
 22 23  1  0
 22 24  1  0
 19 25  1  0
 24 25  2  0
M  END
