pyridine_urea_8777
     RDKit          3D

 20 22  0  0  0  0  0  0  0  0999 V2000
   10.0870    0.0970   25.4350 C   0  0  0  0  0  0  0  0  0  0  0  0
    9.7350   -0.7420   24.2800 C   0  0  0  0  0  0  0  0  0  0  0  0
   10.0870   -0.2080   23.0770 C   0  0  2  0  0  0  0  0  0  0  0  0
    9.2910   -0.7770   22.0020 N   0  0  0  0  0  0  0  0  0  0  0  0
    8.4610    0.1110   21.3680 C   0  0  0  0  0  0  0  0  0  0  0  0
    8.8050    1.2650   21.0930 O   0  0  0  0  0  0  0  0  0  0  0  0
    7.1490   -0.4570   21.0650 N   0  0  0  0  0  0  0  0  0  0  0  0
    6.4520    0.1200   20.0450 C   0  0  0  0  0  0  0  0  0  0  0  0
    5.1530    0.8450   20.3490 C   0  0  0  0  0  0  0  0  0  0  0  0
    4.5040    1.4380   19.2720 C   0  0  0  0  0  0  0  0  0  0  0  0
    5.1610    1.3020   17.8930 C   0  0  0  0  0  0  0  0  0  0  0  0
    6.3090    0.6380   17.6910 N   0  0  0  0  0  0  0  0  0  0  0  0
    6.9170    0.0680   18.7480 C   0  0  0  0  0  0  0  0  0  0  0  0
   11.4380   -0.0340   22.7540 C   0  0  2  0  0  0  0  0  0  0  0  0
   11.0140   -1.2760   22.2980 C   0  0  0  0  0  0  0  0  0  0  0  0
   12.0810   -2.1100   22.7110 C   0  0  2  0  0  0  0  0  0  0  0  0
   12.0350   -2.3690   24.0910 C   0  0  0  0  0  0  0  0  0  0  0  0
   12.3290   -1.1160   24.6070 C   0  0  0  0  0  0  0  0  0  0  0  0
   12.5640   -0.3410   23.4850 C   0  0  1  0  0  0  0  0  0  0  0  0
   13.1670   -1.2270   22.6560 C   0  0  0  0  0  0  0  0  0  0  0  0
  1  2  1  0
  3  2  1  1
  3  4  1  0
  4  5  1  0
  5  6  2  0
  5  7  1  0
  7  8  1  0
  8  9  2  0
  9 10  1  0
 10 11  2  0
 11 12  1  0
  8 13  1  0
 12 13  2  0
  3 14  1  0
 14 15  1  6
 16 15  1  1
 16 17  1  0
 17 18  1  0
 14 19  1  0
 19 18  1  1
 16 20  1  0
 19 20  1  0
M  END
