pyridine_urea_11120
     RDKit          3D

 18 19  0  0  0  0  0  0  0  0999 V2000
    8.8170    0.5410   21.4050 O   0  0  0  0  0  0  0  0  0  0  0  0
    8.1270   -0.4430   21.6580 C   0  0  0  0  0  0  0  0  0  0  0  0
    8.4350   -1.4090   22.5790 N   0  0  0  0  0  0  0  0  0  0  0  0
    9.4340   -1.1600   23.5770 C   0  0  0  0  0  0  0  0  0  0  0  0
   10.7940   -1.1820   22.9540 C   0  0  0  0  0  0  0  0  0  0  0  0
   10.3590    0.0090   23.6950 N   0  0  0  0  0  0  0  0  0  0  0  0
   10.7560    1.2280   24.0740 C   0  0  0  0  0  0  0  0  0  0  0  0
   11.9680    1.3890   23.6130 C   0  0  0  0  0  0  0  0  0  0  0  0
   12.8160    0.4790   22.8270 C   0  0  0  0  0  0  0  0  0  0  0  0
   12.2830   -0.8450   22.4420 C   0  0  0  0  0  0  0  0  0  0  0  0
   13.1250   -2.1410   21.4300 Br  0  0  0  0  0  0  0  0  0  0  0  0
    6.9280   -0.7230   21.0570 N   0  0  0  0  0  0  0  0  0  0  0  0
    6.3880   -0.0250   19.9870 C   0  0  0  0  0  0  0  0  0  0  0  0
    5.1390    0.7690   20.1780 C   0  0  0  0  0  0  0  0  0  0  0  0
    4.5700    1.4900   19.1380 C   0  0  0  0  0  0  0  0  0  0  0  0
    5.1540    1.4980   17.8660 C   0  0  0  0  0  0  0  0  0  0  0  0
    6.3910    0.7080   17.6710 N   0  0  0  0  0  0  0  0  0  0  0  0
    6.9100    0.0090   18.7330 C   0  0  0  0  0  0  0  0  0  0  0  0
  1  2  2  0
  2  3  1  0
  3  4  1  0
  4  5  1  0
  5  6  2  0
  6  7  1  0
  7  8  2  0
  8  9  1  0
  5 10  1  0
  9 10  2  0
 10 11  1  0
  2 12  1  0
 12 13  1  0
 13 14  2  0
 14 15  1  0
 15 16  2  0
 16 17  1  0
 13 18  1  0
 17 18  2  0
M  END
