pyridine_urea_1867
     RDKit          3D

 16 16  0  0  0  0  0  0  0  0999 V2000
    7.0730   -1.9920   25.2160 C   0  0  0  0  0  0  0  0  0  0  0  0
    8.2350   -1.9680   24.2590 C   0  0  0  0  0  0  0  0  0  0  0  0
    8.7070   -3.2790   23.8810 O   0  0  0  0  0  0  0  0  0  0  0  0
    8.6060   -0.8400   23.9360 O   0  0  0  0  0  0  0  0  0  0  0  0
   10.0170   -0.7250   23.7250 C   0  0  0  0  0  0  0  0  0  0  0  0
   10.3240   -1.2210   22.4850 C   0  0  0  0  0  0  0  0  0  0  0  0
    9.3520   -1.1770   21.4710 N   0  0  0  0  0  0  0  0  0  0  0  0
    8.4350   -0.1580   21.2830 C   0  0  0  0  0  0  0  0  0  0  0  0
    8.7690    1.0160   21.2920 O   0  0  0  0  0  0  0  0  0  0  0  0
    7.1880   -0.6300   21.0710 N   0  0  0  0  0  0  0  0  0  0  0  0
    6.5200   -0.0020   20.0720 C   0  0  0  0  0  0  0  0  0  0  0  0
    5.3530    0.7040   20.3790 C   0  0  0  0  0  0  0  0  0  0  0  0
    4.6200    1.4200   19.2310 C   0  0  0  0  0  0  0  0  0  0  0  0
    5.1760    1.3100   17.9760 C   0  0  0  0  0  0  0  0  0  0  0  0
    6.2960    0.6160   17.7330 N   0  0  0  0  0  0  0  0  0  0  0  0
    6.9260   -0.0110   18.7570 C   0  0  0  0  0  0  0  0  0  0  0  0
  1  2  1  0
  2  3  2  0
  2  4  1  0
  4  5  1  0
  5  6  1  0
  6  7  1  0
  7  8  1  0
  8  9  2  0
  8 10  1  0
 10 11  1  0
 11 12  2  0
 12 13  1  0
 13 14  2  0
 14 15  1  0
 11 16  1  0
 15 16  2  0
M  END
