pyridine_urea_9703
     RDKit          3D

 29 32  0  0  0  0  0  0  0  0999 V2000
    9.0940    0.5160   21.4790 O   0  0  0  0  0  0  0  0  0  0  0  0
    8.2070   -0.2840   21.2080 C   0  0  0  0  0  0  0  0  0  0  0  0
    8.4180   -1.5740   20.8580 N   0  0  0  0  0  0  0  0  0  0  0  0
    8.5140   -2.5210   21.9120 C   0  0  0  0  0  0  0  0  0  0  0  0
    9.5180   -1.9740   22.7650 C   0  0  0  0  0  0  0  0  0  0  0  0
   10.1100   -2.4220   21.4890 C   0  0  0  0  0  0  0  0  0  0  0  0
   11.5390   -2.2160   21.3110 C   0  0  0  0  0  0  0  0  0  0  0  0
   12.7410   -1.7550   21.8190 C   0  0  0  0  0  0  0  0  0  0  0  0
   12.1480   -1.3340   23.0820 C   0  0  0  0  0  0  0  0  0  0  0  0
   10.6210   -1.5090   23.3730 C   0  0  0  0  0  0  0  0  0  0  0  0
    9.6930   -1.2150   24.4480 C   0  0  0  0  0  0  0  0  0  0  0  0
    9.6890   -1.2490   25.7880 C   0  0  0  0  0  0  0  0  0  0  0  0
    8.5860   -0.8910   26.5580 C   0  0  0  0  0  0  0  0  0  0  0  0
    7.3570   -0.4520   26.0380 C   0  0  0  0  0  0  0  0  0  0  0  0
    6.2000   -0.0680   26.8990 C   0  0  0  0  0  0  0  0  0  0  0  0
    6.6040    0.9950   27.6780 N   0  0  0  0  0  0  0  0  0  0  0  0
    5.9800    2.2580   27.8120 C   0  0  0  0  0  0  0  0  0  0  0  0
    6.6790    3.0160   28.6600 N   0  0  0  0  0  0  0  0  0  0  0  0
    7.7200    2.2740   29.0610 C   0  0  0  0  0  0  0  0  0  0  0  0
    7.7260    0.9290   28.4500 N   0  0  0  0  0  0  0  0  0  0  0  0
    7.3060   -0.4010   24.6410 C   0  0  0  0  0  0  0  0  0  0  0  0
    8.3670   -0.7460   23.8310 C   0  0  0  0  0  0  0  0  0  0  0  0
    6.8750   -0.0720   21.1680 N   0  0  0  0  0  0  0  0  0  0  0  0
    6.3070    0.4060   20.0660 C   0  0  0  0  0  0  0  0  0  0  0  0
    5.1420    1.1360   20.1880 C   0  0  0  0  0  0  0  0  0  0  0  0
    4.5560    1.6530   19.0530 C   0  0  0  0  0  0  0  0  0  0  0  0
    5.1600    1.4200   17.8290 C   0  0  0  0  0  0  0  0  0  0  0  0
    6.2730    0.7130   17.6870 N   0  0  0  0  0  0  0  0  0  0  0  0
    6.8270    0.2160   18.8030 C   0  0  0  0  0  0  0  0  0  0  0  0
  1  2  2  0
  2  3  1  0
  3  4  1  0
  4  5  1  0
  5  6  2  0
  6  7  1  0
  7  8  2  0
  8  9  1  0
  5 10  1  0
  9 10  2  0
 10 11  1  0
 11 12  2  0
 12 13  1  0
 13 14  2  0
 14 15  1  0
 15 16  1  0
 16 17  1  0
 17 18  2  0
 18 19  1  0
 16 20  1  0
 19 20  2  0
 14 21  1  0
 11 22  1  0
 21 22  2  0
  2 23  1  0
 23 24  1  0
 24 25  2  0
 25 26  1  0
 26 27  2  0
 27 28  1  0
 24 29  1  0
 28 29  2  0
M  END
