pyridine_urea_13485
     RDKit          3D

 24 26  0  0  0  0  0  0  0  0999 V2000
    9.0440    1.0760   21.1580 O   0  0  0  0  0  0  0  0  0  0  0  0
    8.3580    0.1160   21.5300 C   0  0  0  0  0  0  0  0  0  0  0  0
    7.3560   -0.5230   20.8560 N   0  0  0  0  0  0  0  0  0  0  0  0
    6.5120    0.1290   19.9690 C   0  0  0  0  0  0  0  0  0  0  0  0
    5.1290    0.6920   20.3110 C   0  0  0  0  0  0  0  0  0  0  0  0
    4.4420    1.3790   19.1350 C   0  0  0  0  0  0  0  0  0  0  0  0
    5.1830    1.4170   17.8340 C   0  0  0  0  0  0  0  0  0  0  0  0
    6.3970    0.8740   17.6560 N   0  0  0  0  0  0  0  0  0  0  0  0
    6.9990    0.2700   18.6900 C   0  0  0  0  0  0  0  0  0  0  0  0
    8.4940   -0.4680   22.7570 N   0  0  0  0  0  0  0  0  0  0  0  0
    9.4160   -1.5270   22.9910 C   0  0  1  0  0  0  0  0  0  0  0  0
   10.4760   -1.6950   22.2500 C   0  0  0  0  0  0  0  0  0  0  0  0
   10.9200   -1.0350   23.3840 C   0  0  1  0  0  0  0  0  0  0  0  0
   11.2950    0.2500   23.1930 C   0  0  0  0  0  0  0  0  0  0  0  0
   10.5540    1.3740   23.0930 C   0  0  0  0  0  0  0  0  0  0  0  0
   11.3090    2.5760   22.9100 C   0  0  0  0  0  0  0  0  0  0  0  0
   12.9010    2.4310   22.8410 C   0  0  0  0  0  0  0  0  0  0  0  0
   13.4820    3.4930   22.7150 O   0  0  0  0  0  0  0  0  0  0  0  0
   12.8150    4.5500   22.0160 C   0  0  0  0  0  0  0  0  0  0  0  0
   13.6050    5.6720   21.9220 F   0  0  0  0  0  0  0  0  0  0  0  0
   12.5830    4.1100   20.7890 F   0  0  0  0  0  0  0  0  0  0  0  0
   11.6540    4.9260   22.6140 F   0  0  0  0  0  0  0  0  0  0  0  0
   13.6970    1.0590   22.9320 C   0  0  0  0  0  0  0  0  0  0  0  0
   12.5760    0.4500   23.0810 C   0  0  0  0  0  0  0  0  0  0  0  0
  1  2  2  0
  2  3  1  0
  3  4  1  0
  4  5  2  0
  5  6  1  0
  6  7  2  0
  7  8  1  0
  4  9  1  0
  8  9  2  0
  2 10  1  0
 11 10  1  6
 11 12  1  0
 11 13  1  0
 12 13  1  0
 13 14  1  6
 14 15  2  0
 15 16  1  0
 16 17  2  0
 17 18  1  0
 18 19  1  0
 19 20  1  0
 19 21  1  0
 19 22  1  0
 17 23  1  0
 14 24  1  0
 23 24  2  0
M  END
