pyridine_urea_50
     RDKit          3D

 19 20  0  0  0  0  0  0  0  0999 V2000
   12.9670   -2.2240   21.8580 C   0  0  0  0  0  0  0  0  0  0  0  0
   13.6440   -1.8930   23.0630 O   0  0  0  0  0  0  0  0  0  0  0  0
   12.7970   -1.4030   24.0980 C   0  0  0  0  0  0  0  0  0  0  0  0
   12.7770   -1.8490   25.2320 O   0  0  0  0  0  0  0  0  0  0  0  0
   11.9320   -0.2520   23.5730 C   0  0  1  0  0  0  0  0  0  0  0  0
   12.7160    0.9440   23.1960 C   0  0  0  0  0  0  0  0  0  0  0  0
   10.9880   -0.6250   22.3980 C   0  0  0  0  0  0  0  0  0  0  0  0
    9.9040   -0.9450   23.4220 C   0  0  2  0  0  0  0  0  0  0  0  0
    8.5500   -0.5460   22.9840 N   0  0  0  0  0  0  0  0  0  0  0  0
    8.3020    0.0440   21.7540 C   0  0  0  0  0  0  0  0  0  0  0  0
    9.0230    1.1900   21.2550 O   0  0  0  0  0  0  0  0  0  0  0  0
    7.2050   -0.6470   21.1000 N   0  0  0  0  0  0  0  0  0  0  0  0
    6.5580    0.0180   19.9750 C   0  0  0  0  0  0  0  0  0  0  0  0
    5.3190    0.8030   20.3130 C   0  0  0  0  0  0  0  0  0  0  0  0
    4.6830    1.4640   19.2710 C   0  0  0  0  0  0  0  0  0  0  0  0
    5.1260    1.4380   17.9600 C   0  0  0  0  0  0  0  0  0  0  0  0
    6.3200    0.6610   17.6760 N   0  0  0  0  0  0  0  0  0  0  0  0
    6.9740   -0.0060   18.6750 C   0  0  0  0  0  0  0  0  0  0  0  0
   10.6200    0.0490   24.3560 C   0  0  0  0  0  0  0  0  0  0  0  0
  1  2  1  0
  2  3  1  0
  3  4  2  0
  5  3  1  0
  5  6  1  6
  5  7  1  0
  7  8  1  0
  8  9  1  6
  9 10  1  0
 10 11  2  0
 10 12  1  0
 12 13  1  0
 13 14  2  0
 14 15  1  0
 15 16  2  0
 16 17  1  0
 13 18  1  0
 17 18  2  0
  5 19  1  0
  8 19  1  0
M  END
