pyridine_urea_12844
     RDKit          3D

 21 23  0  0  0  0  0  0  0  0999 V2000
   12.1760   -2.5120   23.3060 C   0  0  0  0  0  0  0  0  0  0  0  0
   11.9130   -0.9960   23.5390 C   0  0  1  0  0  0  0  0  0  0  0  0
   12.3750   -0.2620   22.5630 O   0  0  0  0  0  0  0  0  0  0  0  0
   12.3110    1.1060   22.8280 C   0  0  0  0  0  0  0  0  0  0  0  0
   13.2060    0.2780   22.4600 C   0  0  0  0  0  0  0  0  0  0  0  0
   12.2910   -0.7980   22.5950 C   0  0  0  0  0  0  0  0  0  0  0  0
   11.6620    0.3490   22.9200 F   0  0  0  0  0  0  0  0  0  0  0  0
   10.8760   -1.1510   22.9710 C   0  0  0  0  0  0  0  0  0  0  0  0
   10.0450    0.0020   23.3560 C   0  0  0  0  0  0  0  0  0  0  0  0
   10.9020    0.9570   23.2180 C   0  0  0  0  0  0  0  0  0  0  0  0
   10.6390   -0.4550   23.1350 C   0  0  1  0  0  0  0  0  0  0  0  0
    9.8540   -0.7940   21.9100 N   0  0  0  0  0  0  0  0  0  0  0  0
    8.8330    0.0580   21.4250 C   0  0  0  0  0  0  0  0  0  0  0  0
    9.0220    1.4180   21.2640 O   0  0  0  0  0  0  0  0  0  0  0  0
    7.6380   -0.5680   21.0880 N   0  0  0  0  0  0  0  0  0  0  0  0
    6.7990   -0.0140   20.0900 C   0  0  0  0  0  0  0  0  0  0  0  0
    5.5620    0.7570   20.4470 C   0  0  0  0  0  0  0  0  0  0  0  0
    4.7270    1.3320   19.5050 C   0  0  0  0  0  0  0  0  0  0  0  0
    5.1390    1.1340   18.1550 C   0  0  0  0  0  0  0  0  0  0  0  0
    6.2350    0.4440   17.7870 N   0  0  0  0  0  0  0  0  0  0  0  0
    7.0290   -0.1090   18.7380 C   0  0  0  0  0  0  0  0  0  0  0  0
  2  1  1  6
  2  3  1  0
  3  4  1  0
  4  5  2  0
  5  6  1  0
  6  7  1  0
  6  8  2  0
  8  9  1  0
  4 10  1  0
  9 10  2  0
  2 11  1  0
 10 11  1  0
 11 12  1  6
 12 13  1  0
 13 14  2  0
 13 15  1  0
 15 16  1  0
 16 17  2  0
 17 18  1  0
 18 19  2  0
 19 20  1  0
 16 21  1  0
 20 21  2  0
M  END
