pyridine_urea_6306
     RDKit          3D

 24 25  0  0  0  0  0  0  0  0999 V2000
   14.0970   -2.5940   25.9380 C   0  0  0  0  0  0  0  0  0  0  0  0
   13.4690   -2.8900   25.0030 C   0  0  0  0  0  0  0  0  0  0  0  0
   12.9800   -1.7110   24.3500 N   0  0  0  0  0  0  0  0  0  0  0  0
   13.2510   -1.7680   22.9370 C   0  0  0  0  0  0  0  0  0  0  0  0
   13.4270   -2.9310   22.1530 O   0  0  0  0  0  0  0  0  0  0  0  0
   13.3380   -0.4840   22.2180 C   0  0  0  0  0  0  0  0  0  0  0  0
   13.7120    0.6100   23.0470 O   0  0  0  0  0  0  0  0  0  0  0  0
   12.4320    0.5970   23.2680 C   0  0  0  0  0  0  0  0  0  0  0  0
   11.4400    1.4660   23.8620 C   0  0  0  0  0  0  0  0  0  0  0  0
   10.1050    0.9510   23.8400 C   0  0  0  0  0  0  0  0  0  0  0  0
    9.6910   -0.2450   23.3220 C   0  0  0  0  0  0  0  0  0  0  0  0
   10.7120   -1.2600   22.6490 C   0  0  0  0  0  0  0  0  0  0  0  0
    9.4290   -1.6640   22.6680 C   0  0  0  0  0  0  0  0  0  0  0  0
    8.7100   -1.4740   21.5640 N   0  0  0  0  0  0  0  0  0  0  0  0
    8.0910   -0.2810   21.2660 C   0  0  0  0  0  0  0  0  0  0  0  0
    8.7120    0.9990   21.2220 O   0  0  0  0  0  0  0  0  0  0  0  0
    6.7030   -0.5470   21.0040 N   0  0  0  0  0  0  0  0  0  0  0  0
    6.1250    0.1440   19.9910 C   0  0  0  0  0  0  0  0  0  0  0  0
    4.8240    0.8420   20.4160 C   0  0  0  0  0  0  0  0  0  0  0  0
    4.5070    1.4850   19.0850 C   0  0  0  0  0  0  0  0  0  0  0  0
    5.2450    1.4340   17.7960 C   0  0  0  0  0  0  0  0  0  0  0  0
    6.3550    0.7610   17.6510 N   0  0  0  0  0  0  0  0  0  0  0  0
    6.7440    0.1480   18.7520 C   0  0  0  0  0  0  0  0  0  0  0  0
   12.0500   -0.5710   22.7600 C   0  0  0  0  0  0  0  0  0  0  0  0
  1  2  1  0
  2  3  1  0
  3  4  1  0
  4  5  2  0
  4  6  1  0
  6  7  1  0
  7  8  1  0
  8  9  2  0
  9 10  1  0
 10 11  2  0
 11 12  1  0
 12 13  1  0
 13 14  1  0
 14 15  1  0
 15 16  2  0
 15 17  1  0
 17 18  1  0
 18 19  2  0
 19 20  1  0
 20 21  2  0
 21 22  1  0
 18 23  1  0
 22 23  2  0
  8 24  1  0
 12 24  2  0
M  END
