pyridine_urea_9201
     RDKit          3D

 18 18  0  0  0  0  0  0  0  0999 V2000
    7.7720   -2.1560   22.1800 C   0  0  0  0  0  0  0  0  0  0  0  0
    8.2020   -2.9420   23.3560 C   0  0  0  0  0  0  0  0  0  0  0  0
    7.7830   -4.2550   23.5330 C   0  0  0  0  0  0  0  0  0  0  0  0
    7.8070   -2.1380   24.6080 C   0  0  0  0  0  0  0  0  0  0  0  0
   10.0020   -2.7610   23.7230 S   0  0  0  0  0  0  0  0  0  0  0  0
   10.7320   -2.9740   22.5030 O   0  0  0  0  0  0  0  0  0  0  0  0
   10.0310   -1.0740   23.8630 C   0  0  0  0  0  0  0  0  0  0  0  0
   10.4330   -0.5320   22.6610 C   0  0  0  0  0  0  0  0  0  0  0  0
    9.5190   -0.6280   21.6020 N   0  0  0  0  0  0  0  0  0  0  0  0
    8.5480    0.2920   21.2990 C   0  0  0  0  0  0  0  0  0  0  0  0
    8.9030    1.6670   21.2090 O   0  0  0  0  0  0  0  0  0  0  0  0
    7.2970   -0.2460   21.0710 N   0  0  0  0  0  0  0  0  0  0  0  0
    6.4570    0.3170   20.0360 C   0  0  0  0  0  0  0  0  0  0  0  0
    5.2870    1.0120   20.2320 C   0  0  0  0  0  0  0  0  0  0  0  0
    4.5890    1.5300   19.1550 C   0  0  0  0  0  0  0  0  0  0  0  0
    5.1140    1.3210   17.8940 C   0  0  0  0  0  0  0  0  0  0  0  0
    6.2420    0.6370   17.6640 N   0  0  0  0  0  0  0  0  0  0  0  0
    6.8800    0.1530   18.7350 C   0  0  0  0  0  0  0  0  0  0  0  0
  2  1  1  0
  2  3  1  0
  2  4  1  0
  2  5  1  0
  5  6  2  0
  5  7  1  6
  7  8  1  0
  8  9  1  0
  9 10  1  0
 10 11  2  0
 10 12  1  0
 12 13  1  0
 13 14  2  0
 14 15  1  0
 15 16  2  0
 16 17  1  0
 13 18  1  0
 17 18  2  0
M  END
