pyridine_urea_6059
     RDKit          3D

 25 27  0  0  0  0  0  0  0  0999 V2000
    8.5800    7.7180   23.0790 C   0  0  0  0  0  0  0  0  0  0  0  0
    9.8480    7.0280   23.4940 C   0  0  0  0  0  0  0  0  0  0  0  0
   10.6910    7.6060   24.4580 C   0  0  0  0  0  0  0  0  0  0  0  0
   11.8780    6.9810   24.8510 C   0  0  0  0  0  0  0  0  0  0  0  0
   12.2520    5.7550   24.2870 C   0  0  0  0  0  0  0  0  0  0  0  0
   11.3710    5.1260   23.2690 C   0  0  0  0  0  0  0  0  0  0  0  0
   11.8190    3.7750   22.6880 C   0  0  0  0  0  0  0  0  0  0  0  0
   10.9680    2.6960   23.0300 N   0  0  0  0  0  0  0  0  0  0  0  0
    9.7090    2.9900   23.6020 C   0  0  0  0  0  0  0  0  0  0  0  0
    8.9480    1.8460   23.6040 C   0  0  0  0  0  0  0  0  0  0  0  0
    9.1290    1.3040   22.5630 O   0  0  0  0  0  0  0  0  0  0  0  0
   10.3090    0.5140   22.5210 C   0  0  2  0  0  0  0  0  0  0  0  0
   10.0310   -0.7460   22.9980 C   0  0  0  0  0  0  0  0  0  0  0  0
    8.8920   -1.2180   22.3940 N   0  0  0  0  0  0  0  0  0  0  0  0
    8.1510   -0.4400   21.4630 C   0  0  0  0  0  0  0  0  0  0  0  0
    8.5030    0.6580   21.0670 O   0  0  0  0  0  0  0  0  0  0  0  0
    7.0070   -1.0110   21.0480 N   0  0  0  0  0  0  0  0  0  0  0  0
    6.3560   -0.2320   20.0610 C   0  0  0  0  0  0  0  0  0  0  0  0
    5.1770    0.5050   20.2270 C   0  0  0  0  0  0  0  0  0  0  0  0
    4.5820    1.2700   19.2160 C   0  0  0  0  0  0  0  0  0  0  0  0
    5.2170    1.2880   17.9800 C   0  0  0  0  0  0  0  0  0  0  0  0
    6.3460    0.5880   17.7910 N   0  0  0  0  0  0  0  0  0  0  0  0
    6.9140   -0.1590   18.7940 C   0  0  0  0  0  0  0  0  0  0  0  0
   11.4260    1.2530   22.9650 C   0  0  0  0  0  0  0  0  0  0  0  0
   10.1910    5.8080   22.9220 C   0  0  0  0  0  0  0  0  0  0  0  0
  1  2  1  0
  2  3  2  0
  3  4  1  0
  4  5  2  0
  5  6  1  0
  6  7  1  0
  7  8  1  0
  8  9  1  0
  9 10  1  0
 10 11  1  0
 11 12  1  0
 12 13  1  1
 13 14  1  0
 14 15  1  0
 15 16  2  0
 15 17  1  0
 17 18  1  0
 18 19  2  0
 19 20  1  0
 20 21  2  0
 21 22  1  0
 18 23  1  0
 22 23  2  0
  8 24  1  0
 12 24  1  0
  2 25  1  0
  6 25  2  0
M  END
