pyridine_urea_3151
     RDKit          3D

 20 21  0  0  0  0  0  0  0  0999 V2000
   10.5020    2.3830   22.9400 C   0  0  0  0  0  0  0  0  0  0  0  0
   11.8390    2.5650   23.1540 N   0  0  0  0  0  0  0  0  0  0  0  0
   12.5860    3.6590   22.6680 C   0  0  0  0  0  0  0  0  0  0  0  0
   12.5760    1.2800   22.9760 C   0  0  0  0  0  0  0  0  0  0  0  0
   12.2970    0.2130   23.8240 C   0  0  1  0  0  0  0  0  0  0  0  0
   11.1580    0.2620   24.5640 C   0  0  0  0  0  0  0  0  0  0  0  0
    9.9200   -0.4050   24.0350 C   0  0  0  0  0  0  0  0  0  0  0  0
   10.0770   -1.3040   22.9960 C   0  0  1  0  0  0  0  0  0  0  0  0
    8.7600   -1.4330   22.4050 N   0  0  0  0  0  0  0  0  0  0  0  0
    8.2370   -0.4720   21.5390 C   0  0  0  0  0  0  0  0  0  0  0  0
    8.7760    0.6070   21.3260 O   0  0  0  0  0  0  0  0  0  0  0  0
    7.0660   -0.9140   21.0100 N   0  0  0  0  0  0  0  0  0  0  0  0
    6.4180   -0.1510   20.0890 C   0  0  0  0  0  0  0  0  0  0  0  0
    5.2660    0.5930   20.3320 C   0  0  0  0  0  0  0  0  0  0  0  0
    4.6890    1.3400   19.2950 C   0  0  0  0  0  0  0  0  0  0  0  0
    5.2910    1.3170   18.0360 C   0  0  0  0  0  0  0  0  0  0  0  0
    6.3980    0.6070   17.7840 N   0  0  0  0  0  0  0  0  0  0  0  0
    6.9290   -0.1040   18.8010 C   0  0  0  0  0  0  0  0  0  0  0  0
   11.1940   -1.0160   22.0840 C   0  0  0  0  0  0  0  0  0  0  0  0
   12.2540   -1.0640   22.9790 C   0  0  0  0  0  0  0  0  0  0  0  0
  1  2  1  0
  2  3  1  0
  2  4  1  0
  5  4  1  6
  5  6  1  0
  6  7  1  0
  7  8  1  0
  8  9  1  6
  9 10  1  0
 10 11  2  0
 10 12  1  0
 12 13  1  0
 13 14  2  0
 14 15  1  0
 15 16  2  0
 16 17  1  0
 13 18  1  0
 17 18  2  0
  8 19  1  0
  5 20  1  0
 19 20  1  0
M  END
