pyridine_urea_9064
     RDKit          3D

 19 20  0  0  0  0  0  0  0  0999 V2000
    8.3340    1.2780   20.8400 O   0  0  0  0  0  0  0  0  0  0  0  0
    8.1940    0.1200   21.2430 C   0  0  0  0  0  0  0  0  0  0  0  0
    7.0620   -0.5860   21.0050 N   0  0  0  0  0  0  0  0  0  0  0  0
    6.4470    0.0300   19.8890 C   0  0  0  0  0  0  0  0  0  0  0  0
    5.1570    0.8140   20.1620 C   0  0  0  0  0  0  0  0  0  0  0  0
    4.5240    1.4740   19.1170 C   0  0  0  0  0  0  0  0  0  0  0  0
    5.1060    1.3860   17.8580 C   0  0  0  0  0  0  0  0  0  0  0  0
    6.2550    0.6610   17.6710 N   0  0  0  0  0  0  0  0  0  0  0  0
    6.9370   -0.0230   18.6630 C   0  0  0  0  0  0  0  0  0  0  0  0
    9.1270   -0.5270   21.9330 N   0  0  0  0  0  0  0  0  0  0  0  0
   10.1680   -0.9160   22.6210 C   0  0  2  0  0  0  0  0  0  0  0  0
   10.2250    0.0280   23.5640 C   0  0  0  0  0  0  0  0  0  0  0  0
   10.9980    1.1320   23.0660 O   0  0  0  0  0  0  0  0  0  0  0  0
   11.4310   -0.9790   22.1560 C   0  0  0  0  0  0  0  0  0  0  0  0
   12.3740   -1.5260   22.9170 C   0  0  0  0  0  0  0  0  0  0  0  0
   12.7490   -0.9200   24.1740 C   0  0  0  0  0  0  0  0  0  0  0  0
   13.6620   -1.8690   24.4830 N   0  0  0  0  0  0  0  0  0  0  0  0
   13.7470   -2.7700   23.5630 C   0  0  0  0  0  0  0  0  0  0  0  0
   13.0110   -2.6710   22.5470 N   0  0  0  0  0  0  0  0  0  0  0  0
  1  2  2  0
  2  3  1  0
  3  4  1  0
  4  5  2  0
  5  6  1  0
  6  7  2  0
  7  8  1  0
  4  9  1  0
  8  9  2  0
  2 10  1  0
 10 11  1  0
 11 12  1  1
 12 13  1  0
 11 14  1  0
 14 15  1  0
 15 16  2  0
 16 17  1  0
 17 18  1  0
 15 19  1  0
 18 19  2  0
M  END
