pyridine_urea_5259
     RDKit          3D

 19 21  0  0  0  0  0  0  0  0999 V2000
    9.1150    0.6610   21.4840 O   0  0  0  0  0  0  0  0  0  0  0  0
    8.4780   -0.3840   21.5070 C   0  0  0  0  0  0  0  0  0  0  0  0
    7.1630   -0.5520   21.1490 N   0  0  0  0  0  0  0  0  0  0  0  0
    6.5080    0.0680   20.0700 C   0  0  0  0  0  0  0  0  0  0  0  0
    5.3530    0.8100   20.3300 C   0  0  0  0  0  0  0  0  0  0  0  0
    4.6840    1.4470   19.2820 C   0  0  0  0  0  0  0  0  0  0  0  0
    5.1980    1.3180   18.0120 C   0  0  0  0  0  0  0  0  0  0  0  0
    6.3020    0.6060   17.7340 N   0  0  0  0  0  0  0  0  0  0  0  0
    6.9300   -0.0030   18.7610 C   0  0  0  0  0  0  0  0  0  0  0  0
    8.9990   -1.5920   21.9100 N   0  0  0  0  0  0  0  0  0  0  0  0
   10.2510   -1.7350   22.6350 C   0  0  1  0  0  0  0  0  0  0  0  0
   11.4610   -1.3500   21.8290 C   0  0  0  0  0  0  0  0  0  0  0  0
   12.7310   -1.5440   22.3520 C   0  0  0  0  0  0  0  0  0  0  0  0
   12.9310   -1.0670   23.6060 C   0  0  0  0  0  0  0  0  0  0  0  0
   11.7320   -0.8880   24.2590 C   0  0  0  0  0  0  0  0  0  0  0  0
   11.6250   -0.4050   25.4300 C   0  0  0  0  0  0  0  0  0  0  0  0
   10.3510   -0.2990   25.8440 N   0  0  0  0  0  0  0  0  0  0  0  0
    9.6060   -0.7890   24.8370 N   0  0  0  0  0  0  0  0  0  0  0  0
   10.4520   -1.1760   23.8310 C   0  0  0  0  0  0  0  0  0  0  0  0
  1  2  2  0
  2  3  1  0
  3  4  1  0
  4  5  2  0
  5  6  1  0
  6  7  2  0
  7  8  1  0
  4  9  1  0
  8  9  2  0
  2 10  1  0
 11 10  1  6
 11 12  1  0
 12 13  1  0
 13 14  1  0
 14 15  1  0
 15 16  2  0
 16 17  1  0
 17 18  1  0
 11 19  1  0
 15 19  1  0
 18 19  2  0
M  END
