pyridine_urea_8380
     RDKit          3D

 22 24  0  0  0  0  0  0  0  0999 V2000
    9.0340    1.1040   21.3290 O   0  0  0  0  0  0  0  0  0  0  0  0
    8.3630    0.1600   21.7710 C   0  0  0  0  0  0  0  0  0  0  0  0
    8.4840   -0.3730   23.0590 N   0  0  0  0  0  0  0  0  0  0  0  0
    9.7460   -0.7160   23.7360 C   0  0  0  0  0  0  0  0  0  0  0  0
   10.6950    0.4850   24.0990 C   0  0  0  0  0  0  0  0  0  0  0  0
   11.5010   -0.0400   23.3390 C   0  0  0  0  0  0  0  0  0  0  0  0
   12.7600    0.2710   22.9280 C   0  0  0  0  0  0  0  0  0  0  0  0
   13.3600   -0.4600   22.0940 C   0  0  0  0  0  0  0  0  0  0  0  0
   13.6670   -1.5420   21.0790 C   0  0  0  0  0  0  0  0  0  0  0  0
   12.4520   -2.4180   20.8360 C   0  0  0  0  0  0  0  0  0  0  0  0
   11.0860   -2.3550   21.4530 C   0  0  0  0  0  0  0  0  0  0  0  0
   10.9540   -1.3360   22.3660 C   0  0  0  0  0  0  0  0  0  0  0  0
   12.0390   -0.5860   22.5360 N   0  0  0  0  0  0  0  0  0  0  0  0
   13.1120    1.3140   23.4650 O   0  0  0  0  0  0  0  0  0  0  0  0
   11.8580    1.4480   24.1860 N   0  0  0  0  0  0  0  0  0  0  0  0
    7.3610   -0.4980   21.0930 N   0  0  0  0  0  0  0  0  0  0  0  0
    6.6370    0.0790   20.0450 C   0  0  0  0  0  0  0  0  0  0  0  0
    5.3840    0.8780   20.3260 C   0  0  0  0  0  0  0  0  0  0  0  0
    4.6990    1.4520   19.2850 C   0  0  0  0  0  0  0  0  0  0  0  0
    5.1540    1.3000   17.9900 C   0  0  0  0  0  0  0  0  0  0  0  0
    6.2630    0.5850   17.7010 N   0  0  0  0  0  0  0  0  0  0  0  0
    6.9720   -0.0030   18.7110 C   0  0  0  0  0  0  0  0  0  0  0  0
  1  2  2  0
  2  3  1  0
  3  4  1  0
  4  5  1  0
  5  6  1  0
  6  7  2  0
  7  8  1  0
  8  9  2  0
  9 10  1  0
 10 11  2  0
 11 12  1  0
  8 13  1  0
 12 13  2  0
  7 14  1  0
  5 15  2  0
 14 15  1  0
  2 16  1  0
 16 17  1  0
 17 18  2  0
 18 19  1  0
 19 20  2  0
 20 21  1  0
 17 22  1  0
 21 22  2  0
M  END
