pyridine_urea_14549
     RDKit          3D

 21 22  0  0  0  0  0  0  0  0999 V2000
   13.1750   -0.1600   22.7950 C   0  0  0  0  0  0  0  0  0  0  0  0
   13.2040   -1.2160   23.8890 C   0  0  0  0  0  0  0  0  0  0  0  0
   12.5810   -2.3890   23.6290 C   0  0  1  0  0  0  0  0  0  0  0  0
   11.5590   -2.9150   24.4080 C   0  0  0  0  0  0  0  0  0  0  0  0
   11.2280   -2.2690   23.0380 C   0  0  0  0  0  0  0  0  0  0  0  0
   10.2100   -1.8260   23.8320 N   0  0  0  0  0  0  0  0  0  0  0  0
    9.1540   -1.8620   22.8570 C   0  0  0  0  0  0  0  0  0  0  0  0
    7.8060   -1.3960   23.3500 C   0  0  2  0  0  0  0  0  0  0  0  0
    6.6290   -1.9660   22.8660 C   0  0  0  0  0  0  0  0  0  0  0  0
    7.8100    0.0550   23.1200 N   0  0  0  0  0  0  0  0  0  0  0  0
    8.1250    0.3750   21.7080 C   0  0  0  0  0  0  0  0  0  0  0  0
    8.9520    1.2250   21.3470 O   0  0  0  0  0  0  0  0  0  0  0  0
    7.3270   -0.3850   20.9050 N   0  0  0  0  0  0  0  0  0  0  0  0
    6.5070    0.2180   19.9760 C   0  0  0  0  0  0  0  0  0  0  0  0
    5.3300    0.9130   20.2660 C   0  0  0  0  0  0  0  0  0  0  0  0
    4.5830    1.5320   19.1440 C   0  0  0  0  0  0  0  0  0  0  0  0
    5.1310    1.3570   17.8800 C   0  0  0  0  0  0  0  0  0  0  0  0
    6.2390    0.6870   17.5700 N   0  0  0  0  0  0  0  0  0  0  0  0
    6.8860    0.1390   18.6640 C   0  0  0  0  0  0  0  0  0  0  0  0
    9.4870   -2.2770   21.6320 N   0  0  0  0  0  0  0  0  0  0  0  0
   10.8010   -2.5170   21.7900 N   0  0  0  0  0  0  0  0  0  0  0  0
  1  2  1  0
  2  3  1  0
  3  4  1  1
  3  5  1  0
  5  6  2  0
  6  7  1  0
  7  8  1  0
  8  9  1  6
  8 10  1  0
 10 11  1  0
 11 12  2  0
 11 13  1  0
 13 14  1  0
 14 15  2  0
 15 16  1  0
 16 17  2  0
 17 18  1  0
 14 19  1  0
 18 19  2  0
  7 20  2  0
  5 21  1  0
 20 21  1  0
M  END
