pyridine_urea_11095
     RDKit          3D

 19 21  0  0  0  0  0  0  0  0999 V2000
    9.0310    1.1500   21.2780 O   0  0  0  0  0  0  0  0  0  0  0  0
    8.5180    0.0790   21.6390 C   0  0  0  0  0  0  0  0  0  0  0  0
    9.0250   -0.7040   22.6710 N   0  0  0  0  0  0  0  0  0  0  0  0
    9.4190   -2.0970   22.4480 C   0  0  0  0  0  0  0  0  0  0  0  0
    8.7960   -3.1140   23.4240 C   0  0  0  0  0  0  0  0  0  0  0  0
    8.1600   -4.3940   22.9710 C   0  0  0  0  0  0  0  0  0  0  0  0
    7.5730   -5.3290   24.2710 S   0  0  0  0  0  0  0  0  0  0  0  0
    8.1620   -4.0360   25.4220 C   0  0  0  0  0  0  0  0  0  0  0  0
    7.9620   -4.2120   26.9500 C   0  0  0  0  0  0  0  0  0  0  0  0
    8.4960   -5.3770   27.4690 C   0  0  0  0  0  0  0  0  0  0  0  0
    7.2540   -5.5650   27.5940 C   0  0  0  0  0  0  0  0  0  0  0  0
    8.7670   -2.9480   24.8810 N   0  0  0  0  0  0  0  0  0  0  0  0
    7.3660   -0.4530   21.0820 N   0  0  0  0  0  0  0  0  0  0  0  0
    6.6580    0.0860   20.0660 C   0  0  0  0  0  0  0  0  0  0  0  0
    5.5130    0.8550   20.3400 C   0  0  0  0  0  0  0  0  0  0  0  0
    4.7480    1.4520   19.3330 C   0  0  0  0  0  0  0  0  0  0  0  0
    5.1270    1.2830   18.0240 C   0  0  0  0  0  0  0  0  0  0  0  0
    6.2230    0.5370   17.7280 N   0  0  0  0  0  0  0  0  0  0  0  0
    6.9820   -0.0590   18.7280 C   0  0  0  0  0  0  0  0  0  0  0  0
  1  2  2  0
  2  3  1  0
  3  4  1  0
  4  5  1  0
  5  6  2  0
  6  7  1  0
  7  8  1  0
  8  9  1  0
  9 10  1  0
  9 11  1  0
 10 11  1  0
  5 12  1  0
  8 12  2  0
  2 13  1  0
 13 14  1  0
 14 15  2  0
 15 16  1  0
 16 17  2  0
 17 18  1  0
 14 19  1  0
 18 19  2  0
M  END
