pyridine_urea_12773
     RDKit          3D

 20 22  0  0  0  0  0  0  0  0999 V2000
   12.7140    4.4750   21.5960 C   0  0  0  0  0  0  0  0  0  0  0  0
   12.4960    3.6880   22.9110 C   0  0  1  0  0  0  0  0  0  0  0  0
   11.0280    3.3540   23.0540 C   0  0  0  0  0  0  0  0  0  0  0  0
   11.0490    2.0110   22.9740 C   0  0  0  0  0  0  0  0  0  0  0  0
    9.9300    1.2380   22.9770 C   0  0  0  0  0  0  0  0  0  0  0  0
   10.0560   -0.1070   22.8730 C   0  0  0  0  0  0  0  0  0  0  0  0
    8.8300   -0.9370   22.8340 N   0  0  0  0  0  0  0  0  0  0  0  0
    8.2610   -0.8340   21.5850 C   0  0  0  0  0  0  0  0  0  0  0  0
    8.9670   -0.9120   20.6710 O   0  0  0  0  0  0  0  0  0  0  0  0
    6.9260   -0.5930   21.4460 N   0  0  0  0  0  0  0  0  0  0  0  0
    6.3020    0.0210   20.3640 C   0  0  0  0  0  0  0  0  0  0  0  0
    5.1280    0.7570   20.4260 C   0  0  0  0  0  0  0  0  0  0  0  0
    4.5900    1.3460   19.2750 C   0  0  0  0  0  0  0  0  0  0  0  0
    5.2630    1.1750   18.0620 C   0  0  0  0  0  0  0  0  0  0  0  0
    6.3980    0.4680   17.9490 N   0  0  0  0  0  0  0  0  0  0  0  0
    6.8870   -0.0890   19.0910 C   0  0  0  0  0  0  0  0  0  0  0  0
   11.4860   -0.7300   22.7690 C   0  0  0  0  0  0  0  0  0  0  0  0
   12.6410    0.1490   22.7810 C   0  0  0  0  0  0  0  0  0  0  0  0
   12.3410    1.5160   22.8800 C   0  0  0  0  0  0  0  0  0  0  0  0
   13.0820    2.5480   22.8960 O   0  0  0  0  0  0  0  0  0  0  0  0
  2  1  1  6
  2  3  1  0
  3  4  1  0
  4  5  2  0
  5  6  1  0
  6  7  1  0
  7  8  1  0
  8  9  2  0
  8 10  1  0
 10 11  1  0
 11 12  2  0
 12 13  1  0
 13 14  2  0
 14 15  1  0
 11 16  1  0
 15 16  2  0
  6 17  2  0
 17 18  1  0
  4 19  1  0
 18 19  2  0
  2 20  1  0
 19 20  1  0
M  END
