pyridine_urea_14691
     RDKit          3D

 21 23  0  0  0  0  0  0  0  0999 V2000
    8.6650    1.3610   21.0420 O   0  0  0  0  0  0  0  0  0  0  0  0
    8.2170    0.3340   21.5610 C   0  0  0  0  0  0  0  0  0  0  0  0
    7.1690   -0.4010   21.0520 N   0  0  0  0  0  0  0  0  0  0  0  0
    6.3930    0.1770   20.0530 C   0  0  0  0  0  0  0  0  0  0  0  0
    5.1910    0.8450   20.2470 C   0  0  0  0  0  0  0  0  0  0  0  0
    4.5400    1.4010   19.1480 C   0  0  0  0  0  0  0  0  0  0  0  0
    5.1220    1.2630   17.9080 C   0  0  0  0  0  0  0  0  0  0  0  0
    6.2720    0.6140   17.6960 N   0  0  0  0  0  0  0  0  0  0  0  0
    6.8730    0.0880   18.7660 C   0  0  0  0  0  0  0  0  0  0  0  0
    8.7440   -0.1640   22.7230 N   0  0  0  0  0  0  0  0  0  0  0  0
   10.0240    0.2710   23.0350 C   0  0  1  0  0  0  0  0  0  0  0  0
   10.5280    0.3120   24.2870 C   0  0  0  0  0  0  0  0  0  0  0  0
   11.8200    0.8400   24.3010 C   0  0  0  0  0  0  0  0  0  0  0  0
   12.6920    0.6130   23.2560 C   0  0  0  0  0  0  0  0  0  0  0  0
   12.3050   -0.4670   22.5700 C   0  0  0  0  0  0  0  0  0  0  0  0
   13.2470   -1.4030   21.9790 C   0  0  0  0  0  0  0  0  0  0  0  0
   12.7080   -2.4400   21.2920 C   0  0  0  0  0  0  0  0  0  0  0  0
   11.3480   -2.5160   21.2270 C   0  0  0  0  0  0  0  0  0  0  0  0
   10.4460   -1.6900   21.7730 C   0  0  0  0  0  0  0  0  0  0  0  0
    9.1300   -1.8930   21.6400 F   0  0  0  0  0  0  0  0  0  0  0  0
   10.9740   -0.6660   22.4360 C   0  0  0  0  0  0  0  0  0  0  0  0
  1  2  2  0
  2  3  1  0
  3  4  1  0
  4  5  2  0
  5  6  1  0
  6  7  2  0
  7  8  1  0
  4  9  1  0
  8  9  2  0
  2 10  1  0
 11 10  1  1
 11 12  1  0
 12 13  1  0
 13 14  1  0
 14 15  1  0
 15 16  2  0
 16 17  1  0
 17 18  2  0
 18 19  1  0
 19 20  1  0
 11 21  1  0
 15 21  1  0
 19 21  2  0
M  END
