pyridine_urea_1742
     RDKit          3D

 18 19  0  0  0  0  0  0  0  0999 V2000
   10.8510   -0.4230   25.3520 C   0  0  0  0  0  0  0  0  0  0  0  0
   12.2790   -0.6980   24.9140 C   0  0  0  0  0  0  0  0  0  0  0  0
   12.0370   -1.2920   23.6710 N   0  0  0  0  0  0  0  0  0  0  0  0
   12.7710   -1.6650   22.5960 C   0  0  0  0  0  0  0  0  0  0  0  0
   11.9010   -2.1730   21.7090 C   0  0  0  0  0  0  0  0  0  0  0  0
   10.6400   -2.1050   22.2600 C   0  0  0  0  0  0  0  0  0  0  0  0
    9.4060   -2.4560   21.8120 C   0  0  0  0  0  0  0  0  0  0  0  0
    8.6360   -1.3000   22.2350 N   0  0  0  0  0  0  0  0  0  0  0  0
    8.0470   -0.3460   21.4830 C   0  0  0  0  0  0  0  0  0  0  0  0
    8.6710    0.6820   21.2390 O   0  0  0  0  0  0  0  0  0  0  0  0
    6.8040   -0.6570   21.0880 N   0  0  0  0  0  0  0  0  0  0  0  0
    6.3080    0.0060   20.0260 C   0  0  0  0  0  0  0  0  0  0  0  0
    5.1440    0.7370   20.1980 C   0  0  0  0  0  0  0  0  0  0  0  0
    4.6010    1.4380   19.1230 C   0  0  0  0  0  0  0  0  0  0  0  0
    5.2510    1.3810   17.9030 C   0  0  0  0  0  0  0  0  0  0  0  0
    6.3740    0.6760   17.7170 N   0  0  0  0  0  0  0  0  0  0  0  0
    6.8790    0.0060   18.7700 C   0  0  0  0  0  0  0  0  0  0  0  0
   10.7270   -1.5460   23.5130 N   0  0  0  0  0  0  0  0  0  0  0  0
  1  2  1  0
  2  3  1  0
  3  4  1  0
  4  5  2  0
  5  6  1  0
  6  7  1  0
  7  8  1  0
  8  9  1  0
  9 10  2  0
  9 11  1  0
 11 12  1  0
 12 13  2  0
 13 14  1  0
 14 15  2  0
 15 16  1  0
 12 17  1  0
 16 17  2  0
  3 18  1  0
  6 18  2  0
M  END
