pyridine_urea_3773
     RDKit          3D

 22 24  0  0  0  0  0  0  0  0999 V2000
    7.4550   -4.3410   28.0830 C   0  0  0  0  0  0  0  0  0  0  0  0
    8.3150   -4.3440   27.0090 N   0  0  0  0  0  0  0  0  0  0  0  0
    9.5300   -5.1160   27.1650 C   0  0  0  0  0  0  0  0  0  0  0  0
   10.6900   -4.7700   26.2290 C   0  0  0  0  0  0  0  0  0  0  0  0
   10.5150   -3.7090   25.4010 N   0  0  0  0  0  0  0  0  0  0  0  0
   11.5760   -3.1910   24.6670 N   0  0  0  0  0  0  0  0  0  0  0  0
   10.9370   -2.1870   24.0020 C   0  0  0  0  0  0  0  0  0  0  0  0
    9.4920   -2.0760   24.3190 C   0  0  0  0  0  0  0  0  0  0  0  0
    8.5430   -1.0540   23.7190 C   0  0  0  0  0  0  0  0  0  0  0  0
    9.0050   -0.8080   22.4460 N   0  0  0  0  0  0  0  0  0  0  0  0
    8.4560    0.0960   21.5240 C   0  0  0  0  0  0  0  0  0  0  0  0
    8.9940    1.1720   21.2300 O   0  0  0  0  0  0  0  0  0  0  0  0
    7.2660   -0.3940   21.0410 N   0  0  0  0  0  0  0  0  0  0  0  0
    6.5380    0.1730   20.0050 C   0  0  0  0  0  0  0  0  0  0  0  0
    5.3640    0.8760   20.3070 C   0  0  0  0  0  0  0  0  0  0  0  0
    4.6790    1.4350   19.2550 C   0  0  0  0  0  0  0  0  0  0  0  0
    5.1430    1.3030   17.9730 C   0  0  0  0  0  0  0  0  0  0  0  0
    6.2600    0.6230   17.6510 N   0  0  0  0  0  0  0  0  0  0  0  0
    6.9220    0.0740   18.6830 C   0  0  0  0  0  0  0  0  0  0  0  0
    9.2540   -3.0780   25.2340 C   0  0  0  0  0  0  0  0  0  0  0  0
    8.0690   -3.4290   25.8740 C   0  0  0  0  0  0  0  0  0  0  0  0
    6.8130   -3.0160   25.5470 O   0  0  0  0  0  0  0  0  0  0  0  0
  1  2  1  0
  2  3  1  0
  3  4  1  0
  4  5  1  0
  5  6  1  0
  6  7  2  0
  7  8  1  0
  8  9  1  0
  9 10  1  0
 10 11  1  0
 11 12  2  0
 11 13  1  0
 13 14  1  0
 14 15  2  0
 15 16  1  0
 16 17  2  0
 17 18  1  0
 14 19  1  0
 18 19  2  0
  5 20  1  0
  8 20  2  0
  2 21  1  0
 20 21  1  0
 21 22  2  0
M  END
