pyridine_urea_10403
     RDKit          3D

 22 24  0  0  0  0  0  0  0  0999 V2000
    8.5150   -5.4050   26.6320 C   0  0  0  0  0  0  0  0  0  0  0  0
    7.8720   -4.1160   26.6110 O   0  0  0  0  0  0  0  0  0  0  0  0
    8.3840   -3.2400   25.6910 C   0  0  0  0  0  0  0  0  0  0  0  0
    8.6610   -1.8080   26.2090 C   0  0  0  0  0  0  0  0  0  0  0  0
    9.2450   -0.8060   25.2310 C   0  0  0  0  0  0  0  0  0  0  0  0
    9.5180   -1.2340   23.8260 C   0  0  0  0  0  0  0  0  0  0  0  0
   10.0270   -0.3900   22.8580 C   0  0  0  0  0  0  0  0  0  0  0  0
    9.4000   -0.6210   21.6930 N   0  0  0  0  0  0  0  0  0  0  0  0
    8.5070    0.3270   21.3490 C   0  0  0  0  0  0  0  0  0  0  0  0
    8.7690    1.5190   21.1960 O   0  0  0  0  0  0  0  0  0  0  0  0
    7.2510   -0.1730   21.1230 N   0  0  0  0  0  0  0  0  0  0  0  0
    6.5230    0.3040   20.0500 C   0  0  0  0  0  0  0  0  0  0  0  0
    5.3660    1.0360   20.2780 C   0  0  0  0  0  0  0  0  0  0  0  0
    4.6450    1.5470   19.2210 C   0  0  0  0  0  0  0  0  0  0  0  0
    5.1170    1.3010   17.9330 C   0  0  0  0  0  0  0  0  0  0  0  0
    6.2200    0.5880   17.6790 N   0  0  0  0  0  0  0  0  0  0  0  0
    6.8950    0.1060   18.7370 C   0  0  0  0  0  0  0  0  0  0  0  0
   11.4620   -0.8630   22.7870 C   0  0  0  0  0  0  0  0  0  0  0  0
   11.8840    0.2390   23.3770 C   0  0  0  0  0  0  0  0  0  0  0  0
   10.6310    0.8960   23.2850 C   0  0  0  0  0  0  0  0  0  0  0  0
    9.1650   -2.6660   23.5460 C   0  0  0  0  0  0  0  0  0  0  0  0
    8.6430   -3.5740   24.4210 N   0  0  0  0  0  0  0  0  0  0  0  0
  1  2  1  0
  2  3  1  0
  3  4  2  0
  4  5  1  0
  5  6  2  0
  6  7  1  0
  7  8  1  0
  8  9  1  0
  9 10  2  0
  9 11  1  0
 11 12  1  0
 12 13  2  0
 13 14  1  0
 14 15  2  0
 15 16  1  0
 12 17  1  0
 16 17  2  0
  7 18  1  0
 18 19  1  0
  7 20  1  0
 19 20  1  0
  6 21  1  0
  3 22  1  0
 21 22  2  0
M  END
