pyridine_urea_324
     RDKit          3D

 27 28  0  0  0  0  0  0  0  0999 V2000
    9.1910   -2.5680   22.6160 C   0  0  0  0  0  0  0  0  0  0  0  0
    8.6350   -3.1110   23.5270 C   0  0  0  0  0  0  0  0  0  0  0  0
    7.4330   -3.7240   22.9640 O   0  0  0  0  0  0  0  0  0  0  0  0
    6.7760   -4.6400   23.7340 C   0  0  0  0  0  0  0  0  0  0  0  0
    6.9860   -5.8480   23.6770 O   0  0  0  0  0  0  0  0  0  0  0  0
    5.7820   -4.0180   24.6420 N   0  0  0  0  0  0  0  0  0  0  0  0
    6.4560   -2.8250   25.1860 C   0  0  0  0  0  0  0  0  0  0  0  0
    5.7030   -2.2700   26.1990 C   0  0  0  0  0  0  0  0  0  0  0  0
    4.1660   -2.1730   26.1230 C   0  0  0  0  0  0  0  0  0  0  0  0
    3.9890   -0.8060   26.0270 N   0  0  0  0  0  0  0  0  0  0  0  0
    4.6880    0.1180   25.2050 C   0  0  0  0  0  0  0  0  0  0  0  0
    4.8010    1.4740   25.6560 O   0  0  0  0  0  0  0  0  0  0  0  0
    5.2080   -0.2600   24.0190 C   0  0  0  0  0  0  0  0  0  0  0  0
    6.5750    0.1230   24.5460 C   0  0  0  0  0  0  0  0  0  0  0  0
    7.4270    0.7490   23.6300 C   0  0  0  0  0  0  0  0  0  0  0  0
    8.3650    0.0880   22.8970 N   0  0  0  0  0  0  0  0  0  0  0  0
    8.2640    0.3650   21.5860 C   0  0  0  0  0  0  0  0  0  0  0  0
    8.8970    1.3020   21.0950 O   0  0  0  0  0  0  0  0  0  0  0  0
    7.3280   -0.5190   20.8690 N   0  0  0  0  0  0  0  0  0  0  0  0
    6.5100    0.1340   19.9680 C   0  0  0  0  0  0  0  0  0  0  0  0
    5.2630    0.8160   20.5870 C   0  0  0  0  0  0  0  0  0  0  0  0
    4.6760    1.4090   19.3140 C   0  0  0  0  0  0  0  0  0  0  0  0
    5.2110    1.3070   17.9340 C   0  0  0  0  0  0  0  0  0  0  0  0
    6.2970    0.6600   17.6390 N   0  0  0  0  0  0  0  0  0  0  0  0
    6.8950    0.1080   18.6500 C   0  0  0  0  0  0  0  0  0  0  0  0
    3.5850   -2.9890   25.1240 C   0  0  0  0  0  0  0  0  0  0  0  0
    4.4110   -3.9060   24.4650 C   0  0  0  0  0  0  0  0  0  0  0  0
  1  2  1  0
  2  3  1  0
  3  4  1  0
  4  5  2  0
  4  6  1  0
  6  7  1  0
  7  8  1  0
  8  9  1  0
  9 10  1  0
 10 11  1  0
 11 12  2  0
 11 13  1  0
 13 14  1  0
 14 15  1  0
 15 16  1  0
 16 17  1  0
 17 18  2  0
 17 19  1  0
 19 20  1  0
 20 21  2  0
 21 22  1  0
 22 23  2  0
 23 24  1  0
 20 25  1  0
 24 25  2  0
  9 26  1  0
  6 27  1  0
 26 27  1  0
M  END
