pyridine_urea_2916
     RDKit          3D

 22 24  0  0  0  0  0  0  0  0999 V2000
    8.8530    1.1120   21.2110 O   0  0  0  0  0  0  0  0  0  0  0  0
    8.2400    0.1410   21.6850 C   0  0  0  0  0  0  0  0  0  0  0  0
    7.3080   -0.6020   20.9890 N   0  0  0  0  0  0  0  0  0  0  0  0
    6.5460    0.0750   19.9790 C   0  0  0  0  0  0  0  0  0  0  0  0
    5.2420    0.8440   20.3610 C   0  0  0  0  0  0  0  0  0  0  0  0
    4.5660    1.4850   19.3340 C   0  0  0  0  0  0  0  0  0  0  0  0
    5.1770    1.3670   17.9310 C   0  0  0  0  0  0  0  0  0  0  0  0
    6.3030    0.6780   17.6650 N   0  0  0  0  0  0  0  0  0  0  0  0
    6.9470    0.0610   18.6710 C   0  0  0  0  0  0  0  0  0  0  0  0
    8.3230   -0.3770   22.9580 N   0  0  0  0  0  0  0  0  0  0  0  0
    9.5400   -0.3150   23.7640 C   0  0  0  0  0  0  0  0  0  0  0  0
   10.5300   -1.3460   23.2910 C   0  0  0  0  0  0  0  0  0  0  0  0
   11.1060   -0.7280   22.0790 C   0  0  0  0  0  0  0  0  0  0  0  0
   12.0720    0.2400   22.5640 N   0  0  0  0  0  0  0  0  0  0  0  0
   13.3060   -0.2950   22.8030 C   0  0  0  0  0  0  0  0  0  0  0  0
   13.2600   -1.3400   23.9000 C   0  0  2  0  0  0  0  0  0  0  0  0
   12.7700   -2.6010   23.2870 C   0  0  0  0  0  0  0  0  0  0  0  0
   11.8840   -2.9710   24.2840 C   0  0  0  0  0  0  0  0  0  0  0  0
   11.6950   -1.9660   25.1920 O   0  0  0  0  0  0  0  0  0  0  0  0
   12.6100   -0.8930   25.0370 C   0  0  0  0  0  0  0  0  0  0  0  0
   11.6550    1.0740   23.5480 C   0  0  0  0  0  0  0  0  0  0  0  0
   10.2800    1.0370   23.6540 C   0  0  0  0  0  0  0  0  0  0  0  0
  1  2  2  0
  2  3  1  0
  3  4  1  0
  4  5  2  0
  5  6  1  0
  6  7  2  0
  7  8  1  0
  4  9  1  0
  8  9  2  0
  2 10  1  0
 10 11  1  0
 11 12  1  0
 12 13  1  0
 13 14  1  0
 14 15  1  0
 16 15  1  6
 16 17  1  0
 17 18  1  0
 18 19  1  0
 16 20  1  0
 19 20  1  0
 14 21  1  0
 11 22  1  0
 21 22  1  0
M  END
