pyridine_urea_59
     RDKit          3D

 19 21  0  0  0  0  0  0  0  0999 V2000
   12.3730    1.9310   23.1250 C   0  0  0  0  0  0  0  0  0  0  0  0
   11.5650    1.2480   23.6990 C   0  0  0  0  0  0  0  0  0  0  0  0
   10.3280    0.9000   24.5300 C   0  0  0  0  0  0  0  0  0  0  0  0
   10.9630    0.6950   22.4560 O   0  0  0  0  0  0  0  0  0  0  0  0
   10.8250   -0.7370   22.8070 C   0  0  2  0  0  0  0  0  0  0  0  0
   10.6440   -1.7190   21.9150 C   0  0  0  0  0  0  0  0  0  0  0  0
    9.3320   -1.5230   21.3140 N   0  0  0  0  0  0  0  0  0  0  0  0
    8.5830   -0.3570   21.3620 C   0  0  0  0  0  0  0  0  0  0  0  0
    9.1140    0.8660   21.6180 O   0  0  0  0  0  0  0  0  0  0  0  0
    7.2500   -0.6210   21.0770 N   0  0  0  0  0  0  0  0  0  0  0  0
    6.4410    0.0700   20.1350 C   0  0  0  0  0  0  0  0  0  0  0  0
    5.3050    0.7330   20.5200 C   0  0  0  0  0  0  0  0  0  0  0  0
    4.6990    1.3630   19.2720 C   0  0  0  0  0  0  0  0  0  0  0  0
    5.2540    1.2410   18.0240 C   0  0  0  0  0  0  0  0  0  0  0  0
    6.3500    0.5770   17.7490 N   0  0  0  0  0  0  0  0  0  0  0  0
    6.9070    0.0110   18.8190 C   0  0  0  0  0  0  0  0  0  0  0  0
   11.3860   -0.9940   24.1660 C   0  0  0  0  0  0  0  0  0  0  0  0
   12.4290    0.0460   24.0610 C   0  0  1  0  0  0  0  0  0  0  0  0
   12.2990   -0.9610   22.9420 C   0  0  0  0  0  0  0  0  0  0  0  0
  2  1  1  0
  2  3  1  0
  2  4  1  0
  4  5  1  0
  5  6  1  1
  6  7  1  0
  7  8  1  0
  8  9  2  0
  8 10  1  0
 10 11  1  0
 11 12  2  0
 12 13  1  0
 13 14  2  0
 14 15  1  0
 11 16  1  0
 15 16  2  0
  5 17  1  0
  2 18  1  0
 18 17  1  1
  5 19  1  0
 18 19  1  0
M  END
