pyridine_urea_6602
     RDKit          3D

 22 24  0  0  0  0  0  0  0  0999 V2000
   12.3080   -2.8750   24.5930 C   0  0  0  0  0  0  0  0  0  0  0  0
   13.3020   -1.8790   24.0140 C   0  0  0  0  0  0  0  0  0  0  0  0
   12.7500   -0.4740   24.3230 C   0  0  0  0  0  0  0  0  0  0  0  0
   11.5250   -1.3380   23.5900 C   0  0  0  0  0  0  0  0  0  0  0  0
    9.9790   -1.1020   23.1360 C   0  0  0  0  0  0  0  0  0  0  0  0
    9.3070    0.1320   23.3420 C   0  0  0  0  0  0  0  0  0  0  0  0
   10.3060    0.6780   23.8910 C   0  0  0  0  0  0  0  0  0  0  0  0
   11.6400    0.5230   24.2990 C   0  0  0  0  0  0  0  0  0  0  0  0
   11.4780   -0.5320   23.8500 O   0  0  0  0  0  0  0  0  0  0  0  0
   12.2710   -0.5670   22.6480 C   0  0  0  0  0  0  0  0  0  0  0  0
   11.0630   -0.4900   22.2090 C   0  0  0  0  0  0  0  0  0  0  0  0
   10.2870   -0.6400   23.3510 C   0  0  2  0  0  0  0  0  0  0  0  0
    8.9140   -0.8130   22.7980 N   0  0  0  0  0  0  0  0  0  0  0  0
    8.4340   -0.0460   21.7070 C   0  0  0  0  0  0  0  0  0  0  0  0
    9.0440    1.1910   21.2800 O   0  0  0  0  0  0  0  0  0  0  0  0
    7.3080   -0.5920   21.1210 N   0  0  0  0  0  0  0  0  0  0  0  0
    6.6010    0.0070   20.0970 C   0  0  0  0  0  0  0  0  0  0  0  0
    5.4540    0.7310   20.3730 C   0  0  0  0  0  0  0  0  0  0  0  0
    4.7280    1.3600   19.3720 C   0  0  0  0  0  0  0  0  0  0  0  0
    5.1700    1.2560   18.0660 C   0  0  0  0  0  0  0  0  0  0  0  0
    6.2750    0.5570   17.7500 N   0  0  0  0  0  0  0  0  0  0  0  0
    6.9590   -0.0490   18.7580 C   0  0  0  0  0  0  0  0  0  0  0  0
  1  2  1  0
  2  3  1  0
  3  4  2  0
  4  5  1  0
  5  6  2  0
  6  7  1  0
  3  8  1  0
  7  8  2  0
  8  9  1  0
  9 10  1  0
 10 11  1  0
  7 12  1  0
 11 12  1  0
 12 13  1  6
 13 14  1  0
 14 15  2  0
 14 16  1  0
 16 17  1  0
 17 18  2  0
 18 19  1  0
 19 20  2  0
 20 21  1  0
 17 22  1  0
 21 22  2  0
M  END
