pyridine_urea_9776
     RDKit          3D

 25 26  0  0  0  0  0  0  0  0999 V2000
    7.7620    2.6390   24.4030 C   0  0  0  0  0  0  0  0  0  0  0  0
    8.4200    1.4230   25.0690 C   0  0  0  0  0  0  0  0  0  0  0  0
    8.5350    0.3920   24.0850 O   0  0  0  0  0  0  0  0  0  0  0  0
    9.7830   -0.3080   24.1570 C   0  0  0  0  0  0  0  0  0  0  0  0
   10.7800    0.0470   25.0110 O   0  0  0  0  0  0  0  0  0  0  0  0
    9.9490   -1.5080   23.2530 C   0  0  2  0  0  0  0  0  0  0  0  0
   11.1850   -1.5440   22.3490 C   0  0  0  0  0  0  0  0  0  0  0  0
   12.3580   -0.5750   22.5120 C   0  0  0  0  0  0  0  0  0  0  0  0
   11.6130    0.4980   22.7870 C   0  0  0  0  0  0  0  0  0  0  0  0
   10.4300    0.8400   22.9370 C   0  0  0  0  0  0  0  0  0  0  0  0
   11.8930    2.2720   23.0890 I   0  0  0  0  0  0  0  0  0  0  0  0
   10.3260    2.0320   23.1780 C   0  0  0  0  0  0  0  0  0  0  0  0
   11.8230    2.0890   23.0990 C   0  0  0  0  0  0  0  0  0  0  0  0
   12.7740    0.8390   22.7890 C   0  0  0  0  0  0  0  0  0  0  0  0
   14.0660    1.0150   22.7510 F   0  0  0  0  0  0  0  0  0  0  0  0
    8.7300   -1.6330   22.3980 N   0  0  0  0  0  0  0  0  0  0  0  0
    8.3540   -0.5630   21.6110 C   0  0  0  0  0  0  0  0  0  0  0  0
    9.0300    0.5910   21.3890 O   0  0  0  0  0  0  0  0  0  0  0  0
    7.1190   -0.8520   21.0590 N   0  0  0  0  0  0  0  0  0  0  0  0
    6.4260   -0.0980   20.0950 C   0  0  0  0  0  0  0  0  0  0  0  0
    5.2550    0.6380   20.3110 C   0  0  0  0  0  0  0  0  0  0  0  0
    4.6220    1.3980   19.2090 C   0  0  0  0  0  0  0  0  0  0  0  0
    5.2460    1.3390   17.9830 C   0  0  0  0  0  0  0  0  0  0  0  0
    6.3740    0.6330   17.7550 N   0  0  0  0  0  0  0  0  0  0  0  0
    6.9220   -0.0550   18.7960 C   0  0  0  0  0  0  0  0  0  0  0  0
  1  2  1  0
  2  3  1  0
  3  4  1  0
  4  5  2  0
  4  6  1  0
  6  7  1  6
  7  8  1  0
  8  9  2  0
  9 10  1  0
 10 11  1  0
 10 12  2  0
 12 13  1  0
  8 14  1  0
 13 14  2  0
 14 15  1  0
  6 16  1  0
 16 17  1  0
 17 18  2  0
 17 19  1  0
 19 20  1  0
 20 21  2  0
 21 22  1  0
 22 23  2  0
 23 24  1  0
 20 25  1  0
 24 25  2  0
M  END
