pyridine_urea_6745
     RDKit          3D

 21 22  0  0  0  0  0  0  0  0999 V2000
    8.6180    3.4330   22.1480 C   0  0  0  0  0  0  0  0  0  0  0  0
    9.3040    2.3220   21.5740 O   0  0  0  0  0  0  0  0  0  0  0  0
   10.2900    1.8040   22.3900 C   0  0  0  0  0  0  0  0  0  0  0  0
   11.2550    2.4990   22.7330 O   0  0  0  0  0  0  0  0  0  0  0  0
   10.1090    0.3200   22.8330 C   0  0  1  0  0  0  0  0  0  0  0  0
    8.7580   -0.2900   22.5940 N   0  0  0  0  0  0  0  0  0  0  0  0
    8.1470    0.1640   21.4700 C   0  0  0  0  0  0  0  0  0  0  0  0
    8.5640    1.1610   20.9010 O   0  0  0  0  0  0  0  0  0  0  0  0
    7.0660   -0.5400   21.0530 N   0  0  0  0  0  0  0  0  0  0  0  0
    6.3930    0.0510   19.9960 C   0  0  0  0  0  0  0  0  0  0  0  0
    5.2090    0.7200   20.2420 C   0  0  0  0  0  0  0  0  0  0  0  0
    4.5440    1.3480   19.1930 C   0  0  0  0  0  0  0  0  0  0  0  0
    5.1180    1.2670   17.9240 C   0  0  0  0  0  0  0  0  0  0  0  0
    6.2560    0.6140   17.6740 N   0  0  0  0  0  0  0  0  0  0  0  0
    6.8670    0.0210   18.7080 C   0  0  0  0  0  0  0  0  0  0  0  0
   11.1950   -0.8080   22.5350 C   0  0  0  0  0  0  0  0  0  0  0  0
   12.2830   -0.0450   23.0040 C   0  0  0  0  0  0  0  0  0  0  0  0
   12.0250    0.5430   24.2610 C   0  0  0  0  0  0  0  0  0  0  0  0
   10.5300    0.3320   24.3020 C   0  0  0  0  0  0  0  0  0  0  0  0
    9.6620    1.3410   23.9440 C   0  0  0  0  0  0  0  0  0  0  0  0
    9.9670   -0.5340   25.4190 C   0  0  0  0  0  0  0  0  0  0  0  0
  1  2  1  0
  2  3  1  0
  3  4  2  0
  5  3  1  0
  5  6  1  1
  6  7  1  0
  7  8  2  0
  7  9  1  0
  9 10  1  0
 10 11  2  0
 11 12  1  0
 12 13  2  0
 13 14  1  0
 10 15  1  0
 14 15  2  0
  5 16  1  0
 16 17  1  0
 17 18  1  0
  5 19  1  0
 18 19  1  0
 19 20  1  0
 19 21  1  0
M  END
