pyridine_urea_3650
     RDKit          3D

 16 16  0  0  0  0  0  0  0  0999 V2000
   12.3270    0.5660   23.2330 C   0  0  0  0  0  0  0  0  0  0  0  0
   10.8210    0.2240   23.3460 C   0  0  0  0  0  0  0  0  0  0  0  0
   10.4550   -0.6910   22.2480 C   0  0  2  0  0  0  0  0  0  0  0  0
    9.2120   -1.2030   22.2420 N   0  0  0  0  0  0  0  0  0  0  0  0
    8.3930   -0.3240   21.6080 C   0  0  0  0  0  0  0  0  0  0  0  0
    8.7440    0.8310   21.4070 O   0  0  0  0  0  0  0  0  0  0  0  0
    7.1110   -0.8620   21.1920 N   0  0  0  0  0  0  0  0  0  0  0  0
    6.4790   -0.1750   20.1730 C   0  0  0  0  0  0  0  0  0  0  0  0
    5.1760    0.6090   20.3810 C   0  0  0  0  0  0  0  0  0  0  0  0
    4.5430    1.3610   19.1990 C   0  0  0  0  0  0  0  0  0  0  0  0
    5.1960    1.2940   17.9730 C   0  0  0  0  0  0  0  0  0  0  0  0
    6.3260    0.6210   17.7420 N   0  0  0  0  0  0  0  0  0  0  0  0
    6.9330   -0.0610   18.7240 C   0  0  0  0  0  0  0  0  0  0  0  0
   11.5090   -1.7540   22.2340 C   0  0  0  0  0  0  0  0  0  0  0  0
   11.1740   -2.7260   21.3690 F   0  0  0  0  0  0  0  0  0  0  0  0
   11.6360   -2.3660   23.4440 F   0  0  0  0  0  0  0  0  0  0  0  0
  1  2  1  0
  3  2  1  1
  3  4  1  0
  4  5  1  0
  5  6  2  0
  5  7  1  0
  7  8  1  0
  8  9  2  0
  9 10  1  0
 10 11  2  0
 11 12  1  0
  8 13  1  0
 12 13  2  0
  3 14  1  0
 14 15  1  0
 14 16  1  0
M  END
