pyridine_urea_14695
     RDKit          3D

 20 21  0  0  0  0  0  0  0  0999 V2000
    8.6730    1.6470   24.5520 C   0  0  0  0  0  0  0  0  0  0  0  0
    9.9330    1.0120   24.0080 C   0  0  0  0  0  0  0  0  0  0  0  0
   11.2210    1.0990   23.7140 C   0  0  0  0  0  0  0  0  0  0  0  0
   12.2010    0.1360   23.1280 C   0  0  0  0  0  0  0  0  0  0  0  0
   11.9990   -1.1280   22.7430 F   0  0  0  0  0  0  0  0  0  0  0  0
   13.2430    0.7340   23.0700 C   0  0  0  0  0  0  0  0  0  0  0  0
   11.9440    1.0630   23.5200 C   0  0  0  0  0  0  0  0  0  0  0  0
   10.5570    0.0440   23.5010 C   0  0  0  0  0  0  0  0  0  0  0  0
   10.2340   -1.2530   23.1060 C   0  0  2  0  0  0  0  0  0  0  0  0
   10.6790   -1.5620   21.8270 C   0  0  0  0  0  0  0  0  0  0  0  0
    8.7580   -1.1880   22.8480 N   0  0  0  0  0  0  0  0  0  0  0  0
    8.4350   -0.2950   21.7010 C   0  0  0  0  0  0  0  0  0  0  0  0
    9.0800    0.6960   21.3980 O   0  0  0  0  0  0  0  0  0  0  0  0
    7.2890   -0.7470   21.0480 N   0  0  0  0  0  0  0  0  0  0  0  0
    6.5280   -0.0370   20.0910 C   0  0  0  0  0  0  0  0  0  0  0  0
    5.2770    0.7320   20.3630 C   0  0  0  0  0  0  0  0  0  0  0  0
    4.6610    1.3840   19.2830 C   0  0  0  0  0  0  0  0  0  0  0  0
    5.2370    1.2840   18.0260 C   0  0  0  0  0  0  0  0  0  0  0  0
    6.3580    0.5930   17.7590 N   0  0  0  0  0  0  0  0  0  0  0  0
    6.9670   -0.0440   18.7820 C   0  0  0  0  0  0  0  0  0  0  0  0
  1  2  1  0
  2  3  2  0
  3  4  1  0
  4  5  1  0
  4  6  2  0
  6  7  1  0
  2  8  1  0
  7  8  2  0
  8  9  1  0
  9 10  1  6
  9 11  1  0
 11 12  1  0
 12 13  2  0
 12 14  1  0
 14 15  1  0
 15 16  2  0
 16 17  1  0
 17 18  2  0
 18 19  1  0
 15 20  1  0
 19 20  2  0
M  END
