pyridine_urea_10999
     RDKit          3D

 19 20  0  0  0  0  0  0  0  0999 V2000
   12.5750    4.6100   21.4620 C   0  0  0  0  0  0  0  0  0  0  0  0
   12.7450    3.6100   22.5600 C   0  0  0  0  0  0  0  0  0  0  0  0
   12.0130    2.6270   22.4130 O   0  0  0  0  0  0  0  0  0  0  0  0
   10.9030    2.6600   23.1810 C   0  0  0  0  0  0  0  0  0  0  0  0
   10.7240    3.4930   24.0590 O   0  0  0  0  0  0  0  0  0  0  0  0
    9.9770    1.6610   22.8290 C   0  0  0  0  0  0  0  0  0  0  0  0
   10.1720    0.2330   22.9090 C   0  0  0  0  0  0  0  0  0  0  0  0
    9.1620   -0.6400   22.3970 N   0  0  0  0  0  0  0  0  0  0  0  0
    8.4010    0.0070   21.4430 C   0  0  0  0  0  0  0  0  0  0  0  0
    8.7160    1.2840   21.0200 O   0  0  0  0  0  0  0  0  0  0  0  0
    7.3150   -0.6900   20.9810 N   0  0  0  0  0  0  0  0  0  0  0  0
    6.4940   -0.0370   20.0500 C   0  0  0  0  0  0  0  0  0  0  0  0
    5.1870    0.6910   20.3290 C   0  0  0  0  0  0  0  0  0  0  0  0
    4.5500    1.3000   19.2570 C   0  0  0  0  0  0  0  0  0  0  0  0
    5.1290    1.2170   17.9880 C   0  0  0  0  0  0  0  0  0  0  0  0
    6.2740    0.5730   17.7150 N   0  0  0  0  0  0  0  0  0  0  0  0
    6.9010   -0.0200   18.7390 C   0  0  0  0  0  0  0  0  0  0  0  0
   11.4130   -0.2820   22.4510 C   0  0  0  0  0  0  0  0  0  0  0  0
   11.5350   -0.4420   23.6970 C   0  0  0  0  0  0  0  0  0  0  0  0
  1  2  1  0
  2  3  1  0
  3  4  1  0
  4  5  2  0
  4  6  1  0
  6  7  1  0
  7  8  1  0
  8  9  1  0
  9 10  2  0
  9 11  1  0
 11 12  1  0
 12 13  2  0
 13 14  1  0
 14 15  2  0
 15 16  1  0
 12 17  1  0
 16 17  2  0
  7 18  1  0
  7 19  1  0
 18 19  1  0
M  END
