pyridine_urea_504
     RDKit          3D

 25 27  0  0  0  0  0  0  0  0999 V2000
    8.8800    1.4490   20.9940 O   0  0  0  0  0  0  0  0  0  0  0  0
    8.6750    0.3530   21.3990 C   0  0  0  0  0  0  0  0  0  0  0  0
    9.7180   -0.2540   22.0930 N   0  0  0  0  0  0  0  0  0  0  0  0
   10.2020   -0.0530   23.3840 C   0  0  0  0  0  0  0  0  0  0  0  0
   11.8760    0.2920   23.7770 C   0  0  0  0  0  0  0  0  0  0  0  0
   12.3570   -0.8190   22.8280 C   0  0  0  0  0  0  0  0  0  0  0  0
   12.6260    0.0230   23.5590 C   0  0  0  0  0  0  0  0  0  0  0  0
   11.1210    0.3950   23.8630 C   0  0  0  0  0  0  0  0  0  0  0  0
    9.6280   -0.0450   23.5170 C   0  0  0  0  0  0  0  0  0  0  0  0
    9.5880   -1.2520   22.6800 N   0  0  0  0  0  0  0  0  0  0  0  0
   10.8620   -1.3720   21.9510 C   0  0  0  0  0  0  0  0  0  0  0  0
   11.6010   -0.5170   21.5320 O   0  0  0  0  0  0  0  0  0  0  0  0
   11.1130   -2.7020   21.7040 C   0  0  0  0  0  0  0  0  0  0  0  0
   10.1810   -3.4130   22.4370 N   0  0  0  0  0  0  0  0  0  0  0  0
    9.2370   -2.5260   22.9830 C   0  0  0  0  0  0  0  0  0  0  0  0
    8.2560   -2.9110   23.5690 O   0  0  0  0  0  0  0  0  0  0  0  0
   11.5790    1.1520   24.5110 C   0  0  0  0  0  0  0  0  0  0  0  0
   12.6500    0.4510   23.9580 C   0  0  0  0  0  0  0  0  0  0  0  0
    7.4970   -0.3440   21.0590 N   0  0  0  0  0  0  0  0  0  0  0  0
    6.6530    0.1160   20.0520 C   0  0  0  0  0  0  0  0  0  0  0  0
    5.4380    0.5900   20.3700 C   0  0  0  0  0  0  0  0  0  0  0  0
    4.5850    1.0800   19.3970 C   0  0  0  0  0  0  0  0  0  0  0  0
    5.0080    1.0980   18.0390 C   0  0  0  0  0  0  0  0  0  0  0  0
    6.2140    0.6290   17.6250 N   0  0  0  0  0  0  0  0  0  0  0  0
    7.0120    0.1130   18.7400 C   0  0  0  0  0  0  0  0  0  0  0  0
  1  2  2  0
  2  3  1  0
  3  4  1  0
  4  5  1  0
  5  6  2  0
  6  7  1  0
  7  8  2  0
  8  9  1  0
  9 10  1  0
 10 11  1  0
 11 12  2  0
 11 13  1  0
 13 14  1  0
 10 15  1  0
 14 15  1  0
 15 16  2  0
  8 17  1  0
  5 18  1  0
 17 18  2  0
  2 19  1  0
 19 20  1  0
 20 21  2  0
 21 22  1  0
 22 23  2  0
 23 24  1  0
 20 25  1  0
 24 25  2  0
M  END
