pyridine_urea_14282
     RDKit          3D

 22 23  0  0  0  0  0  0  0  0999 V2000
   12.2700    1.6070   23.2290 C   0  0  0  0  0  0  0  0  0  0  0  0
   12.5450    0.1390   23.3100 C   0  0  0  0  0  0  0  0  0  0  0  0
   13.1430   -0.6500   22.3190 C   0  0  0  0  0  0  0  0  0  0  0  0
   13.3360   -2.0080   22.4850 C   0  0  0  0  0  0  0  0  0  0  0  0
   13.3240   -2.5330   23.7590 C   0  0  0  0  0  0  0  0  0  0  0  0
   13.0770   -1.6350   24.8840 C   0  0  0  0  0  0  0  0  0  0  0  0
   13.6190   -1.8290   25.9460 O   0  0  0  0  0  0  0  0  0  0  0  0
   12.1670   -0.5730   24.5220 N   0  0  0  0  0  0  0  0  0  0  0  0
   10.8410   -0.5390   24.8430 C   0  0  0  0  0  0  0  0  0  0  0  0
   10.6490   -1.9140   24.1890 C   0  0  0  0  0  0  0  0  0  0  0  0
   10.7520   -1.8620   22.8100 C   0  0  0  0  0  0  0  0  0  0  0  0
    9.5200   -2.1640   22.2530 C   0  0  0  0  0  0  0  0  0  0  0  0
    8.6660   -1.1030   22.4970 N   0  0  0  0  0  0  0  0  0  0  0  0
    8.1790   -0.2490   21.5390 C   0  0  0  0  0  0  0  0  0  0  0  0
    8.7070    0.8200   21.2580 O   0  0  0  0  0  0  0  0  0  0  0  0
    7.0630   -0.7770   21.0000 N   0  0  0  0  0  0  0  0  0  0  0  0
    6.4220   -0.0580   20.0540 C   0  0  0  0  0  0  0  0  0  0  0  0
    5.2620    0.6920   20.2340 C   0  0  0  0  0  0  0  0  0  0  0  0
    4.6810    1.4030   19.1810 C   0  0  0  0  0  0  0  0  0  0  0  0
    5.2250    1.4050   17.9090 C   0  0  0  0  0  0  0  0  0  0  0  0
    6.3530    0.6840   17.6970 N   0  0  0  0  0  0  0  0  0  0  0  0
    6.9500   -0.0500   18.7730 C   0  0  0  0  0  0  0  0  0  0  0  0
  1  2  1  0
  2  3  2  0
  3  4  1  0
  4  5  2  0
  5  6  1  0
  6  7  2  0
  2  8  1  0
  6  8  1  0
  8  9  1  0
  9 10  1  0
 10 11  1  0
 11 12  1  0
 12 13  1  0
 13 14  1  0
 14 15  2  0
 14 16  1  0
 16 17  1  0
 17 18  2  0
 18 19  1  0
 19 20  2  0
 20 21  1  0
 17 22  1  0
 21 22  2  0
M  END
