pyridine_urea_12625
     RDKit          3D

 21 22  0  0  0  0  0  0  0  0999 V2000
    9.9720   -0.0270   25.8030 C   0  0  0  0  0  0  0  0  0  0  0  0
   10.7790   -0.4530   24.5700 C   0  0  0  0  0  0  0  0  0  0  0  0
    9.7890   -0.5580   23.4800 C   0  0  0  0  0  0  0  0  0  0  0  0
   10.1390   -0.9540   22.2510 C   0  0  0  0  0  0  0  0  0  0  0  0
    9.1750   -1.0690   21.2390 N   0  0  0  0  0  0  0  0  0  0  0  0
    8.2770   -0.0670   21.1990 C   0  0  0  0  0  0  0  0  0  0  0  0
    8.6190    1.1000   21.3210 O   0  0  0  0  0  0  0  0  0  0  0  0
    7.0160   -0.5180   20.9780 N   0  0  0  0  0  0  0  0  0  0  0  0
    6.2860    0.1350   20.0060 C   0  0  0  0  0  0  0  0  0  0  0  0
    5.0910    0.8150   20.1560 C   0  0  0  0  0  0  0  0  0  0  0  0
    4.5320    1.4320   19.0630 C   0  0  0  0  0  0  0  0  0  0  0  0
    5.1500    1.3730   17.8500 C   0  0  0  0  0  0  0  0  0  0  0  0
    6.3010    0.7190   17.6460 N   0  0  0  0  0  0  0  0  0  0  0  0
    6.8370    0.1160   18.7310 C   0  0  0  0  0  0  0  0  0  0  0  0
   11.4520   -1.2600   21.9460 C   0  0  0  0  0  0  0  0  0  0  0  0
   12.4520   -1.1370   23.0240 C   0  0  0  0  0  0  0  0  0  0  0  0
   12.1210   -0.7580   24.3110 C   0  0  0  0  0  0  0  0  0  0  0  0
   12.9620   -0.7610   25.1340 O   0  0  0  0  0  0  0  0  0  0  0  0
   13.0900   -2.1780   25.1530 C   0  0  0  0  0  0  0  0  0  0  0  0
   13.4400   -2.5790   23.8960 C   0  0  0  0  0  0  0  0  0  0  0  0
   14.2270   -2.5770   26.0310 C   0  0  0  0  0  0  0  0  0  0  0  0
  1  2  1  0
  2  3  2  0
  3  4  1  0
  4  5  1  0
  5  6  1  0
  6  7  2  0
  6  8  1  0
  8  9  1  0
  9 10  2  0
 10 11  1  0
 11 12  2  0
 12 13  1  0
  9 14  1  0
 13 14  2  0
  4 15  2  0
 15 16  1  0
  2 17  1  0
 16 17  2  0
 17 18  1  0
 18 19  1  0
 19 20  1  0
 19 21  1  0
M  END
