pyridine_urea_1203
     RDKit          3D

 21 22  0  0  0  0  0  0  0  0999 V2000
    9.6430   -0.1040   25.8880 C   0  0  0  0  0  0  0  0  0  0  0  0
    9.7140    0.5240   24.4930 C   0  0  0  0  0  0  0  0  0  0  0  0
    8.6790    1.6520   24.3360 C   0  0  0  0  0  0  0  0  0  0  0  0
    9.4410   -0.6290   23.4970 C   0  0  0  0  0  0  0  0  0  0  0  0
    8.2110   -0.5300   22.7780 N   0  0  0  0  0  0  0  0  0  0  0  0
    8.1440    0.0920   21.5650 C   0  0  0  0  0  0  0  0  0  0  0  0
    8.8550    1.0500   21.2130 O   0  0  0  0  0  0  0  0  0  0  0  0
    7.1630   -0.5200   20.8490 N   0  0  0  0  0  0  0  0  0  0  0  0
    6.4000    0.1520   19.9160 C   0  0  0  0  0  0  0  0  0  0  0  0
    5.2060    0.8170   20.1620 C   0  0  0  0  0  0  0  0  0  0  0  0
    4.5670    1.4660   19.1060 C   0  0  0  0  0  0  0  0  0  0  0  0
    5.1560    1.4140   17.8610 C   0  0  0  0  0  0  0  0  0  0  0  0
    6.3030    0.7650   17.6150 N   0  0  0  0  0  0  0  0  0  0  0  0
    6.8860    0.1560   18.6440 C   0  0  0  0  0  0  0  0  0  0  0  0
   11.1350    0.9330   24.1160 C   0  0  0  0  0  0  0  0  0  0  0  0
   12.4760    0.7880   23.4310 C   0  0  0  0  0  0  0  0  0  0  0  0
   13.1140   -0.1000   22.6060 C   0  0  0  0  0  0  0  0  0  0  0  0
   12.4020   -1.2350   22.2400 C   0  0  0  0  0  0  0  0  0  0  0  0
   13.0630   -2.5570   21.1290 Br  0  0  0  0  0  0  0  0  0  0  0  0
   11.2030   -1.3440   22.7250 C   0  0  0  0  0  0  0  0  0  0  0  0
   10.6620   -0.2850   23.6040 C   0  0  0  0  0  0  0  0  0  0  0  0
  2  1  1  0
  2  3  1  0
  2  4  1  0
  4  5  1  0
  5  6  1  0
  6  7  2  0
  6  8  1  0
  8  9  1  0
  9 10  2  0
 10 11  1  0
 11 12  2  0
 12 13  1  0
  9 14  1  0
 13 14  2  0
  2 15  1  0
 15 16  2  0
 16 17  1  0
 17 18  2  0
 18 19  1  0
 18 20  1  0
 15 21  1  0
 20 21  2  0
M  END
