pyridine_urea_11071
     RDKit          3D

 18 19  0  0  0  0  0  0  0  0999 V2000
   10.1310   -2.4050   22.7430 C   0  0  0  0  0  0  0  0  0  0  0  0
    9.4620   -1.2680   23.4600 C   0  0  2  0  0  0  0  0  0  0  0  0
    8.1700   -0.9570   22.9270 N   0  0  0  0  0  0  0  0  0  0  0  0
    8.0700   -0.3110   21.7220 C   0  0  0  0  0  0  0  0  0  0  0  0
    8.8530    0.5430   21.3350 O   0  0  0  0  0  0  0  0  0  0  0  0
    6.9700   -0.7600   21.0580 N   0  0  0  0  0  0  0  0  0  0  0  0
    6.3450   -0.0150   19.9550 C   0  0  0  0  0  0  0  0  0  0  0  0
    5.1610    0.6590   20.2310 C   0  0  0  0  0  0  0  0  0  0  0  0
    4.4860    1.4430   19.1680 C   0  0  0  0  0  0  0  0  0  0  0  0
    5.2080    1.4130   17.8430 C   0  0  0  0  0  0  0  0  0  0  0  0
    6.3590    0.7310   17.6430 N   0  0  0  0  0  0  0  0  0  0  0  0
    6.8880    0.0430   18.6870 C   0  0  0  0  0  0  0  0  0  0  0  0
   10.3750   -0.1520   23.2330 C   0  0  0  0  0  0  0  0  0  0  0  0
   11.6580   -0.5840   23.2700 C   0  0  0  0  0  0  0  0  0  0  0  0
   12.0700    0.6620   22.9890 N   0  0  0  0  0  0  0  0  0  0  0  0
   13.4150    0.9240   22.8590 C   0  0  0  0  0  0  0  0  0  0  0  0
   11.1760    1.6820   22.8290 N   0  0  0  0  0  0  0  0  0  0  0  0
   10.0090    1.1020   23.0010 N   0  0  0  0  0  0  0  0  0  0  0  0
  2  1  1  6
  2  3  1  0
  3  4  1  0
  4  5  2  0
  4  6  1  0
  6  7  1  0
  7  8  2  0
  8  9  1  0
  9 10  2  0
 10 11  1  0
  7 12  1  0
 11 12  2  0
  2 13  1  0
 13 14  2  0
 14 15  1  0
 15 16  1  0
 15 17  1  0
 13 18  1  0
 17 18  2  0
M  END
