pyridine_urea_3869
     RDKit          3D

 22 24  0  0  0  0  0  0  0  0999 V2000
    8.7600    0.4780   21.3210 O   0  0  0  0  0  0  0  0  0  0  0  0
    8.3070   -0.6320   21.5830 C   0  0  0  0  0  0  0  0  0  0  0  0
    7.1200   -1.0760   21.0580 N   0  0  0  0  0  0  0  0  0  0  0  0
    6.4660   -0.3110   20.0570 C   0  0  0  0  0  0  0  0  0  0  0  0
    5.2650    0.3630   20.3450 C   0  0  0  0  0  0  0  0  0  0  0  0
    4.6330    1.1280   19.3510 C   0  0  0  0  0  0  0  0  0  0  0  0
    5.2170    1.1970   18.1020 C   0  0  0  0  0  0  0  0  0  0  0  0
    6.3600    0.5600   17.8050 N   0  0  0  0  0  0  0  0  0  0  0  0
    6.9520   -0.1720   18.7730 C   0  0  0  0  0  0  0  0  0  0  0  0
    9.0420   -1.4490   22.4460 N   0  0  0  0  0  0  0  0  0  0  0  0
   10.1630   -0.5990   22.7540 C   0  0  0  0  0  0  0  0  0  0  0  0
   11.5780   -0.9780   22.2660 C   0  0  0  0  0  0  0  0  0  0  0  0
   12.5900   -0.0760   22.4890 C   0  0  0  0  0  0  0  0  0  0  0  0
   12.2420    1.1060   23.1230 C   0  0  0  0  0  0  0  0  0  0  0  0
   12.9830    2.1860   23.3740 O   0  0  0  0  0  0  0  0  0  0  0  0
   12.0240    3.1490   23.0650 C   0  0  0  0  0  0  0  0  0  0  0  0
   12.5130    4.1320   22.2120 C   0  0  0  0  0  0  0  0  0  0  0  0
   13.4330    4.9060   22.6330 C   0  0  0  0  0  0  0  0  0  0  0  0
   12.0140    5.5340   22.5900 C   0  0  0  0  0  0  0  0  0  0  0  0
   10.8630    1.4430   23.6480 C   0  0  0  0  0  0  0  0  0  0  0  0
    9.7300    0.6790   23.5450 C   0  0  0  0  0  0  0  0  0  0  0  0
    7.8460    1.2600   24.2890 I   0  0  0  0  0  0  0  0  0  0  0  0
  1  2  2  0
  2  3  1  0
  3  4  1  0
  4  5  2  0
  5  6  1  0
  6  7  2  0
  7  8  1  0
  4  9  1  0
  8  9  2  0
  2 10  1  0
 10 11  1  0
 11 12  2  0
 12 13  1  0
 13 14  2  0
 14 15  1  0
 15 16  1  0
 16 17  1  0
 17 18  1  0
 17 19  1  0
 18 19  1  0
 14 20  1  0
 11 21  1  0
 20 21  2  0
 21 22  1  0
M  END
