pyridine_urea_10893
     RDKit          3D

 20 21  0  0  0  0  0  0  0  0999 V2000
   13.2710   -0.6440   24.3190 C   0  0  0  0  0  0  0  0  0  0  0  0
   13.1340   -1.9790   23.9750 N   0  0  0  0  0  0  0  0  0  0  0  0
   13.2140   -2.8800   25.0080 C   0  0  0  0  0  0  0  0  0  0  0  0
   11.9810   -1.6450   23.5620 C   0  0  0  0  0  0  0  0  0  0  0  0
   11.0680   -1.3940   24.5320 C   0  0  0  0  0  0  0  0  0  0  0  0
    9.8260   -0.9960   24.2560 C   0  0  0  0  0  0  0  0  0  0  0  0
    9.5020   -0.8350   22.8590 C   0  0  0  0  0  0  0  0  0  0  0  0
    8.2720   -0.4260   22.5870 N   0  0  0  0  0  0  0  0  0  0  0  0
    7.9630    0.1820   21.3990 C   0  0  0  0  0  0  0  0  0  0  0  0
    8.5270    1.2060   20.9780 O   0  0  0  0  0  0  0  0  0  0  0  0
    6.9850   -0.5350   20.8350 N   0  0  0  0  0  0  0  0  0  0  0  0
    6.3330    0.1400   19.9060 C   0  0  0  0  0  0  0  0  0  0  0  0
    5.1500    0.8520   20.0950 C   0  0  0  0  0  0  0  0  0  0  0  0
    4.5750    1.5400   19.0150 C   0  0  0  0  0  0  0  0  0  0  0  0
    5.1510    1.5370   17.7560 C   0  0  0  0  0  0  0  0  0  0  0  0
    6.3270    0.8060   17.6140 N   0  0  0  0  0  0  0  0  0  0  0  0
    6.8960    0.1260   18.6650 C   0  0  0  0  0  0  0  0  0  0  0  0
   10.5590   -1.1340   21.8380 C   0  0  0  0  0  0  0  0  0  0  0  0
   11.8060   -1.5490   22.2280 C   0  0  0  0  0  0  0  0  0  0  0  0
   13.0840   -1.9310   21.1680 Cl  0  0  0  0  0  0  0  0  0  0  0  0
  1  2  1  0
  2  3  1  0
  2  4  1  0
  4  5  2  0
  5  6  1  0
  6  7  2  0
  7  8  1  0
  8  9  1  0
  9 10  2  0
  9 11  1  0
 11 12  1  0
 12 13  2  0
 13 14  1  0
 14 15  2  0
 15 16  1  0
 12 17  1  0
 16 17  2  0
  7 18  1  0
  4 19  1  0
 18 19  2  0
 19 20  1  0
M  END
