pyridine_urea_15258
     RDKit          3D

 16 16  0  0  0  0  0  0  0  0999 V2000
    8.8900    0.8990   21.4310 O   0  0  0  0  0  0  0  0  0  0  0  0
    8.5750   -0.2810   21.3750 C   0  0  0  0  0  0  0  0  0  0  0  0
    7.2800   -0.7170   21.1320 N   0  0  0  0  0  0  0  0  0  0  0  0
    6.5670   -0.0340   20.0770 C   0  0  0  0  0  0  0  0  0  0  0  0
    5.2930    0.7290   20.4540 C   0  0  0  0  0  0  0  0  0  0  0  0
    4.5530    1.4600   19.3310 C   0  0  0  0  0  0  0  0  0  0  0  0
    5.1810    1.3470   17.9440 C   0  0  0  0  0  0  0  0  0  0  0  0
    6.3500    0.6020   17.7660 N   0  0  0  0  0  0  0  0  0  0  0  0
    6.9980   -0.0510   18.7750 C   0  0  0  0  0  0  0  0  0  0  0  0
    9.4800   -1.3180   21.5160 N   0  0  0  0  0  0  0  0  0  0  0  0
   10.3280   -1.3930   22.6440 C   0  0  2  0  0  0  0  0  0  0  0  0
   10.0140   -0.6270   23.7180 C   0  0  0  0  0  0  0  0  0  0  0  0
   10.0810   -1.2770   24.9050 O   0  0  0  0  0  0  0  0  0  0  0  0
   11.7600   -0.9660   22.2470 C   0  0  0  0  0  0  0  0  0  0  0  0
   12.6350   -1.1770   23.2900 C   0  0  0  0  0  0  0  0  0  0  0  0
   12.7260   -2.3860   23.4230 O   0  0  0  0  0  0  0  0  0  0  0  0
  1  2  2  0
  2  3  1  0
  3  4  1  0
  4  5  2  0
  5  6  1  0
  6  7  2  0
  7  8  1  0
  4  9  1  0
  8  9  2  0
  2 10  1  0
 10 11  1  0
 11 12  1  1
 12 13  1  0
 11 14  1  0
 14 15  1  0
 15 16  1  0
M  END
