pyridine_urea_2196
     RDKit          3D

 26 28  0  0  0  0  0  0  0  0999 V2000
   12.8300    0.8590   22.9730 C   0  0  0  0  0  0  0  0  0  0  0  0
   11.4860    0.7570   22.4950 O   0  0  0  0  0  0  0  0  0  0  0  0
   11.0940   -0.5210   22.1330 C   0  0  0  0  0  0  0  0  0  0  0  0
   11.8640   -1.3550   21.6790 O   0  0  0  0  0  0  0  0  0  0  0  0
    9.6050   -0.7620   22.3590 C   0  0  1  0  0  0  0  0  0  0  0  0
    9.1050    0.4110   23.1760 C   0  0  0  0  0  0  0  0  0  0  0  0
    9.8920   -0.0010   24.2570 C   0  0  0  0  0  0  0  0  0  0  0  0
    9.7660    0.1870   25.5420 C   0  0  0  0  0  0  0  0  0  0  0  0
   10.7670   -0.4500   26.0780 N   0  0  0  0  0  0  0  0  0  0  0  0
   11.6190   -1.0980   25.1750 C   0  0  0  0  0  0  0  0  0  0  0  0
   12.8050   -1.8970   25.2030 C   0  0  0  0  0  0  0  0  0  0  0  0
   13.3280   -2.3910   24.0170 C   0  0  0  0  0  0  0  0  0  0  0  0
   12.6940   -2.0920   22.8370 C   0  0  0  0  0  0  0  0  0  0  0  0
   13.1340   -2.6320   21.1130 Br  0  0  0  0  0  0  0  0  0  0  0  0
   11.5840   -1.3100   22.8310 C   0  0  0  0  0  0  0  0  0  0  0  0
   11.0320   -0.8050   24.0010 C   0  0  0  0  0  0  0  0  0  0  0  0
    8.8810   -0.9170   21.2760 N   0  0  0  0  0  0  0  0  0  0  0  0
    8.1020    0.1410   21.0880 C   0  0  0  0  0  0  0  0  0  0  0  0
    8.6110    1.4730   21.0190 O   0  0  0  0  0  0  0  0  0  0  0  0
    6.8180   -0.2510   20.9610 N   0  0  0  0  0  0  0  0  0  0  0  0
    6.2130    0.3230   19.8970 C   0  0  0  0  0  0  0  0  0  0  0  0
    5.0480    1.0390   20.0450 C   0  0  0  0  0  0  0  0  0  0  0  0
    4.4800    1.6420   18.9600 C   0  0  0  0  0  0  0  0  0  0  0  0
    5.1000    1.5030   17.7530 C   0  0  0  0  0  0  0  0  0  0  0  0
    6.2260    0.8040   17.5490 N   0  0  0  0  0  0  0  0  0  0  0  0
    6.7580    0.2290   18.6380 C   0  0  0  0  0  0  0  0  0  0  0  0
  1  2  1  0
  2  3  1  0
  3  4  2  0
  3  5  1  0
  5  6  1  6
  6  7  1  0
  7  8  2  0
  8  9  1  0
  9 10  1  0
 10 11  1  0
 11 12  2  0
 12 13  1  0
 13 14  1  0
 13 15  2  0
  7 16  1  0
 10 16  2  0
 15 16  1  0
  5 17  1  0
 17 18  1  0
 18 19  2  0
 18 20  1  0
 20 21  1  0
 21 22  2  0
 22 23  1  0
 23 24  2  0
 24 25  1  0
 21 26  1  0
 25 26  2  0
M  END
