pyridine_urea_9868
     RDKit          3D

 25 26  0  0  0  0  0  0  0  0999 V2000
   11.6290   -3.0080   24.4750 C   0  0  0  0  0  0  0  0  0  0  0  0
   10.8580   -1.8520   24.7940 O   0  0  0  0  0  0  0  0  0  0  0  0
    9.7260   -1.6520   23.9230 C   0  0  0  0  0  0  0  0  0  0  0  0
    9.2380   -2.5240   23.2040 O   0  0  0  0  0  0  0  0  0  0  0  0
    9.1730   -0.2130   24.0530 C   0  0  2  0  0  0  0  0  0  0  0  0
    8.1870    0.1770   23.1970 N   0  0  0  0  0  0  0  0  0  0  0  0
    8.3040    0.3700   21.8610 C   0  0  0  0  0  0  0  0  0  0  0  0
    9.1540    1.3780   21.2910 O   0  0  0  0  0  0  0  0  0  0  0  0
    7.4110   -0.5270   21.1460 N   0  0  0  0  0  0  0  0  0  0  0  0
    6.6750    0.0480   20.1450 C   0  0  0  0  0  0  0  0  0  0  0  0
    5.3870    0.8350   20.3990 C   0  0  0  0  0  0  0  0  0  0  0  0
    4.6100    1.4770   19.2460 C   0  0  0  0  0  0  0  0  0  0  0  0
    5.1400    1.3020   17.9760 C   0  0  0  0  0  0  0  0  0  0  0  0
    6.2510    0.6180   17.6900 N   0  0  0  0  0  0  0  0  0  0  0  0
    6.9740    0.0320   18.6580 C   0  0  0  0  0  0  0  0  0  0  0  0
   10.3440    0.7370   24.0290 C   0  0  0  0  0  0  0  0  0  0  0  0
   11.6850    1.1290   23.6630 C   0  0  0  0  0  0  0  0  0  0  0  0
   12.7010    0.5050   22.9240 C   0  0  0  0  0  0  0  0  0  0  0  0
   12.4320   -0.7920   22.3600 C   0  0  0  0  0  0  0  0  0  0  0  0
   13.1100   -1.6830   21.6210 C   0  0  0  0  0  0  0  0  0  0  0  0
   13.9470   -1.2350   20.6890 F   0  0  0  0  0  0  0  0  0  0  0  0
   13.6400   -2.6140   22.4270 F   0  0  0  0  0  0  0  0  0  0  0  0
   12.2100   -2.3210   20.8720 F   0  0  0  0  0  0  0  0  0  0  0  0
   11.1300   -1.3120   22.6200 C   0  0  0  0  0  0  0  0  0  0  0  0
   10.3300   -0.5270   23.3710 C   0  0  0  0  0  0  0  0  0  0  0  0
  1  2  1  0
  2  3  1  0
  3  4  2  0
  3  5  1  0
  5  6  1  6
  6  7  1  0
  7  8  2  0
  7  9  1  0
  9 10  1  0
 10 11  2  0
 11 12  1  0
 12 13  2  0
 13 14  1  0
 10 15  1  0
 14 15  2  0
  5 16  1  0
 16 17  2  0
 17 18  1  0
 18 19  2  0
 19 20  1  0
 20 21  1  0
 20 22  1  0
 20 23  1  0
 19 24  1  0
 16 25  1  0
 24 25  2  0
M  END
