pyridine_urea_4791
     RDKit          3D

 22 24  0  0  0  0  0  0  0  0999 V2000
    7.7150   -2.0560   21.2960 O   0  0  0  0  0  0  0  0  0  0  0  0
    8.0050   -0.9650   21.6120 C   0  0  0  0  0  0  0  0  0  0  0  0
    7.1170    0.0530   21.4940 N   0  0  0  0  0  0  0  0  0  0  0  0
    6.5740    0.3780   20.1960 C   0  0  0  0  0  0  0  0  0  0  0  0
    5.3480    1.2980   20.2580 C   0  0  0  0  0  0  0  0  0  0  0  0
    4.7140    1.7150   19.0990 C   0  0  0  0  0  0  0  0  0  0  0  0
    5.2290    1.2740   17.8890 C   0  0  0  0  0  0  0  0  0  0  0  0
    6.3240    0.4450   17.8640 N   0  0  0  0  0  0  0  0  0  0  0  0
    7.0140   -0.0240   18.9880 C   0  0  0  0  0  0  0  0  0  0  0  0
    9.2080   -0.6040   22.0910 N   0  0  0  0  0  0  0  0  0  0  0  0
   10.4380   -0.2060   22.4140 C   0  0  0  0  0  0  0  0  0  0  0  0
   11.4630   -1.1520   22.3320 C   0  0  0  0  0  0  0  0  0  0  0  0
   12.7510   -0.7540   22.6280 C   0  0  0  0  0  0  0  0  0  0  0  0
   12.9990    0.5640   22.9950 C   0  0  0  0  0  0  0  0  0  0  0  0
   11.9680    1.5050   23.0800 C   0  0  0  0  0  0  0  0  0  0  0  0
   12.2640    2.6400   23.4020 O   0  0  0  0  0  0  0  0  0  0  0  0
   11.6630    3.7500   22.7420 C   0  0  0  0  0  0  0  0  0  0  0  0
   10.9780    4.5020   23.6920 C   0  0  0  0  0  0  0  0  0  0  0  0
   11.6810    5.7300   23.7640 C   0  0  0  0  0  0  0  0  0  0  0  0
   12.2210    5.8120   22.5120 C   0  0  0  0  0  0  0  0  0  0  0  0
   12.6690    4.4380   22.0560 C   0  0  0  0  0  0  0  0  0  0  0  0
   10.6860    1.0860   22.7870 C   0  0  0  0  0  0  0  0  0  0  0  0
  1  2  2  0
  2  3  1  0
  3  4  1  0
  4  5  2  0
  5  6  1  0
  6  7  2  0
  7  8  1  0
  4  9  1  0
  8  9  2  0
  2 10  1  0
 10 11  1  0
 11 12  2  0
 12 13  1  0
 13 14  2  0
 14 15  1  0
 15 16  1  0
 16 17  1  0
 17 18  1  0
 18 19  1  0
 19 20  1  0
 17 21  1  0
 20 21  1  0
 11 22  1  0
 15 22  2  0
M  END
