pyridine_urea_1888
     RDKit          3D

 18 19  0  0  0  0  0  0  0  0999 V2000
    8.9000    1.1970   21.2190 O   0  0  0  0  0  0  0  0  0  0  0  0
    8.4300    0.1060   21.5830 C   0  0  0  0  0  0  0  0  0  0  0  0
    8.9120   -0.6690   22.6150 N   0  0  0  0  0  0  0  0  0  0  0  0
    9.3690   -0.2140   23.8710 C   0  0  0  0  0  0  0  0  0  0  0  0
   10.5930    0.4450   23.8950 C   0  0  2  0  0  0  0  0  0  0  0  0
   10.4260    1.6330   24.4720 F   0  0  0  0  0  0  0  0  0  0  0  0
   11.1510    0.4930   22.6670 C   0  0  0  0  0  0  0  0  0  0  0  0
   11.9850   -0.5010   23.0140 C   0  0  1  0  0  0  0  0  0  0  0  0
   13.3240   -0.4520   22.7720 C   0  0  0  0  0  0  0  0  0  0  0  0
   13.5020   -1.2620   21.8710 O   0  0  0  0  0  0  0  0  0  0  0  0
   11.6340   -0.3150   24.5100 C   0  0  0  0  0  0  0  0  0  0  0  0
    7.3300   -0.5000   21.0240 N   0  0  0  0  0  0  0  0  0  0  0  0
    6.4900    0.1550   20.0250 C   0  0  0  0  0  0  0  0  0  0  0  0
    5.3240    0.8570   20.2860 C   0  0  0  0  0  0  0  0  0  0  0  0
    4.6300    1.4530   19.2350 C   0  0  0  0  0  0  0  0  0  0  0  0
    5.1450    1.3130   17.9610 C   0  0  0  0  0  0  0  0  0  0  0  0
    6.2620    0.6310   17.6820 N   0  0  0  0  0  0  0  0  0  0  0  0
    6.9050    0.0700   18.7140 C   0  0  0  0  0  0  0  0  0  0  0  0
  1  2  2  0
  2  3  1  0
  3  4  1  0
  4  5  1  0
  5  6  1  1
  5  7  1  0
  7  8  1  0
  8  9  1  1
  9 10  1  0
  5 11  1  0
  8 11  1  0
  2 12  1  0
 12 13  1  0
 13 14  2  0
 14 15  1  0
 15 16  2  0
 16 17  1  0
 13 18  1  0
 17 18  2  0
M  END
