pyridine_urea_3521
     RDKit          3D

 17 17  0  0  0  0  0  0  0  0999 V2000
    8.7390    0.9040   21.2650 O   0  0  0  0  0  0  0  0  0  0  0  0
    8.4230   -0.2740   21.3750 C   0  0  0  0  0  0  0  0  0  0  0  0
    7.1650   -0.7560   21.0800 N   0  0  0  0  0  0  0  0  0  0  0  0
    6.4850   -0.0530   20.0280 C   0  0  0  0  0  0  0  0  0  0  0  0
    5.2050    0.7000   20.3900 C   0  0  0  0  0  0  0  0  0  0  0  0
    4.5000    1.4600   19.2690 C   0  0  0  0  0  0  0  0  0  0  0  0
    5.1660    1.3800   17.8950 C   0  0  0  0  0  0  0  0  0  0  0  0
    6.3400    0.6350   17.7340 N   0  0  0  0  0  0  0  0  0  0  0  0
    6.9580   -0.0420   18.7410 C   0  0  0  0  0  0  0  0  0  0  0  0
    9.2820   -1.2610   21.7940 N   0  0  0  0  0  0  0  0  0  0  0  0
   10.5310   -0.8720   22.3060 C   0  0  2  0  0  0  0  0  0  0  0  0
   11.6800   -1.6280   22.1000 C   0  0  0  0  0  0  0  0  0  0  0  0
   12.8350   -0.9530   22.4700 C   0  0  0  0  0  0  0  0  0  0  0  0
   13.4160   -1.6720   23.2720 O   0  0  0  0  0  0  0  0  0  0  0  0
   10.3040   -0.8190   23.7890 C   0  0  0  0  0  0  0  0  0  0  0  0
   11.4140   -1.3120   24.4200 F   0  0  0  0  0  0  0  0  0  0  0  0
    9.2870   -1.6560   24.1250 F   0  0  0  0  0  0  0  0  0  0  0  0
  1  2  2  0
  2  3  1  0
  3  4  1  0
  4  5  2  0
  5  6  1  0
  6  7  2  0
  7  8  1  0
  4  9  1  0
  8  9  2  0
  2 10  1  0
 10 11  1  0
 11 12  1  1
 12 13  1  0
 13 14  1  0
 11 15  1  0
 15 16  1  0
 15 17  1  0
M  END
