pyridine_urea_7317
     RDKit          3D

 18 19  0  0  0  0  0  0  0  0999 V2000
   13.0800   -2.2950   21.0500 C   0  0  0  0  0  0  0  0  0  0  0  0
   13.1690   -1.9760   22.5270 C   0  0  0  0  0  0  0  0  0  0  0  0
   13.2300   -0.6160   22.6920 C   0  0  0  0  0  0  0  0  0  0  0  0
   12.9130    0.6840   22.9080 C   0  0  0  0  0  0  0  0  0  0  0  0
   11.6950    1.1300   23.1570 C   0  0  0  0  0  0  0  0  0  0  0  0
   10.5920    0.3380   23.2440 C   0  0  0  0  0  0  0  0  0  0  0  0
    9.7980   -0.8000   23.2420 C   0  0  0  0  0  0  0  0  0  0  0  0
    8.4670   -0.3410   22.9070 N   0  0  0  0  0  0  0  0  0  0  0  0
    8.2520    0.2160   21.6840 C   0  0  0  0  0  0  0  0  0  0  0  0
    8.9270    1.1540   21.2310 O   0  0  0  0  0  0  0  0  0  0  0  0
    7.1940   -0.4110   21.1010 N   0  0  0  0  0  0  0  0  0  0  0  0
    6.4990    0.1640   20.0630 C   0  0  0  0  0  0  0  0  0  0  0  0
    5.3240    0.9000   20.2680 C   0  0  0  0  0  0  0  0  0  0  0  0
    4.6400    1.4950   19.2200 C   0  0  0  0  0  0  0  0  0  0  0  0
    5.1440    1.3450   17.9460 C   0  0  0  0  0  0  0  0  0  0  0  0
    6.2390    0.6640   17.6070 N   0  0  0  0  0  0  0  0  0  0  0  0
    6.9090    0.0850   18.6110 C   0  0  0  0  0  0  0  0  0  0  0  0
   11.5710   -1.0370   22.9180 S   0  0  0  0  0  0  0  0  0  0  0  0
  1  2  1  0
  2  3  1  0
  3  4  2  0
  4  5  1  0
  5  6  2  0
  6  7  1  0
  7  8  1  0
  8  9  1  0
  9 10  2  0
  9 11  1  0
 11 12  1  0
 12 13  2  0
 13 14  1  0
 14 15  2  0
 15 16  1  0
 12 17  1  0
 16 17  2  0
  3 18  1  0
  6 18  1  0
M  END
