pyridine_urea_6384
     RDKit          3D

 18 19  0  0  0  0  0  0  0  0999 V2000
   13.9510   -2.6650   25.7290 C   0  0  0  0  0  0  0  0  0  0  0  0
   12.9370   -2.1860   24.9850 N   0  0  0  0  0  0  0  0  0  0  0  0
   11.7880   -2.9220   24.6380 C   0  0  0  0  0  0  0  0  0  0  0  0
   10.9330   -2.0710   23.8600 N   0  0  0  0  0  0  0  0  0  0  0  0
   11.6460   -0.8940   23.7990 C   0  0  0  0  0  0  0  0  0  0  0  0
   10.8540    0.0420   23.0160 C   0  0  0  0  0  0  0  0  0  0  0  0
   10.1170   -0.7420   22.1750 C   0  0  0  0  0  0  0  0  0  0  0  0
    8.8120   -0.5220   22.4200 N   0  0  0  0  0  0  0  0  0  0  0  0
    8.2960    0.2140   21.5000 C   0  0  0  0  0  0  0  0  0  0  0  0
    8.7990    1.3000   21.1710 O   0  0  0  0  0  0  0  0  0  0  0  0
    7.1710   -0.3770   20.9860 N   0  0  0  0  0  0  0  0  0  0  0  0
    6.3560    0.2430   20.0450 C   0  0  0  0  0  0  0  0  0  0  0  0
    5.2240    0.8660   20.4440 C   0  0  0  0  0  0  0  0  0  0  0  0
    4.6320    1.4300   19.1800 C   0  0  0  0  0  0  0  0  0  0  0  0
    5.1910    1.2890   17.9340 C   0  0  0  0  0  0  0  0  0  0  0  0
    6.2700    0.6740   17.5880 N   0  0  0  0  0  0  0  0  0  0  0  0
    6.8210    0.1570   18.7460 C   0  0  0  0  0  0  0  0  0  0  0  0
   12.8890   -0.9270   24.4710 N   0  0  0  0  0  0  0  0  0  0  0  0
  1  2  1  0
  2  3  1  0
  3  4  2  0
  4  5  1  0
  5  6  1  0
  6  7  1  0
  7  8  1  0
  8  9  1  0
  9 10  2  0
  9 11  1  0
 11 12  1  0
 12 13  2  0
 13 14  1  0
 14 15  2  0
 15 16  1  0
 12 17  1  0
 16 17  2  0
  2 18  1  0
  5 18  2  0
M  END
