pyridine_urea_10655
     RDKit          3D

 21 23  0  0  0  0  0  0  0  0999 V2000
    8.6640    1.1230   21.1120 O   0  0  0  0  0  0  0  0  0  0  0  0
    8.0980    0.0820   21.4960 C   0  0  0  0  0  0  0  0  0  0  0  0
    7.0570   -0.5560   20.9050 N   0  0  0  0  0  0  0  0  0  0  0  0
    6.3070    0.1150   19.9680 C   0  0  0  0  0  0  0  0  0  0  0  0
    4.9770    0.8110   20.2660 C   0  0  0  0  0  0  0  0  0  0  0  0
    4.3770    1.5070   19.0540 C   0  0  0  0  0  0  0  0  0  0  0  0
    5.1370    1.4230   17.7720 C   0  0  0  0  0  0  0  0  0  0  0  0
    6.2980    0.7660   17.6350 N   0  0  0  0  0  0  0  0  0  0  0  0
    6.8300    0.1530   18.6980 C   0  0  0  0  0  0  0  0  0  0  0  0
    8.4800   -0.5610   22.6250 N   0  0  0  0  0  0  0  0  0  0  0  0
    9.7960   -0.2400   22.9760 C   0  0  0  0  0  0  0  0  0  0  0  0
   10.7970   -0.7750   22.3720 C   0  0  0  0  0  0  0  0  0  0  0  0
   11.9520   -0.3340   22.8350 N   0  0  0  0  0  0  0  0  0  0  0  0
   11.7970    0.6090   23.8750 N   0  0  0  0  0  0  0  0  0  0  0  0
   13.0240    0.3160   23.5340 C   0  0  0  0  0  0  0  0  0  0  0  0
   12.8440   -0.7540   22.7120 C   0  0  2  0  0  0  0  0  0  0  0  0
   13.0980   -1.9890   23.2700 C   0  0  0  0  0  0  0  0  0  0  0  0
   12.8910   -2.8490   22.2010 C   0  0  0  0  0  0  0  0  0  0  0  0
   13.2330   -1.8980   21.0880 C   0  0  0  0  0  0  0  0  0  0  0  0
   13.5800   -0.8330   21.5400 O   0  0  0  0  0  0  0  0  0  0  0  0
   10.3930    0.5880   23.8760 C   0  0  0  0  0  0  0  0  0  0  0  0
  1  2  2  0
  2  3  1  0
  3  4  1  0
  4  5  2  0
  5  6  1  0
  6  7  2  0
  7  8  1  0
  4  9  1  0
  8  9  2  0
  2 10  1  0
 10 11  1  0
 11 12  1  0
 12 13  2  0
 13 14  1  0
 14 15  1  0
 16 15  1  1
 16 17  1  0
 17 18  1  0
 18 19  1  0
 16 20  1  0
 19 20  1  0
 11 21  2  0
 14 21  1  0
M  END
