pyridine_urea_2101
     RDKit          3D

 20 22  0  0  0  0  0  0  0  0999 V2000
    8.8360    1.3310   21.3420 O   0  0  0  0  0  0  0  0  0  0  0  0
    8.2100    0.3690   21.8320 C   0  0  0  0  0  0  0  0  0  0  0  0
    8.3620   -0.1360   23.1240 N   0  0  0  0  0  0  0  0  0  0  0  0
    9.3930   -0.9930   23.5500 C   0  0  0  0  0  0  0  0  0  0  0  0
   10.0540   -1.7510   22.4280 C   0  0  1  0  0  0  0  0  0  0  0  0
    9.9990   -0.7350   21.5290 C   0  0  0  0  0  0  0  0  0  0  0  0
   11.4240   -1.2570   21.7040 C   0  0  1  0  0  0  0  0  0  0  0  0
   12.1700   -0.9230   22.7230 C   0  0  0  0  0  0  0  0  0  0  0  0
   13.0410   -0.2180   23.3390 C   0  0  0  0  0  0  0  0  0  0  0  0
   13.0470   -0.9200   24.6180 C   0  0  0  0  0  0  0  0  0  0  0  0
   12.2470   -2.0840   24.9700 C   0  0  0  0  0  0  0  0  0  0  0  0
   11.3550   -2.6250   24.0890 C   0  0  0  0  0  0  0  0  0  0  0  0
   12.1550   -1.6070   23.9560 C   0  0  0  0  0  0  0  0  0  0  0  0
    7.2500   -0.3540   21.1710 N   0  0  0  0  0  0  0  0  0  0  0  0
    6.5600    0.1680   20.0740 C   0  0  0  0  0  0  0  0  0  0  0  0
    5.2930    0.9730   20.3170 C   0  0  0  0  0  0  0  0  0  0  0  0
    4.6380    1.4990   19.2350 C   0  0  0  0  0  0  0  0  0  0  0  0
    5.1440    1.2840   17.9580 C   0  0  0  0  0  0  0  0  0  0  0  0
    6.2560    0.5670   17.7130 N   0  0  0  0  0  0  0  0  0  0  0  0
    6.9330    0.0280   18.7570 C   0  0  0  0  0  0  0  0  0  0  0  0
  1  2  2  0
  2  3  1  0
  3  4  1  0
  5  4  1  1
  5  6  1  0
  5  7  1  0
  6  7  1  0
  7  8  1  1
  8  9  2  0
  9 10  1  0
 10 11  2  0
 11 12  1  0
  8 13  1  0
 12 13  2  0
  2 14  1  0
 14 15  1  0
 15 16  2  0
 16 17  1  0
 17 18  2  0
 18 19  1  0
 15 20  1  0
 19 20  2  0
M  END
