pyridine_urea_15146
     RDKit          3D

 18 19  0  0  0  0  0  0  0  0999 V2000
   10.5910   -1.4440   24.6310 C   0  0  0  0  0  0  0  0  0  0  0  0
   11.7150   -1.9310   24.1040 N   0  0  0  0  0  0  0  0  0  0  0  0
   12.9740   -2.2340   24.7340 C   0  0  0  0  0  0  0  0  0  0  0  0
   13.8470   -2.7120   23.8420 N   0  0  0  0  0  0  0  0  0  0  0  0
   13.1160   -2.6720   22.7700 C   0  0  0  0  0  0  0  0  0  0  0  0
   11.6940   -2.1870   22.8110 C   0  0  0  0  0  0  0  0  0  0  0  0
   10.6660   -2.0650   21.7350 C   0  0  0  0  0  0  0  0  0  0  0  0
    9.2630   -2.0650   22.3190 C   0  0  0  0  0  0  0  0  0  0  0  0
    8.9400   -0.7410   22.5320 N   0  0  0  0  0  0  0  0  0  0  0  0
    8.4170    0.1270   21.5580 C   0  0  0  0  0  0  0  0  0  0  0  0
    8.9590    1.1960   21.2450 O   0  0  0  0  0  0  0  0  0  0  0  0
    7.2530   -0.3930   21.0530 N   0  0  0  0  0  0  0  0  0  0  0  0
    6.5330    0.1830   20.0120 C   0  0  0  0  0  0  0  0  0  0  0  0
    5.3720    0.9100   20.3120 C   0  0  0  0  0  0  0  0  0  0  0  0
    4.7010    1.4790   19.2550 C   0  0  0  0  0  0  0  0  0  0  0  0
    5.1650    1.3250   17.9720 C   0  0  0  0  0  0  0  0  0  0  0  0
    6.2560    0.6320   17.6530 N   0  0  0  0  0  0  0  0  0  0  0  0
    6.9130    0.0770   18.6890 C   0  0  0  0  0  0  0  0  0  0  0  0
  1  2  1  0
  2  3  1  0
  3  4  2  0
  4  5  1  0
  2  6  1  0
  5  6  2  0
  6  7  1  0
  7  8  1  0
  8  9  1  0
  9 10  1  0
 10 11  2  0
 10 12  1  0
 12 13  1  0
 13 14  2  0
 14 15  1  0
 15 16  2  0
 16 17  1  0
 13 18  1  0
 17 18  2  0
M  END
