pyridine_urea_4341
     RDKit          3D

 24 26  0  0  0  0  0  0  0  0999 V2000
   11.0100   -2.2620   21.4940 C   0  0  0  0  0  0  0  0  0  0  0  0
   10.9520   -1.1550   22.4590 C   0  0  0  0  0  0  0  0  0  0  0  0
    9.6440   -0.8070   23.0350 C   0  0  0  0  0  0  0  0  0  0  0  0
    8.5110   -1.3730   22.6850 N   0  0  0  0  0  0  0  0  0  0  0  0
    8.0380   -0.5740   21.7020 C   0  0  0  0  0  0  0  0  0  0  0  0
    8.6380    0.4470   21.3730 O   0  0  0  0  0  0  0  0  0  0  0  0
    6.8000   -1.0250   21.1300 N   0  0  0  0  0  0  0  0  0  0  0  0
    6.2920   -0.2570   20.1120 C   0  0  0  0  0  0  0  0  0  0  0  0
    5.0050    0.5620   20.2740 C   0  0  0  0  0  0  0  0  0  0  0  0
    4.5030    1.4040   19.0900 C   0  0  0  0  0  0  0  0  0  0  0  0
    5.2620    1.3660   17.9340 C   0  0  0  0  0  0  0  0  0  0  0  0
    6.3830    0.6780   17.7270 N   0  0  0  0  0  0  0  0  0  0  0  0
    6.8820   -0.0820   18.7170 C   0  0  0  0  0  0  0  0  0  0  0  0
    9.4750    0.2650   24.0690 C   0  0  0  0  0  0  0  0  0  0  0  0
   10.6440    0.9080   24.4400 C   0  0  0  0  0  0  0  0  0  0  0  0
   11.9040    0.6490   23.9290 C   0  0  0  0  0  0  0  0  0  0  0  0
   12.0690   -0.3730   22.8980 C   0  0  0  0  0  0  0  0  0  0  0  0
   13.5840   -0.5690   22.2670 S   0  0  0  0  0  0  0  0  0  0  0  0
   14.1760    0.4090   23.0530 O   0  0  0  0  0  0  0  0  0  0  0  0
   13.7910   -1.9820   22.3540 O   0  0  0  0  0  0  0  0  0  0  0  0
   13.9620    0.0960   20.6400 N   0  0  0  0  0  0  0  0  0  0  0  0
   14.7360    1.3290   20.3950 C   0  0  0  0  0  0  0  0  0  0  0  0
   15.4240    1.2420   19.2700 C   0  0  0  0  0  0  0  0  0  0  0  0
   14.7560    2.4690   19.4100 C   0  0  0  0  0  0  0  0  0  0  0  0
  1  2  1  0
  2  3  2  0
  3  4  1  0
  4  5  1  0
  5  6  2  0
  5  7  1  0
  7  8  1  0
  8  9  2  0
  9 10  1  0
 10 11  2  0
 11 12  1  0
  8 13  1  0
 12 13  2  0
  3 14  1  0
 14 15  2  0
 15 16  1  0
  2 17  1  0
 16 17  2  0
 17 18  1  0
 18 19  2  0
 18 20  2  0
 18 21  1  0
 21 22  1  0
 22 23  1  0
 22 24  1  0
 23 24  1  0
M  END
