pyridine_urea_15167
     RDKit          3D

 18 18  0  0  0  0  0  0  0  0999 V2000
   12.7560   -2.5430   21.4380 C   0  0  0  0  0  0  0  0  0  0  0  0
   13.3060   -2.4940   22.8830 C   0  0  0  0  0  0  0  0  0  0  0  0
   12.2270   -2.7510   23.7860 O   0  0  0  0  0  0  0  0  0  0  0  0
   11.1400   -1.8520   23.6610 C   0  0  0  0  0  0  0  0  0  0  0  0
    9.8390   -2.2830   23.6190 O   0  0  0  0  0  0  0  0  0  0  0  0
   11.4780   -0.3790   23.6000 C   0  0  1  0  0  0  0  0  0  0  0  0
   12.7450   -0.0290   22.8110 C   0  0  0  0  0  0  0  0  0  0  0  0
   10.2890    0.4240   23.0910 C   0  0  0  0  0  0  0  0  0  0  0  0
    9.2910   -0.4140   22.4040 N   0  0  0  0  0  0  0  0  0  0  0  0
    8.5170    0.2230   21.4580 C   0  0  0  0  0  0  0  0  0  0  0  0
    8.7980    1.3630   21.0840 O   0  0  0  0  0  0  0  0  0  0  0  0
    7.3710   -0.5670   21.0070 N   0  0  0  0  0  0  0  0  0  0  0  0
    6.5450    0.0660   20.0680 C   0  0  0  0  0  0  0  0  0  0  0  0
    5.3740    0.7710   20.3700 C   0  0  0  0  0  0  0  0  0  0  0  0
    4.6760    1.3630   19.3340 C   0  0  0  0  0  0  0  0  0  0  0  0
    5.1450    1.2440   18.0390 C   0  0  0  0  0  0  0  0  0  0  0  0
    6.2560    0.5680   17.7230 N   0  0  0  0  0  0  0  0  0  0  0  0
    6.9240   -0.0020   18.7410 C   0  0  0  0  0  0  0  0  0  0  0  0
  1  2  1  0
  2  3  1  0
  3  4  1  0
  4  5  2  0
  4  6  1  0
  6  7  1  6
  6  8  1  0
  8  9  1  0
  9 10  1  0
 10 11  2  0
 10 12  1  0
 12 13  1  0
 13 14  2  0
 14 15  1  0
 15 16  2  0
 16 17  1  0
 13 18  1  0
 17 18  2  0
M  END
