pyridine_urea_13810
     RDKit          3D

 24 26  0  0  0  0  0  0  0  0999 V2000
    9.1360   -1.0320   20.9810 O   0  0  0  0  0  0  0  0  0  0  0  0
    8.3580   -0.2740   21.4580 C   0  0  0  0  0  0  0  0  0  0  0  0
    6.9950   -0.3950   21.2940 N   0  0  0  0  0  0  0  0  0  0  0  0
    6.4160    0.1740   20.1020 C   0  0  0  0  0  0  0  0  0  0  0  0
    5.1360    0.9640   20.3300 C   0  0  0  0  0  0  0  0  0  0  0  0
    4.5550    1.5610   19.1000 C   0  0  0  0  0  0  0  0  0  0  0  0
    5.1990    1.3600   17.8960 C   0  0  0  0  0  0  0  0  0  0  0  0
    6.3310    0.6440   17.7440 N   0  0  0  0  0  0  0  0  0  0  0  0
    6.9070    0.0730   18.8220 C   0  0  0  0  0  0  0  0  0  0  0  0
    8.7810    0.7850   22.2140 N   0  0  0  0  0  0  0  0  0  0  0  0
   10.0280    0.5390   22.9670 C   0  0  1  0  0  0  0  0  0  0  0  0
   11.1600    1.2200   22.6200 C   0  0  0  0  0  0  0  0  0  0  0  0
   11.3420    0.9990   24.0060 C   0  0  2  0  0  0  0  0  0  0  0  0
   11.4730   -0.3080   24.1770 C   0  0  0  0  0  0  0  0  0  0  0  0
   10.3750   -1.0110   23.8310 C   0  0  0  0  0  0  0  0  0  0  0  0
   10.2560   -2.3670   23.9300 C   0  0  0  0  0  0  0  0  0  0  0  0
   11.2230   -3.4170   24.4080 C   0  0  0  0  0  0  0  0  0  0  0  0
   12.3330   -2.4750   24.7140 C   0  0  0  0  0  0  0  0  0  0  0  0
   13.6080   -2.9270   25.1880 C   0  0  0  0  0  0  0  0  0  0  0  0
   14.2440   -2.9880   24.0250 F   0  0  0  0  0  0  0  0  0  0  0  0
   13.7090   -4.0910   25.8240 F   0  0  0  0  0  0  0  0  0  0  0  0
   14.1340   -2.0800   26.0490 F   0  0  0  0  0  0  0  0  0  0  0  0
   12.4920   -0.9900   24.6220 C   0  0  0  0  0  0  0  0  0  0  0  0
    9.9310    1.0610   24.4200 C   0  0  0  0  0  0  0  0  0  0  0  0
  1  2  2  0
  2  3  1  0
  3  4  1  0
  4  5  2  0
  5  6  1  0
  6  7  2  0
  7  8  1  0
  4  9  1  0
  8  9  2  0
  2 10  1  0
 11 10  1  6
 11 12  1  0
 12 13  1  0
 13 14  1  6
 14 15  2  0
 15 16  1  0
 16 17  2  0
 17 18  1  0
 18 19  1  0
 19 20  1  0
 19 21  1  0
 19 22  1  0
 14 23  1  0
 18 23  2  0
 11 24  1  0
 13 24  1  0
M  END
