pyridine_urea_13783
     RDKit          3D

 25 27  0  0  0  0  0  0  0  0999 V2000
   13.1170    6.6710   23.1860 C   0  0  0  0  0  0  0  0  0  0  0  0
   11.7610    6.4460   22.8610 O   0  0  0  0  0  0  0  0  0  0  0  0
   11.4630    5.0760   23.0670 C   0  0  0  0  0  0  0  0  0  0  0  0
   10.0270    4.8120   23.5770 C   0  0  0  0  0  0  0  0  0  0  0  0
    9.5600    3.4290   23.8450 C   0  0  0  0  0  0  0  0  0  0  0  0
   10.4710    2.4430   23.6130 C   0  0  0  0  0  0  0  0  0  0  0  0
   11.9120    2.5810   23.1130 C   0  0  0  0  0  0  0  0  0  0  0  0
   12.8170    1.4260   22.8900 C   0  0  0  0  0  0  0  0  0  0  0  0
   12.5870    0.2250   23.6350 N   0  0  0  0  0  0  0  0  0  0  0  0
   12.7840   -0.9340   22.9230 C   0  0  0  0  0  0  0  0  0  0  0  0
   11.4440   -1.5460   22.5660 C   0  0  0  0  0  0  0  0  0  0  0  0
   10.3510   -0.6700   22.5930 C   0  0  0  0  0  0  0  0  0  0  0  0
    9.1350   -0.9490   22.0570 N   0  0  0  0  0  0  0  0  0  0  0  0
    8.3870    0.0050   21.3550 C   0  0  0  0  0  0  0  0  0  0  0  0
    8.8870    1.2370   21.0360 O   0  0  0  0  0  0  0  0  0  0  0  0
    7.0600   -0.4860   21.0360 N   0  0  0  0  0  0  0  0  0  0  0  0
    6.3590    0.1300   20.0380 C   0  0  0  0  0  0  0  0  0  0  0  0
    5.0170    0.7320   20.5130 C   0  0  0  0  0  0  0  0  0  0  0  0
    4.5760    1.3230   19.1860 C   0  0  0  0  0  0  0  0  0  0  0  0
    5.2520    1.3050   17.8620 C   0  0  0  0  0  0  0  0  0  0  0  0
    6.4030    0.7180   17.6790 N   0  0  0  0  0  0  0  0  0  0  0  0
    6.8960    0.1640   18.7670 C   0  0  0  0  0  0  0  0  0  0  0  0
   10.4170   -0.5910   24.1200 C   0  0  0  0  0  0  0  0  0  0  0  0
   11.5410    0.0880   24.4710 C   0  0  0  0  0  0  0  0  0  0  0  0
   12.3460    3.9010   22.8590 C   0  0  0  0  0  0  0  0  0  0  0  0
  1  2  1  0
  2  3  1  0
  3  4  2  0
  4  5  1  0
  5  6  2  0
  6  7  1  0
  7  8  1  0
  8  9  1  0
  9 10  1  0
 10 11  1  0
 11 12  1  0
 12 13  1  0
 13 14  1  0
 14 15  2  0
 14 16  1  0
 16 17  1  0
 17 18  2  0
 18 19  1  0
 19 20  2  0
 20 21  1  0
 17 22  1  0
 21 22  2  0
 12 23  1  0
  9 24  1  0
 23 24  1  0
  3 25  1  0
  7 25  2  0
M  END
