pyridine_urea_9694
     RDKit          3D

 27 29  0  0  0  0  0  0  0  0999 V2000
    8.2640    0.5010   21.0960 O   0  0  0  0  0  0  0  0  0  0  0  0
    7.9510   -0.6280   21.4540 C   0  0  0  0  0  0  0  0  0  0  0  0
    6.7710   -1.1530   21.0380 N   0  0  0  0  0  0  0  0  0  0  0  0
    6.2350   -0.3140   19.9960 C   0  0  0  0  0  0  0  0  0  0  0  0
    4.9750    0.4770   20.3190 C   0  0  0  0  0  0  0  0  0  0  0  0
    4.4100    1.3800   19.2260 C   0  0  0  0  0  0  0  0  0  0  0  0
    5.1840    1.3910   17.9090 C   0  0  0  0  0  0  0  0  0  0  0  0
    6.3310    0.6000   17.7640 N   0  0  0  0  0  0  0  0  0  0  0  0
    6.8300   -0.2070   18.7540 C   0  0  0  0  0  0  0  0  0  0  0  0
    8.7930   -1.4030   22.2400 N   0  0  0  0  0  0  0  0  0  0  0  0
    9.9780   -0.7290   22.0220 C   0  0  1  0  0  0  0  0  0  0  0  0
   10.0880    0.6550   22.4580 C   0  0  0  0  0  0  0  0  0  0  0  0
    9.3170    1.7810   22.6840 C   0  0  0  0  0  0  0  0  0  0  0  0
   10.0310    2.9010   23.0780 C   0  0  0  0  0  0  0  0  0  0  0  0
   11.4250    2.8120   23.2100 C   0  0  0  0  0  0  0  0  0  0  0  0
   12.1530    1.6820   22.9860 N   0  0  0  0  0  0  0  0  0  0  0  0
   11.4660    0.5540   22.5990 C   0  0  0  0  0  0  0  0  0  0  0  0
   11.3250   -1.2960   21.6970 C   0  0  0  0  0  0  0  0  0  0  0  0
   12.5320   -1.1180   22.3750 C   0  0  0  0  0  0  0  0  0  0  0  0
   13.0190   -0.4940   23.5660 C   0  0  0  0  0  0  0  0  0  0  0  0
   12.2560    0.0980   24.4380 C   0  0  0  0  0  0  0  0  0  0  0  0
   10.9880    0.0750   24.0970 C   0  0  0  0  0  0  0  0  0  0  0  0
    9.8450    0.5530   24.7570 C   0  0  0  0  0  0  0  0  0  0  0  0
    8.6560    0.1340   24.2930 F   0  0  0  0  0  0  0  0  0  0  0  0
    9.7910    1.8840   24.7150 F   0  0  0  0  0  0  0  0  0  0  0  0
    9.8350    0.1530   26.0480 F   0  0  0  0  0  0  0  0  0  0  0  0
   10.6700   -0.5800   22.7680 C   0  0  0  0  0  0  0  0  0  0  0  0
  1  2  2  0
  2  3  1  0
  3  4  1  0
  4  5  2  0
  5  6  1  0
  6  7  2  0
  7  8  1  0
  4  9  1  0
  8  9  2  0
  2 10  1  0
 11 10  1  1
 11 12  1  0
 12 13  2  0
 13 14  1  0
 14 15  2  0
 15 16  1  0
 12 17  1  0
 16 17  2  0
 11 18  1  0
 18 19  2  0
 19 20  1  0
 20 21  2  0
 21 22  1  0
 22 23  1  0
 23 24  1  0
 23 25  1  0
 23 26  1  0
 18 27  1  0
 22 27  2  0
M  END
