pyridine_urea_5159
     RDKit          3D

 20 21  0  0  0  0  0  0  0  0999 V2000
    9.0210    0.9320   21.3190 O   0  0  0  0  0  0  0  0  0  0  0  0
    8.5910   -0.2010   21.4780 C   0  0  0  0  0  0  0  0  0  0  0  0
    9.2890   -1.2260   22.0640 N   0  0  0  0  0  0  0  0  0  0  0  0
    9.3890   -1.4310   23.4440 C   0  0  0  0  0  0  0  0  0  0  0  0
    8.5750   -0.5580   24.1800 C   0  0  0  0  0  0  0  0  0  0  0  0
    8.7380   -0.7040   25.3880 O   0  0  0  0  0  0  0  0  0  0  0  0
    7.7010   -0.3650   26.2350 C   0  0  0  0  0  0  0  0  0  0  0  0
    8.0410   -0.2900   27.5780 C   0  0  0  0  0  0  0  0  0  0  0  0
    6.9750    0.0710   28.5920 C   0  0  0  0  0  0  0  0  0  0  0  0
    5.6830    0.3210   28.1650 C   0  0  0  0  0  0  0  0  0  0  0  0
    4.7570    0.6420   29.1160 F   0  0  0  0  0  0  0  0  0  0  0  0
    5.3840    0.2190   26.6570 C   0  0  0  0  0  0  0  0  0  0  0  0
    6.3950   -0.1190   25.7350 C   0  0  0  0  0  0  0  0  0  0  0  0
    7.3320   -0.6020   21.0810 N   0  0  0  0  0  0  0  0  0  0  0  0
    6.5920    0.0220   20.0610 C   0  0  0  0  0  0  0  0  0  0  0  0
    5.4290    0.7360   20.3860 C   0  0  0  0  0  0  0  0  0  0  0  0
    4.7130    1.3680   19.3590 C   0  0  0  0  0  0  0  0  0  0  0  0
    5.1700    1.2690   18.0570 C   0  0  0  0  0  0  0  0  0  0  0  0
    6.2710    0.5840   17.7290 N   0  0  0  0  0  0  0  0  0  0  0  0
    6.9550   -0.0220   18.7270 C   0  0  0  0  0  0  0  0  0  0  0  0
  1  2  2  0
  2  3  1  0
  3  4  1  0
  4  5  1  0
  5  6  1  0
  6  7  1  0
  7  8  2  0
  8  9  1  0
  9 10  2  0
 10 11  1  0
 10 12  1  0
  7 13  1  0
 12 13  2  0
  2 14  1  0
 14 15  1  0
 15 16  2  0
 16 17  1  0
 17 18  2  0
 18 19  1  0
 15 20  1  0
 19 20  2  0
M  END
