pyridine_urea_8336
     RDKit          3D

 22 23  0  0  0  0  0  0  0  0999 V2000
    9.6720   -0.1720   26.6610 C   0  0  0  0  0  0  0  0  0  0  0  0
    8.7660   -0.9470   25.3820 S   0  0  0  0  0  0  0  0  0  0  0  0
    8.9870   -2.3760   25.4590 O   0  0  0  0  0  0  0  0  0  0  0  0
    7.4220   -0.4200   25.4400 O   0  0  0  0  0  0  0  0  0  0  0  0
    9.4690   -0.4030   23.8290 C   0  0  2  0  0  0  0  0  0  0  0  0
    9.5880   -1.6230   22.8530 C   0  0  0  0  0  0  0  0  0  0  0  0
    9.0850   -1.3070   21.5320 N   0  0  0  0  0  0  0  0  0  0  0  0
    8.3090   -0.2260   21.2890 C   0  0  0  0  0  0  0  0  0  0  0  0
    8.7500    0.9170   21.2790 O   0  0  0  0  0  0  0  0  0  0  0  0
    6.9530   -0.6320   21.0380 N   0  0  0  0  0  0  0  0  0  0  0  0
    6.3190    0.0430   20.0500 C   0  0  0  0  0  0  0  0  0  0  0  0
    5.1330    0.7240   20.3080 C   0  0  0  0  0  0  0  0  0  0  0  0
    4.5040    1.4650   19.1550 C   0  0  0  0  0  0  0  0  0  0  0  0
    5.2030    1.4080   17.8290 C   0  0  0  0  0  0  0  0  0  0  0  0
    6.3470    0.7110   17.6820 N   0  0  0  0  0  0  0  0  0  0  0  0
    6.8580    0.0650   18.7630 C   0  0  0  0  0  0  0  0  0  0  0  0
   10.7260    0.2380   23.9100 C   0  0  0  0  0  0  0  0  0  0  0  0
   12.2190    0.6290   23.6930 C   0  0  0  0  0  0  0  0  0  0  0  0
   13.2140   -0.0460   22.7720 C   0  0  0  0  0  0  0  0  0  0  0  0
   12.9010   -1.1100   22.0260 C   0  0  0  0  0  0  0  0  0  0  0  0
   11.6450   -1.5270   22.1460 C   0  0  0  0  0  0  0  0  0  0  0  0
   10.7490   -0.8760   22.9970 C   0  0  0  0  0  0  0  0  0  0  0  0
  2  1  1  0
  2  3  2  0
  2  4  2  0
  2  5  1  0
  5  6  1  6
  6  7  1  0
  7  8  1  0
  8  9  2  0
  8 10  1  0
 10 11  1  0
 11 12  2  0
 12 13  1  0
 13 14  2  0
 14 15  1  0
 11 16  1  0
 15 16  2  0
  5 17  1  0
 17 18  2  0
 18 19  1  0
 19 20  2  0
 20 21  1  0
 17 22  1  0
 21 22  2  0
M  END
