pyridine_urea_12921
     RDKit          3D

 19 20  0  0  0  0  0  0  0  0999 V2000
   14.0430   -2.7160   25.5550 C   0  0  0  0  0  0  0  0  0  0  0  0
   13.2470   -1.5670   25.5650 O   0  0  0  0  0  0  0  0  0  0  0  0
   12.4870   -1.4910   24.4670 C   0  0  0  0  0  0  0  0  0  0  0  0
   11.0230   -1.2390   24.6360 C   0  0  0  0  0  0  0  0  0  0  0  0
   10.2020   -1.1520   23.5980 C   0  0  0  0  0  0  0  0  0  0  0  0
   10.7090   -1.3220   22.3590 C   0  0  0  0  0  0  0  0  0  0  0  0
    9.6680   -1.2220   21.3470 N   0  0  0  0  0  0  0  0  0  0  0  0
    8.7660   -0.1700   21.3980 C   0  0  0  0  0  0  0  0  0  0  0  0
    9.1190    0.9690   21.6550 O   0  0  0  0  0  0  0  0  0  0  0  0
    7.4740   -0.5540   21.0910 N   0  0  0  0  0  0  0  0  0  0  0  0
    6.6580    0.0590   20.1210 C   0  0  0  0  0  0  0  0  0  0  0  0
    5.4990    0.8160   20.3500 C   0  0  0  0  0  0  0  0  0  0  0  0
    4.7580    1.4080   19.3480 C   0  0  0  0  0  0  0  0  0  0  0  0
    5.1370    1.2820   18.0270 C   0  0  0  0  0  0  0  0  0  0  0  0
    6.2590    0.5400   17.7530 N   0  0  0  0  0  0  0  0  0  0  0  0
    7.0050   -0.0630   18.7790 C   0  0  0  0  0  0  0  0  0  0  0  0
   12.1330   -1.5810   22.2650 C   0  0  0  0  0  0  0  0  0  0  0  0
   12.8200   -1.8080   21.1310 C   0  0  0  0  0  0  0  0  0  0  0  0
   12.9930   -1.6530   23.2840 N   0  0  0  0  0  0  0  0  0  0  0  0
  1  2  1  0
  2  3  1  0
  3  4  2  0
  4  5  1  0
  5  6  2  0
  6  7  1  0
  7  8  1  0
  8  9  2  0
  8 10  1  0
 10 11  1  0
 11 12  2  0
 12 13  1  0
 13 14  2  0
 14 15  1  0
 11 16  1  0
 15 16  2  0
  6 17  1  0
 17 18  1  0
  3 19  1  0
 17 19  2  0
M  END
