pyridine_urea_10901
     RDKit          3D

 20 21  0  0  0  0  0  0  0  0999 V2000
   14.1590   -2.5520   25.8170 C   0  0  0  0  0  0  0  0  0  0  0  0
   13.4810   -2.0700   24.5850 C   0  0  0  0  0  0  0  0  0  0  0  0
   13.6010   -2.7390   23.3890 C   0  0  0  0  0  0  0  0  0  0  0  0
   13.6750   -0.8930   24.3220 O   0  0  0  0  0  0  0  0  0  0  0  0
   12.5940   -0.7150   23.6580 C   0  0  0  0  0  0  0  0  0  0  0  0
   12.0900    0.5390   23.4820 C   0  0  0  0  0  0  0  0  0  0  0  0
   10.8050    0.7270   22.7750 C   0  0  0  0  0  0  0  0  0  0  0  0
   10.1270   -0.5510   22.2620 C   0  0  0  0  0  0  0  0  0  0  0  0
    8.9480   -0.6720   21.6020 N   0  0  0  0  0  0  0  0  0  0  0  0
    8.1790    0.3410   21.2330 C   0  0  0  0  0  0  0  0  0  0  0  0
    8.5870    1.4900   21.0900 O   0  0  0  0  0  0  0  0  0  0  0  0
    6.8620   -0.1590   21.0140 N   0  0  0  0  0  0  0  0  0  0  0  0
    6.2370    0.3620   19.9740 C   0  0  0  0  0  0  0  0  0  0  0  0
    5.0650    1.0760   20.0860 C   0  0  0  0  0  0  0  0  0  0  0  0
    4.4800    1.6300   18.9650 C   0  0  0  0  0  0  0  0  0  0  0  0
    5.1120    1.4400   17.7540 C   0  0  0  0  0  0  0  0  0  0  0  0
    6.2460    0.7400   17.5910 N   0  0  0  0  0  0  0  0  0  0  0  0
    6.8000    0.1970   18.7370 C   0  0  0  0  0  0  0  0  0  0  0  0
   10.7970   -1.6900   22.5040 C   0  0  0  0  0  0  0  0  0  0  0  0
   11.9530   -1.8010   23.1560 C   0  0  0  0  0  0  0  0  0  0  0  0
  1  2  1  0
  2  3  1  0
  2  4  1  0
  4  5  1  0
  5  6  2  0
  6  7  1  0
  7  8  2  0
  8  9  1  0
  9 10  1  0
 10 11  2  0
 10 12  1  0
 12 13  1  0
 13 14  2  0
 14 15  1  0
 15 16  2  0
 16 17  1  0
 13 18  1  0
 17 18  2  0
  8 19  1  0
  5 20  1  0
 19 20  2  0
M  END
