pyridine_urea_2429
     RDKit          3D

 24 25  0  0  0  0  0  0  0  0999 V2000
   17.4620    3.7190   24.4220 C   0  0  0  0  0  0  0  0  0  0  0  0
   17.3090    2.5270   23.5690 N   0  0  0  0  0  0  0  0  0  0  0  0
   17.9730    3.2270   24.7210 C   0  0  0  0  0  0  0  0  0  0  0  0
   15.3950    2.1570   22.3790 C   0  0  0  0  0  0  0  0  0  0  0  0
   14.9270    1.0370   22.4010 O   0  0  0  0  0  0  0  0  0  0  0  0
   14.3400    3.1440   22.2300 N   0  0  0  0  0  0  0  0  0  0  0  0
   13.0030    2.8040   22.6610 C   0  0  0  0  0  0  0  0  0  0  0  0
   13.0210    1.5150   23.1960 C   0  0  0  0  0  0  0  0  0  0  0  0
   12.0380    0.7070   23.0030 C   0  0  0  0  0  0  0  0  0  0  0  0
   10.8460    1.1720   23.4220 C   0  0  0  0  0  0  0  0  0  0  0  0
    9.6320    0.3870   23.2180 C   0  0  0  0  0  0  0  0  0  0  0  0
    9.7870   -0.8360   22.5780 C   0  0  0  0  0  0  0  0  0  0  0  0
    8.7110   -1.5270   22.3080 N   0  0  0  0  0  0  0  0  0  0  0  0
    8.0840   -0.6540   21.4710 C   0  0  0  0  0  0  0  0  0  0  0  0
    8.5640    0.4330   21.1590 O   0  0  0  0  0  0  0  0  0  0  0  0
    6.8090   -1.0840   20.9740 N   0  0  0  0  0  0  0  0  0  0  0  0
    6.2220   -0.2660   20.0320 C   0  0  0  0  0  0  0  0  0  0  0  0
    5.0430    0.4520   20.2180 C   0  0  0  0  0  0  0  0  0  0  0  0
    4.5720    1.2420   19.1720 C   0  0  0  0  0  0  0  0  0  0  0  0
    5.2550    1.3180   17.9740 C   0  0  0  0  0  0  0  0  0  0  0  0
    6.3930    0.6340   17.7720 N   0  0  0  0  0  0  0  0  0  0  0  0
    6.8470   -0.1340   18.7950 C   0  0  0  0  0  0  0  0  0  0  0  0
   11.0530   -1.3150   22.1870 C   0  0  0  0  0  0  0  0  0  0  0  0
   12.1840   -0.5370   22.4060 C   0  0  0  0  0  0  0  0  0  0  0  0
  1  2  1  0
  2  3  1  0
  2  4  1  0
  4  5  2  0
  4  6  1  0
  6  7  1  0
  7  8  1  0
  8  9  1  0
  9 10  2  0
 10 11  1  0
 11 12  2  0
 12 13  1  0
 13 14  1  0
 14 15  2  0
 14 16  1  0
 16 17  1  0
 17 18  2  0
 18 19  1  0
 19 20  2  0
 20 21  1  0
 17 22  1  0
 21 22  2  0
 12 23  1  0
  9 24  1  0
 23 24  2  0
M  END
