pyridine_urea_13865
     RDKit          3D

 24 25  0  0  0  0  0  0  0  0999 V2000
   10.7430   -1.4030   23.7050 C   0  0  0  0  0  0  0  0  0  0  0  0
   11.7760   -1.7080   24.2080 C   0  0  0  0  0  0  0  0  0  0  0  0
   12.7930   -2.2050   25.0270 C   0  0  0  0  0  0  0  0  0  0  0  0
   13.1230   -1.4510   23.7620 C   0  0  0  0  0  0  0  0  0  0  0  0
   11.6560   -1.3060   23.3990 C   0  0  0  0  0  0  0  0  0  0  0  0
   10.3170   -0.8960   22.6090 C   0  0  0  0  0  0  0  0  0  0  0  0
    9.2130   -1.8340   22.2160 N   0  0  0  0  0  0  0  0  0  0  0  0
    8.2650   -1.1220   21.4540 C   0  0  0  0  0  0  0  0  0  0  0  0
    8.3450    0.1230   20.8610 O   0  0  0  0  0  0  0  0  0  0  0  0
    6.9290   -1.5280   21.1050 N   0  0  0  0  0  0  0  0  0  0  0  0
    6.3830   -0.6110   20.0540 C   0  0  0  0  0  0  0  0  0  0  0  0
    5.1260    0.1550   20.3900 C   0  0  0  0  0  0  0  0  0  0  0  0
    4.5950    1.0290   19.4260 C   0  0  0  0  0  0  0  0  0  0  0  0
    5.1820    1.2180   18.1760 C   0  0  0  0  0  0  0  0  0  0  0  0
    6.3910    0.4790   17.8600 N   0  0  0  0  0  0  0  0  0  0  0  0
    6.9210   -0.3820   18.7960 C   0  0  0  0  0  0  0  0  0  0  0  0
   12.4130   -0.6100   22.3360 C   0  0  0  0  0  0  0  0  0  0  0  0
   13.7440   -0.2130   21.8130 O   0  0  0  0  0  0  0  0  0  0  0  0
   14.1640    1.1960   21.7090 C   0  0  0  0  0  0  0  0  0  0  0  0
   14.6520    1.4960   20.2530 C   0  0  0  0  0  0  0  0  0  0  0  0
   14.6600    2.8050   19.7520 C   0  0  0  0  0  0  0  0  0  0  0  0
   14.1440    3.0880   18.5400 C   0  0  0  0  0  0  0  0  0  0  0  0
   15.8550    2.9380   19.2260 C   0  0  0  0  0  0  0  0  0  0  0  0
   12.9180   -1.1930   23.3660 C   0  0  0  0  0  0  0  0  0  0  0  0
  1  2  1  0
  2  3  2  0
  3  4  1  0
  4  5  2  0
  5  6  1  0
  6  7  1  0
  7  8  1  0
  8  9  2  0
  8 10  1  0
 10 11  1  0
 11 12  2  0
 12 13  1  0
 13 14  2  0
 14 15  1  0
 11 16  1  0
 15 16  2  0
  5 17  1  0
 17 18  1  0
 18 19  1  0
 19 20  1  0
 20 21  1  0
 21 22  1  0
 21 23  1  0
  2 24  1  0
 17 24  2  0
M  END
