pyridine_urea_446
     RDKit          3D

 25 28  0  0  0  0  0  0  0  0999 V2000
    8.6970    1.3180   20.9940 O   0  0  0  0  0  0  0  0  0  0  0  0
    8.1150    0.3790   21.5430 C   0  0  0  0  0  0  0  0  0  0  0  0
    7.1090   -0.3760   20.9920 N   0  0  0  0  0  0  0  0  0  0  0  0
    6.3550    0.2070   19.9940 C   0  0  0  0  0  0  0  0  0  0  0  0
    5.1550    0.8760   20.1840 C   0  0  0  0  0  0  0  0  0  0  0  0
    4.5200    1.4480   19.0890 C   0  0  0  0  0  0  0  0  0  0  0  0
    5.1180    1.3200   17.8560 C   0  0  0  0  0  0  0  0  0  0  0  0
    6.2670    0.6660   17.6510 N   0  0  0  0  0  0  0  0  0  0  0  0
    6.8520    0.1290   18.7170 C   0  0  0  0  0  0  0  0  0  0  0  0
    8.4120   -0.0090   22.8090 N   0  0  0  0  0  0  0  0  0  0  0  0
    9.6750    0.2830   23.2790 C   0  0  2  0  0  0  0  0  0  0  0  0
   10.7140   -0.0900   22.3340 C   0  0  0  0  0  0  0  0  0  0  0  0
   11.6100   -1.1590   22.7550 C   0  0  0  0  0  0  0  0  0  0  0  0
   10.9840   -2.3000   23.1570 C   0  0  0  0  0  0  0  0  0  0  0  0
   11.9890   -2.8720   23.8590 C   0  0  0  0  0  0  0  0  0  0  0  0
   13.2220   -2.5570   23.0450 C   0  0  0  0  0  0  0  0  0  0  0  0
   12.8080   -1.5540   22.1550 C   0  0  0  0  0  0  0  0  0  0  0  0
   11.9480   -0.6130   24.0280 O   0  0  0  0  0  0  0  0  0  0  0  0
   11.0120    0.1730   23.5400 C   0  0  0  0  0  0  0  0  0  0  0  0
   12.2560    0.5440   23.2460 C   0  0  0  0  0  0  0  0  0  0  0  0
   13.1160   -0.2730   23.8440 C   0  0  0  0  0  0  0  0  0  0  0  0
   12.6090   -1.2760   24.6780 C   0  0  0  0  0  0  0  0  0  0  0  0
   13.6880   -2.3670   25.4990 Cl  0  0  0  0  0  0  0  0  0  0  0  0
   11.2010   -1.4050   24.8370 C   0  0  0  0  0  0  0  0  0  0  0  0
   10.1330   -0.6800   24.1990 C   0  0  0  0  0  0  0  0  0  0  0  0
  1  2  2  0
  2  3  1  0
  3  4  1  0
  4  5  2  0
  5  6  1  0
  6  7  2  0
  7  8  1  0
  4  9  1  0
  8  9  2  0
  2 10  1  0
 11 10  1  6
 11 12  1  0
 12 13  1  0
 13 14  1  0
 14 15  1  0
 15 16  1  0
 13 17  1  0
 16 17  1  0
 13 18  1  0
 18 19  1  0
 19 20  2  0
 20 21  1  0
 21 22  2  0
 22 23  1  0
 22 24  1  0
 11 25  1  0
 19 25  1  0
 24 25  2  0
M  END
