pyridine_urea_5577
     RDKit          3D

 16 17  0  0  0  0  0  0  0  0999 V2000
    9.8930   -0.1370   23.6360 C   0  0  0  0  0  0  0  0  0  0  0  0
   10.5850   -0.4280   22.3660 C   0  0  2  0  0  0  0  0  0  0  0  0
    9.6130   -1.1570   21.5750 N   0  0  0  0  0  0  0  0  0  0  0  0
    8.5290   -0.1870   21.3610 C   0  0  0  0  0  0  0  0  0  0  0  0
    8.7470    1.0160   21.3660 O   0  0  0  0  0  0  0  0  0  0  0  0
    7.1880   -0.8240   21.1110 N   0  0  0  0  0  0  0  0  0  0  0  0
    6.4840   -0.0960   20.0570 C   0  0  0  0  0  0  0  0  0  0  0  0
    5.1910    0.6860   20.3570 C   0  0  0  0  0  0  0  0  0  0  0  0
    4.5780    1.3730   19.3170 C   0  0  0  0  0  0  0  0  0  0  0  0
    5.1800    1.3480   17.9280 C   0  0  0  0  0  0  0  0  0  0  0  0
    6.3320    0.6290   17.7130 N   0  0  0  0  0  0  0  0  0  0  0  0
    6.9650   -0.0760   18.7520 C   0  0  0  0  0  0  0  0  0  0  0  0
   11.8110   -1.2400   22.7100 C   0  0  0  0  0  0  0  0  0  0  0  0
   11.6890   -2.4220   22.9950 O   0  0  0  0  0  0  0  0  0  0  0  0
   12.6900   -0.7200   23.6410 C   0  0  0  0  0  0  0  0  0  0  0  0
   13.1340   -0.9630   22.1420 C   0  0  0  0  0  0  0  0  0  0  0  0
  2  1  1  1
  2  3  1  0
  3  4  1  0
  4  5  2  0
  4  6  1  0
  6  7  1  0
  7  8  2  0
  8  9  1  0
  9 10  2  0
 10 11  1  0
  7 12  1  0
 11 12  2  0
  2 13  1  0
 13 14  1  0
 13 15  1  0
 13 16  1  0
 15 16  1  0
M  END
