pyridine_urea_12206
     RDKit          3D

 23 25  0  0  0  0  0  0  0  0999 V2000
    9.0070    0.5920   21.3650 O   0  0  0  0  0  0  0  0  0  0  0  0
    8.3350   -0.3760   21.6910 C   0  0  0  0  0  0  0  0  0  0  0  0
    8.5780   -1.2030   22.7690 N   0  0  0  0  0  0  0  0  0  0  0  0
    8.7910   -2.6070   22.7520 C   0  0  0  0  0  0  0  0  0  0  0  0
    7.7760   -3.4570   23.2440 C   0  0  0  0  0  0  0  0  0  0  0  0
    7.4610   -4.7030   22.7400 C   0  0  0  0  0  0  0  0  0  0  0  0
    6.4330   -5.3650   23.3800 C   0  0  0  0  0  0  0  0  0  0  0  0
    5.7430   -4.8570   24.4450 N   0  0  0  0  0  0  0  0  0  0  0  0
    6.0630   -3.6140   24.9380 C   0  0  0  0  0  0  0  0  0  0  0  0
    5.2940   -3.2080   26.0130 N   0  0  0  0  0  0  0  0  0  0  0  0
    5.9470   -3.8570   27.1750 C   0  0  0  0  0  0  0  0  0  0  0  0
    4.9440   -3.9720   28.3260 C   0  0  0  0  0  0  0  0  0  0  0  0
    3.7220   -4.5900   27.8880 O   0  0  0  0  0  0  0  0  0  0  0  0
    3.6550   -4.6460   26.4630 C   0  0  0  0  0  0  0  0  0  0  0  0
    3.9450   -3.3770   25.9500 C   0  0  0  0  0  0  0  0  0  0  0  0
    7.1030   -2.8690   24.3450 C   0  0  0  0  0  0  0  0  0  0  0  0
    7.1790   -0.7720   21.0270 N   0  0  0  0  0  0  0  0  0  0  0  0
    6.4800   -0.0670   20.1000 C   0  0  0  0  0  0  0  0  0  0  0  0
    5.3140    0.6710   20.3030 C   0  0  0  0  0  0  0  0  0  0  0  0
    4.7060    1.3500   19.2660 C   0  0  0  0  0  0  0  0  0  0  0  0
    5.2390    1.3200   17.9930 C   0  0  0  0  0  0  0  0  0  0  0  0
    6.3650    0.6160   17.7480 N   0  0  0  0  0  0  0  0  0  0  0  0
    6.9460   -0.0510   18.7860 C   0  0  0  0  0  0  0  0  0  0  0  0
  1  2  2  0
  2  3  1  0
  3  4  1  0
  4  5  1  0
  5  6  2  0
  6  7  1  0
  7  8  2  0
  8  9  1  0
  9 10  1  0
 10 11  1  0
 11 12  1  0
 12 13  1  0
 13 14  1  0
 10 15  1  0
 14 15  1  0
  5 16  1  0
  9 16  2  0
  2 17  1  0
 17 18  1  0
 18 19  2  0
 19 20  1  0
 20 21  2  0
 21 22  1  0
 18 23  1  0
 22 23  2  0
M  END
