pyridine_urea_1891
     RDKit          3D

 16 16  0  0  0  0  0  0  0  0999 V2000
    8.4640   -0.1400   26.0940 C   0  0  0  0  0  0  0  0  0  0  0  0
    7.9110    1.1850   24.9980 S   0  0  0  0  0  0  0  0  0  0  0  0
    9.4820    1.5380   24.1340 C   0  0  0  0  0  0  0  0  0  0  0  0
   10.3720    0.4620   24.1800 C   0  0  2  0  0  0  0  0  0  0  0  0
   11.6830    0.5510   23.6940 C   0  0  0  0  0  0  0  0  0  0  0  0
   10.6220   -0.4720   22.9920 C   0  0  0  0  0  0  0  0  0  0  0  0
    9.3250   -0.8370   22.4130 N   0  0  0  0  0  0  0  0  0  0  0  0
    8.6810    0.0540   21.5660 C   0  0  0  0  0  0  0  0  0  0  0  0
    9.1490    1.1740   21.2930 O   0  0  0  0  0  0  0  0  0  0  0  0
    7.4120   -0.4620   21.0610 N   0  0  0  0  0  0  0  0  0  0  0  0
    6.6630    0.0660   20.0610 C   0  0  0  0  0  0  0  0  0  0  0  0
    5.3880    0.8580   20.3600 C   0  0  0  0  0  0  0  0  0  0  0  0
    4.6470    1.4110   19.3470 C   0  0  0  0  0  0  0  0  0  0  0  0
    5.1010    1.2230   18.0480 C   0  0  0  0  0  0  0  0  0  0  0  0
    6.2150    0.5240   17.7330 N   0  0  0  0  0  0  0  0  0  0  0  0
    6.9630   -0.0360   18.7190 C   0  0  0  0  0  0  0  0  0  0  0  0
  1  2  1  0
  2  3  1  0
  3  4  1  0
  4  5  1  6
  4  6  1  0
  6  7  1  0
  7  8  1  0
  8  9  2  0
  8 10  1  0
 10 11  1  0
 11 12  2  0
 12 13  1  0
 13 14  2  0
 14 15  1  0
 11 16  1  0
 15 16  2  0
M  END
