pyridine_urea_9989
     RDKit          3D

 24 25  0  0  0  0  0  0  0  0999 V2000
    8.9880    1.4090   21.1750 O   0  0  0  0  0  0  0  0  0  0  0  0
    8.4530    0.4150   21.6780 C   0  0  0  0  0  0  0  0  0  0  0  0
    8.8290   -0.1590   22.8760 N   0  0  0  0  0  0  0  0  0  0  0  0
   10.0590    0.0080   23.5720 C   0  0  0  0  0  0  0  0  0  0  0  0
   11.2220   -0.7170   23.2320 C   0  0  0  0  0  0  0  0  0  0  0  0
   12.4040   -0.3410   23.8630 C   0  0  0  0  0  0  0  0  0  0  0  0
   12.8210    0.8330   23.4340 C   0  0  0  0  0  0  0  0  0  0  0  0
   11.6620    0.3310   22.8450 C   0  0  0  0  0  0  0  0  0  0  0  0
   11.0660   -1.1010   23.2680 C   0  0  0  0  0  0  0  0  0  0  0  0
    9.8970   -1.5670   22.6540 O   0  0  0  0  0  0  0  0  0  0  0  0
    9.5000   -2.8720   22.9080 C   0  0  0  0  0  0  0  0  0  0  0  0
    8.3020   -3.1110   23.6120 C   0  0  0  0  0  0  0  0  0  0  0  0
    7.8290   -2.1630   24.4360 F   0  0  0  0  0  0  0  0  0  0  0  0
    7.2570   -3.4070   22.7860 F   0  0  0  0  0  0  0  0  0  0  0  0
    8.4000   -4.2230   24.3910 F   0  0  0  0  0  0  0  0  0  0  0  0
   11.8600   -1.8210   24.3390 N   0  0  0  0  0  0  0  0  0  0  0  0
   12.9890   -1.1600   24.8080 C   0  0  0  0  0  0  0  0  0  0  0  0
    7.3790   -0.2630   21.1240 N   0  0  0  0  0  0  0  0  0  0  0  0
    6.6360    0.2450   20.0040 C   0  0  0  0  0  0  0  0  0  0  0  0
    5.4290    1.0770   20.2800 C   0  0  0  0  0  0  0  0  0  0  0  0
    4.6830    1.6150   19.2170 C   0  0  0  0  0  0  0  0  0  0  0  0
    5.1180    1.3420   17.9260 C   0  0  0  0  0  0  0  0  0  0  0  0
    6.2120    0.5730   17.7050 N   0  0  0  0  0  0  0  0  0  0  0  0
    6.9840    0.0130   18.7030 C   0  0  0  0  0  0  0  0  0  0  0  0
  1  2  2  0
  2  3  1  0
  3  4  1  0
  4  5  1  0
  5  6  1  0
  6  7  2  0
  7  8  1  0
  8  9  2  0
  9 10  1  0
 10 11  1  0
 11 12  1  0
 12 13  1  0
 12 14  1  0
 12 15  1  0
  9 16  1  0
  6 17  1  0
 16 17  2  0
  2 18  1  0
 18 19  1  0
 19 20  2  0
 20 21  1  0
 21 22  2  0
 22 23  1  0
 19 24  1  0
 23 24  2  0
M  END
