pyridine_urea_1044
     RDKit          3D

 22 23  0  0  0  0  0  0  0  0999 V2000
   13.7290   -2.4040   24.7750 C   0  0  0  0  0  0  0  0  0  0  0  0
   13.7470   -1.1010   24.1810 O   0  0  0  0  0  0  0  0  0  0  0  0
   12.5180   -0.7670   23.8580 C   0  0  0  0  0  0  0  0  0  0  0  0
   11.8830    0.4080   24.1910 C   0  0  0  0  0  0  0  0  0  0  0  0
   10.5630    0.6500   23.8450 C   0  0  0  0  0  0  0  0  0  0  0  0
    9.8350   -0.2970   23.1300 C   0  0  0  0  0  0  0  0  0  0  0  0
    8.5040   -0.2300   22.7230 N   0  0  0  0  0  0  0  0  0  0  0  0
    8.2560    0.3100   21.5150 C   0  0  0  0  0  0  0  0  0  0  0  0
    8.8190    1.3040   21.0560 O   0  0  0  0  0  0  0  0  0  0  0  0
    7.2760   -0.3910   20.8790 N   0  0  0  0  0  0  0  0  0  0  0  0
    6.4900    0.2150   19.9290 C   0  0  0  0  0  0  0  0  0  0  0  0
    5.2080    0.9750   20.1640 C   0  0  0  0  0  0  0  0  0  0  0  0
    4.5460    1.5530   19.1150 C   0  0  0  0  0  0  0  0  0  0  0  0
    5.1140    1.3970   17.8550 C   0  0  0  0  0  0  0  0  0  0  0  0
    6.2500    0.7110   17.6090 N   0  0  0  0  0  0  0  0  0  0  0  0
    6.9020    0.1440   18.6350 C   0  0  0  0  0  0  0  0  0  0  0  0
   10.4820   -1.5740   22.7100 C   0  0  0  0  0  0  0  0  0  0  0  0
   11.7510   -1.8000   23.0560 C   0  0  0  0  0  0  0  0  0  0  0  0
   12.3300   -2.9730   22.6780 O   0  0  0  0  0  0  0  0  0  0  0  0
   12.7510   -2.7960   21.3410 C   0  0  0  0  0  0  0  0  0  0  0  0
   13.1580   -1.5090   21.4090 C   0  0  0  0  0  0  0  0  0  0  0  0
   13.9400   -1.4200   22.5570 O   0  0  0  0  0  0  0  0  0  0  0  0
  1  2  1  0
  2  3  1  0
  3  4  2  0
  4  5  1  0
  5  6  2  0
  6  7  1  0
  7  8  1  0
  8  9  2  0
  8 10  1  0
 10 11  1  0
 11 12  2  0
 12 13  1  0
 13 14  2  0
 14 15  1  0
 11 16  1  0
 15 16  2  0
  6 17  1  0
  3 18  1  0
 17 18  2  0
 18 19  1  0
 19 20  1  0
 20 21  1  0
 21 22  1  0
M  END
