pyridine_urea_14616
     RDKit          3D

 21 23  0  0  0  0  0  0  0  0999 V2000
    8.7090    1.3690   21.1670 O   0  0  0  0  0  0  0  0  0  0  0  0
    8.1390    0.3400   21.5500 C   0  0  0  0  0  0  0  0  0  0  0  0
    8.6220   -0.5130   22.4700 N   0  0  0  0  0  0  0  0  0  0  0  0
    9.8050   -1.1640   22.2510 C   0  0  0  0  0  0  0  0  0  0  0  0
   10.8070   -0.9790   23.1250 C   0  0  0  0  0  0  0  0  0  0  0  0
   11.6840    0.1190   22.9850 C   0  0  0  0  0  0  0  0  0  0  0  0
   11.3110    1.4090   22.8570 C   0  0  0  0  0  0  0  0  0  0  0  0
   12.6200    1.1150   22.8510 C   0  0  0  0  0  0  0  0  0  0  0  0
   11.9430   -0.3550   23.0080 C   0  0  0  0  0  0  0  0  0  0  0  0
   12.7060   -1.5370   23.0990 C   0  0  0  0  0  0  0  0  0  0  0  0
   13.9410   -1.9930   23.1090 F   0  0  0  0  0  0  0  0  0  0  0  0
   13.0330   -0.2760   22.9770 C   0  0  0  0  0  0  0  0  0  0  0  0
   10.4860   -1.6840   24.4600 C   0  0  0  0  0  0  0  0  0  0  0  0
   11.3370   -2.2060   23.7380 C   0  0  0  0  0  0  0  0  0  0  0  0
    6.9450   -0.1420   21.1280 N   0  0  0  0  0  0  0  0  0  0  0  0
    6.4060    0.3190   19.8960 C   0  0  0  0  0  0  0  0  0  0  0  0
    5.2880    1.1190   20.1540 C   0  0  0  0  0  0  0  0  0  0  0  0
    4.6190    1.7060   19.0820 C   0  0  0  0  0  0  0  0  0  0  0  0
    5.0980    1.4680   17.8010 C   0  0  0  0  0  0  0  0  0  0  0  0
    6.1790    0.6740   17.5820 N   0  0  0  0  0  0  0  0  0  0  0  0
    6.8470    0.0880   18.6300 C   0  0  0  0  0  0  0  0  0  0  0  0
  1  2  2  0
  2  3  1  0
  3  4  1  0
  5  4  1  0
  5  6  1  0
  6  7  2  0
  7  8  1  0
  8  9  2  0
  9 10  1  0
 10 11  1  0
  6 12  1  0
 10 12  2  0
  5 13  1  0
  5 14  1  0
 13 14  1  0
  2 15  1  0
 15 16  1  0
 16 17  2  0
 17 18  1  0
 18 19  2  0
 19 20  1  0
 16 21  1  0
 20 21  2  0
M  END
