pyridine_urea_7843
     RDKit          3D

 26 27  0  0  0  0  0  0  0  0999 V2000
   13.0530    5.9750   22.0700 C   0  0  0  0  0  0  0  0  0  0  0  0
   12.5830    5.1830   23.2730 C   0  0  0  0  0  0  0  0  0  0  0  0
   11.2950    4.6740   23.0880 C   0  0  0  0  0  0  0  0  0  0  0  0
   11.2120    3.3820   22.5910 C   0  0  0  0  0  0  0  0  0  0  0  0
   11.5200    2.3910   23.4980 C   0  0  0  0  0  0  0  0  0  0  0  0
   10.9600    1.3040   23.4940 O   0  0  0  0  0  0  0  0  0  0  0  0
   11.6560    0.1800   23.0870 C   0  0  0  0  0  0  0  0  0  0  0  0
   12.5560    1.2690   23.0960 C   0  0  0  0  0  0  0  0  0  0  0  0
   12.7730   -0.0400   22.7620 C   0  0  0  0  0  0  0  0  0  0  0  0
   11.5440   -0.7890   22.9180 C   0  0  0  0  0  0  0  0  0  0  0  0
   10.1910   -0.5640   23.3240 C   0  0  1  0  0  0  0  0  0  0  0  0
    9.7860    0.6500   23.8770 C   0  0  0  0  0  0  0  0  0  0  0  0
    9.2790   -0.9100   22.2390 N   0  0  0  0  0  0  0  0  0  0  0  0
    8.5800    0.0400   21.5030 C   0  0  0  0  0  0  0  0  0  0  0  0
    9.0350    1.1600   21.2360 O   0  0  0  0  0  0  0  0  0  0  0  0
    7.3410   -0.4290   21.1170 N   0  0  0  0  0  0  0  0  0  0  0  0
    6.5920    0.1270   20.0690 C   0  0  0  0  0  0  0  0  0  0  0  0
    5.4350    0.8590   20.3780 C   0  0  0  0  0  0  0  0  0  0  0  0
    4.6950    1.4330   19.3460 C   0  0  0  0  0  0  0  0  0  0  0  0
    5.1600    1.2340   18.0650 C   0  0  0  0  0  0  0  0  0  0  0  0
    6.2460    0.5450   17.7170 N   0  0  0  0  0  0  0  0  0  0  0  0
    6.9420    0.0010   18.7340 C   0  0  0  0  0  0  0  0  0  0  0  0
   11.9120   -1.9030   22.5830 C   0  0  0  0  0  0  0  0  0  0  0  0
   12.8270   -0.7520   22.6000 C   0  0  0  0  0  0  0  0  0  0  0  0
   13.4570   -1.9610   22.1860 O   0  0  0  0  0  0  0  0  0  0  0  0
   12.8150   -2.6530   21.1280 C   0  0  0  0  0  0  0  0  0  0  0  0
  1  2  1  0
  2  3  1  0
  3  4  1  0
  4  5  1  0
  5  6  1  0
  6  7  1  0
  7  8  2  0
  8  9  1  0
  9 10  2  0
 10 11  1  0
 11 12  1  6
 11 13  1  0
 13 14  1  0
 14 15  2  0
 14 16  1  0
 16 17  1  0
 17 18  2  0
 18 19  1  0
 19 20  2  0
 20 21  1  0
 17 22  1  0
 21 22  2  0
 10 23  1  0
  7 24  1  0
 23 24  2  0
 24 25  1  0
 25 26  1  0
M  END
