pyridine_urea_10636
     RDKit          3D

 21 22  0  0  0  0  0  0  0  0999 V2000
    9.5160   -2.7980   22.4780 C   0  0  0  0  0  0  0  0  0  0  0  0
   10.7700   -2.8930   23.1590 O   0  0  0  0  0  0  0  0  0  0  0  0
   11.4690   -1.7270   23.1090 C   0  0  0  0  0  0  0  0  0  0  0  0
   12.7570   -1.5610   22.4070 C   0  0  0  0  0  0  0  0  0  0  0  0
   13.2400   -0.1730   22.5560 C   0  0  0  0  0  0  0  0  0  0  0  0
   12.4870    0.8610   23.3060 C   0  0  0  0  0  0  0  0  0  0  0  0
   11.2700    0.8840   23.9980 C   0  0  0  0  0  0  0  0  0  0  0  0
   10.0720    0.5480   24.5650 C   0  0  0  0  0  0  0  0  0  0  0  0
    9.5230   -0.4230   23.6880 C   0  0  0  0  0  0  0  0  0  0  0  0
    8.3120    0.0170   23.0380 N   0  0  0  0  0  0  0  0  0  0  0  0
    8.2580    0.3900   21.7130 C   0  0  0  0  0  0  0  0  0  0  0  0
    8.9490    1.3000   21.2220 O   0  0  0  0  0  0  0  0  0  0  0  0
    7.3210   -0.3570   21.0430 N   0  0  0  0  0  0  0  0  0  0  0  0
    6.5430    0.2100   20.0410 C   0  0  0  0  0  0  0  0  0  0  0  0
    5.3590    0.9500   20.2610 C   0  0  0  0  0  0  0  0  0  0  0  0
    4.5560    1.5670   19.2630 C   0  0  0  0  0  0  0  0  0  0  0  0
    5.1370    1.3310   17.8880 C   0  0  0  0  0  0  0  0  0  0  0  0
    6.2630    0.6120   17.6790 N   0  0  0  0  0  0  0  0  0  0  0  0
    6.9620    0.0540   18.7370 C   0  0  0  0  0  0  0  0  0  0  0  0
   10.8650   -0.4960   23.8290 C   0  0  0  0  0  0  0  0  0  0  0  0
    9.7980   -0.7150   24.3950 O   0  0  0  0  0  0  0  0  0  0  0  0
  1  2  1  0
  2  3  1  0
  3  4  2  0
  4  5  1  0
  5  6  2  0
  6  7  1  0
  7  8  1  0
  8  9  1  0
  9 10  1  0
 10 11  1  0
 11 12  2  0
 11 13  1  0
 13 14  1  0
 14 15  2  0
 15 16  1  0
 16 17  2  0
 17 18  1  0
 14 19  1  0
 18 19  2  0
  3 20  1  0
  7 20  2  0
 20 21  1  0
M  END
