pyridine_urea_8065
     RDKit          3D

 24 26  0  0  0  0  0  0  0  0999 V2000
    8.4040    1.4630   20.9640 O   0  0  0  0  0  0  0  0  0  0  0  0
    8.3970    0.2420   21.0770 C   0  0  0  0  0  0  0  0  0  0  0  0
    7.2550   -0.5060   20.9560 N   0  0  0  0  0  0  0  0  0  0  0  0
    6.4540    0.1180   19.9580 C   0  0  0  0  0  0  0  0  0  0  0  0
    5.1260    0.8440   20.3250 C   0  0  0  0  0  0  0  0  0  0  0  0
    4.4510    1.4480   19.2800 C   0  0  0  0  0  0  0  0  0  0  0  0
    5.0870    1.3280   17.8900 C   0  0  0  0  0  0  0  0  0  0  0  0
    6.2320    0.6720   17.6380 N   0  0  0  0  0  0  0  0  0  0  0  0
    6.8760    0.0960   18.6590 C   0  0  0  0  0  0  0  0  0  0  0  0
    9.5070   -0.4830   21.3070 N   0  0  0  0  0  0  0  0  0  0  0  0
    9.8480   -0.4690   22.6540 C   0  0  0  0  0  0  0  0  0  0  0  0
    8.7020    0.1490   23.3660 C   0  0  0  0  0  0  0  0  0  0  0  0
    8.8110    0.2550   24.8220 C   0  0  0  0  0  0  0  0  0  0  0  0
   10.0330   -0.2520   25.4700 C   0  0  0  0  0  0  0  0  0  0  0  0
    9.8300   -0.0410   27.1650 Cl  0  0  0  0  0  0  0  0  0  0  0  0
   11.1500   -0.8360   24.5690 C   0  0  0  0  0  0  0  0  0  0  0  0
   12.4170   -1.3240   25.1680 C   0  0  0  0  0  0  0  0  0  0  0  0
   13.3010   -1.2470   24.2670 N   0  0  0  0  0  0  0  0  0  0  0  0
   13.4230   -2.4280   23.7040 C   0  0  0  0  0  0  0  0  0  0  0  0
   12.8450   -2.6680   22.5080 C   0  0  0  0  0  0  0  0  0  0  0  0
   12.6780   -1.6310   21.6620 C   0  0  0  0  0  0  0  0  0  0  0  0
   12.9600   -0.3910   22.1610 C   0  0  0  0  0  0  0  0  0  0  0  0
   13.1400   -0.1660   23.4760 C   0  0  0  0  0  0  0  0  0  0  0  0
   10.9960   -0.9240   23.2010 C   0  0  0  0  0  0  0  0  0  0  0  0
  1  2  2  0
  2  3  1  0
  3  4  1  0
  4  5  2  0
  5  6  1  0
  6  7  2  0
  7  8  1  0
  4  9  1  0
  8  9  2  0
  2 10  1  0
 10 11  1  0
 11 12  2  0
 12 13  1  0
 13 14  2  0
 14 15  1  0
 14 16  1  0
 16 17  1  0
 17 18  1  0
 18 19  1  0
 19 20  1  0
 20 21  1  0
 21 22  1  0
 18 23  1  0
 22 23  1  0
 11 24  1  0
 16 24  2  0
M  END
