pyridine_urea_7029
     RDKit          3D

 20 21  0  0  0  0  0  0  0  0999 V2000
   12.3030    2.9970   22.8100 C   0  0  0  0  0  0  0  0  0  0  0  0
   12.2700    1.4780   22.9230 C   0  0  0  0  0  0  0  0  0  0  0  0
   11.2830    0.4180   23.1230 C   0  0  0  0  0  0  0  0  0  0  0  0
   10.0170   -0.0300   23.3120 C   0  0  0  0  0  0  0  0  0  0  0  0
    9.2000   -1.1480   23.5140 C   0  0  0  0  0  0  0  0  0  0  0  0
    9.9910    1.1530   23.2170 C   0  0  0  0  0  0  0  0  0  0  0  0
   11.3940    0.0590   23.1130 C   0  0  0  0  0  0  0  0  0  0  0  0
   11.3530   -1.3240   23.1870 C   0  0  0  0  0  0  0  0  0  0  0  0
   10.2610   -1.9060   22.5160 C   0  0  0  0  0  0  0  0  0  0  0  0
    9.6250   -1.2550   21.4190 N   0  0  0  0  0  0  0  0  0  0  0  0
    8.6030   -0.1860   21.3210 C   0  0  0  0  0  0  0  0  0  0  0  0
    8.8720    0.9990   21.4210 O   0  0  0  0  0  0  0  0  0  0  0  0
    7.3330   -0.6660   21.0410 N   0  0  0  0  0  0  0  0  0  0  0  0
    6.5290   -0.0050   20.0970 C   0  0  0  0  0  0  0  0  0  0  0  0
    5.2720    0.7440   20.3400 C   0  0  0  0  0  0  0  0  0  0  0  0
    4.6080    1.3620   19.2890 C   0  0  0  0  0  0  0  0  0  0  0  0
    5.1590    1.2530   18.0220 C   0  0  0  0  0  0  0  0  0  0  0  0
    6.2900    0.5770   17.7460 N   0  0  0  0  0  0  0  0  0  0  0  0
    6.9400   -0.0300   18.7720 C   0  0  0  0  0  0  0  0  0  0  0  0
   12.8870    0.4860   22.9150 C   0  0  0  0  0  0  0  0  0  0  0  0
  1  2  1  0
  2  3  2  0
  3  4  1  0
  4  5  1  0
  4  6  2  0
  6  7  1  0
  7  8  1  0
  8  9  1  0
  9 10  1  0
 10 11  1  0
 11 12  2  0
 11 13  1  0
 13 14  1  0
 14 15  2  0
 15 16  1  0
 16 17  2  0
 17 18  1  0
 14 19  1  0
 18 19  2  0
  2 20  1  0
  7 20  2  0
M  END
