pyridine_urea_7924
     RDKit          3D

 25 27  0  0  0  0  0  0  0  0999 V2000
    6.4750   -1.1900   29.4960 C   0  0  0  0  0  0  0  0  0  0  0  0
    6.2180   -0.5770   28.4580 O   0  0  0  0  0  0  0  0  0  0  0  0
    7.3030   -0.4490   27.6640 C   0  0  0  0  0  0  0  0  0  0  0  0
    7.2060   -0.6790   26.2920 C   0  0  0  0  0  0  0  0  0  0  0  0
    8.2520   -0.5860   25.3730 C   0  0  0  0  0  0  0  0  0  0  0  0
    9.4850   -0.2330   25.9060 C   0  0  0  0  0  0  0  0  0  0  0  0
   10.5090   -0.1720   24.8170 N   0  0  0  0  0  0  0  0  0  0  0  0
   11.9150   -0.2130   24.7350 C   0  0  0  0  0  0  0  0  0  0  0  0
   12.3440   -1.1360   23.7500 C   0  0  0  0  0  0  0  0  0  0  0  0
   11.5980   -0.9120   22.4480 C   0  0  0  0  0  0  0  0  0  0  0  0
   10.2320   -0.9690   22.6950 C   0  0  2  0  0  0  0  0  0  0  0  0
    9.4560   -0.8930   21.5640 N   0  0  0  0  0  0  0  0  0  0  0  0
    8.4540    0.0390   21.2380 C   0  0  0  0  0  0  0  0  0  0  0  0
    8.6460    1.2530   21.0880 O   0  0  0  0  0  0  0  0  0  0  0  0
    7.2330   -0.5190   21.0600 N   0  0  0  0  0  0  0  0  0  0  0  0
    6.5000    0.0990   20.1130 C   0  0  0  0  0  0  0  0  0  0  0  0
    5.3410    0.8440   20.3350 C   0  0  0  0  0  0  0  0  0  0  0  0
    4.6980    1.4390   19.2640 C   0  0  0  0  0  0  0  0  0  0  0  0
    5.1780    1.3120   17.9850 C   0  0  0  0  0  0  0  0  0  0  0  0
    6.2770    0.6080   17.6900 N   0  0  0  0  0  0  0  0  0  0  0  0
    6.9250    0.0020   18.7870 C   0  0  0  0  0  0  0  0  0  0  0  0
    9.8950    0.0650   23.5310 C   0  0  0  0  0  0  0  0  0  0  0  0
    9.1930    1.0040   23.1960 O   0  0  0  0  0  0  0  0  0  0  0  0
    9.6820    0.0180   27.2730 C   0  0  0  0  0  0  0  0  0  0  0  0
    8.6620   -0.0620   28.2100 C   0  0  0  0  0  0  0  0  0  0  0  0
  1  2  1  0
  2  3  1  0
  3  4  2  0
  4  5  1  0
  5  6  2  0
  6  7  1  0
  7  8  1  0
  8  9  1  0
  9 10  1  0
 10 11  1  0
 11 12  1  6
 12 13  1  0
 13 14  2  0
 13 15  1  0
 15 16  1  0
 16 17  2  0
 17 18  1  0
 18 19  2  0
 19 20  1  0
 16 21  1  0
 20 21  2  0
  7 22  1  0
 11 22  1  0
 22 23  2  0
  6 24  1  0
  3 25  1  0
 24 25  2  0
M  END
