pyridine_urea_1419
     RDKit          3D

 20 21  0  0  0  0  0  0  0  0999 V2000
   13.9390   -3.0210   23.4680 N   0  0  0  0  0  0  0  0  0  0  0  0
   12.8480   -2.4190   24.5440 S   0  0  0  0  0  0  0  0  0  0  0  0
   13.6080   -2.0730   25.7140 O   0  0  0  0  0  0  0  0  0  0  0  0
   11.6660   -3.2450   24.6080 O   0  0  0  0  0  0  0  0  0  0  0  0
   12.5210   -1.0250   23.7270 N   0  0  0  0  0  0  0  0  0  0  0  0
   11.9690    0.0390   24.5520 C   0  0  0  0  0  0  0  0  0  0  0  0
   10.4290    0.0740   24.4040 C   0  0  0  0  0  0  0  0  0  0  0  0
   10.0390   -0.8560   23.2410 C   0  0  0  0  0  0  0  0  0  0  0  0
    8.7520   -0.7900   22.7130 N   0  0  0  0  0  0  0  0  0  0  0  0
    8.4130   -0.0250   21.6480 C   0  0  0  0  0  0  0  0  0  0  0  0
    9.0670    1.1260   21.2830 O   0  0  0  0  0  0  0  0  0  0  0  0
    7.3340   -0.5560   21.0290 N   0  0  0  0  0  0  0  0  0  0  0  0
    6.5620    0.0920   20.0560 C   0  0  0  0  0  0  0  0  0  0  0  0
    5.3890    0.8360   20.2960 C   0  0  0  0  0  0  0  0  0  0  0  0
    4.6880    1.4660   19.2560 C   0  0  0  0  0  0  0  0  0  0  0  0
    5.1710    1.3490   17.9570 C   0  0  0  0  0  0  0  0  0  0  0  0
    6.2910    0.6300   17.7160 N   0  0  0  0  0  0  0  0  0  0  0  0
    6.9830    0.0020   18.7510 C   0  0  0  0  0  0  0  0  0  0  0  0
   11.0300   -0.6410   22.1490 C   0  0  0  0  0  0  0  0  0  0  0  0
   12.3330   -1.1190   22.3620 C   0  0  0  0  0  0  0  0  0  0  0  0
  2  1  1  0
  2  3  2  0
  2  4  2  0
  2  5  1  0
  5  6  1  0
  6  7  1  0
  7  8  1  0
  8  9  1  0
  9 10  1  0
 10 11  2  0
 10 12  1  0
 12 13  1  0
 13 14  2  0
 14 15  1  0
 15 16  2  0
 16 17  1  0
 13 18  1  0
 17 18  2  0
  8 19  1  0
  5 20  1  0
 19 20  1  0
M  END
