pyridine_urea_8823
     RDKit          3D

 20 21  0  0  0  0  0  0  0  0999 V2000
   13.3260   -3.0390   25.0810 C   0  0  0  0  0  0  0  0  0  0  0  0
   13.3120   -1.5180   24.9920 C   0  0  0  0  0  0  0  0  0  0  0  0
   12.0960   -1.0190   24.3080 C   0  0  0  0  0  0  0  0  0  0  0  0
   11.0690   -0.4240   24.9950 C   0  0  0  0  0  0  0  0  0  0  0  0
    9.9270    0.0380   24.4320 C   0  0  0  0  0  0  0  0  0  0  0  0
    9.7890   -0.1150   23.0830 C   0  0  0  0  0  0  0  0  0  0  0  0
    8.6000    0.3190   22.3650 N   0  0  0  0  0  0  0  0  0  0  0  0
    8.1780   -0.4880   21.3730 C   0  0  0  0  0  0  0  0  0  0  0  0
    8.9380   -1.1840   20.8110 O   0  0  0  0  0  0  0  0  0  0  0  0
    6.8560   -0.3950   21.1340 N   0  0  0  0  0  0  0  0  0  0  0  0
    6.2390    0.2150   20.0990 C   0  0  0  0  0  0  0  0  0  0  0  0
    5.0600    0.9280   20.1930 C   0  0  0  0  0  0  0  0  0  0  0  0
    4.5260    1.5240   19.0570 C   0  0  0  0  0  0  0  0  0  0  0  0
    5.2110    1.3790   17.8510 C   0  0  0  0  0  0  0  0  0  0  0  0
    6.3530    0.6890   17.7290 N   0  0  0  0  0  0  0  0  0  0  0  0
    6.8360    0.1230   18.8500 C   0  0  0  0  0  0  0  0  0  0  0  0
   10.9140   -0.7810   22.2490 C   0  0  0  0  0  0  0  0  0  0  0  0
   12.0500   -1.1960   22.9630 C   0  0  0  0  0  0  0  0  0  0  0  0
   13.1270   -1.7840   22.3660 C   0  0  0  0  0  0  0  0  0  0  0  0
   12.9020   -2.1760   20.9610 C   0  0  0  0  0  0  0  0  0  0  0  0
  1  2  1  0
  2  3  1  0
  3  4  2  0
  4  5  1  0
  5  6  2  0
  6  7  1  0
  7  8  1  0
  8  9  2  0
  8 10  1  0
 10 11  1  0
 11 12  2  0
 12 13  1  0
 13 14  2  0
 14 15  1  0
 11 16  1  0
 15 16  2  0
  6 17  1  0
  3 18  1  0
 17 18  2  0
 18 19  1  0
 19 20  1  0
M  END
