pyridine_urea_5187
     RDKit          3D

 20 20  0  0  0  0  0  0  0  0999 V2000
    8.0400    0.4450   32.0210 C   0  0  0  0  0  0  0  0  0  0  0  0
    7.8140    0.0170   30.5970 C   0  0  0  0  0  0  0  0  0  0  0  0
    8.3600    0.7940   29.5720 C   0  0  0  0  0  0  0  0  0  0  0  0
    7.6910    0.8300   28.3460 C   0  0  0  0  0  0  0  0  0  0  0  0
    7.4840   -0.3010   27.9280 O   0  0  0  0  0  0  0  0  0  0  0  0
    8.6240   -0.7360   27.1790 C   0  0  0  0  0  0  0  0  0  0  0  0
    8.8730   -0.2200   25.7600 C   0  0  0  0  0  0  0  0  0  0  0  0
    9.8330   -0.7050   25.1730 O   0  0  0  0  0  0  0  0  0  0  0  0
   10.4890    0.1110   24.1840 C   0  0  0  0  0  0  0  0  0  0  0  0
   10.5230   -0.6550   22.8550 C   0  0  0  0  0  0  0  0  0  0  0  0
    9.1130   -0.8150   22.3360 N   0  0  0  0  0  0  0  0  0  0  0  0
    8.4780    0.0630   21.4910 C   0  0  0  0  0  0  0  0  0  0  0  0
    8.9600    1.1690   21.2100 O   0  0  0  0  0  0  0  0  0  0  0  0
    7.2850   -0.4590   21.0480 N   0  0  0  0  0  0  0  0  0  0  0  0
    6.5530    0.1260   20.0170 C   0  0  0  0  0  0  0  0  0  0  0  0
    5.3980    0.8430   20.3270 C   0  0  0  0  0  0  0  0  0  0  0  0
    4.6770    1.4470   19.2880 C   0  0  0  0  0  0  0  0  0  0  0  0
    5.1360    1.3120   17.9890 C   0  0  0  0  0  0  0  0  0  0  0  0
    6.2360    0.6200   17.6780 N   0  0  0  0  0  0  0  0  0  0  0  0
    6.9170    0.0450   18.6920 C   0  0  0  0  0  0  0  0  0  0  0  0
  1  2  1  0
  2  3  1  0
  3  4  1  0
  4  5  1  0
  5  6  1  0
  6  7  1  0
  7  8  1  0
  8  9  1  0
  9 10  1  0
 10 11  1  0
 11 12  1  0
 12 13  2  0
 12 14  1  0
 14 15  1  0
 15 16  2  0
 16 17  1  0
 17 18  2  0
 18 19  1  0
 15 20  1  0
 19 20  2  0
M  END
