pyridine_urea_7861
     RDKit          3D

 26 28  0  0  0  0  0  0  0  0999 V2000
    8.5560    0.8370   21.1280 O   0  0  0  0  0  0  0  0  0  0  0  0
    8.4000   -0.3590   21.3220 C   0  0  0  0  0  0  0  0  0  0  0  0
    9.2120   -1.1120   22.1330 N   0  0  0  0  0  0  0  0  0  0  0  0
   10.5070   -0.6540   22.4130 C   0  0  0  0  0  0  0  0  0  0  0  0
   11.5980   -1.4980   22.2150 C   0  0  0  0  0  0  0  0  0  0  0  0
   12.8860   -1.0310   22.4760 C   0  0  0  0  0  0  0  0  0  0  0  0
   13.0310    0.2620   22.9210 C   0  0  0  0  0  0  0  0  0  0  0  0
   12.0160    1.0930   23.1230 N   0  0  0  0  0  0  0  0  0  0  0  0
   10.7720    0.6240   22.8720 C   0  0  0  0  0  0  0  0  0  0  0  0
    7.3730   -1.0650   20.7170 N   0  0  0  0  0  0  0  0  0  0  0  0
    6.0810   -0.3770   20.4690 C   0  0  1  0  0  0  0  0  0  0  0  0
    6.1800    0.8960   21.2150 C   0  0  0  0  0  0  0  0  0  0  0  0
    6.4300    1.7950   20.2090 C   0  0  0  0  0  0  0  0  0  0  0  0
    5.5910    1.5000   19.2370 N   0  0  0  0  0  0  0  0  0  0  0  0
    4.4270    1.9760   19.8060 C   0  0  0  0  0  0  0  0  0  0  0  0
    3.2920    1.3110   19.4530 N   0  0  0  0  0  0  0  0  0  0  0  0
    2.1080    1.7520   20.0340 C   0  0  0  0  0  0  0  0  0  0  0  0
    2.0450    2.7960   20.9040 C   0  0  0  0  0  0  0  0  0  0  0  0
    0.8670    3.2670   21.4980 C   0  0  0  0  0  0  0  0  0  0  0  0
    0.5460    4.5350   21.1330 F   0  0  0  0  0  0  0  0  0  0  0  0
   -0.1910    2.4980   21.1610 F   0  0  0  0  0  0  0  0  0  0  0  0
    0.9370    3.2510   22.8510 F   0  0  0  0  0  0  0  0  0  0  0  0
    3.1170    3.5160   21.3130 C   0  0  0  0  0  0  0  0  0  0  0  0
    4.3260    3.0790   20.7470 C   0  0  0  0  0  0  0  0  0  0  0  0
    5.6730    3.9900   21.3080 Cl  0  0  0  0  0  0  0  0  0  0  0  0
    5.8350    0.1250   19.0330 C   0  0  0  0  0  0  0  0  0  0  0  0
  1  2  2  0
  2  3  1  0
  3  4  1  0
  4  5  2  0
  5  6  1  0
  6  7  2  0
  7  8  1  0
  4  9  1  0
  8  9  2  0
  2 10  1  0
 11 10  1  6
 11 12  1  0
 12 13  1  0
 13 14  1  0
 14 15  1  0
 15 16  2  0
 16 17  1  0
 17 18  2  0
 18 19  1  0
 19 20  1  0
 19 21  1  0
 19 22  1  0
 18 23  1  0
 15 24  1  0
 23 24  2  0
 24 25  1  0
 11 26  1  0
 14 26  1  0
M  END
