pyridine_urea_10722
     RDKit          3D

 20 20  0  0  0  0  0  0  0  0999 V2000
   12.0250   -0.4310   24.9460 C   0  0  0  0  0  0  0  0  0  0  0  0
   12.4360    0.5560   23.9100 C   0  0  0  0  0  0  0  0  0  0  0  0
   11.8200    0.4870   22.7120 C   0  0  0  0  0  0  0  0  0  0  0  0
   11.1520   -0.6770   22.4340 C   0  0  2  0  0  0  0  0  0  0  0  0
   10.0600   -0.9800   23.2350 C   0  0  0  0  0  0  0  0  0  0  0  0
    8.7650   -1.1400   22.6440 N   0  0  0  0  0  0  0  0  0  0  0  0
    8.3490   -0.2540   21.6660 C   0  0  0  0  0  0  0  0  0  0  0  0
    8.9230    0.7920   21.4010 O   0  0  0  0  0  0  0  0  0  0  0  0
    7.2060   -0.7120   21.0470 N   0  0  0  0  0  0  0  0  0  0  0  0
    6.4660   -0.0210   20.0740 C   0  0  0  0  0  0  0  0  0  0  0  0
    5.1840    0.7650   20.3150 C   0  0  0  0  0  0  0  0  0  0  0  0
    4.5980    1.3990   19.2320 C   0  0  0  0  0  0  0  0  0  0  0  0
    5.2000    1.2930   17.9770 C   0  0  0  0  0  0  0  0  0  0  0  0
    6.3280    0.5980   17.7430 N   0  0  0  0  0  0  0  0  0  0  0  0
    6.9260   -0.0350   18.7720 C   0  0  0  0  0  0  0  0  0  0  0  0
   12.1800   -1.8120   22.2590 C   0  0  0  0  0  0  0  0  0  0  0  0
   12.6580   -2.4740   23.1690 O   0  0  0  0  0  0  0  0  0  0  0  0
   12.4250   -1.8960   21.0840 O   0  0  0  0  0  0  0  0  0  0  0  0
   13.3210   -2.9220   20.8220 C   0  0  0  0  0  0  0  0  0  0  0  0
   12.6520   -3.9560   20.2670 C   0  0  0  0  0  0  0  0  0  0  0  0
  1  2  1  0
  2  3  1  0
  4  3  1  1
  4  5  1  0
  5  6  1  0
  6  7  1  0
  7  8  2  0
  7  9  1  0
  9 10  1  0
 10 11  2  0
 11 12  1  0
 12 13  2  0
 13 14  1  0
 10 15  1  0
 14 15  2  0
  4 16  1  0
 16 17  2  0
 16 18  1  0
 18 19  1  0
 19 20  1  0
M  END
