pyridine_urea_12579
     RDKit          3D

 21 21  0  0  0  0  0  0  0  0999 V2000
   12.8380   -0.4990   24.2350 C   0  0  0  0  0  0  0  0  0  0  0  0
   12.9630    0.2580   22.9220 C   0  0  0  0  0  0  0  0  0  0  0  0
   12.2330    1.6030   23.1250 C   0  0  0  0  0  0  0  0  0  0  0  0
   11.0410    1.5800   23.8310 C   0  0  0  0  0  0  0  0  0  0  0  0
   10.4300    0.1850   23.9310 C   0  0  0  0  0  0  0  0  0  0  0  0
   10.2570   -0.4910   22.7350 C   0  0  0  0  0  0  0  0  0  0  0  0
   11.0140   -1.7750   22.4230 C   0  0  0  0  0  0  0  0  0  0  0  0
   12.4480   -1.6730   21.9530 C   0  0  0  0  0  0  0  0  0  0  0  0
   13.2540   -2.4700   22.9490 C   0  0  0  0  0  0  0  0  0  0  0  0
   12.5510   -2.7250   24.2860 C   0  0  0  0  0  0  0  0  0  0  0  0
   13.6150   -2.8470   25.3610 C   0  0  0  0  0  0  0  0  0  0  0  0
    8.8460   -0.7170   22.4450 N   0  0  0  0  0  0  0  0  0  0  0  0
    8.2900    0.0670   21.4830 C   0  0  0  0  0  0  0  0  0  0  0  0
    8.7770    1.1590   21.1540 O   0  0  0  0  0  0  0  0  0  0  0  0
    7.1570   -0.5150   20.9880 N   0  0  0  0  0  0  0  0  0  0  0  0
    6.3710    0.1520   19.9720 C   0  0  0  0  0  0  0  0  0  0  0  0
    5.1720    0.8310   20.1870 C   0  0  0  0  0  0  0  0  0  0  0  0
    4.5440    1.4450   19.1100 C   0  0  0  0  0  0  0  0  0  0  0  0
    5.1390    1.3530   17.8720 C   0  0  0  0  0  0  0  0  0  0  0  0
    6.2840    0.6940   17.6470 N   0  0  0  0  0  0  0  0  0  0  0  0
    6.8630    0.1150   18.6990 C   0  0  0  0  0  0  0  0  0  0  0  0
  1  2  1  0
  2  3  1  0
  3  4  1  0
  4  5  1  0
  5  6  1  0
  6  7  1  0
  7  8  1  0
  8  9  1  0
  9 10  1  0
 10 11  1  0
  6 12  1  0
 12 13  1  0
 13 14  2  0
 13 15  1  0
 15 16  1  0
 16 17  2  0
 17 18  1  0
 18 19  2  0
 19 20  1  0
 16 21  1  0
 20 21  2  0
M  END
