pyridine_urea_15206
     RDKit          3D

 16 18  0  0  0  0  0  0  0  0999 V2000
    8.6340    0.9840   21.3580 O   0  0  0  0  0  0  0  0  0  0  0  0
    8.3600   -0.1730   21.6520 C   0  0  0  0  0  0  0  0  0  0  0  0
    7.2370   -0.8100   21.1570 N   0  0  0  0  0  0  0  0  0  0  0  0
    6.5400   -0.1080   20.0970 C   0  0  0  0  0  0  0  0  0  0  0  0
    5.2620    0.6490   20.4530 C   0  0  0  0  0  0  0  0  0  0  0  0
    4.5420    1.4020   19.3320 C   0  0  0  0  0  0  0  0  0  0  0  0
    5.1960    1.3140   17.9520 C   0  0  0  0  0  0  0  0  0  0  0  0
    6.3690    0.5730   17.7880 N   0  0  0  0  0  0  0  0  0  0  0  0
    7.0010   -0.1020   18.7970 C   0  0  0  0  0  0  0  0  0  0  0  0
    9.1610   -0.9400   22.4900 N   0  0  0  0  0  0  0  0  0  0  0  0
   10.5400   -0.7470   22.2730 C   0  0  2  0  0  0  0  0  0  0  0  0
   11.4210   -1.8110   22.1130 C   0  0  0  0  0  0  0  0  0  0  0  0
   12.7420   -1.3520   22.1280 C   0  0  0  0  0  0  0  0  0  0  0  0
   12.7000   -0.0920   22.6700 C   0  0  2  0  0  0  0  0  0  0  0  0
   12.3810    0.0070   23.8290 C   0  0  0  0  0  0  0  0  0  0  0  0
   11.1830    0.2180   23.0550 C   0  0  2  0  0  0  0  0  0  0  0  0
  1  2  2  0
  2  3  1  0
  3  4  1  0
  4  5  2  0
  5  6  1  0
  6  7  2  0
  7  8  1  0
  4  9  1  0
  8  9  2  0
  2 10  1  0
 11 10  1  1
 11 12  1  0
 12 13  1  0
 14 13  1  1
 14 15  1  0
 11 16  1  0
 14 16  1  0
 16 15  1  1
M  END
