pyridine_urea_10926
     RDKit          3D

 19 20  0  0  0  0  0  0  0  0999 V2000
   11.2560   -1.7520   22.1890 C   0  0  0  0  0  0  0  0  0  0  0  0
   10.0470   -1.3470   22.9920 C   0  0  2  0  0  0  0  0  0  0  0  0
    8.8260   -1.4980   22.2160 N   0  0  0  0  0  0  0  0  0  0  0  0
    8.2540   -0.4440   21.5360 C   0  0  0  0  0  0  0  0  0  0  0  0
    8.7870    0.6380   21.3550 O   0  0  0  0  0  0  0  0  0  0  0  0
    7.0060   -0.7750   21.0980 N   0  0  0  0  0  0  0  0  0  0  0  0
    6.3530   -0.0310   20.0070 C   0  0  0  0  0  0  0  0  0  0  0  0
    5.1730    0.6530   20.2870 C   0  0  0  0  0  0  0  0  0  0  0  0
    4.4870    1.4310   19.2230 C   0  0  0  0  0  0  0  0  0  0  0  0
    5.1950    1.3850   17.8870 C   0  0  0  0  0  0  0  0  0  0  0  0
    6.3380    0.6960   17.6800 N   0  0  0  0  0  0  0  0  0  0  0  0
    6.8760    0.0180   18.7240 C   0  0  0  0  0  0  0  0  0  0  0  0
   10.1330    0.0700   23.4980 C   0  0  0  0  0  0  0  0  0  0  0  0
   10.5990    0.9490   22.5570 C   0  0  0  0  0  0  0  0  0  0  0  0
   11.8550    1.5610   22.8190 C   0  0  0  0  0  0  0  0  0  0  0  0
   12.9290    0.6710   22.6350 C   0  0  0  0  0  0  0  0  0  0  0  0
   12.7820   -0.2990   23.5010 C   0  0  0  0  0  0  0  0  0  0  0  0
   12.1830    0.3090   24.5320 C   0  0  0  0  0  0  0  0  0  0  0  0
   10.8210    0.2080   24.6520 C   0  0  0  0  0  0  0  0  0  0  0  0
  2  1  1  6
  2  3  1  0
  3  4  1  0
  4  5  2  0
  4  6  1  0
  6  7  1  0
  7  8  2  0
  8  9  1  0
  9 10  2  0
 10 11  1  0
  7 12  1  0
 11 12  2  0
  2 13  1  0
 13 14  1  0
 14 15  1  0
 15 16  1  0
 16 17  1  0
 17 18  1  0
 13 19  1  0
 18 19  1  0
M  END
