pyridine_urea_7221
     RDKit          3D

 19 20  0  0  0  0  0  0  0  0999 V2000
    8.4530   -3.0630   23.8870 C   0  0  0  0  0  0  0  0  0  0  0  0
    9.6750   -2.1620   23.9270 C   0  0  0  0  0  0  0  0  0  0  0  0
    9.8790   -1.3820   22.8160 C   0  0  1  0  0  0  0  0  0  0  0  0
    9.8080   -2.1420   21.6760 C   0  0  0  0  0  0  0  0  0  0  0  0
    8.7730   -0.4250   22.8040 N   0  0  0  0  0  0  0  0  0  0  0  0
    8.3140    0.1200   21.5960 C   0  0  0  0  0  0  0  0  0  0  0  0
    8.8100    1.1670   21.1350 O   0  0  0  0  0  0  0  0  0  0  0  0
    7.3020   -0.5880   21.0390 N   0  0  0  0  0  0  0  0  0  0  0  0
    6.6230    0.0230   20.0490 C   0  0  0  0  0  0  0  0  0  0  0  0
    5.3520    0.8590   20.3340 C   0  0  0  0  0  0  0  0  0  0  0  0
    4.6760    1.4930   19.2830 C   0  0  0  0  0  0  0  0  0  0  0  0
    5.1810    1.3490   17.9890 C   0  0  0  0  0  0  0  0  0  0  0  0
    6.2990    0.6040   17.7390 N   0  0  0  0  0  0  0  0  0  0  0  0
    7.0160   -0.0540   18.7340 C   0  0  0  0  0  0  0  0  0  0  0  0
   11.0030   -0.5580   22.8230 C   0  0  0  0  0  0  0  0  0  0  0  0
   10.8870    0.7860   22.8150 N   0  0  0  0  0  0  0  0  0  0  0  0
   12.0820    1.4120   22.8120 C   0  0  0  0  0  0  0  0  0  0  0  0
   13.1300    0.5110   22.8160 C   0  0  0  0  0  0  0  0  0  0  0  0
   12.6910   -1.1330   22.8290 S   0  0  0  0  0  0  0  0  0  0  0  0
  1  2  1  0
  2  3  1  0
  3  4  1  6
  3  5  1  0
  5  6  1  0
  6  7  2  0
  6  8  1  0
  8  9  1  0
  9 10  2  0
 10 11  1  0
 11 12  2  0
 12 13  1  0
  9 14  1  0
 13 14  2  0
  3 15  1  0
 15 16  2  0
 16 17  1  0
 17 18  2  0
 15 19  1  0
 18 19  1  0
M  END
