pyridine_urea_13871
     RDKit          3D

 24 25  0  0  0  0  0  0  0  0999 V2000
    9.9350    0.1660   21.8620 C   0  0  0  0  0  0  0  0  0  0  0  0
   10.3240   -0.7560   22.4550 C   0  0  2  0  0  0  0  0  0  0  0  0
   10.8030   -2.0810   23.0320 C   0  0  0  0  0  0  0  0  0  0  0  0
   10.2940   -2.3260   24.3430 O   0  0  0  0  0  0  0  0  0  0  0  0
    8.8790   -0.9370   22.7030 N   0  0  0  0  0  0  0  0  0  0  0  0
    8.0250   -0.2290   21.6570 C   0  0  0  0  0  0  0  0  0  0  0  0
    8.2880    1.1010   21.1910 O   0  0  0  0  0  0  0  0  0  0  0  0
    6.9730   -0.9820   21.1900 N   0  0  0  0  0  0  0  0  0  0  0  0
    6.5330   -0.3150   20.1230 C   0  0  0  0  0  0  0  0  0  0  0  0
    5.2590    0.4950   20.4110 C   0  0  0  0  0  0  0  0  0  0  0  0
    4.6670    1.2840   19.3070 C   0  0  0  0  0  0  0  0  0  0  0  0
    5.2880    1.2440   18.1140 C   0  0  0  0  0  0  0  0  0  0  0  0
    6.4180    0.5260   17.8590 N   0  0  0  0  0  0  0  0  0  0  0  0
    7.0130   -0.2290   18.8330 C   0  0  0  0  0  0  0  0  0  0  0  0
   11.3910    0.2120   23.1040 C   0  0  0  0  0  0  0  0  0  0  0  0
   10.8310    1.2050   23.7680 C   0  0  0  0  0  0  0  0  0  0  0  0
   11.9450    1.4980   23.9220 C   0  0  0  0  0  0  0  0  0  0  0  0
   11.3670    0.1710   23.0770 C   0  0  0  0  0  0  0  0  0  0  0  0
   12.3630   -0.6910   22.4910 C   0  0  0  0  0  0  0  0  0  0  0  0
   12.7890   -1.8820   21.7000 C   0  0  0  0  0  0  0  0  0  0  0  0
   11.7870   -2.4770   21.0630 F   0  0  0  0  0  0  0  0  0  0  0  0
   13.3710   -2.8010   22.4980 F   0  0  0  0  0  0  0  0  0  0  0  0
   13.6940   -1.5360   20.7710 F   0  0  0  0  0  0  0  0  0  0  0  0
   13.0180    0.2460   23.0990 C   0  0  0  0  0  0  0  0  0  0  0  0
  2  1  1  6
  2  3  1  0
  3  4  1  0
  2  5  1  0
  5  6  1  0
  6  7  2  0
  6  8  1  0
  8  9  1  0
  9 10  2  0
 10 11  1  0
 11 12  2  0
 12 13  1  0
  9 14  1  0
 13 14  2  0
  2 15  1  0
 15 16  2  0
 16 17  1  0
 17 18  2  0
 18 19  1  0
 19 20  1  0
 20 21  1  0
 20 22  1  0
 20 23  1  0
 15 24  1  0
 19 24  2  0
M  END
