pyridine_urea_8199
     RDKit          3D

 23 25  0  0  0  0  0  0  0  0999 V2000
    8.8670    0.6120   21.3490 O   0  0  0  0  0  0  0  0  0  0  0  0
    8.4920   -0.5480   21.2870 C   0  0  0  0  0  0  0  0  0  0  0  0
    7.1600   -0.8650   21.0800 N   0  0  0  0  0  0  0  0  0  0  0  0
    6.4650   -0.1160   20.0490 C   0  0  0  0  0  0  0  0  0  0  0  0
    5.1480    0.6620   20.3870 C   0  0  0  0  0  0  0  0  0  0  0  0
    4.5390    1.3660   19.3510 C   0  0  0  0  0  0  0  0  0  0  0  0
    5.2220    1.3100   17.9790 C   0  0  0  0  0  0  0  0  0  0  0  0
    6.3570    0.6200   17.7430 N   0  0  0  0  0  0  0  0  0  0  0  0
    6.9370   -0.0620   18.7560 C   0  0  0  0  0  0  0  0  0  0  0  0
    9.2830   -1.6790   21.3780 N   0  0  0  0  0  0  0  0  0  0  0  0
    9.9090   -2.0780   22.6360 C   0  0  0  0  0  0  0  0  0  0  0  0
   11.4040   -2.3320   22.5520 C   0  0  0  0  0  0  0  0  0  0  0  0
   11.8610   -1.0450   22.0450 C   0  0  0  0  0  0  0  0  0  0  0  0
   11.8160   -0.1220   23.1270 N   0  0  0  0  0  0  0  0  0  0  0  0
   11.7720    1.2660   22.9380 C   0  0  0  0  0  0  0  0  0  0  0  0
   10.4180    1.9850   22.8330 C   0  0  0  0  0  0  0  0  0  0  0  0
   10.4880    3.4990   22.6610 C   0  0  0  0  0  0  0  0  0  0  0  0
   11.7150    4.1380   22.6070 C   0  0  0  0  0  0  0  0  0  0  0  0
   11.8310    5.8530   22.4280 Cl  0  0  0  0  0  0  0  0  0  0  0  0
   12.8950    3.4260   22.6980 C   0  0  0  0  0  0  0  0  0  0  0  0
   12.9020    2.0420   22.8570 C   0  0  0  0  0  0  0  0  0  0  0  0
   10.6860   -0.4220   23.9710 C   0  0  0  0  0  0  0  0  0  0  0  0
    9.6180   -1.1760   23.5690 C   0  0  0  0  0  0  0  0  0  0  0  0
  1  2  2  0
  2  3  1  0
  3  4  1  0
  4  5  2  0
  5  6  1  0
  6  7  2  0
  7  8  1  0
  4  9  1  0
  8  9  2  0
  2 10  1  0
 10 11  1  0
 11 12  1  0
 12 13  1  0
 13 14  1  0
 14 15  1  0
 15 16  2  0
 16 17  1  0
 17 18  2  0
 18 19  1  0
 18 20  1  0
 15 21  1  0
 20 21  2  0
 14 22  1  0
 11 23  1  0
 22 23  1  0
M  END
