pyridine_urea_2897
     RDKit          3D

 22 24  0  0  0  0  0  0  0  0999 V2000
    9.0080    1.5590   23.2600 C   0  0  0  0  0  0  0  0  0  0  0  0
   10.3560    1.7750   23.0470 N   0  0  0  0  0  0  0  0  0  0  0  0
   11.4130    0.7410   22.9630 C   0  0  0  0  0  0  0  0  0  0  0  0
   11.3040   -0.8230   23.0830 C   0  0  0  0  0  0  0  0  0  0  0  0
   10.4850   -1.5380   22.2070 C   0  0  0  0  0  0  0  0  0  0  0  0
    9.0830   -1.2350   22.4120 N   0  0  0  0  0  0  0  0  0  0  0  0
    8.4590   -0.3600   21.5570 C   0  0  0  0  0  0  0  0  0  0  0  0
    8.9680    0.6960   21.2360 O   0  0  0  0  0  0  0  0  0  0  0  0
    7.2280   -0.7830   21.1060 N   0  0  0  0  0  0  0  0  0  0  0  0
    6.5670   -0.1000   20.0750 C   0  0  0  0  0  0  0  0  0  0  0  0
    5.2910    0.6890   20.3580 C   0  0  0  0  0  0  0  0  0  0  0  0
    4.5090    1.4830   19.3140 C   0  0  0  0  0  0  0  0  0  0  0  0
    5.1510    1.4080   17.9270 C   0  0  0  0  0  0  0  0  0  0  0  0
    6.3770    0.6170   17.7480 N   0  0  0  0  0  0  0  0  0  0  0  0
    6.9980   -0.0730   18.7800 C   0  0  0  0  0  0  0  0  0  0  0  0
   12.5270    1.4130   22.7690 N   0  0  0  0  0  0  0  0  0  0  0  0
   12.2320    2.8140   22.7180 C   0  0  0  0  0  0  0  0  0  0  0  0
   13.1600    3.9880   22.5120 C   0  0  0  0  0  0  0  0  0  0  0  0
   12.6240    5.2840   22.5010 C   0  0  0  0  0  0  0  0  0  0  0  0
   11.2330    5.4700   22.6860 C   0  0  0  0  0  0  0  0  0  0  0  0
   10.3850    4.3660   22.8780 C   0  0  0  0  0  0  0  0  0  0  0  0
   10.9040    3.0980   22.8850 C   0  0  0  0  0  0  0  0  0  0  0  0
  1  2  1  0
  2  3  1  0
  3  4  1  0
  4  5  1  0
  5  6  1  0
  6  7  1  0
  7  8  2  0
  7  9  1  0
  9 10  1  0
 10 11  2  0
 11 12  1  0
 12 13  2  0
 13 14  1  0
 10 15  1  0
 14 15  2  0
  3 16  2  0
 16 17  1  0
 17 18  1  0
 18 19  2  0
 19 20  1  0
 20 21  2  0
  2 22  1  0
 17 22  2  0
 21 22  1  0
M  END
