pyridine_urea_2587
     RDKit          3D

 24 25  0  0  0  0  0  0  0  0999 V2000
    9.0910   -2.9190   24.8270 C   0  0  0  0  0  0  0  0  0  0  0  0
   10.2920   -2.8310   25.1650 O   0  0  0  0  0  0  0  0  0  0  0  0
   10.9840   -2.0270   24.3320 C   0  0  0  0  0  0  0  0  0  0  0  0
   10.3290   -0.9890   23.7280 C   0  0  0  0  0  0  0  0  0  0  0  0
   10.5830    0.0690   22.8220 C   0  0  0  0  0  0  0  0  0  0  0  0
    9.3760   -0.1220   23.3380 C   0  0  2  0  0  0  0  0  0  0  0  0
    9.4520   -1.1690   24.2080 C   0  0  0  0  0  0  0  0  0  0  0  0
    8.5950   -0.7260   22.3040 N   0  0  0  0  0  0  0  0  0  0  0  0
    8.3600    0.2510   21.4770 C   0  0  0  0  0  0  0  0  0  0  0  0
    9.1830    1.4030   21.2990 O   0  0  0  0  0  0  0  0  0  0  0  0
    7.2820    0.1120   20.8240 N   0  0  0  0  0  0  0  0  0  0  0  0
    6.4990    0.5240   19.8590 C   0  0  0  0  0  0  0  0  0  0  0  0
    5.3260    1.2280   20.1470 C   0  0  0  0  0  0  0  0  0  0  0  0
    4.5970    1.6730   19.0710 C   0  0  0  0  0  0  0  0  0  0  0  0
    5.0740    1.3920   17.8160 C   0  0  0  0  0  0  0  0  0  0  0  0
    6.1670    0.7060   17.5170 N   0  0  0  0  0  0  0  0  0  0  0  0
    6.8520    0.2900   18.5670 C   0  0  0  0  0  0  0  0  0  0  0  0
   11.9290   -0.1380   22.5490 C   0  0  0  0  0  0  0  0  0  0  0  0
   12.7640   -1.0870   22.9790 C   0  0  0  0  0  0  0  0  0  0  0  0
   13.8810   -0.9820   22.3820 O   0  0  0  0  0  0  0  0  0  0  0  0
   13.5120   -1.5590   21.0840 C   0  0  0  0  0  0  0  0  0  0  0  0
   12.3900   -2.1210   23.9440 C   0  0  0  0  0  0  0  0  0  0  0  0
   13.2410   -3.0700   24.3960 O   0  0  0  0  0  0  0  0  0  0  0  0
   13.8370   -2.7360   25.6320 C   0  0  0  0  0  0  0  0  0  0  0  0
  1  2  1  0
  2  3  1  0
  3  4  2  0
  4  5  1  0
  5  6  1  0
  6  7  1  1
  6  8  1  0
  8  9  1  0
  9 10  2  0
  9 11  1  0
 11 12  1  0
 12 13  2  0
 13 14  1  0
 14 15  2  0
 15 16  1  0
 12 17  1  0
 16 17  2  0
  5 18  2  0
 18 19  1  0
 19 20  1  0
 20 21  1  0
  3 22  1  0
 19 22  2  0
 22 23  1  0
 23 24  1  0
M  END
