pyridine_urea_14990
     RDKit          3D

 19 20  0  0  0  0  0  0  0  0999 V2000
    8.6740    1.4770   20.9620 O   0  0  0  0  0  0  0  0  0  0  0  0
    8.2140    0.4600   21.4750 C   0  0  0  0  0  0  0  0  0  0  0  0
    8.7280    0.0160   22.6280 N   0  0  0  0  0  0  0  0  0  0  0  0
    9.9850    0.6300   22.9030 C   0  0  0  0  0  0  0  0  0  0  0  0
   10.9280   -0.4840   23.0850 C   0  0  1  0  0  0  0  0  0  0  0  0
   12.3820   -0.2240   23.3650 C   0  0  0  0  0  0  0  0  0  0  0  0
   13.0400   -1.6940   24.1030 S   0  0  0  0  0  0  0  0  0  0  0  0
   13.9760   -2.1900   23.1610 O   0  0  0  0  0  0  0  0  0  0  0  0
   13.3600   -1.5440   25.4930 O   0  0  0  0  0  0  0  0  0  0  0  0
   11.7980   -2.9280   23.9960 C   0  0  0  0  0  0  0  0  0  0  0  0
   10.3460   -2.5650   23.8600 C   0  0  0  0  0  0  0  0  0  0  0  0
   10.3270   -1.1900   24.1470 O   0  0  0  0  0  0  0  0  0  0  0  0
    7.1900   -0.3080   21.0140 N   0  0  0  0  0  0  0  0  0  0  0  0
    6.4660    0.2130   19.9650 C   0  0  0  0  0  0  0  0  0  0  0  0
    5.2850    0.9000   20.2310 C   0  0  0  0  0  0  0  0  0  0  0  0
    4.5760    1.4550   19.1760 C   0  0  0  0  0  0  0  0  0  0  0  0
    5.0880    1.2920   17.9100 C   0  0  0  0  0  0  0  0  0  0  0  0
    6.2090    0.6220   17.6360 N   0  0  0  0  0  0  0  0  0  0  0  0
    6.8730    0.0960   18.6680 C   0  0  0  0  0  0  0  0  0  0  0  0
  1  2  2  0
  2  3  1  0
  3  4  1  0
  5  4  1  1
  5  6  1  0
  7  6  1  0
  7  8  2  0
  7  9  2  0
  7 10  1  0
 10 11  1  0
  5 12  1  0
 11 12  1  0
  2 13  1  0
 13 14  1  0
 14 15  2  0
 15 16  1  0
 16 17  2  0
 17 18  1  0
 14 19  1  0
 18 19  2  0
M  END
