pyridine_urea_14032
     RDKit          3D

 23 24  0  0  0  0  0  0  0  0999 V2000
    7.8840   -0.4810   25.7100 C   0  0  0  0  0  0  0  0  0  0  0  0
    8.5660    0.3270   26.2740 C   0  0  0  0  0  0  0  0  0  0  0  0
    9.3350    0.9910   25.2370 O   0  0  0  0  0  0  0  0  0  0  0  0
   10.0380    0.1860   24.3860 C   0  0  0  0  0  0  0  0  0  0  0  0
   11.3940   -0.2850   24.4610 C   0  0  0  0  0  0  0  0  0  0  0  0
   11.9190   -1.0800   23.5140 C   0  0  0  0  0  0  0  0  0  0  0  0
   13.4320   -1.4440   23.8140 S   0  0  0  0  0  0  0  0  0  0  0  0
   13.4860    0.1550   23.0020 C   0  0  0  0  0  0  0  0  0  0  0  0
   13.4820   -1.4540   25.2560 O   0  0  0  0  0  0  0  0  0  0  0  0
   13.7330   -2.5560   22.9450 O   0  0  0  0  0  0  0  0  0  0  0  0
   11.3240   -1.5430   22.4110 C   0  0  0  0  0  0  0  0  0  0  0  0
   10.1030   -1.3290   22.0180 C   0  0  0  0  0  0  0  0  0  0  0  0
    9.5110   -0.4390   23.0770 C   0  0  0  0  0  0  0  0  0  0  0  0
    8.1810   -0.1160   22.7790 N   0  0  0  0  0  0  0  0  0  0  0  0
    8.0350    0.3410   21.5220 C   0  0  0  0  0  0  0  0  0  0  0  0
    8.7050    1.2910   21.0930 O   0  0  0  0  0  0  0  0  0  0  0  0
    7.0890   -0.3860   20.8880 N   0  0  0  0  0  0  0  0  0  0  0  0
    6.4260    0.1870   19.8440 C   0  0  0  0  0  0  0  0  0  0  0  0
    5.2700    0.8880   20.0910 C   0  0  0  0  0  0  0  0  0  0  0  0
    4.3230    1.6560   19.1680 C   0  0  0  0  0  0  0  0  0  0  0  0
    5.1070    1.3760   17.8860 C   0  0  0  0  0  0  0  0  0  0  0  0
    6.2270    0.6910   17.6120 N   0  0  0  0  0  0  0  0  0  0  0  0
    6.8550    0.1160   18.5970 C   0  0  0  0  0  0  0  0  0  0  0  0
  1  2  1  0
  2  3  1  0
  3  4  1  0
  4  5  2  0
  5  6  1  0
  6  7  1  0
  7  8  1  0
  7  9  2  0
  7 10  2  0
  6 11  2  0
 11 12  1  0
  4 13  1  0
 12 13  2  0
 13 14  1  0
 14 15  1  0
 15 16  2  0
 15 17  1  0
 17 18  1  0
 18 19  2  0
 19 20  1  0
 20 21  2  0
 21 22  1  0
 18 23  1  0
 22 23  2  0
M  END
