pyridine_urea_108
     RDKit          3D

 23 24  0  0  0  0  0  0  0  0999 V2000
    7.5450   -3.2810   24.3210 C   0  0  0  0  0  0  0  0  0  0  0  0
    7.4620   -3.2280   23.1510 C   0  0  0  0  0  0  0  0  0  0  0  0
    6.9750   -2.7200   21.8060 C   0  0  0  0  0  0  0  0  0  0  0  0
    7.0870   -4.7110   22.9720 C   0  0  0  0  0  0  0  0  0  0  0  0
    8.9240   -3.1730   22.8610 N   0  0  0  0  0  0  0  0  0  0  0  0
   10.0320   -2.3600   23.8920 S   0  0  0  0  0  0  0  0  0  0  0  0
    9.1260   -1.5940   24.6730 O   0  0  0  0  0  0  0  0  0  0  0  0
   10.9370   -3.3560   24.4180 O   0  0  0  0  0  0  0  0  0  0  0  0
   11.0090   -1.2240   22.8590 C   0  0  0  0  0  0  0  0  0  0  0  0
   10.1990   -1.3840   21.6400 C   0  0  0  0  0  0  0  0  0  0  0  0
    8.9860   -0.9390   22.0700 N   0  0  0  0  0  0  0  0  0  0  0  0
    8.3030    0.0940   21.4400 C   0  0  0  0  0  0  0  0  0  0  0  0
    8.8950    1.3790   21.1790 O   0  0  0  0  0  0  0  0  0  0  0  0
    7.0420   -0.2960   21.1060 N   0  0  0  0  0  0  0  0  0  0  0  0
    6.4380    0.2630   20.0060 C   0  0  0  0  0  0  0  0  0  0  0  0
    5.2060    1.0820   20.1640 C   0  0  0  0  0  0  0  0  0  0  0  0
    4.6150    1.6680   19.0760 C   0  0  0  0  0  0  0  0  0  0  0  0
    5.1240    1.5340   17.7970 C   0  0  0  0  0  0  0  0  0  0  0  0
    6.3360    0.7140   17.6090 N   0  0  0  0  0  0  0  0  0  0  0  0
    6.9050    0.1340   18.7230 C   0  0  0  0  0  0  0  0  0  0  0  0
   11.0610    0.1880   23.1170 C   0  0  0  0  0  0  0  0  0  0  0  0
   12.4880    0.2610   23.2750 C   0  0  0  0  0  0  0  0  0  0  0  0
   12.6290   -1.2000   23.0360 C   0  0  0  0  0  0  0  0  0  0  0  0
  1  2  1  0
  2  3  1  0
  2  4  1  0
  2  5  1  0
  6  5  1  0
  6  7  2  0
  6  8  2  0
  6  9  1  0
  9 10  1  0
 10 11  1  0
 11 12  1  0
 12 13  2  0
 12 14  1  0
 14 15  1  0
 15 16  2  0
 16 17  1  0
 17 18  2  0
 18 19  1  0
 15 20  1  0
 19 20  2  0
  9 21  1  0
 21 22  1  0
  9 23  1  0
 22 23  1  0
M  END
