pyridine_urea_7766
     RDKit          3D

 29 32  0  0  0  0  0  0  0  0999 V2000
   13.8170   -2.8220   25.6460 C   0  0  0  0  0  0  0  0  0  0  0  0
   13.0600   -3.2880   24.6120 N   0  0  0  0  0  0  0  0  0  0  0  0
   11.7290   -3.0900   24.4210 C   0  0  0  0  0  0  0  0  0  0  0  0
   11.4160   -1.7910   24.6620 C   0  0  0  0  0  0  0  0  0  0  0  0
   12.2980   -0.9040   24.0790 N   0  0  0  0  0  0  0  0  0  0  0  0
   12.0680    0.4440   23.5990 C   0  0  0  0  0  0  0  0  0  0  0  0
   11.9520    1.3600   22.7770 O   0  0  0  0  0  0  0  0  0  0  0  0
   12.2560   -0.3640   22.5520 C   0  0  0  0  0  0  0  0  0  0  0  0
   10.7690   -0.3380   22.3990 C   0  0  0  0  0  0  0  0  0  0  0  0
   10.2440   -0.0410   23.3160 N   0  0  0  0  0  0  0  0  0  0  0  0
   10.7390   -1.4610   22.9640 N   0  0  0  0  0  0  0  0  0  0  0  0
   11.8210   -1.1110   21.9570 C   0  0  0  0  0  0  0  0  0  0  0  0
   11.1850   -0.0910   23.0620 C   0  0  0  0  0  0  0  0  0  0  0  0
    9.7860    0.4210   23.1560 C   0  0  1  0  0  0  0  0  0  0  0  0
    9.1810    0.9380   22.0280 C   0  0  0  0  0  0  0  0  0  0  0  0
    8.8630   -0.0880   21.1770 N   0  0  0  0  0  0  0  0  0  0  0  0
    7.9080   -0.9870   21.4340 C   0  0  0  0  0  0  0  0  0  0  0  0
    8.3690   -2.2490   21.7750 O   0  0  0  0  0  0  0  0  0  0  0  0
    6.6430   -0.5620   21.3330 N   0  0  0  0  0  0  0  0  0  0  0  0
    6.1860    0.0670   20.2190 C   0  0  0  0  0  0  0  0  0  0  0  0
    5.0510    0.8690   20.2100 C   0  0  0  0  0  0  0  0  0  0  0  0
    4.6180    1.4910   19.0690 C   0  0  0  0  0  0  0  0  0  0  0  0
    5.2970    1.3400   17.8850 C   0  0  0  0  0  0  0  0  0  0  0  0
    6.4090    0.5710   17.8160 N   0  0  0  0  0  0  0  0  0  0  0  0
    6.8280   -0.0450   18.9720 C   0  0  0  0  0  0  0  0  0  0  0  0
    8.9650   -0.5100   23.7460 C   0  0  0  0  0  0  0  0  0  0  0  0
    9.8130   -1.5390   23.9530 C   0  0  0  0  0  0  0  0  0  0  0  0
   13.4990   -1.4760   23.5300 C   0  0  0  0  0  0  0  0  0  0  0  0
   13.5820   -2.8090   23.3870 C   0  0  0  0  0  0  0  0  0  0  0  0
  1  2  1  0
  2  3  1  0
  3  4  1  0
  4  5  1  0
  5  6  1  0
  6  7  2  0
  6  8  1  0
  8  9  1  0
  9 10  2  0
 10 11  1  0
  8 12  2  0
 11 12  1  0
 12 13  1  0
 13 14  1  0
 14 15  1  6
 15 16  1  0
 16 17  1  0
 17 18  2  0
 17 19  1  0
 19 20  1  0
 20 21  2  0
 21 22  1  0
 22 23  2  0
 23 24  1  0
 20 25  1  0
 24 25  2  0
 14 26  1  0
 11 27  1  0
 26 27  1  0
  5 28  1  0
  2 29  1  0
 28 29  1  0
M  END
