pyridine_urea_3491
     RDKit          3D

 19 21  0  0  0  0  0  0  0  0999 V2000
    8.7490    0.8680   21.3530 O   0  0  0  0  0  0  0  0  0  0  0  0
    8.4340   -0.3130   21.4140 C   0  0  0  0  0  0  0  0  0  0  0  0
    7.1720   -0.7740   21.1170 N   0  0  0  0  0  0  0  0  0  0  0  0
    6.4930   -0.0630   20.0590 C   0  0  0  0  0  0  0  0  0  0  0  0
    5.2160    0.6940   20.4150 C   0  0  0  0  0  0  0  0  0  0  0  0
    4.5130    1.4540   19.2900 C   0  0  0  0  0  0  0  0  0  0  0  0
    5.1800    1.3690   17.9200 C   0  0  0  0  0  0  0  0  0  0  0  0
    6.3520    0.6230   17.7590 N   0  0  0  0  0  0  0  0  0  0  0  0
    6.9690   -0.0560   18.7710 C   0  0  0  0  0  0  0  0  0  0  0  0
    9.3110   -1.3190   21.7610 N   0  0  0  0  0  0  0  0  0  0  0  0
   10.2380   -1.0920   22.8040 C   0  0  1  0  0  0  0  0  0  0  0  0
   11.5790   -1.4600   22.5330 C   0  0  0  0  0  0  0  0  0  0  0  0
   12.5790   -0.8370   23.3200 C   0  0  0  0  0  0  0  0  0  0  0  0
   12.6720    0.5300   23.0790 C   0  0  0  0  0  0  0  0  0  0  0  0
   11.4910    1.1730   23.3370 C   0  0  0  0  0  0  0  0  0  0  0  0
   11.3710    2.4520   23.6830 N   0  0  0  0  0  0  0  0  0  0  0  0
   10.0770    2.7630   23.8660 N   0  0  0  0  0  0  0  0  0  0  0  0
    9.4890    1.5750   23.5950 C   0  0  0  0  0  0  0  0  0  0  0  0
   10.2730    0.3420   23.1990 C   0  0  0  0  0  0  0  0  0  0  0  0
  1  2  2  0
  2  3  1  0
  3  4  1  0
  4  5  2  0
  5  6  1  0
  6  7  2  0
  7  8  1  0
  4  9  1  0
  8  9  2  0
  2 10  1  0
 11 10  1  6
 11 12  1  0
 12 13  1  0
 13 14  1  0
 14 15  1  0
 15 16  1  0
 16 17  1  0
 17 18  2  0
 11 19  1  0
 15 19  2  0
 18 19  1  0
M  END
