pyridine_urea_4317
     RDKit          3D

 24 25  0  0  0  0  0  0  0  0999 V2000
   13.1140   -0.7170   22.5020 C   0  0  0  0  0  0  0  0  0  0  0  0
   12.9940   -2.2320   22.4350 C   0  0  0  0  0  0  0  0  0  0  0  0
   13.8590   -2.7900   23.5210 C   0  0  0  0  0  0  0  0  0  0  0  0
   13.1860   -2.5200   20.9640 C   0  0  0  0  0  0  0  0  0  0  0  0
   11.8300   -2.7160   23.0470 N   0  0  0  0  0  0  0  0  0  0  0  0
   11.9130   -2.0220   24.1740 C   0  0  0  0  0  0  0  0  0  0  0  0
   12.1470   -2.2630   25.3240 O   0  0  0  0  0  0  0  0  0  0  0  0
   11.6850   -0.6500   23.7160 C   0  0  0  0  0  0  0  0  0  0  0  0
   12.6960    0.3790   23.6280 C   0  0  0  0  0  0  0  0  0  0  0  0
   12.1220    1.5050   23.1400 C   0  0  0  0  0  0  0  0  0  0  0  0
   10.7640    1.5930   22.7930 C   0  0  0  0  0  0  0  0  0  0  0  0
    9.7050    0.6300   22.8410 C   0  0  0  0  0  0  0  0  0  0  0  0
    9.1290    1.7290   22.3610 C   0  0  0  0  0  0  0  0  0  0  0  0
    7.9370    1.1570   21.8310 N   0  0  0  0  0  0  0  0  0  0  0  0
    8.0770   -0.1750   21.2990 C   0  0  0  0  0  0  0  0  0  0  0  0
    9.1300   -0.7450   21.1540 O   0  0  0  0  0  0  0  0  0  0  0  0
    6.9530   -0.7920   20.9240 N   0  0  0  0  0  0  0  0  0  0  0  0
    6.3000   -0.0690   20.0070 C   0  0  0  0  0  0  0  0  0  0  0  0
    5.1130    0.6320   20.1800 C   0  0  0  0  0  0  0  0  0  0  0  0
    4.5120    1.4070   19.0680 C   0  0  0  0  0  0  0  0  0  0  0  0
    5.1920    1.3920   17.8650 C   0  0  0  0  0  0  0  0  0  0  0  0
    6.3430    0.7070   17.6900 N   0  0  0  0  0  0  0  0  0  0  0  0
    6.8430    0.0180   18.7400 C   0  0  0  0  0  0  0  0  0  0  0  0
   10.3610   -0.4470   23.3330 C   0  0  0  0  0  0  0  0  0  0  0  0
  1  2  1  0
  2  3  1  0
  2  4  1  0
  2  5  1  0
  5  6  1  0
  6  7  2  0
  6  8  1  0
  8  9  2  0
  9 10  1  0
 10 11  2  0
 11 12  1  0
 12 13  1  0
 13 14  1  0
 14 15  1  0
 15 16  2  0
 15 17  1  0
 17 18  1  0
 18 19  2  0
 19 20  1  0
 20 21  2  0
 21 22  1  0
 18 23  1  0
 22 23  2  0
  8 24  1  0
 12 24  2  0
M  END
