pyridine_urea_8385
     RDKit          3D

 22 24  0  0  0  0  0  0  0  0999 V2000
   13.4670   -1.3680   21.0690 C   0  0  0  0  0  0  0  0  0  0  0  0
   13.8200   -0.7780   22.2730 N   0  0  0  0  0  0  0  0  0  0  0  0
   13.6710    0.6670   22.7120 C   0  0  0  0  0  0  0  0  0  0  0  0
   12.5450    1.1640   23.2500 N   0  0  0  0  0  0  0  0  0  0  0  0
   11.6250    0.0630   23.0990 C   0  0  0  0  0  0  0  0  0  0  0  0
   10.3490    0.3510   22.9200 C   0  0  0  0  0  0  0  0  0  0  0  0
    9.4480   -0.7980   22.6590 C   0  0  0  0  0  0  0  0  0  0  0  0
    8.1830   -0.5920   22.4760 N   0  0  0  0  0  0  0  0  0  0  0  0
    7.8630    0.1750   21.4190 C   0  0  0  0  0  0  0  0  0  0  0  0
    8.5130    1.1800   21.0690 O   0  0  0  0  0  0  0  0  0  0  0  0
    6.7660   -0.3780   20.8920 N   0  0  0  0  0  0  0  0  0  0  0  0
    6.2180    0.2460   19.7910 C   0  0  0  0  0  0  0  0  0  0  0  0
    4.9340    1.0130   20.0890 C   0  0  0  0  0  0  0  0  0  0  0  0
    4.3540    1.7310   18.9090 C   0  0  0  0  0  0  0  0  0  0  0  0
    5.1330    1.5730   17.6390 C   0  0  0  0  0  0  0  0  0  0  0  0
    6.2440    0.8500   17.5350 N   0  0  0  0  0  0  0  0  0  0  0  0
    6.8610    0.1440   18.5770 C   0  0  0  0  0  0  0  0  0  0  0  0
    9.9350   -2.0650   22.5900 C   0  0  0  0  0  0  0  0  0  0  0  0
   11.2530   -2.2610   22.8190 C   0  0  0  0  0  0  0  0  0  0  0  0
   12.0300   -1.2130   23.0830 C   0  0  0  0  0  0  0  0  0  0  0  0
   13.2480   -1.4160   23.2890 C   0  0  0  0  0  0  0  0  0  0  0  0
   13.6430   -2.1890   24.4230 O   0  0  0  0  0  0  0  0  0  0  0  0
  1  2  1  0
  2  3  1  0
  3  4  2  0
  4  5  1  0
  5  6  1  0
  6  7  2  0
  7  8  1  0
  8  9  1  0
  9 10  2  0
  9 11  1  0
 11 12  1  0
 12 13  2  0
 13 14  1  0
 14 15  2  0
 15 16  1  0
 12 17  1  0
 16 17  2  0
  7 18  1  0
 18 19  2  0
  5 20  2  0
 19 20  1  0
  2 21  1  0
 20 21  1  0
 21 22  2  0
M  END
