pyridine_urea_12117
     RDKit          3D

 23 25  0  0  0  0  0  0  0  0999 V2000
    8.9630    1.2780   21.2110 O   0  0  0  0  0  0  0  0  0  0  0  0
    8.5750    0.1540   21.5500 C   0  0  0  0  0  0  0  0  0  0  0  0
    9.2020   -0.6740   22.4550 N   0  0  0  0  0  0  0  0  0  0  0  0
    9.2480   -2.0830   22.4090 C   0  0  0  0  0  0  0  0  0  0  0  0
    8.2080   -2.7590   23.0500 C   0  0  0  0  0  0  0  0  0  0  0  0
    6.9970   -3.0660   22.4860 C   0  0  0  0  0  0  0  0  0  0  0  0
    6.1320   -3.7410   23.3180 C   0  0  0  0  0  0  0  0  0  0  0  0
    6.4310   -4.0840   24.6020 N   0  0  0  0  0  0  0  0  0  0  0  0
    7.6570   -3.7590   25.1510 C   0  0  0  0  0  0  0  0  0  0  0  0
    8.0160   -4.0140   26.2860 O   0  0  0  0  0  0  0  0  0  0  0  0
    7.6160   -5.2140   26.8240 C   0  0  2  0  0  0  0  0  0  0  0  0
    6.1410   -5.5150   26.9160 C   0  0  0  0  0  0  0  0  0  0  0  0
    5.8950   -5.9170   28.2430 C   0  0  0  0  0  0  0  0  0  0  0  0
    7.1570   -5.7580   28.9780 O   0  0  0  0  0  0  0  0  0  0  0  0
    8.2530   -5.3720   28.1360 C   0  0  0  0  0  0  0  0  0  0  0  0
    8.6010   -3.0750   24.3710 C   0  0  0  0  0  0  0  0  0  0  0  0
    7.4120   -0.4040   21.0550 N   0  0  0  0  0  0  0  0  0  0  0  0
    6.6680    0.1300   20.0640 C   0  0  0  0  0  0  0  0  0  0  0  0
    5.5170    0.8600   20.3790 C   0  0  0  0  0  0  0  0  0  0  0  0
    4.7570    1.4300   19.3590 C   0  0  0  0  0  0  0  0  0  0  0  0
    5.1700    1.2530   18.0480 C   0  0  0  0  0  0  0  0  0  0  0  0
    6.2600    0.5530   17.7230 N   0  0  0  0  0  0  0  0  0  0  0  0
    6.9810    0.0070   18.7250 C   0  0  0  0  0  0  0  0  0  0  0  0
  1  2  2  0
  2  3  1  0
  3  4  1  0
  4  5  1  0
  5  6  2  0
  6  7  1  0
  7  8  2  0
  8  9  1  0
  9 10  1  0
 11 10  1  1
 11 12  1  0
 12 13  1  0
 13 14  1  0
 11 15  1  0
 14 15  1  0
  5 16  1  0
  9 16  2  0
  2 17  1  0
 17 18  1  0
 18 19  2  0
 19 20  1  0
 20 21  2  0
 21 22  1  0
 18 23  1  0
 22 23  2  0
M  END
