pyridine_urea_5884
     RDKit          3D

 18 18  0  0  0  0  0  0  0  0999 V2000
    6.3830   -2.9510   28.4320 C   0  0  0  0  0  0  0  0  0  0  0  0
    6.3810   -1.9480   27.3100 C   0  0  0  0  0  0  0  0  0  0  0  0
    6.6760   -2.4780   26.2350 O   0  0  0  0  0  0  0  0  0  0  0  0
    6.8550   -1.6000   25.1990 C   0  0  0  0  0  0  0  0  0  0  0  0
    6.1260   -0.6430   24.9900 O   0  0  0  0  0  0  0  0  0  0  0  0
    7.9760   -1.9670   24.4340 C   0  0  0  0  0  0  0  0  0  0  0  0
    8.7710   -0.9790   23.8030 C   0  0  0  0  0  0  0  0  0  0  0  0
    9.9700   -1.1550   22.9350 C   0  0  0  0  0  0  0  0  0  0  0  0
    9.6160   -0.7170   21.6160 N   0  0  0  0  0  0  0  0  0  0  0  0
    8.6040    0.1290   21.2800 C   0  0  0  0  0  0  0  0  0  0  0  0
    8.8890    1.3290   21.1580 O   0  0  0  0  0  0  0  0  0  0  0  0
    7.2890   -0.4590   21.0650 N   0  0  0  0  0  0  0  0  0  0  0  0
    6.5700    0.1140   20.0460 C   0  0  0  0  0  0  0  0  0  0  0  0
    5.4110    0.8200   20.3430 C   0  0  0  0  0  0  0  0  0  0  0  0
    4.6910    1.4160   19.3060 C   0  0  0  0  0  0  0  0  0  0  0  0
    5.1560    1.2860   18.0090 C   0  0  0  0  0  0  0  0  0  0  0  0
    6.2640    0.6040   17.7050 N   0  0  0  0  0  0  0  0  0  0  0  0
    6.9420    0.0350   18.7230 C   0  0  0  0  0  0  0  0  0  0  0  0
  1  2  1  0
  2  3  1  0
  3  4  1  0
  4  5  2  0
  4  6  1  0
  6  7  2  3
  7  8  1  0
  8  9  1  0
  9 10  1  0
 10 11  2  0
 10 12  1  0
 12 13  1  0
 13 14  2  0
 14 15  1  0
 15 16  2  0
 16 17  1  0
 13 18  1  0
 17 18  2  0
M  END
