pyridine_urea_13697
     RDKit          3D

 25 27  0  0  0  0  0  0  0  0999 V2000
   12.9590   -0.7130   25.5450 C   0  0  0  0  0  0  0  0  0  0  0  0
   13.3210    0.1080   24.4740 O   0  0  0  0  0  0  0  0  0  0  0  0
   12.2570    0.0980   23.8260 C   0  0  0  0  0  0  0  0  0  0  0  0
   11.5280    1.3100   23.3200 C   0  0  0  0  0  0  0  0  0  0  0  0
   10.2600    1.0290   22.5990 C   0  0  0  0  0  0  0  0  0  0  0  0
    9.8220   -0.3770   22.4270 C   0  0  0  0  0  0  0  0  0  0  0  0
    8.7010   -0.9750   21.8100 N   0  0  0  0  0  0  0  0  0  0  0  0
    7.9130   -0.0650   21.2440 C   0  0  0  0  0  0  0  0  0  0  0  0
    8.2930    1.0800   21.0280 O   0  0  0  0  0  0  0  0  0  0  0  0
    6.6340   -0.6060   20.9250 N   0  0  0  0  0  0  0  0  0  0  0  0
    6.1160    0.0640   19.8900 C   0  0  0  0  0  0  0  0  0  0  0  0
    4.9260    0.7610   20.0480 C   0  0  0  0  0  0  0  0  0  0  0  0
    4.4400    1.4610   18.9690 C   0  0  0  0  0  0  0  0  0  0  0  0
    5.1190    1.4680   17.7730 C   0  0  0  0  0  0  0  0  0  0  0  0
    6.2680    0.7890   17.6080 N   0  0  0  0  0  0  0  0  0  0  0  0
    6.7350    0.1050   18.6630 C   0  0  0  0  0  0  0  0  0  0  0  0
   10.5000   -1.5130   22.8930 C   0  0  0  0  0  0  0  0  0  0  0  0
   11.7770   -1.2910   23.6380 C   0  0  0  0  0  0  0  0  0  0  0  0
   12.6880   -2.6480   24.3010 S   0  0  0  0  0  0  0  0  0  0  0  0
   13.6380   -2.1630   25.2640 O   0  0  0  0  0  0  0  0  0  0  0  0
   11.6960   -3.6050   24.6750 O   0  0  0  0  0  0  0  0  0  0  0  0
   13.5950   -3.1130   23.0450 N   0  0  0  0  0  0  0  0  0  0  0  0
   13.2950   -2.9150   21.7550 C   0  0  0  0  0  0  0  0  0  0  0  0
   12.2160   -2.3980   21.4130 C   0  0  0  0  0  0  0  0  0  0  0  0
   13.2570   -1.4270   21.2350 C   0  0  0  0  0  0  0  0  0  0  0  0
  1  2  1  0
  2  3  1  0
  3  4  2  0
  4  5  1  0
  5  6  2  0
  6  7  1  0
  7  8  1  0
  8  9  2  0
  8 10  1  0
 10 11  1  0
 11 12  2  0
 12 13  1  0
 13 14  2  0
 14 15  1  0
 11 16  1  0
 15 16  2  0
  6 17  1  0
  3 18  1  0
 17 18  2  0
 18 19  1  0
 19 20  2  0
 19 21  2  0
 19 22  1  0
 22 23  1  0
 23 24  1  0
 23 25  1  0
 24 25  1  0
M  END
