pyridine_urea_2480
     RDKit          3D

 24 26  0  0  0  0  0  0  0  0999 V2000
    8.7940    1.0240   21.1560 O   0  0  0  0  0  0  0  0  0  0  0  0
    8.2170   -0.0390   21.4280 C   0  0  0  0  0  0  0  0  0  0  0  0
    8.5980   -0.9480   22.3490 N   0  0  0  0  0  0  0  0  0  0  0  0
    9.7930   -0.9310   23.0320 C   0  0  0  0  0  0  0  0  0  0  0  0
   10.3920    0.2990   23.2050 C   0  0  0  0  0  0  0  0  0  0  0  0
   11.3440   -0.7200   22.7510 C   0  0  0  0  0  0  0  0  0  0  0  0
   12.7200   -0.9680   22.4020 C   0  0  0  0  0  0  0  0  0  0  0  0
   13.2470    0.2800   22.6120 C   0  0  0  0  0  0  0  0  0  0  0  0
   12.6280    1.3700   23.0110 C   0  0  0  0  0  0  0  0  0  0  0  0
   11.2220    1.3980   23.2990 C   0  0  0  0  0  0  0  0  0  0  0  0
   10.6900    2.6830   23.7310 O   0  0  0  0  0  0  0  0  0  0  0  0
   11.3970    3.8830   23.3620 C   0  0  0  0  0  0  0  0  0  0  0  0
   12.2460    3.7680   22.2740 C   0  0  0  0  0  0  0  0  0  0  0  0
   12.9670    4.8590   21.8440 C   0  0  0  0  0  0  0  0  0  0  0  0
   12.8910    6.0980   22.4490 C   0  0  0  0  0  0  0  0  0  0  0  0
   12.0350    6.2300   23.5500 C   0  0  0  0  0  0  0  0  0  0  0  0
   11.2910    5.1300   24.0090 C   0  0  0  0  0  0  0  0  0  0  0  0
    7.0640   -0.5170   20.8850 N   0  0  0  0  0  0  0  0  0  0  0  0
    6.3360    0.1600   19.9310 C   0  0  0  0  0  0  0  0  0  0  0  0
    5.1450    0.8390   20.1470 C   0  0  0  0  0  0  0  0  0  0  0  0
    4.5460    1.4880   19.0800 C   0  0  0  0  0  0  0  0  0  0  0  0
    5.1610    1.4350   17.8350 C   0  0  0  0  0  0  0  0  0  0  0  0
    6.3080    0.7730   17.6180 N   0  0  0  0  0  0  0  0  0  0  0  0
    6.8590    0.1560   18.6660 C   0  0  0  0  0  0  0  0  0  0  0  0
  1  2  2  0
  2  3  1  0
  3  4  1  0
  4  5  1  0
  5  6  2  0
  6  7  1  0
  7  8  2  0
  8  9  1  0
  5 10  1  0
  9 10  2  0
 10 11  1  0
 11 12  1  0
 12 13  2  0
 13 14  1  0
 14 15  2  0
 15 16  1  0
 12 17  1  0
 16 17  2  0
  2 18  1  0
 18 19  1  0
 19 20  2  0
 20 21  1  0
 21 22  2  0
 22 23  1  0
 19 24  1  0
 23 24  2  0
M  END
