pyridine_urea_14791
     RDKit          3D

 20 21  0  0  0  0  0  0  0  0999 V2000
    9.1160   -5.9090   25.5040 C   0  0  0  0  0  0  0  0  0  0  0  0
    7.9400   -5.4190   24.6530 C   0  0  0  0  0  0  0  0  0  0  0  0
    7.0630   -4.4740   25.1860 C   0  0  0  0  0  0  0  0  0  0  0  0
    6.0120   -3.9840   24.4220 C   0  0  0  0  0  0  0  0  0  0  0  0
    4.9890   -3.6040   25.0230 O   0  0  0  0  0  0  0  0  0  0  0  0
    6.2880   -4.0010   22.9900 N   0  0  0  0  0  0  0  0  0  0  0  0
    6.7500   -2.8170   22.3890 C   0  0  0  0  0  0  0  0  0  0  0  0
    8.1530   -2.7010   22.3800 C   0  0  0  0  0  0  0  0  0  0  0  0
    8.6120   -1.3970   22.4900 N   0  0  0  0  0  0  0  0  0  0  0  0
    8.2720   -0.3440   21.6710 C   0  0  0  0  0  0  0  0  0  0  0  0
    9.0360    0.7850   21.4650 O   0  0  0  0  0  0  0  0  0  0  0  0
    7.0380   -0.6130   21.1140 N   0  0  0  0  0  0  0  0  0  0  0  0
    6.4340    0.0420   20.0350 C   0  0  0  0  0  0  0  0  0  0  0  0
    5.2600    0.7660   20.2630 C   0  0  0  0  0  0  0  0  0  0  0  0
    4.6460    1.4290   19.2010 C   0  0  0  0  0  0  0  0  0  0  0  0
    5.2250    1.3480   17.9420 C   0  0  0  0  0  0  0  0  0  0  0  0
    6.3460    0.6520   17.7100 N   0  0  0  0  0  0  0  0  0  0  0  0
    6.9220    0.0170   18.7490 C   0  0  0  0  0  0  0  0  0  0  0  0
    6.9150   -5.1400   22.5930 C   0  0  0  0  0  0  0  0  0  0  0  0
    7.7640   -5.8940   23.3940 N   0  0  0  0  0  0  0  0  0  0  0  0
  1  2  1  0
  2  3  2  0
  3  4  1  0
  4  5  2  0
  4  6  1  0
  6  7  1  0
  7  8  1  0
  8  9  1  0
  9 10  1  0
 10 11  2  0
 10 12  1  0
 12 13  1  0
 13 14  2  0
 14 15  1  0
 15 16  2  0
 16 17  1  0
 13 18  1  0
 17 18  2  0
  6 19  1  0
  2 20  1  0
 19 20  2  0
M  END
