pyridine_urea_111
     RDKit          3D

 25 28  0  0  0  0  0  0  0  0999 V2000
    8.7530    0.4490   21.1710 O   0  0  0  0  0  0  0  0  0  0  0  0
    8.3980   -0.6770   21.4770 C   0  0  0  0  0  0  0  0  0  0  0  0
    9.2510   -1.4510   22.2910 N   0  0  0  0  0  0  0  0  0  0  0  0
   10.2910   -0.5060   22.6170 C   0  0  0  0  0  0  0  0  0  0  0  0
   11.6860   -0.6960   23.1140 C   0  0  0  0  0  0  0  0  0  0  0  0
   12.4860    0.5760   23.3050 C   0  0  0  0  0  0  0  0  0  0  0  0
   12.0540    1.9180   23.0730 C   0  0  0  0  0  0  0  0  0  0  0  0
   12.4200    3.4190   23.1090 C   0  0  0  0  0  0  0  0  0  0  0  0
   13.5650    3.8600   22.5650 N   0  0  0  0  0  0  0  0  0  0  0  0
   13.6460    5.2080   22.6940 N   0  0  0  0  0  0  0  0  0  0  0  0
   12.3750    5.5090   23.4050 C   0  0  0  0  0  0  0  0  0  0  0  0
   11.5350    4.4920   23.7270 C   0  0  0  0  0  0  0  0  0  0  0  0
   10.3120    4.9900   24.4470 C   0  0  0  0  0  0  0  0  0  0  0  0
    9.7810    5.8820   23.8180 O   0  0  0  0  0  0  0  0  0  0  0  0
   10.6750    6.7770   23.1840 C   0  0  0  0  0  0  0  0  0  0  0  0
   11.9440    6.7800   23.7800 C   0  0  0  0  0  0  0  0  0  0  0  0
   10.5940    2.0170   22.5790 C   0  0  0  0  0  0  0  0  0  0  0  0
    9.8280    0.8010   22.3870 C   0  0  0  0  0  0  0  0  0  0  0  0
    7.1900   -1.1580   21.0410 N   0  0  0  0  0  0  0  0  0  0  0  0
    6.5350   -0.4150   20.0890 C   0  0  0  0  0  0  0  0  0  0  0  0
    5.2570    0.3150   20.3960 C   0  0  0  0  0  0  0  0  0  0  0  0
    4.6180    1.0800   19.4060 C   0  0  0  0  0  0  0  0  0  0  0  0
    5.2060    1.1390   18.1460 C   0  0  0  0  0  0  0  0  0  0  0  0
    6.3500    0.4950   17.8370 N   0  0  0  0  0  0  0  0  0  0  0  0
    6.9780   -0.2550   18.7890 C   0  0  0  0  0  0  0  0  0  0  0  0
  1  2  2  0
  2  3  1  0
  3  4  1  0
  4  5  2  0
  5  6  1  0
  6  7  2  0
  7  8  1  0
  8  9  1  0
  9 10  1  0
 10 11  2  0
  8 12  2  0
 11 12  1  0
 12 13  1  0
 13 14  1  0
 14 15  1  0
 11 16  1  0
 15 16  1  0
  7 17  1  0
  4 18  1  0
 17 18  2  0
  2 19  1  0
 19 20  1  0
 20 21  2  0
 21 22  1  0
 22 23  2  0
 23 24  1  0
 20 25  1  0
 24 25  2  0
M  END
