pyridine_urea_12913
     RDKit          3D

 19 20  0  0  0  0  0  0  0  0999 V2000
   12.4630   -2.6710   21.0090 C   0  0  0  0  0  0  0  0  0  0  0  0
   11.2590   -2.3560   21.6950 O   0  0  0  0  0  0  0  0  0  0  0  0
   11.3130   -1.1740   22.3420 C   0  0  0  0  0  0  0  0  0  0  0  0
   12.6580   -0.6230   22.6750 C   0  0  0  0  0  0  0  0  0  0  0  0
   13.7120   -1.3600   22.3040 F   0  0  0  0  0  0  0  0  0  0  0  0
   12.8100    0.5590   23.3130 C   0  0  0  0  0  0  0  0  0  0  0  0
   11.6770    1.2680   23.6810 C   0  0  0  0  0  0  0  0  0  0  0  0
   10.3980    0.7870   23.3890 C   0  0  0  0  0  0  0  0  0  0  0  0
   10.2160   -0.4190   22.7160 C   0  0  0  0  0  0  0  0  0  0  0  0
    8.9600   -0.8920   22.3740 N   0  0  0  0  0  0  0  0  0  0  0  0
    8.2660   -0.0910   21.4910 C   0  0  0  0  0  0  0  0  0  0  0  0
    8.7400    1.2190   21.0970 O   0  0  0  0  0  0  0  0  0  0  0  0
    7.0910   -0.6400   21.0280 N   0  0  0  0  0  0  0  0  0  0  0  0
    6.4200    0.0030   20.0140 C   0  0  0  0  0  0  0  0  0  0  0  0
    5.2270    0.6800   20.3070 C   0  0  0  0  0  0  0  0  0  0  0  0
    4.5570    1.3540   19.2750 C   0  0  0  0  0  0  0  0  0  0  0  0
    5.1680    1.3050   17.9160 C   0  0  0  0  0  0  0  0  0  0  0  0
    6.3020    0.6400   17.6810 N   0  0  0  0  0  0  0  0  0  0  0  0
    6.8900    0.0140   18.7180 C   0  0  0  0  0  0  0  0  0  0  0  0
  1  2  1  0
  2  3  1  0
  3  4  2  0
  4  5  1  0
  4  6  1  0
  6  7  2  0
  7  8  1  0
  3  9  1  0
  8  9  2  0
  9 10  1  0
 10 11  1  0
 11 12  2  0
 11 13  1  0
 13 14  1  0
 14 15  2  0
 15 16  1  0
 16 17  2  0
 17 18  1  0
 14 19  1  0
 18 19  2  0
M  END
