pyridine_urea_2938
     RDKit          3D

 21 22  0  0  0  0  0  0  0  0999 V2000
   12.5780   -0.5780   25.2780 C   0  0  0  0  0  0  0  0  0  0  0  0
   11.7120    0.3510   24.4360 C   0  0  0  0  0  0  0  0  0  0  0  0
   12.2020    1.5730   24.1140 F   0  0  0  0  0  0  0  0  0  0  0  0
   10.4190    0.4300   24.8870 F   0  0  0  0  0  0  0  0  0  0  0  0
   11.8640   -0.4780   23.2760 C   0  0  0  0  0  0  0  0  0  0  0  0
   13.0480   -0.4630   22.6180 C   0  0  0  0  0  0  0  0  0  0  0  0
   13.2520   -1.3390   21.4670 C   0  0  0  0  0  0  0  0  0  0  0  0
   12.1870   -2.1030   21.1640 C   0  0  0  0  0  0  0  0  0  0  0  0
   10.8870   -2.0420   21.9580 C   0  0  0  0  0  0  0  0  0  0  0  0
   10.5020   -1.1920   23.1830 C   0  0  0  0  0  0  0  0  0  0  0  0
    9.5010   -2.1230   22.6120 C   0  0  0  0  0  0  0  0  0  0  0  0
    8.3010   -1.3200   22.6340 N   0  0  0  0  0  0  0  0  0  0  0  0
    8.0540   -0.3870   21.6570 C   0  0  0  0  0  0  0  0  0  0  0  0
    8.8930    0.7380   21.3680 O   0  0  0  0  0  0  0  0  0  0  0  0
    6.8610   -0.7220   21.0150 N   0  0  0  0  0  0  0  0  0  0  0  0
    6.3180   -0.0180   19.9530 C   0  0  0  0  0  0  0  0  0  0  0  0
    5.0340    0.7600   20.1560 C   0  0  0  0  0  0  0  0  0  0  0  0
    4.5230    1.4600   19.0790 C   0  0  0  0  0  0  0  0  0  0  0  0
    5.2130    1.4170   17.8690 C   0  0  0  0  0  0  0  0  0  0  0  0
    6.3550    0.7240   17.6820 N   0  0  0  0  0  0  0  0  0  0  0  0
    6.8770    0.0300   18.7040 C   0  0  0  0  0  0  0  0  0  0  0  0
  1  2  1  0
  2  3  1  0
  2  4  1  0
  2  5  1  0
  5  6  2  0
  6  7  1  0
  7  8  2  0
  8  9  1  0
  5 10  1  0
  9 10  2  0
 10 11  1  0
 11 12  1  0
 12 13  1  0
 13 14  2  0
 13 15  1  0
 15 16  1  0
 16 17  2  0
 17 18  1  0
 18 19  2  0
 19 20  1  0
 16 21  1  0
 20 21  2  0
M  END
