pyridine_urea_13956
     RDKit          3D

 24 26  0  0  0  0  0  0  0  0999 V2000
    8.8700    0.3690   21.3100 O   0  0  0  0  0  0  0  0  0  0  0  0
    8.1960   -0.6450   21.4450 C   0  0  0  0  0  0  0  0  0  0  0  0
    8.6490   -1.7800   22.0890 N   0  0  0  0  0  0  0  0  0  0  0  0
    9.6490   -1.6320   23.1090 C   0  0  0  0  0  0  0  0  0  0  0  0
   10.0150   -0.1760   23.1630 C   0  0  0  0  0  0  0  0  0  0  0  0
   11.1970   -1.0850   22.8940 C   0  0  0  0  0  0  0  0  0  0  0  0
   12.5030   -0.8470   22.6960 C   0  0  0  0  0  0  0  0  0  0  0  0
   13.2630    0.4150   22.6720 C   0  0  0  0  0  0  0  0  0  0  0  0
   12.3940    1.5240   22.9030 C   0  0  0  0  0  0  0  0  0  0  0  0
   12.9240    2.8600   22.9190 O   0  0  0  0  0  0  0  0  0  0  0  0
   12.1560    3.9640   22.5110 C   0  0  0  0  0  0  0  0  0  0  0  0
   10.7340    3.8510   22.9880 C   0  0  0  0  0  0  0  0  0  0  0  0
   10.0890    5.0440   23.3200 C   0  0  0  0  0  0  0  0  0  0  0  0
   10.7650    5.8260   24.2550 C   0  0  0  0  0  0  0  0  0  0  0  0
   12.0860    6.0410   23.9160 C   0  0  0  0  0  0  0  0  0  0  0  0
   12.6200    5.2810   22.7240 C   0  0  0  0  0  0  0  0  0  0  0  0
   10.9090    1.1030   23.1130 C   0  0  0  0  0  0  0  0  0  0  0  0
    6.9130   -0.8340   21.0100 N   0  0  0  0  0  0  0  0  0  0  0  0
    6.3020   -0.0940   20.0590 C   0  0  0  0  0  0  0  0  0  0  0  0
    5.1210    0.6480   20.2320 C   0  0  0  0  0  0  0  0  0  0  0  0
    4.6010    1.3770   19.1600 C   0  0  0  0  0  0  0  0  0  0  0  0
    5.2320    1.3830   17.9250 C   0  0  0  0  0  0  0  0  0  0  0  0
    6.3580    0.7040   17.6730 N   0  0  0  0  0  0  0  0  0  0  0  0
    6.8900   -0.0590   18.8090 C   0  0  0  0  0  0  0  0  0  0  0  0
  1  2  2  0
  2  3  1  0
  3  4  1  0
  4  5  1  0
  5  6  2  0
  6  7  1  0
  7  8  2  0
  8  9  1  0
  9 10  1  0
 10 11  1  0
 11 12  1  0
 12 13  1  0
 13 14  1  0
 14 15  1  0
 11 16  1  0
 15 16  1  0
  5 17  1  0
  9 17  2  0
  2 18  1  0
 18 19  1  0
 19 20  2  0
 20 21  1  0
 21 22  2  0
 22 23  1  0
 19 24  1  0
 23 24  2  0
M  END
