pyridine_urea_14317
     RDKit          3D

 22 24  0  0  0  0  0  0  0  0999 V2000
    8.9950    1.1260   21.2380 O   0  0  0  0  0  0  0  0  0  0  0  0
    8.5290    0.0460   21.6290 C   0  0  0  0  0  0  0  0  0  0  0  0
    7.3730   -0.6050   21.0080 N   0  0  0  0  0  0  0  0  0  0  0  0
    6.6180    0.0590   20.0460 C   0  0  0  0  0  0  0  0  0  0  0  0
    5.4940    0.8120   20.4000 C   0  0  0  0  0  0  0  0  0  0  0  0
    4.7780    1.4570   19.3860 C   0  0  0  0  0  0  0  0  0  0  0  0
    5.2080    1.3320   18.0630 C   0  0  0  0  0  0  0  0  0  0  0  0
    6.2830    0.6090   17.7150 N   0  0  0  0  0  0  0  0  0  0  0  0
    6.9620   -0.0110   18.7150 C   0  0  0  0  0  0  0  0  0  0  0  0
    8.9600   -0.7490   22.6850 N   0  0  0  0  0  0  0  0  0  0  0  0
   10.2990   -0.7120   23.2910 C   0  0  1  0  0  0  0  0  0  0  0  0
   11.3470   -1.2770   22.3270 C   0  0  0  0  0  0  0  0  0  0  0  0
   12.6700   -0.9070   22.5550 C   0  0  0  0  0  0  0  0  0  0  0  0
   12.8040    0.1530   23.4510 C   0  0  0  0  0  0  0  0  0  0  0  0
   11.7480    1.0460   23.4330 C   0  0  0  0  0  0  0  0  0  0  0  0
   10.6330    0.4630   23.9860 C   0  0  1  0  0  0  0  0  0  0  0  0
    9.6230    1.4140   23.9590 C   0  0  0  0  0  0  0  0  0  0  0  0
    9.6520    2.4810   23.0530 C   0  0  0  0  0  0  0  0  0  0  0  0
    8.6210    3.4340   23.0490 C   0  0  0  0  0  0  0  0  0  0  0  0
    7.5520    3.3320   23.9480 C   0  0  0  0  0  0  0  0  0  0  0  0
    7.5250    2.2670   24.8530 C   0  0  0  0  0  0  0  0  0  0  0  0
    8.5510    1.3090   24.8650 C   0  0  0  0  0  0  0  0  0  0  0  0
  1  2  2  0
  2  3  1  0
  3  4  1  0
  4  5  2  0
  5  6  1  0
  6  7  2  0
  7  8  1  0
  4  9  1  0
  8  9  2  0
  2 10  1  0
 11 10  1  6
 11 12  1  0
 12 13  1  0
 13 14  1  0
 14 15  1  0
 11 16  1  0
 15 16  1  0
 16 17  1  6
 17 18  2  0
 18 19  1  0
 19 20  2  0
 20 21  1  0
 17 22  1  0
 21 22  2  0
M  END
