pyridine_urea_6826
     RDKit          3D

 21 22  0  0  0  0  0  0  0  0999 V2000
   10.6660    2.5950   22.5840 N   0  0  0  0  0  0  0  0  0  0  0  0
    9.8840    1.5680   22.1290 C   0  0  0  0  0  0  0  0  0  0  0  0
    9.0250    1.8040   21.0180 O   0  0  0  0  0  0  0  0  0  0  0  0
   10.0390    0.2410   22.8970 C   0  0  0  0  0  0  0  0  0  0  0  0
    8.6950   -0.4070   22.8560 N   0  0  0  0  0  0  0  0  0  0  0  0
    8.1880   -0.5950   21.5810 C   0  0  0  0  0  0  0  0  0  0  0  0
    8.9380   -0.7750   20.6780 O   0  0  0  0  0  0  0  0  0  0  0  0
    6.8630   -0.5280   21.4130 N   0  0  0  0  0  0  0  0  0  0  0  0
    6.3220    0.0630   20.2480 C   0  0  0  0  0  0  0  0  0  0  0  0
    5.0350    0.8490   20.3140 C   0  0  0  0  0  0  0  0  0  0  0  0
    4.5090    1.4430   19.1760 C   0  0  0  0  0  0  0  0  0  0  0  0
    5.1690    1.3190   17.9600 C   0  0  0  0  0  0  0  0  0  0  0  0
    6.3770    0.6080   17.7670 N   0  0  0  0  0  0  0  0  0  0  0  0
    6.9110   -0.0200   18.9980 C   0  0  0  0  0  0  0  0  0  0  0  0
   10.6250    0.4630   24.3260 C   0  0  0  0  0  0  0  0  0  0  0  0
   10.6700   -0.7550   24.9680 C   0  0  0  0  0  0  0  0  0  0  0  0
   12.4180   -1.2310   24.6990 S   0  0  0  0  0  0  0  0  0  0  0  0
   12.4900   -2.6910   24.6350 O   0  0  0  0  0  0  0  0  0  0  0  0
   13.2080   -0.4440   25.6210 O   0  0  0  0  0  0  0  0  0  0  0  0
   12.5170   -0.5260   22.9990 C   0  0  0  0  0  0  0  0  0  0  0  0
   11.1950   -0.7870   22.5620 C   0  0  0  0  0  0  0  0  0  0  0  0
  1  2  1  0
  2  3  2  0
  4  2  1  0
  4  5  1  0
  5  6  1  0
  6  7  2  0
  6  8  1  0
  8  9  1  0
  9 10  2  0
 10 11  1  0
 11 12  2  0
 12 13  1  0
  9 14  1  0
 13 14  2  0
  4 15  1  0
 15 16  1  0
 17 16  1  0
 17 18  2  0
 17 19  2  0
 17 20  1  0
  4 21  1  0
 20 21  1  0
M  END
