pyridine_urea_1007
     RDKit          3D

 22 24  0  0  0  0  0  0  0  0999 V2000
    8.7350    1.3710   21.1010 O   0  0  0  0  0  0  0  0  0  0  0  0
    8.5880    0.1630   21.2970 C   0  0  0  0  0  0  0  0  0  0  0  0
    7.2890   -0.4710   21.1260 N   0  0  0  0  0  0  0  0  0  0  0  0
    6.5350    0.1070   20.1130 C   0  0  0  0  0  0  0  0  0  0  0  0
    5.3640    0.8120   20.3980 C   0  0  0  0  0  0  0  0  0  0  0  0
    4.6600    1.3860   19.3400 C   0  0  0  0  0  0  0  0  0  0  0  0
    5.1490    1.2380   18.0400 C   0  0  0  0  0  0  0  0  0  0  0  0
    6.2650    0.5600   17.7540 N   0  0  0  0  0  0  0  0  0  0  0  0
    6.9330    0.0070   18.7940 C   0  0  0  0  0  0  0  0  0  0  0  0
    9.5780   -0.7350   21.6220 N   0  0  0  0  0  0  0  0  0  0  0  0
   10.6560   -0.3250   22.5270 C   0  0  0  0  0  0  0  0  0  0  0  0
   10.6770    1.1920   22.8010 C   0  0  0  0  0  0  0  0  0  0  0  0
    9.5060    1.8830   23.0640 C   0  0  0  0  0  0  0  0  0  0  0  0
    9.5370    3.2610   23.3030 C   0  0  0  0  0  0  0  0  0  0  0  0
   10.7530    3.9490   23.2770 C   0  0  0  0  0  0  0  0  0  0  0  0
   10.7950    5.6450   23.5670 Cl  0  0  0  0  0  0  0  0  0  0  0  0
   11.9250    3.2620   23.0190 C   0  0  0  0  0  0  0  0  0  0  0  0
   11.8980    1.9000   22.7860 C   0  0  0  0  0  0  0  0  0  0  0  0
   11.9750   -0.7150   22.3530 C   0  0  0  0  0  0  0  0  0  0  0  0
   12.5870   -1.2090   23.4570 C   0  0  0  0  0  0  0  0  0  0  0  0
   11.5630   -1.5640   24.3190 C   0  0  0  0  0  0  0  0  0  0  0  0
   10.3800   -0.9040   23.9020 C   0  0  0  0  0  0  0  0  0  0  0  0
  1  2  2  0
  2  3  1  0
  3  4  1  0
  4  5  2  0
  5  6  1  0
  6  7  2  0
  7  8  1  0
  4  9  1  0
  8  9  2  0
  2 10  1  0
 11 10  1  0
 11 12  1  0
 12 13  2  0
 13 14  1  0
 14 15  2  0
 15 16  1  0
 15 17  1  0
 12 18  1  0
 17 18  2  0
 11 19  1  0
 19 20  1  0
 20 21  1  0
 11 22  1  0
 21 22  1  0
M  END
