pyridine_urea_14601
     RDKit          3D

 21 22  0  0  0  0  0  0  0  0999 V2000
   10.8180   -0.4710   25.2040 C   0  0  0  0  0  0  0  0  0  0  0  0
    9.4380   -0.7640   24.6670 C   0  0  0  0  0  0  0  0  0  0  0  0
    8.3750   -0.1420   25.3130 C   0  0  0  0  0  0  0  0  0  0  0  0
    9.4350   -0.3820   23.2080 C   0  0  2  0  0  0  0  0  0  0  0  0
    8.7200   -1.1900   22.2670 N   0  0  0  0  0  0  0  0  0  0  0  0
    8.0320   -0.4140   21.3610 C   0  0  0  0  0  0  0  0  0  0  0  0
    8.4720    0.6820   21.0190 O   0  0  0  0  0  0  0  0  0  0  0  0
    6.8780   -0.9230   20.9280 N   0  0  0  0  0  0  0  0  0  0  0  0
    6.3400   -0.1800   19.9510 C   0  0  0  0  0  0  0  0  0  0  0  0
    5.0450    0.6360   20.1730 C   0  0  0  0  0  0  0  0  0  0  0  0
    4.5190    1.4040   19.1270 C   0  0  0  0  0  0  0  0  0  0  0  0
    5.1910    1.4090   17.9010 C   0  0  0  0  0  0  0  0  0  0  0  0
    6.3360    0.6780   17.7150 N   0  0  0  0  0  0  0  0  0  0  0  0
    6.9110   -0.1050   18.7080 C   0  0  0  0  0  0  0  0  0  0  0  0
   10.8630   -0.3720   22.8780 C   0  0  0  0  0  0  0  0  0  0  0  0
   11.7470   -1.3990   22.2940 C   0  0  0  0  0  0  0  0  0  0  0  0
   13.1050   -1.0480   22.1190 C   0  0  0  0  0  0  0  0  0  0  0  0
   13.5590    0.2590   22.5080 C   0  0  0  0  0  0  0  0  0  0  0  0
   12.7580    1.2120   23.0470 C   0  0  0  0  0  0  0  0  0  0  0  0
   11.5730    0.7200   23.1280 C   0  0  0  0  0  0  0  0  0  0  0  0
   12.4550   -0.1650   22.6020 F   0  0  0  0  0  0  0  0  0  0  0  0
  1  2  1  0
  2  3  1  0
  2  4  1  0
  4  5  1  6
  5  6  1  0
  6  7  2  0
  6  8  1  0
  8  9  1  0
  9 10  2  0
 10 11  1  0
 11 12  2  0
 12 13  1  0
  9 14  1  0
 13 14  2  0
  4 15  1  0
 15 16  2  0
 16 17  1  0
 17 18  2  0
 18 19  1  0
 15 20  1  0
 19 20  2  0
 20 21  1  0
M  END
