pyridine_urea_15003
     RDKit          3D

 19 20  0  0  0  0  0  0  0  0999 V2000
    9.1980   -1.1770   25.1100 C   0  0  0  0  0  0  0  0  0  0  0  0
    9.6520   -0.2780   23.9500 C   0  0  2  0  0  0  0  0  0  0  0  0
   10.0690   -1.1340   22.7730 C   0  0  0  0  0  0  0  0  0  0  0  0
    9.0960   -1.4350   21.9040 N   0  0  0  0  0  0  0  0  0  0  0  0
    8.3760   -0.3850   21.4730 C   0  0  0  0  0  0  0  0  0  0  0  0
    8.8420    0.7390   21.3490 O   0  0  0  0  0  0  0  0  0  0  0  0
    7.0140   -0.7720   21.1720 N   0  0  0  0  0  0  0  0  0  0  0  0
    6.4140   -0.0910   20.1450 C   0  0  0  0  0  0  0  0  0  0  0  0
    5.1100    0.6930   20.3200 C   0  0  0  0  0  0  0  0  0  0  0  0
    4.5160    1.4370   19.1140 C   0  0  0  0  0  0  0  0  0  0  0  0
    5.2060    1.3600   17.9100 C   0  0  0  0  0  0  0  0  0  0  0  0
    6.3420    0.6860   17.7150 N   0  0  0  0  0  0  0  0  0  0  0  0
    6.9150    0.0110   18.7170 C   0  0  0  0  0  0  0  0  0  0  0  0
   10.7540    0.6130   24.4090 C   0  0  0  0  0  0  0  0  0  0  0  0
   12.0230    0.1480   24.5810 C   0  0  0  0  0  0  0  0  0  0  0  0
   12.6770   -0.4560   23.5430 C   0  0  0  0  0  0  0  0  0  0  0  0
   12.9040    0.6140   22.6350 C   0  0  0  0  0  0  0  0  0  0  0  0
   11.7870    1.4630   22.5700 C   0  0  0  0  0  0  0  0  0  0  0  0
   10.8710    1.7340   23.6580 C   0  0  0  0  0  0  0  0  0  0  0  0
  2  1  1  1
  2  3  1  0
  3  4  1  0
  4  5  1  0
  5  6  2  0
  5  7  1  0
  7  8  1  0
  8  9  2  0
  9 10  1  0
 10 11  2  0
 11 12  1  0
  8 13  1  0
 12 13  2  0
  2 14  1  0
 14 15  1  0
 15 16  1  0
 16 17  1  0
 17 18  1  0
 14 19  1  0
 18 19  1  0
M  END
