pyridine_urea_13277
     RDKit          3D

 14 15  0  0  0  0  0  0  0  0999 V2000
    9.0460    0.8580   21.5010 O   0  0  0  0  0  0  0  0  0  0  0  0
    8.5540   -0.2590   21.4520 C   0  0  0  0  0  0  0  0  0  0  0  0
    7.2500   -0.5570   21.1260 N   0  0  0  0  0  0  0  0  0  0  0  0
    6.5460    0.0520   20.0710 C   0  0  0  0  0  0  0  0  0  0  0  0
    5.3800    0.7740   20.3520 C   0  0  0  0  0  0  0  0  0  0  0  0
    4.6780    1.3980   19.3180 C   0  0  0  0  0  0  0  0  0  0  0  0
    5.1690    1.2780   18.0360 C   0  0  0  0  0  0  0  0  0  0  0  0
    6.2760    0.5870   17.7360 N   0  0  0  0  0  0  0  0  0  0  0  0
    6.9380   -0.0100   18.7500 C   0  0  0  0  0  0  0  0  0  0  0  0
    9.2880   -1.3970   21.7080 N   0  0  0  0  0  0  0  0  0  0  0  0
   10.3470   -1.4340   22.7000 C   0  0  0  0  0  0  0  0  0  0  0  0
   11.7330   -1.7250   22.1270 C   0  0  0  0  0  0  0  0  0  0  0  0
   12.4930   -0.4040   22.9270 S   0  0  0  0  0  0  0  0  0  0  0  0
   10.7990   -0.2880   23.4880 C   0  0  0  0  0  0  0  0  0  0  0  0
  1  2  2  0
  2  3  1  0
  3  4  1  0
  4  5  2  0
  5  6  1  0
  6  7  2  0
  7  8  1  0
  4  9  1  0
  8  9  2  0
  2 10  1  0
 10 11  1  0
 11 12  1  0
 12 13  1  0
 11 14  1  0
 13 14  1  0
M  END
