pyridine_urea_12365
     RDKit          3D

 22 23  0  0  0  0  0  0  0  0999 V2000
   13.5650    0.5390   22.7530 C   0  0  0  0  0  0  0  0  0  0  0  0
   12.3250   -0.1310   22.7920 C   0  0  0  0  0  0  0  0  0  0  0  0
   12.3560   -1.5550   22.3160 C   0  0  0  0  0  0  0  0  0  0  0  0
   11.1340   -1.9320   22.4640 C   0  0  0  0  0  0  0  0  0  0  0  0
    9.8880   -1.2780   22.9620 C   0  0  0  0  0  0  0  0  0  0  0  0
    8.7890   -1.8120   23.0350 O   0  0  0  0  0  0  0  0  0  0  0  0
    8.9380   -3.1340   23.1680 C   0  0  0  0  0  0  0  0  0  0  0  0
   10.0230   -3.3630   23.9450 F   0  0  0  0  0  0  0  0  0  0  0  0
    7.8590   -3.7210   23.7690 F   0  0  0  0  0  0  0  0  0  0  0  0
    9.8370    0.0680   23.4140 C   0  0  0  0  0  0  0  0  0  0  0  0
    8.5470   -0.6560   23.4760 C   0  0  0  0  0  0  0  0  0  0  0  0
    7.6850    0.2780   22.8690 N   0  0  0  0  0  0  0  0  0  0  0  0
    7.9870    0.5180   21.5740 C   0  0  0  0  0  0  0  0  0  0  0  0
    8.8040    1.3530   21.1730 O   0  0  0  0  0  0  0  0  0  0  0  0
    7.1950   -0.3300   20.8240 N   0  0  0  0  0  0  0  0  0  0  0  0
    6.4990    0.2310   19.8480 C   0  0  0  0  0  0  0  0  0  0  0  0
    5.2130    0.9870   20.2000 C   0  0  0  0  0  0  0  0  0  0  0  0
    4.5230    1.6310   19.0100 C   0  0  0  0  0  0  0  0  0  0  0  0
    5.0910    1.4850   17.7600 C   0  0  0  0  0  0  0  0  0  0  0  0
    6.2260    0.7770   17.5530 N   0  0  0  0  0  0  0  0  0  0  0  0
    6.9170    0.1650   18.5660 C   0  0  0  0  0  0  0  0  0  0  0  0
   11.1950    0.5010   23.2440 C   0  0  0  0  0  0  0  0  0  0  0  0
  1  2  1  0
  2  3  2  0
  3  4  1  0
  4  5  2  0
  5  6  1  0
  6  7  1  0
  7  8  1  0
  7  9  1  0
  5 10  1  0
 10 11  1  0
 11 12  1  0
 12 13  1  0
 13 14  2  0
 13 15  1  0
 15 16  1  0
 16 17  2  0
 17 18  1  0
 18 19  2  0
 19 20  1  0
 16 21  1  0
 20 21  2  0
  2 22  1  0
 10 22  2  0
M  END
