pyridine_urea_13037
     RDKit          3D

 18 19  0  0  0  0  0  0  0  0999 V2000
    8.9000    1.1150   21.5160 O   0  0  0  0  0  0  0  0  0  0  0  0
    8.5690   -0.0580   21.4450 C   0  0  0  0  0  0  0  0  0  0  0  0
    9.4110   -1.1180   21.6360 N   0  0  0  0  0  0  0  0  0  0  0  0
    9.8100   -1.6950   22.8490 C   0  0  0  0  0  0  0  0  0  0  0  0
   11.0760   -1.4080   23.3560 C   0  0  2  0  0  0  0  0  0  0  0  0
   10.9670   -0.4380   24.3710 C   0  0  0  0  0  0  0  0  0  0  0  0
   12.2320    0.0370   24.5970 C   0  0  0  0  0  0  0  0  0  0  0  0
   13.0480   -0.4740   23.4880 C   0  0  0  0  0  0  0  0  0  0  0  0
   12.0510   -0.7630   22.6260 C   0  0  0  0  0  0  0  0  0  0  0  0
   11.6500    0.4560   22.2280 F   0  0  0  0  0  0  0  0  0  0  0  0
   12.4970   -1.4950   21.5690 F   0  0  0  0  0  0  0  0  0  0  0  0
    7.2960   -0.4730   21.1160 N   0  0  0  0  0  0  0  0  0  0  0  0
    6.5860    0.0810   20.0780 C   0  0  0  0  0  0  0  0  0  0  0  0
    5.4270    0.8130   20.3340 C   0  0  0  0  0  0  0  0  0  0  0  0
    4.7000    1.4060   19.3310 C   0  0  0  0  0  0  0  0  0  0  0  0
    5.1460    1.2620   18.0300 C   0  0  0  0  0  0  0  0  0  0  0  0
    6.2510    0.5570   17.7290 N   0  0  0  0  0  0  0  0  0  0  0  0
    6.9430   -0.0160   18.7460 C   0  0  0  0  0  0  0  0  0  0  0  0
  1  2  2  0
  2  3  1  0
  3  4  1  0
  5  4  1  6
  5  6  1  0
  6  7  1  0
  7  8  1  0
  5  9  1  0
  8  9  1  0
  9 10  1  0
  9 11  1  0
  2 12  1  0
 12 13  1  0
 13 14  2  0
 14 15  1  0
 15 16  2  0
 16 17  1  0
 13 18  1  0
 17 18  2  0
M  END
