pyridine_urea_1493
     RDKit          3D

 24 25  0  0  0  0  0  0  0  0999 V2000
   13.1300    3.1500   22.7300 C   0  0  0  0  0  0  0  0  0  0  0  0
   12.1430    1.9620   22.7790 C   0  0  0  0  0  0  0  0  0  0  0  0
   12.6090    0.4890   22.7080 C   0  0  0  0  0  0  0  0  0  0  0  0
   11.6280   -0.5030   22.6640 C   0  0  0  0  0  0  0  0  0  0  0  0
   10.2720   -0.1380   22.6950 C   0  0  0  0  0  0  0  0  0  0  0  0
    9.1790   -1.0820   22.5640 N   0  0  0  0  0  0  0  0  0  0  0  0
    8.3590   -0.4400   21.6140 C   0  0  0  0  0  0  0  0  0  0  0  0
    8.7290    0.7930   21.1590 O   0  0  0  0  0  0  0  0  0  0  0  0
    7.2090   -1.0250   21.1530 N   0  0  0  0  0  0  0  0  0  0  0  0
    6.4800   -0.2990   20.1710 C   0  0  0  0  0  0  0  0  0  0  0  0
    5.2760    0.4070   20.3440 C   0  0  0  0  0  0  0  0  0  0  0  0
    4.6370    1.1150   19.3360 C   0  0  0  0  0  0  0  0  0  0  0  0
    5.1660    1.1700   18.0620 C   0  0  0  0  0  0  0  0  0  0  0  0
    6.3420    0.4900   17.8410 N   0  0  0  0  0  0  0  0  0  0  0  0
    6.9850   -0.2320   18.8660 C   0  0  0  0  0  0  0  0  0  0  0  0
    9.9160    1.2110   22.8100 C   0  0  0  0  0  0  0  0  0  0  0  0
   10.8170    2.2380   22.8460 C   0  0  0  0  0  0  0  0  0  0  0  0
   10.4580    3.5600   22.9080 N   0  0  0  0  0  0  0  0  0  0  0  0
    9.9870    4.1180   24.0510 C   0  0  0  0  0  0  0  0  0  0  0  0
    9.1880    3.4390   25.0310 O   0  0  0  0  0  0  0  0  0  0  0  0
   10.2420    5.4570   24.2690 C   0  0  0  0  0  0  0  0  0  0  0  0
    9.4190    6.1180   25.3490 C   0  0  0  0  0  0  0  0  0  0  0  0
   11.7080    5.6230   24.7180 C   0  0  0  0  0  0  0  0  0  0  0  0
   10.1110    6.2980   22.9890 C   0  0  0  0  0  0  0  0  0  0  0  0
  1  2  1  0
  2  3  2  0
  3  4  1  0
  4  5  2  0
  5  6  1  0
  6  7  1  0
  7  8  2  0
  7  9  1  0
  9 10  1  0
 10 11  2  0
 11 12  1  0
 12 13  2  0
 13 14  1  0
 10 15  1  0
 14 15  2  0
  5 16  1  0
  2 17  1  0
 16 17  2  0
 17 18  1  0
 18 19  1  0
 19 20  2  0
 21 19  1  0
 21 22  1  0
 21 23  1  0
 21 24  1  0
M  END
