pyridine_urea_6447
     RDKit          3D

 23 24  0  0  0  0  0  0  0  0999 V2000
    8.8420    0.7250   21.3470 O   0  0  0  0  0  0  0  0  0  0  0  0
    8.2130   -0.3040   21.5560 C   0  0  0  0  0  0  0  0  0  0  0  0
    8.6340   -1.2730   22.4280 N   0  0  0  0  0  0  0  0  0  0  0  0
    9.8480   -1.0530   23.1690 C   0  0  0  0  0  0  0  0  0  0  0  0
    9.9300    0.3500   23.7660 C   0  0  0  0  0  0  0  0  0  0  0  0
   11.1910    1.0080   23.3480 C   0  0  0  0  0  0  0  0  0  0  0  0
   11.8080    2.0720   23.1290 C   0  0  0  0  0  0  0  0  0  0  0  0
   12.6680    0.9110   22.8650 C   0  0  0  0  0  0  0  0  0  0  0  0
   12.1530   -0.5810   23.0500 C   0  0  0  0  0  0  0  0  0  0  0  0
   12.3760   -1.9800   23.0040 O   0  0  0  0  0  0  0  0  0  0  0  0
   12.5760   -2.5080   24.2590 C   0  0  0  0  0  0  0  0  0  0  0  0
   13.7600   -3.1480   24.3780 F   0  0  0  0  0  0  0  0  0  0  0  0
   11.5770   -3.3590   24.5840 F   0  0  0  0  0  0  0  0  0  0  0  0
   12.5960   -1.5310   25.1950 F   0  0  0  0  0  0  0  0  0  0  0  0
   13.4140   -0.5550   22.6400 C   0  0  0  0  0  0  0  0  0  0  0  0
   12.7800    0.6670   22.8390 C   0  0  0  0  0  0  0  0  0  0  0  0
    7.0170   -0.6680   21.0000 N   0  0  0  0  0  0  0  0  0  0  0  0
    6.4070    0.0040   19.9420 C   0  0  0  0  0  0  0  0  0  0  0  0
    5.2310    0.6950   20.1920 C   0  0  0  0  0  0  0  0  0  0  0  0
    4.3760    1.5180   19.2120 C   0  0  0  0  0  0  0  0  0  0  0  0
    5.2140    1.3270   17.9590 C   0  0  0  0  0  0  0  0  0  0  0  0
    6.3470    0.6560   17.7190 N   0  0  0  0  0  0  0  0  0  0  0  0
    6.9200    0.0080   18.7040 C   0  0  0  0  0  0  0  0  0  0  0  0
  1  2  2  0
  2  3  1  0
  3  4  1  0
  4  5  1  0
  5  6  1  0
  6  7  2  0
  7  8  1  0
  8  9  2  0
  9 10  1  0
 10 11  1  0
 11 12  1  0
 11 13  1  0
 11 14  1  0
  9 15  1  0
  6 16  1  0
 15 16  2  0
  2 17  1  0
 17 18  1  0
 18 19  2  0
 19 20  1  0
 20 21  2  0
 21 22  1  0
 18 23  1  0
 22 23  2  0
M  END
