pyridine_urea_7939
     RDKit          3D

 25 27  0  0  0  0  0  0  0  0999 V2000
   11.4790    5.1270   24.6470 C   0  0  0  0  0  0  0  0  0  0  0  0
   11.1670    4.2340   23.6430 N   0  0  0  0  0  0  0  0  0  0  0  0
   12.1270    3.3930   22.9970 C   0  0  0  0  0  0  0  0  0  0  0  0
   11.9530    1.9840   22.9300 C   0  0  0  0  0  0  0  0  0  0  0  0
   12.8740    0.9450   23.0360 C   0  0  0  0  0  0  0  0  0  0  0  0
   12.5920   -0.3980   22.9180 C   0  0  0  0  0  0  0  0  0  0  0  0
   11.3310   -0.9250   22.6530 C   0  0  0  0  0  0  0  0  0  0  0  0
   10.2570   -0.0360   22.5020 C   0  0  0  0  0  0  0  0  0  0  0  0
    9.0760   -0.4720   22.1970 N   0  0  0  0  0  0  0  0  0  0  0  0
    8.0530   -0.7640   21.3490 C   0  0  0  0  0  0  0  0  0  0  0  0
    8.2830   -1.4180   20.3990 O   0  0  0  0  0  0  0  0  0  0  0  0
    6.8640   -0.2210   21.5930 N   0  0  0  0  0  0  0  0  0  0  0  0
    6.3300    0.2630   20.4310 C   0  0  0  0  0  0  0  0  0  0  0  0
    5.1870    1.0220   20.3990 C   0  0  0  0  0  0  0  0  0  0  0  0
    4.6420    1.5280   19.2290 C   0  0  0  0  0  0  0  0  0  0  0  0
    5.2130    1.3110   17.9690 C   0  0  0  0  0  0  0  0  0  0  0  0
    6.3600    0.5580   17.8580 N   0  0  0  0  0  0  0  0  0  0  0  0
    6.8920    0.0550   19.0230 C   0  0  0  0  0  0  0  0  0  0  0  0
   10.5480    1.4630   22.6570 C   0  0  0  0  0  0  0  0  0  0  0  0
   10.1380    4.7530   22.8900 C   0  0  0  0  0  0  0  0  0  0  0  0
    9.1340    5.4350   23.5750 C   0  0  0  0  0  0  0  0  0  0  0  0
    9.2110    6.6070   22.7970 C   0  0  0  0  0  0  0  0  0  0  0  0
    8.1830    7.8920   23.1510 S   0  0  0  0  0  0  0  0  0  0  0  0
    7.6360    6.7940   24.3970 C   0  0  0  0  0  0  0  0  0  0  0  0
    8.2780    5.5810   24.4180 N   0  0  0  0  0  0  0  0  0  0  0  0
  1  2  1  0
  2  3  1  0
  3  4  1  0
  4  5  2  0
  5  6  1  0
  6  7  2  0
  7  8  1  0
  8  9  1  0
  9 10  1  0
 10 11  2  0
 10 12  1  0
 12 13  1  0
 13 14  2  0
 14 15  1  0
 15 16  2  0
 16 17  1  0
 13 18  1  0
 17 18  2  0
  4 19  1  0
  8 19  2  0
  2 20  1  0
 20 21  1  0
 21 22  2  0
 22 23  1  0
 23 24  1  0
 21 25  1  0
 24 25  2  0
M  END
