pyridine_urea_14038
     RDKit          3D

 23 23  0  0  0  0  0  0  0  0999 V2000
   10.9850    3.3250   33.2410 C   0  0  0  0  0  0  0  0  0  0  0  0
   10.6550    2.8450   32.1890 C   0  0  0  0  0  0  0  0  0  0  0  0
   10.7210    2.1050   30.8460 C   0  0  0  0  0  0  0  0  0  0  0  0
    9.9410    0.8300   30.9020 C   0  0  0  0  0  0  0  0  0  0  0  0
    9.0580    0.5790   29.8630 C   0  0  0  0  0  0  0  0  0  0  0  0
    7.7130   -0.1970   29.8890 C   0  0  0  0  0  0  0  0  0  0  0  0
    7.1600   -0.5320   28.5500 C   0  0  0  0  0  0  0  0  0  0  0  0
    7.8720   -0.0860   27.5060 C   0  0  0  0  0  0  0  0  0  0  0  0
    7.0690   -0.8700   26.4950 C   0  0  0  0  0  0  0  0  0  0  0  0
    7.5970   -0.9730   25.2030 C   0  0  0  0  0  0  0  0  0  0  0  0
    7.3020   -2.2430   24.4970 N   0  0  0  0  0  0  0  0  0  0  0  0
    8.2790   -2.8860   23.5710 C   0  0  0  0  0  0  0  0  0  0  0  0
    9.0280   -1.9760   22.8350 C   0  0  0  0  0  0  0  0  0  0  0  0
    8.2610   -0.9070   22.4220 N   0  0  0  0  0  0  0  0  0  0  0  0
    8.4270   -0.0970   21.2760 C   0  0  0  0  0  0  0  0  0  0  0  0
    9.4860    0.2590   21.7590 O   0  0  0  0  0  0  0  0  0  0  0  0
    7.2360   -0.6860   21.0440 N   0  0  0  0  0  0  0  0  0  0  0  0
    6.5030   -0.0260   20.1090 C   0  0  0  0  0  0  0  0  0  0  0  0
    5.2300    0.7420   20.3440 C   0  0  0  0  0  0  0  0  0  0  0  0
    4.6190    1.3750   19.2560 C   0  0  0  0  0  0  0  0  0  0  0  0
    5.2080    1.2720   18.0040 C   0  0  0  0  0  0  0  0  0  0  0  0
    6.3440    0.5850   17.7700 N   0  0  0  0  0  0  0  0  0  0  0  0
    6.9510   -0.0380   18.8030 C   0  0  0  0  0  0  0  0  0  0  0  0
  1  2  1  0
  2  3  1  0
  3  4  1  0
  4  5  1  0
  5  6  1  0
  6  7  1  0
  7  8  1  0
  8  9  1  0
  9 10  1  0
 10 11  1  0
 11 12  1  0
 12 13  1  0
 13 14  1  0
 14 15  1  0
 15 16  2  0
 15 17  1  0
 17 18  1  0
 18 19  2  0
 19 20  1  0
 20 21  2  0
 21 22  1  0
 18 23  1  0
 22 23  2  0
M  END
