pyridine_urea_13311
     RDKit          3D

 21 22  0  0  0  0  0  0  0  0999 V2000
    9.6690    3.8960   22.8300 C   0  0  0  0  0  0  0  0  0  0  0  0
   10.8260    3.5380   23.5770 O   0  0  0  0  0  0  0  0  0  0  0  0
   11.8190    2.9090   22.8770 C   0  0  0  0  0  0  0  0  0  0  0  0
   12.6290    3.5920   22.2620 O   0  0  0  0  0  0  0  0  0  0  0  0
   11.9020    1.5040   22.8640 C   0  0  0  0  0  0  0  0  0  0  0  0
   10.7490    0.7750   22.5320 C   0  0  0  0  0  0  0  0  0  0  0  0
   10.6300   -0.6110   22.6500 C   0  0  0  0  0  0  0  0  0  0  0  0
    9.3400   -1.0520   22.2730 N   0  0  0  0  0  0  0  0  0  0  0  0
    8.4900   -0.2120   21.5530 C   0  0  0  0  0  0  0  0  0  0  0  0
    8.6720    0.9800   21.3350 O   0  0  0  0  0  0  0  0  0  0  0  0
    7.3350   -0.7800   21.0360 N   0  0  0  0  0  0  0  0  0  0  0  0
    6.5380   -0.0940   20.0890 C   0  0  0  0  0  0  0  0  0  0  0  0
    5.2270    0.6580   20.3500 C   0  0  0  0  0  0  0  0  0  0  0  0
    4.5910    1.2910   19.2840 C   0  0  0  0  0  0  0  0  0  0  0  0
    5.1720    1.2160   18.0290 C   0  0  0  0  0  0  0  0  0  0  0  0
    6.3200    0.5590   17.7700 N   0  0  0  0  0  0  0  0  0  0  0  0
    6.9620   -0.0700   18.7760 C   0  0  0  0  0  0  0  0  0  0  0  0
   11.0440   -0.9920   23.9010 C   0  0  0  0  0  0  0  0  0  0  0  0
   12.4080   -0.7290   23.9250 C   0  0  0  0  0  0  0  0  0  0  0  0
   12.7710   -0.9860   22.6340 C   0  0  0  0  0  0  0  0  0  0  0  0
   11.5800   -1.4890   22.0920 C   0  0  0  0  0  0  0  0  0  0  0  0
  1  2  1  0
  2  3  1  0
  3  4  2  0
  3  5  1  0
  5  6  3  0
  7  6  1  0
  7  8  1  0
  8  9  1  0
  9 10  2  0
  9 11  1  0
 11 12  1  0
 12 13  2  0
 13 14  1  0
 14 15  2  0
 15 16  1  0
 12 17  1  0
 16 17  2  0
  7 18  1  0
 18 19  1  0
 19 20  1  0
  7 21  1  0
 20 21  1  0
M  END
