pyridine_urea_2852
     RDKit          3D

 22 23  0  0  0  0  0  0  0  0999 V2000
    9.4530    3.2220   24.1900 C   0  0  0  0  0  0  0  0  0  0  0  0
   10.5670    3.1980   23.3050 O   0  0  0  0  0  0  0  0  0  0  0  0
   11.0330    1.8710   23.0170 C   0  0  0  0  0  0  0  0  0  0  0  0
    9.9630    0.8390   22.7860 C   0  0  0  0  0  0  0  0  0  0  0  0
   10.1660   -0.4700   22.4800 C   0  0  0  0  0  0  0  0  0  0  0  0
    9.0550   -1.2460   22.2320 N   0  0  0  0  0  0  0  0  0  0  0  0
    8.1540   -0.5970   21.4170 C   0  0  0  0  0  0  0  0  0  0  0  0
    8.4070    0.6900   21.0380 O   0  0  0  0  0  0  0  0  0  0  0  0
    7.0370   -1.1910   20.9860 N   0  0  0  0  0  0  0  0  0  0  0  0
    6.4010   -0.3890   20.0900 C   0  0  0  0  0  0  0  0  0  0  0  0
    5.1160    0.4190   20.3610 C   0  0  0  0  0  0  0  0  0  0  0  0
    4.4730    1.3070   19.2970 C   0  0  0  0  0  0  0  0  0  0  0  0
    5.2300    1.3010   17.9800 C   0  0  0  0  0  0  0  0  0  0  0  0
    6.3640    0.5520   17.8200 N   0  0  0  0  0  0  0  0  0  0  0  0
    6.9350   -0.2580   18.8160 C   0  0  0  0  0  0  0  0  0  0  0  0
   11.6570   -0.8520   22.4260 C   0  0  0  0  0  0  0  0  0  0  0  0
   12.7450    0.2310   22.6690 C   0  0  0  0  0  0  0  0  0  0  0  0
   12.3500    1.5580   22.9370 C   0  0  0  0  0  0  0  0  0  0  0  0
   13.1990    2.5860   23.1050 O   0  0  0  0  0  0  0  0  0  0  0  0
   12.5950    3.7610   22.4840 C   0  0  0  0  0  0  0  0  0  0  0  0
   13.4620    4.8310   22.2640 C   0  0  0  0  0  0  0  0  0  0  0  0
   12.5430    4.9490   23.4210 C   0  0  0  0  0  0  0  0  0  0  0  0
  1  2  1  0
  2  3  1  0
  3  4  2  0
  4  5  1  0
  5  6  1  0
  6  7  1  0
  7  8  2  0
  7  9  1  0
  9 10  1  0
 10 11  2  0
 11 12  1  0
 12 13  2  0
 13 14  1  0
 10 15  1  0
 14 15  2  0
  5 16  2  0
 16 17  1  0
  3 18  1  0
 17 18  2  0
 18 19  1  0
 19 20  1  0
 20 21  1  0
 20 22  1  0
M  END
