pyridine_urea_11671
     RDKit          3D

 28 30  0  0  0  0  0  0  0  0999 V2000
   13.7570    4.3580   21.1530 C   0  0  0  0  0  0  0  0  0  0  0  0
   13.3420    5.3570   22.0820 O   0  0  0  0  0  0  0  0  0  0  0  0
   12.1940    4.8780   22.6330 C   0  0  0  0  0  0  0  0  0  0  0  0
   11.6830    3.8530   21.9230 C   0  0  0  0  0  0  0  0  0  0  0  0
   10.5360    3.1660   22.2250 C   0  0  0  0  0  0  0  0  0  0  0  0
    9.8390    3.5430   23.3440 C   0  0  0  0  0  0  0  0  0  0  0  0
    8.6750    2.7030   23.4830 N   0  0  0  0  0  0  0  0  0  0  0  0
    8.6590    1.5360   22.7390 C   0  0  0  0  0  0  0  0  0  0  0  0
    8.7550    1.4990   21.5030 O   0  0  0  0  0  0  0  0  0  0  0  0
    8.5100    0.3170   23.4210 C   0  0  0  0  0  0  0  0  0  0  0  0
    7.6100   -0.5450   22.8980 N   0  0  0  0  0  0  0  0  0  0  0  0
    7.6020   -0.7040   21.4560 C   0  0  0  0  0  0  0  0  0  0  0  0
    8.5220   -0.5270   20.7160 O   0  0  0  0  0  0  0  0  0  0  0  0
    6.4280   -1.0570   20.9550 N   0  0  0  0  0  0  0  0  0  0  0  0
    5.9810   -0.2280   19.9880 C   0  0  0  0  0  0  0  0  0  0  0  0
    4.8600    0.5780   20.1040 C   0  0  0  0  0  0  0  0  0  0  0  0
    4.4760    1.4000   19.0580 C   0  0  0  0  0  0  0  0  0  0  0  0
    5.2340    1.3950   17.9040 C   0  0  0  0  0  0  0  0  0  0  0  0
    6.3280    0.6300   17.7440 N   0  0  0  0  0  0  0  0  0  0  0  0
    6.6770   -0.1600   18.7860 C   0  0  0  0  0  0  0  0  0  0  0  0
    9.6200   -0.4110   23.6820 C   0  0  0  0  0  0  0  0  0  0  0  0
   10.3750    0.5780   24.5870 C   0  0  0  0  0  0  0  0  0  0  0  0
    9.3770    1.1310   25.3190 C   0  0  0  0  0  0  0  0  0  0  0  0
    8.2190    0.6160   24.7480 C   0  0  0  0  0  0  0  0  0  0  0  0
   10.2770    4.5960   24.1630 C   0  0  0  0  0  0  0  0  0  0  0  0
   11.4530    5.2200   23.7560 C   0  0  0  0  0  0  0  0  0  0  0  0
   12.0090    6.2580   24.4330 O   0  0  0  0  0  0  0  0  0  0  0  0
   12.3790    7.3410   23.6280 C   0  0  0  0  0  0  0  0  0  0  0  0
  1  2  1  0
  2  3  1  0
  3  4  2  0
  4  5  1  0
  5  6  2  0
  6  7  1  0
  7  8  1  0
  8  9  2  0
 10  8  1  0
 10 11  1  0
 11 12  1  0
 12 13  2  0
 12 14  1  0
 14 15  1  0
 15 16  2  0
 16 17  1  0
 17 18  2  0
 18 19  1  0
 15 20  1  0
 19 20  2  0
 10 21  1  0
 21 22  1  0
 22 23  1  0
 10 24  1  0
 23 24  1  0
  6 25  1  0
  3 26  1  0
 25 26  2  0
 26 27  1  0
 27 28  1  0
M  END
