pyridine_urea_2616
     RDKit          3D

 23 24  0  0  0  0  0  0  0  0999 V2000
    5.7930    1.3100   17.3030 C   0  0  0  0  0  0  0  0  0  0  0  0
    6.8720    0.9250   18.2650 C   0  0  0  0  0  0  0  0  0  0  0  0
    6.1410    0.3280   19.2090 N   0  0  0  0  0  0  0  0  0  0  0  0
    5.3590    1.3870   19.8540 C   0  0  0  0  0  0  0  0  0  0  0  0
    4.1890    1.8780   20.4170 C   0  0  0  0  0  0  0  0  0  0  0  0
    4.1250    3.2330   20.4070 F   0  0  0  0  0  0  0  0  0  0  0  0
    4.0970    1.5670   21.7320 F   0  0  0  0  0  0  0  0  0  0  0  0
    3.0590    1.4570   19.7970 F   0  0  0  0  0  0  0  0  0  0  0  0
    4.4480    0.2010   20.0120 C   0  0  0  0  0  0  0  0  0  0  0  0
    5.2580   -0.6510   19.4860 C   0  0  0  0  0  0  0  0  0  0  0  0
    5.9410   -0.1080   20.6310 C   0  0  0  0  0  0  0  0  0  0  0  0
    7.0610   -0.0400   21.3400 N   0  0  0  0  0  0  0  0  0  0  0  0
    8.3870    0.2600   21.5880 C   0  0  0  0  0  0  0  0  0  0  0  0
    8.9250    1.2910   21.1640 O   0  0  0  0  0  0  0  0  0  0  0  0
    8.9940   -0.7050   22.3260 N   0  0  0  0  0  0  0  0  0  0  0  0
   10.2940   -0.4130   22.5070 C   0  0  0  0  0  0  0  0  0  0  0  0
   11.3320   -1.2540   22.4100 C   0  0  0  0  0  0  0  0  0  0  0  0
   12.6680   -0.9110   22.5970 C   0  0  0  0  0  0  0  0  0  0  0  0
   13.3260    0.3260   22.9180 C   0  0  0  0  0  0  0  0  0  0  0  0
   12.1920    1.1550   22.9990 N   0  0  0  0  0  0  0  0  0  0  0  0
   10.8620    0.8930   22.8380 C   0  0  0  0  0  0  0  0  0  0  0  0
    6.7220   -0.8670   19.7260 C   0  0  0  0  0  0  0  0  0  0  0  0
    6.9710   -1.7860   20.6910 O   0  0  0  0  0  0  0  0  0  0  0  0
  1  2  1  0
  2  3  1  0
  3  4  1  0
  4  5  1  0
  5  6  1  0
  5  7  1  0
  5  8  1  0
  4  9  2  0
  9 10  1  0
 10 11  2  0
 11 12  1  0
 12 13  1  0
 13 14  2  0
 13 15  1  0
 15 16  1  0
 16 17  2  0
 17 18  1  0
 18 19  2  0
 19 20  1  0
 16 21  1  0
 20 21  2  0
  3 22  1  0
 11 22  1  0
 22 23  2  0
M  END
