pyridine_urea_5526
     RDKit          3D

 18 20  0  0  0  0  0  0  0  0999 V2000
    9.0750    0.4970   21.4860 O   0  0  0  0  0  0  0  0  0  0  0  0
    8.4440   -0.5460   21.5930 C   0  0  0  0  0  0  0  0  0  0  0  0
    8.9120   -1.6660   22.2770 N   0  0  0  0  0  0  0  0  0  0  0  0
   10.1930   -1.6930   22.9910 C   0  0  0  0  0  0  0  0  0  0  0  0
   11.3410   -0.8800   22.3060 C   0  0  2  0  0  0  0  0  0  0  0  0
   12.7220   -1.0780   22.3870 C   0  0  0  0  0  0  0  0  0  0  0  0
   12.1730   -0.0830   23.3720 C   0  0  2  0  0  0  0  0  0  0  0  0
   11.4910   -0.2510   24.5470 C   0  0  0  0  0  0  0  0  0  0  0  0
   10.3740    0.7460   24.4820 C   0  0  0  0  0  0  0  0  0  0  0  0
   10.8450    1.8130   23.8160 O   0  0  0  0  0  0  0  0  0  0  0  0
   12.0990    1.3710   23.2540 C   0  0  0  0  0  0  0  0  0  0  0  0
    7.1810   -0.7850   21.0830 N   0  0  0  0  0  0  0  0  0  0  0  0
    6.5520   -0.1030   20.0630 C   0  0  0  0  0  0  0  0  0  0  0  0
    5.2780    0.6700   20.4370 C   0  0  0  0  0  0  0  0  0  0  0  0
    4.5510    1.4540   19.3260 C   0  0  0  0  0  0  0  0  0  0  0  0
    5.2150    1.3590   17.9570 C   0  0  0  0  0  0  0  0  0  0  0  0
    6.3600    0.6250   17.7460 N   0  0  0  0  0  0  0  0  0  0  0  0
    6.9880   -0.0740   18.7630 C   0  0  0  0  0  0  0  0  0  0  0  0
  1  2  2  0
  2  3  1  0
  3  4  1  0
  5  4  1  1
  5  6  1  0
  5  7  1  0
  7  6  1  1
  7  8  1  0
  8  9  1  0
  9 10  1  0
  7 11  1  0
 10 11  1  0
  2 12  1  0
 12 13  1  0
 13 14  2  0
 14 15  1  0
 15 16  2  0
 16 17  1  0
 13 18  1  0
 17 18  2  0
M  END
