pyridine_urea_12558
     RDKit          3D

 21 23  0  0  0  0  0  0  0  0999 V2000
    9.0250    0.8980   21.3770 O   0  0  0  0  0  0  0  0  0  0  0  0
    8.5150   -0.1680   21.6890 C   0  0  0  0  0  0  0  0  0  0  0  0
    9.0790   -0.9490   22.6920 N   0  0  0  0  0  0  0  0  0  0  0  0
    8.9440   -2.4000   22.6890 C   0  0  0  0  0  0  0  0  0  0  0  0
    7.5160   -2.9200   23.1110 C   0  0  0  0  0  0  0  0  0  0  0  0
    6.9470   -2.8200   24.5280 N   0  0  0  0  0  0  0  0  0  0  0  0
    5.6510   -3.4340   24.3280 C   0  0  0  0  0  0  0  0  0  0  0  0
    4.5250   -3.6760   25.3370 C   0  0  0  0  0  0  0  0  0  0  0  0
    3.3620   -4.3030   24.8450 C   0  0  0  0  0  0  0  0  0  0  0  0
    1.8930   -4.6640   25.9670 Br  0  0  0  0  0  0  0  0  0  0  0  0
    3.3240   -4.6870   23.3490 C   0  0  0  0  0  0  0  0  0  0  0  0
    4.3890   -4.4270   22.4950 N   0  0  0  0  0  0  0  0  0  0  0  0
    5.5260   -3.8040   23.0330 C   0  0  0  0  0  0  0  0  0  0  0  0
    6.6040   -3.5250   22.2570 N   0  0  0  0  0  0  0  0  0  0  0  0
    7.3720   -0.6610   21.1150 N   0  0  0  0  0  0  0  0  0  0  0  0
    6.5970    0.0100   20.0850 C   0  0  0  0  0  0  0  0  0  0  0  0
    5.3430    0.7740   20.5270 C   0  0  0  0  0  0  0  0  0  0  0  0
    4.5930    1.4610   19.3940 C   0  0  0  0  0  0  0  0  0  0  0  0
    5.1800    1.2980   18.0140 C   0  0  0  0  0  0  0  0  0  0  0  0
    6.3200    0.5780   17.7300 N   0  0  0  0  0  0  0  0  0  0  0  0
    6.9760   -0.0330   18.7490 C   0  0  0  0  0  0  0  0  0  0  0  0
  1  2  2  0
  2  3  1  0
  3  4  1  0
  4  5  1  0
  5  6  2  0
  6  7  1  0
  7  8  2  0
  8  9  1  0
  9 10  1  0
  9 11  2  0
 11 12  1  0
  7 13  1  0
 12 13  2  0
  5 14  1  0
 13 14  1  0
  2 15  1  0
 15 16  1  0
 16 17  2  0
 17 18  1  0
 18 19  2  0
 19 20  1  0
 16 21  1  0
 20 21  2  0
M  END
