pyridine_urea_14854
     RDKit          3D

 20 21  0  0  0  0  0  0  0  0999 V2000
   13.1200   -2.1480   21.1710 C   0  0  0  0  0  0  0  0  0  0  0  0
   13.1660   -2.2490   22.6850 C   0  0  0  0  0  0  0  0  0  0  0  0
   12.3110   -1.2420   23.2550 N   0  0  0  0  0  0  0  0  0  0  0  0
   11.0250   -1.4560   23.8110 C   0  0  0  0  0  0  0  0  0  0  0  0
   10.5970   -0.2340   24.2040 C   0  0  0  0  0  0  0  0  0  0  0  0
    9.3790   -0.0320   24.7810 C   0  0  2  0  0  0  0  0  0  0  0  0
    9.2260   -0.4020   25.9340 O   0  0  0  0  0  0  0  0  0  0  0  0
    8.4020   -0.7040   24.0470 C   0  0  0  0  0  0  0  0  0  0  0  0
    7.8210    0.0800   23.0990 N   0  0  0  0  0  0  0  0  0  0  0  0
    8.1330    0.3060   21.7740 C   0  0  0  0  0  0  0  0  0  0  0  0
    9.0780    1.2120   21.3110 O   0  0  0  0  0  0  0  0  0  0  0  0
    7.3120   -0.4700   20.9960 N   0  0  0  0  0  0  0  0  0  0  0  0
    6.5660    0.1150   19.9800 C   0  0  0  0  0  0  0  0  0  0  0  0
    5.4000    0.8230   20.3020 C   0  0  0  0  0  0  0  0  0  0  0  0
    4.6970    1.4150   19.2670 C   0  0  0  0  0  0  0  0  0  0  0  0
    5.1560    1.2910   17.9700 C   0  0  0  0  0  0  0  0  0  0  0  0
    6.2480    0.6170   17.6220 N   0  0  0  0  0  0  0  0  0  0  0  0
    6.9030    0.0580   18.6530 C   0  0  0  0  0  0  0  0  0  0  0  0
   11.6130    0.6990   23.8950 C   0  0  0  0  0  0  0  0  0  0  0  0
   12.7570    0.1220   23.2790 N   0  0  0  0  0  0  0  0  0  0  0  0
  1  2  1  0
  2  3  1  0
  3  4  1  0
  4  5  2  0
  5  6  1  0
  6  7  1  1
  6  8  1  0
  8  9  1  0
  9 10  1  0
 10 11  2  0
 10 12  1  0
 12 13  1  0
 13 14  2  0
 14 15  1  0
 15 16  2  0
 16 17  1  0
 13 18  1  0
 17 18  2  0
  5 19  1  0
  3 20  1  0
 19 20  2  0
M  END
