pyridine_urea_12954
     RDKit          3D

 19 20  0  0  0  0  0  0  0  0999 V2000
   10.0600   -0.0580   24.3740 C   0  0  0  0  0  0  0  0  0  0  0  0
   10.2950   -0.1140   22.8340 C   0  0  2  0  0  0  0  0  0  0  0  0
    9.1770   -0.7790   22.1710 N   0  0  0  0  0  0  0  0  0  0  0  0
    8.3030   -0.0430   21.3870 C   0  0  0  0  0  0  0  0  0  0  0  0
    8.5880    1.3000   20.9660 O   0  0  0  0  0  0  0  0  0  0  0  0
    7.1770   -0.7730   21.0990 N   0  0  0  0  0  0  0  0  0  0  0  0
    6.4880   -0.0580   20.1320 C   0  0  0  0  0  0  0  0  0  0  0  0
    5.3220    0.6940   20.3010 C   0  0  0  0  0  0  0  0  0  0  0  0
    4.7000    1.3840   19.2580 C   0  0  0  0  0  0  0  0  0  0  0  0
    5.2740    1.3130   18.0050 C   0  0  0  0  0  0  0  0  0  0  0  0
    6.3880    0.6060   17.7830 N   0  0  0  0  0  0  0  0  0  0  0  0
    6.9590   -0.0540   18.8240 C   0  0  0  0  0  0  0  0  0  0  0  0
   11.5910   -0.8430   22.5390 C   0  0  0  0  0  0  0  0  0  0  0  0
   11.6490   -2.0170   22.1140 C   0  0  0  0  0  0  0  0  0  0  0  0
   12.8510   -1.2630   22.3640 C   0  0  0  0  0  0  0  0  0  0  0  0
   11.9300    0.0350   22.8410 C   0  0  0  0  0  0  0  0  0  0  0  0
   11.4510    1.7650   23.4590 Br  0  0  0  0  0  0  0  0  0  0  0  0
   13.0940    0.7430   23.0740 C   0  0  0  0  0  0  0  0  0  0  0  0
   12.9740   -0.4790   22.6390 C   0  0  0  0  0  0  0  0  0  0  0  0
  2  1  1  1
  2  3  1  0
  3  4  1  0
  4  5  2  0
  4  6  1  0
  6  7  1  0
  7  8  2  0
  8  9  1  0
  9 10  2  0
 10 11  1  0
  7 12  1  0
 11 12  2  0
  2 13  1  0
 13 14  2  0
 14 15  1  0
 15 16  2  0
 16 17  1  0
 16 18  1  0
 13 19  1  0
 18 19  2  0
M  END
