pyridine_urea_2931
     RDKit          3D

 21 23  0  0  0  0  0  0  0  0999 V2000
   12.1570    2.8940   22.7110 C   0  0  0  0  0  0  0  0  0  0  0  0
   11.9370    1.4910   22.5810 O   0  0  0  0  0  0  0  0  0  0  0  0
   10.5450    1.1660   22.6510 C   0  0  0  0  0  0  0  0  0  0  0  0
    9.6310    1.9770   22.6420 O   0  0  0  0  0  0  0  0  0  0  0  0
   10.3100   -0.3940   22.7640 C   0  0  1  0  0  0  0  0  0  0  0  0
    9.1550   -0.8220   22.0060 N   0  0  0  0  0  0  0  0  0  0  0  0
    8.3490    0.0490   21.3400 C   0  0  0  0  0  0  0  0  0  0  0  0
    8.6910    1.1980   21.0450 O   0  0  0  0  0  0  0  0  0  0  0  0
    7.0820   -0.5640   21.0290 N   0  0  0  0  0  0  0  0  0  0  0  0
    6.3890    0.0730   20.0520 C   0  0  0  0  0  0  0  0  0  0  0  0
    5.1980    0.7370   20.3540 C   0  0  0  0  0  0  0  0  0  0  0  0
    4.5070    1.4410   19.2050 C   0  0  0  0  0  0  0  0  0  0  0  0
    5.1860    1.3450   17.8690 C   0  0  0  0  0  0  0  0  0  0  0  0
    6.3270    0.6750   17.6760 N   0  0  0  0  0  0  0  0  0  0  0  0
    6.8830    0.0680   18.7500 C   0  0  0  0  0  0  0  0  0  0  0  0
   11.5050   -1.2510   22.3870 C   0  0  0  0  0  0  0  0  0  0  0  0
   12.8140   -0.6210   22.8060 C   0  0  0  0  0  0  0  0  0  0  0  0
   12.4740   -0.0580   24.1840 C   0  0  0  0  0  0  0  0  0  0  0  0
   11.4050   -0.7240   24.7900 C   0  0  1  0  0  0  0  0  0  0  0  0
   10.4150   -0.0560   25.1830 C   0  0  0  0  0  0  0  0  0  0  0  0
   10.0680   -0.8580   24.0250 C   0  0  1  0  0  0  0  0  0  0  0  0
  1  2  1  0
  2  3  1  0
  3  4  2  0
  5  3  1  0
  5  6  1  6
  6  7  1  0
  7  8  2  0
  7  9  1  0
  9 10  1  0
 10 11  2  0
 11 12  1  0
 12 13  2  0
 13 14  1  0
 10 15  1  0
 14 15  2  0
  5 16  1  0
 16 17  1  0
 17 18  1  0
 19 18  1  6
 19 20  1  0
  5 21  1  0
 19 21  1  0
 21 20  1  1
M  END
