pyridine_urea_11165
     RDKit          3D

 18 19  0  0  0  0  0  0  0  0999 V2000
   13.0880    0.7620   22.9960 C   0  0  0  0  0  0  0  0  0  0  0  0
   12.5910   -0.2370   22.6260 C   0  0  0  0  0  0  0  0  0  0  0  0
   13.2800   -1.2960   21.8450 N   0  0  0  0  0  0  0  0  0  0  0  0
   12.2890   -2.3280   21.6150 O   0  0  0  0  0  0  0  0  0  0  0  0
   11.0930   -1.9330   22.2010 C   0  0  0  0  0  0  0  0  0  0  0  0
    9.8280   -2.6980   22.1980 C   0  0  0  0  0  0  0  0  0  0  0  0
   11.2150   -0.6110   22.8640 C   0  0  0  0  0  0  0  0  0  0  0  0
    9.9300   -0.1160   23.5410 C   0  0  0  0  0  0  0  0  0  0  0  0
    8.9400   -0.5600   22.7020 N   0  0  0  0  0  0  0  0  0  0  0  0
    8.4160    0.1450   21.6110 C   0  0  0  0  0  0  0  0  0  0  0  0
    8.9810    1.4000   21.1760 O   0  0  0  0  0  0  0  0  0  0  0  0
    7.3290   -0.4880   21.0680 N   0  0  0  0  0  0  0  0  0  0  0  0
    6.6170    0.1060   20.0360 C   0  0  0  0  0  0  0  0  0  0  0  0
    5.3930    0.9130   20.3100 C   0  0  0  0  0  0  0  0  0  0  0  0
    4.7020    1.5310   19.2920 C   0  0  0  0  0  0  0  0  0  0  0  0
    5.0920    1.4450   17.9610 C   0  0  0  0  0  0  0  0  0  0  0  0
    6.2910    0.6410   17.6450 N   0  0  0  0  0  0  0  0  0  0  0  0
    6.9460    0.0430   18.7070 C   0  0  0  0  0  0  0  0  0  0  0  0
  1  2  1  0
  2  3  2  0
  3  4  1  0
  4  5  1  0
  5  6  1  0
  2  7  1  0
  5  7  2  0
  7  8  1  0
  8  9  1  0
  9 10  1  0
 10 11  2  0
 10 12  1  0
 12 13  1  0
 13 14  2  0
 14 15  1  0
 15 16  2  0
 16 17  1  0
 13 18  1  0
 17 18  2  0
M  END
