pyridine_urea_1245
     RDKit          3D

 21 22  0  0  0  0  0  0  0  0999 V2000
   10.0200    2.1010   23.0260 C   0  0  0  0  0  0  0  0  0  0  0  0
    9.6220    0.7690   22.3900 C   0  0  1  0  0  0  0  0  0  0  0  0
   10.1560   -0.3410   23.2040 C   0  0  0  0  0  0  0  0  0  0  0  0
   11.4030   -0.0310   23.7340 O   0  0  0  0  0  0  0  0  0  0  0  0
   12.1300   -1.0830   23.1810 C   0  0  0  0  0  0  0  0  0  0  0  0
   11.7490   -1.3880   21.9120 C   0  0  0  0  0  0  0  0  0  0  0  0
   12.3580   -2.3910   21.2360 C   0  0  0  0  0  0  0  0  0  0  0  0
   13.3380   -3.0690   21.8740 C   0  0  0  0  0  0  0  0  0  0  0  0
   13.7120   -2.7610   23.1800 C   0  0  0  0  0  0  0  0  0  0  0  0
   13.0940   -1.7590   23.8180 C   0  0  0  0  0  0  0  0  0  0  0  0
   13.4580   -1.4850   25.0650 F   0  0  0  0  0  0  0  0  0  0  0  0
    8.2270    0.4960   22.3370 N   0  0  0  0  0  0  0  0  0  0  0  0
    8.0060   -0.5350   21.4890 C   0  0  0  0  0  0  0  0  0  0  0  0
    9.0390   -1.3030   21.0970 O   0  0  0  0  0  0  0  0  0  0  0  0
    6.7090   -0.6480   21.1110 N   0  0  0  0  0  0  0  0  0  0  0  0
    6.2260    0.0260   19.9970 C   0  0  0  0  0  0  0  0  0  0  0  0
    4.9710    0.8220   20.1080 C   0  0  0  0  0  0  0  0  0  0  0  0
    4.4410    1.5220   19.0520 C   0  0  0  0  0  0  0  0  0  0  0  0
    5.1920    1.4240   17.8450 C   0  0  0  0  0  0  0  0  0  0  0  0
    6.3310    0.7080   17.7060 N   0  0  0  0  0  0  0  0  0  0  0  0
    6.8280    0.0260   18.7630 C   0  0  0  0  0  0  0  0  0  0  0  0
  2  1  1  1
  2  3  1  0
  3  4  1  0
  4  5  1  0
  5  6  2  0
  6  7  1  0
  7  8  2  0
  8  9  1  0
  5 10  1  0
  9 10  2  0
 10 11  1  0
  2 12  1  0
 12 13  1  0
 13 14  2  0
 13 15  1  0
 15 16  1  0
 16 17  2  0
 17 18  1  0
 18 19  2  0
 19 20  1  0
 16 21  1  0
 20 21  2  0
M  END
