pyridine_urea_13955
     RDKit          3D

 24 27  0  0  0  0  0  0  0  0999 V2000
    8.8480    1.1700   21.4660 O   0  0  0  0  0  0  0  0  0  0  0  0
    8.4620    0.0250   21.2970 C   0  0  0  0  0  0  0  0  0  0  0  0
    7.1460   -0.3420   21.1940 N   0  0  0  0  0  0  0  0  0  0  0  0
    6.4690    0.1990   20.0490 C   0  0  0  0  0  0  0  0  0  0  0  0
    5.1960    0.9790   20.3410 C   0  0  0  0  0  0  0  0  0  0  0  0
    4.5430    1.5470   19.1380 C   0  0  0  0  0  0  0  0  0  0  0  0
    5.1240    1.3250   17.9050 C   0  0  0  0  0  0  0  0  0  0  0  0
    6.2480    0.6170   17.6970 N   0  0  0  0  0  0  0  0  0  0  0  0
    6.8880    0.0760   18.7490 C   0  0  0  0  0  0  0  0  0  0  0  0
    9.3110   -1.0250   21.1570 N   0  0  0  0  0  0  0  0  0  0  0  0
   10.2800   -1.3120   22.1790 C   0  0  0  0  0  0  0  0  0  0  0  0
    9.9810   -1.4820   23.3400 C   0  0  0  0  0  0  0  0  0  0  0  0
   11.0990   -1.7430   24.0050 N   0  0  0  0  0  0  0  0  0  0  0  0
   12.3700   -1.7940   23.4090 N   0  0  0  0  0  0  0  0  0  0  0  0
   12.3680   -2.0730   24.7700 C   0  0  0  0  0  0  0  0  0  0  0  0
   11.0050   -2.3870   25.1530 C   0  0  0  0  0  0  0  0  0  0  0  0
    9.9420   -1.5060   25.1430 N   0  0  0  0  0  0  0  0  0  0  0  0
    8.7790   -2.1690   25.5070 N   0  0  0  0  0  0  0  0  0  0  0  0
    9.1490   -3.3920   25.7390 C   0  0  0  0  0  0  0  0  0  0  0  0
   10.4200   -3.5360   25.5690 N   0  0  0  0  0  0  0  0  0  0  0  0
   10.5750   -4.8800   25.9040 C   0  0  0  0  0  0  0  0  0  0  0  0
    9.7130   -4.9530   27.1920 C   0  0  0  0  0  0  0  0  0  0  0  0
    8.6330   -4.7740   26.1290 C   0  0  0  0  0  0  0  0  0  0  0  0
   11.8080   -1.4850   22.1730 C   0  0  0  0  0  0  0  0  0  0  0  0
  1  2  2  0
  2  3  1  0
  3  4  1  0
  4  5  2  0
  5  6  1  0
  6  7  2  0
  7  8  1  0
  4  9  1  0
  8  9  2  0
  2 10  1  0
 10 11  1  0
 11 12  1  0
 12 13  2  0
 13 14  1  0
 14 15  1  0
 15 16  1  0
 16 17  2  0
 17 18  1  0
 18 19  2  0
 16 20  1  0
 19 20  1  0
 20 21  1  0
 21 22  1  0
 19 23  1  0
 22 23  1  0
 11 24  2  0
 14 24  1  0
M  END
