pyridine_urea_13639
     RDKit          3D

 27 29  0  0  0  0  0  0  0  0999 V2000
   13.6110    0.5430   23.0160 C   0  0  0  0  0  0  0  0  0  0  0  0
   12.2800    0.0810   22.9030 C   0  0  0  0  0  0  0  0  0  0  0  0
   12.2440   -1.2540   22.2050 C   0  0  0  0  0  0  0  0  0  0  0  0
   10.9220   -1.8550   21.9960 C   0  0  0  0  0  0  0  0  0  0  0  0
    9.7510   -1.1220   22.4780 C   0  0  0  0  0  0  0  0  0  0  0  0
    8.3600   -1.3590   22.4210 N   0  0  0  0  0  0  0  0  0  0  0  0
    7.8400   -0.4660   21.5200 C   0  0  0  0  0  0  0  0  0  0  0  0
    8.4230    0.5780   21.2390 O   0  0  0  0  0  0  0  0  0  0  0  0
    6.5910   -0.8920   20.9670 N   0  0  0  0  0  0  0  0  0  0  0  0
    6.1380   -0.1350   19.9330 C   0  0  0  0  0  0  0  0  0  0  0  0
    4.9600    0.5890   20.0990 C   0  0  0  0  0  0  0  0  0  0  0  0
    4.5070    1.3640   19.0530 C   0  0  0  0  0  0  0  0  0  0  0  0
    5.2020    1.4250   17.8680 C   0  0  0  0  0  0  0  0  0  0  0  0
    6.3420    0.7310   17.6860 N   0  0  0  0  0  0  0  0  0  0  0  0
    6.7830   -0.0300   18.7170 C   0  0  0  0  0  0  0  0  0  0  0  0
    9.7620    0.1410   23.1610 C   0  0  0  0  0  0  0  0  0  0  0  0
   11.0780    0.8290   23.4130 C   0  0  0  0  0  0  0  0  0  0  0  0
   11.2340    2.0020   24.0180 N   0  0  0  0  0  0  0  0  0  0  0  0
   10.1370    3.1370   23.5640 S   0  0  0  0  0  0  0  0  0  0  0  0
    9.4720    2.7010   22.3530 O   0  0  0  0  0  0  0  0  0  0  0  0
    9.3770    3.4760   24.7490 O   0  0  0  0  0  0  0  0  0  0  0  0
   11.3110    4.3930   23.1860 C   0  0  0  0  0  0  0  0  0  0  0  0
   11.2650    5.6540   23.7750 C   0  0  0  0  0  0  0  0  0  0  0  0
   12.1480    6.6770   23.5230 C   0  0  0  0  0  0  0  0  0  0  0  0
   13.1870    6.5410   22.6390 C   0  0  0  0  0  0  0  0  0  0  0  0
   13.3430    5.1950   21.9270 C   0  0  0  0  0  0  0  0  0  0  0  0
   12.3380    4.0980   22.2450 C   0  0  0  0  0  0  0  0  0  0  0  0
  1  2  1  0
  2  3  2  0
  3  4  1  0
  4  5  2  0
  5  6  1  0
  6  7  1  0
  7  8  2  0
  7  9  1  0
  9 10  1  0
 10 11  2  0
 11 12  1  0
 12 13  2  0
 13 14  1  0
 10 15  1  0
 14 15  2  0
  5 16  1  0
  2 17  1  0
 16 17  2  0
 17 18  1  0
 19 18  1  0
 19 20  2  0
 19 21  2  0
 19 22  1  0
 22 23  2  0
 23 24  1  0
 24 25  2  0
 25 26  1  0
 22 27  1  0
 26 27  2  0
M  END
