pyridine_urea_10045
     RDKit          3D

 24 26  0  0  0  0  0  0  0  0999 V2000
   12.9690   -2.1710   21.0960 C   0  0  0  0  0  0  0  0  0  0  0  0
   12.5050   -2.6160   22.3070 N   0  0  0  0  0  0  0  0  0  0  0  0
   11.1910   -2.5550   22.7840 C   0  0  0  0  0  0  0  0  0  0  0  0
   11.0200   -2.7610   24.1200 C   0  0  0  0  0  0  0  0  0  0  0  0
   11.8140   -1.8600   24.7160 N   0  0  0  0  0  0  0  0  0  0  0  0
   11.6580   -0.5730   24.0800 C   0  0  0  0  0  0  0  0  0  0  0  0
   12.7920    0.1280   23.7850 C   0  0  0  0  0  0  0  0  0  0  0  0
   12.7200    1.3260   23.2040 C   0  0  0  0  0  0  0  0  0  0  0  0
   11.3420    1.7470   22.9500 C   0  0  0  0  0  0  0  0  0  0  0  0
   10.2690    0.9910   23.2610 C   0  0  0  0  0  0  0  0  0  0  0  0
   10.2780   -0.2980   23.8760 C   0  0  0  0  0  0  0  0  0  0  0  0
    8.9990    0.0550   23.6380 C   0  0  0  0  0  0  0  0  0  0  0  0
    8.4840   -0.6600   22.6440 N   0  0  0  0  0  0  0  0  0  0  0  0
    8.0920    0.0830   21.4740 C   0  0  0  0  0  0  0  0  0  0  0  0
    8.6650    1.1180   21.0880 O   0  0  0  0  0  0  0  0  0  0  0  0
    7.0300   -0.5410   20.9550 N   0  0  0  0  0  0  0  0  0  0  0  0
    6.4570    0.0880   19.9340 C   0  0  0  0  0  0  0  0  0  0  0  0
    5.3320    0.8360   20.2720 C   0  0  0  0  0  0  0  0  0  0  0  0
    4.6770    1.5420   19.2730 C   0  0  0  0  0  0  0  0  0  0  0  0
    5.1080    1.5250   17.9540 C   0  0  0  0  0  0  0  0  0  0  0  0
    6.2800    0.7390   17.5640 N   0  0  0  0  0  0  0  0  0  0  0  0
    6.9140    0.0300   18.6530 C   0  0  0  0  0  0  0  0  0  0  0  0
   13.1110   -2.2720   24.6820 C   0  0  0  0  0  0  0  0  0  0  0  0
   13.4990   -2.3740   23.3560 C   0  0  0  0  0  0  0  0  0  0  0  0
  1  2  1  0
  2  3  1  0
  3  4  1  0
  4  5  1  0
  5  6  1  0
  6  7  2  0
  7  8  1  0
  8  9  2  0
  9 10  1  0
  6 11  1  0
 10 11  2  0
 11 12  1  0
 12 13  1  0
 13 14  1  0
 14 15  2  0
 14 16  1  0
 16 17  1  0
 17 18  2  0
 18 19  1  0
 19 20  2  0
 20 21  1  0
 17 22  1  0
 21 22  2  0
  5 23  1  0
  2 24  1  0
 23 24  1  0
M  END
