pyridine_urea_13708
     RDKit          3D

 26 28  0  0  0  0  0  0  0  0999 V2000
   11.6880    3.7360   21.7170 O   0  0  0  0  0  0  0  0  0  0  0  0
   12.6280    3.7150   22.4830 C   0  0  0  0  0  0  0  0  0  0  0  0
   13.3740    4.9880   22.9230 C   0  0  0  0  0  0  0  0  0  0  0  0
   12.4730    5.9010   23.6440 N   0  0  0  0  0  0  0  0  0  0  0  0
   12.4340    7.2870   23.7660 C   0  0  0  0  0  0  0  0  0  0  0  0
   11.3070    7.6760   24.6460 C   0  0  0  0  0  0  0  0  0  0  0  0
   10.7420    6.3690   24.9730 C   0  0  0  0  0  0  0  0  0  0  0  0
   11.3950    5.3050   24.4060 N   0  0  0  0  0  0  0  0  0  0  0  0
   13.0650    2.5010   23.0070 N   0  0  0  0  0  0  0  0  0  0  0  0
   12.1040    1.5070   23.1970 C   0  0  0  0  0  0  0  0  0  0  0  0
   11.0040    1.6520   23.9550 C   0  0  0  0  0  0  0  0  0  0  0  0
   10.1330    0.6370   24.0190 C   0  0  0  0  0  0  0  0  0  0  0  0
   10.3120   -0.5270   23.3390 C   0  0  0  0  0  0  0  0  0  0  0  0
   11.2990   -1.0300   22.4790 C   0  0  0  0  0  0  0  0  0  0  0  0
   10.2660   -1.9550   22.6380 C   0  0  0  0  0  0  0  0  0  0  0  0
    8.9710   -1.4610   22.6450 N   0  0  0  0  0  0  0  0  0  0  0  0
    8.4580   -0.5730   21.7040 C   0  0  0  0  0  0  0  0  0  0  0  0
    9.0510    0.6780   21.3720 O   0  0  0  0  0  0  0  0  0  0  0  0
    7.2800   -0.9960   21.1560 N   0  0  0  0  0  0  0  0  0  0  0  0
    6.6790   -0.2800   20.1530 C   0  0  0  0  0  0  0  0  0  0  0  0
    5.5660    0.4840   20.5050 C   0  0  0  0  0  0  0  0  0  0  0  0
    4.8740    1.2510   19.5530 C   0  0  0  0  0  0  0  0  0  0  0  0
    5.2150    1.3250   18.2110 C   0  0  0  0  0  0  0  0  0  0  0  0
    6.3700    0.5460   17.7770 N   0  0  0  0  0  0  0  0  0  0  0  0
    7.0610   -0.2460   18.8230 C   0  0  0  0  0  0  0  0  0  0  0  0
   12.1810    0.1050   22.5060 C   0  0  0  0  0  0  0  0  0  0  0  0
  1  2  2  0
  2  3  1  0
  3  4  1  0
  4  5  1  0
  5  6  2  0
  6  7  1  0
  4  8  1  0
  7  8  2  0
  2  9  1  0
  9 10  1  0
 10 11  2  0
 11 12  1  0
 12 13  2  0
 13 14  1  0
 14 15  1  0
 15 16  1  0
 16 17  1  0
 17 18  2  0
 17 19  1  0
 19 20  1  0
 20 21  2  0
 21 22  1  0
 22 23  2  0
 23 24  1  0
 20 25  1  0
 24 25  2  0
 10 26  1  0
 14 26  2  0
M  END
