pyridine_urea_14531
     RDKit          3D

 21 22  0  0  0  0  0  0  0  0999 V2000
   12.4960    3.1590   22.8440 C   0  0  0  0  0  0  0  0  0  0  0  0
   12.8820    2.1710   23.4710 O   0  0  0  0  0  0  0  0  0  0  0  0
   12.3860    0.9510   23.1560 C   0  0  0  0  0  0  0  0  0  0  0  0
   13.2530    0.1170   22.4630 C   0  0  0  0  0  0  0  0  0  0  0  0
   12.6990   -1.0090   22.1600 C   0  0  0  0  0  0  0  0  0  0  0  0
   11.6270    0.1910   23.1110 Br  0  0  0  0  0  0  0  0  0  0  0  0
   11.5680   -1.5930   22.3140 C   0  0  0  0  0  0  0  0  0  0  0  0
   10.7220   -0.7340   23.0360 C   0  0  0  0  0  0  0  0  0  0  0  0
   11.0150    0.7600   23.6090 C   0  0  0  0  0  0  0  0  0  0  0  0
    9.7130    0.4420   23.9800 C   0  0  0  0  0  0  0  0  0  0  0  0
    9.3420   -0.8810   23.7320 C   0  0  0  0  0  0  0  0  0  0  0  0
    8.4720   -1.1590   22.6700 N   0  0  0  0  0  0  0  0  0  0  0  0
    8.1430   -0.2770   21.5530 C   0  0  0  0  0  0  0  0  0  0  0  0
    8.7910    0.7180   21.2590 O   0  0  0  0  0  0  0  0  0  0  0  0
    7.0060   -0.7380   20.9320 N   0  0  0  0  0  0  0  0  0  0  0  0
    6.3120   -0.0080   19.9740 C   0  0  0  0  0  0  0  0  0  0  0  0
    5.0350    0.7190   20.1850 C   0  0  0  0  0  0  0  0  0  0  0  0
    4.5010    1.4110   19.0950 C   0  0  0  0  0  0  0  0  0  0  0  0
    5.1870    1.3810   17.8860 C   0  0  0  0  0  0  0  0  0  0  0  0
    6.3390    0.7210   17.6840 N   0  0  0  0  0  0  0  0  0  0  0  0
    6.8670    0.0490   18.7170 C   0  0  0  0  0  0  0  0  0  0  0  0
  1  2  1  0
  2  3  1  0
  3  4  2  0
  4  5  1  0
  5  6  1  0
  5  7  2  0
  7  8  1  0
  3  9  1  0
  8  9  2  0
  9 10  1  0
 10 11  1  0
 11 12  1  0
 12 13  1  0
 13 14  2  0
 13 15  1  0
 15 16  1  0
 16 17  2  0
 17 18  1  0
 18 19  2  0
 19 20  1  0
 16 21  1  0
 20 21  2  0
M  END
