pyridine_urea_4111
     RDKit          3D

 26 29  0  0  0  0  0  0  0  0999 V2000
    8.9340    0.7740   21.3500 O   0  0  0  0  0  0  0  0  0  0  0  0
    8.3730   -0.2950   21.5640 C   0  0  0  0  0  0  0  0  0  0  0  0
    7.1540   -0.6700   21.0650 N   0  0  0  0  0  0  0  0  0  0  0  0
    6.4870   -0.0130   20.0250 C   0  0  0  0  0  0  0  0  0  0  0  0
    5.3100    0.6980   20.2950 C   0  0  0  0  0  0  0  0  0  0  0  0
    4.6470    1.3660   19.2660 C   0  0  0  0  0  0  0  0  0  0  0  0
    5.1840    1.3020   17.9970 C   0  0  0  0  0  0  0  0  0  0  0  0
    6.3070    0.6230   17.7160 N   0  0  0  0  0  0  0  0  0  0  0  0
    6.9280   -0.0140   18.7240 C   0  0  0  0  0  0  0  0  0  0  0  0
    8.9380   -1.2570   22.3620 N   0  0  0  0  0  0  0  0  0  0  0  0
   10.2740   -1.0070   22.8790 C   0  0  0  0  0  0  0  0  0  0  0  0
   11.4350   -1.3040   21.9350 C   0  0  0  0  0  0  0  0  0  0  0  0
   12.7100   -1.0640   22.3710 C   0  0  0  0  0  0  0  0  0  0  0  0
   12.8820   -0.5790   23.6480 C   0  0  0  0  0  0  0  0  0  0  0  0
   11.8350   -0.3240   24.5150 C   0  0  0  0  0  0  0  0  0  0  0  0
   10.5080   -0.5260   24.1550 C   0  0  0  0  0  0  0  0  0  0  0  0
    9.5090   -0.2540   25.0810 C   0  0  0  0  0  0  0  0  0  0  0  0
    8.1730   -0.0800   24.9500 N   0  0  0  0  0  0  0  0  0  0  0  0
    7.7190    0.1430   26.1950 C   0  0  0  0  0  0  0  0  0  0  0  0
    6.3100    0.4050   26.6850 C   0  0  0  0  0  0  0  0  0  0  0  0
    6.1640    0.5990   28.0640 C   0  0  0  0  0  0  0  0  0  0  0  0
    7.2840    0.5490   28.9280 C   0  0  0  0  0  0  0  0  0  0  0  0
    7.0100    0.7970   30.6150 Cl  0  0  0  0  0  0  0  0  0  0  0  0
    8.5850    0.3070   28.4530 C   0  0  0  0  0  0  0  0  0  0  0  0
    8.7600    0.1100   27.0930 C   0  0  0  0  0  0  0  0  0  0  0  0
    9.8680   -0.1390   26.3670 N   0  0  0  0  0  0  0  0  0  0  0  0
  1  2  2  0
  2  3  1  0
  3  4  1  0
  4  5  2  0
  5  6  1  0
  6  7  2  0
  7  8  1  0
  4  9  1  0
  8  9  2  0
  2 10  1  0
 10 11  1  0
 11 12  2  0
 12 13  1  0
 13 14  2  0
 14 15  1  0
 11 16  1  0
 15 16  2  0
 16 17  1  0
 17 18  2  0
 18 19  1  0
 19 20  2  0
 20 21  1  0
 21 22  2  0
 22 23  1  0
 22 24  1  0
 19 25  1  0
 24 25  2  0
 17 26  1  0
 25 26  1  0
M  END
