pyridine_urea_10948
     RDKit          3D

 19 19  0  0  0  0  0  0  0  0999 V2000
   12.8000   -2.1640   21.2720 C   0  0  0  0  0  0  0  0  0  0  0  0
   11.4720   -1.7730   21.8460 C   0  0  0  0  0  0  0  0  0  0  0  0
   11.4850   -0.9260   22.9260 C   0  0  0  0  0  0  0  0  0  0  0  0
   12.0730   -1.4940   24.0150 C   0  0  0  0  0  0  0  0  0  0  0  0
   12.8540   -0.5910   24.6890 C   0  0  0  0  0  0  0  0  0  0  0  0
   12.2790    0.4490   22.8600 C   0  0  0  0  0  0  0  0  0  0  0  0
   11.4580    1.7280   23.0780 C   0  0  0  0  0  0  0  0  0  0  0  0
   12.0870    2.7140   22.7060 O   0  0  0  0  0  0  0  0  0  0  0  0
   10.3290   -0.1750   23.1660 C   0  0  0  0  0  0  0  0  0  0  0  0
    9.2130   -0.7420   22.4110 N   0  0  0  0  0  0  0  0  0  0  0  0
    8.5370    0.0880   21.5320 C   0  0  0  0  0  0  0  0  0  0  0  0
    8.9230    1.2200   21.2070 O   0  0  0  0  0  0  0  0  0  0  0  0
    7.3670   -0.4810   21.0670 N   0  0  0  0  0  0  0  0  0  0  0  0
    6.5960    0.0960   20.0490 C   0  0  0  0  0  0  0  0  0  0  0  0
    5.4310    0.8020   20.3820 C   0  0  0  0  0  0  0  0  0  0  0  0
    4.7040    1.3760   19.3530 C   0  0  0  0  0  0  0  0  0  0  0  0
    5.1300    1.2450   18.0590 C   0  0  0  0  0  0  0  0  0  0  0  0
    6.2270    0.5740   17.7050 N   0  0  0  0  0  0  0  0  0  0  0  0
    6.9340    0.0140   18.7110 C   0  0  0  0  0  0  0  0  0  0  0  0
  1  2  1  0
  3  2  1  0
  3  4  1  0
  4  5  1  0
  3  6  1  0
  6  7  1  0
  7  8  1  0
  3  9  1  0
  9 10  1  0
 10 11  1  0
 11 12  2  0
 11 13  1  0
 13 14  1  0
 14 15  2  0
 15 16  1  0
 16 17  2  0
 17 18  1  0
 14 19  1  0
 18 19  2  0
M  END
