pyridine_urea_14260
     RDKit          3D

 22 23  0  0  0  0  0  0  0  0999 V2000
   12.6100    0.8850   23.2400 C   0  0  0  0  0  0  0  0  0  0  0  0
   12.2080   -0.2300   24.1570 C   0  0  0  0  0  0  0  0  0  0  0  0
   11.2920   -1.0800   23.5880 C   0  0  1  0  0  0  0  0  0  0  0  0
    9.9450   -0.6620   23.4530 C   0  0  0  0  0  0  0  0  0  0  0  0
    9.0290   -1.2330   22.6440 N   0  0  0  0  0  0  0  0  0  0  0  0
    8.4820   -0.3010   21.7470 C   0  0  0  0  0  0  0  0  0  0  0  0
    8.9870    0.7810   21.4830 O   0  0  0  0  0  0  0  0  0  0  0  0
    7.3080   -0.7810   21.2270 N   0  0  0  0  0  0  0  0  0  0  0  0
    6.6610   -0.1330   20.1900 C   0  0  0  0  0  0  0  0  0  0  0  0
    5.4930    0.7420   20.5720 C   0  0  0  0  0  0  0  0  0  0  0  0
    4.7910    1.4400   19.4380 C   0  0  0  0  0  0  0  0  0  0  0  0
    5.2460    1.2420   18.1580 C   0  0  0  0  0  0  0  0  0  0  0  0
    6.2600    0.4890   17.7480 N   0  0  0  0  0  0  0  0  0  0  0  0
    6.9370   -0.1850   18.8180 C   0  0  0  0  0  0  0  0  0  0  0  0
   11.5060   -1.0970   22.4750 O   0  0  0  0  0  0  0  0  0  0  0  0
   12.1330   -2.1840   21.8660 C   0  0  0  0  0  0  0  0  0  0  0  0
   11.2970   -2.5420   20.9960 C   0  0  0  0  0  0  0  0  0  0  0  0
   11.6000   -3.5230   20.1260 C   0  0  0  0  0  0  0  0  0  0  0  0
   12.7190   -4.1760   20.0830 C   0  0  0  0  0  0  0  0  0  0  0  0
   13.6230   -3.9110   20.9860 C   0  0  0  0  0  0  0  0  0  0  0  0
   14.9690   -4.9870   20.6830 Cl  0  0  0  0  0  0  0  0  0  0  0  0
   13.3230   -2.8600   21.9680 C   0  0  0  0  0  0  0  0  0  0  0  0
  1  2  1  0
  3  2  1  1
  3  4  1  0
  4  5  1  0
  5  6  1  0
  6  7  2  0
  6  8  1  0
  8  9  1  0
  9 10  2  0
 10 11  1  0
 11 12  2  0
 12 13  1  0
  9 14  1  0
 13 14  2  0
  3 15  1  0
 15 16  1  0
 16 17  2  0
 17 18  1  0
 18 19  2  0
 19 20  1  0
 20 21  1  0
 16 22  1  0
 20 22  2  0
M  END
