pyridine_urea_13866
     RDKit          3D

 24 26  0  0  0  0  0  0  0  0999 V2000
    5.4090   -0.8450   28.9030 C   0  0  0  0  0  0  0  0  0  0  0  0
    6.5480   -0.5290   28.6870 C   0  0  0  0  0  0  0  0  0  0  0  0
    7.9580   -0.0110   29.0220 C   0  0  0  0  0  0  0  0  0  0  0  0
    9.0630    0.1280   28.0420 C   0  0  0  0  0  0  0  0  0  0  0  0
    8.9210   -0.2040   26.7190 C   0  0  0  0  0  0  0  0  0  0  0  0
    9.9860   -0.1320   25.5980 C   0  0  0  0  0  0  0  0  0  0  0  0
    9.7910    0.4520   24.3650 N   0  0  0  0  0  0  0  0  0  0  0  0
   11.0280    0.2720   23.8410 C   0  0  0  0  0  0  0  0  0  0  0  0
   11.3690    0.6690   22.6880 C   0  0  0  0  0  0  0  0  0  0  0  0
   10.4680   -0.4260   22.1980 C   0  0  0  0  0  0  0  0  0  0  0  0
    9.3950   -0.9880   21.5750 N   0  0  0  0  0  0  0  0  0  0  0  0
    8.2650   -0.1150   21.2620 C   0  0  0  0  0  0  0  0  0  0  0  0
    8.4040    1.0950   21.1890 O   0  0  0  0  0  0  0  0  0  0  0  0
    7.0840   -0.7040   21.0190 N   0  0  0  0  0  0  0  0  0  0  0  0
    6.4590   -0.0790   20.0040 C   0  0  0  0  0  0  0  0  0  0  0  0
    5.2980    0.6400   20.2690 C   0  0  0  0  0  0  0  0  0  0  0  0
    4.3710    1.4670   19.3420 C   0  0  0  0  0  0  0  0  0  0  0  0
    5.1530    1.2350   18.0520 C   0  0  0  0  0  0  0  0  0  0  0  0
    6.2590    0.5610   17.7250 N   0  0  0  0  0  0  0  0  0  0  0  0
    6.9150   -0.1110   18.7470 C   0  0  0  0  0  0  0  0  0  0  0  0
   12.0920   -0.4730   24.7180 C   0  0  0  0  0  0  0  0  0  0  0  0
   11.2110   -0.6510   25.8090 O   0  0  0  0  0  0  0  0  0  0  0  0
    7.6500   -0.6680   26.3890 C   0  0  0  0  0  0  0  0  0  0  0  0
    6.5990   -0.8050   27.3010 C   0  0  0  0  0  0  0  0  0  0  0  0
  1  2  1  0
  2  3  2  0
  3  4  1  0
  4  5  2  0
  5  6  1  0
  6  7  2  0
  7  8  1  0
  8  9  1  0
  9 10  1  0
 10 11  1  0
 11 12  1  0
 12 13  2  0
 12 14  1  0
 14 15  1  0
 15 16  2  0
 16 17  1  0
 17 18  2  0
 18 19  1  0
 15 20  1  0
 19 20  2  0
  8 21  2  0
  6 22  1  0
 21 22  1  0
  5 23  1  0
  2 24  1  0
 23 24  2  0
M  END
