pyridine_urea_9594
     RDKit          3D

 22 24  0  0  0  0  0  0  0  0999 V2000
   14.9490   -2.2420   26.5990 N   0  0  0  0  0  0  0  0  0  0  0  0
   14.1840   -2.9260   25.8170 C   0  0  0  0  0  0  0  0  0  0  0  0
   14.1400   -4.3010   26.0210 O   0  0  0  0  0  0  0  0  0  0  0  0
   13.3500   -2.2860   24.7750 C   0  0  0  0  0  0  0  0  0  0  0  0
   12.3750   -1.6060   25.3300 N   0  0  0  0  0  0  0  0  0  0  0  0
   11.6540   -1.1900   24.4270 C   0  0  0  0  0  0  0  0  0  0  0  0
   10.3900   -0.4300   24.4110 C   0  0  0  0  0  0  0  0  0  0  0  0
    9.9070   -0.2610   23.0070 C   0  0  0  0  0  0  0  0  0  0  0  0
    8.7390    0.3640   22.8250 N   0  0  0  0  0  0  0  0  0  0  0  0
    8.3180    0.7200   21.5670 C   0  0  0  0  0  0  0  0  0  0  0  0
    8.8260    1.6720   20.9960 O   0  0  0  0  0  0  0  0  0  0  0  0
    7.3190   -0.0960   21.1030 N   0  0  0  0  0  0  0  0  0  0  0  0
    6.5720    0.3270   20.0240 C   0  0  0  0  0  0  0  0  0  0  0  0
    5.4050    1.0480   20.2720 C   0  0  0  0  0  0  0  0  0  0  0  0
    4.6560    1.5140   19.2010 C   0  0  0  0  0  0  0  0  0  0  0  0
    5.1070    1.2390   17.9360 C   0  0  0  0  0  0  0  0  0  0  0  0
    6.2150    0.5400   17.6770 N   0  0  0  0  0  0  0  0  0  0  0  0
    6.9230    0.0960   18.7210 C   0  0  0  0  0  0  0  0  0  0  0  0
   10.5920   -0.7240   21.9150 C   0  0  0  0  0  0  0  0  0  0  0  0
   11.8810   -1.4510   21.9700 C   0  0  0  0  0  0  0  0  0  0  0  0
   12.3980   -1.6980   23.1890 C   0  0  0  0  0  0  0  0  0  0  0  0
   13.4270   -2.3320   23.4230 O   0  0  0  0  0  0  0  0  0  0  0  0
  1  2  1  0
  2  3  2  0
  2  4  1  0
  4  5  2  0
  5  6  1  0
  6  7  2  0
  7  8  1  0
  8  9  1  0
  9 10  1  0
 10 11  2  0
 10 12  1  0
 12 13  1  0
 13 14  2  0
 14 15  1  0
 15 16  2  0
 16 17  1  0
 13 18  1  0
 17 18  2  0
  8 19  2  0
 19 20  1  0
  6 21  1  0
 20 21  2  0
  4 22  1  0
 21 22  1  0
M  END
