pyridine_urea_2056
     RDKit          3D

 26 27  0  0  0  0  0  0  0  0999 V2000
   13.1590   -1.7350   24.4340 C   0  0  0  0  0  0  0  0  0  0  0  0
   13.1130   -0.8130   23.3360 O   0  0  0  0  0  0  0  0  0  0  0  0
   12.1990    0.2140   23.4730 C   0  0  0  0  0  0  0  0  0  0  0  0
   12.5550    1.3820   23.5700 O   0  0  0  0  0  0  0  0  0  0  0  0
   10.7360   -0.3200   23.5350 C   0  0  2  0  0  0  0  0  0  0  0  0
    9.9060   -0.5130   22.2060 N   0  0  0  0  0  0  0  0  0  0  0  0
    8.9230    0.3130   21.5990 C   0  0  0  0  0  0  0  0  0  0  0  0
    9.1060    1.5120   21.4040 O   0  0  0  0  0  0  0  0  0  0  0  0
    7.7500   -0.3450   21.2030 N   0  0  0  0  0  0  0  0  0  0  0  0
    6.8770    0.1300   20.1800 C   0  0  0  0  0  0  0  0  0  0  0  0
    5.7700    0.9030   20.5320 C   0  0  0  0  0  0  0  0  0  0  0  0
    4.9290    1.3830   19.5330 C   0  0  0  0  0  0  0  0  0  0  0  0
    5.1930    1.0940   18.2070 C   0  0  0  0  0  0  0  0  0  0  0  0
    6.2340    0.3540   17.8260 N   0  0  0  0  0  0  0  0  0  0  0  0
    7.0520   -0.1150   18.8130 C   0  0  0  0  0  0  0  0  0  0  0  0
    9.7410    0.0020   24.7010 C   0  0  0  0  0  0  0  0  0  0  0  0
   10.4400   -0.9590   24.1340 C   0  0  0  0  0  0  0  0  0  0  0  0
   11.3230   -0.5000   23.0460 C   0  0  0  0  0  0  0  0  0  0  0  0
   11.4460    1.0620   22.5500 C   0  0  0  0  0  0  0  0  0  0  0  0
   11.3810    2.4500   22.3000 O   0  0  0  0  0  0  0  0  0  0  0  0
   12.3170    3.4440   22.7720 C   0  0  0  0  0  0  0  0  0  0  0  0
   12.2860    4.5150   21.8720 C   0  0  0  0  0  0  0  0  0  0  0  0
   11.6680    5.6440   22.2550 F   0  0  0  0  0  0  0  0  0  0  0  0
   13.5550    4.9010   21.6070 F   0  0  0  0  0  0  0  0  0  0  0  0
   10.4130    1.8930   23.4900 C   0  0  0  0  0  0  0  0  0  0  0  0
    9.6430    1.4240   24.4640 C   0  0  0  0  0  0  0  0  0  0  0  0
  1  2  1  0
  2  3  1  0
  3  4  2  0
  3  5  1  0
  5  6  1  6
  6  7  1  0
  7  8  2  0
  7  9  1  0
  9 10  1  0
 10 11  2  0
 11 12  1  0
 12 13  2  0
 13 14  1  0
 10 15  1  0
 14 15  2  0
  5 16  1  0
 16 17  2  0
 17 18  1  0
 18 19  2  0
 19 20  1  0
 20 21  1  0
 21 22  1  0
 22 23  1  0
 22 24  1  0
 19 25  1  0
 16 26  1  0
 25 26  2  0
M  END
