pyridine_urea_9181
     RDKit          3D

 18 19  0  0  0  0  0  0  0  0999 V2000
    8.9360    0.6690   21.3910 O   0  0  0  0  0  0  0  0  0  0  0  0
    8.3110   -0.3640   21.6050 C   0  0  0  0  0  0  0  0  0  0  0  0
    8.7110   -1.4240   22.3870 N   0  0  0  0  0  0  0  0  0  0  0  0
    7.8910   -2.1160   23.3140 C   0  0  0  0  0  0  0  0  0  0  0  0
    7.2110   -3.2640   22.8750 C   0  0  0  0  0  0  0  0  0  0  0  0
    7.6070   -4.5300   23.3200 C   0  0  0  0  0  0  0  0  0  0  0  0
    6.9470   -5.6600   22.8850 C   0  0  0  0  0  0  0  0  0  0  0  0
    6.0050   -5.6480   21.8770 C   0  0  0  0  0  0  0  0  0  0  0  0
    5.7650   -4.4030   21.3230 C   0  0  0  0  0  0  0  0  0  0  0  0
    5.1650   -4.4990   20.0310 O   0  0  0  0  0  0  0  0  0  0  0  0
    6.1270   -3.2270   21.9960 N   0  0  0  0  0  0  0  0  0  0  0  0
    7.0640   -0.5980   21.0810 N   0  0  0  0  0  0  0  0  0  0  0  0
    6.4730    0.0390   20.0430 C   0  0  0  0  0  0  0  0  0  0  0  0
    5.3200    0.7740   20.2840 C   0  0  0  0  0  0  0  0  0  0  0  0
    4.6920    1.4420   19.2310 C   0  0  0  0  0  0  0  0  0  0  0  0
    5.2380    1.3570   17.9660 C   0  0  0  0  0  0  0  0  0  0  0  0
    6.3490    0.6490   17.7140 N   0  0  0  0  0  0  0  0  0  0  0  0
    6.9410    0.0070   18.7430 C   0  0  0  0  0  0  0  0  0  0  0  0
  1  2  2  0
  2  3  1  0
  3  4  1  0
  4  5  1  0
  5  6  2  0
  6  7  1  0
  7  8  2  0
  8  9  1  0
  9 10  2  0
  5 11  1  0
  9 11  1  0
  2 12  1  0
 12 13  1  0
 13 14  2  0
 14 15  1  0
 15 16  2  0
 16 17  1  0
 13 18  1  0
 17 18  2  0
M  END
