pyridine_urea_11043
     RDKit          3D

 19 20  0  0  0  0  0  0  0  0999 V2000
   12.0240    0.9560   22.6710 C   0  0  0  0  0  0  0  0  0  0  0  0
   10.8630    0.0800   23.0620 C   0  0  0  0  0  0  0  0  0  0  0  0
    9.6710    0.7380   23.3620 C   0  0  0  0  0  0  0  0  0  0  0  0
   10.2750   -0.8300   21.9770 C   0  0  0  0  0  0  0  0  0  0  0  0
    8.9790   -1.0460   22.1630 N   0  0  0  0  0  0  0  0  0  0  0  0
    8.3700    0.0100   21.4970 C   0  0  0  0  0  0  0  0  0  0  0  0
    8.9540    1.0570   21.1690 O   0  0  0  0  0  0  0  0  0  0  0  0
    7.0750   -0.2520   21.2480 N   0  0  0  0  0  0  0  0  0  0  0  0
    6.9040   -0.4260   19.9330 C   0  0  0  0  0  0  0  0  0  0  0  0
    6.0690    0.8130   20.3380 C   0  0  0  0  0  0  0  0  0  0  0  0
    5.2380    1.6570   19.4180 C   0  0  0  0  0  0  0  0  0  0  0  0
    5.2000    1.3410   18.1330 C   0  0  0  0  0  0  0  0  0  0  0  0
    5.8290    0.3420   17.6140 N   0  0  0  0  0  0  0  0  0  0  0  0
    6.5880   -0.4180   18.5580 C   0  0  0  0  0  0  0  0  0  0  0  0
   11.3520   -0.8980   23.9040 N   0  0  0  0  0  0  0  0  0  0  0  0
   12.8140   -1.1180   23.7660 C   0  0  0  0  0  0  0  0  0  0  0  0
   12.9050   -2.4750   23.9400 C   0  0  0  0  0  0  0  0  0  0  0  0
   11.7100   -2.8220   24.4870 C   0  0  0  0  0  0  0  0  0  0  0  0
   10.6970   -2.0860   23.9020 C   0  0  0  0  0  0  0  0  0  0  0  0
  2  1  1  0
  2  3  1  0
  2  4  1  0
  4  5  1  0
  5  6  1  0
  6  7  2  0
  6  8  1  0
  8  9  1  0
  9 10  2  0
 10 11  1  0
 11 12  2  0
 12 13  1  0
  9 14  1  0
 13 14  2  0
  2 15  1  0
 15 16  1  0
 16 17  1  0
 17 18  1  0
 15 19  1  0
 18 19  1  0
M  END
