pyridine_urea_6465
     RDKit          3D

 23 24  0  0  0  0  0  0  0  0999 V2000
    8.8340    1.2830   21.1480 O   0  0  0  0  0  0  0  0  0  0  0  0
    8.3680    0.2030   21.5410 C   0  0  0  0  0  0  0  0  0  0  0  0
    8.9050   -0.5250   22.5830 N   0  0  0  0  0  0  0  0  0  0  0  0
   10.1850   -1.2170   22.3810 C   0  0  0  0  0  0  0  0  0  0  0  0
   11.0820   -1.4150   23.6520 C   0  0  0  0  0  0  0  0  0  0  0  0
   11.2240   -1.7810   25.0630 C   0  0  0  0  0  0  0  0  0  0  0  0
   12.1020   -1.4040   24.2180 C   0  0  0  0  0  0  0  0  0  0  0  0
   11.5390   -1.1190   22.8310 C   0  0  0  0  0  0  0  0  0  0  0  0
   12.5160   -0.7580   22.0730 O   0  0  0  0  0  0  0  0  0  0  0  0
   13.2880   -1.9200   22.1360 C   0  0  0  0  0  0  0  0  0  0  0  0
   13.3720   -2.1850   20.9000 C   0  0  0  0  0  0  0  0  0  0  0  0
   12.0950   -2.2570   20.5780 F   0  0  0  0  0  0  0  0  0  0  0  0
   13.8880   -3.3460   20.4820 F   0  0  0  0  0  0  0  0  0  0  0  0
   13.9700   -1.1670   20.2390 F   0  0  0  0  0  0  0  0  0  0  0  0
   10.0740   -1.3670   22.8380 N   0  0  0  0  0  0  0  0  0  0  0  0
    9.7630   -1.7810   24.1550 C   0  0  0  0  0  0  0  0  0  0  0  0
    7.2410   -0.4090   21.0130 N   0  0  0  0  0  0  0  0  0  0  0  0
    6.4670    0.1950   20.0920 C   0  0  0  0  0  0  0  0  0  0  0  0
    5.2990    0.9030   20.3900 C   0  0  0  0  0  0  0  0  0  0  0  0
    4.6180    1.4850   19.3350 C   0  0  0  0  0  0  0  0  0  0  0  0
    5.1860    1.3090   17.9600 C   0  0  0  0  0  0  0  0  0  0  0  0
    6.2910    0.6290   17.6550 N   0  0  0  0  0  0  0  0  0  0  0  0
    6.9250    0.0790   18.7020 C   0  0  0  0  0  0  0  0  0  0  0  0
  1  2  2  0
  2  3  1  0
  3  4  1  0
  4  5  1  0
  5  6  2  0
  6  7  1  0
  7  8  2  0
  8  9  1  0
  9 10  1  0
 10 11  1  0
 11 12  1  0
 11 13  1  0
 11 14  1  0
  8 15  1  0
  5 16  1  0
 15 16  2  0
  2 17  1  0
 17 18  1  0
 18 19  2  0
 19 20  1  0
 20 21  2  0
 21 22  1  0
 18 23  1  0
 22 23  2  0
M  END
