pyridine_urea_14435
     RDKit          3D

 21 22  0  0  0  0  0  0  0  0999 V2000
    8.3780   -2.4670   24.1110 C   0  0  0  0  0  0  0  0  0  0  0  0
    8.5290   -1.0740   24.6680 C   0  0  0  0  0  0  0  0  0  0  0  0
    9.7430   -0.3610   24.6890 C   0  0  0  0  0  0  0  0  0  0  0  0
   10.6740   -0.8810   23.7770 C   0  0  1  0  0  0  0  0  0  0  0  0
   10.0840   -1.2250   22.5660 C   0  0  0  0  0  0  0  0  0  0  0  0
    8.7120   -0.9690   22.3720 N   0  0  0  0  0  0  0  0  0  0  0  0
    8.3120   -0.0470   21.4430 C   0  0  0  0  0  0  0  0  0  0  0  0
    8.8800    1.0290   21.1970 O   0  0  0  0  0  0  0  0  0  0  0  0
    7.1700   -0.5410   20.8790 N   0  0  0  0  0  0  0  0  0  0  0  0
    6.4200    0.1360   19.9420 C   0  0  0  0  0  0  0  0  0  0  0  0
    5.1320    0.8980   20.1760 C   0  0  0  0  0  0  0  0  0  0  0  0
    4.5350    1.5280   19.1100 C   0  0  0  0  0  0  0  0  0  0  0  0
    5.1420    1.4350   17.8530 C   0  0  0  0  0  0  0  0  0  0  0  0
    6.2840    0.7530   17.6200 N   0  0  0  0  0  0  0  0  0  0  0  0
    6.8640    0.1410   18.6540 C   0  0  0  0  0  0  0  0  0  0  0  0
   11.8530    0.0880   23.4130 C   0  0  0  0  0  0  0  0  0  0  0  0
   11.4600    1.2670   23.8100 C   0  0  0  0  0  0  0  0  0  0  0  0
   12.1480    0.2240   23.3010 C   0  0  0  0  0  0  0  0  0  0  0  0
   13.1760    0.2150   22.8200 C   0  0  0  0  0  0  0  0  0  0  0  0
   13.1700   -1.2770   22.5390 C   0  0  0  0  0  0  0  0  0  0  0  0
   13.3050   -0.0490   22.7110 C   0  0  0  0  0  0  0  0  0  0  0  0
  1  2  2  3
  2  3  1  0
  4  3  1  1
  4  5  1  0
  5  6  1  0
  6  7  1  0
  7  8  2  0
  7  9  1  0
  9 10  1  0
 10 11  2  0
 11 12  1  0
 12 13  2  0
 13 14  1  0
 10 15  1  0
 14 15  2  0
  4 16  1  0
 16 17  2  0
 17 18  1  0
 18 19  2  0
 19 20  1  0
 16 21  1  0
 20 21  2  0
M  END
