pyridine_urea_11295
     RDKit          3D

 15 15  0  0  0  0  0  0  0  0999 V2000
   10.7500   -2.3320   22.3110 C   0  0  0  0  0  0  0  0  0  0  0  0
   11.6330   -1.5430   22.1880 C   0  0  0  0  0  0  0  0  0  0  0  0
   12.9450   -0.7770   22.4270 C   0  0  0  0  0  0  0  0  0  0  0  0
   10.6950   -0.3730   22.4310 C   0  0  2  0  0  0  0  0  0  0  0  0
   10.4730   -0.3550   23.7410 C   0  0  0  0  0  0  0  0  0  0  0  0
    9.5350   -0.8920   21.7200 N   0  0  0  0  0  0  0  0  0  0  0  0
    8.5820    0.0040   21.2800 C   0  0  0  0  0  0  0  0  0  0  0  0
    8.8460    1.2100   21.1570 O   0  0  0  0  0  0  0  0  0  0  0  0
    7.3630   -0.5630   20.9840 N   0  0  0  0  0  0  0  0  0  0  0  0
    6.4700    0.0860   20.1170 C   0  0  0  0  0  0  0  0  0  0  0  0
    5.3240    0.7050   20.5300 C   0  0  0  0  0  0  0  0  0  0  0  0
    4.6730    1.3010   19.2970 C   0  0  0  0  0  0  0  0  0  0  0  0
    5.1650    1.2140   18.0220 C   0  0  0  0  0  0  0  0  0  0  0  0
    6.2720    0.5930   17.6890 N   0  0  0  0  0  0  0  0  0  0  0  0
    6.8440    0.0730   18.7740 C   0  0  0  0  0  0  0  0  0  0  0  0
  1  2  1  0
  2  3  1  0
  2  4  1  0
  4  5  1  1
  4  6  1  0
  6  7  1  0
  7  8  2  0
  7  9  1  0
  9 10  1  0
 10 11  2  0
 11 12  1  0
 12 13  2  0
 13 14  1  0
 10 15  1  0
 14 15  2  0
M  END
