pyridine_urea_12995
     RDKit          3D

 19 20  0  0  0  0  0  0  0  0999 V2000
   14.2610   -3.1180   23.6590 N   0  0  0  0  0  0  0  0  0  0  0  0
   13.5260   -2.2760   23.5480 C   0  0  0  0  0  0  0  0  0  0  0  0
   12.4900   -1.1840   23.5330 C   0  0  0  0  0  0  0  0  0  0  0  0
   12.8700    0.2000   23.4070 C   0  0  0  0  0  0  0  0  0  0  0  0
   11.8440    1.0980   23.4450 C   0  0  0  0  0  0  0  0  0  0  0  0
   10.4120    0.9830   23.5820 C   0  0  0  0  0  0  0  0  0  0  0  0
    9.0750    0.7300   23.7180 C   0  0  0  0  0  0  0  0  0  0  0  0
    8.5190   -0.1410   22.8190 N   0  0  0  0  0  0  0  0  0  0  0  0
    8.1720    0.2260   21.5260 C   0  0  0  0  0  0  0  0  0  0  0  0
    8.7190    1.2070   21.0090 O   0  0  0  0  0  0  0  0  0  0  0  0
    7.2140   -0.5370   20.9730 N   0  0  0  0  0  0  0  0  0  0  0  0
    6.5390    0.0660   19.9810 C   0  0  0  0  0  0  0  0  0  0  0  0
    5.3910    0.7820   20.2730 C   0  0  0  0  0  0  0  0  0  0  0  0
    4.6720    1.4340   19.2790 C   0  0  0  0  0  0  0  0  0  0  0  0
    5.1540    1.3360   17.9760 C   0  0  0  0  0  0  0  0  0  0  0  0
    6.2590    0.6410   17.6620 N   0  0  0  0  0  0  0  0  0  0  0  0
    6.9260    0.0240   18.6600 C   0  0  0  0  0  0  0  0  0  0  0  0
   10.1890   -0.4480   23.6820 C   0  0  0  0  0  0  0  0  0  0  0  0
   11.2180   -1.3930   23.6490 C   0  0  0  0  0  0  0  0  0  0  0  0
  1  2  3  0
  2  3  1  0
  3  4  2  0
  4  5  1  0
  5  6  2  0
  6  7  1  0
  7  8  1  0
  8  9  1  0
  9 10  2  0
  9 11  1  0
 11 12  1  0
 12 13  2  0
 13 14  1  0
 14 15  2  0
 15 16  1  0
 12 17  1  0
 16 17  2  0
  6 18  1  0
  3 19  1  0
 18 19  2  0
M  END
