pyridine_urea_4318
     RDKit          3D

 24 26  0  0  0  0  0  0  0  0999 V2000
   13.0810    4.0180   22.8380 C   0  0  0  0  0  0  0  0  0  0  0  0
   12.0620    2.8730   22.7480 C   0  0  0  0  0  0  0  0  0  0  0  0
   10.6940    3.4340   22.7240 C   0  0  0  0  0  0  0  0  0  0  0  0
    9.6620    2.4200   22.6150 C   0  0  0  0  0  0  0  0  0  0  0  0
   10.1030    0.9670   22.5240 C   0  0  0  0  0  0  0  0  0  0  0  0
   11.5080    0.3000   22.5370 C   0  0  0  0  0  0  0  0  0  0  0  0
   10.3400   -0.6940   22.3780 C   0  0  2  0  0  0  0  0  0  0  0  0
    8.9600   -0.2620   22.6250 N   0  0  0  0  0  0  0  0  0  0  0  0
    8.3050    0.2900   21.5280 C   0  0  0  0  0  0  0  0  0  0  0  0
    8.6660    1.3600   21.0240 O   0  0  0  0  0  0  0  0  0  0  0  0
    7.2410   -0.4410   21.0670 N   0  0  0  0  0  0  0  0  0  0  0  0
    6.4500    0.1360   20.0760 C   0  0  0  0  0  0  0  0  0  0  0  0
    5.2510    0.7950   20.2910 C   0  0  0  0  0  0  0  0  0  0  0  0
    4.5790    1.3530   19.2110 C   0  0  0  0  0  0  0  0  0  0  0  0
    5.1360    1.2300   17.9480 C   0  0  0  0  0  0  0  0  0  0  0  0
    6.2860    0.5900   17.7100 N   0  0  0  0  0  0  0  0  0  0  0  0
    6.9090    0.0600   18.7740 C   0  0  0  0  0  0  0  0  0  0  0  0
   11.0200   -1.5530   23.3940 C   0  0  0  0  0  0  0  0  0  0  0  0
   12.2010   -1.5490   24.1080 C   0  0  0  0  0  0  0  0  0  0  0  0
   12.7260   -0.4630   23.6910 C   0  0  0  0  0  0  0  0  0  0  0  0
   13.0520   -1.5260   24.5710 C   0  0  0  0  0  0  0  0  0  0  0  0
   12.0150   -2.6220   24.6730 C   0  0  0  0  0  0  0  0  0  0  0  0
   10.7630   -2.6440   23.9620 N   0  0  0  0  0  0  0  0  0  0  0  0
   12.3550    1.4710   22.6800 C   0  0  0  0  0  0  0  0  0  0  0  0
  1  2  1  0
  2  3  2  0
  3  4  1  0
  4  5  2  0
  5  6  1  0
  6  7  1  0
  7  8  1  1
  8  9  1  0
  9 10  2  0
  9 11  1  0
 11 12  1  0
 12 13  2  0
 13 14  1  0
 14 15  2  0
 15 16  1  0
 12 17  1  0
 16 17  2  0
  7 18  1  0
 18 19  2  0
 19 20  1  0
 20 21  2  0
 21 22  1  0
 18 23  1  0
 22 23  2  0
  2 24  1  0
  6 24  2  0
M  END
