pyridine_urea_8723
     RDKit          3D

 21 22  0  0  0  0  0  0  0  0999 V2000
    6.6700    0.4310   25.4060 C   0  0  0  0  0  0  0  0  0  0  0  0
    8.0340    0.8010   25.8980 C   0  0  0  0  0  0  0  0  0  0  0  0
    9.1450    0.3200   25.2050 C   0  0  0  0  0  0  0  0  0  0  0  0
    9.4820    1.0830   24.2710 O   0  0  0  0  0  0  0  0  0  0  0  0
   10.5330    0.4490   23.6500 C   0  0  0  0  0  0  0  0  0  0  0  0
   11.8400    0.7820   23.9000 C   0  0  0  0  0  0  0  0  0  0  0  0
   12.9590    0.0480   23.1920 C   0  0  0  0  0  0  0  0  0  0  0  0
   12.6190   -0.9530   22.3100 C   0  0  0  0  0  0  0  0  0  0  0  0
   13.6160   -1.6040   21.6860 F   0  0  0  0  0  0  0  0  0  0  0  0
   11.1700   -1.2980   22.0480 C   0  0  0  0  0  0  0  0  0  0  0  0
   10.2270   -0.5630   22.7330 C   0  0  0  0  0  0  0  0  0  0  0  0
    8.8660   -0.8830   22.4240 N   0  0  0  0  0  0  0  0  0  0  0  0
    8.2390   -0.0730   21.5140 C   0  0  0  0  0  0  0  0  0  0  0  0
    8.7560    1.1610   21.1260 O   0  0  0  0  0  0  0  0  0  0  0  0
    7.0640   -0.5950   21.0320 N   0  0  0  0  0  0  0  0  0  0  0  0
    6.4060    0.0440   19.9910 C   0  0  0  0  0  0  0  0  0  0  0  0
    5.2220    0.7440   20.2510 C   0  0  0  0  0  0  0  0  0  0  0  0
    4.5790    1.4030   19.2010 C   0  0  0  0  0  0  0  0  0  0  0  0
    5.1510    1.3290   17.9440 C   0  0  0  0  0  0  0  0  0  0  0  0
    6.2810    0.6540   17.6770 N   0  0  0  0  0  0  0  0  0  0  0  0
    6.8850    0.0250   18.7010 C   0  0  0  0  0  0  0  0  0  0  0  0
  1  2  1  0
  2  3  1  0
  3  4  1  0
  4  5  1  0
  5  6  2  0
  6  7  1  0
  7  8  2  0
  8  9  1  0
  8 10  1  0
  5 11  1  0
 10 11  2  0
 11 12  1  0
 12 13  1  0
 13 14  2  0
 13 15  1  0
 15 16  1  0
 16 17  2  0
 17 18  1  0
 18 19  2  0
 19 20  1  0
 16 21  1  0
 20 21  2  0
M  END
