pyridine_urea_15238
     RDKit          3D

 16 17  0  0  0  0  0  0  0  0999 V2000
    8.8000    0.8320   21.2620 O   0  0  0  0  0  0  0  0  0  0  0  0
    8.4450   -0.3170   21.4870 C   0  0  0  0  0  0  0  0  0  0  0  0
    7.2100   -0.8120   21.1130 N   0  0  0  0  0  0  0  0  0  0  0  0
    6.5210   -0.0920   20.0700 C   0  0  0  0  0  0  0  0  0  0  0  0
    5.2490    0.6690   20.4430 C   0  0  0  0  0  0  0  0  0  0  0  0
    4.5330    1.4400   19.3320 C   0  0  0  0  0  0  0  0  0  0  0  0
    5.1840    1.3590   17.9500 C   0  0  0  0  0  0  0  0  0  0  0  0
    6.3510    0.6110   17.7750 N   0  0  0  0  0  0  0  0  0  0  0  0
    6.9800   -0.0770   18.7740 C   0  0  0  0  0  0  0  0  0  0  0  0
    9.2270   -1.2520   22.1430 N   0  0  0  0  0  0  0  0  0  0  0  0
   10.4590   -0.8640   22.7140 C   0  0  0  0  0  0  0  0  0  0  0  0
   11.7860   -1.0270   22.4140 C   0  0  0  0  0  0  0  0  0  0  0  0
   12.6670   -0.4800   23.2430 N   0  0  0  0  0  0  0  0  0  0  0  0
   11.8440    0.1210   24.2180 N   0  0  0  0  0  0  0  0  0  0  0  0
   10.5020   -0.0510   23.9970 C   0  0  0  0  0  0  0  0  0  0  0  0
    9.0390    0.5640   25.0290 Br  0  0  0  0  0  0  0  0  0  0  0  0
  1  2  2  0
  2  3  1  0
  3  4  1  0
  4  5  2  0
  5  6  1  0
  6  7  2  0
  7  8  1  0
  4  9  1  0
  8  9  2  0
  2 10  1  0
 10 11  1  0
 11 12  2  0
 12 13  1  0
 13 14  1  0
 11 15  1  0
 14 15  2  0
 15 16  1  0
M  END
