pyridine_urea_4038
     RDKit          3D

 26 28  0  0  0  0  0  0  0  0999 V2000
    8.3310    1.0520   21.0390 O   0  0  0  0  0  0  0  0  0  0  0  0
    7.9740   -0.1100   21.2170 C   0  0  0  0  0  0  0  0  0  0  0  0
    6.7670   -0.6100   20.9060 N   0  0  0  0  0  0  0  0  0  0  0  0
    6.1670    0.0680   19.8780 C   0  0  0  0  0  0  0  0  0  0  0  0
    4.9540    0.7130   20.0690 C   0  0  0  0  0  0  0  0  0  0  0  0
    4.4000    1.4150   19.0090 C   0  0  0  0  0  0  0  0  0  0  0  0
    5.0900    1.4350   17.8110 C   0  0  0  0  0  0  0  0  0  0  0  0
    6.2570    0.8050   17.6200 N   0  0  0  0  0  0  0  0  0  0  0  0
    6.7650    0.1370   18.6550 C   0  0  0  0  0  0  0  0  0  0  0  0
    8.8170   -0.9900   21.7270 N   0  0  0  0  0  0  0  0  0  0  0  0
    9.9850   -0.3090   22.1500 C   0  0  2  0  0  0  0  0  0  0  0  0
   11.3110   -1.0440   21.9120 C   0  0  0  0  0  0  0  0  0  0  0  0
   11.6990   -1.8090   22.9160 C   0  0  0  0  0  0  0  0  0  0  0  0
   11.0180   -2.7740   23.6030 C   0  0  0  0  0  0  0  0  0  0  0  0
   11.6560   -3.4310   24.6160 C   0  0  0  0  0  0  0  0  0  0  0  0
   12.9580   -3.1440   24.9650 C   0  0  0  0  0  0  0  0  0  0  0  0
   13.6250   -3.7730   25.9370 F   0  0  0  0  0  0  0  0  0  0  0  0
   13.6540   -2.2240   24.3520 C   0  0  0  0  0  0  0  0  0  0  0  0
   13.0990   -1.4410   23.2270 C   0  0  0  0  0  0  0  0  0  0  0  0
   10.1370   -0.3570   23.5570 C   0  0  0  0  0  0  0  0  0  0  0  0
    9.5800   -0.4130   24.7470 C   0  0  0  0  0  0  0  0  0  0  0  0
   10.7260   -0.5050   25.6840 C   0  0  0  0  0  0  0  0  0  0  0  0
   12.2230   -0.5030   25.2580 C   0  0  0  0  0  0  0  0  0  0  0  0
   13.2670   -0.6190   26.0150 F   0  0  0  0  0  0  0  0  0  0  0  0
   12.3880   -0.3630   23.9610 C   0  0  0  0  0  0  0  0  0  0  0  0
   11.1800   -0.3800   24.1320 C   0  0  0  0  0  0  0  0  0  0  0  0
  1  2  2  0
  2  3  1  0
  3  4  1  0
  4  5  2  0
  5  6  1  0
  6  7  2  0
  7  8  1  0
  4  9  1  0
  8  9  2  0
  2 10  1  0
 10 11  1  0
 11 12  1  6
 12 13  1  0
 13 14  2  0
 14 15  1  0
 15 16  2  0
 16 17  1  0
 16 18  1  0
 13 19  1  0
 18 19  2  0
 11 20  1  0
 20 21  2  0
 21 22  1  0
 22 23  2  0
 23 24  1  0
 23 25  1  0
 20 26  1  0
 25 26  2  0
M  END
