pyridine_urea_10675
     RDKit          3D

 21 22  0  0  0  0  0  0  0  0999 V2000
   12.7520   -2.2410   21.0400 C   0  0  0  0  0  0  0  0  0  0  0  0
   13.2130   -3.1410   22.0390 O   0  0  0  0  0  0  0  0  0  0  0  0
   13.4880   -2.4620   23.1640 C   0  0  0  0  0  0  0  0  0  0  0  0
   13.6240   -3.0190   24.2530 O   0  0  0  0  0  0  0  0  0  0  0  0
   13.5850   -1.0450   22.9150 N   0  0  0  0  0  0  0  0  0  0  0  0
   12.4430   -0.3830   23.0550 C   0  0  0  0  0  0  0  0  0  0  0  0
   12.3330    1.0110   23.5930 C   0  0  0  0  0  0  0  0  0  0  0  0
   11.0290    1.6690   23.7340 C   0  0  0  0  0  0  0  0  0  0  0  0
    9.8850    1.0390   23.3690 C   0  0  0  0  0  0  0  0  0  0  0  0
    9.9560   -0.2500   22.8500 C   0  0  0  0  0  0  0  0  0  0  0  0
    8.8030   -0.8290   22.4660 N   0  0  0  0  0  0  0  0  0  0  0  0
    8.0830   -0.1800   21.4710 C   0  0  0  0  0  0  0  0  0  0  0  0
    8.4700    0.8950   21.0310 O   0  0  0  0  0  0  0  0  0  0  0  0
    6.9810   -0.8270   21.0890 N   0  0  0  0  0  0  0  0  0  0  0  0
    6.3230   -0.1240   20.1410 C   0  0  0  0  0  0  0  0  0  0  0  0
    5.1250    0.5850   20.2500 C   0  0  0  0  0  0  0  0  0  0  0  0
    4.5420    1.2970   19.1860 C   0  0  0  0  0  0  0  0  0  0  0  0
    5.1930    1.2990   17.9460 C   0  0  0  0  0  0  0  0  0  0  0  0
    6.3380    0.6610   17.7050 N   0  0  0  0  0  0  0  0  0  0  0  0
    6.8880   -0.0200   18.7300 C   0  0  0  0  0  0  0  0  0  0  0  0
   11.1000   -1.0010   22.6660 C   0  0  0  0  0  0  0  0  0  0  0  0
  1  2  1  0
  2  3  1  0
  3  4  2  0
  3  5  1  0
  5  6  1  0
  6  7  2  0
  7  8  1  0
  8  9  2  0
  9 10  1  0
 10 11  1  0
 11 12  1  0
 12 13  2  0
 12 14  1  0
 14 15  1  0
 15 16  2  0
 16 17  1  0
 17 18  2  0
 18 19  1  0
 15 20  1  0
 19 20  2  0
  6 21  1  0
 10 21  2  0
M  END
