pyridine_urea_6118
     RDKit          3D

 25 27  0  0  0  0  0  0  0  0999 V2000
   13.2290   -2.2580   21.0240 C   0  0  0  0  0  0  0  0  0  0  0  0
   13.0250   -1.3300   21.7170 C   0  0  0  0  0  0  0  0  0  0  0  0
   13.3090    0.0400   22.5340 C   0  0  0  0  0  0  0  0  0  0  0  0
   12.0940    0.1600   23.0490 C   0  0  0  0  0  0  0  0  0  0  0  0
   11.3860   -0.7860   22.6670 C   0  0  0  0  0  0  0  0  0  0  0  0
   10.3160   -1.6720   22.4610 C   0  0  0  0  0  0  0  0  0  0  0  0
    9.4550   -0.8630   23.3480 C   0  0  2  0  0  0  0  0  0  0  0  0
    8.2150   -0.4860   22.7620 N   0  0  0  0  0  0  0  0  0  0  0  0
    8.1200    0.0920   21.5380 C   0  0  0  0  0  0  0  0  0  0  0  0
    8.9270    1.2220   21.1740 O   0  0  0  0  0  0  0  0  0  0  0  0
    7.1590   -0.5460   20.8190 N   0  0  0  0  0  0  0  0  0  0  0  0
    6.3940    0.1270   19.8950 C   0  0  0  0  0  0  0  0  0  0  0  0
    5.1960    0.7780   20.1370 C   0  0  0  0  0  0  0  0  0  0  0  0
    4.5370    1.4400   19.1100 C   0  0  0  0  0  0  0  0  0  0  0  0
    5.1340    1.4110   17.8660 C   0  0  0  0  0  0  0  0  0  0  0  0
    6.2880    0.7790   17.6100 N   0  0  0  0  0  0  0  0  0  0  0  0
    6.8840    0.1550   18.6250 C   0  0  0  0  0  0  0  0  0  0  0  0
   10.4740    0.1470   23.7700 C   0  0  0  0  0  0  0  0  0  0  0  0
   11.8540    0.5370   24.3750 C   0  0  0  0  0  0  0  0  0  0  0  0
   12.5910   -0.6040   24.7640 C   0  0  0  0  0  0  0  0  0  0  0  0
   12.3940   -1.9080   24.7330 C   0  0  0  0  0  0  0  0  0  0  0  0
   13.5980   -2.9570   25.3070 Cl  0  0  0  0  0  0  0  0  0  0  0  0
   11.2800   -2.3010   24.2560 C   0  0  0  0  0  0  0  0  0  0  0  0
   10.4480   -1.3170   23.8340 C   0  0  0  0  0  0  0  0  0  0  0  0
   11.6140   -1.9900   21.7670 C   0  0  0  0  0  0  0  0  0  0  0  0
  1  2  1  0
  2  3  2  0
  3  4  1  0
  4  5  2  0
  5  6  1  0
  6  7  1  0
  7  8  1  6
  8  9  1  0
  9 10  2  0
  9 11  1  0
 11 12  1  0
 12 13  2  0
 13 14  1  0
 14 15  2  0
 15 16  1  0
 12 17  1  0
 16 17  2  0
  7 18  1  0
 18 19  2  0
 19 20  1  0
 20 21  2  0
 21 22  1  0
 21 23  1  0
 18 24  1  0
 23 24  2  0
  2 25  1  0
  6 25  2  0
M  END
