pyridine_urea_4097
     RDKit          3D

 25 27  0  0  0  0  0  0  0  0999 V2000
    8.9000    1.3160   21.2600 O   0  0  0  0  0  0  0  0  0  0  0  0
    8.5910    0.1170   21.2860 C   0  0  0  0  0  0  0  0  0  0  0  0
    9.4630   -0.8980   21.5290 N   0  0  0  0  0  0  0  0  0  0  0  0
   10.3870   -0.8320   22.5640 C   0  0  0  0  0  0  0  0  0  0  0  0
   11.6780   -1.3330   22.4180 C   0  0  0  0  0  0  0  0  0  0  0  0
   12.6160   -0.6670   23.1910 C   0  0  0  0  0  0  0  0  0  0  0  0
   12.0900   -0.1670   24.3840 C   0  0  0  0  0  0  0  0  0  0  0  0
   10.7410   -0.5050   24.7260 C   0  0  0  0  0  0  0  0  0  0  0  0
   10.0530   -1.5000   23.9460 N   0  0  0  0  0  0  0  0  0  0  0  0
    8.7810   -1.7540   24.3080 C   0  0  0  0  0  0  0  0  0  0  0  0
    7.7750   -2.7510   23.6710 C   0  0  0  0  0  0  0  0  0  0  0  0
    6.6020   -2.3640   23.0510 C   0  0  0  0  0  0  0  0  0  0  0  0
    5.7740   -3.3550   22.5160 C   0  0  0  0  0  0  0  0  0  0  0  0
    6.1720   -4.6900   22.6350 C   0  0  0  0  0  0  0  0  0  0  0  0
    7.3120   -5.0880   23.2370 N   0  0  0  0  0  0  0  0  0  0  0  0
    8.0910   -4.0980   23.7440 C   0  0  0  0  0  0  0  0  0  0  0  0
    8.3520   -0.9620   25.4440 C   0  0  0  0  0  0  0  0  0  0  0  0
    9.6570    0.0610   25.9620 S   0  0  0  0  0  0  0  0  0  0  0  0
    7.3390   -0.3470   21.0170 N   0  0  0  0  0  0  0  0  0  0  0  0
    6.6030    0.1550   20.0320 C   0  0  0  0  0  0  0  0  0  0  0  0
    5.3290    0.9310   20.3210 C   0  0  0  0  0  0  0  0  0  0  0  0
    4.6150    1.4690   19.2640 C   0  0  0  0  0  0  0  0  0  0  0  0
    5.0580    1.3030   17.9570 C   0  0  0  0  0  0  0  0  0  0  0  0
    6.1660    0.6180   17.6290 N   0  0  0  0  0  0  0  0  0  0  0  0
    6.9450    0.0330   18.7140 C   0  0  0  0  0  0  0  0  0  0  0  0
  1  2  2  0
  2  3  1  0
  3  4  1  0
  4  5  1  0
  5  6  1  0
  6  7  1  0
  7  8  1  0
  8  9  2  0
  9 10  1  0
 10 11  1  0
 11 12  2  0
 12 13  1  0
 13 14  2  0
 14 15  1  0
 11 16  1  0
 15 16  2  0
 10 17  2  0
  8 18  1  0
 17 18  1  0
  2 19  1  0
 19 20  1  0
 20 21  2  0
 21 22  1  0
 22 23  2  0
 23 24  1  0
 20 25  1  0
 24 25  2  0
M  END
