pyridine_urea_6671
     RDKit          3D

 22 23  0  0  0  0  0  0  0  0999 V2000
    8.9670    1.1200   21.2060 O   0  0  0  0  0  0  0  0  0  0  0  0
    8.5400   -0.0160   21.4530 C   0  0  0  0  0  0  0  0  0  0  0  0
    9.1740   -0.9570   22.2390 N   0  0  0  0  0  0  0  0  0  0  0  0
   10.2700   -0.7270   23.1000 C   0  0  0  0  0  0  0  0  0  0  0  0
   11.7090   -1.1560   22.7350 C   0  0  1  0  0  0  0  0  0  0  0  0
   11.6520   -1.6890   21.6360 O   0  0  0  0  0  0  0  0  0  0  0  0
   12.6570    0.0200   23.0180 C   0  0  0  0  0  0  0  0  0  0  0  0
   12.1430    0.7210   23.8800 O   0  0  0  0  0  0  0  0  0  0  0  0
   11.7920    1.9850   23.4810 C   0  0  0  0  0  0  0  0  0  0  0  0
   10.5210    2.5290   23.6870 C   0  0  0  0  0  0  0  0  0  0  0  0
   10.1800    3.8310   23.2800 C   0  0  0  0  0  0  0  0  0  0  0  0
   11.1120    4.6550   22.6390 C   0  0  0  0  0  0  0  0  0  0  0  0
   12.3860    4.2100   22.3930 C   0  0  0  0  0  0  0  0  0  0  0  0
   13.1810    5.1240   21.7630 F   0  0  0  0  0  0  0  0  0  0  0  0
   12.7730    2.9480   22.7710 C   0  0  0  0  0  0  0  0  0  0  0  0
    7.3430   -0.5310   20.9980 N   0  0  0  0  0  0  0  0  0  0  0  0
    6.5060    0.1180   20.0770 C   0  0  0  0  0  0  0  0  0  0  0  0
    5.2970    0.7900   20.4420 C   0  0  0  0  0  0  0  0  0  0  0  0
    4.6380    1.4070   19.2040 C   0  0  0  0  0  0  0  0  0  0  0  0
    5.1860    1.2910   17.9560 C   0  0  0  0  0  0  0  0  0  0  0  0
    6.3150    0.6360   17.7130 N   0  0  0  0  0  0  0  0  0  0  0  0
    6.9300    0.0770   18.7610 C   0  0  0  0  0  0  0  0  0  0  0  0
  1  2  2  0
  2  3  1  0
  3  4  1  0
  4  5  1  0
  5  6  1  6
  5  7  1  0
  7  8  1  0
  8  9  1  0
  9 10  2  0
 10 11  1  0
 11 12  2  0
 12 13  1  0
 13 14  1  0
  9 15  1  0
 13 15  2  0
  2 16  1  0
 16 17  1  0
 17 18  2  0
 18 19  1  0
 19 20  2  0
 20 21  1  0
 17 22  1  0
 21 22  2  0
M  END
