pyridine_urea_2030
     RDKit          3D

 25 26  0  0  0  0  0  0  0  0999 V2000
   12.8740   -2.6600   24.6950 C   0  0  0  0  0  0  0  0  0  0  0  0
   12.9870   -1.1500   25.0450 C   0  0  0  0  0  0  0  0  0  0  0  0
   11.7380   -0.4240   25.1560 O   0  0  0  0  0  0  0  0  0  0  0  0
   11.5260    0.6270   24.2570 C   0  0  0  0  0  0  0  0  0  0  0  0
   12.3920    1.3990   23.8400 O   0  0  0  0  0  0  0  0  0  0  0  0
   10.0660    0.6790   23.8510 C   0  0  0  0  0  0  0  0  0  0  0  0
    9.6440   -0.6530   23.3810 C   0  0  1  0  0  0  0  0  0  0  0  0
    8.8110   -0.9980   22.2540 N   0  0  0  0  0  0  0  0  0  0  0  0
    8.2410   -0.0500   21.4420 C   0  0  0  0  0  0  0  0  0  0  0  0
    8.8670    1.2350   21.0940 O   0  0  0  0  0  0  0  0  0  0  0  0
    6.9470   -0.5330   21.0140 N   0  0  0  0  0  0  0  0  0  0  0  0
    6.3570    0.0890   19.9660 C   0  0  0  0  0  0  0  0  0  0  0  0
    5.2000    0.8380   20.2130 C   0  0  0  0  0  0  0  0  0  0  0  0
    4.6060    1.4850   19.1400 C   0  0  0  0  0  0  0  0  0  0  0  0
    5.1680    1.3700   17.8870 C   0  0  0  0  0  0  0  0  0  0  0  0
    6.2680    0.6510   17.6410 N   0  0  0  0  0  0  0  0  0  0  0  0
    6.8430    0.0230   18.6810 C   0  0  0  0  0  0  0  0  0  0  0  0
   10.6970   -1.5990   23.1920 C   0  0  0  0  0  0  0  0  0  0  0  0
   10.7340   -1.9770   21.7300 C   0  0  0  0  0  0  0  0  0  0  0  0
   11.9760   -2.3810   21.3510 C   0  0  0  0  0  0  0  0  0  0  0  0
   13.0010   -1.5450   21.6590 C   0  0  0  0  0  0  0  0  0  0  0  0
   13.7880   -1.2740   20.6200 F   0  0  0  0  0  0  0  0  0  0  0  0
   13.6840   -2.3610   22.4740 F   0  0  0  0  0  0  0  0  0  0  0  0
   12.7060   -0.5030   22.5140 C   0  0  0  0  0  0  0  0  0  0  0  0
   12.0410   -0.9700   23.5960 C   0  0  0  0  0  0  0  0  0  0  0  0
  1  2  1  0
  2  3  1  0
  3  4  1  0
  4  5  2  0
  4  6  1  0
  7  6  1  6
  7  8  1  0
  8  9  1  0
  9 10  2  0
  9 11  1  0
 11 12  1  0
 12 13  2  0
 13 14  1  0
 14 15  2  0
 15 16  1  0
 12 17  1  0
 16 17  2  0
  7 18  1  0
 18 19  1  0
 19 20  1  0
 20 21  1  0
 21 22  1  0
 21 23  1  0
 21 24  1  0
 18 25  1  0
 24 25  1  0
M  END
