pyridine_urea_3529
     RDKit          3D

 18 18  0  0  0  0  0  0  0  0999 V2000
   10.8200   -0.6070   24.7540 C   0  0  0  0  0  0  0  0  0  0  0  0
    9.4340    0.0490   24.8720 C   0  0  0  0  0  0  0  0  0  0  0  0
    8.3390   -0.9180   25.0080 N   0  0  0  0  0  0  0  0  0  0  0  0
    7.3900   -0.7140   25.9990 C   0  0  0  0  0  0  0  0  0  0  0  0
    7.9550   -0.1790   27.3030 C   0  0  0  0  0  0  0  0  0  0  0  0
    8.1820   -2.0400   24.1990 C   0  0  0  0  0  0  0  0  0  0  0  0
    7.5710   -3.0720   24.4470 O   0  0  0  0  0  0  0  0  0  0  0  0
    8.8130   -2.0280   22.8020 C   0  0  0  0  0  0  0  0  0  0  0  0
    9.1460   -0.7570   22.3920 N   0  0  0  0  0  0  0  0  0  0  0  0
    8.4420    0.0600   21.4710 C   0  0  0  0  0  0  0  0  0  0  0  0
    8.8480    1.1830   21.1440 O   0  0  0  0  0  0  0  0  0  0  0  0
    7.3050   -0.5540   21.0520 N   0  0  0  0  0  0  0  0  0  0  0  0
    6.6060    0.0530   20.0580 C   0  0  0  0  0  0  0  0  0  0  0  0
    5.4560    0.7880   20.3790 C   0  0  0  0  0  0  0  0  0  0  0  0
    4.7590    1.4090   19.3530 C   0  0  0  0  0  0  0  0  0  0  0  0
    5.2060    1.2950   18.0480 C   0  0  0  0  0  0  0  0  0  0  0  0
    6.2930    0.5950   17.7180 N   0  0  0  0  0  0  0  0  0  0  0  0
    6.9590   -0.0050   18.7280 C   0  0  0  0  0  0  0  0  0  0  0  0
  1  2  1  0
  2  3  1  0
  3  4  1  0
  4  5  1  0
  3  6  1  0
  6  7  2  0
  6  8  1  0
  8  9  1  0
  9 10  1  0
 10 11  2  0
 10 12  1  0
 12 13  1  0
 13 14  2  0
 14 15  1  0
 15 16  2  0
 16 17  1  0
 13 18  1  0
 17 18  2  0
M  END
