pyridine_urea_5006
     RDKit          3D

 21 22  0  0  0  0  0  0  0  0999 V2000
   12.6020   -1.9750   21.3200 C   0  0  0  0  0  0  0  0  0  0  0  0
   11.6700   -1.0540   22.0820 C   0  0  0  0  0  0  0  0  0  0  0  0
   12.2510    0.0310   22.7330 C   0  0  0  0  0  0  0  0  0  0  0  0
   13.5570    0.1290   22.6680 C   0  0  0  0  0  0  0  0  0  0  0  0
   11.5560    1.4120   22.7280 C   0  0  0  0  0  0  0  0  0  0  0  0
   12.1220   -0.4080   24.1400 C   0  0  1  0  0  0  0  0  0  0  0  0
   10.9980   -0.0620   24.7770 C   0  0  0  0  0  0  0  0  0  0  0  0
    9.6980   -0.4540   24.1060 C   0  0  0  0  0  0  0  0  0  0  0  0
    9.7020   -1.6200   23.3430 C   0  0  1  0  0  0  0  0  0  0  0  0
    9.0970   -1.3720   22.0320 N   0  0  0  0  0  0  0  0  0  0  0  0
    8.4350   -0.2600   21.5410 C   0  0  0  0  0  0  0  0  0  0  0  0
    8.9080    0.8610   21.4630 O   0  0  0  0  0  0  0  0  0  0  0  0
    7.1530   -0.5940   21.1290 N   0  0  0  0  0  0  0  0  0  0  0  0
    6.4750    0.0360   20.0740 C   0  0  0  0  0  0  0  0  0  0  0  0
    5.3070    0.7610   20.3500 C   0  0  0  0  0  0  0  0  0  0  0  0
    4.6360    1.4040   19.2960 C   0  0  0  0  0  0  0  0  0  0  0  0
    5.1800    1.2780   18.0280 C   0  0  0  0  0  0  0  0  0  0  0  0
    6.2860    0.5910   17.7150 N   0  0  0  0  0  0  0  0  0  0  0  0
    6.8910   -0.0060   18.7560 C   0  0  0  0  0  0  0  0  0  0  0  0
   10.8890   -2.3990   23.2920 C   0  0  0  0  0  0  0  0  0  0  0  0
   12.1210   -1.9060   24.0870 C   0  0  0  0  0  0  0  0  0  0  0  0
  1  2  1  0
  3  2  1  0
  3  4  1  0
  3  5  1  0
  6  3  1  6
  6  7  1  0
  7  8  1  0
  8  9  1  0
  9 10  1  6
 10 11  1  0
 11 12  2  0
 11 13  1  0
 13 14  1  0
 14 15  2  0
 15 16  1  0
 16 17  2  0
 17 18  1  0
 14 19  1  0
 18 19  2  0
  9 20  1  0
  6 21  1  0
 20 21  1  0
M  END
