pyridine_urea_8207
     RDKit          3D

 23 24  0  0  0  0  0  0  0  0999 V2000
   12.0990   -1.5680   23.4190 C   0  0  0  0  0  0  0  0  0  0  0  0
   10.5730   -1.7130   23.1180 C   0  0  0  0  0  0  0  0  0  0  0  0
    9.9480   -2.6580   24.1980 C   0  0  0  0  0  0  0  0  0  0  0  0
   10.2540   -2.2990   21.7430 C   0  0  0  0  0  0  0  0  0  0  0  0
    9.8550   -0.3450   23.1760 C   0  0  2  0  0  0  0  0  0  0  0  0
   10.0320    0.5160   24.2660 C   0  0  0  0  0  0  0  0  0  0  0  0
   11.3490    1.1500   23.9830 C   0  0  0  0  0  0  0  0  0  0  0  0
   12.7910    1.4690   23.4490 C   0  0  0  0  0  0  0  0  0  0  0  0
   13.1890    0.2800   22.5590 C   0  0  0  0  0  0  0  0  0  0  0  0
   12.5670   -0.9920   22.1180 C   0  0  0  0  0  0  0  0  0  0  0  0
   13.2610   -2.1260   21.0840 Cl  0  0  0  0  0  0  0  0  0  0  0  0
   11.2760   -1.2090   22.6360 C   0  0  0  0  0  0  0  0  0  0  0  0
   10.8630   -0.0900   23.5000 C   0  0  0  0  0  0  0  0  0  0  0  0
    8.5390   -0.4610   22.7950 N   0  0  0  0  0  0  0  0  0  0  0  0
    8.2100    0.1670   21.6110 C   0  0  0  0  0  0  0  0  0  0  0  0
    8.8150    1.1690   21.1880 O   0  0  0  0  0  0  0  0  0  0  0  0
    7.1480   -0.4600   21.0110 N   0  0  0  0  0  0  0  0  0  0  0  0
    6.4000    0.1600   20.0170 C   0  0  0  0  0  0  0  0  0  0  0  0
    5.2080    0.8560   20.2300 C   0  0  0  0  0  0  0  0  0  0  0  0
    4.5700    1.4480   19.1580 C   0  0  0  0  0  0  0  0  0  0  0  0
    5.1810    1.3020   17.9140 C   0  0  0  0  0  0  0  0  0  0  0  0
    6.3090    0.6390   17.6700 N   0  0  0  0  0  0  0  0  0  0  0  0
    6.8950    0.0790   18.7340 C   0  0  0  0  0  0  0  0  0  0  0  0
  2  1  1  0
  2  3  1  0
  2  4  1  0
  2  5  1  0
  5  6  1  1
  6  7  1  0
  7  8  2  0
  8  9  1  0
  9 10  2  0
 10 11  1  0
 10 12  1  0
  7 13  1  0
 12 13  2  0
  5 14  1  0
 14 15  1  0
 15 16  2  0
 15 17  1  0
 17 18  1  0
 18 19  2  0
 19 20  1  0
 20 21  2  0
 21 22  1  0
 18 23  1  0
 22 23  2  0
M  END
