pyridine_urea_5207
     RDKit          3D

 19 20  0  0  0  0  0  0  0  0999 V2000
   13.6180   -2.9110   25.3930 C   0  0  0  0  0  0  0  0  0  0  0  0
   12.2350   -2.7610   25.1240 O   0  0  0  0  0  0  0  0  0  0  0  0
   11.8750   -1.6380   24.4510 C   0  0  0  0  0  0  0  0  0  0  0  0
   12.7050   -0.7580   24.3340 O   0  0  0  0  0  0  0  0  0  0  0  0
   10.5940   -1.5360   23.9100 C   0  0  0  0  0  0  0  0  0  0  0  0
   10.3770   -0.5120   23.0150 C   0  0  2  0  0  0  0  0  0  0  0  0
    9.6000   -0.8010   21.9260 N   0  0  0  0  0  0  0  0  0  0  0  0
    8.6800    0.0820   21.4230 C   0  0  0  0  0  0  0  0  0  0  0  0
    8.9360    1.2760   21.2370 O   0  0  0  0  0  0  0  0  0  0  0  0
    7.4930   -0.5340   21.1380 N   0  0  0  0  0  0  0  0  0  0  0  0
    6.7020    0.0640   20.1900 C   0  0  0  0  0  0  0  0  0  0  0  0
    5.5510    0.8480   20.4680 C   0  0  0  0  0  0  0  0  0  0  0  0
    4.7450    1.4830   19.3050 C   0  0  0  0  0  0  0  0  0  0  0  0
    5.2160    1.2390   18.0320 C   0  0  0  0  0  0  0  0  0  0  0  0
    6.3040    0.4860   17.8150 N   0  0  0  0  0  0  0  0  0  0  0  0
    7.0400   -0.0980   18.8480 C   0  0  0  0  0  0  0  0  0  0  0  0
   11.7200   -0.0410   22.4480 C   0  0  0  0  0  0  0  0  0  0  0  0
   12.7100   -0.7870   22.2550 C   0  0  0  0  0  0  0  0  0  0  0  0
   12.8360    0.0730   23.4100 C   0  0  0  0  0  0  0  0  0  0  0  0
  1  2  1  0
  2  3  1  0
  3  4  2  0
  3  5  1  0
  6  5  1  1
  6  7  1  0
  7  8  1  0
  8  9  2  0
  8 10  1  0
 10 11  1  0
 11 12  2  0
 12 13  1  0
 13 14  2  0
 14 15  1  0
 11 16  1  0
 15 16  2  0
  6 17  1  0
 17 18  1  0
 17 19  1  0
 18 19  1  0
M  END
