pyridine_urea_10222
     RDKit          3D

 23 25  0  0  0  0  0  0  0  0999 V2000
    8.5980    0.6480   21.1610 O   0  0  0  0  0  0  0  0  0  0  0  0
    8.3130   -0.4910   21.5070 C   0  0  0  0  0  0  0  0  0  0  0  0
    9.1780   -1.2430   22.3240 N   0  0  0  0  0  0  0  0  0  0  0  0
   10.3250   -0.4710   22.5310 C   0  0  0  0  0  0  0  0  0  0  0  0
    9.9860    0.8250   22.8010 C   0  0  0  0  0  0  0  0  0  0  0  0
   10.8940    1.8050   22.9660 C   0  0  0  0  0  0  0  0  0  0  0  0
   12.2070    1.5520   22.8750 C   0  0  0  0  0  0  0  0  0  0  0  0
   13.0070    2.6160   22.9950 N   0  0  0  0  0  0  0  0  0  0  0  0
   12.4550    3.8240   22.5640 C   0  0  0  0  0  0  0  0  0  0  0  0
   13.0960    5.0330   23.2850 C   0  0  0  0  0  0  0  0  0  0  0  0
   12.3390    5.8340   24.1560 C   0  0  0  0  0  0  0  0  0  0  0  0
   10.9590    5.7580   24.0560 C   0  0  0  0  0  0  0  0  0  0  0  0
   10.5950    5.2780   22.8230 C   0  0  0  0  0  0  0  0  0  0  0  0
   11.0560    3.9670   22.6750 C   0  0  0  0  0  0  0  0  0  0  0  0
   12.6210    0.2220   22.6420 C   0  0  0  0  0  0  0  0  0  0  0  0
   11.6980   -0.8450   22.4620 C   0  0  0  0  0  0  0  0  0  0  0  0
    7.1220   -1.0220   21.0580 N   0  0  0  0  0  0  0  0  0  0  0  0
    6.4360   -0.3010   20.0960 C   0  0  0  0  0  0  0  0  0  0  0  0
    5.2450    0.3410   20.4210 C   0  0  0  0  0  0  0  0  0  0  0  0
    4.6060    1.0710   19.4220 C   0  0  0  0  0  0  0  0  0  0  0  0
    5.1620    1.1370   18.1500 C   0  0  0  0  0  0  0  0  0  0  0  0
    6.3270    0.5190   17.7910 N   0  0  0  0  0  0  0  0  0  0  0  0
    6.9230   -0.1890   18.8020 C   0  0  0  0  0  0  0  0  0  0  0  0
  1  2  2  0
  2  3  1  0
  3  4  1  0
  4  5  2  0
  5  6  1  0
  6  7  2  0
  7  8  1  0
  8  9  1  0
  9 10  1  0
 10 11  1  0
 11 12  1  0
 12 13  1  0
  9 14  1  0
 13 14  1  0
  7 15  1  0
  4 16  1  0
 15 16  2  0
  2 17  1  0
 17 18  1  0
 18 19  2  0
 19 20  1  0
 20 21  2  0
 21 22  1  0
 18 23  1  0
 22 23  2  0
M  END
