pyridine_urea_12254
     RDKit          3D

 22 24  0  0  0  0  0  0  0  0999 V2000
   13.9760   -2.8180   24.7010 C   0  0  0  0  0  0  0  0  0  0  0  0
   13.2180   -1.7380   24.0880 C   0  0  0  0  0  0  0  0  0  0  0  0
   13.4900   -0.3650   24.2670 N   0  0  0  0  0  0  0  0  0  0  0  0
   12.5830    0.5690   23.6590 C   0  0  0  0  0  0  0  0  0  0  0  0
   12.5790    1.7870   23.6530 O   0  0  0  0  0  0  0  0  0  0  0  0
   11.5780    0.0400   23.0270 C   0  0  0  0  0  0  0  0  0  0  0  0
   10.5140    0.9120   22.4670 C   0  0  0  0  0  0  0  0  0  0  0  0
    9.5210    0.2260   21.8310 C   0  0  0  0  0  0  0  0  0  0  0  0
    8.3810    0.6200   21.2540 N   0  0  0  0  0  0  0  0  0  0  0  0
    7.5370   -0.5590   21.4220 C   0  0  0  0  0  0  0  0  0  0  0  0
    8.0890   -1.6870   21.9080 O   0  0  0  0  0  0  0  0  0  0  0  0
    6.2570   -0.4150   21.0700 N   0  0  0  0  0  0  0  0  0  0  0  0
    5.8940    0.2540   19.9430 C   0  0  0  0  0  0  0  0  0  0  0  0
    4.6580    1.1030   20.0890 C   0  0  0  0  0  0  0  0  0  0  0  0
    4.2690    1.8520   18.8390 C   0  0  0  0  0  0  0  0  0  0  0  0
    5.1740    1.6330   17.6420 C   0  0  0  0  0  0  0  0  0  0  0  0
    6.2580    0.8370   17.6240 N   0  0  0  0  0  0  0  0  0  0  0  0
    6.5850    0.1840   18.7490 C   0  0  0  0  0  0  0  0  0  0  0  0
    9.5300   -1.1420   21.6830 C   0  0  0  0  0  0  0  0  0  0  0  0
   10.4780   -1.8800   22.1960 C   0  0  0  0  0  0  0  0  0  0  0  0
   11.4250   -1.3040   22.8500 C   0  0  0  0  0  0  0  0  0  0  0  0
   12.2740   -2.0280   23.3960 N   0  0  0  0  0  0  0  0  0  0  0  0
  1  2  1  0
  2  3  2  0
  3  4  1  0
  4  5  1  0
  4  6  2  0
  6  7  1  0
  7  8  2  0
  8  9  1  0
  9 10  1  0
 10 11  2  0
 10 12  1  0
 12 13  1  0
 13 14  2  0
 14 15  1  0
 15 16  2  0
 16 17  1  0
 13 18  1  0
 17 18  2  0
  8 19  1  0
 19 20  2  0
  6 21  1  0
 20 21  1  0
  2 22  1  0
 21 22  2  0
M  END
