pyridine_urea_5930
     RDKit          3D

 28 31  0  0  0  0  0  0  0  0999 V2000
    9.2050    4.5770   22.9550 C   0  0  0  0  0  0  0  0  0  0  0  0
   10.2920    3.7500   23.4510 N   0  0  0  0  0  0  0  0  0  0  0  0
   11.5280    4.3520   23.6200 C   0  0  0  0  0  0  0  0  0  0  0  0
   11.6810    5.4900   24.0660 O   0  0  0  0  0  0  0  0  0  0  0  0
   12.4940    3.4710   23.2130 N   0  0  0  0  0  0  0  0  0  0  0  0
   13.5320    3.9330   22.5810 C   0  0  0  0  0  0  0  0  0  0  0  0
   11.7840    2.1540   23.0440 C   0  0  0  0  0  0  0  0  0  0  0  0
   12.3500    0.8770   22.7780 C   0  0  0  0  0  0  0  0  0  0  0  0
   11.4530   -0.3440   22.5780 C   0  0  0  0  0  0  0  0  0  0  0  0
   11.7980   -1.5890   22.3280 N   0  0  0  0  0  0  0  0  0  0  0  0
   13.1380   -2.0750   22.1570 C   0  0  0  0  0  0  0  0  0  0  0  0
   13.4950   -2.5720   23.5400 C   0  0  0  0  0  0  0  0  0  0  0  0
   13.1040   -1.6280   24.4440 C   0  0  0  0  0  0  0  0  0  0  0  0
   11.7300   -1.5670   24.4490 C   0  0  0  0  0  0  0  0  0  0  0  0
   11.2290   -2.2820   23.3540 C   0  0  0  0  0  0  0  0  0  0  0  0
    9.9050    0.0420   22.7050 C   0  0  0  0  0  0  0  0  0  0  0  0
    8.9600   -0.8830   22.4970 N   0  0  0  0  0  0  0  0  0  0  0  0
    8.1660   -0.2980   21.5480 C   0  0  0  0  0  0  0  0  0  0  0  0
    8.4100    0.9010   20.9410 O   0  0  0  0  0  0  0  0  0  0  0  0
    7.0320   -0.9010   21.1440 N   0  0  0  0  0  0  0  0  0  0  0  0
    6.4800   -0.2310   20.0910 C   0  0  0  0  0  0  0  0  0  0  0  0
    5.3030    0.4700   20.3300 C   0  0  0  0  0  0  0  0  0  0  0  0
    4.6420    1.2080   19.3440 C   0  0  0  0  0  0  0  0  0  0  0  0
    5.2240    1.2200   18.0700 C   0  0  0  0  0  0  0  0  0  0  0  0
    6.3640    0.5490   17.8000 N   0  0  0  0  0  0  0  0  0  0  0  0
    6.9670   -0.1600   18.7980 C   0  0  0  0  0  0  0  0  0  0  0  0
    9.4970    1.4410   23.0270 C   0  0  0  0  0  0  0  0  0  0  0  0
   10.4480    2.4110   23.1770 C   0  0  0  0  0  0  0  0  0  0  0  0
  1  2  1  0
  2  3  1  0
  3  4  2  0
  3  5  1  0
  5  6  1  0
  5  7  1  0
  7  8  1  0
  8  9  2  0
  9 10  1  0
 10 11  1  0
 11 12  1  0
 12 13  1  0
 13 14  1  0
 10 15  1  0
 14 15  1  0
  9 16  1  0
 16 17  1  0
 17 18  1  0
 18 19  2  0
 18 20  1  0
 20 21  1  0
 21 22  2  0
 22 23  1  0
 23 24  2  0
 24 25  1  0
 21 26  1  0
 25 26  2  0
 16 27  2  0
  2 28  1  0
  7 28  2  0
 27 28  1  0
M  END
