pyridine_urea_1088
     RDKit          3D

 22 23  0  0  0  0  0  0  0  0999 V2000
   11.0230   -0.6740   25.1930 C   0  0  0  0  0  0  0  0  0  0  0  0
   12.1460   -1.6230   24.8520 C   0  0  0  0  0  0  0  0  0  0  0  0
   12.0670   -1.8070   23.4280 N   0  0  0  0  0  0  0  0  0  0  0  0
   12.4510   -0.6740   22.7880 C   0  0  0  0  0  0  0  0  0  0  0  0
   11.3450    0.1290   22.5000 C   0  0  0  0  0  0  0  0  0  0  0  0
   10.2350    0.2510   23.3450 C   0  0  0  0  0  0  0  0  0  0  0  0
    8.9980   -0.1430   22.9430 N   0  0  0  0  0  0  0  0  0  0  0  0
    8.4980    0.3650   21.7660 C   0  0  0  0  0  0  0  0  0  0  0  0
    9.0190    1.3710   21.2650 O   0  0  0  0  0  0  0  0  0  0  0  0
    7.4260   -0.2710   21.2240 N   0  0  0  0  0  0  0  0  0  0  0  0
    6.6810    0.2360   20.1000 C   0  0  0  0  0  0  0  0  0  0  0  0
    5.4650    1.1200   20.3140 C   0  0  0  0  0  0  0  0  0  0  0  0
    4.7470    1.6340   19.2520 C   0  0  0  0  0  0  0  0  0  0  0  0
    5.1440    1.3410   17.9420 C   0  0  0  0  0  0  0  0  0  0  0  0
    6.2320    0.5360   17.6940 N   0  0  0  0  0  0  0  0  0  0  0  0
    6.9920   -0.0140   18.7890 C   0  0  0  0  0  0  0  0  0  0  0  0
   10.8100   -2.2030   23.0360 C   0  0  0  0  0  0  0  0  0  0  0  0
   10.1370   -3.0620   23.8610 C   0  0  0  0  0  0  0  0  0  0  0  0
    8.8550   -3.4560   23.5240 C   0  0  0  0  0  0  0  0  0  0  0  0
    8.2510   -3.0130   22.3890 C   0  0  0  0  0  0  0  0  0  0  0  0
    8.9070   -2.1560   21.5300 C   0  0  0  0  0  0  0  0  0  0  0  0
   10.2040   -1.7480   21.8540 C   0  0  0  0  0  0  0  0  0  0  0  0
  1  2  1  0
  2  3  1  0
  3  4  1  0
  4  5  1  0
  5  6  1  0
  6  7  1  0
  7  8  1  0
  8  9  2  0
  8 10  1  0
 10 11  1  0
 11 12  2  0
 12 13  1  0
 13 14  2  0
 14 15  1  0
 11 16  1  0
 15 16  2  0
  3 17  1  0
 17 18  2  0
 18 19  1  0
 19 20  2  0
 20 21  1  0
 17 22  1  0
 21 22  2  0
M  END
