pyridine_urea_7814
     RDKit          3D

 27 29  0  0  0  0  0  0  0  0999 V2000
    8.7090    1.0260   21.2330 O   0  0  0  0  0  0  0  0  0  0  0  0
    8.2470   -0.0970   21.3400 C   0  0  0  0  0  0  0  0  0  0  0  0
    8.8870   -1.2100   21.7280 N   0  0  0  0  0  0  0  0  0  0  0  0
   10.0080   -1.2010   22.5140 C   0  0  0  0  0  0  0  0  0  0  0  0
   11.2690   -1.2970   21.9470 C   0  0  0  0  0  0  0  0  0  0  0  0
   12.4210   -1.2910   22.7020 C   0  0  0  0  0  0  0  0  0  0  0  0
   12.2640   -1.2190   24.0560 C   0  0  0  0  0  0  0  0  0  0  0  0
   13.2060   -1.2600   24.9500 N   0  0  0  0  0  0  0  0  0  0  0  0
   13.4690   -2.8900   25.0060 S   0  0  0  0  0  0  0  0  0  0  0  0
   14.1170   -3.2300   26.2380 O   0  0  0  0  0  0  0  0  0  0  0  0
   14.0220   -3.2030   23.7210 O   0  0  0  0  0  0  0  0  0  0  0  0
   11.7240   -3.5000   25.0660 C   0  0  0  0  0  0  0  0  0  0  0  0
   11.4170   -4.2850   26.1550 C   0  0  0  0  0  0  0  0  0  0  0  0
   10.0060   -4.8370   26.3010 C   0  0  0  0  0  0  0  0  0  0  0  0
    9.0810   -4.5190   25.3110 C   0  0  0  0  0  0  0  0  0  0  0  0
    7.8320   -5.0300   25.4840 F   0  0  0  0  0  0  0  0  0  0  0  0
    9.4370   -3.7250   24.2190 C   0  0  0  0  0  0  0  0  0  0  0  0
   10.7440   -3.2250   24.0990 C   0  0  0  0  0  0  0  0  0  0  0  0
   10.8770   -1.1300   24.6620 C   0  0  0  0  0  0  0  0  0  0  0  0
    9.7940   -1.1070   23.8600 C   0  0  0  0  0  0  0  0  0  0  0  0
    6.9520   -0.3970   21.0520 N   0  0  0  0  0  0  0  0  0  0  0  0
    6.2700    0.2300   20.0250 C   0  0  0  0  0  0  0  0  0  0  0  0
    5.0900    0.9430   20.1650 C   0  0  0  0  0  0  0  0  0  0  0  0
    4.5280    1.5420   19.0460 C   0  0  0  0  0  0  0  0  0  0  0  0
    5.1750    1.4020   17.8300 C   0  0  0  0  0  0  0  0  0  0  0  0
    6.3130    0.7080   17.6760 N   0  0  0  0  0  0  0  0  0  0  0  0
    6.8270    0.1400   18.7730 C   0  0  0  0  0  0  0  0  0  0  0  0
  1  2  2  0
  2  3  1  0
  3  4  1  0
  4  5  2  0
  5  6  1  0
  6  7  2  0
  7  8  1  0
  9  8  1  0
  9 10  2  0
  9 11  2  0
  9 12  1  0
 12 13  2  0
 13 14  1  0
 14 15  2  0
 15 16  1  0
 15 17  1  0
 12 18  1  0
 17 18  2  0
  7 19  1  0
  4 20  1  0
 19 20  2  0
  2 21  1  0
 21 22  1  0
 22 23  2  0
 23 24  1  0
 24 25  2  0
 25 26  1  0
 22 27  1  0
 26 27  2  0
M  END
