pyridine_urea_10913
     RDKit          3D

 19 20  0  0  0  0  0  0  0  0999 V2000
    6.0850   -6.6630   22.5310 C   0  0  0  0  0  0  0  0  0  0  0  0
    7.1750   -5.8140   23.0930 C   0  0  0  0  0  0  0  0  0  0  0  0
    6.9240   -5.0400   24.2280 C   0  0  0  0  0  0  0  0  0  0  0  0
    8.1730   -4.3340   24.6130 N   0  0  0  0  0  0  0  0  0  0  0  0
    8.9770   -4.8680   25.5890 N   0  0  0  0  0  0  0  0  0  0  0  0
   10.0090   -3.8050   25.5440 C   0  0  0  0  0  0  0  0  0  0  0  0
    9.7550   -2.8780   24.6730 N   0  0  0  0  0  0  0  0  0  0  0  0
    8.6320   -3.1440   24.0650 C   0  0  0  0  0  0  0  0  0  0  0  0
    8.0330   -2.2700   22.9930 C   0  0  0  0  0  0  0  0  0  0  0  0
    8.8960   -1.3140   22.4950 N   0  0  0  0  0  0  0  0  0  0  0  0
    8.4380   -0.2540   21.6370 C   0  0  0  0  0  0  0  0  0  0  0  0
    9.0790    0.7660   21.4530 O   0  0  0  0  0  0  0  0  0  0  0  0
    7.2090   -0.5780   21.1150 N   0  0  0  0  0  0  0  0  0  0  0  0
    6.5440    0.0540   20.0530 C   0  0  0  0  0  0  0  0  0  0  0  0
    5.4040    0.7900   20.2990 C   0  0  0  0  0  0  0  0  0  0  0  0
    4.7120    1.4410   19.2950 C   0  0  0  0  0  0  0  0  0  0  0  0
    5.1860    1.3430   18.0010 C   0  0  0  0  0  0  0  0  0  0  0  0
    6.2910    0.6290   17.7100 N   0  0  0  0  0  0  0  0  0  0  0  0
    6.9410    0.0050   18.7300 C   0  0  0  0  0  0  0  0  0  0  0  0
  1  2  1  0
  2  3  1  0
  3  4  1  0
  4  5  1  0
  5  6  2  0
  6  7  1  0
  4  8  1  0
  7  8  2  0
  8  9  1  0
  9 10  1  0
 10 11  1  0
 11 12  2  0
 11 13  1  0
 13 14  1  0
 14 15  2  0
 15 16  1  0
 16 17  2  0
 17 18  1  0
 14 19  1  0
 18 19  2  0
M  END
