pyridine_urea_7429
     RDKit          3D

 17 18  0  0  0  0  0  0  0  0999 V2000
    8.9690    1.1440   21.2310 O   0  0  0  0  0  0  0  0  0  0  0  0
    8.4970    0.0530   21.5760 C   0  0  0  0  0  0  0  0  0  0  0  0
    9.0450   -0.8200   22.4740 N   0  0  0  0  0  0  0  0  0  0  0  0
   10.3300   -1.3700   22.3860 C   0  0  0  0  0  0  0  0  0  0  0  0
   11.3710   -0.6310   22.9440 C   0  0  0  0  0  0  0  0  0  0  0  0
   12.2730   -1.3740   23.6380 N   0  0  0  0  0  0  0  0  0  0  0  0
   12.6340   -1.2700   25.0240 C   0  0  0  0  0  0  0  0  0  0  0  0
   13.5930   -2.2130   25.3750 N   0  0  0  0  0  0  0  0  0  0  0  0
   13.8870   -2.9420   24.2430 N   0  0  0  0  0  0  0  0  0  0  0  0
   13.0660   -2.4200   23.1710 C   0  0  0  0  0  0  0  0  0  0  0  0
    7.3030   -0.4620   21.1060 N   0  0  0  0  0  0  0  0  0  0  0  0
    6.5810    0.1130   20.0700 C   0  0  0  0  0  0  0  0  0  0  0  0
    5.4200    0.8410   20.3720 C   0  0  0  0  0  0  0  0  0  0  0  0
    4.6460    1.4920   19.2270 C   0  0  0  0  0  0  0  0  0  0  0  0
    5.1320    1.3300   17.9310 C   0  0  0  0  0  0  0  0  0  0  0  0
    6.2340    0.6180   17.7150 N   0  0  0  0  0  0  0  0  0  0  0  0
    6.9520    0.0160   18.7440 C   0  0  0  0  0  0  0  0  0  0  0  0
  1  2  2  0
  2  3  1  0
  3  4  1  0
  4  5  1  0
  5  6  1  0
  6  7  1  0
  7  8  2  0
  8  9  1  0
  6 10  1  0
  9 10  2  0
  2 11  1  0
 11 12  1  0
 12 13  2  0
 13 14  1  0
 14 15  2  0
 15 16  1  0
 12 17  1  0
 16 17  2  0
M  END
