pyridine_urea_8845
     RDKit          3D

 20 22  0  0  0  0  0  0  0  0999 V2000
    8.8140    1.4040   21.0950 O   0  0  0  0  0  0  0  0  0  0  0  0
    8.4340    0.2900   21.4620 C   0  0  0  0  0  0  0  0  0  0  0  0
    9.1420   -0.4000   22.3910 N   0  0  0  0  0  0  0  0  0  0  0  0
   10.3480    0.2620   22.8580 C   0  0  0  0  0  0  0  0  0  0  0  0
   11.5460   -0.7110   22.9260 C   0  0  0  0  0  0  0  0  0  0  0  0
   12.8260   -0.3060   22.5750 C   0  0  0  0  0  0  0  0  0  0  0  0
   12.5190    1.0270   23.1890 C   0  0  0  0  0  0  0  0  0  0  0  0
   11.4690    0.4980   23.5810 C   0  0  0  0  0  0  0  0  0  0  0  0
   10.7810   -0.6160   24.0080 C   0  0  0  0  0  0  0  0  0  0  0  0
   11.1240   -1.1920   25.0410 C   0  0  0  0  0  0  0  0  0  0  0  0
    9.8350   -0.5600   25.1200 C   0  0  0  0  0  0  0  0  0  0  0  0
   12.6790    0.0360   23.6320 O   0  0  0  0  0  0  0  0  0  0  0  0
   13.7800    0.3930   22.7160 N   0  0  0  0  0  0  0  0  0  0  0  0
    7.3080   -0.3510   21.0240 N   0  0  0  0  0  0  0  0  0  0  0  0
    6.5600    0.1640   20.0480 C   0  0  0  0  0  0  0  0  0  0  0  0
    5.3720    0.8410   20.3680 C   0  0  0  0  0  0  0  0  0  0  0  0
    4.6390    1.4090   19.2070 C   0  0  0  0  0  0  0  0  0  0  0  0
    5.0910    1.2760   17.9340 C   0  0  0  0  0  0  0  0  0  0  0  0
    6.2300    0.6060   17.6610 N   0  0  0  0  0  0  0  0  0  0  0  0
    6.9100    0.0830   18.7090 C   0  0  0  0  0  0  0  0  0  0  0  0
  1  2  2  0
  2  3  1  0
  3  4  1  0
  4  5  1  0
  5  6  1  0
  6  7  1  0
  7  8  2  0
  8  9  1  0
  9 10  1  0
  9 11  1  0
 10 11  1  0
  8 12  1  0
  6 13  2  0
 12 13  1  0
  2 14  1  0
 14 15  1  0
 15 16  2  0
 16 17  1  0
 17 18  2  0
 18 19  1  0
 15 20  1  0
 19 20  2  0
M  END
