pyridine_urea_10646
     RDKit          3D

 21 22  0  0  0  0  0  0  0  0999 V2000
   14.5740   -4.6390   21.0050 C   0  0  0  0  0  0  0  0  0  0  0  0
   13.6210   -3.7280   21.6320 N   0  0  0  0  0  0  0  0  0  0  0  0
   13.5330   -2.9940   22.9230 C   0  0  0  0  0  0  0  0  0  0  0  0
   12.9620   -1.5820   23.0700 C   0  0  0  0  0  0  0  0  0  0  0  0
   12.3530   -1.3120   21.9050 N   0  0  0  0  0  0  0  0  0  0  0  0
   10.9530   -1.5360   21.7720 C   0  0  0  0  0  0  0  0  0  0  0  0
   10.1360   -1.4240   23.0360 C   0  0  0  0  0  0  0  0  0  0  0  0
    8.7650   -1.0900   22.6780 N   0  0  0  0  0  0  0  0  0  0  0  0
    8.3020   -0.2650   21.6280 C   0  0  0  0  0  0  0  0  0  0  0  0
    8.8360    0.7920   21.3280 O   0  0  0  0  0  0  0  0  0  0  0  0
    7.1990   -0.8250   21.0520 N   0  0  0  0  0  0  0  0  0  0  0  0
    6.4660   -0.0720   20.0570 C   0  0  0  0  0  0  0  0  0  0  0  0
    5.3300    0.7100   20.3360 C   0  0  0  0  0  0  0  0  0  0  0  0
    4.6830    1.4150   19.3080 C   0  0  0  0  0  0  0  0  0  0  0  0
    5.1330    1.3730   17.9970 C   0  0  0  0  0  0  0  0  0  0  0  0
    6.2940    0.5580   17.7590 N   0  0  0  0  0  0  0  0  0  0  0  0
    6.9020   -0.1180   18.7560 C   0  0  0  0  0  0  0  0  0  0  0  0
   13.2710   -1.6650   20.8810 C   0  0  0  0  0  0  0  0  0  0  0  0
   13.2700   -3.1530   20.6220 C   0  0  0  0  0  0  0  0  0  0  0  0
   12.1560   -3.6510   20.2350 C   0  0  0  0  0  0  0  0  0  0  0  0
   14.3530   -3.8650   19.7760 C   0  0  0  0  0  0  0  0  0  0  0  0
  1  2  1  0
  2  3  1  0
  3  4  1  0
  4  5  1  0
  5  6  1  0
  6  7  1  0
  7  8  1  0
  8  9  1  0
  9 10  2  0
  9 11  1  0
 11 12  1  0
 12 13  2  0
 13 14  1  0
 14 15  2  0
 15 16  1  0
 12 17  1  0
 16 17  2  0
  5 18  1  0
  2 19  1  0
 18 19  1  0
 19 20  1  0
 19 21  1  0
M  END
