pyridine_urea_15036
     RDKit          3D

 19 20  0  0  0  0  0  0  0  0999 V2000
    5.8820    1.3410   17.2580 C   0  0  0  0  0  0  0  0  0  0  0  0
    5.0100    1.5160   18.4250 C   0  0  0  0  0  0  0  0  0  0  0  0
    4.2870    0.2510   18.5330 C   0  0  0  0  0  0  0  0  0  0  0  0
    4.0830    2.7170   18.3700 C   0  0  0  0  0  0  0  0  0  0  0  0
    5.7040    1.5500   19.5980 N   0  0  0  0  0  0  0  0  0  0  0  0
    4.8540    1.5270   20.6360 C   0  0  0  0  0  0  0  0  0  0  0  0
    5.2460    0.2120   21.2600 C   0  0  0  0  0  0  0  0  0  0  0  0
    6.7690    0.1770   21.1310 C   0  0  1  0  0  0  0  0  0  0  0  0
    7.4780   -1.0230   21.4110 N   0  0  0  0  0  0  0  0  0  0  0  0
    8.7560   -0.5900   21.7020 C   0  0  0  0  0  0  0  0  0  0  0  0
    9.1250    0.5080   21.3110 O   0  0  0  0  0  0  0  0  0  0  0  0
    9.4900   -1.4100   22.4360 N   0  0  0  0  0  0  0  0  0  0  0  0
   10.6720   -0.8010   22.5980 C   0  0  0  0  0  0  0  0  0  0  0  0
   11.8040   -1.5340   22.3500 C   0  0  0  0  0  0  0  0  0  0  0  0
   13.0450   -0.9640   22.4810 C   0  0  0  0  0  0  0  0  0  0  0  0
   13.1390    0.3540   22.8590 C   0  0  0  0  0  0  0  0  0  0  0  0
   12.0780    1.1450   23.1200 N   0  0  0  0  0  0  0  0  0  0  0  0
   10.7500    0.5390   22.9900 C   0  0  0  0  0  0  0  0  0  0  0  0
    6.8080    0.6380   19.6670 C   0  0  0  0  0  0  0  0  0  0  0  0
  2  1  1  0
  2  3  1  0
  2  4  1  0
  2  5  1  0
  5  6  1  0
  6  7  1  0
  7  8  1  0
  8  9  1  6
  9 10  1  0
 10 11  2  0
 10 12  1  0
 12 13  1  0
 13 14  2  0
 14 15  1  0
 15 16  2  0
 16 17  1  0
 13 18  1  0
 17 18  2  0
  5 19  1  0
  8 19  1  0
M  END
