pyridine_urea_489
     RDKit          3D

 25 27  0  0  0  0  0  0  0  0999 V2000
    9.6520   -1.2490   21.8790 C   0  0  0  0  0  0  0  0  0  0  0  0
   10.6940   -2.2610   22.2780 C   0  0  0  0  0  0  0  0  0  0  0  0
   11.9760   -1.9830   21.8400 C   0  0  0  0  0  0  0  0  0  0  0  0
   13.0950   -2.4640   22.4840 C   0  0  0  0  0  0  0  0  0  0  0  0
   12.9230   -2.6690   23.9060 N   0  0  0  0  0  0  0  0  0  0  0  0
   13.3100   -1.5640   24.5760 C   0  0  0  0  0  0  0  0  0  0  0  0
   12.5410   -0.5980   24.0390 C   0  0  0  0  0  0  0  0  0  0  0  0
   12.9240    0.2360   22.8910 C   0  0  0  0  0  0  0  0  0  0  0  0
   11.8330    0.9160   22.7570 C   0  0  0  0  0  0  0  0  0  0  0  0
   10.5840    1.1570   23.2050 C   0  0  0  0  0  0  0  0  0  0  0  0
    9.9920    0.4730   24.3200 C   0  0  0  0  0  0  0  0  0  0  0  0
    9.1250    1.3600   23.7890 C   0  0  0  0  0  0  0  0  0  0  0  0
    8.1770    0.6540   23.0230 N   0  0  0  0  0  0  0  0  0  0  0  0
    8.1030    0.6700   21.5710 C   0  0  0  0  0  0  0  0  0  0  0  0
    8.7580    1.4850   20.9360 O   0  0  0  0  0  0  0  0  0  0  0  0
    7.2520   -0.2640   21.0910 N   0  0  0  0  0  0  0  0  0  0  0  0
    6.5680    0.2180   20.0480 C   0  0  0  0  0  0  0  0  0  0  0  0
    5.4140    0.9600   20.3040 C   0  0  0  0  0  0  0  0  0  0  0  0
    4.6880    1.5030   19.2480 C   0  0  0  0  0  0  0  0  0  0  0  0
    5.1370    1.2890   17.9560 C   0  0  0  0  0  0  0  0  0  0  0  0
    6.2280    0.5770   17.6650 N   0  0  0  0  0  0  0  0  0  0  0  0
    6.9350    0.0450   18.7340 C   0  0  0  0  0  0  0  0  0  0  0  0
   11.2700   -0.4040   24.5840 C   0  0  0  0  0  0  0  0  0  0  0  0
   11.5830   -2.9730   24.3700 C   0  0  0  0  0  0  0  0  0  0  0  0
   10.4610   -2.5780   23.6160 C   0  0  0  0  0  0  0  0  0  0  0  0
  1  2  1  0
  2  3  1  0
  3  4  1  0
  4  5  1  0
  5  6  1  0
  6  7  1  0
  7  8  2  0
  8  9  1  0
  9 10  2  0
 10 11  1  0
 11 12  1  0
 12 13  1  0
 13 14  1  0
 14 15  2  0
 14 16  1  0
 16 17  1  0
 17 18  2  0
 18 19  1  0
 19 20  2  0
 20 21  1  0
 17 22  1  0
 21 22  2  0
  7 23  1  0
 11 23  2  0
  5 24  1  0
  2 25  1  0
 24 25  1  0
M  END
