pyridine_urea_11313
     RDKit          3D

 15 15  0  0  0  0  0  0  0  0999 V2000
   13.0050    0.7270   23.0380 C   0  0  0  0  0  0  0  0  0  0  0  0
   12.5330   -0.3140   22.7380 C   0  0  0  0  0  0  0  0  0  0  0  0
   11.4720   -1.3470   22.4140 C   0  0  1  0  0  0  0  0  0  0  0  0
   11.8590   -2.5760   23.0200 O   0  0  0  0  0  0  0  0  0  0  0  0
   10.1800   -0.8740   22.9820 C   0  0  0  0  0  0  0  0  0  0  0  0
    9.0760   -1.2150   22.0980 N   0  0  0  0  0  0  0  0  0  0  0  0
    8.3560   -0.2250   21.4570 C   0  0  0  0  0  0  0  0  0  0  0  0
    8.7980    0.9010   21.2530 O   0  0  0  0  0  0  0  0  0  0  0  0
    7.1300   -0.6730   21.1030 N   0  0  0  0  0  0  0  0  0  0  0  0
    6.5130   -0.0410   20.0690 C   0  0  0  0  0  0  0  0  0  0  0  0
    5.2700    0.7410   20.3280 C   0  0  0  0  0  0  0  0  0  0  0  0
    4.5300    1.4360   19.4050 C   0  0  0  0  0  0  0  0  0  0  0  0
    5.2430    1.2380   18.0800 C   0  0  0  0  0  0  0  0  0  0  0  0
    6.3480    0.5570   17.7550 N   0  0  0  0  0  0  0  0  0  0  0  0
    6.9310   -0.0540   18.7790 C   0  0  0  0  0  0  0  0  0  0  0  0
  1  2  1  0
  2  3  1  0
  3  4  1  1
  3  5  1  0
  5  6  1  0
  6  7  1  0
  7  8  2  0
  7  9  1  0
  9 10  1  0
 10 11  2  0
 11 12  1  0
 12 13  2  0
 13 14  1  0
 10 15  1  0
 14 15  2  0
M  END
