pyridine_urea_6386
     RDKit          3D

 19 20  0  0  0  0  0  0  0  0999 V2000
    9.0830    1.1800   21.4010 O   0  0  0  0  0  0  0  0  0  0  0  0
    8.2890    0.3080   21.7870 C   0  0  0  0  0  0  0  0  0  0  0  0
    8.0960   -0.0560   23.1210 N   0  0  0  0  0  0  0  0  0  0  0  0
    9.1020   -0.3460   24.1610 C   0  0  0  0  0  0  0  0  0  0  0  0
   10.4060    0.4250   24.0880 C   0  0  0  0  0  0  0  0  0  0  0  0
   11.8180    0.8340   23.7260 C   0  0  0  0  0  0  0  0  0  0  0  0
   12.6810    0.2070   22.9150 C   0  0  0  0  0  0  0  0  0  0  0  0
   12.4160   -1.0520   22.1870 C   0  0  0  0  0  0  0  0  0  0  0  0
   13.3690   -1.9320   21.1310 Cl  0  0  0  0  0  0  0  0  0  0  0  0
   11.1160   -1.5130   22.4810 C   0  0  0  0  0  0  0  0  0  0  0  0
   10.3090   -0.8310   23.3050 C   0  0  0  0  0  0  0  0  0  0  0  0
    9.1510   -1.5680   23.3530 F   0  0  0  0  0  0  0  0  0  0  0  0
    7.4230   -0.4140   20.9940 N   0  0  0  0  0  0  0  0  0  0  0  0
    6.5840    0.1740   20.0420 C   0  0  0  0  0  0  0  0  0  0  0  0
    5.4180    0.8890   20.3440 C   0  0  0  0  0  0  0  0  0  0  0  0
    4.6820    1.4440   19.3030 C   0  0  0  0  0  0  0  0  0  0  0  0
    5.1560    1.2490   18.0330 C   0  0  0  0  0  0  0  0  0  0  0  0
    6.2500    0.5700   17.6940 N   0  0  0  0  0  0  0  0  0  0  0  0
    6.9420    0.0420   18.7130 C   0  0  0  0  0  0  0  0  0  0  0  0
  1  2  2  0
  2  3  1  0
  3  4  1  0
  4  5  1  0
  5  6  2  0
  6  7  1  0
  7  8  2  0
  8  9  1  0
  8 10  1  0
  5 11  1  0
 10 11  2  0
 11 12  1  0
  2 13  1  0
 13 14  1  0
 14 15  2  0
 15 16  1  0
 16 17  2  0
 17 18  1  0
 14 19  1  0
 18 19  2  0
M  END
