pyridine_urea_14719
     RDKit          3D

 20 22  0  0  0  0  0  0  0  0999 V2000
    8.7080   -0.9990   20.6660 O   0  0  0  0  0  0  0  0  0  0  0  0
    8.0710   -0.5000   21.5320 C   0  0  0  0  0  0  0  0  0  0  0  0
    6.7310   -0.2570   21.4220 N   0  0  0  0  0  0  0  0  0  0  0  0
    6.1560    0.2970   20.2610 C   0  0  0  0  0  0  0  0  0  0  0  0
    4.9810    1.0290   20.2490 C   0  0  0  0  0  0  0  0  0  0  0  0
    4.5060    1.5480   19.0470 C   0  0  0  0  0  0  0  0  0  0  0  0
    5.2220    1.3180   17.8970 C   0  0  0  0  0  0  0  0  0  0  0  0
    6.3620    0.6070   17.8570 N   0  0  0  0  0  0  0  0  0  0  0  0
    6.8010    0.1140   19.0350 C   0  0  0  0  0  0  0  0  0  0  0  0
    8.6890   -0.1080   22.6880 N   0  0  0  0  0  0  0  0  0  0  0  0
   10.0710   -0.0320   22.5420 C   0  0  0  0  0  0  0  0  0  0  0  0
   10.8440   -1.0340   22.9490 C   0  0  0  0  0  0  0  0  0  0  0  0
   11.7070   -0.1580   23.5160 C   0  0  0  0  0  0  0  0  0  0  0  0
   12.1390   -0.4600   24.7480 C   0  0  0  0  0  0  0  0  0  0  0  0
   12.7370   -1.6880   24.7940 C   0  0  0  0  0  0  0  0  0  0  0  0
   12.3860   -2.5670   23.6900 C   0  0  0  0  0  0  0  0  0  0  0  0
   13.2910   -2.3600   22.6790 C   0  0  0  0  0  0  0  0  0  0  0  0
   12.9740   -1.2630   21.9010 C   0  0  0  0  0  0  0  0  0  0  0  0
   12.7830   -0.0840   22.6460 C   0  0  0  0  0  0  0  0  0  0  0  0
   10.8510    0.9860   23.4220 C   0  0  0  0  0  0  0  0  0  0  0  0
  1  2  2  0
  2  3  1  0
  3  4  1  0
  4  5  2  0
  5  6  1  0
  6  7  2  0
  7  8  1  0
  4  9  1  0
  8  9  2  0
  2 10  1  0
 10 11  1  0
 11 12  1  0
 13 12  1  0
 13 14  1  0
 14 15  1  0
 15 16  1  0
 16 17  1  0
 17 18  1  0
 13 19  1  0
 18 19  1  0
 11 20  1  0
 13 20  1  0
M  END
