pyridine_urea_1029
     RDKit          3D

 22 23  0  0  0  0  0  0  0  0999 V2000
   11.6300    1.4970   23.4770 C   0  0  0  0  0  0  0  0  0  0  0  0
   10.1210    1.5990   23.4170 C   0  0  0  0  0  0  0  0  0  0  0  0
    9.3430    0.4520   23.6000 C   0  0  1  0  0  0  0  0  0  0  0  0
    8.0820    0.5500   22.9000 N   0  0  0  0  0  0  0  0  0  0  0  0
    8.0370    0.5060   21.5760 C   0  0  0  0  0  0  0  0  0  0  0  0
    8.7360    1.3350   20.9860 O   0  0  0  0  0  0  0  0  0  0  0  0
    7.1600   -0.4700   20.9750 N   0  0  0  0  0  0  0  0  0  0  0  0
    6.4920    0.1160   19.9610 C   0  0  0  0  0  0  0  0  0  0  0  0
    5.2060    0.8430   20.2820 C   0  0  0  0  0  0  0  0  0  0  0  0
    4.4750    1.5350   19.1420 C   0  0  0  0  0  0  0  0  0  0  0  0
    5.1290    1.4210   17.7820 C   0  0  0  0  0  0  0  0  0  0  0  0
    6.2830    0.7240   17.6320 N   0  0  0  0  0  0  0  0  0  0  0  0
    6.9420    0.0930   18.6710 C   0  0  0  0  0  0  0  0  0  0  0  0
   10.2060   -0.5270   23.3710 C   0  0  0  0  0  0  0  0  0  0  0  0
   10.3290   -1.6300   22.6100 C   0  0  0  0  0  0  0  0  0  0  0  0
   11.6300   -2.2390   22.9520 C   0  0  0  0  0  0  0  0  0  0  0  0
   12.5790   -1.6670   23.9690 C   0  0  0  0  0  0  0  0  0  0  0  0
   13.6970   -2.1790   24.2630 C   0  0  0  0  0  0  0  0  0  0  0  0
   13.8460   -2.8150   25.4740 C   0  0  0  0  0  0  0  0  0  0  0  0
   13.7400   -2.8870   23.1220 C   0  0  0  0  0  0  0  0  0  0  0  0
   12.1940   -0.5520   24.5570 C   0  0  0  0  0  0  0  0  0  0  0  0
   11.2810   -0.8150   23.8040 C   0  0  0  0  0  0  0  0  0  0  0  0
  1  2  1  0
  3  2  1  6
  3  4  1  0
  4  5  1  0
  5  6  2  0
  5  7  1  0
  7  8  1  0
  8  9  2  0
  9 10  1  0
 10 11  2  0
 11 12  1  0
  8 13  1  0
 12 13  2  0
  3 14  1  0
 14 15  2  0
 15 16  1  0
 16 17  2  0
 17 18  1  0
 18 19  1  0
 18 20  1  0
 17 21  1  0
 14 22  1  0
 21 22  2  0
M  END
