pyridine_urea_8311
     RDKit          3D

 22 24  0  0  0  0  0  0  0  0999 V2000
    8.7630    1.0550   21.4000 O   0  0  0  0  0  0  0  0  0  0  0  0
    8.4960   -0.1400   21.4110 C   0  0  0  0  0  0  0  0  0  0  0  0
    7.2270   -0.6250   21.1290 N   0  0  0  0  0  0  0  0  0  0  0  0
    6.5020    0.0370   20.0650 C   0  0  0  0  0  0  0  0  0  0  0  0
    5.2020    0.8320   20.3980 C   0  0  0  0  0  0  0  0  0  0  0  0
    4.5530    1.4600   19.3430 C   0  0  0  0  0  0  0  0  0  0  0  0
    5.1820    1.3100   17.9540 C   0  0  0  0  0  0  0  0  0  0  0  0
    6.3070    0.6060   17.7180 N   0  0  0  0  0  0  0  0  0  0  0  0
    6.9270   -0.0050   18.7500 C   0  0  0  0  0  0  0  0  0  0  0  0
    9.3630   -1.1650   21.6560 N   0  0  0  0  0  0  0  0  0  0  0  0
   10.2400   -1.2420   22.8330 C   0  0  2  0  0  0  0  0  0  0  0  0
    9.8840   -0.2250   23.9480 C   0  0  1  0  0  0  0  0  0  0  0  0
   10.5200    1.1020   23.5570 C   0  0  0  0  0  0  0  0  0  0  0  0
    9.3210    2.0310   23.5820 C   0  0  0  0  0  0  0  0  0  0  0  0
    8.2000    1.1080   24.0600 C   0  0  0  0  0  0  0  0  0  0  0  0
    8.4530   -0.1000   24.0860 O   0  0  0  0  0  0  0  0  0  0  0  0
   11.6160   -1.3400   22.5710 C   0  0  0  0  0  0  0  0  0  0  0  0
   12.1360   -2.2660   21.6640 C   0  0  0  0  0  0  0  0  0  0  0  0
   13.1660   -1.7340   20.9340 O   0  0  0  0  0  0  0  0  0  0  0  0
   12.4170   -1.5210   23.8690 C   0  0  0  0  0  0  0  0  0  0  0  0
   12.8970   -0.2780   23.8540 C   0  0  0  0  0  0  0  0  0  0  0  0
   12.3480   -0.1210   22.6430 C   0  0  0  0  0  0  0  0  0  0  0  0
  1  2  2  0
  2  3  1  0
  3  4  1  0
  4  5  2  0
  5  6  1  0
  6  7  2  0
  7  8  1  0
  4  9  1  0
  8  9  2  0
  2 10  1  0
 11 10  1  6
 11 12  1  0
 12 13  1  6
 13 14  1  0
 14 15  1  0
 12 16  1  0
 15 16  1  0
 11 17  1  0
 17 18  1  0
 18 19  1  0
 17 20  1  0
 20 21  1  0
 17 22  1  0
 21 22  1  0
M  END
