pyridine_urea_8644
     RDKit          3D

 21 22  0  0  0  0  0  0  0  0999 V2000
   10.3620   -1.7940   24.1810 C   0  0  0  0  0  0  0  0  0  0  0  0
   10.4930   -1.1820   22.8250 C   0  0  0  0  0  0  0  0  0  0  0  0
   11.5850   -1.6400   22.0690 C   0  0  0  0  0  0  0  0  0  0  0  0
    9.2340   -1.5070   22.1250 N   0  0  0  0  0  0  0  0  0  0  0  0
    8.5640   -0.4530   21.4930 C   0  0  0  0  0  0  0  0  0  0  0  0
    9.0420    0.6440   21.2750 O   0  0  0  0  0  0  0  0  0  0  0  0
    7.1930   -0.8330   21.1150 N   0  0  0  0  0  0  0  0  0  0  0  0
    6.5400   -0.1370   20.1150 C   0  0  0  0  0  0  0  0  0  0  0  0
    5.2570    0.6150   20.4530 C   0  0  0  0  0  0  0  0  0  0  0  0
    4.6320    1.3050   19.4150 C   0  0  0  0  0  0  0  0  0  0  0  0
    5.2850    1.2510   18.0290 C   0  0  0  0  0  0  0  0  0  0  0  0
    6.4220    0.5670   17.7900 N   0  0  0  0  0  0  0  0  0  0  0  0
    7.0100   -0.0990   18.8130 C   0  0  0  0  0  0  0  0  0  0  0  0
   10.5340    0.3430   22.9260 C   0  0  0  0  0  0  0  0  0  0  0  0
    9.5600    1.1020   23.0800 C   0  0  0  0  0  0  0  0  0  0  0  0
   10.9180    1.6220   22.9380 C   0  0  0  0  0  0  0  0  0  0  0  0
   11.4860    0.1820   22.8350 C   0  0  0  0  0  0  0  0  0  0  0  0
   12.7270    0.8390   22.7210 C   0  0  0  0  0  0  0  0  0  0  0  0
   13.3150    2.1010   22.6930 C   0  0  0  0  0  0  0  0  0  0  0  0
   12.7120    3.2630   22.3300 N   0  0  0  0  0  0  0  0  0  0  0  0
   11.5600    1.3240   22.8730 C   0  0  0  0  0  0  0  0  0  0  0  0
  1  2  1  0
  2  3  1  0
  2  4  1  0
  4  5  1  0
  5  6  2  0
  5  7  1  0
  7  8  1  0
  8  9  2  0
  9 10  1  0
 10 11  2  0
 11 12  1  0
  8 13  1  0
 12 13  2  0
  2 14  1  0
 14 15  2  0
 15 16  1  0
 16 17  2  0
 17 18  1  0
 18 19  1  0
 19 20  3  0
 14 21  1  0
 18 21  2  0
M  END
