pyridine_urea_396
     RDKit          3D

 26 28  0  0  0  0  0  0  0  0999 V2000
   13.6240   -2.2940   24.6600 C   0  0  0  0  0  0  0  0  0  0  0  0
   13.9900   -1.4050   23.8760 O   0  0  0  0  0  0  0  0  0  0  0  0
   13.2460   -0.2820   23.7140 C   0  0  0  0  0  0  0  0  0  0  0  0
   13.4870    0.7360   22.8170 C   0  0  0  0  0  0  0  0  0  0  0  0
   12.6480    1.8620   22.6830 C   0  0  0  0  0  0  0  0  0  0  0  0
   11.5640    1.9250   23.4370 C   0  0  0  0  0  0  0  0  0  0  0  0
   11.2810    0.9580   24.3340 C   0  0  0  0  0  0  0  0  0  0  0  0
   12.2150   -0.2120   24.4960 C   0  0  0  0  0  0  0  0  0  0  0  0
   11.9700   -1.1590   25.3540 O   0  0  0  0  0  0  0  0  0  0  0  0
   11.1410   -1.2640   24.4130 C   0  0  0  0  0  0  0  0  0  0  0  0
   11.6220   -1.8410   23.2350 C   0  0  0  0  0  0  0  0  0  0  0  0
   10.7740   -1.9180   22.2020 C   0  0  0  0  0  0  0  0  0  0  0  0
    9.5070   -1.4260   22.3870 C   0  0  0  0  0  0  0  0  0  0  0  0
    8.5380   -1.4210   21.4710 N   0  0  0  0  0  0  0  0  0  0  0  0
    7.9750   -0.2400   21.2060 C   0  0  0  0  0  0  0  0  0  0  0  0
    8.5520    0.8400   21.1710 O   0  0  0  0  0  0  0  0  0  0  0  0
    6.6570   -0.4380   20.9850 N   0  0  0  0  0  0  0  0  0  0  0  0
    6.1050    0.2320   19.8720 C   0  0  0  0  0  0  0  0  0  0  0  0
    4.9200    0.9270   20.0160 C   0  0  0  0  0  0  0  0  0  0  0  0
    4.4090    1.5980   18.9220 C   0  0  0  0  0  0  0  0  0  0  0  0
    5.1140    1.5400   17.7280 C   0  0  0  0  0  0  0  0  0  0  0  0
    6.2590    0.8580   17.5830 N   0  0  0  0  0  0  0  0  0  0  0  0
    6.7280    0.2210   18.6510 C   0  0  0  0  0  0  0  0  0  0  0  0
    9.0670   -0.8580   23.5640 C   0  0  0  0  0  0  0  0  0  0  0  0
    9.9070   -0.7800   24.5950 C   0  0  0  0  0  0  0  0  0  0  0  0
    9.4910   -0.2240   25.7500 F   0  0  0  0  0  0  0  0  0  0  0  0
  1  2  1  0
  2  3  1  0
  3  4  2  0
  4  5  1  0
  5  6  2  0
  6  7  1  0
  3  8  1  0
  7  8  2  0
  8  9  1  0
  9 10  1  0
 10 11  2  0
 11 12  1  0
 12 13  2  0
 13 14  1  0
 14 15  1  0
 15 16  2  0
 15 17  1  0
 17 18  1  0
 18 19  2  0
 19 20  1  0
 20 21  2  0
 21 22  1  0
 18 23  1  0
 22 23  2  0
 13 24  1  0
 10 25  1  0
 24 25  2  0
 25 26  1  0
M  END
