pyridine_urea_11830
     RDKit          3D

 25 27  0  0  0  0  0  0  0  0999 V2000
    8.8890    1.1780   21.1940 O   0  0  0  0  0  0  0  0  0  0  0  0
    8.3990    0.0770   21.4990 C   0  0  0  0  0  0  0  0  0  0  0  0
    8.8710   -0.7720   22.4510 N   0  0  0  0  0  0  0  0  0  0  0  0
   10.2020   -0.8930   22.8540 C   0  0  0  0  0  0  0  0  0  0  0  0
   10.6570    0.0220   23.8200 C   0  0  0  0  0  0  0  0  0  0  0  0
   11.5800    1.0040   23.3830 C   0  0  0  0  0  0  0  0  0  0  0  0
   12.6570    1.5800   22.9780 C   0  0  0  0  0  0  0  0  0  0  0  0
   12.9060    0.4510   23.1210 C   0  0  0  0  0  0  0  0  0  0  0  0
   11.5990   -0.1120   23.5810 C   0  0  0  0  0  0  0  0  0  0  0  0
   12.2600   -1.1880   23.6410 C   0  0  0  0  0  0  0  0  0  0  0  0
   12.4890   -2.5170   23.8700 C   0  0  0  0  0  0  0  0  0  0  0  0
   12.9590   -2.8650   25.0750 F   0  0  0  0  0  0  0  0  0  0  0  0
   11.3460   -3.2220   23.7070 F   0  0  0  0  0  0  0  0  0  0  0  0
   13.4130   -2.9260   22.9920 F   0  0  0  0  0  0  0  0  0  0  0  0
   13.0940    0.0130   23.1640 C   0  0  0  0  0  0  0  0  0  0  0  0
   11.0220   -0.6950   25.1380 C   0  0  0  0  0  0  0  0  0  0  0  0
    9.7960   -0.2650   25.5870 C   0  0  0  0  0  0  0  0  0  0  0  0
    9.4240    0.4140   24.4490 C   0  0  0  0  0  0  0  0  0  0  0  0
    7.2780   -0.4780   20.9440 N   0  0  0  0  0  0  0  0  0  0  0  0
    6.5060    0.1480   20.0090 C   0  0  0  0  0  0  0  0  0  0  0  0
    5.2230    0.9200   20.2580 C   0  0  0  0  0  0  0  0  0  0  0  0
    4.6020    1.4980   19.1720 C   0  0  0  0  0  0  0  0  0  0  0  0
    5.1400    1.3710   17.9070 C   0  0  0  0  0  0  0  0  0  0  0  0
    6.2730    0.6790   17.6630 N   0  0  0  0  0  0  0  0  0  0  0  0
    6.9180    0.0920   18.6980 C   0  0  0  0  0  0  0  0  0  0  0  0
  1  2  2  0
  2  3  1  0
  3  4  1  0
  5  4  1  0
  5  6  1  0
  6  7  2  0
  7  8  1  0
  8  9  2  0
  9 10  1  0
 10 11  1  0
 11 12  1  0
 11 13  1  0
 11 14  1  0
  6 15  1  0
 10 15  2  0
  5 16  1  0
 16 17  1  0
  5 18  1  0
 17 18  1  0
  2 19  1  0
 19 20  1  0
 20 21  2  0
 21 22  1  0
 22 23  2  0
 23 24  1  0
 20 25  1  0
 24 25  2  0
M  END
