pyridine_urea_14122
     RDKit          3D

 23 24  0  0  0  0  0  0  0  0999 V2000
   14.3040   -2.7330   25.8630 C   0  0  0  0  0  0  0  0  0  0  0  0
   13.5570   -1.5730   26.0210 O   0  0  0  0  0  0  0  0  0  0  0  0
   12.8020   -1.3900   24.8720 C   0  0  0  0  0  0  0  0  0  0  0  0
   13.2000   -0.6600   23.6660 C   0  0  0  0  0  0  0  0  0  0  0  0
   12.2950   -0.5570   22.5070 C   0  0  0  0  0  0  0  0  0  0  0  0
   10.9550   -1.0440   22.2320 C   0  0  0  0  0  0  0  0  0  0  0  0
    9.5840   -1.6820   22.2650 C   0  0  0  0  0  0  0  0  0  0  0  0
    8.8610   -1.1720   21.1420 N   0  0  0  0  0  0  0  0  0  0  0  0
    8.2360    0.0220   21.2180 C   0  0  0  0  0  0  0  0  0  0  0  0
    8.9130    1.2980   21.2240 O   0  0  0  0  0  0  0  0  0  0  0  0
    6.8260   -0.2140   21.2150 N   0  0  0  0  0  0  0  0  0  0  0  0
    6.2830    0.3300   20.0050 C   0  0  0  0  0  0  0  0  0  0  0  0
    5.0280    1.1210   20.1590 C   0  0  0  0  0  0  0  0  0  0  0  0
    4.5010    1.6860   19.0100 C   0  0  0  0  0  0  0  0  0  0  0  0
    5.1070    1.5310   17.7650 C   0  0  0  0  0  0  0  0  0  0  0  0
    6.3140    0.7460   17.6420 N   0  0  0  0  0  0  0  0  0  0  0  0
    6.8350    0.1880   18.7570 C   0  0  0  0  0  0  0  0  0  0  0  0
   10.5850   -1.7630   23.4740 C   0  0  0  0  0  0  0  0  0  0  0  0
   11.4980   -1.8300   24.5490 C   0  0  0  0  0  0  0  0  0  0  0  0
   12.0380   -1.1110   23.4380 O   0  0  0  0  0  0  0  0  0  0  0  0
   12.8840   -1.8610   22.4870 C   0  0  0  0  0  0  0  0  0  0  0  0
   12.1700   -2.3500   21.4460 F   0  0  0  0  0  0  0  0  0  0  0  0
   13.4060   -2.9010   23.1620 F   0  0  0  0  0  0  0  0  0  0  0  0
  1  2  1  0
  2  3  1  0
  3  4  2  0
  4  5  1  0
  5  6  2  0
  6  7  1  0
  7  8  1  0
  8  9  1  0
  9 10  2  0
  9 11  1  0
 11 12  1  0
 12 13  2  0
 13 14  1  0
 14 15  2  0
 15 16  1  0
 12 17  1  0
 16 17  2  0
  6 18  1  0
  3 19  1  0
 18 19  2  0
 19 20  1  0
 20 21  1  0
 21 22  1  0
 21 23  1  0
M  END
