pyridine_urea_6783
     RDKit          3D

 21 23  0  0  0  0  0  0  0  0999 V2000
   10.6290   -1.6430   21.9400 C   0  0  0  0  0  0  0  0  0  0  0  0
   10.0880   -0.7710   23.0880 C   0  0  2  0  0  0  0  0  0  0  0  0
    8.6870   -0.4820   22.7930 N   0  0  0  0  0  0  0  0  0  0  0  0
    8.3250    0.1510   21.6210 C   0  0  0  0  0  0  0  0  0  0  0  0
    8.8920    1.1620   21.1840 O   0  0  0  0  0  0  0  0  0  0  0  0
    7.2540   -0.4850   21.0450 N   0  0  0  0  0  0  0  0  0  0  0  0
    6.5730    0.1090   19.9940 C   0  0  0  0  0  0  0  0  0  0  0  0
    5.3270    0.8940   20.2470 C   0  0  0  0  0  0  0  0  0  0  0  0
    4.6500    1.5170   19.2130 C   0  0  0  0  0  0  0  0  0  0  0  0
    5.1140    1.4330   17.8960 C   0  0  0  0  0  0  0  0  0  0  0  0
    6.3130    0.6560   17.6860 N   0  0  0  0  0  0  0  0  0  0  0  0
    6.9740    0.0420   18.7010 C   0  0  0  0  0  0  0  0  0  0  0  0
   10.9610    0.5140   23.2490 C   0  0  0  0  0  0  0  0  0  0  0  0
   10.6400    1.6310   22.9530 C   0  0  0  0  0  0  0  0  0  0  0  0
   11.8500    1.0710   23.5100 C   0  0  0  0  0  0  0  0  0  0  0  0
   11.1790   -0.4270   23.4880 C   0  0  0  0  0  0  0  0  0  0  0  0
   12.5030   -0.3400   24.0000 C   0  0  0  0  0  0  0  0  0  0  0  0
   12.4600    0.8140   23.7920 C   0  0  0  0  0  0  0  0  0  0  0  0
   13.2360   -1.4980   24.4840 C   0  0  0  0  0  0  0  0  0  0  0  0
   12.3380   -2.4230   24.1440 C   0  0  0  0  0  0  0  0  0  0  0  0
   11.2440   -1.9230   23.7640 O   0  0  0  0  0  0  0  0  0  0  0  0
  2  1  1  6
  2  3  1  0
  3  4  1  0
  4  5  2  0
  4  6  1  0
  6  7  1  0
  7  8  2  0
  8  9  1  0
  9 10  2  0
 10 11  1  0
  7 12  1  0
 11 12  2  0
  2 13  1  0
 13 14  2  0
 14 15  1  0
 15 16  2  0
 16 17  1  0
 13 18  1  0
 17 18  2  0
 17 19  1  0
 19 20  1  0
 16 21  1  0
 20 21  1  0
M  END
