pyridine_urea_2341
     RDKit          3D

 25 27  0  0  0  0  0  0  0  0999 V2000
    8.6670    0.4480   21.1580 O   0  0  0  0  0  0  0  0  0  0  0  0
    8.2890   -0.6790   21.4320 C   0  0  0  0  0  0  0  0  0  0  0  0
    7.0650   -1.1180   21.0160 N   0  0  0  0  0  0  0  0  0  0  0  0
    6.4130   -0.3400   20.0290 C   0  0  0  0  0  0  0  0  0  0  0  0
    5.2050    0.3170   20.3120 C   0  0  0  0  0  0  0  0  0  0  0  0
    4.5820    1.0960   19.3270 C   0  0  0  0  0  0  0  0  0  0  0  0
    5.1880    1.1940   18.0890 C   0  0  0  0  0  0  0  0  0  0  0  0
    6.3410    0.5710   17.7950 N   0  0  0  0  0  0  0  0  0  0  0  0
    6.9210   -0.1760   18.7590 C   0  0  0  0  0  0  0  0  0  0  0  0
    9.1150   -1.5220   22.1800 N   0  0  0  0  0  0  0  0  0  0  0  0
   10.2370   -0.6450   22.4930 C   0  0  0  0  0  0  0  0  0  0  0  0
   11.6980   -1.0380   22.3800 C   0  0  0  0  0  0  0  0  0  0  0  0
   12.6330   -0.0060   22.6700 C   0  0  0  0  0  0  0  0  0  0  0  0
   12.1690    1.2900   23.0270 C   0  0  0  0  0  0  0  0  0  0  0  0
   12.9470    2.2000   23.2370 O   0  0  0  0  0  0  0  0  0  0  0  0
   12.5050    3.5240   22.9940 C   0  0  0  0  0  0  0  0  0  0  0  0
   13.2320    4.4200   22.2160 C   0  0  0  0  0  0  0  0  0  0  0  0
   12.7670    5.7270   22.0200 C   0  0  0  0  0  0  0  0  0  0  0  0
   11.5740    6.1350   22.6050 C   0  0  0  0  0  0  0  0  0  0  0  0
   10.8460    5.2510   23.3720 C   0  0  0  0  0  0  0  0  0  0  0  0
    9.6950    5.6570   23.9330 F   0  0  0  0  0  0  0  0  0  0  0  0
   11.3060    3.9520   23.5640 C   0  0  0  0  0  0  0  0  0  0  0  0
   10.7970    1.5420   23.1240 C   0  0  0  0  0  0  0  0  0  0  0  0
    9.9490    3.1680   23.5630 Br  0  0  0  0  0  0  0  0  0  0  0  0
    9.8740    0.6020   22.8720 C   0  0  0  0  0  0  0  0  0  0  0  0
  1  2  2  0
  2  3  1  0
  3  4  1  0
  4  5  2  0
  5  6  1  0
  6  7  2  0
  7  8  1  0
  4  9  1  0
  8  9  2  0
  2 10  1  0
 10 11  1  0
 11 12  2  0
 12 13  1  0
 13 14  2  0
 14 15  1  0
 15 16  1  0
 16 17  2  0
 17 18  1  0
 18 19  2  0
 19 20  1  0
 20 21  1  0
 16 22  1  0
 20 22  2  0
 14 23  1  0
 23 24  1  0
 11 25  1  0
 23 25  2  0
M  END
