pyridine_urea_10742
     RDKit          3D

 20 21  0  0  0  0  0  0  0  0999 V2000
   13.6290   -2.1360   25.2680 C   0  0  0  0  0  0  0  0  0  0  0  0
   13.5750   -0.9050   24.5320 O   0  0  0  0  0  0  0  0  0  0  0  0
   12.6930   -1.1220   23.6080 C   0  0  0  0  0  0  0  0  0  0  0  0
   13.0230   -1.4920   22.3730 C   0  0  0  0  0  0  0  0  0  0  0  0
   11.9880   -1.7330   21.5800 C   0  0  0  0  0  0  0  0  0  0  0  0
   10.6950   -1.5820   22.0610 C   0  0  0  0  0  0  0  0  0  0  0  0
   10.2210   -1.1470   23.4560 C   0  0  0  0  0  0  0  0  0  0  0  0
    9.1320   -1.4290   22.5380 C   0  0  0  0  0  0  0  0  0  0  0  0
    8.2540   -0.3950   22.5340 N   0  0  0  0  0  0  0  0  0  0  0  0
    8.0310    0.3270   21.4350 C   0  0  0  0  0  0  0  0  0  0  0  0
    8.6820    1.3180   21.0730 O   0  0  0  0  0  0  0  0  0  0  0  0
    6.9160   -0.3080   20.8140 N   0  0  0  0  0  0  0  0  0  0  0  0
    6.2710    0.2950   19.8430 C   0  0  0  0  0  0  0  0  0  0  0  0
    5.0810    0.9760   20.0460 C   0  0  0  0  0  0  0  0  0  0  0  0
    4.4910    1.6040   18.9640 C   0  0  0  0  0  0  0  0  0  0  0  0
    5.1190    1.5200   17.7360 C   0  0  0  0  0  0  0  0  0  0  0  0
    6.2620    0.8550   17.5120 N   0  0  0  0  0  0  0  0  0  0  0  0
    6.8230    0.2430   18.6080 C   0  0  0  0  0  0  0  0  0  0  0  0
   11.4300   -0.9690   24.0470 C   0  0  0  0  0  0  0  0  0  0  0  0
   11.2460   -0.5790   25.3050 C   0  0  0  0  0  0  0  0  0  0  0  0
  1  2  1  0
  2  3  1  0
  3  4  2  0
  4  5  1  0
  5  6  2  0
  6  7  1  0
  7  8  1  0
  8  9  1  0
  9 10  1  0
 10 11  2  0
 10 12  1  0
 12 13  1  0
 13 14  2  0
 14 15  1  0
 15 16  2  0
 16 17  1  0
 13 18  1  0
 17 18  2  0
  3 19  1  0
  7 19  2  0
 19 20  1  0
M  END
