pyridine_urea_1299
     RDKit          3D

 20 21  0  0  0  0  0  0  0  0999 V2000
    8.4310    1.3700   20.8570 O   0  0  0  0  0  0  0  0  0  0  0  0
    8.3930    0.2030   21.2440 C   0  0  0  0  0  0  0  0  0  0  0  0
    7.3040   -0.5770   21.0110 N   0  0  0  0  0  0  0  0  0  0  0  0
    6.5930    0.0040   19.9250 C   0  0  0  0  0  0  0  0  0  0  0  0
    5.3270    0.8000   20.2720 C   0  0  0  0  0  0  0  0  0  0  0  0
    4.6050    1.4250   19.2640 C   0  0  0  0  0  0  0  0  0  0  0  0
    5.0790    1.2960   17.9640 C   0  0  0  0  0  0  0  0  0  0  0  0
    6.2080    0.5650   17.7010 N   0  0  0  0  0  0  0  0  0  0  0  0
    6.9770   -0.0880   18.6590 C   0  0  0  0  0  0  0  0  0  0  0  0
    9.4060   -0.3690   21.9060 N   0  0  0  0  0  0  0  0  0  0  0  0
   10.4240   -0.7490   22.6580 C   0  0  0  0  0  0  0  0  0  0  0  0
   10.1850   -0.4050   23.9540 C   0  0  0  0  0  0  0  0  0  0  0  0
   11.0920   -0.6810   24.9050 C   0  0  0  0  0  0  0  0  0  0  0  0
   10.6920   -0.3300   26.1070 F   0  0  0  0  0  0  0  0  0  0  0  0
   12.3180   -1.2940   24.6210 C   0  0  0  0  0  0  0  0  0  0  0  0
   13.2220   -1.5560   25.5580 F   0  0  0  0  0  0  0  0  0  0  0  0
   12.5970   -1.6670   23.3230 C   0  0  0  0  0  0  0  0  0  0  0  0
   13.7440   -2.2760   23.0190 F   0  0  0  0  0  0  0  0  0  0  0  0
   11.6000   -1.3970   22.2820 C   0  0  0  0  0  0  0  0  0  0  0  0
   11.8910   -1.7940   21.0530 F   0  0  0  0  0  0  0  0  0  0  0  0
  1  2  2  0
  2  3  1  0
  3  4  1  0
  4  5  2  0
  5  6  1  0
  6  7  2  0
  7  8  1  0
  4  9  1  0
  8  9  2  0
  2 10  1  0
 10 11  1  0
 11 12  2  0
 12 13  1  0
 13 14  1  0
 13 15  2  0
 15 16  1  0
 15 17  1  0
 17 18  1  0
 11 19  1  0
 17 19  2  0
 19 20  1  0
M  END
