pyridine_urea_3991
     RDKit          3D

 28 31  0  0  0  0  0  0  0  0999 V2000
   21.9630   -0.4330   23.9120 C   0  0  0  0  0  0  0  0  0  0  0  0
   20.8290   -0.9130   24.7670 C   0  0  0  0  0  0  0  0  0  0  0  0
   20.8480   -1.3300   26.0510 C   0  0  0  0  0  0  0  0  0  0  0  0
   19.6760   -1.7200   26.6300 C   0  0  0  0  0  0  0  0  0  0  0  0
   18.5220   -1.6350   25.7850 C   0  0  0  0  0  0  0  0  0  0  0  0
   16.9540   -1.9810   26.0290 C   0  0  0  0  0  0  0  0  0  0  0  0
   16.8900   -2.8410   25.6560 O   0  0  0  0  0  0  0  0  0  0  0  0
   15.4210   -1.8760   26.4290 N   0  0  0  0  0  0  0  0  0  0  0  0
   14.1910   -1.9370   25.4790 C   0  0  0  0  0  0  0  0  0  0  0  0
   13.1720   -0.9820   25.6330 N   0  0  0  0  0  0  0  0  0  0  0  0
   12.1280   -0.9560   24.6230 C   0  0  0  0  0  0  0  0  0  0  0  0
   11.0460   -0.1300   24.5060 C   0  0  0  0  0  0  0  0  0  0  0  0
   10.1420   -0.2130   23.4850 C   0  0  0  0  0  0  0  0  0  0  0  0
   10.3140   -1.1780   22.5150 C   0  0  0  0  0  0  0  0  0  0  0  0
    9.4400   -1.2950   21.5030 N   0  0  0  0  0  0  0  0  0  0  0  0
    8.5030   -0.3400   21.3150 C   0  0  0  0  0  0  0  0  0  0  0  0
    8.7440    1.0120   21.3160 O   0  0  0  0  0  0  0  0  0  0  0  0
    7.2380   -0.7710   21.0900 N   0  0  0  0  0  0  0  0  0  0  0  0
    6.5520   -0.1120   20.1250 C   0  0  0  0  0  0  0  0  0  0  0  0
    5.3880    0.7710   20.4170 C   0  0  0  0  0  0  0  0  0  0  0  0
    4.6830    1.4820   19.2710 C   0  0  0  0  0  0  0  0  0  0  0  0
    5.1330    1.3000   17.9660 C   0  0  0  0  0  0  0  0  0  0  0  0
    6.1750    0.4950   17.7370 N   0  0  0  0  0  0  0  0  0  0  0  0
    6.8530   -0.1840   18.7750 C   0  0  0  0  0  0  0  0  0  0  0  0
   11.4190   -2.0420   22.6140 C   0  0  0  0  0  0  0  0  0  0  0  0
   12.3240   -1.9280   23.6810 C   0  0  0  0  0  0  0  0  0  0  0  0
   13.7600   -2.8510   24.0890 S   0  0  0  0  0  0  0  0  0  0  0  0
   19.2170   -1.0330   24.2660 S   0  0  0  0  0  0  0  0  0  0  0  0
  1  2  1  0
  2  3  2  0
  3  4  1  0
  4  5  2  0
  5  6  1  0
  6  7  2  0
  6  8  1  0
  8  9  1  0
  9 10  2  0
 10 11  1  0
 11 12  2  0
 12 13  1  0
 13 14  2  0
 14 15  1  0
 15 16  1  0
 16 17  2  0
 16 18  1  0
 18 19  1  0
 19 20  2  0
 20 21  1  0
 21 22  2  0
 22 23  1  0
 19 24  1  0
 23 24  2  0
 14 25  1  0
 11 26  1  0
 25 26  2  0
  9 27  1  0
 26 27  1  0
  2 28  1  0
  5 28  1  0
M  END
