pyridine_urea_5058
     RDKit          3D

 20 21  0  0  0  0  0  0  0  0999 V2000
   12.9470   -0.8710   25.2480 C   0  0  0  0  0  0  0  0  0  0  0  0
   11.9300   -0.9120   24.2740 C   0  0  0  0  0  0  0  0  0  0  0  0
   11.2510   -2.1100   24.3040 C   0  0  0  0  0  0  0  0  0  0  0  0
   12.8970   -0.9860   23.0730 C   0  0  0  0  0  0  0  0  0  0  0  0
   12.2110   -1.4640   22.0250 C   0  0  0  0  0  0  0  0  0  0  0  0
   10.8370   -0.8240   22.0190 C   0  0  0  0  0  0  0  0  0  0  0  0
    9.6820   -1.4600   21.5710 C   0  0  0  0  0  0  0  0  0  0  0  0
    9.8250   -1.5600   22.8260 C   0  0  0  0  0  0  0  0  0  0  0  0
    8.4830   -0.8660   22.7440 N   0  0  0  0  0  0  0  0  0  0  0  0
    8.0750   -0.0820   21.6870 C   0  0  0  0  0  0  0  0  0  0  0  0
    8.6630    0.9340   21.3190 O   0  0  0  0  0  0  0  0  0  0  0  0
    6.9440   -0.5900   21.1040 N   0  0  0  0  0  0  0  0  0  0  0  0
    6.3480    0.0450   20.0220 C   0  0  0  0  0  0  0  0  0  0  0  0
    5.1690    0.7640   20.2340 C   0  0  0  0  0  0  0  0  0  0  0  0
    4.5800    1.4180   19.1490 C   0  0  0  0  0  0  0  0  0  0  0  0
    5.1780    1.3380   17.8990 C   0  0  0  0  0  0  0  0  0  0  0  0
    6.3050    0.6440   17.6880 N   0  0  0  0  0  0  0  0  0  0  0  0
    6.8610    0.0160   18.7410 C   0  0  0  0  0  0  0  0  0  0  0  0
   10.8330    0.5120   22.7690 C   0  0  0  0  0  0  0  0  0  0  0  0
   11.1840    0.2430   24.0740 C   0  0  0  0  0  0  0  0  0  0  0  0
  2  1  1  0
  2  3  1  0
  2  4  1  0
  4  5  1  0
  5  6  1  0
  6  7  1  0
  6  8  1  0
  8  9  1  0
  9 10  1  0
 10 11  2  0
 10 12  1  0
 12 13  1  0
 13 14  2  0
 14 15  1  0
 15 16  2  0
 16 17  1  0
 13 18  1  0
 17 18  2  0
  6 19  1  0
  2 20  1  0
 19 20  1  0
M  END
