pyridine_urea_5370
     RDKit          3D

 18 18  0  0  0  0  0  0  0  0999 V2000
   12.8400    0.6090   23.1890 C   0  0  0  0  0  0  0  0  0  0  0  0
   12.6240   -0.7770   22.5940 C   0  0  0  0  0  0  0  0  0  0  0  0
   11.0920   -0.8880   22.2450 C   0  0  0  0  0  0  0  0  0  0  0  0
   10.1830   -1.0620   23.2670 C   0  0  1  0  0  0  0  0  0  0  0  0
   10.1360    0.1700   24.1890 C   0  0  0  0  0  0  0  0  0  0  0  0
    9.8440    1.2940   23.4300 N   0  0  0  0  0  0  0  0  0  0  0  0
   10.3450    2.5930   23.6430 C   0  0  0  0  0  0  0  0  0  0  0  0
   10.6270    3.4310   22.3920 C   0  0  0  0  0  0  0  0  0  0  0  0
    8.9060   -1.2390   22.5830 N   0  0  0  0  0  0  0  0  0  0  0  0
    8.3670   -0.3790   21.6090 C   0  0  0  0  0  0  0  0  0  0  0  0
    8.8760    0.7000   21.3600 O   0  0  0  0  0  0  0  0  0  0  0  0
    7.2460   -0.8800   21.0160 N   0  0  0  0  0  0  0  0  0  0  0  0
    6.5460   -0.1340   20.1170 C   0  0  0  0  0  0  0  0  0  0  0  0
    5.2750    0.6620   20.4200 C   0  0  0  0  0  0  0  0  0  0  0  0
    4.5850    1.4520   19.3180 C   0  0  0  0  0  0  0  0  0  0  0  0
    5.3100    1.3250   17.9920 C   0  0  0  0  0  0  0  0  0  0  0  0
    6.4270    0.6060   17.7880 N   0  0  0  0  0  0  0  0  0  0  0  0
    6.9920   -0.0790   18.8040 C   0  0  0  0  0  0  0  0  0  0  0  0
  1  2  1  0
  2  3  1  0
  4  3  1  6
  4  5  1  0
  5  6  1  0
  6  7  1  0
  7  8  1  0
  4  9  1  0
  9 10  1  0
 10 11  2  0
 10 12  1  0
 12 13  1  0
 13 14  2  0
 14 15  1  0
 15 16  2  0
 16 17  1  0
 13 18  1  0
 17 18  2  0
M  END
