pyridine_urea_6603
     RDKit          3D

 22 24  0  0  0  0  0  0  0  0999 V2000
   13.1060   -1.3060   25.1420 C   0  0  0  0  0  0  0  0  0  0  0  0
   13.6970   -2.5690   24.7300 C   0  0  1  0  0  0  0  0  0  0  0  0
   13.1450   -3.5400   25.7270 C   0  0  0  0  0  0  0  0  0  0  0  0
   11.6390   -3.7360   25.4930 C   0  0  0  0  0  0  0  0  0  0  0  0
   11.0550   -3.1210   24.2640 C   0  0  0  0  0  0  0  0  0  0  0  0
    9.6990   -2.9080   23.9340 N   0  0  0  0  0  0  0  0  0  0  0  0
    9.6650   -2.3000   22.7180 C   0  0  0  0  0  0  0  0  0  0  0  0
    8.5390   -1.9170   22.1050 C   0  0  1  0  0  0  0  0  0  0  0  0
    7.3530   -2.4480   22.6260 C   0  0  0  0  0  0  0  0  0  0  0  0
    8.4760   -0.6020   22.4300 N   0  0  0  0  0  0  0  0  0  0  0  0
    8.0530    0.2400   21.4320 C   0  0  0  0  0  0  0  0  0  0  0  0
    8.6440    1.2680   21.0720 O   0  0  0  0  0  0  0  0  0  0  0  0
    6.9160   -0.3090   20.9890 N   0  0  0  0  0  0  0  0  0  0  0  0
    6.3450    0.2660   19.9470 C   0  0  0  0  0  0  0  0  0  0  0  0
    5.1660    0.9960   20.1770 C   0  0  0  0  0  0  0  0  0  0  0  0
    4.4920    1.6540   19.1190 C   0  0  0  0  0  0  0  0  0  0  0  0
    5.2060    1.4510   17.7930 C   0  0  0  0  0  0  0  0  0  0  0  0
    6.3220    0.7420   17.6120 N   0  0  0  0  0  0  0  0  0  0  0  0
    6.8580    0.1700   18.6830 C   0  0  0  0  0  0  0  0  0  0  0  0
   11.1730   -1.9330   21.8430 S   0  0  0  0  0  0  0  0  0  0  0  0
   12.0280   -2.5990   23.1300 C   0  0  0  0  0  0  0  0  0  0  0  0
   13.3930   -2.6820   23.2280 C   0  0  0  0  0  0  0  0  0  0  0  0
  2  1  1  1
  2  3  1  0
  3  4  1  0
  4  5  1  0
  5  6  1  0
  6  7  2  0
  7  8  1  0
  8  9  1  1
  8 10  1  0
 10 11  1  0
 11 12  2  0
 11 13  1  0
 13 14  1  0
 14 15  2  0
 15 16  1  0
 16 17  2  0
 17 18  1  0
 14 19  1  0
 18 19  2  0
  7 20  1  0
  5 21  2  0
 20 21  1  0
  2 22  1  0
 21 22  1  0
M  END
