pyridine_urea_1432
     RDKit          3D

 19 21  0  0  0  0  0  0  0  0999 V2000
    8.2660    1.3130   20.8290 O   0  0  0  0  0  0  0  0  0  0  0  0
    8.2990    0.1610   21.2640 C   0  0  0  0  0  0  0  0  0  0  0  0
    7.2590   -0.6770   21.0230 N   0  0  0  0  0  0  0  0  0  0  0  0
    6.5600   -0.0750   19.9380 C   0  0  0  0  0  0  0  0  0  0  0  0
    5.2840    0.7090   20.2810 C   0  0  0  0  0  0  0  0  0  0  0  0
    4.5760    1.3560   19.2740 C   0  0  0  0  0  0  0  0  0  0  0  0
    5.0720    1.2570   17.9780 C   0  0  0  0  0  0  0  0  0  0  0  0
    6.2060    0.5370   17.7180 N   0  0  0  0  0  0  0  0  0  0  0  0
    6.9630   -0.1370   18.6750 C   0  0  0  0  0  0  0  0  0  0  0  0
    9.3590   -0.3030   21.9470 N   0  0  0  0  0  0  0  0  0  0  0  0
   10.5030   -0.4410   22.6090 C   0  0  0  0  0  0  0  0  0  0  0  0
   11.4660   -1.3000   22.1120 C   0  0  0  0  0  0  0  0  0  0  0  0
   12.6500   -1.3920   22.8020 C   0  0  0  0  0  0  0  0  0  0  0  0
   12.8360   -0.6390   23.9620 C   0  0  0  0  0  0  0  0  0  0  0  0
   11.9550    0.2070   24.5100 N   0  0  0  0  0  0  0  0  0  0  0  0
   10.7700    0.2600   23.7510 C   0  0  0  0  0  0  0  0  0  0  0  0
    9.6820    1.1860   24.2400 C   0  0  0  0  0  0  0  0  0  0  0  0
    9.7060    2.4470   24.2000 C   0  0  0  0  0  0  0  0  0  0  0  0
    9.0960    1.8770   22.9830 C   0  0  0  0  0  0  0  0  0  0  0  0
  1  2  2  0
  2  3  1  0
  3  4  1  0
  4  5  2  0
  5  6  1  0
  6  7  2  0
  7  8  1  0
  4  9  1  0
  8  9  2  0
  2 10  1  0
 10 11  1  0
 11 12  2  0
 12 13  1  0
 13 14  2  0
 14 15  1  0
 11 16  1  0
 15 16  2  0
 16 17  1  0
 17 18  1  0
 17 19  1  0
 18 19  1  0
M  END
