pyridine_urea_13864
     RDKit          3D

 24 26  0  0  0  0  0  0  0  0999 V2000
    9.1340    0.6240   21.3790 O   0  0  0  0  0  0  0  0  0  0  0  0
    8.4240   -0.2960   21.7500 C   0  0  0  0  0  0  0  0  0  0  0  0
    8.7770   -1.0950   22.8300 N   0  0  0  0  0  0  0  0  0  0  0  0
    8.7590   -2.5580   22.7850 C   0  0  0  0  0  0  0  0  0  0  0  0
    7.6120   -3.1780   23.6050 C   0  0  0  0  0  0  0  0  0  0  0  0
    7.1140   -2.4610   24.7540 N   0  0  0  0  0  0  0  0  0  0  0  0
    6.0900   -3.2350   25.2970 N   0  0  0  0  0  0  0  0  0  0  0  0
    5.9610   -4.3270   24.5580 C   0  0  0  0  0  0  0  0  0  0  0  0
    6.9160   -4.3390   23.4620 N   0  0  0  0  0  0  0  0  0  0  0  0
    6.9550   -5.3950   22.5660 C   0  0  0  0  0  0  0  0  0  0  0  0
    5.6940   -6.2740   22.6690 C   0  0  0  0  0  0  0  0  0  0  0  0
    4.6190   -5.6460   23.5110 C   0  0  0  0  0  0  0  0  0  0  0  0
    5.0310   -5.3460   24.7810 C   0  0  2  0  0  0  0  0  0  0  0  0
    3.6550   -4.7970   25.1030 C   0  0  0  0  0  0  0  0  0  0  0  0
    3.2780   -3.7970   24.2600 F   0  0  0  0  0  0  0  0  0  0  0  0
    3.5600   -4.2880   26.3590 F   0  0  0  0  0  0  0  0  0  0  0  0
    2.6890   -5.7540   25.0170 F   0  0  0  0  0  0  0  0  0  0  0  0
    7.2050   -0.6660   21.2170 N   0  0  0  0  0  0  0  0  0  0  0  0
    6.5140   -0.0030   20.1860 C   0  0  0  0  0  0  0  0  0  0  0  0
    5.3590    0.7070   20.4910 C   0  0  0  0  0  0  0  0  0  0  0  0
    4.6850    1.3610   19.4800 C   0  0  0  0  0  0  0  0  0  0  0  0
    5.2110    1.2880   18.0830 C   0  0  0  0  0  0  0  0  0  0  0  0
    6.3350    0.6060   17.7120 N   0  0  0  0  0  0  0  0  0  0  0  0
    6.9630   -0.0320   18.8010 C   0  0  0  0  0  0  0  0  0  0  0  0
  1  2  2  0
  2  3  1  0
  3  4  1  0
  4  5  1  0
  5  6  2  0
  6  7  1  0
  7  8  2  0
  5  9  1  0
  8  9  1  0
  9 10  1  0
 10 11  1  0
 11 12  1  0
  8 13  1  0
 12 13  1  0
 13 14  1  1
 14 15  1  0
 14 16  1  0
 14 17  1  0
  2 18  1  0
 18 19  1  0
 19 20  2  0
 20 21  1  0
 21 22  2  0
 22 23  1  0
 19 24  1  0
 23 24  2  0
M  END
