pyridine_urea_3587
     RDKit          3D

 17 18  0  0  0  0  0  0  0  0999 V2000
    8.7720    1.2100   21.5760 O   0  0  0  0  0  0  0  0  0  0  0  0
    8.4650    0.0440   21.3920 C   0  0  0  0  0  0  0  0  0  0  0  0
    7.1800   -0.4210   21.2260 N   0  0  0  0  0  0  0  0  0  0  0  0
    6.4940    0.1620   20.1100 C   0  0  0  0  0  0  0  0  0  0  0  0
    5.2280    0.9540   20.4080 C   0  0  0  0  0  0  0  0  0  0  0  0
    4.5120    1.5960   19.2260 C   0  0  0  0  0  0  0  0  0  0  0  0
    5.1610    1.3670   17.8640 C   0  0  0  0  0  0  0  0  0  0  0  0
    6.3250    0.6030   17.7580 N   0  0  0  0  0  0  0  0  0  0  0  0
    6.9540    0.0290   18.8200 C   0  0  0  0  0  0  0  0  0  0  0  0
    9.3650   -0.9640   21.2760 N   0  0  0  0  0  0  0  0  0  0  0  0
   10.3220   -1.2200   22.2480 C   0  0  0  0  0  0  0  0  0  0  0  0
   10.1730   -1.0210   23.5890 C   0  0  0  0  0  0  0  0  0  0  0  0
   11.1490   -1.3500   24.4740 C   0  0  0  0  0  0  0  0  0  0  0  0
   12.3070   -1.8840   23.9880 C   0  0  0  0  0  0  0  0  0  0  0  0
   13.6150   -2.4140   25.2140 Br  0  0  0  0  0  0  0  0  0  0  0  0
   12.5460   -2.0840   22.6850 N   0  0  0  0  0  0  0  0  0  0  0  0
   11.5450   -1.7480   21.8500 C   0  0  0  0  0  0  0  0  0  0  0  0
  1  2  2  0
  2  3  1  0
  3  4  1  0
  4  5  2  0
  5  6  1  0
  6  7  2  0
  7  8  1  0
  4  9  1  0
  8  9  2  0
  2 10  1  0
 10 11  1  0
 11 12  2  0
 12 13  1  0
 13 14  2  0
 14 15  1  0
 14 16  1  0
 11 17  1  0
 16 17  2  0
M  END
