pyridine_urea_8064
     RDKit          3D

 24 25  0  0  0  0  0  0  0  0999 V2000
   10.1380   -0.8660   21.4740 C   0  0  0  0  0  0  0  0  0  0  0  0
   10.5100   -1.0440   22.8580 C   0  0  0  0  0  0  0  0  0  0  0  0
   12.0400   -0.6070   22.9540 C   0  0  0  0  0  0  0  0  0  0  0  0
    9.5740   -0.1930   23.6500 C   0  0  0  0  0  0  0  0  0  0  0  0
    8.3850   -0.0400   22.9240 N   0  0  0  0  0  0  0  0  0  0  0  0
    8.1360    0.2940   21.6210 C   0  0  0  0  0  0  0  0  0  0  0  0
    8.7090    1.2960   21.1540 O   0  0  0  0  0  0  0  0  0  0  0  0
    7.2660   -0.5160   20.9780 N   0  0  0  0  0  0  0  0  0  0  0  0
    6.5440    0.1050   20.0450 C   0  0  0  0  0  0  0  0  0  0  0  0
    5.2600    0.8970   20.3010 C   0  0  0  0  0  0  0  0  0  0  0  0
    4.4880    1.6040   19.1960 C   0  0  0  0  0  0  0  0  0  0  0  0
    5.1570    1.4180   17.8480 C   0  0  0  0  0  0  0  0  0  0  0  0
    6.3010    0.6850   17.7040 N   0  0  0  0  0  0  0  0  0  0  0  0
    6.9720    0.0490   18.7420 C   0  0  0  0  0  0  0  0  0  0  0  0
   10.1840   -2.7730   22.9950 S   0  0  0  0  0  0  0  0  0  0  0  0
    9.2970   -3.1110   21.9190 O   0  0  0  0  0  0  0  0  0  0  0  0
   11.4970   -3.2850   23.0390 O   0  0  0  0  0  0  0  0  0  0  0  0
    9.2460   -3.3190   24.4780 C   0  0  0  0  0  0  0  0  0  0  0  0
    8.1180   -2.4750   25.0350 C   0  0  0  0  0  0  0  0  0  0  0  0
    7.4300   -2.9630   26.1550 C   0  0  0  0  0  0  0  0  0  0  0  0
    7.7970   -4.2020   26.7190 C   0  0  0  0  0  0  0  0  0  0  0  0
    6.8840   -4.9020   28.2290 Br  0  0  0  0  0  0  0  0  0  0  0  0
    8.8410   -4.9640   26.1970 C   0  0  0  0  0  0  0  0  0  0  0  0
    9.5510   -4.5300   25.1050 C   0  0  0  0  0  0  0  0  0  0  0  0
  2  1  1  0
  2  3  1  0
  2  4  1  0
  4  5  1  0
  5  6  1  0
  6  7  2  0
  6  8  1  0
  8  9  1  0
  9 10  2  0
 10 11  1  0
 11 12  2  0
 12 13  1  0
  9 14  1  0
 13 14  2  0
  2 15  1  0
 15 16  2  0
 15 17  2  0
 15 18  1  0
 18 19  2  0
 19 20  1  0
 20 21  2  0
 21 22  1  0
 21 23  1  0
 18 24  1  0
 23 24  2  0
M  END
