pyridine_urea_2250
     RDKit          3D

 26 28  0  0  0  0  0  0  0  0999 V2000
   12.1350   -2.1460   21.6430 C   0  0  0  0  0  0  0  0  0  0  0  0
   11.6210   -0.8660   22.3190 C   0  0  0  0  0  0  0  0  0  0  0  0
   12.6640    0.2030   22.6290 C   0  0  0  0  0  0  0  0  0  0  0  0
   12.2350    1.5200   23.2680 C   0  0  0  0  0  0  0  0  0  0  0  0
   13.0080    2.3780   23.4640 O   0  0  0  0  0  0  0  0  0  0  0  0
   12.8740    3.4190   22.5800 C   0  0  0  0  0  0  0  0  0  0  0  0
   12.2620    4.5510   23.0830 C   0  0  0  0  0  0  0  0  0  0  0  0
   12.8990    5.7970   23.0700 C   0  0  0  0  0  0  0  0  0  0  0  0
   12.2810    6.9360   23.5700 C   0  0  0  0  0  0  0  0  0  0  0  0
   11.0190    6.8660   24.0920 C   0  0  0  0  0  0  0  0  0  0  0  0
   10.3140    5.6930   24.1450 C   0  0  0  0  0  0  0  0  0  0  0  0
    9.0680    5.7840   24.6940 F   0  0  0  0  0  0  0  0  0  0  0  0
   10.8030    4.4510   23.6780 C   0  0  0  0  0  0  0  0  0  0  0  0
   10.8390    1.6790   23.6080 C   0  0  0  0  0  0  0  0  0  0  0  0
    9.8250    0.6350   23.3000 C   0  0  0  0  0  0  0  0  0  0  0  0
   10.1500   -0.5430   22.6800 C   0  0  0  0  0  0  0  0  0  0  0  0
    9.0570   -1.3480   22.3870 N   0  0  0  0  0  0  0  0  0  0  0  0
    8.2260   -0.5740   21.5820 C   0  0  0  0  0  0  0  0  0  0  0  0
    8.6060    0.7660   21.1970 O   0  0  0  0  0  0  0  0  0  0  0  0
    7.0370   -1.0730   21.1410 N   0  0  0  0  0  0  0  0  0  0  0  0
    6.4160   -0.3420   20.1600 C   0  0  0  0  0  0  0  0  0  0  0  0
    5.2160    0.2960   20.4790 C   0  0  0  0  0  0  0  0  0  0  0  0
    4.5160    1.1400   19.3920 C   0  0  0  0  0  0  0  0  0  0  0  0
    5.1980    1.2160   18.0370 C   0  0  0  0  0  0  0  0  0  0  0  0
    6.3440    0.5920   17.7590 N   0  0  0  0  0  0  0  0  0  0  0  0
    6.9320   -0.1410   18.7270 C   0  0  0  0  0  0  0  0  0  0  0  0
  1  2  1  0
  2  3  2  0
  3  4  1  0
  4  5  1  0
  5  6  1  0
  6  7  1  0
  7  8  2  0
  8  9  1  0
  9 10  2  0
 10 11  1  0
 11 12  1  0
  7 13  1  0
 11 13  2  0
  4 14  2  0
 14 15  1  0
  2 16  1  0
 15 16  2  0
 16 17  1  0
 17 18  1  0
 18 19  2  0
 18 20  1  0
 20 21  1  0
 21 22  2  0
 22 23  1  0
 23 24  2  0
 24 25  1  0
 21 26  1  0
 25 26  2  0
M  END
