pyridine_urea_14060
     RDKit          3D

 23 25  0  0  0  0  0  0  0  0999 V2000
    8.5570    0.9090   21.1390 O   0  0  0  0  0  0  0  0  0  0  0  0
    8.1930   -0.1920   21.5320 C   0  0  0  0  0  0  0  0  0  0  0  0
    7.0290   -0.7730   21.1060 N   0  0  0  0  0  0  0  0  0  0  0  0
    6.4110   -0.0730   20.0070 C   0  0  0  0  0  0  0  0  0  0  0  0
    5.1230    0.6750   20.3190 C   0  0  0  0  0  0  0  0  0  0  0  0
    4.5340    1.3950   19.1580 C   0  0  0  0  0  0  0  0  0  0  0  0
    5.1810    1.3310   17.9360 C   0  0  0  0  0  0  0  0  0  0  0  0
    6.3200    0.6470   17.7200 N   0  0  0  0  0  0  0  0  0  0  0  0
    6.9020   -0.0280   18.7280 C   0  0  0  0  0  0  0  0  0  0  0  0
    8.9150   -0.9350   22.4250 N   0  0  0  0  0  0  0  0  0  0  0  0
   10.2320   -0.3540   22.7120 C   0  0  2  0  0  0  0  0  0  0  0  0
   11.2340   -1.2240   22.5520 C   0  0  0  0  0  0  0  0  0  0  0  0
   12.1300   -0.0170   22.3960 C   0  0  0  0  0  0  0  0  0  0  0  0
   12.4520    0.5730   23.5050 C   0  0  2  0  0  0  0  0  0  0  0  0
   13.5390    1.3570   23.0670 O   0  0  0  0  0  0  0  0  0  0  0  0
   12.8500   -0.5900   24.0480 C   0  0  0  0  0  0  0  0  0  0  0  0
   13.1960   -1.5030   23.1010 C   0  0  0  0  0  0  0  0  0  0  0  0
   13.6700   -2.9160   23.2030 C   0  0  0  0  0  0  0  0  0  0  0  0
   13.6410   -2.9880   24.7180 C   0  0  0  0  0  0  0  0  0  0  0  0
   13.3310   -2.1570   25.6810 N   0  0  0  0  0  0  0  0  0  0  0  0
   12.9100   -0.8850   25.3200 C   0  0  0  0  0  0  0  0  0  0  0  0
   11.2620    1.1200   23.9310 C   0  0  0  0  0  0  0  0  0  0  0  0
   10.3090    0.1480   24.1620 C   0  0  0  0  0  0  0  0  0  0  0  0
  1  2  2  0
  2  3  1  0
  3  4  1  0
  4  5  2  0
  5  6  1  0
  6  7  2  0
  7  8  1  0
  4  9  1  0
  8  9  2  0
  2 10  1  0
 11 10  1  1
 11 12  1  0
 12 13  1  0
 13 14  1  0
 14 15  1  6
 14 16  1  0
 16 17  2  0
 17 18  1  0
 18 19  2  0
 19 20  1  0
 16 21  1  0
 20 21  2  0
 14 22  1  0
 11 23  1  0
 22 23  1  0
M  END
