pyridine_urea_14006
     RDKit          3D

 23 24  0  0  0  0  0  0  0  0999 V2000
   13.7760   -2.5280   25.5010 C   0  0  0  0  0  0  0  0  0  0  0  0
   13.3460   -1.1700   25.6770 O   0  0  0  0  0  0  0  0  0  0  0  0
   12.0780   -0.9200   25.1170 C   0  0  0  0  0  0  0  0  0  0  0  0
   12.0270   -1.0980   23.6450 C   0  0  0  0  0  0  0  0  0  0  0  0
   10.7800   -0.7180   24.2820 C   0  0  0  0  0  0  0  0  0  0  0  0
    9.6420   -0.5660   23.6060 C   0  0  0  0  0  0  0  0  0  0  0  0
   10.4330   -0.9640   22.4000 C   0  0  2  0  0  0  0  0  0  0  0  0
   11.6470   -0.1160   22.5310 C   0  0  0  0  0  0  0  0  0  0  0  0
   12.8040   -0.6960   22.1640 C   0  0  0  0  0  0  0  0  0  0  0  0
   12.7260   -1.9440   21.4200 N   0  0  0  0  0  0  0  0  0  0  0  0
   13.7860   -0.0680   22.4970 O   0  0  0  0  0  0  0  0  0  0  0  0
    9.5740   -0.7140   21.3560 N   0  0  0  0  0  0  0  0  0  0  0  0
    8.5520    0.2530   21.3030 C   0  0  0  0  0  0  0  0  0  0  0  0
    8.7530    1.4690   21.2700 O   0  0  0  0  0  0  0  0  0  0  0  0
    7.3250   -0.3220   21.2180 N   0  0  0  0  0  0  0  0  0  0  0  0
    6.5380    0.2090   20.2410 C   0  0  0  0  0  0  0  0  0  0  0  0
    5.3700    0.9320   20.4780 C   0  0  0  0  0  0  0  0  0  0  0  0
    4.6720    1.4370   19.4080 C   0  0  0  0  0  0  0  0  0  0  0  0
    5.1720    1.2020   18.0210 C   0  0  0  0  0  0  0  0  0  0  0  0
    6.2830    0.5020   17.7570 N   0  0  0  0  0  0  0  0  0  0  0  0
    6.9530    0.0130   18.8320 C   0  0  0  0  0  0  0  0  0  0  0  0
    9.6600   -0.3310   25.1000 C   0  0  0  0  0  0  0  0  0  0  0  0
   10.8450   -0.5310   25.7580 N   0  0  0  0  0  0  0  0  0  0  0  0
  1  2  1  0
  2  3  1  0
  3  4  2  0
  4  5  1  0
  5  6  2  0
  6  7  1  0
  7  8  1  6
  8  9  1  0
  9 10  1  0
  9 11  2  0
  7 12  1  0
 12 13  1  0
 13 14  2  0
 13 15  1  0
 15 16  1  0
 16 17  2  0
 17 18  1  0
 18 19  2  0
 19 20  1  0
 16 21  1  0
 20 21  2  0
  6 22  1  0
  3 23  1  0
 22 23  2  0
M  END
