pyridine_urea_3872
     RDKit          3D

 24 25  0  0  0  0  0  0  0  0999 V2000
    8.6430    1.2510   20.9250 O   0  0  0  0  0  0  0  0  0  0  0  0
    8.2280    0.1670   21.3520 C   0  0  0  0  0  0  0  0  0  0  0  0
    8.7630   -0.4310   22.4160 N   0  0  0  0  0  0  0  0  0  0  0  0
    9.3560    0.3750   23.3650 C   0  0  0  0  0  0  0  0  0  0  0  0
   10.3690   -0.1600   24.0840 C   0  0  1  0  0  0  0  0  0  0  0  0
    9.9310   -0.1000   25.4690 O   0  0  0  0  0  0  0  0  0  0  0  0
    8.4830   -0.0220   25.5830 C   0  0  0  0  0  0  0  0  0  0  0  0
    8.0580   -0.2450   26.8810 C   0  0  0  0  0  0  0  0  0  0  0  0
    7.2000   -1.1200   26.8730 O   0  0  0  0  0  0  0  0  0  0  0  0
   10.5810   -1.6500   23.8060 C   0  0  0  0  0  0  0  0  0  0  0  0
   11.2450   -1.3410   22.6160 C   0  0  0  0  0  0  0  0  0  0  0  0
   12.7150   -1.1990   22.9410 C   0  0  2  0  0  0  0  0  0  0  0  0
   13.2300   -2.2180   23.7360 C   0  0  0  0  0  0  0  0  0  0  0  0
   12.3590   -3.1840   24.0180 F   0  0  0  0  0  0  0  0  0  0  0  0
   13.4580   -1.7140   24.9680 F   0  0  0  0  0  0  0  0  0  0  0  0
   12.8140    0.0480   23.8090 C   0  0  0  0  0  0  0  0  0  0  0  0
   11.6090    0.7400   23.8060 C   0  0  0  0  0  0  0  0  0  0  0  0
    7.1690   -0.5270   20.8560 N   0  0  0  0  0  0  0  0  0  0  0  0
    6.3550    0.1350   19.9600 C   0  0  0  0  0  0  0  0  0  0  0  0
    5.1400    0.7400   20.2800 C   0  0  0  0  0  0  0  0  0  0  0  0
    4.5040    1.4170   19.1180 C   0  0  0  0  0  0  0  0  0  0  0  0
    5.1780    1.3940   17.7770 C   0  0  0  0  0  0  0  0  0  0  0  0
    6.3310    0.7680   17.5980 N   0  0  0  0  0  0  0  0  0  0  0  0
    6.8690    0.1720   18.6700 C   0  0  0  0  0  0  0  0  0  0  0  0
  1  2  2  0
  2  3  1  0
  3  4  1  0
  5  4  1  6
  5  6  1  0
  6  7  1  0
  7  8  1  0
  8  9  1  0
  5 10  1  0
 10 11  1  0
 11 12  1  0
 12 13  1  1
 13 14  1  0
 13 15  1  0
 12 16  1  0
  5 17  1  0
 16 17  1  0
  2 18  1  0
 18 19  1  0
 19 20  2  0
 20 21  1  0
 21 22  2  0
 22 23  1  0
 19 24  1  0
 23 24  2  0
M  END
