pyridine_urea_5957
     RDKit          3D

 26 28  0  0  0  0  0  0  0  0999 V2000
   12.5850   -1.7950   20.9610 C   0  0  0  0  0  0  0  0  0  0  0  0
   12.1030   -1.6440   22.3430 C   0  0  0  0  0  0  0  0  0  0  0  0
   13.0660   -1.6450   23.3280 C   0  0  0  0  0  0  0  0  0  0  0  0
   12.7340   -1.5360   24.6490 C   0  0  0  0  0  0  0  0  0  0  0  0
   13.5650   -1.5210   25.6440 O   0  0  0  0  0  0  0  0  0  0  0  0
   14.7230   -2.3670   25.6910 C   0  0  0  0  0  0  0  0  0  0  0  0
   16.3050   -1.8730   26.1620 C   0  0  0  0  0  0  0  0  0  0  0  0
   18.1560   -1.7970   25.8000 N   0  0  0  0  0  0  0  0  0  0  0  0
   19.4150   -2.0930   26.6420 C   0  0  0  0  0  0  0  0  0  0  0  0
   20.3970   -0.9820   26.2850 C   0  0  0  0  0  0  0  0  0  0  0  0
   20.0150   -0.5990   25.0460 N   0  0  0  0  0  0  0  0  0  0  0  0
   18.8980   -1.1690   24.6700 C   0  0  0  0  0  0  0  0  0  0  0  0
   18.8650   -0.9560   23.5490 O   0  0  0  0  0  0  0  0  0  0  0  0
   11.3440   -1.4370   24.9130 C   0  0  0  0  0  0  0  0  0  0  0  0
   10.3520   -1.4290   23.9190 C   0  0  0  0  0  0  0  0  0  0  0  0
   10.7020   -1.5200   22.5970 C   0  0  0  0  0  0  0  0  0  0  0  0
    9.7420   -1.5010   21.6060 N   0  0  0  0  0  0  0  0  0  0  0  0
    8.8240   -0.3960   21.4390 C   0  0  0  0  0  0  0  0  0  0  0  0
    9.1530    0.9330   21.6210 O   0  0  0  0  0  0  0  0  0  0  0  0
    7.5550   -0.8130   21.0830 N   0  0  0  0  0  0  0  0  0  0  0  0
    6.8110   -0.1720   20.0970 C   0  0  0  0  0  0  0  0  0  0  0  0
    5.8200    0.6790   20.5880 C   0  0  0  0  0  0  0  0  0  0  0  0
    5.0190    1.3650   19.6570 C   0  0  0  0  0  0  0  0  0  0  0  0
    5.2580    1.1620   18.2920 C   0  0  0  0  0  0  0  0  0  0  0  0
    6.1870    0.3620   17.8190 N   0  0  0  0  0  0  0  0  0  0  0  0
    6.9570   -0.3040   18.7260 C   0  0  0  0  0  0  0  0  0  0  0  0
  1  2  1  0
  2  3  2  0
  3  4  1  0
  4  5  1  0
  5  6  1  0
  6  7  1  0
  7  8  1  0
  8  9  1  0
  9 10  1  0
 10 11  1  0
  8 12  1  0
 11 12  1  0
 12 13  2  0
  4 14  2  0
 14 15  1  0
  2 16  1  0
 15 16  2  0
 16 17  1  0
 17 18  1  0
 18 19  2  0
 18 20  1  0
 20 21  1  0
 21 22  2  0
 22 23  1  0
 23 24  2  0
 24 25  1  0
 21 26  1  0
 25 26  2  0
M  END
