pyridine_urea_13643
     RDKit          3D

 26 28  0  0  0  0  0  0  0  0999 V2000
   10.7540    3.5120   23.5010 C   0  0  0  0  0  0  0  0  0  0  0  0
   10.0940    2.1500   23.1420 C   0  0  0  0  0  0  0  0  0  0  0  0
    9.4650    2.5140   21.8020 C   0  0  0  0  0  0  0  0  0  0  0  0
    8.8540    1.8730   24.0780 C   0  0  0  0  0  0  0  0  0  0  0  0
   11.2610    0.9710   22.9940 C   0  0  0  0  0  0  0  0  0  0  0  0
   11.8710    2.1220   23.0100 C   0  0  0  0  0  0  0  0  0  0  0  0
   12.2760    0.8880   22.9070 C   0  0  0  0  0  0  0  0  0  0  0  0
   11.3800   -0.3210   22.9470 C   0  0  0  0  0  0  0  0  0  0  0  0
   10.0180   -0.6600   23.1040 C   0  0  0  0  0  0  0  0  0  0  0  0
    9.1440    0.2910   23.4390 C   0  0  0  0  0  0  0  0  0  0  0  0
    7.8780   -0.1520   22.9640 N   0  0  0  0  0  0  0  0  0  0  0  0
    7.7130    0.0660   21.5500 C   0  0  0  0  0  0  0  0  0  0  0  0
    8.4090    0.8310   20.9230 O   0  0  0  0  0  0  0  0  0  0  0  0
    6.6950   -0.6120   21.0010 N   0  0  0  0  0  0  0  0  0  0  0  0
    6.1760    0.0420   19.9180 C   0  0  0  0  0  0  0  0  0  0  0  0
    4.8840    0.8150   20.0490 C   0  0  0  0  0  0  0  0  0  0  0  0
    4.4490    1.4700   18.9470 C   0  0  0  0  0  0  0  0  0  0  0  0
    5.1470    1.4360   17.7580 C   0  0  0  0  0  0  0  0  0  0  0  0
    6.2970    0.7460   17.6080 N   0  0  0  0  0  0  0  0  0  0  0  0
    6.7800    0.0710   18.6790 C   0  0  0  0  0  0  0  0  0  0  0  0
   10.0340   -0.9690   21.6000 C   0  0  0  0  0  0  0  0  0  0  0  0
    9.0880   -2.1140   21.2990 C   0  0  0  0  0  0  0  0  0  0  0  0
    8.5820   -2.4550   22.6320 C   0  0  0  0  0  0  0  0  0  0  0  0
    9.5680   -1.9800   23.4280 C   0  0  0  0  0  0  0  0  0  0  0  0
   12.4140   -0.8200   22.7840 C   0  0  0  0  0  0  0  0  0  0  0  0
   12.8280    0.4920   22.8290 C   0  0  0  0  0  0  0  0  0  0  0  0
  2  1  1  0
  2  3  1  0
  2  4  1  0
  2  5  1  0
  5  6  2  0
  6  7  1  0
  7  8  2  0
  8  9  1  0
  9 10  1  0
 10 11  1  0
 11 12  1  0
 12 13  2  0
 12 14  1  0
 14 15  1  0
 15 16  2  0
 16 17  1  0
 17 18  2  0
 18 19  1  0
 15 20  1  0
 19 20  2  0
  9 21  1  0
 21 22  1  0
 22 23  1  0
  9 24  1  0
 23 24  1  0
  8 25  1  0
  5 26  1  0
 25 26  2  0
M  END
