pyridine_urea_859
     RDKit          3D

 22 23  0  0  0  0  0  0  0  0999 V2000
    8.4300   -1.3440   23.8360 C   0  0  0  0  0  0  0  0  0  0  0  0
    9.7770   -1.8630   24.2290 C   0  0  0  0  0  0  0  0  0  0  0  0
   11.2820   -1.6920   23.9790 N   0  0  0  0  0  0  0  0  0  0  0  0
   11.8090   -0.6370   23.0240 C   0  0  0  0  0  0  0  0  0  0  0  0
   12.9200   -1.2540   23.4590 C   0  0  0  0  0  0  0  0  0  0  0  0
   13.3420   -2.6560   24.5510 S   0  0  0  0  0  0  0  0  0  0  0  0
   13.9780   -2.1630   26.0030 N   0  0  0  0  0  0  0  0  0  0  0  0
   12.1410   -3.3780   24.8890 O   0  0  0  0  0  0  0  0  0  0  0  0
   14.3790   -3.3200   23.8610 O   0  0  0  0  0  0  0  0  0  0  0  0
   11.7500   -1.6200   23.8710 C   0  0  0  0  0  0  0  0  0  0  0  0
   10.4080   -1.1040   23.4770 C   0  0  0  0  0  0  0  0  0  0  0  0
   10.0600   -0.0700   22.4920 C   0  0  0  0  0  0  0  0  0  0  0  0
    9.2650   -0.5730   21.5800 N   0  0  0  0  0  0  0  0  0  0  0  0
    8.3480    0.2880   21.2140 C   0  0  0  0  0  0  0  0  0  0  0  0
    8.6260    1.4760   21.0490 O   0  0  0  0  0  0  0  0  0  0  0  0
    7.1140   -0.2090   21.0000 N   0  0  0  0  0  0  0  0  0  0  0  0
    6.3340    0.3130   20.0070 C   0  0  0  0  0  0  0  0  0  0  0  0
    5.1230    0.9550   20.1610 C   0  0  0  0  0  0  0  0  0  0  0  0
    4.4660    1.4770   19.0610 C   0  0  0  0  0  0  0  0  0  0  0  0
    5.0790    1.3200   17.8380 C   0  0  0  0  0  0  0  0  0  0  0  0
    6.2420    0.6860   17.6540 N   0  0  0  0  0  0  0  0  0  0  0  0
    6.8400    0.1980   18.7380 C   0  0  0  0  0  0  0  0  0  0  0  0
  1  2  1  0
  2  3  2  0
  3  4  1  0
  4  5  2  0
  5  6  1  0
  6  7  1  0
  6  8  2  0
  6  9  2  0
  5 10  1  0
  2 11  1  0
 10 11  2  0
 11 12  1  0
 12 13  1  0
 13 14  1  0
 14 15  2  0
 14 16  1  0
 16 17  1  0
 17 18  2  0
 18 19  1  0
 19 20  2  0
 20 21  1  0
 17 22  1  0
 21 22  2  0
M  END
