pyridine_urea_4734
     RDKit          3D

 22 24  0  0  0  0  0  0  0  0999 V2000
    9.0030    1.1690   21.2500 O   0  0  0  0  0  0  0  0  0  0  0  0
    8.5390    0.0750   21.6010 C   0  0  0  0  0  0  0  0  0  0  0  0
    9.1010   -0.6740   22.6230 N   0  0  0  0  0  0  0  0  0  0  0  0
   10.1730   -1.6300   22.3790 C   0  0  0  0  0  0  0  0  0  0  0  0
   11.5720   -1.1610   22.8470 C   0  0  0  0  0  0  0  0  0  0  0  0
   11.7970    0.1970   22.8390 C   0  0  0  0  0  0  0  0  0  0  0  0
   10.6210    0.9050   22.8610 N   0  0  0  0  0  0  0  0  0  0  0  0
   10.9380    2.2370   22.8360 C   0  0  0  0  0  0  0  0  0  0  0  0
   10.0700    3.3150   22.8410 C   0  0  0  0  0  0  0  0  0  0  0  0
   10.6700    4.5650   22.8070 C   0  0  0  0  0  0  0  0  0  0  0  0
   12.0530    4.7610   22.7680 C   0  0  0  0  0  0  0  0  0  0  0  0
   12.7100    6.3420   22.7250 Cl  0  0  0  0  0  0  0  0  0  0  0  0
   12.8890    3.6580   22.7640 C   0  0  0  0  0  0  0  0  0  0  0  0
   12.3000    2.3960   22.8020 C   0  0  0  0  0  0  0  0  0  0  0  0
   12.8580    1.1000   22.8110 N   0  0  0  0  0  0  0  0  0  0  0  0
    7.4120   -0.5220   21.0680 N   0  0  0  0  0  0  0  0  0  0  0  0
    6.6410    0.0680   20.0150 C   0  0  0  0  0  0  0  0  0  0  0  0
    5.4020    0.8330   20.3520 C   0  0  0  0  0  0  0  0  0  0  0  0
    4.6410    1.4320   19.3690 C   0  0  0  0  0  0  0  0  0  0  0  0
    5.1480    1.2510   18.0480 C   0  0  0  0  0  0  0  0  0  0  0  0
    6.2500    0.5610   17.7200 N   0  0  0  0  0  0  0  0  0  0  0  0
    6.9760   -0.0180   18.7000 C   0  0  0  0  0  0  0  0  0  0  0  0
  1  2  2  0
  2  3  1  0
  3  4  1  0
  4  5  1  0
  5  6  1  0
  6  7  2  0
  7  8  1  0
  8  9  2  0
  9 10  1  0
 10 11  2  0
 11 12  1  0
 11 13  1  0
  8 14  1  0
 13 14  2  0
  6 15  1  0
 14 15  1  0
  2 16  1  0
 16 17  1  0
 17 18  2  0
 18 19  1  0
 19 20  2  0
 20 21  1  0
 17 22  1  0
 21 22  2  0
M  END
