pyridine_urea_10363
     RDKit          3D

 22 24  0  0  0  0  0  0  0  0999 V2000
   10.0260   -2.9580   23.8300 C   0  0  0  0  0  0  0  0  0  0  0  0
   10.0570   -1.6140   23.0720 C   0  0  0  0  0  0  0  0  0  0  0  0
    9.4690   -2.0110   21.7060 C   0  0  0  0  0  0  0  0  0  0  0  0
   11.5290   -0.9970   22.7770 C   0  0  0  0  0  0  0  0  0  0  0  0
   11.4660    0.4020   23.3530 C   0  0  0  0  0  0  0  0  0  0  0  0
   12.3140    1.3580   23.4350 C   0  0  0  0  0  0  0  0  0  0  0  0
   13.1130    0.6030   22.8680 C   0  0  0  0  0  0  0  0  0  0  0  0
   12.3520   -0.5980   22.6540 C   0  0  0  0  0  0  0  0  0  0  0  0
   10.9030   -1.0610   22.9710 C   0  0  0  0  0  0  0  0  0  0  0  0
    9.5820   -1.0630   23.4300 C   0  0  0  0  0  0  0  0  0  0  0  0
    8.5990   -1.3030   22.3900 N   0  0  0  0  0  0  0  0  0  0  0  0
    8.1330   -0.2040   21.5530 C   0  0  0  0  0  0  0  0  0  0  0  0
    8.7560    0.8270   21.3230 O   0  0  0  0  0  0  0  0  0  0  0  0
    6.8970   -0.5140   21.0810 N   0  0  0  0  0  0  0  0  0  0  0  0
    6.3380    0.1130   19.9940 C   0  0  0  0  0  0  0  0  0  0  0  0
    5.0600    0.9100   20.1580 C   0  0  0  0  0  0  0  0  0  0  0  0
    4.5630    1.5210   19.0480 C   0  0  0  0  0  0  0  0  0  0  0  0
    5.1920    1.4230   17.8240 C   0  0  0  0  0  0  0  0  0  0  0  0
    6.3260    0.7170   17.6450 N   0  0  0  0  0  0  0  0  0  0  0  0
    6.8670    0.0820   18.7180 C   0  0  0  0  0  0  0  0  0  0  0  0
   10.3700    0.3230   23.6990 C   0  0  0  0  0  0  0  0  0  0  0  0
    9.3940   -0.6640   23.6430 O   0  0  0  0  0  0  0  0  0  0  0  0
  2  1  1  0
  2  3  1  0
  2  4  1  0
  4  5  1  0
  5  6  2  0
  6  7  1  0
  7  8  2  0
  8  9  1  0
  9 10  1  0
 10 11  1  0
 11 12  1  0
 12 13  2  0
 12 14  1  0
 14 15  1  0
 15 16  2  0
 16 17  1  0
 17 18  2  0
 18 19  1  0
 15 20  1  0
 19 20  2  0
  5 21  1  0
  9 21  2  0
  2 22  1  0
 21 22  1  0
M  END
