pyridine_urea_10479
     RDKit          3D

 22 23  0  0  0  0  0  0  0  0999 V2000
    6.9980   -3.9470   28.2990 C   0  0  0  0  0  0  0  0  0  0  0  0
    7.1420   -5.2280   27.4690 C   0  0  0  0  0  0  0  0  0  0  0  0
    8.5280   -5.7650   27.8410 C   0  0  0  0  0  0  0  0  0  0  0  0
    6.0200   -6.2390   27.8690 C   0  0  0  0  0  0  0  0  0  0  0  0
    7.1020   -5.1180   25.7580 S   0  0  0  0  0  0  0  0  0  0  0  0
    8.6990   -4.3120   25.4450 C   0  0  0  0  0  0  0  0  0  0  0  0
    8.6740   -3.2280   24.5900 C   0  0  0  0  0  0  0  0  0  0  0  0
    9.7930   -2.4840   24.2410 C   0  0  0  0  0  0  0  0  0  0  0  0
    9.7400   -1.3850   23.3810 C   0  0  0  0  0  0  0  0  0  0  0  0
    8.8490   -1.5840   22.2650 N   0  0  0  0  0  0  0  0  0  0  0  0
    8.3580   -0.5160   21.5440 C   0  0  0  0  0  0  0  0  0  0  0  0
    8.9750    0.5370   21.4150 O   0  0  0  0  0  0  0  0  0  0  0  0
    7.1150   -0.8030   21.0260 N   0  0  0  0  0  0  0  0  0  0  0  0
    6.4250   -0.0610   20.0520 C   0  0  0  0  0  0  0  0  0  0  0  0
    5.2340    0.6830   20.2940 C   0  0  0  0  0  0  0  0  0  0  0  0
    4.5520    1.4410   19.2760 C   0  0  0  0  0  0  0  0  0  0  0  0
    5.2520    1.3520   17.9300 C   0  0  0  0  0  0  0  0  0  0  0  0
    6.3800    0.6320   17.7400 N   0  0  0  0  0  0  0  0  0  0  0  0
    6.9580   -0.0670   18.7820 C   0  0  0  0  0  0  0  0  0  0  0  0
   10.9820   -2.9330   24.8390 C   0  0  0  0  0  0  0  0  0  0  0  0
   10.9500   -4.0270   25.6880 C   0  0  0  0  0  0  0  0  0  0  0  0
    9.8440   -4.7200   26.0000 N   0  0  0  0  0  0  0  0  0  0  0  0
  1  2  1  0
  2  3  1  0
  2  4  1  0
  2  5  1  0
  5  6  1  0
  6  7  2  0
  7  8  1  0
  8  9  1  0
  9 10  1  0
 10 11  1  0
 11 12  2  0
 11 13  1  0
 13 14  1  0
 14 15  2  0
 15 16  1  0
 16 17  2  0
 17 18  1  0
 14 19  1  0
 18 19  2  0
  8 20  2  0
 20 21  1  0
  6 22  1  0
 21 22  2  0
M  END
