pyridine_urea_4757
     RDKit          3D

 22 23  0  0  0  0  0  0  0  0999 V2000
    9.1300    0.6180   21.9670 O   0  0  0  0  0  0  0  0  0  0  0  0
    8.4990   -0.2960   21.4690 C   0  0  0  0  0  0  0  0  0  0  0  0
    9.0850   -1.4140   20.9700 N   0  0  0  0  0  0  0  0  0  0  0  0
   10.0510   -2.2970   21.6100 C   0  0  0  0  0  0  0  0  0  0  0  0
   11.5170   -1.8620   21.3320 C   0  0  0  0  0  0  0  0  0  0  0  0
   10.9400   -1.6480   22.4650 C   0  0  0  0  0  0  0  0  0  0  0  0
   11.3070   -1.0810   23.5220 C   0  0  0  0  0  0  0  0  0  0  0  0
   10.2810   -1.2630   24.2790 C   0  0  0  0  0  0  0  0  0  0  0  0
   10.6430   -1.2970   25.4780 F   0  0  0  0  0  0  0  0  0  0  0  0
    9.2550   -0.4500   23.9390 F   0  0  0  0  0  0  0  0  0  0  0  0
    9.7990   -2.5190   24.0810 F   0  0  0  0  0  0  0  0  0  0  0  0
   12.5030   -0.4740   23.7260 C   0  0  0  0  0  0  0  0  0  0  0  0
   13.3230   -0.5400   22.7180 C   0  0  0  0  0  0  0  0  0  0  0  0
   12.8950   -1.2050   21.6130 C   0  0  0  0  0  0  0  0  0  0  0  0
   13.8660   -1.2540   20.6170 O   0  0  0  0  0  0  0  0  0  0  0  0
    7.1400   -0.3680   21.2540 N   0  0  0  0  0  0  0  0  0  0  0  0
    6.5200    0.1500   20.1310 C   0  0  0  0  0  0  0  0  0  0  0  0
    5.3890    0.9010   20.4430 C   0  0  0  0  0  0  0  0  0  0  0  0
    4.6840    1.5030   19.2740 C   0  0  0  0  0  0  0  0  0  0  0  0
    5.1460    1.3060   17.9970 C   0  0  0  0  0  0  0  0  0  0  0  0
    6.2410    0.5660   17.7250 N   0  0  0  0  0  0  0  0  0  0  0  0
    6.9240   -0.0130   18.8160 C   0  0  0  0  0  0  0  0  0  0  0  0
  1  2  2  0
  2  3  1  0
  3  4  1  0
  4  5  1  0
  5  6  2  0
  6  7  1  0
  7  8  1  0
  8  9  1  0
  8 10  1  0
  8 11  1  0
  7 12  2  0
 12 13  1  0
  5 14  1  0
 13 14  2  0
 14 15  1  0
  2 16  1  0
 16 17  1  0
 17 18  2  0
 18 19  1  0
 19 20  2  0
 20 21  1  0
 17 22  1  0
 21 22  2  0
M  END
