pyridine_urea_37
     RDKit          3D

 21 23  0  0  0  0  0  0  0  0999 V2000
    8.7680    0.9380   21.1770 O   0  0  0  0  0  0  0  0  0  0  0  0
    8.5060   -0.2230   21.4480 C   0  0  0  0  0  0  0  0  0  0  0  0
    7.2760   -0.7640   21.1370 N   0  0  0  0  0  0  0  0  0  0  0  0
    6.5700   -0.0930   20.0620 C   0  0  0  0  0  0  0  0  0  0  0  0
    5.2930    0.6540   20.4350 C   0  0  0  0  0  0  0  0  0  0  0  0
    4.6180    1.3450   19.3000 C   0  0  0  0  0  0  0  0  0  0  0  0
    5.1840    1.2550   18.0410 C   0  0  0  0  0  0  0  0  0  0  0  0
    6.3100    0.5760   17.7600 N   0  0  0  0  0  0  0  0  0  0  0  0
    6.9660   -0.0710   18.7460 C   0  0  0  0  0  0  0  0  0  0  0  0
    9.3860   -1.0880   22.0720 N   0  0  0  0  0  0  0  0  0  0  0  0
   10.5230   -0.5440   22.8700 C   0  0  0  0  0  0  0  0  0  0  0  0
   10.6020    0.8090   22.8950 C   0  0  0  0  0  0  0  0  0  0  0  0
   12.0640    1.1250   22.8160 C   0  0  0  0  0  0  0  0  0  0  0  0
   12.4300    2.4760   22.8160 C   0  0  0  0  0  0  0  0  0  0  0  0
   11.4610    3.5060   22.8890 C   0  0  0  0  0  0  0  0  0  0  0  0
   11.7610    4.8260   22.8840 O   0  0  0  0  0  0  0  0  0  0  0  0
   10.0120    3.1660   22.9750 N   0  0  0  0  0  0  0  0  0  0  0  0
    9.6710    1.8220   22.9730 C   0  0  0  0  0  0  0  0  0  0  0  0
   12.0180   -0.7320   22.3050 C   0  0  0  0  0  0  0  0  0  0  0  0
   12.2650   -1.3280   23.6030 C   0  0  0  0  0  0  0  0  0  0  0  0
   10.8980   -1.4410   24.1370 C   0  0  0  0  0  0  0  0  0  0  0  0
  1  2  2  0
  2  3  1  0
  3  4  1  0
  4  5  2  0
  5  6  1  0
  6  7  2  0
  7  8  1  0
  4  9  1  0
  8  9  2  0
  2 10  1  0
 11 10  1  0
 11 12  1  0
 12 13  2  0
 13 14  1  0
 14 15  2  0
 15 16  1  0
 15 17  1  0
 12 18  1  0
 17 18  2  0
 11 19  1  0
 19 20  1  0
 11 21  1  0
 20 21  1  0
M  END
