pyridine_urea_1378
     RDKit          3D

 20 21  0  0  0  0  0  0  0  0999 V2000
    8.6950    1.4070   21.0650 O   0  0  0  0  0  0  0  0  0  0  0  0
    8.6020    0.2560   21.4980 C   0  0  0  0  0  0  0  0  0  0  0  0
    7.5150   -0.5170   21.1440 N   0  0  0  0  0  0  0  0  0  0  0  0
    6.7600    0.0110   20.0300 C   0  0  0  0  0  0  0  0  0  0  0  0
    5.5240    0.8620   20.3850 C   0  0  0  0  0  0  0  0  0  0  0  0
    4.7470    1.4340   19.3810 C   0  0  0  0  0  0  0  0  0  0  0  0
    5.1280    1.2100   18.0650 C   0  0  0  0  0  0  0  0  0  0  0  0
    6.2280    0.4410   17.7850 N   0  0  0  0  0  0  0  0  0  0  0  0
    7.0530   -0.1680   18.7370 C   0  0  0  0  0  0  0  0  0  0  0  0
    9.5180   -0.3480   22.3340 N   0  0  0  0  0  0  0  0  0  0  0  0
   10.4830   -0.8590   23.1700 C   0  0  2  0  0  0  0  0  0  0  0  0
   10.2550   -0.4470   24.4850 C   0  0  0  0  0  0  0  0  0  0  0  0
    9.0370   -0.8700   24.9450 F   0  0  0  0  0  0  0  0  0  0  0  0
   11.8760   -0.8960   22.9260 C   0  0  0  0  0  0  0  0  0  0  0  0
   12.6540   -1.8710   22.7730 C   0  0  0  0  0  0  0  0  0  0  0  0
   12.7420   -0.4320   22.7830 C   0  0  0  0  0  0  0  0  0  0  0  0
   11.3400    0.4470   23.0650 C   0  0  0  0  0  0  0  0  0  0  0  0
   12.2240    1.3310   22.8940 C   0  0  0  0  0  0  0  0  0  0  0  0
   12.3880    3.0490   22.8590 Cl  0  0  0  0  0  0  0  0  0  0  0  0
   12.8800    0.2190   22.7640 C   0  0  0  0  0  0  0  0  0  0  0  0
  1  2  2  0
  2  3  1  0
  3  4  1  0
  4  5  2  0
  5  6  1  0
  6  7  2  0
  7  8  1  0
  4  9  1  0
  8  9  2  0
  2 10  1  0
 10 11  1  0
 11 12  1  1
 12 13  1  0
 11 14  1  0
 14 15  2  0
 15 16  1  0
 16 17  2  0
 17 18  1  0
 18 19  1  0
 14 20  1  0
 18 20  2  0
M  END
