pyridine_urea_5472
     RDKit          3D

 17 18  0  0  0  0  0  0  0  0999 V2000
    8.8820    0.5710   21.4020 O   0  0  0  0  0  0  0  0  0  0  0  0
    8.2540   -0.4720   21.5370 C   0  0  0  0  0  0  0  0  0  0  0  0
    8.7030   -1.5420   22.2570 N   0  0  0  0  0  0  0  0  0  0  0  0
    9.6680   -1.3000   23.2910 C   0  0  0  0  0  0  0  0  0  0  0  0
   10.7410   -0.2710   22.8680 C   0  0  0  0  0  0  0  0  0  0  0  0
   11.9530    0.4270   22.6690 C   0  0  0  0  0  0  0  0  0  0  0  0
   13.3900   -0.1620   23.2810 S   0  0  0  0  0  0  0  0  0  0  0  0
   12.5600   -1.4860   23.9650 C   0  0  0  0  0  0  0  0  0  0  0  0
   13.3770   -2.8170   24.9830 Br  0  0  0  0  0  0  0  0  0  0  0  0
   11.2730   -1.4540   23.7000 N   0  0  0  0  0  0  0  0  0  0  0  0
    7.0230   -0.7570   21.0260 N   0  0  0  0  0  0  0  0  0  0  0  0
    6.4410   -0.0510   19.9870 C   0  0  0  0  0  0  0  0  0  0  0  0
    5.1790    0.7460   20.2360 C   0  0  0  0  0  0  0  0  0  0  0  0
    4.4600    1.5630   19.1880 C   0  0  0  0  0  0  0  0  0  0  0  0
    5.1230    1.5290   17.8140 C   0  0  0  0  0  0  0  0  0  0  0  0
    6.3460    0.7130   17.6840 N   0  0  0  0  0  0  0  0  0  0  0  0
    6.9330   -0.0140   18.7190 C   0  0  0  0  0  0  0  0  0  0  0  0
  1  2  2  0
  2  3  1  0
  3  4  1  0
  4  5  1  0
  5  6  2  0
  6  7  1  0
  7  8  1  0
  8  9  1  0
  5 10  1  0
  8 10  2  0
  2 11  1  0
 11 12  1  0
 12 13  2  0
 13 14  1  0
 14 15  2  0
 15 16  1  0
 12 17  1  0
 16 17  2  0
M  END
