pyridine_urea_12303
     RDKit          3D

 22 23  0  0  0  0  0  0  0  0999 V2000
   12.7230   -1.8490   21.5230 C   0  0  0  0  0  0  0  0  0  0  0  0
   11.6030   -1.1160   22.0390 O   0  0  0  0  0  0  0  0  0  0  0  0
   10.7430   -1.9270   22.8450 C   0  0  0  0  0  0  0  0  0  0  0  0
   11.5630   -2.8120   22.7420 O   0  0  0  0  0  0  0  0  0  0  0  0
    9.9870   -0.5510   22.7170 C   0  0  2  0  0  0  0  0  0  0  0  0
   10.4360    0.4320   23.5950 C   0  0  0  0  0  0  0  0  0  0  0  0
   11.8880    0.4380   23.3610 C   0  0  0  0  0  0  0  0  0  0  0  0
   13.2030    0.0900   23.3740 C   0  0  0  0  0  0  0  0  0  0  0  0
   13.2650   -1.0790   24.1450 C   0  0  0  0  0  0  0  0  0  0  0  0
   12.6620   -1.7070   24.6870 N   0  0  0  0  0  0  0  0  0  0  0  0
   11.6930   -0.7600   24.2330 N   0  0  0  0  0  0  0  0  0  0  0  0
   10.4780   -1.1900   24.7920 C   0  0  0  0  0  0  0  0  0  0  0  0
    8.6780   -0.4910   22.4460 N   0  0  0  0  0  0  0  0  0  0  0  0
    8.1070    0.1630   21.4510 C   0  0  0  0  0  0  0  0  0  0  0  0
    8.5430    1.2490   21.0340 O   0  0  0  0  0  0  0  0  0  0  0  0
    6.9480   -0.5780   20.9760 N   0  0  0  0  0  0  0  0  0  0  0  0
    6.3240    0.0830   19.9520 C   0  0  0  0  0  0  0  0  0  0  0  0
    5.0220    0.8220   20.1950 C   0  0  0  0  0  0  0  0  0  0  0  0
    4.4540    1.5320   18.9890 C   0  0  0  0  0  0  0  0  0  0  0  0
    5.1510    1.4480   17.7940 C   0  0  0  0  0  0  0  0  0  0  0  0
    6.3010    0.7650   17.6420 N   0  0  0  0  0  0  0  0  0  0  0  0
    6.8450    0.1190   18.6810 C   0  0  0  0  0  0  0  0  0  0  0  0
  1  2  1  0
  2  3  1  0
  3  4  2  0
  3  5  1  0
  5  6  1  1
  6  7  1  0
  7  8  2  0
  8  9  1  0
  9 10  2  0
  7 11  1  0
 10 11  1  0
 11 12  1  0
  5 13  1  0
 13 14  1  0
 14 15  2  0
 14 16  1  0
 16 17  1  0
 17 18  2  0
 18 19  1  0
 19 20  2  0
 20 21  1  0
 17 22  1  0
 21 22  2  0
M  END
