pyridine_urea_4676
     RDKit          3D

 22 23  0  0  0  0  0  0  0  0999 V2000
   12.3410   -2.5310   24.1240 C   0  0  0  0  0  0  0  0  0  0  0  0
   10.9960   -2.5610   24.6240 O   0  0  0  0  0  0  0  0  0  0  0  0
    9.9300   -2.4660   23.7550 C   0  0  0  0  0  0  0  0  0  0  0  0
    8.5210   -2.9510   24.1090 C   0  0  0  0  0  0  0  0  0  0  0  0
    7.5000   -2.8370   23.2160 C   0  0  0  0  0  0  0  0  0  0  0  0
    7.6700   -2.2880   21.9660 C   0  0  0  0  0  0  0  0  0  0  0  0
    8.9730   -1.8360   21.6280 C   0  0  0  0  0  0  0  0  0  0  0  0
   10.0720   -1.9260   22.4970 C   0  0  0  0  0  0  0  0  0  0  0  0
   11.1160   -1.4910   22.0460 O   0  0  0  0  0  0  0  0  0  0  0  0
   11.5870   -0.5050   22.9670 C   0  0  1  0  0  0  0  0  0  0  0  0
   12.8210    0.0260   22.6380 C   0  0  0  0  0  0  0  0  0  0  0  0
   10.4860    0.5550   23.0890 C   0  0  0  0  0  0  0  0  0  0  0  0
    9.1620    0.0550   22.6920 N   0  0  0  0  0  0  0  0  0  0  0  0
    8.5370    0.6170   21.5960 C   0  0  0  0  0  0  0  0  0  0  0  0
    8.9650    1.6620   21.1150 O   0  0  0  0  0  0  0  0  0  0  0  0
    7.4280   -0.0910   21.1600 N   0  0  0  0  0  0  0  0  0  0  0  0
    6.6480    0.3290   20.0770 C   0  0  0  0  0  0  0  0  0  0  0  0
    5.5140    1.0790   20.3540 C   0  0  0  0  0  0  0  0  0  0  0  0
    4.7180    1.5380   19.2530 C   0  0  0  0  0  0  0  0  0  0  0  0
    5.1470    1.1950   17.9990 C   0  0  0  0  0  0  0  0  0  0  0  0
    6.2270    0.4680   17.7310 N   0  0  0  0  0  0  0  0  0  0  0  0
    6.9550    0.0470   18.7690 C   0  0  0  0  0  0  0  0  0  0  0  0
  1  2  1  0
  2  3  1  0
  3  4  2  0
  4  5  1  0
  5  6  2  0
  6  7  1  0
  3  8  1  0
  7  8  2  0
  8  9  1  0
  9 10  1  0
 10 11  1  6
 10 12  1  0
 12 13  1  0
 13 14  1  0
 14 15  2  0
 14 16  1  0
 16 17  1  0
 17 18  2  0
 18 19  1  0
 19 20  2  0
 20 21  1  0
 17 22  1  0
 21 22  2  0
M  END
