pyridine_urea_12654
     RDKit          3D

 20 21  0  0  0  0  0  0  0  0999 V2000
    9.9750    0.4020   24.0950 C   0  0  0  0  0  0  0  0  0  0  0  0
   10.1610   -0.4130   22.7830 C   0  0  2  0  0  0  0  0  0  0  0  0
    8.8770   -0.8710   22.2930 N   0  0  0  0  0  0  0  0  0  0  0  0
    8.1690   -0.1100   21.3900 C   0  0  0  0  0  0  0  0  0  0  0  0
    8.5930    1.2060   20.9810 O   0  0  0  0  0  0  0  0  0  0  0  0
    7.0560   -0.8110   21.0130 N   0  0  0  0  0  0  0  0  0  0  0  0
    6.4060   -0.0640   20.0570 C   0  0  0  0  0  0  0  0  0  0  0  0
    5.2480    0.6930   20.2260 C   0  0  0  0  0  0  0  0  0  0  0  0
    4.6600    1.4180   19.1870 C   0  0  0  0  0  0  0  0  0  0  0  0
    5.2640    1.3750   17.9490 C   0  0  0  0  0  0  0  0  0  0  0  0
    6.3800    0.6610   17.7360 N   0  0  0  0  0  0  0  0  0  0  0  0
    6.9140   -0.0310   18.7700 C   0  0  0  0  0  0  0  0  0  0  0  0
   11.0990   -1.5810   23.0070 C   0  0  0  0  0  0  0  0  0  0  0  0
   11.9160   -1.8530   21.9310 C   0  0  0  0  0  0  0  0  0  0  0  0
   13.0440   -1.0590   22.1210 C   0  0  0  0  0  0  0  0  0  0  0  0
   12.7440    0.1370   22.9920 C   0  0  0  0  0  0  0  0  0  0  0  0
   11.7430    0.8810   22.5360 F   0  0  0  0  0  0  0  0  0  0  0  0
   13.6960    1.0340   22.8710 F   0  0  0  0  0  0  0  0  0  0  0  0
   12.4900   -0.1860   24.2860 C   0  0  0  0  0  0  0  0  0  0  0  0
   11.8890   -1.4550   24.1440 C   0  0  0  0  0  0  0  0  0  0  0  0
  2  1  1  1
  2  3  1  0
  3  4  1  0
  4  5  2  0
  4  6  1  0
  6  7  1  0
  7  8  2  0
  8  9  1  0
  9 10  2  0
 10 11  1  0
  7 12  1  0
 11 12  2  0
  2 13  1  0
 13 14  1  0
 14 15  1  0
 15 16  1  0
 16 17  1  0
 16 18  1  0
 16 19  1  0
 13 20  1  0
 19 20  1  0
M  END
