pyridine_urea_8433
     RDKit          3D

 22 24  0  0  0  0  0  0  0  0999 V2000
    8.9660    1.1670   21.2280 O   0  0  0  0  0  0  0  0  0  0  0  0
    8.4600    0.1000   21.6090 C   0  0  0  0  0  0  0  0  0  0  0  0
    8.9700   -0.7350   22.5840 N   0  0  0  0  0  0  0  0  0  0  0  0
    9.0020   -2.1520   22.5610 C   0  0  0  0  0  0  0  0  0  0  0  0
    8.0310   -2.8380   23.3080 C   0  0  0  0  0  0  0  0  0  0  0  0
    7.5510   -4.1050   22.9760 C   0  0  0  0  0  0  0  0  0  0  0  0
    6.5940   -4.4100   23.9910 N   0  0  0  0  0  0  0  0  0  0  0  0
    6.5110   -3.3860   24.8720 C   0  0  0  0  0  0  0  0  0  0  0  0
    5.5570   -3.4630   26.0640 C   0  0  0  0  0  0  0  0  0  0  0  0
    5.9310   -2.9410   27.2880 C   0  0  0  0  0  0  0  0  0  0  0  0
    5.0190   -2.9980   28.5020 C   0  0  0  0  0  0  0  0  0  0  0  0
    3.7750   -3.6030   28.3310 C   0  0  0  0  0  0  0  0  0  0  0  0
    3.4210   -4.1210   27.0790 C   0  0  0  0  0  0  0  0  0  0  0  0
    4.2890   -4.0560   25.9670 C   0  0  0  0  0  0  0  0  0  0  0  0
    7.3960   -2.3740   24.4820 N   0  0  0  0  0  0  0  0  0  0  0  0
    7.2670   -0.3890   21.1080 N   0  0  0  0  0  0  0  0  0  0  0  0
    6.6660    0.0950   20.0040 C   0  0  0  0  0  0  0  0  0  0  0  0
    5.5760    0.8090   20.4640 C   0  0  0  0  0  0  0  0  0  0  0  0
    4.8230    1.4040   19.4750 C   0  0  0  0  0  0  0  0  0  0  0  0
    5.1650    1.2730   18.1290 C   0  0  0  0  0  0  0  0  0  0  0  0
    6.2390    0.5600   17.6940 N   0  0  0  0  0  0  0  0  0  0  0  0
    6.9640   -0.0160   18.6770 C   0  0  0  0  0  0  0  0  0  0  0  0
  1  2  2  0
  2  3  1  0
  3  4  1  0
  4  5  1  0
  5  6  2  0
  6  7  1  0
  7  8  1  0
  8  9  1  0
  9 10  2  0
 10 11  1  0
 11 12  2  0
 12 13  1  0
  9 14  1  0
 13 14  2  0
  5 15  1  0
  8 15  2  0
  2 16  1  0
 16 17  1  0
 17 18  2  0
 18 19  1  0
 19 20  2  0
 20 21  1  0
 17 22  1  0
 21 22  2  0
M  END
