pyridine_urea_4460
     RDKit          3D

 23 25  0  0  0  0  0  0  0  0999 V2000
    9.0910   -0.8680   20.7860 O   0  0  0  0  0  0  0  0  0  0  0  0
    8.4700   -0.3820   21.6480 C   0  0  0  0  0  0  0  0  0  0  0  0
    7.0960   -0.2390   21.5640 N   0  0  0  0  0  0  0  0  0  0  0  0
    6.4990    0.2400   20.3230 C   0  0  0  0  0  0  0  0  0  0  0  0
    5.2560    1.1020   20.4930 C   0  0  0  0  0  0  0  0  0  0  0  0
    4.5850    1.6470   19.2340 C   0  0  0  0  0  0  0  0  0  0  0  0
    5.2470    1.2630   17.9180 C   0  0  0  0  0  0  0  0  0  0  0  0
    6.3890    0.4540   17.9090 N   0  0  0  0  0  0  0  0  0  0  0  0
    6.9840   -0.0370   19.0500 C   0  0  0  0  0  0  0  0  0  0  0  0
    9.0880    0.0640   22.8010 N   0  0  0  0  0  0  0  0  0  0  0  0
   10.4280    0.5930   22.7630 C   0  0  1  0  0  0  0  0  0  0  0  0
   11.0380    1.0780   23.9150 C   0  0  0  0  0  0  0  0  0  0  0  0
   11.8910    0.0710   24.3600 C   0  0  0  0  0  0  0  0  0  0  0  0
   11.5490   -1.0230   23.7070 N   0  0  0  0  0  0  0  0  0  0  0  0
   10.3250   -1.4220   24.0650 C   0  0  0  0  0  0  0  0  0  0  0  0
    9.7010   -0.5440   24.9850 C   0  0  0  0  0  0  0  0  0  0  0  0
    8.3860   -0.7840   25.4430 C   0  0  0  0  0  0  0  0  0  0  0  0
    7.6330   -1.9960   24.9530 C   0  0  0  0  0  0  0  0  0  0  0  0
    6.3820   -2.2330   25.3850 F   0  0  0  0  0  0  0  0  0  0  0  0
    8.2800   -2.8440   24.0540 C   0  0  0  0  0  0  0  0  0  0  0  0
    7.4110   -4.2370   23.5030 Cl  0  0  0  0  0  0  0  0  0  0  0  0
    9.6630   -2.5640   23.5870 C   0  0  0  0  0  0  0  0  0  0  0  0
   11.4230   -0.5250   22.3680 C   0  0  0  0  0  0  0  0  0  0  0  0
  1  2  2  0
  2  3  1  0
  3  4  1  0
  4  5  2  0
  5  6  1  0
  6  7  2  0
  7  8  1  0
  4  9  1  0
  8  9  2  0
  2 10  1  0
 11 10  1  1
 11 12  1  0
 12 13  1  0
 13 14  1  0
 14 15  1  0
 15 16  2  0
 16 17  1  0
 17 18  2  0
 18 19  1  0
 18 20  1  0
 20 21  1  0
 15 22  1  0
 20 22  2  0
 11 23  1  0
 14 23  1  0
M  END
