pyridine_urea_3312
     RDKit          3D

 20 21  0  0  0  0  0  0  0  0999 V2000
   11.3910    1.4440   23.8190 C   0  0  0  0  0  0  0  0  0  0  0  0
   10.0550    0.7770   24.0100 C   0  0  0  0  0  0  0  0  0  0  0  0
    9.9570   -0.5130   23.5190 C   0  0  1  0  0  0  0  0  0  0  0  0
    8.7720   -0.7440   22.6940 N   0  0  0  0  0  0  0  0  0  0  0  0
    8.3880    0.0550   21.6240 C   0  0  0  0  0  0  0  0  0  0  0  0
    8.9480    1.1070   21.2750 O   0  0  0  0  0  0  0  0  0  0  0  0
    7.2070   -0.5670   21.0140 N   0  0  0  0  0  0  0  0  0  0  0  0
    6.5170    0.0750   20.0240 C   0  0  0  0  0  0  0  0  0  0  0  0
    5.2430    0.8370   20.3740 C   0  0  0  0  0  0  0  0  0  0  0  0
    4.5910    1.4790   19.3280 C   0  0  0  0  0  0  0  0  0  0  0  0
    5.2070    1.3620   17.9310 C   0  0  0  0  0  0  0  0  0  0  0  0
    6.3330    0.6660   17.6900 N   0  0  0  0  0  0  0  0  0  0  0  0
    6.9480    0.0490   18.7180 C   0  0  0  0  0  0  0  0  0  0  0  0
   11.0690   -0.8900   22.8130 C   0  0  0  0  0  0  0  0  0  0  0  0
   10.7610   -1.9100   22.1100 C   0  0  0  0  0  0  0  0  0  0  0  0
   12.1000   -2.1940   21.3910 C   0  0  0  0  0  0  0  0  0  0  0  0
   13.5600   -1.5170   21.3970 C   0  0  0  0  0  0  0  0  0  0  0  0
   13.2500   -0.5070   22.3320 C   0  0  0  0  0  0  0  0  0  0  0  0
   12.1820   -0.9140   22.3910 C   0  0  0  0  0  0  0  0  0  0  0  0
   12.2680   -2.0030   21.4760 O   0  0  0  0  0  0  0  0  0  0  0  0
  1  2  1  0
  3  2  1  6
  3  4  1  0
  4  5  1  0
  5  6  2  0
  5  7  1  0
  7  8  1  0
  8  9  2  0
  9 10  1  0
 10 11  2  0
 11 12  1  0
  8 13  1  0
 12 13  2  0
  3 14  1  0
 14 15  2  0
 15 16  1  0
 16 17  2  0
 17 18  1  0
 14 19  1  0
 18 19  2  0
 19 20  1  0
M  END
