pyridine_urea_10598
     RDKit          3D

 21 22  0  0  0  0  0  0  0  0999 V2000
    7.8500    2.3430   22.2290 C   0  0  0  0  0  0  0  0  0  0  0  0
    8.2600    1.3240   23.3300 C   0  0  0  0  0  0  0  0  0  0  0  0
    8.6740    0.0260   22.8040 O   0  0  0  0  0  0  0  0  0  0  0  0
   10.0440   -0.2670   22.7820 C   0  0  0  0  0  0  0  0  0  0  0  0
   10.8780    1.0260   22.9640 C   0  0  0  0  0  0  0  0  0  0  0  0
   12.3910    1.0050   22.9960 C   0  0  0  0  0  0  0  0  0  0  0  0
   12.9750   -0.2220   22.8430 C   0  0  0  0  0  0  0  0  0  0  0  0
   12.0320   -1.2150   22.6900 C   0  0  0  0  0  0  0  0  0  0  0  0
   11.2220   -0.1400   22.8460 C   0  0  0  0  0  0  0  0  0  0  0  0
    9.9690   -0.5850   23.3170 C   0  0  0  0  0  0  0  0  0  0  0  0
    9.1500   -1.0920   22.1850 N   0  0  0  0  0  0  0  0  0  0  0  0
    8.4530   -0.1930   21.3760 C   0  0  0  0  0  0  0  0  0  0  0  0
    9.0120    1.0840   21.0840 O   0  0  0  0  0  0  0  0  0  0  0  0
    7.2330   -0.6760   20.9530 N   0  0  0  0  0  0  0  0  0  0  0  0
    6.4250    0.0330   20.0570 C   0  0  0  0  0  0  0  0  0  0  0  0
    5.2230    0.7260   20.4050 C   0  0  0  0  0  0  0  0  0  0  0  0
    4.6100    1.4120   19.1860 C   0  0  0  0  0  0  0  0  0  0  0  0
    5.1840    1.3340   17.9470 C   0  0  0  0  0  0  0  0  0  0  0  0
    6.3000    0.6620   17.6780 N   0  0  0  0  0  0  0  0  0  0  0  0
    6.8530    0.0560   18.7390 C   0  0  0  0  0  0  0  0  0  0  0  0
   10.6710   -1.5370   22.6250 N   0  0  0  0  0  0  0  0  0  0  0  0
  1  2  1  0
  2  3  1  0
  3  4  1  0
  4  5  2  0
  5  6  1  0
  6  7  2  0
  7  8  1  0
  8  9  1  0
  9 10  1  0
 10 11  1  0
 11 12  1  0
 12 13  2  0
 12 14  1  0
 14 15  1  0
 15 16  2  0
 16 17  1  0
 17 18  2  0
 18 19  1  0
 15 20  1  0
 19 20  2  0
  4 21  1  0
  8 21  2  0
M  END
