pyridine_urea_10325
     RDKit          3D

 22 24  0  0  0  0  0  0  0  0999 V2000
   14.8340   -4.7720   20.6900 C   0  0  0  0  0  0  0  0  0  0  0  0
   13.8720   -3.6700   21.2880 N   0  0  0  0  0  0  0  0  0  0  0  0
   12.9360   -2.6630   21.0510 C   0  0  0  0  0  0  0  0  0  0  0  0
   12.6610   -1.9590   22.3400 C   0  0  0  0  0  0  0  0  0  0  0  0
   11.8390   -0.8180   22.5530 C   0  0  0  0  0  0  0  0  0  0  0  0
   12.4770    0.4950   22.8680 C   0  0  0  0  0  0  0  0  0  0  0  0
   11.6930    1.5860   23.0870 C   0  0  0  0  0  0  0  0  0  0  0  0
   10.2950    1.4620   23.0250 C   0  0  0  0  0  0  0  0  0  0  0  0
    9.6970    0.2270   22.7340 C   0  0  0  0  0  0  0  0  0  0  0  0
    8.3870    0.0500   22.6460 N   0  0  0  0  0  0  0  0  0  0  0  0
    7.8890    0.3840   21.4190 C   0  0  0  0  0  0  0  0  0  0  0  0
    8.3430    1.3620   20.8220 O   0  0  0  0  0  0  0  0  0  0  0  0
    6.9310   -0.4460   21.0080 N   0  0  0  0  0  0  0  0  0  0  0  0
    6.3250    0.1210   19.9720 C   0  0  0  0  0  0  0  0  0  0  0  0
    5.1160    0.7950   20.2160 C   0  0  0  0  0  0  0  0  0  0  0  0
    4.3910    1.4650   19.1910 C   0  0  0  0  0  0  0  0  0  0  0  0
    5.1350    1.3190   17.8710 C   0  0  0  0  0  0  0  0  0  0  0  0
    6.2780    0.6650   17.6610 N   0  0  0  0  0  0  0  0  0  0  0  0
    6.8430    0.0820   18.7080 C   0  0  0  0  0  0  0  0  0  0  0  0
   10.5400   -0.9490   22.4870 C   0  0  0  0  0  0  0  0  0  0  0  0
   13.2900   -2.4950   23.3120 N   0  0  0  0  0  0  0  0  0  0  0  0
   13.9490   -3.4270   22.7080 N   0  0  0  0  0  0  0  0  0  0  0  0
  1  2  1  0
  2  3  1  0
  3  4  2  0
  4  5  1  0
  5  6  2  0
  6  7  1  0
  7  8  2  0
  8  9  1  0
  9 10  1  0
 10 11  1  0
 11 12  2  0
 11 13  1  0
 13 14  1  0
 14 15  2  0
 15 16  1  0
 16 17  2  0
 17 18  1  0
 14 19  1  0
 18 19  2  0
  5 20  1  0
  9 20  2  0
  4 21  1  0
  2 22  1  0
 21 22  2  0
M  END
