pyridine_urea_1991
     RDKit          3D

 20 22  0  0  0  0  0  0  0  0999 V2000
    8.7870    0.8850   21.3380 O   0  0  0  0  0  0  0  0  0  0  0  0
    8.3460   -0.2460   21.5090 C   0  0  0  0  0  0  0  0  0  0  0  0
    7.1990   -0.7380   20.9410 N   0  0  0  0  0  0  0  0  0  0  0  0
    6.4280   -0.0170   20.0300 C   0  0  0  0  0  0  0  0  0  0  0  0
    5.1160    0.7090   20.3640 C   0  0  0  0  0  0  0  0  0  0  0  0
    4.4900    1.4400   19.1780 C   0  0  0  0  0  0  0  0  0  0  0  0
    5.2050    1.3680   17.8680 C   0  0  0  0  0  0  0  0  0  0  0  0
    6.3500    0.6910   17.6950 N   0  0  0  0  0  0  0  0  0  0  0  0
    6.9060    0.0430   18.7330 C   0  0  0  0  0  0  0  0  0  0  0  0
    8.9530   -1.1890   22.2960 N   0  0  0  0  0  0  0  0  0  0  0  0
   10.0410   -0.8450   23.1720 C   0  0  1  0  0  0  0  0  0  0  0  0
   11.1850   -1.5380   22.9550 C   0  0  0  0  0  0  0  0  0  0  0  0
   11.9520   -0.4700   22.5840 C   0  0  2  0  0  0  0  0  0  0  0  0
   12.8750    0.0630   23.4210 C   0  0  0  0  0  0  0  0  0  0  0  0
   13.2320   -1.0900   23.9940 N   0  0  0  0  0  0  0  0  0  0  0  0
   13.4490   -1.6150   25.2770 C   0  0  0  0  0  0  0  0  0  0  0  0
   13.7670   -2.8940   24.9980 C   0  0  0  0  0  0  0  0  0  0  0  0
   13.7720   -3.1570   23.6930 N   0  0  0  0  0  0  0  0  0  0  0  0
   13.4330   -2.0200   23.0860 N   0  0  0  0  0  0  0  0  0  0  0  0
   10.7070    0.4640   22.7360 C   0  0  0  0  0  0  0  0  0  0  0  0
  1  2  2  0
  2  3  1  0
  3  4  1  0
  4  5  2  0
  5  6  1  0
  6  7  2  0
  7  8  1  0
  4  9  1  0
  8  9  2  0
  2 10  1  0
 11 10  1  6
 11 12  1  0
 12 13  1  0
 13 14  1  1
 14 15  1  0
 15 16  1  0
 16 17  2  0
 17 18  1  0
 15 19  1  0
 18 19  2  0
 11 20  1  0
 13 20  1  0
M  END
