pyridine_urea_8196
     RDKit          3D

 23 25  0  0  0  0  0  0  0  0999 V2000
   13.0220   -1.5030   24.6770 C   0  0  0  0  0  0  0  0  0  0  0  0
   12.7620   -0.3710   23.9330 N   0  0  0  0  0  0  0  0  0  0  0  0
   11.6190    0.4320   24.2530 C   0  0  0  0  0  0  0  0  0  0  0  0
   10.4970    0.0440   23.2580 C   0  0  0  0  0  0  0  0  0  0  0  0
   10.4790   -1.2550   22.7510 C   0  0  0  0  0  0  0  0  0  0  0  0
    9.4670   -1.2690   21.7030 N   0  0  0  0  0  0  0  0  0  0  0  0
    8.6140   -0.2130   21.4730 C   0  0  0  0  0  0  0  0  0  0  0  0
    8.9670    0.9550   21.5290 O   0  0  0  0  0  0  0  0  0  0  0  0
    7.3410   -0.6150   21.1330 N   0  0  0  0  0  0  0  0  0  0  0  0
    6.6360    0.0030   20.0900 C   0  0  0  0  0  0  0  0  0  0  0  0
    5.3710    0.7970   20.3830 C   0  0  0  0  0  0  0  0  0  0  0  0
    4.5440    1.5290   19.3340 C   0  0  0  0  0  0  0  0  0  0  0  0
    5.1330    1.3820   17.9300 C   0  0  0  0  0  0  0  0  0  0  0  0
    6.3520    0.5880   17.7410 N   0  0  0  0  0  0  0  0  0  0  0  0
    7.0180   -0.0430   18.7830 C   0  0  0  0  0  0  0  0  0  0  0  0
   10.0800   -2.1910   23.9080 C   0  0  0  0  0  0  0  0  0  0  0  0
   11.0810   -3.1880   24.5000 C   0  0  0  0  0  0  0  0  0  0  0  0
   10.6990   -4.0350   25.5480 C   0  0  0  0  0  0  0  0  0  0  0  0
    9.3990   -3.9720   26.0560 C   0  0  0  0  0  0  0  0  0  0  0  0
    8.4820   -3.0670   25.5210 C   0  0  0  0  0  0  0  0  0  0  0  0
    8.8080   -2.2090   24.4880 C   0  0  0  0  0  0  0  0  0  0  0  0
   11.7200   -1.5860   22.1860 C   0  0  0  0  0  0  0  0  0  0  0  0
   12.7270   -0.6440   22.5160 C   0  0  0  0  0  0  0  0  0  0  0  0
  1  2  1  0
  2  3  1  0
  3  4  1  0
  4  5  1  0
  5  6  1  0
  6  7  1  0
  7  8  2  0
  7  9  1  0
  9 10  1  0
 10 11  2  0
 11 12  1  0
 12 13  2  0
 13 14  1  0
 10 15  1  0
 14 15  2  0
  5 16  1  0
 16 17  2  0
 17 18  1  0
 18 19  2  0
 19 20  1  0
 16 21  1  0
 20 21  2  0
  5 22  1  0
  2 23  1  0
 22 23  1  0
M  END
