pyridine_urea_5149
     RDKit          3D

 20 21  0  0  0  0  0  0  0  0999 V2000
    8.6560    0.1300   27.6520 C   0  0  0  0  0  0  0  0  0  0  0  0
    7.9800   -0.3600   26.4010 C   0  0  0  0  0  0  0  0  0  0  0  0
    8.9810   -0.4680   25.3570 N   0  0  0  0  0  0  0  0  0  0  0  0
   10.0620    0.2700   25.5460 N   0  0  0  0  0  0  0  0  0  0  0  0
   10.8610    0.0150   24.4320 C   0  0  0  0  0  0  0  0  0  0  0  0
   12.1200    0.4680   24.0120 C   0  0  0  0  0  0  0  0  0  0  0  0
   10.1560   -0.9680   23.5240 C   0  0  0  0  0  0  0  0  0  0  0  0
   10.4960   -1.5980   22.2170 C   0  0  0  0  0  0  0  0  0  0  0  0
    9.3390   -1.4570   21.3500 N   0  0  0  0  0  0  0  0  0  0  0  0
    8.5710   -0.2350   21.3760 C   0  0  0  0  0  0  0  0  0  0  0  0
    9.0860    0.8620   21.5510 O   0  0  0  0  0  0  0  0  0  0  0  0
    7.2360   -0.4770   21.1400 N   0  0  0  0  0  0  0  0  0  0  0  0
    6.5230    0.0970   20.0820 C   0  0  0  0  0  0  0  0  0  0  0  0
    5.3520    0.8070   20.3610 C   0  0  0  0  0  0  0  0  0  0  0  0
    4.6490    1.3920   19.3220 C   0  0  0  0  0  0  0  0  0  0  0  0
    5.1440    1.2490   18.0290 C   0  0  0  0  0  0  0  0  0  0  0  0
    6.2550    0.5710   17.7380 N   0  0  0  0  0  0  0  0  0  0  0  0
    6.9230    0.0070   18.7610 C   0  0  0  0  0  0  0  0  0  0  0  0
    8.9170   -1.2980   24.1350 C   0  0  0  0  0  0  0  0  0  0  0  0
    7.8830   -2.1420   23.7600 C   0  0  0  0  0  0  0  0  0  0  0  0
  1  2  1  0
  2  3  1  0
  3  4  1  0
  4  5  2  0
  5  6  1  0
  5  7  1  0
  7  8  1  0
  8  9  1  0
  9 10  1  0
 10 11  2  0
 10 12  1  0
 12 13  1  0
 13 14  2  0
 14 15  1  0
 15 16  2  0
 16 17  1  0
 13 18  1  0
 17 18  2  0
  3 19  1  0
  7 19  2  0
 19 20  1  0
M  END
