pyridine_urea_13541
     RDKit          3D

 22 23  0  0  0  0  0  0  0  0999 V2000
   13.2780   -2.0600   21.0310 C   0  0  0  0  0  0  0  0  0  0  0  0
   13.1020   -1.7100   22.5180 C   0  0  0  0  0  0  0  0  0  0  0  0
   13.3320   -0.2000   22.7720 C   0  0  0  0  0  0  0  0  0  0  0  0
   13.7350   -2.6430   23.5900 C   0  0  0  0  0  0  0  0  0  0  0  0
   11.7770   -1.8770   22.8200 O   0  0  0  0  0  0  0  0  0  0  0  0
   11.6130   -1.9660   24.1170 C   0  0  0  0  0  0  0  0  0  0  0  0
   11.3760   -1.6150   25.4370 O   0  0  0  0  0  0  0  0  0  0  0  0
   11.4850   -0.6540   23.7660 C   0  0  1  0  0  0  0  0  0  0  0  0
   11.6730   -0.4320   22.4740 C   0  0  0  0  0  0  0  0  0  0  0  0
   10.5130   -0.9380   21.9040 C   0  0  0  0  0  0  0  0  0  0  0  0
    9.5420   -1.2600   22.8860 C   0  0  2  0  0  0  0  0  0  0  0  0
    8.2290   -0.8370   22.5510 N   0  0  0  0  0  0  0  0  0  0  0  0
    8.0280   -0.0400   21.4680 C   0  0  0  0  0  0  0  0  0  0  0  0
    8.7890    1.1620   21.1520 O   0  0  0  0  0  0  0  0  0  0  0  0
    6.9880   -0.5820   20.7870 N   0  0  0  0  0  0  0  0  0  0  0  0
    6.2470    0.1340   19.8820 C   0  0  0  0  0  0  0  0  0  0  0  0
    5.0040    0.7600   20.1930 C   0  0  0  0  0  0  0  0  0  0  0  0
    4.4580    1.4920   18.9680 C   0  0  0  0  0  0  0  0  0  0  0  0
    5.1600    1.4740   17.7870 C   0  0  0  0  0  0  0  0  0  0  0  0
    6.3160    0.8480   17.5960 N   0  0  0  0  0  0  0  0  0  0  0  0
    6.8150    0.2060   18.6370 C   0  0  0  0  0  0  0  0  0  0  0  0
   10.1820   -0.3560   23.9560 C   0  0  0  0  0  0  0  0  0  0  0  0
  1  2  1  0
  2  3  1  0
  2  4  1  0
  2  5  1  0
  5  6  1  0
  6  7  2  0
  8  6  1  6
  8  9  1  0
  9 10  1  0
 10 11  1  0
 11 12  1  6
 12 13  1  0
 13 14  2  0
 13 15  1  0
 15 16  1  0
 16 17  2  0
 17 18  1  0
 18 19  2  0
 19 20  1  0
 16 21  1  0
 20 21  2  0
  8 22  1  0
 11 22  1  0
M  END
