pyridine_urea_7671
     RDKit          3D

 18 19  0  0  0  0  0  0  0  0999 V2000
    9.8340   -2.0810   24.0640 C   0  0  0  0  0  0  0  0  0  0  0  0
    9.9570   -1.1160   22.9040 C   0  0  0  0  0  0  0  0  0  0  0  0
   10.1150   -1.8800   21.7620 C   0  0  0  0  0  0  0  0  0  0  0  0
    8.6630   -0.4680   22.8100 N   0  0  0  0  0  0  0  0  0  0  0  0
    8.2790    0.0940   21.6180 C   0  0  0  0  0  0  0  0  0  0  0  0
    8.8060    1.1210   21.1530 O   0  0  0  0  0  0  0  0  0  0  0  0
    7.1780   -0.7040   21.0540 N   0  0  0  0  0  0  0  0  0  0  0  0
    6.5000   -0.0020   20.0350 C   0  0  0  0  0  0  0  0  0  0  0  0
    5.3420    0.7060   20.3620 C   0  0  0  0  0  0  0  0  0  0  0  0
    4.6610    1.4080   19.3700 C   0  0  0  0  0  0  0  0  0  0  0  0
    5.2360    1.3570   17.9680 C   0  0  0  0  0  0  0  0  0  0  0  0
    6.3550    0.6560   17.7000 N   0  0  0  0  0  0  0  0  0  0  0  0
    6.9490    0.0030   18.7240 C   0  0  0  0  0  0  0  0  0  0  0  0
   11.0880   -0.0880   22.8710 C   0  0  0  0  0  0  0  0  0  0  0  0
   12.5070   -0.3180   22.9000 N   0  0  0  0  0  0  0  0  0  0  0  0
   13.0740    0.8920   22.8500 C   0  0  0  0  0  0  0  0  0  0  0  0
   12.1550    1.9070   22.7940 C   0  0  0  0  0  0  0  0  0  0  0  0
   10.8840    1.3030   22.8060 N   0  0  0  0  0  0  0  0  0  0  0  0
  1  2  1  0
  2  3  1  0
  2  4  1  0
  4  5  1  0
  5  6  2  0
  5  7  1  0
  7  8  1  0
  8  9  2  0
  9 10  1  0
 10 11  2  0
 11 12  1  0
  8 13  1  0
 12 13  2  0
  2 14  1  0
 14 15  2  0
 15 16  1  0
 16 17  2  0
 14 18  1  0
 17 18  1  0
M  END
