pyridine_urea_2482
     RDKit          3D

 24 25  0  0  0  0  0  0  0  0999 V2000
    8.8410    1.0570   21.2030 O   0  0  0  0  0  0  0  0  0  0  0  0
    8.3250   -0.0330   21.4980 C   0  0  0  0  0  0  0  0  0  0  0  0
    8.8130   -0.9220   22.4140 N   0  0  0  0  0  0  0  0  0  0  0  0
   10.0520   -0.7960   23.0490 C   0  0  0  0  0  0  0  0  0  0  0  0
   10.2900    0.4340   23.6620 C   0  0  0  0  0  0  0  0  0  0  0  0
   11.3870    1.1970   23.2340 C   0  0  0  0  0  0  0  0  0  0  0  0
   11.4410    2.3720   22.7870 C   0  0  0  0  0  0  0  0  0  0  0  0
   12.4830    1.6800   22.9210 C   0  0  0  0  0  0  0  0  0  0  0  0
   11.8660    0.3200   23.4870 C   0  0  0  0  0  0  0  0  0  0  0  0
   13.0090   -0.4430   23.6420 C   0  0  0  0  0  0  0  0  0  0  0  0
   13.6070   -1.6640   24.0320 O   0  0  0  0  0  0  0  0  0  0  0  0
   13.2190   -2.6900   23.1520 C   0  0  0  0  0  0  0  0  0  0  0  0
   12.9090   -2.1720   21.8950 C   0  0  0  0  0  0  0  0  0  0  0  0
   13.3630   -2.7850   20.8110 F   0  0  0  0  0  0  0  0  0  0  0  0
   11.5690   -2.0960   21.7110 F   0  0  0  0  0  0  0  0  0  0  0  0
   13.3800   -0.9150   21.7500 F   0  0  0  0  0  0  0  0  0  0  0  0
   13.0380    0.7930   23.1690 C   0  0  0  0  0  0  0  0  0  0  0  0
    7.1650   -0.5380   20.9740 N   0  0  0  0  0  0  0  0  0  0  0  0
    6.4320    0.1280   19.9970 C   0  0  0  0  0  0  0  0  0  0  0  0
    5.2500    0.8370   20.2060 C   0  0  0  0  0  0  0  0  0  0  0  0
    4.6160    1.4860   19.1450 C   0  0  0  0  0  0  0  0  0  0  0  0
    5.1300    1.4550   17.8470 C   0  0  0  0  0  0  0  0  0  0  0  0
    6.3410    0.7050   17.6750 N   0  0  0  0  0  0  0  0  0  0  0  0
    6.9270    0.0860   18.7220 C   0  0  0  0  0  0  0  0  0  0  0  0
  1  2  2  0
  2  3  1  0
  3  4  1  0
  4  5  1  0
  5  6  1  0
  6  7  2  0
  7  8  1  0
  8  9  2  0
  9 10  1  0
 10 11  1  0
 11 12  1  0
 12 13  1  0
 13 14  1  0
 13 15  1  0
 13 16  1  0
  6 17  1  0
 10 17  2  0
  2 18  1  0
 18 19  1  0
 19 20  2  0
 20 21  1  0
 21 22  2  0
 22 23  1  0
 19 24  1  0
 23 24  2  0
M  END
