pyridine_urea_14104
     RDKit          3D

 23 25  0  0  0  0  0  0  0  0999 V2000
    8.3150    0.0030   27.0200 C   0  0  0  0  0  0  0  0  0  0  0  0
    9.1130   -0.1980   25.9160 N   0  0  0  0  0  0  0  0  0  0  0  0
    8.7010   -0.2760   24.6060 C   0  0  0  0  0  0  0  0  0  0  0  0
    9.9710   -0.4850   23.9170 C   0  0  0  0  0  0  0  0  0  0  0  0
    9.9700   -0.6350   22.4500 C   0  0  2  0  0  0  0  0  0  0  0  0
    8.9250   -1.2880   21.8750 N   0  0  0  0  0  0  0  0  0  0  0  0
    8.1210   -0.3860   21.3660 C   0  0  0  0  0  0  0  0  0  0  0  0
    8.6190    0.9640   21.1480 O   0  0  0  0  0  0  0  0  0  0  0  0
    6.8320   -0.7010   21.0300 N   0  0  0  0  0  0  0  0  0  0  0  0
    6.3270   -0.0430   20.0330 C   0  0  0  0  0  0  0  0  0  0  0  0
    5.0950    0.7590   20.1850 C   0  0  0  0  0  0  0  0  0  0  0  0
    4.4710    1.4910   19.2370 C   0  0  0  0  0  0  0  0  0  0  0  0
    5.2500    1.3670   17.9480 C   0  0  0  0  0  0  0  0  0  0  0  0
    6.3760    0.6400   17.7720 N   0  0  0  0  0  0  0  0  0  0  0  0
    6.9010   -0.0530   18.7910 C   0  0  0  0  0  0  0  0  0  0  0  0
   11.2180   -1.4540   22.1440 C   0  0  0  0  0  0  0  0  0  0  0  0
   11.4920   -0.1700   22.5960 C   0  0  0  0  0  0  0  0  0  0  0  0
   12.1530    1.1060   23.0350 C   0  0  0  0  0  0  0  0  0  0  0  0
   13.3970    0.3760   22.7210 C   0  0  0  0  0  0  0  0  0  0  0  0
   13.5720   -0.8750   22.2780 N   0  0  0  0  0  0  0  0  0  0  0  0
   12.5600   -1.6970   22.0280 C   0  0  0  0  0  0  0  0  0  0  0  0
   11.2600   -0.5430   24.7950 C   0  0  0  0  0  0  0  0  0  0  0  0
   10.4650   -0.3520   25.9670 N   0  0  0  0  0  0  0  0  0  0  0  0
  1  2  1  0
  2  3  1  0
  3  4  2  0
  4  5  1  0
  5  6  1  1
  6  7  1  0
  7  8  2  0
  7  9  1  0
  9 10  1  0
 10 11  2  0
 11 12  1  0
 12 13  2  0
 13 14  1  0
 10 15  1  0
 14 15  2  0
  5 16  1  0
 16 17  2  0
 17 18  1  0
 18 19  2  0
 19 20  1  0
 16 21  1  0
 20 21  2  0
  4 22  1  0
  2 23  1  0
 22 23  2  0
M  END
