pyridine_urea_3185
     RDKit          3D

 20 21  0  0  0  0  0  0  0  0999 V2000
   12.8460   -2.8370   21.1660 C   0  0  0  0  0  0  0  0  0  0  0  0
   12.8460   -1.4540   21.4050 O   0  0  0  0  0  0  0  0  0  0  0  0
   11.9290   -0.9700   22.2960 C   0  0  0  0  0  0  0  0  0  0  0  0
   12.3320    0.0930   23.0070 C   0  0  0  0  0  0  0  0  0  0  0  0
   13.4920    0.6060   22.8530 C   0  0  0  0  0  0  0  0  0  0  0  0
   11.4650    0.6940   23.9920 C   0  0  0  0  0  0  0  0  0  0  0  0
   10.1580    0.1400   24.2010 C   0  0  0  0  0  0  0  0  0  0  0  0
    9.8430   -0.9240   23.4220 C   0  0  0  0  0  0  0  0  0  0  0  0
   10.6900   -1.6730   22.3180 C   0  0  0  0  0  0  0  0  0  0  0  0
    9.4340   -2.1020   22.5850 C   0  0  0  0  0  0  0  0  0  0  0  0
    8.5630   -1.6040   21.5730 N   0  0  0  0  0  0  0  0  0  0  0  0
    8.1490   -0.3240   21.4030 C   0  0  0  0  0  0  0  0  0  0  0  0
    8.9300    0.8010   21.4620 O   0  0  0  0  0  0  0  0  0  0  0  0
    6.8060   -0.3550   21.1400 N   0  0  0  0  0  0  0  0  0  0  0  0
    6.2620    0.2300   20.0090 C   0  0  0  0  0  0  0  0  0  0  0  0
    5.0840    0.9590   20.1550 C   0  0  0  0  0  0  0  0  0  0  0  0
    4.5260    1.5710   19.0370 C   0  0  0  0  0  0  0  0  0  0  0  0
    5.1800    1.4220   17.8320 C   0  0  0  0  0  0  0  0  0  0  0  0
    6.3130    0.7190   17.6700 N   0  0  0  0  0  0  0  0  0  0  0  0
    6.8390    0.1280   18.7560 C   0  0  0  0  0  0  0  0  0  0  0  0
  1  2  1  0
  2  3  1  0
  3  4  2  0
  4  5  1  0
  4  6  1  0
  6  7  2  0
  7  8  1  0
  3  9  1  0
  8  9  2  0
  9 10  1  0
 10 11  1  0
 11 12  1  0
 12 13  2  0
 12 14  1  0
 14 15  1  0
 15 16  2  0
 16 17  1  0
 17 18  2  0
 18 19  1  0
 15 20  1  0
 19 20  2  0
M  END
