pyridine_urea_699
     RDKit          3D

 23 24  0  0  0  0  0  0  0  0999 V2000
   12.7840   -2.5970   24.5620 C   0  0  0  0  0  0  0  0  0  0  0  0
   11.5640   -2.4260   24.6580 O   0  0  0  0  0  0  0  0  0  0  0  0
   11.1490   -1.1270   24.8250 C   0  0  0  0  0  0  0  0  0  0  0  0
   11.9050   -0.2780   25.2410 O   0  0  0  0  0  0  0  0  0  0  0  0
    9.8240   -0.8620   24.4580 C   0  0  0  0  0  0  0  0  0  0  0  0
    9.8140   -0.2940   23.2190 C   0  0  2  0  0  0  0  0  0  0  0  0
    9.0590   -1.0060   22.2130 N   0  0  0  0  0  0  0  0  0  0  0  0
    8.2870   -0.1860   21.3920 C   0  0  0  0  0  0  0  0  0  0  0  0
    8.7370    1.1450   21.0250 O   0  0  0  0  0  0  0  0  0  0  0  0
    7.1170   -0.7390   21.0150 N   0  0  0  0  0  0  0  0  0  0  0  0
    6.5030   -0.0780   20.0190 C   0  0  0  0  0  0  0  0  0  0  0  0
    5.2180    0.7370   20.2270 C   0  0  0  0  0  0  0  0  0  0  0  0
    4.5750    1.4360   19.2100 C   0  0  0  0  0  0  0  0  0  0  0  0
    5.1630    1.3690   17.9450 C   0  0  0  0  0  0  0  0  0  0  0  0
    6.3110    0.6410   17.7360 N   0  0  0  0  0  0  0  0  0  0  0  0
    6.9760   -0.0740   18.7330 C   0  0  0  0  0  0  0  0  0  0  0  0
   11.2770   -0.3600   22.9830 C   0  0  0  0  0  0  0  0  0  0  0  0
   12.7360   -0.1070   22.7720 C   0  0  0  0  0  0  0  0  0  0  0  0
   13.3730    1.0970   22.7500 C   0  0  0  0  0  0  0  0  0  0  0  0
   12.7360    2.2790   22.8940 C   0  0  0  0  0  0  0  0  0  0  0  0
   11.4240    2.2310   23.0700 C   0  0  0  0  0  0  0  0  0  0  0  0
   10.3400    3.9980   23.2650 I   0  0  0  0  0  0  0  0  0  0  0  0
   10.7940    1.0030   23.1130 C   0  0  0  0  0  0  0  0  0  0  0  0
  1  2  1  0
  2  3  1  0
  3  4  2  0
  3  5  1  0
  6  5  1  1
  6  7  1  0
  7  8  1  0
  8  9  2  0
  8 10  1  0
 10 11  1  0
 11 12  2  0
 12 13  1  0
 13 14  2  0
 14 15  1  0
 11 16  1  0
 15 16  2  0
  6 17  1  0
 17 18  2  0
 18 19  1  0
 19 20  2  0
 20 21  1  0
 21 22  1  0
 17 23  1  0
 21 23  2  0
M  END
