pyridine_urea_9788
     RDKit          3D

 24 26  0  0  0  0  0  0  0  0999 V2000
   12.4180    0.7570   23.9210 C   0  0  0  0  0  0  0  0  0  0  0  0
   12.1840    0.1470   22.5800 C   0  0  0  0  0  0  0  0  0  0  0  0
   11.8530   -1.3050   22.7110 C   0  0  2  0  0  0  0  0  0  0  0  0
   12.5560   -2.1170   21.6370 C   0  0  0  0  0  0  0  0  0  0  0  0
   10.3140   -1.5450   22.7660 C   0  0  2  0  0  0  0  0  0  0  0  0
    9.5290   -1.1560   21.5890 N   0  0  0  0  0  0  0  0  0  0  0  0
    8.6560   -0.0850   21.4800 C   0  0  0  0  0  0  0  0  0  0  0  0
    9.0190    1.0670   21.6470 O   0  0  0  0  0  0  0  0  0  0  0  0
    7.3770   -0.4890   21.1200 N   0  0  0  0  0  0  0  0  0  0  0  0
    6.6260    0.0930   20.0800 C   0  0  0  0  0  0  0  0  0  0  0  0
    5.4730    0.8280   20.3880 C   0  0  0  0  0  0  0  0  0  0  0  0
    4.7290    1.4210   19.3640 C   0  0  0  0  0  0  0  0  0  0  0  0
    5.1650    1.2580   18.0660 C   0  0  0  0  0  0  0  0  0  0  0  0
    6.2580    0.5550   17.7410 N   0  0  0  0  0  0  0  0  0  0  0  0
    6.9580   -0.0090   18.7470 C   0  0  0  0  0  0  0  0  0  0  0  0
    9.7120   -1.1130   23.9380 C   0  0  0  0  0  0  0  0  0  0  0  0
    8.3990   -1.5010   24.0070 N   0  0  0  0  0  0  0  0  0  0  0  0
    8.0710   -0.9500   25.2830 C   0  0  0  0  0  0  0  0  0  0  0  0
    6.8440   -1.0330   25.9000 C   0  0  0  0  0  0  0  0  0  0  0  0
    6.6330   -0.4180   27.2330 C   0  0  0  0  0  0  0  0  0  0  0  0
    7.7250    0.2390   27.8260 C   0  0  0  0  0  0  0  0  0  0  0  0
    8.9610    0.3000   27.1620 C   0  0  0  0  0  0  0  0  0  0  0  0
    9.1150   -0.2950   25.8950 C   0  0  0  0  0  0  0  0  0  0  0  0
   10.1720   -0.3990   25.0250 N   0  0  0  0  0  0  0  0  0  0  0  0
  1  2  1  0
  2  3  1  0
  3  4  1  6
  3  5  1  0
  5  6  1  6
  6  7  1  0
  7  8  2  0
  7  9  1  0
  9 10  1  0
 10 11  2  0
 11 12  1  0
 12 13  2  0
 13 14  1  0
 10 15  1  0
 14 15  2  0
  5 16  1  0
 16 17  2  0
 17 18  1  0
 18 19  2  0
 19 20  1  0
 20 21  2  0
 21 22  1  0
 18 23  1  0
 22 23  2  0
 16 24  1  0
 23 24  1  0
M  END
