pyridine_urea_9047
     RDKit          3D

 19 20  0  0  0  0  0  0  0  0999 V2000
    8.0680   -2.7620   22.5570 C   0  0  0  0  0  0  0  0  0  0  0  0
    9.2350   -2.1220   21.7680 C   0  0  0  0  0  0  0  0  0  0  0  0
   10.1350   -1.3760   22.7520 C   0  0  0  0  0  0  0  0  0  0  0  0
   11.2370   -1.9670   23.2250 C   0  0  0  0  0  0  0  0  0  0  0  0
   12.0640   -1.3940   24.1140 C   0  0  0  0  0  0  0  0  0  0  0  0
   13.5790   -2.5530   24.7700 I   0  0  0  0  0  0  0  0  0  0  0  0
   11.8510   -0.1220   24.5590 C   0  0  0  0  0  0  0  0  0  0  0  0
   10.7280    0.5530   24.1200 C   0  0  0  0  0  0  0  0  0  0  0  0
    9.8830   -0.1070   23.2370 C   0  0  0  0  0  0  0  0  0  0  0  0
    8.6970    0.5550   22.8380 N   0  0  0  0  0  0  0  0  0  0  0  0
    8.4050    0.7670   21.5570 C   0  0  0  0  0  0  0  0  0  0  0  0
    8.9730    1.6570   20.9590 O   0  0  0  0  0  0  0  0  0  0  0  0
    7.4040   -0.0940   21.0760 N   0  0  0  0  0  0  0  0  0  0  0  0
    6.6680    0.3020   20.0070 C   0  0  0  0  0  0  0  0  0  0  0  0
    5.5550    1.0570   20.3720 C   0  0  0  0  0  0  0  0  0  0  0  0
    4.7420    1.5490   19.2280 C   0  0  0  0  0  0  0  0  0  0  0  0
    5.1030    1.2560   17.9400 C   0  0  0  0  0  0  0  0  0  0  0  0
    6.1800    0.5100   17.6350 N   0  0  0  0  0  0  0  0  0  0  0  0
    6.9560    0.0370   18.6960 C   0  0  0  0  0  0  0  0  0  0  0  0
  1  2  1  0
  2  3  1  0
  3  4  2  0
  4  5  1  0
  5  6  1  0
  5  7  2  0
  7  8  1  0
  3  9  1  0
  8  9  2  0
  9 10  1  0
 10 11  1  0
 11 12  2  0
 11 13  1  0
 13 14  1  0
 14 15  2  0
 15 16  1  0
 16 17  2  0
 17 18  1  0
 14 19  1  0
 18 19  2  0
M  END
