pyridine_urea_1894
     RDKit          3D

 25 28  0  0  0  0  0  0  0  0999 V2000
    8.7280   -1.1290   20.5620 O   0  0  0  0  0  0  0  0  0  0  0  0
    8.3080   -0.7620   21.5900 C   0  0  0  0  0  0  0  0  0  0  0  0
    7.0300   -0.2670   21.6330 N   0  0  0  0  0  0  0  0  0  0  0  0
    6.4160    0.2020   20.4220 C   0  0  0  0  0  0  0  0  0  0  0  0
    5.2350    0.9490   20.4960 C   0  0  0  0  0  0  0  0  0  0  0  0
    4.6280    1.4300   19.3270 C   0  0  0  0  0  0  0  0  0  0  0  0
    5.2170    1.1550   18.1090 C   0  0  0  0  0  0  0  0  0  0  0  0
    6.3450    0.4400   17.9880 N   0  0  0  0  0  0  0  0  0  0  0  0
    6.9150   -0.0230   19.1310 C   0  0  0  0  0  0  0  0  0  0  0  0
    9.1610   -0.7820   22.6930 N   0  0  0  0  0  0  0  0  0  0  0  0
   10.4730   -0.2870   22.2400 C   0  0  1  0  0  0  0  0  0  0  0  0
   10.2080    1.1770   22.4500 C   0  0  1  0  0  0  0  0  0  0  0  0
    9.4670    1.3560   23.5520 C   0  0  0  0  0  0  0  0  0  0  0  0
   10.3670    1.3710   24.5240 C   0  0  0  0  0  0  0  0  0  0  0  0
   11.4690    1.9550   23.9760 C   0  0  0  0  0  0  0  0  0  0  0  0
   11.5770    1.5760   22.7110 C   0  0  1  0  0  0  0  0  0  0  0  0
   11.7820    0.2460   22.5880 C   0  0  1  0  0  0  0  0  0  0  0  0
   12.5270   -0.1240   23.6020 O   0  0  0  0  0  0  0  0  0  0  0  0
   12.1650   -1.3900   23.7830 C   0  0  0  0  0  0  0  0  0  0  0  0
   12.4500   -2.2510   22.6110 C   0  0  0  0  0  0  0  0  0  0  0  0
   11.6230   -2.3320   21.5250 C   0  0  0  0  0  0  0  0  0  0  0  0
   11.9930   -3.1750   20.4980 C   0  0  0  0  0  0  0  0  0  0  0  0
   13.0480   -3.8670   20.4650 C   0  0  0  0  0  0  0  0  0  0  0  0
   13.7880   -3.8200   21.4610 C   0  0  0  0  0  0  0  0  0  0  0  0
   13.5430   -3.0150   22.5830 C   0  0  0  0  0  0  0  0  0  0  0  0
  1  2  2  0
  2  3  1  0
  3  4  1  0
  4  5  2  0
  5  6  1  0
  6  7  2  0
  7  8  1  0
  4  9  1  0
  8  9  2  0
  2 10  1  0
 11 10  1  1
 11 12  1  0
 12 13  1  1
 13 14  1  0
 14 15  1  0
 12 16  1  0
 16 15  1  1
 11 17  1  0
 16 17  1  0
 17 18  1  1
 18 19  1  0
 19 20  1  0
 20 21  2  0
 21 22  1  0
 22 23  2  0
 23 24  1  0
 20 25  1  0
 24 25  2  0
M  END
