pyridine_urea_939
     RDKit          3D

 22 24  0  0  0  0  0  0  0  0999 V2000
   13.2020   -2.6930   21.1430 C   0  0  0  0  0  0  0  0  0  0  0  0
   13.0350   -2.3970   22.6070 C   0  0  0  0  0  0  0  0  0  0  0  0
   13.9780   -2.9590   23.5380 N   0  0  0  0  0  0  0  0  0  0  0  0
   13.6160   -2.6170   24.8650 O   0  0  0  0  0  0  0  0  0  0  0  0
   13.0370   -1.3720   25.0660 C   0  0  0  0  0  0  0  0  0  0  0  0
   13.3330   -0.6080   25.9340 O   0  0  0  0  0  0  0  0  0  0  0  0
   12.0140   -1.1290   24.2210 C   0  0  0  0  0  0  0  0  0  0  0  0
   10.9390   -0.3510   24.6330 C   0  0  0  0  0  0  0  0  0  0  0  0
    9.7830   -0.1090   23.7240 C   0  0  0  0  0  0  0  0  0  0  0  0
    9.9020   -0.7840   22.3690 C   0  0  0  0  0  0  0  0  0  0  0  0
    8.9060   -0.7060   21.4040 N   0  0  0  0  0  0  0  0  0  0  0  0
    8.2270    0.4230   21.2560 C   0  0  0  0  0  0  0  0  0  0  0  0
    8.7480    1.5360   21.2170 O   0  0  0  0  0  0  0  0  0  0  0  0
    6.9260    0.0930   21.1290 N   0  0  0  0  0  0  0  0  0  0  0  0
    6.3010    0.5170   19.9940 C   0  0  0  0  0  0  0  0  0  0  0  0
    5.1320    1.2580   20.1310 C   0  0  0  0  0  0  0  0  0  0  0  0
    4.5340    1.7090   18.9780 C   0  0  0  0  0  0  0  0  0  0  0  0
    5.1190    1.4050   17.7840 C   0  0  0  0  0  0  0  0  0  0  0  0
    6.2250    0.6880   17.6060 N   0  0  0  0  0  0  0  0  0  0  0  0
    6.7980    0.2530   18.7330 C   0  0  0  0  0  0  0  0  0  0  0  0
   11.0090   -1.4790   22.1390 C   0  0  0  0  0  0  0  0  0  0  0  0
   12.0100   -1.6560   22.9830 C   0  0  0  0  0  0  0  0  0  0  0  0
  1  2  1  0
  2  3  2  0
  3  4  1  0
  4  5  1  0
  5  6  2  0
  5  7  1  0
  7  8  1  0
  8  9  2  0
  9 10  1  0
 10 11  1  0
 11 12  1  0
 12 13  2  0
 12 14  1  0
 14 15  1  0
 15 16  2  0
 16 17  1  0
 17 18  2  0
 18 19  1  0
 15 20  1  0
 19 20  2  0
 10 21  2  0
  2 22  1  0
  7 22  2  0
 21 22  1  0
M  END
