pyridine_urea_14858
     RDKit          3D

 19 19  0  0  0  0  0  0  0  0999 V2000
   13.1730   -1.8370   21.0660 C   0  0  0  0  0  0  0  0  0  0  0  0
   12.8010   -2.7210   22.2000 C   0  0  0  0  0  0  0  0  0  0  0  0
   12.6640   -2.0560   23.4780 N   0  0  0  0  0  0  0  0  0  0  0  0
   13.5520   -2.5490   24.5160 C   0  0  0  0  0  0  0  0  0  0  0  0
   12.6690   -0.6060   23.3780 C   0  0  0  0  0  0  0  0  0  0  0  0
   13.2260   -0.1060   24.3350 O   0  0  0  0  0  0  0  0  0  0  0  0
   12.1720    0.0180   22.4600 O   0  0  0  0  0  0  0  0  0  0  0  0
   10.8890   -0.4660   22.0850 C   0  0  0  0  0  0  0  0  0  0  0  0
   10.0310   -1.0440   22.9270 C   0  0  0  0  0  0  0  0  0  0  0  0
    8.7320   -1.0090   22.5420 N   0  0  0  0  0  0  0  0  0  0  0  0
    8.1760   -0.1950   21.5970 C   0  0  0  0  0  0  0  0  0  0  0  0
    8.7850    0.8430   21.3700 O   0  0  0  0  0  0  0  0  0  0  0  0
    7.0070   -0.6490   21.0430 N   0  0  0  0  0  0  0  0  0  0  0  0
    6.3860    0.0160   19.9930 C   0  0  0  0  0  0  0  0  0  0  0  0
    5.1960    0.7050   20.2140 C   0  0  0  0  0  0  0  0  0  0  0  0
    4.6130    1.3680   19.1600 C   0  0  0  0  0  0  0  0  0  0  0  0
    5.1720    1.3690   17.8960 C   0  0  0  0  0  0  0  0  0  0  0  0
    6.3150    0.7020   17.6710 N   0  0  0  0  0  0  0  0  0  0  0  0
    6.8890    0.0460   18.7080 C   0  0  0  0  0  0  0  0  0  0  0  0
  1  2  1  0
  2  3  1  0
  3  4  1  0
  3  5  1  0
  5  6  2  0
  5  7  1  0
  7  8  1  0
  8  9  1  0
  9 10  1  0
 10 11  1  0
 11 12  2  0
 11 13  1  0
 13 14  1  0
 14 15  2  0
 15 16  1  0
 16 17  2  0
 17 18  1  0
 14 19  1  0
 18 19  2  0
M  END
