pyridine_urea_3103
     RDKit          3D

 21 23  0  0  0  0  0  0  0  0999 V2000
    8.9550    1.3110   21.2520 O   0  0  0  0  0  0  0  0  0  0  0  0
    8.0620    0.5610   21.6580 C   0  0  0  0  0  0  0  0  0  0  0  0
    7.6330    0.4310   22.9500 N   0  0  0  0  0  0  0  0  0  0  0  0
    6.8600   -0.6420   23.4400 C   0  0  0  0  0  0  0  0  0  0  0  0
    7.7080   -1.6950   23.6000 C   0  0  0  0  0  0  0  0  0  0  0  0
    7.5420   -3.0160   23.9200 N   0  0  0  0  0  0  0  0  0  0  0  0
    8.8180   -3.5430   23.9120 N   0  0  0  0  0  0  0  0  0  0  0  0
    9.6590   -2.5660   23.6060 C   0  0  0  0  0  0  0  0  0  0  0  0
   11.0040   -2.5600   23.4670 C   0  0  0  0  0  0  0  0  0  0  0  0
   11.5870   -2.2150   22.1000 C   0  0  0  0  0  0  0  0  0  0  0  0
   12.9510   -2.2460   22.1100 C   0  0  0  0  0  0  0  0  0  0  0  0
   13.4700   -2.6200   23.4930 C   0  0  0  0  0  0  0  0  0  0  0  0
   12.2320   -2.8760   24.6280 S   0  0  0  0  0  0  0  0  0  0  0  0
    8.9980   -1.4250   23.4110 N   0  0  0  0  0  0  0  0  0  0  0  0
    7.2930   -0.2580   20.8890 N   0  0  0  0  0  0  0  0  0  0  0  0
    6.5140    0.2680   19.9630 C   0  0  0  0  0  0  0  0  0  0  0  0
    5.3410    0.9410   20.2420 C   0  0  0  0  0  0  0  0  0  0  0  0
    4.6210    1.4810   19.1820 C   0  0  0  0  0  0  0  0  0  0  0  0
    5.1160    1.3180   17.8930 C   0  0  0  0  0  0  0  0  0  0  0  0
    6.2410    0.6560   17.6190 N   0  0  0  0  0  0  0  0  0  0  0  0
    6.9080    0.1480   18.6570 C   0  0  0  0  0  0  0  0  0  0  0  0
  1  2  2  0
  2  3  1  0
  3  4  1  0
  4  5  1  0
  5  6  2  0
  6  7  1  0
  7  8  2  0
  8  9  1  0
  9 10  2  0
 10 11  1  0
 11 12  2  0
  9 13  1  0
 12 13  1  0
  5 14  1  0
  8 14  1  0
  2 15  1  0
 15 16  1  0
 16 17  2  0
 17 18  1  0
 18 19  2  0
 19 20  1  0
 16 21  1  0
 20 21  2  0
M  END
