pyridine_urea_9136
     RDKit          3D

 19 20  0  0  0  0  0  0  0  0999 V2000
   11.4030   -1.6270   22.1530 C   0  0  0  0  0  0  0  0  0  0  0  0
   10.4240   -0.7240   22.9670 C   0  0  2  0  0  0  0  0  0  0  0  0
    9.0350   -0.9050   22.4940 N   0  0  0  0  0  0  0  0  0  0  0  0
    8.3950   -0.1550   21.4910 C   0  0  0  0  0  0  0  0  0  0  0  0
    8.7930    1.1680   21.0870 O   0  0  0  0  0  0  0  0  0  0  0  0
    7.3320   -0.8890   21.0060 N   0  0  0  0  0  0  0  0  0  0  0  0
    6.6040   -0.1210   20.1080 C   0  0  0  0  0  0  0  0  0  0  0  0
    5.4680    0.6560   20.3600 C   0  0  0  0  0  0  0  0  0  0  0  0
    4.8070    1.3860   19.3630 C   0  0  0  0  0  0  0  0  0  0  0  0
    5.3060    1.3320   18.0790 C   0  0  0  0  0  0  0  0  0  0  0  0
    6.3900    0.6040   17.7830 N   0  0  0  0  0  0  0  0  0  0  0  0
    6.9980   -0.0930   18.7790 C   0  0  0  0  0  0  0  0  0  0  0  0
   10.8210    0.7450   22.9220 C   0  0  0  0  0  0  0  0  0  0  0  0
   10.0040    1.7030   22.8690 C   0  0  0  0  0  0  0  0  0  0  0  0
   11.4320    1.9150   22.8850 C   0  0  0  0  0  0  0  0  0  0  0  0
   11.6670    0.2880   22.9710 C   0  0  0  0  0  0  0  0  0  0  0  0
   13.0400    0.5130   22.9880 C   0  0  0  0  0  0  0  0  0  0  0  0
   12.0900    1.4010   22.9230 C   0  0  0  0  0  0  0  0  0  0  0  0
   12.3940    3.1150   22.8380 Cl  0  0  0  0  0  0  0  0  0  0  0  0
  2  1  1  6
  2  3  1  0
  3  4  1  0
  4  5  2  0
  4  6  1  0
  6  7  1  0
  7  8  2  0
  8  9  1  0
  9 10  2  0
 10 11  1  0
  7 12  1  0
 11 12  2  0
  2 13  1  0
 13 14  2  0
 14 15  1  0
 15 16  2  0
 16 17  1  0
 13 18  1  0
 17 18  2  0
 18 19  1  0
M  END
