pyridine_urea_1861
     RDKit          3D

 16 17  0  0  0  0  0  0  0  0999 V2000
   10.3000   -1.7200   24.2780 C   0  0  0  0  0  0  0  0  0  0  0  0
   10.1110   -1.2950   22.8740 C   0  0  1  0  0  0  0  0  0  0  0  0
    8.9230   -0.4510   22.7810 N   0  0  0  0  0  0  0  0  0  0  0  0
    8.5000    0.1960   21.6300 C   0  0  0  0  0  0  0  0  0  0  0  0
    9.0340    1.2340   21.2190 O   0  0  0  0  0  0  0  0  0  0  0  0
    7.4190   -0.4490   21.0610 N   0  0  0  0  0  0  0  0  0  0  0  0
    6.6430    0.1240   20.0410 C   0  0  0  0  0  0  0  0  0  0  0  0
    5.5020    0.8360   20.3680 C   0  0  0  0  0  0  0  0  0  0  0  0
    4.7350    1.4220   19.3560 C   0  0  0  0  0  0  0  0  0  0  0  0
    5.1510    1.2690   18.0450 C   0  0  0  0  0  0  0  0  0  0  0  0
    6.2440    0.5800   17.7070 N   0  0  0  0  0  0  0  0  0  0  0  0
    6.9620    0.0240   18.7050 C   0  0  0  0  0  0  0  0  0  0  0  0
   11.3290   -0.5840   22.3830 C   0  0  0  0  0  0  0  0  0  0  0  0
   12.5040   -1.2910   22.0850 C   0  0  0  0  0  0  0  0  0  0  0  0
   13.2680   -0.5210   22.8300 C   0  0  0  0  0  0  0  0  0  0  0  0
   12.2650    0.1210   23.4480 C   0  0  0  0  0  0  0  0  0  0  0  0
  2  1  1  1
  2  3  1  0
  3  4  1  0
  4  5  2  0
  4  6  1  0
  6  7  1  0
  7  8  2  0
  8  9  1  0
  9 10  2  0
 10 11  1  0
  7 12  1  0
 11 12  2  0
  2 13  1  0
 13 14  1  0
 14 15  1  0
 13 16  1  0
 15 16  1  0
M  END
