pyridine_urea_4132
     RDKit          3D

 25 27  0  0  0  0  0  0  0  0999 V2000
    8.5840    0.8400   21.1180 O   0  0  0  0  0  0  0  0  0  0  0  0
    8.1040   -0.2460   21.4220 C   0  0  0  0  0  0  0  0  0  0  0  0
    8.6260   -1.1420   22.2850 N   0  0  0  0  0  0  0  0  0  0  0  0
    9.6950   -0.8280   23.0990 C   0  0  0  0  0  0  0  0  0  0  0  0
   10.8100   -0.3460   22.4420 C   0  0  1  0  0  0  0  0  0  0  0  0
   11.5200    0.7710   22.8860 C   0  0  0  0  0  0  0  0  0  0  0  0
   12.0180    0.1950   23.9890 C   0  0  0  0  0  0  0  0  0  0  0  0
   10.7370    0.3150   24.3760 C   0  0  0  0  0  0  0  0  0  0  0  0
    9.6370    0.8420   23.7700 C   0  0  0  0  0  0  0  0  0  0  0  0
    9.3960    0.2510   25.1560 C   0  0  0  0  0  0  0  0  0  0  0  0
   10.4940   -0.3070   25.8290 C   0  0  0  0  0  0  0  0  0  0  0  0
   11.8380   -0.3370   25.2600 C   0  0  0  0  0  0  0  0  0  0  0  0
   11.8700   -1.2910   22.8460 C   0  0  0  0  0  0  0  0  0  0  0  0
   12.3290   -1.8760   21.7210 C   0  0  0  0  0  0  0  0  0  0  0  0
   13.3380   -2.7310   21.7940 C   0  0  0  0  0  0  0  0  0  0  0  0
   13.8530   -2.9530   23.1890 C   0  0  0  0  0  0  0  0  0  0  0  0
   13.3150   -2.3200   24.4150 C   0  0  0  0  0  0  0  0  0  0  0  0
   12.2580   -1.4340   24.2280 N   0  0  0  0  0  0  0  0  0  0  0  0
    6.9250   -0.6800   20.9050 N   0  0  0  0  0  0  0  0  0  0  0  0
    6.2820    0.0170   19.9700 C   0  0  0  0  0  0  0  0  0  0  0  0
    5.0700    0.6880   20.1370 C   0  0  0  0  0  0  0  0  0  0  0  0
    4.5220    1.3950   19.0680 C   0  0  0  0  0  0  0  0  0  0  0  0
    5.1900    1.4210   17.8500 C   0  0  0  0  0  0  0  0  0  0  0  0
    6.3520    0.7880   17.6350 N   0  0  0  0  0  0  0  0  0  0  0  0
    6.8800    0.0790   18.7410 C   0  0  0  0  0  0  0  0  0  0  0  0
  1  2  2  0
  2  3  1  0
  3  4  1  0
  5  4  1  1
  5  6  1  0
  6  7  1  0
  7  8  2  0
  8  9  1  0
  9 10  2  0
 10 11  1  0
  7 12  1  0
 11 12  2  0
  5 13  1  0
 13 14  2  0
 14 15  1  0
 15 16  2  0
 16 17  1  0
 13 18  1  0
 17 18  2  0
  2 19  1  0
 19 20  1  0
 20 21  2  0
 21 22  1  0
 22 23  2  0
 23 24  1  0
 20 25  1  0
 24 25  2  0
M  END
