pyridine_urea_4970
     RDKit          3D

 21 23  0  0  0  0  0  0  0  0999 V2000
    6.1990    3.3720   23.9540 C   0  0  0  0  0  0  0  0  0  0  0  0
    7.0420    2.1250   23.5880 C   0  0  0  0  0  0  0  0  0  0  0  0
    8.0670    2.1810   22.4650 C   0  0  0  0  0  0  0  0  0  0  0  0
    8.8070    1.0660   22.1520 C   0  0  0  0  0  0  0  0  0  0  0  0
    8.6710   -0.1650   22.8250 C   0  0  0  0  0  0  0  0  0  0  0  0
    9.4460   -1.3130   22.4840 C   0  0  0  0  0  0  0  0  0  0  0  0
    8.5540   -1.9300   21.5800 N   0  0  0  0  0  0  0  0  0  0  0  0
    7.9340   -0.8620   21.0130 C   0  0  0  0  0  0  0  0  0  0  0  0
    8.4950    0.2060   20.9030 O   0  0  0  0  0  0  0  0  0  0  0  0
    6.6800   -1.0460   20.6190 N   0  0  0  0  0  0  0  0  0  0  0  0
    6.0480   -0.1970   19.8040 C   0  0  0  0  0  0  0  0  0  0  0  0
    4.8620    0.4620   20.0510 C   0  0  0  0  0  0  0  0  0  0  0  0
    4.3730    1.3220   19.0770 C   0  0  0  0  0  0  0  0  0  0  0  0
    5.1010    1.4830   17.8910 C   0  0  0  0  0  0  0  0  0  0  0  0
    6.2550    0.8430   17.6430 N   0  0  0  0  0  0  0  0  0  0  0  0
    6.6940    0.0240   18.6080 C   0  0  0  0  0  0  0  0  0  0  0  0
    9.8030   -2.2350   23.5820 C   0  0  0  0  0  0  0  0  0  0  0  0
   11.0680   -2.2390   23.1490 C   0  0  0  0  0  0  0  0  0  0  0  0
   10.8970   -1.3770   22.0190 C   0  0  0  0  0  0  0  0  0  0  0  0
    7.7210   -0.2880   23.8970 C   0  0  0  0  0  0  0  0  0  0  0  0
    6.9110    0.7810   24.3070 C   0  0  0  0  0  0  0  0  0  0  0  0
  1  2  1  0
  2  3  2  0
  3  4  1  0
  4  5  2  0
  5  6  1  0
  6  7  1  0
  7  8  1  0
  8  9  2  0
  8 10  1  0
 10 11  1  0
 11 12  2  0
 12 13  1  0
 13 14  2  0
 14 15  1  0
 11 16  1  0
 15 16  2  0
  6 17  1  0
 17 18  1  0
  6 19  1  0
 18 19  1  0
  5 20  1  0
  2 21  1  0
 20 21  2  0
M  END
