pyridine_urea_10452
     RDKit          3D

 22 24  0  0  0  0  0  0  0  0999 V2000
    8.7250    1.3240   21.1400 O   0  0  0  0  0  0  0  0  0  0  0  0
    8.4840    0.1210   21.2760 C   0  0  0  0  0  0  0  0  0  0  0  0
    9.4230   -0.7980   21.6510 N   0  0  0  0  0  0  0  0  0  0  0  0
   10.4620   -0.4080   22.5040 C   0  0  0  0  0  0  0  0  0  0  0  0
   11.8440   -1.1020   22.5690 C   0  0  0  0  0  0  0  0  0  0  0  0
   12.3400   -1.5820   23.8800 C   0  0  0  0  0  0  0  0  0  0  0  0
   12.7670   -1.6040   25.0700 C   0  0  0  0  0  0  0  0  0  0  0  0
   12.7140   -0.3930   25.1250 C   0  0  0  0  0  0  0  0  0  0  0  0
   12.1630   -0.4820   23.6220 C   0  0  0  0  0  0  0  0  0  0  0  0
   12.0900    0.7680   23.5870 C   0  0  0  0  0  0  0  0  0  0  0  0
   11.7790    2.3380   22.9500 Cl  0  0  0  0  0  0  0  0  0  0  0  0
   12.4710   -0.0970   24.5140 C   0  0  0  0  0  0  0  0  0  0  0  0
   12.9440   -1.4290   21.4730 C   0  0  0  0  0  0  0  0  0  0  0  0
   13.0830   -2.4640   22.3400 C   0  0  0  0  0  0  0  0  0  0  0  0
   11.7090   -2.6760   22.5990 C   0  0  0  0  0  0  0  0  0  0  0  0
    7.2610   -0.4430   21.0240 N   0  0  0  0  0  0  0  0  0  0  0  0
    6.5250    0.1120   20.0180 C   0  0  0  0  0  0  0  0  0  0  0  0
    5.3560    0.7970   20.3050 C   0  0  0  0  0  0  0  0  0  0  0  0
    4.6220    1.3910   19.2820 C   0  0  0  0  0  0  0  0  0  0  0  0
    5.1010    1.2680   17.9890 C   0  0  0  0  0  0  0  0  0  0  0  0
    6.2190    0.5990   17.6830 N   0  0  0  0  0  0  0  0  0  0  0  0
    6.9060    0.0380   18.6980 C   0  0  0  0  0  0  0  0  0  0  0  0
  1  2  2  0
  2  3  1  0
  3  4  1  0
  4  5  1  0
  5  6  1  0
  6  7  2  0
  7  8  1  0
  8  9  2  0
  9 10  1  0
 10 11  1  0
  6 12  1  0
 10 12  2  0
  5 13  1  0
 13 14  1  0
  5 15  1  0
 14 15  1  0
  2 16  1  0
 16 17  1  0
 17 18  2  0
 18 19  1  0
 19 20  2  0
 20 21  1  0
 17 22  1  0
 21 22  2  0
M  END
