pyridine_urea_14094
     RDKit          3D

 23 25  0  0  0  0  0  0  0  0999 V2000
    9.1920   -0.9060   21.0290 O   0  0  0  0  0  0  0  0  0  0  0  0
    8.2330   -0.2640   21.3460 C   0  0  0  0  0  0  0  0  0  0  0  0
    6.9390   -0.6420   21.0970 N   0  0  0  0  0  0  0  0  0  0  0  0
    6.3460    0.0310   19.9800 C   0  0  0  0  0  0  0  0  0  0  0  0
    5.0540    0.7820   20.2570 C   0  0  0  0  0  0  0  0  0  0  0  0
    4.4930    1.4780   19.0700 C   0  0  0  0  0  0  0  0  0  0  0  0
    5.1670    1.3870   17.8660 C   0  0  0  0  0  0  0  0  0  0  0  0
    6.3080    0.6980   17.6810 N   0  0  0  0  0  0  0  0  0  0  0  0
    6.8650    0.0460   18.7160 C   0  0  0  0  0  0  0  0  0  0  0  0
    8.3340    0.9360   21.9870 N   0  0  0  0  0  0  0  0  0  0  0  0
    9.2630    0.9770   23.1140 C   0  0  0  0  0  0  0  0  0  0  0  0
    9.6650   -0.2820   23.2380 C   0  0  0  0  0  0  0  0  0  0  0  0
   10.7730    0.1290   22.5300 C   0  0  0  0  0  0  0  0  0  0  0  0
   11.5630    0.5030   23.4520 N   0  0  0  0  0  0  0  0  0  0  0  0
   12.2870   -0.5260   23.4460 C   0  0  0  0  0  0  0  0  0  0  0  0
   13.1020   -1.1180   24.3190 C   0  0  0  0  0  0  0  0  0  0  0  0
   13.7210   -2.2510   23.9830 C   0  0  0  0  0  0  0  0  0  0  0  0
   13.6850   -3.0320   22.6880 C   0  0  0  0  0  0  0  0  0  0  0  0
   12.7600   -2.2300   21.8970 C   0  0  0  0  0  0  0  0  0  0  0  0
   12.5000   -2.6330   20.6710 F   0  0  0  0  0  0  0  0  0  0  0  0
   12.1050   -1.0590   22.2840 C   0  0  0  0  0  0  0  0  0  0  0  0
   11.7650    1.7070   23.0470 C   0  0  0  0  0  0  0  0  0  0  0  0
   10.3850    2.1110   22.8890 C   0  0  0  0  0  0  0  0  0  0  0  0
  1  2  2  0
  2  3  1  0
  3  4  1  0
  4  5  2  0
  5  6  1  0
  6  7  2  0
  7  8  1  0
  4  9  1  0
  8  9  2  0
  2 10  1  0
 10 11  1  0
 11 12  1  0
 12 13  1  0
 13 14  1  0
 14 15  1  0
 15 16  2  0
 16 17  1  0
 17 18  2  0
 18 19  1  0
 19 20  1  0
 15 21  1  0
 19 21  2  0
 14 22  1  0
 11 23  1  0
 22 23  1  0
M  END
