pyridine_urea_2064
     RDKit          3D

 23 25  0  0  0  0  0  0  0  0999 V2000
    8.9660    4.9370   22.9330 C   0  0  0  0  0  0  0  0  0  0  0  0
    7.9670    3.8230   22.5480 C   0  0  0  0  0  0  0  0  0  0  0  0
    8.3140    2.5710   23.1680 O   0  0  0  0  0  0  0  0  0  0  0  0
    8.7720    1.5890   22.3260 C   0  0  0  0  0  0  0  0  0  0  0  0
    8.8910    1.7440   21.1100 O   0  0  0  0  0  0  0  0  0  0  0  0
    9.1200    0.2910   23.0860 C   0  0  2  0  0  0  0  0  0  0  0  0
    8.2650   -0.8360   22.8420 N   0  0  0  0  0  0  0  0  0  0  0  0
    7.8950   -0.8160   21.5220 C   0  0  0  0  0  0  0  0  0  0  0  0
    8.7120   -0.6830   20.6800 O   0  0  0  0  0  0  0  0  0  0  0  0
    6.5790   -0.9210   21.2980 N   0  0  0  0  0  0  0  0  0  0  0  0
    6.1280   -0.1910   20.2350 C   0  0  0  0  0  0  0  0  0  0  0  0
    4.9870    0.6000   20.2710 C   0  0  0  0  0  0  0  0  0  0  0  0
    4.5640    1.3310   19.1660 C   0  0  0  0  0  0  0  0  0  0  0  0
    5.2820    1.2860   17.9860 C   0  0  0  0  0  0  0  0  0  0  0  0
    6.4030    0.5560   17.8250 N   0  0  0  0  0  0  0  0  0  0  0  0
    6.8350   -0.1700   18.8980 C   0  0  0  0  0  0  0  0  0  0  0  0
   10.4430   -0.0410   22.6600 C   0  0  0  0  0  0  0  0  0  0  0  0
   10.5220    0.4410   23.8980 C   0  0  0  0  0  0  0  0  0  0  0  0
   11.4010   -0.6430   24.4790 C   0  0  0  0  0  0  0  0  0  0  0  0
   12.6830   -0.5870   23.9930 C   0  0  0  0  0  0  0  0  0  0  0  0
   12.9130    0.2230   22.8950 C   0  0  0  0  0  0  0  0  0  0  0  0
   12.4400    1.5350   23.0180 C   0  0  0  0  0  0  0  0  0  0  0  0
   11.2550    1.7470   23.6760 C   0  0  0  0  0  0  0  0  0  0  0  0
  1  2  1  0
  2  3  1  0
  3  4  1  0
  4  5  2  0
  6  4  1  0
  6  7  1  1
  7  8  1  0
  8  9  2  0
  8 10  1  0
 10 11  1  0
 11 12  2  0
 12 13  1  0
 13 14  2  0
 14 15  1  0
 11 16  1  0
 15 16  2  0
  6 17  1  0
  6 18  1  0
 18 17  1  0
 18 19  1  0
 19 20  1  0
 20 21  1  0
 21 22  1  0
 18 23  1  0
 22 23  1  0
M  END
