pyridine_urea_11264
     RDKit          3D

 16 16  0  0  0  0  0  0  0  0999 V2000
   10.3850    0.6720   23.6270 C   0  0  0  0  0  0  0  0  0  0  0  0
   10.4650   -0.5020   23.3780 C   0  0  1  0  0  0  0  0  0  0  0  0
    9.4050   -0.9450   22.4310 N   0  0  0  0  0  0  0  0  0  0  0  0
    8.6840    0.0170   21.5880 C   0  0  0  0  0  0  0  0  0  0  0  0
    9.1650    1.3410   21.3080 O   0  0  0  0  0  0  0  0  0  0  0  0
    7.4320   -0.5230   21.0940 N   0  0  0  0  0  0  0  0  0  0  0  0
    6.7370    0.0200   20.0660 C   0  0  0  0  0  0  0  0  0  0  0  0
    5.6480    0.7740   20.4230 C   0  0  0  0  0  0  0  0  0  0  0  0
    4.7530    1.4880   19.4050 C   0  0  0  0  0  0  0  0  0  0  0  0
    5.1270    1.3270   17.9910 C   0  0  0  0  0  0  0  0  0  0  0  0
    6.2350    0.5390   17.7480 N   0  0  0  0  0  0  0  0  0  0  0  0
    7.0270   -0.1040   18.7230 C   0  0  0  0  0  0  0  0  0  0  0  0
   11.8440   -0.9520   22.7610 C   0  0  0  0  0  0  0  0  0  0  0  0
   12.2570   -1.3640   24.0390 C   0  0  0  0  0  0  0  0  0  0  0  0
   12.1070   -2.0570   21.7430 C   0  0  0  0  0  0  0  0  0  0  0  0
   12.9760    0.0510   22.7360 C   0  0  0  0  0  0  0  0  0  0  0  0
  2  1  1  6
  2  3  1  0
  3  4  1  0
  4  5  2  0
  4  6  1  0
  6  7  1  0
  7  8  2  0
  8  9  1  0
  9 10  2  0
 10 11  1  0
  7 12  1  0
 11 12  2  0
  2 13  1  0
 13 14  1  0
 13 15  1  0
 13 16  1  0
M  END
