pyridine_urea_239
     RDKit          3D

 19 20  0  0  0  0  0  0  0  0999 V2000
    7.6480   -5.1310   23.4820 C   0  0  0  0  0  0  0  0  0  0  0  0
    8.3080   -4.1310   23.6010 C   0  0  0  0  0  0  0  0  0  0  0  0
    9.6500   -3.3300   23.7610 C   0  0  0  0  0  0  0  0  0  0  0  0
    9.8400   -1.8880   23.8650 N   0  0  0  0  0  0  0  0  0  0  0  0
    8.6050   -1.1670   23.8250 C   0  0  0  0  0  0  0  0  0  0  0  0
    7.4080   -1.7840   23.6980 C   0  0  0  0  0  0  0  0  0  0  0  0
    6.0770   -1.0240   23.6570 C   0  0  0  0  0  0  0  0  0  0  0  0
    6.4090    0.4060   23.5430 C   0  0  0  0  0  0  0  0  0  0  0  0
    7.7960    0.4640   23.0780 N   0  0  0  0  0  0  0  0  0  0  0  0
    8.0770    0.5400   21.6490 C   0  0  0  0  0  0  0  0  0  0  0  0
    8.9870    1.4930   21.1070 O   0  0  0  0  0  0  0  0  0  0  0  0
    7.3390   -0.3730   20.9960 N   0  0  0  0  0  0  0  0  0  0  0  0
    6.6440    0.1560   19.9860 C   0  0  0  0  0  0  0  0  0  0  0  0
    5.4980    0.9200   20.2400 C   0  0  0  0  0  0  0  0  0  0  0  0
    4.7340    1.5220   19.2460 C   0  0  0  0  0  0  0  0  0  0  0  0
    5.1330    1.3540   17.9490 C   0  0  0  0  0  0  0  0  0  0  0  0
    6.2300    0.6130   17.6510 N   0  0  0  0  0  0  0  0  0  0  0  0
    6.9820    0.0140   18.6590 C   0  0  0  0  0  0  0  0  0  0  0  0
    7.2990   -3.1660   23.5940 N   0  0  0  0  0  0  0  0  0  0  0  0
  1  2  1  0
  2  3  2  0
  3  4  1  0
  4  5  2  0
  5  6  1  0
  6  7  1  0
  7  8  1  0
  8  9  1  0
  9 10  1  0
 10 11  2  0
 10 12  1  0
 12 13  1  0
 13 14  2  0
 14 15  1  0
 15 16  2  0
 16 17  1  0
 13 18  1  0
 17 18  2  0
  2 19  1  0
  6 19  2  0
M  END
