pyridine_urea_792
     RDKit          3D

 23 25  0  0  0  0  0  0  0  0999 V2000
    8.9910    1.7050   21.4290 O   0  0  0  0  0  0  0  0  0  0  0  0
    7.9840    1.0330   21.6340 C   0  0  0  0  0  0  0  0  0  0  0  0
    7.0120    1.2340   22.7050 N   0  0  0  0  0  0  0  0  0  0  0  0
    6.0020    0.2490   22.7620 C   0  0  0  0  0  0  0  0  0  0  0  0
    6.7170   -0.8930   22.7380 C   0  0  0  0  0  0  0  0  0  0  0  0
    6.5000   -2.2210   22.3840 N   0  0  0  0  0  0  0  0  0  0  0  0
    7.7710   -2.7880   22.6320 O   0  0  0  0  0  0  0  0  0  0  0  0
    8.5130   -1.7310   23.0870 C   0  0  0  0  0  0  0  0  0  0  0  0
    9.7870   -1.9150   23.4730 C   0  0  0  0  0  0  0  0  0  0  0  0
   10.0590   -3.1960   24.0610 C   0  0  0  0  0  0  0  0  0  0  0  0
   11.4380   -3.3520   24.5750 C   0  0  0  0  0  0  0  0  0  0  0  0
   12.3930   -2.2270   24.4310 C   0  0  0  0  0  0  0  0  0  0  0  0
   13.8970   -2.5320   25.1020 Cl  0  0  0  0  0  0  0  0  0  0  0  0
   12.0480   -1.0500   23.8150 C   0  0  0  0  0  0  0  0  0  0  0  0
   10.7490   -0.8950   23.3420 C   0  0  0  0  0  0  0  0  0  0  0  0
    7.9410   -0.6360   23.1590 N   0  0  0  0  0  0  0  0  0  0  0  0
    7.5200    0.0060   20.9040 N   0  0  0  0  0  0  0  0  0  0  0  0
    6.7300    0.3480   19.7840 C   0  0  0  0  0  0  0  0  0  0  0  0
    5.7640    1.2800   20.1380 C   0  0  0  0  0  0  0  0  0  0  0  0
    4.9350    1.7370   19.1420 C   0  0  0  0  0  0  0  0  0  0  0  0
    5.1220    1.2410   17.8710 C   0  0  0  0  0  0  0  0  0  0  0  0
    6.0470    0.3370   17.5480 N   0  0  0  0  0  0  0  0  0  0  0  0
    6.8460   -0.1020   18.5320 C   0  0  0  0  0  0  0  0  0  0  0  0
  1  2  2  0
  2  3  1  0
  3  4  1  0
  4  5  1  0
  5  6  2  0
  6  7  1  0
  7  8  1  0
  8  9  1  0
  9 10  2  0
 10 11  1  0
 11 12  2  0
 12 13  1  0
 12 14  1  0
  9 15  1  0
 14 15  2  0
  5 16  1  0
  8 16  2  0
  2 17  1  0
 17 18  1  0
 18 19  2  0
 19 20  1  0
 20 21  2  0
 21 22  1  0
 18 23  1  0
 22 23  2  0
M  END
