pyridine_urea_10187
     RDKit          3D

 23 25  0  0  0  0  0  0  0  0999 V2000
    8.0670   -2.6020   24.0020 C   0  0  0  0  0  0  0  0  0  0  0  0
    9.2590   -3.1340   23.2250 C   0  0  0  0  0  0  0  0  0  0  0  0
   10.4300   -2.2420   23.2180 N   0  0  0  0  0  0  0  0  0  0  0  0
   10.6000   -1.0210   22.5370 C   0  0  0  0  0  0  0  0  0  0  0  0
    9.6790   -0.5170   21.8220 C   0  0  0  0  0  0  0  0  0  0  0  0
    8.7080   -0.5280   22.7560 C   0  0  0  0  0  0  0  0  0  0  0  0
    7.9970    0.5320   22.8200 N   0  0  0  0  0  0  0  0  0  0  0  0
    7.8940    0.8230   21.5560 C   0  0  0  0  0  0  0  0  0  0  0  0
    8.5160    1.7440   21.0270 O   0  0  0  0  0  0  0  0  0  0  0  0
    6.9760   -0.1440   20.9820 N   0  0  0  0  0  0  0  0  0  0  0  0
    6.3840    0.3680   19.8790 C   0  0  0  0  0  0  0  0  0  0  0  0
    5.2380    1.1420   20.0620 C   0  0  0  0  0  0  0  0  0  0  0  0
    4.6040    1.7280   18.9650 C   0  0  0  0  0  0  0  0  0  0  0  0
    5.1450    1.5180   17.7160 C   0  0  0  0  0  0  0  0  0  0  0  0
    6.2690    0.7380   17.5540 N   0  0  0  0  0  0  0  0  0  0  0  0
    6.8660    0.1770   18.6200 C   0  0  0  0  0  0  0  0  0  0  0  0
   11.7840   -0.4640   22.7700 N   0  0  0  0  0  0  0  0  0  0  0  0
   12.3570   -1.3460   23.6080 C   0  0  0  0  0  0  0  0  0  0  0  0
   13.5210   -1.2610   24.1480 C   0  0  0  0  0  0  0  0  0  0  0  0
   13.9560   -2.2770   24.9970 C   0  0  0  0  0  0  0  0  0  0  0  0
   13.2170   -3.3350   25.2640 C   0  0  0  0  0  0  0  0  0  0  0  0
   11.9800   -3.4230   24.6980 C   0  0  0  0  0  0  0  0  0  0  0  0
   11.6260   -2.4420   23.9230 C   0  0  0  0  0  0  0  0  0  0  0  0
  1  2  1  0
  2  3  1  0
  3  4  1  0
  4  5  1  0
  5  6  1  0
  6  7  1  0
  7  8  1  0
  8  9  2  0
  8 10  1  0
 10 11  1  0
 11 12  2  0
 12 13  1  0
 13 14  2  0
 14 15  1  0
 11 16  1  0
 15 16  2  0
  4 17  2  0
 17 18  1  0
 18 19  1  0
 19 20  2  0
 20 21  1  0
 21 22  2  0
  3 23  1  0
 18 23  2  0
 22 23  1  0
M  END
