pyridine_urea_4748
     RDKit          3D

 22 24  0  0  0  0  0  0  0  0999 V2000
    9.7930   -0.0790   26.4410 C   0  0  0  0  0  0  0  0  0  0  0  0
   10.8010   -0.5180   25.3320 C   0  0  0  0  0  0  0  0  0  0  0  0
   12.0920   -1.4250   25.1680 N   0  0  0  0  0  0  0  0  0  0  0  0
   12.5650   -1.4630   23.7460 C   0  0  0  0  0  0  0  0  0  0  0  0
   12.2060   -0.9280   22.5530 C   0  0  0  0  0  0  0  0  0  0  0  0
   13.2760   -1.7500   22.4370 C   0  0  0  0  0  0  0  0  0  0  0  0
   13.5920   -2.2700   23.7070 C   0  0  0  0  0  0  0  0  0  0  0  0
   12.8040   -1.8830   24.8180 C   0  0  0  0  0  0  0  0  0  0  0  0
   11.7330   -1.0080   24.5330 C   0  0  0  0  0  0  0  0  0  0  0  0
   10.8530   -0.2180   23.9730 C   0  0  0  0  0  0  0  0  0  0  0  0
   10.3970    0.3670   22.8600 C   0  0  0  0  0  0  0  0  0  0  0  0
   10.2070   -0.8030   22.1120 C   0  0  0  0  0  0  0  0  0  0  0  0
    9.1370   -0.8690   21.3060 N   0  0  0  0  0  0  0  0  0  0  0  0
    8.2120    0.1450   21.1610 C   0  0  0  0  0  0  0  0  0  0  0  0
    8.5350    1.3360   21.1070 O   0  0  0  0  0  0  0  0  0  0  0  0
    6.9780   -0.3730   21.0610 N   0  0  0  0  0  0  0  0  0  0  0  0
    6.2870    0.2220   20.0760 C   0  0  0  0  0  0  0  0  0  0  0  0
    5.0540    0.9220   20.2820 C   0  0  0  0  0  0  0  0  0  0  0  0
    4.5020    1.4890   19.1560 C   0  0  0  0  0  0  0  0  0  0  0  0
    5.2180    1.3300   17.8540 C   0  0  0  0  0  0  0  0  0  0  0  0
    6.3530    0.6680   17.6910 N   0  0  0  0  0  0  0  0  0  0  0  0
    6.8510    0.1320   18.8110 C   0  0  0  0  0  0  0  0  0  0  0  0
  1  2  1  0
  2  3  1  0
  3  4  1  0
  4  5  2  0
  5  6  1  0
  6  7  2  0
  7  8  1  0
  4  9  1  0
  8  9  2  0
  2 10  2  0
  9 10  1  0
 10 11  1  0
 11 12  1  0
 12 13  1  0
 13 14  1  0
 14 15  2  0
 14 16  1  0
 16 17  1  0
 17 18  2  0
 18 19  1  0
 19 20  2  0
 20 21  1  0
 17 22  1  0
 21 22  2  0
M  END
