pyridine_urea_13266
     RDKit          3D

 15 15  0  0  0  0  0  0  0  0999 V2000
    8.9400    1.2550   21.2080 O   0  0  0  0  0  0  0  0  0  0  0  0
    8.5430    0.1220   21.5110 C   0  0  0  0  0  0  0  0  0  0  0  0
    9.1880   -0.7220   22.3860 N   0  0  0  0  0  0  0  0  0  0  0  0
   10.4340   -0.4840   23.0120 C   0  0  0  0  0  0  0  0  0  0  0  0
   11.5080   -1.2920   22.6380 C   0  0  2  0  0  0  0  0  0  0  0  0
   11.4140   -2.5260   23.1520 F   0  0  0  0  0  0  0  0  0  0  0  0
   12.7220   -0.7250   23.0330 C   0  0  0  0  0  0  0  0  0  0  0  0
   13.0590    0.1170   22.2350 O   0  0  0  0  0  0  0  0  0  0  0  0
    7.3860   -0.4600   21.0310 N   0  0  0  0  0  0  0  0  0  0  0  0
    6.6120    0.1170   20.0530 C   0  0  0  0  0  0  0  0  0  0  0  0
    5.3500    0.8780   20.4450 C   0  0  0  0  0  0  0  0  0  0  0  0
    4.6190    1.4560   19.4100 C   0  0  0  0  0  0  0  0  0  0  0  0
    5.1530    1.2730   17.9860 C   0  0  0  0  0  0  0  0  0  0  0  0
    6.2700    0.5820   17.7030 N   0  0  0  0  0  0  0  0  0  0  0  0
    6.9580    0.0300   18.7200 C   0  0  0  0  0  0  0  0  0  0  0  0
  1  2  2  0
  2  3  1  0
  3  4  1  0
  4  5  1  0
  5  6  1  1
  5  7  1  0
  7  8  1  0
  2  9  1  0
  9 10  1  0
 10 11  2  0
 11 12  1  0
 12 13  2  0
 13 14  1  0
 10 15  1  0
 14 15  2  0
M  END
