pyridine_urea_6069
     RDKit          3D

 25 27  0  0  0  0  0  0  0  0999 V2000
    8.9830    1.1540   21.2470 O   0  0  0  0  0  0  0  0  0  0  0  0
    8.4320    0.0930   21.5750 C   0  0  0  0  0  0  0  0  0  0  0  0
    8.9290   -0.7300   22.6750 N   0  0  0  0  0  0  0  0  0  0  0  0
    8.5930   -2.0800   22.7400 C   0  0  0  0  0  0  0  0  0  0  0  0
    8.2020   -2.5840   23.9880 C   0  0  0  0  0  0  0  0  0  0  0  0
    8.4950   -3.9460   24.0350 C   0  0  0  0  0  0  0  0  0  0  0  0
    8.3900   -4.5980   25.2760 C   0  0  0  0  0  0  0  0  0  0  0  0
    7.2820   -4.5360   26.0260 N   0  0  0  0  0  0  0  0  0  0  0  0
    6.2080   -5.2020   25.4970 C   0  0  0  0  0  0  0  0  0  0  0  0
    5.6540   -5.3700   24.4230 O   0  0  0  0  0  0  0  0  0  0  0  0
    5.6220   -5.8870   26.6910 C   0  0  0  0  0  0  0  0  0  0  0  0
    4.4570   -6.8490   26.7350 C   0  0  0  0  0  0  0  0  0  0  0  0
    4.1470   -7.3300   28.0020 C   0  0  0  0  0  0  0  0  0  0  0  0
    4.9110   -6.9050   29.1160 C   0  0  0  0  0  0  0  0  0  0  0  0
    5.9930   -6.0050   29.0430 C   0  0  0  0  0  0  0  0  0  0  0  0
    6.3170   -5.5150   27.7980 C   0  0  0  0  0  0  0  0  0  0  0  0
    7.3350   -4.6180   27.4660 C   0  0  0  0  0  0  0  0  0  0  0  0
    8.1520   -3.9710   28.3560 O   0  0  0  0  0  0  0  0  0  0  0  0
    7.3050   -0.4540   21.0090 N   0  0  0  0  0  0  0  0  0  0  0  0
    6.5870    0.1130   20.0210 C   0  0  0  0  0  0  0  0  0  0  0  0
    5.4260    0.8310   20.3460 C   0  0  0  0  0  0  0  0  0  0  0  0
    4.6950    1.4300   19.3240 C   0  0  0  0  0  0  0  0  0  0  0  0
    5.1550    1.2860   18.0210 C   0  0  0  0  0  0  0  0  0  0  0  0
    6.2480    0.6030   17.6800 N   0  0  0  0  0  0  0  0  0  0  0  0
    6.9370    0.0310   18.6900 C   0  0  0  0  0  0  0  0  0  0  0  0
  1  2  2  0
  2  3  1  0
  3  4  1  0
  4  5  1  0
  5  6  1  0
  6  7  1  0
  7  8  1  0
  8  9  1  0
  9 10  2  0
  9 11  1  0
 11 12  1  0
 12 13  2  0
 13 14  1  0
 14 15  2  0
 11 16  2  0
 15 16  1  0
  8 17  1  0
 16 17  1  0
 17 18  2  0
  2 19  1  0
 19 20  1  0
 20 21  2  0
 21 22  1  0
 22 23  2  0
 23 24  1  0
 20 25  1  0
 24 25  2  0
M  END
