pyridine_urea_832
     RDKit          3D

 23 24  0  0  0  0  0  0  0  0999 V2000
   13.4290   -0.7090   22.2130 C   0  0  0  0  0  0  0  0  0  0  0  0
   12.0430   -0.4760   22.2140 O   0  0  0  0  0  0  0  0  0  0  0  0
   11.6520    0.6950   22.7850 C   0  0  0  0  0  0  0  0  0  0  0  0
   12.4050    1.6430   22.9860 O   0  0  0  0  0  0  0  0  0  0  0  0
   10.2970    0.7170   23.0890 C   0  0  0  0  0  0  0  0  0  0  0  0
    9.6970   -0.5240   22.7730 C   0  0  1  0  0  0  0  0  0  0  0  0
    9.2030   -0.8920   21.6140 N   0  0  0  0  0  0  0  0  0  0  0  0
    8.3590    0.1190   21.2740 C   0  0  0  0  0  0  0  0  0  0  0  0
    8.7320    1.2820   21.0870 O   0  0  0  0  0  0  0  0  0  0  0  0
    7.1010   -0.3350   21.1620 N   0  0  0  0  0  0  0  0  0  0  0  0
    6.4680    0.1740   20.0910 C   0  0  0  0  0  0  0  0  0  0  0  0
    5.2060    0.9360   20.3890 C   0  0  0  0  0  0  0  0  0  0  0  0
    4.5320    1.5170   19.1740 C   0  0  0  0  0  0  0  0  0  0  0  0
    5.1230    1.2960   17.9500 C   0  0  0  0  0  0  0  0  0  0  0  0
    6.2260    0.6230   17.6430 N   0  0  0  0  0  0  0  0  0  0  0  0
    6.8650    0.0740   18.7760 C   0  0  0  0  0  0  0  0  0  0  0  0
   10.4530   -1.6000   23.1700 C   0  0  0  0  0  0  0  0  0  0  0  0
   11.0480   -0.5360   23.7560 C   0  0  0  0  0  0  0  0  0  0  0  0
   11.9320    0.1120   24.5060 C   0  0  0  0  0  0  0  0  0  0  0  0
   12.7390   -0.7780   25.0240 C   0  0  0  0  0  0  0  0  0  0  0  0
   12.5140   -2.0620   24.6700 C   0  0  0  0  0  0  0  0  0  0  0  0
   13.6070   -3.1540   25.3670 Cl  0  0  0  0  0  0  0  0  0  0  0  0
   11.4550   -2.4390   23.7980 C   0  0  0  0  0  0  0  0  0  0  0  0
  1  2  1  0
  2  3  1  0
  3  4  2  0
  3  5  1  0
  6  5  1  6
  6  7  1  0
  7  8  1  0
  8  9  2  0
  8 10  1  0
 10 11  1  0
 11 12  2  0
 12 13  1  0
 13 14  2  0
 14 15  1  0
 11 16  1  0
 15 16  2  0
  6 17  1  0
 17 18  2  0
 18 19  1  0
 19 20  2  0
 20 21  1  0
 21 22  1  0
 17 23  1  0
 21 23  2  0
M  END
