pyridine_urea_15140
     RDKit          3D

 18 19  0  0  0  0  0  0  0  0999 V2000
   13.1850   -1.1180   23.1220 C   0  0  0  0  0  0  0  0  0  0  0  0
   12.3930    0.1550   22.9870 C   0  0  0  0  0  0  0  0  0  0  0  0
   12.9140    1.4910   22.8960 N   0  0  0  0  0  0  0  0  0  0  0  0
   11.7890    2.3290   22.7950 N   0  0  0  0  0  0  0  0  0  0  0  0
   10.6130    1.6490   22.8170 C   0  0  0  0  0  0  0  0  0  0  0  0
    9.1790    2.1400   22.7470 C   0  0  0  0  0  0  0  0  0  0  0  0
   10.9080    0.1230   22.9450 C   0  0  0  0  0  0  0  0  0  0  0  0
    9.9410   -1.0690   23.0200 C   0  0  0  0  0  0  0  0  0  0  0  0
    8.8820   -0.8310   22.1670 N   0  0  0  0  0  0  0  0  0  0  0  0
    8.7350    0.3710   21.4660 C   0  0  0  0  0  0  0  0  0  0  0  0
    8.3160    1.2750   20.7510 O   0  0  0  0  0  0  0  0  0  0  0  0
    7.5860   -0.3190   21.1140 N   0  0  0  0  0  0  0  0  0  0  0  0
    6.7290    0.1580   20.1060 C   0  0  0  0  0  0  0  0  0  0  0  0
    5.5800    0.8770   20.4740 C   0  0  0  0  0  0  0  0  0  0  0  0
    4.7770    1.3460   19.4570 C   0  0  0  0  0  0  0  0  0  0  0  0
    5.1020    1.1130   18.1430 C   0  0  0  0  0  0  0  0  0  0  0  0
    6.1750    0.4330   17.7490 N   0  0  0  0  0  0  0  0  0  0  0  0
    6.9620   -0.0310   18.7480 C   0  0  0  0  0  0  0  0  0  0  0  0
  1  2  1  0
  2  3  2  0
  3  4  1  0
  4  5  1  0
  5  6  1  0
  2  7  1  0
  5  7  2  0
  7  8  1  0
  8  9  1  0
  9 10  1  0
 10 11  2  0
 10 12  1  0
 12 13  1  0
 13 14  2  0
 14 15  1  0
 15 16  2  0
 16 17  1  0
 13 18  1  0
 17 18  2  0
M  END
