pyridine_urea_4903
     RDKit          3D

 21 22  0  0  0  0  0  0  0  0999 V2000
   11.2330   -2.2180   21.6740 C   0  0  0  0  0  0  0  0  0  0  0  0
   10.2670   -1.0470   21.9290 C   0  0  1  0  0  0  0  0  0  0  0  0
    8.8680   -1.3650   22.0510 N   0  0  0  0  0  0  0  0  0  0  0  0
    8.0380   -0.4730   21.3960 C   0  0  0  0  0  0  0  0  0  0  0  0
    8.4360    0.8650   21.0960 O   0  0  0  0  0  0  0  0  0  0  0  0
    6.8420   -1.0380   21.0870 N   0  0  0  0  0  0  0  0  0  0  0  0
    6.2840   -0.2290   20.1120 C   0  0  0  0  0  0  0  0  0  0  0  0
    5.1450    0.5640   20.2410 C   0  0  0  0  0  0  0  0  0  0  0  0
    4.6390    1.3490   19.2030 C   0  0  0  0  0  0  0  0  0  0  0  0
    5.3050    1.3350   17.9980 C   0  0  0  0  0  0  0  0  0  0  0  0
    6.4060    0.5960   17.8100 N   0  0  0  0  0  0  0  0  0  0  0  0
    6.8690   -0.1570   18.8450 C   0  0  0  0  0  0  0  0  0  0  0  0
   10.7460   -0.2870   23.0900 C   0  0  0  0  0  0  0  0  0  0  0  0
   10.0100    0.1720   23.9950 C   0  0  0  0  0  0  0  0  0  0  0  0
   11.4240    0.3500   23.9960 C   0  0  0  0  0  0  0  0  0  0  0  0
   11.4890   -0.5080   22.5980 C   0  0  0  0  0  0  0  0  0  0  0  0
   12.8800   -0.3650   22.5360 C   0  0  0  0  0  0  0  0  0  0  0  0
   12.0630    0.0720   23.4120 C   0  0  0  0  0  0  0  0  0  0  0  0
   12.3800    0.7280   24.4220 N   0  0  0  0  0  0  0  0  0  0  0  0
   11.6780    1.7570   24.4490 O   0  0  0  0  0  0  0  0  0  0  0  0
   12.6750   -0.0280   25.3680 O   0  0  0  0  0  0  0  0  0  0  0  0
  2  1  1  1
  2  3  1  0
  3  4  1  0
  4  5  2  0
  4  6  1  0
  6  7  1  0
  7  8  2  0
  8  9  1  0
  9 10  2  0
 10 11  1  0
  7 12  1  0
 11 12  2  0
  2 13  1  0
 13 14  2  0
 14 15  1  0
 15 16  2  0
 16 17  1  0
 13 18  1  0
 17 18  2  0
 18 19  1  0
 19 20  2  0
 19 21  1  0
M  CHG  2  19   1  21  -1
M  END
