pyridine_urea_10332
     RDKit          3D

 22 24  0  0  0  0  0  0  0  0999 V2000
    9.6800    1.2960   23.3790 C   0  0  0  0  0  0  0  0  0  0  0  0
    9.1240   -0.0820   23.7690 C   0  0  1  0  0  0  0  0  0  0  0  0
    7.9330   -0.3860   23.0270 N   0  0  0  0  0  0  0  0  0  0  0  0
    7.9590   -0.0780   21.7020 C   0  0  0  0  0  0  0  0  0  0  0  0
    8.7940    0.6600   21.2090 O   0  0  0  0  0  0  0  0  0  0  0  0
    6.9360   -0.6690   21.0310 N   0  0  0  0  0  0  0  0  0  0  0  0
    6.3810   -0.0060   19.9510 C   0  0  0  0  0  0  0  0  0  0  0  0
    5.1220    0.7690   20.1360 C   0  0  0  0  0  0  0  0  0  0  0  0
    4.5460    1.4640   19.0910 C   0  0  0  0  0  0  0  0  0  0  0  0
    5.1270    1.4650   17.8190 C   0  0  0  0  0  0  0  0  0  0  0  0
    6.3450    0.6970   17.6710 N   0  0  0  0  0  0  0  0  0  0  0  0
    6.9100    0.0110   18.6980 C   0  0  0  0  0  0  0  0  0  0  0  0
   10.1400   -1.0930   23.3680 C   0  0  2  0  0  0  0  0  0  0  0  0
   10.4590   -1.9800   24.3470 C   0  0  0  0  0  0  0  0  0  0  0  0
   11.6170   -2.7920   24.1610 C   0  0  0  0  0  0  0  0  0  0  0  0
   12.2290   -2.7020   22.8670 C   0  0  0  0  0  0  0  0  0  0  0  0
   12.3970   -1.2410   22.8940 C   0  0  0  0  0  0  0  0  0  0  0  0
   13.4620   -0.5580   22.6850 C   0  0  0  0  0  0  0  0  0  0  0  0
   13.5840    0.8400   22.7390 C   0  0  0  0  0  0  0  0  0  0  0  0
   12.7100    1.9240   23.0030 C   0  0  0  0  0  0  0  0  0  0  0  0
   11.7750    0.9820   23.1540 C   0  0  0  0  0  0  0  0  0  0  0  0
   11.4360   -0.4550   23.1430 C   0  0  0  0  0  0  0  0  0  0  0  0
  2  1  1  6
  2  3  1  0
  3  4  1  0
  4  5  2  0
  4  6  1  0
  6  7  1  0
  7  8  2  0
  8  9  1  0
  9 10  2  0
 10 11  1  0
  7 12  1  0
 11 12  2  0
  2 13  1  0
 13 14  1  1
 14 15  1  0
 15 16  1  0
 16 17  1  0
 17 18  2  0
 18 19  1  0
 19 20  2  0
 20 21  1  0
 13 22  1  0
 17 22  1  0
 21 22  2  0
M  END
