pyridine_urea_7825
     RDKit          3D

 26 28  0  0  0  0  0  0  0  0999 V2000
    8.7060    1.3450   20.9580 O   0  0  0  0  0  0  0  0  0  0  0  0
    8.2200    0.3440   21.4790 C   0  0  0  0  0  0  0  0  0  0  0  0
    8.6410   -0.1060   22.6670 N   0  0  0  0  0  0  0  0  0  0  0  0
    9.4390    0.7530   23.4070 C   0  0  0  0  0  0  0  0  0  0  0  0
   10.7460    0.8030   23.0010 C   0  0  0  0  0  0  0  0  0  0  0  0
   10.5100    0.0590   24.1770 C   0  0  0  0  0  0  0  0  0  0  0  0
   11.3410   -0.6260   24.9710 C   0  0  0  0  0  0  0  0  0  0  0  0
   12.6500   -0.7070   24.7270 C   0  0  0  0  0  0  0  0  0  0  0  0
   13.3700   -1.3720   25.4550 O   0  0  0  0  0  0  0  0  0  0  0  0
   13.3920   -2.5870   24.8490 C   0  0  0  0  0  0  0  0  0  0  0  0
   12.3630   -2.5530   23.7540 C   0  0  0  0  0  0  0  0  0  0  0  0
   12.7000   -2.1830   22.4610 C   0  0  0  0  0  0  0  0  0  0  0  0
   11.7200   -2.1250   21.4960 C   0  0  0  0  0  0  0  0  0  0  0  0
   10.3890   -2.4310   21.8040 C   0  0  0  0  0  0  0  0  0  0  0  0
   10.0450   -2.8110   23.0840 C   0  0  0  0  0  0  0  0  0  0  0  0
    8.7600   -3.1180   23.3790 F   0  0  0  0  0  0  0  0  0  0  0  0
   11.0430   -2.8700   24.0400 C   0  0  0  0  0  0  0  0  0  0  0  0
   13.0270   -0.0260   23.6260 C   0  0  0  0  0  0  0  0  0  0  0  0
   12.1460    0.6520   22.8660 C   0  0  0  0  0  0  0  0  0  0  0  0
    7.1970   -0.4010   20.9810 N   0  0  0  0  0  0  0  0  0  0  0  0
    6.4730    0.1600   19.9510 C   0  0  0  0  0  0  0  0  0  0  0  0
    5.2950    0.8390   20.2380 C   0  0  0  0  0  0  0  0  0  0  0  0
    4.5930    1.4290   19.1950 C   0  0  0  0  0  0  0  0  0  0  0  0
    5.1070    1.3100   17.9030 C   0  0  0  0  0  0  0  0  0  0  0  0
    6.2300    0.6460   17.6250 N   0  0  0  0  0  0  0  0  0  0  0  0
    6.8850    0.0880   18.6500 C   0  0  0  0  0  0  0  0  0  0  0  0
  1  2  2  0
  2  3  1  0
  3  4  1  0
  4  5  1  0
  5  6  2  0
  6  7  1  0
  7  8  2  0
  8  9  1  0
  9 10  1  0
 10 11  1  0
 11 12  2  0
 12 13  1  0
 13 14  2  0
 14 15  1  0
 15 16  1  0
 11 17  1  0
 15 17  2  0
  8 18  1  0
  5 19  1  0
 18 19  2  0
  2 20  1  0
 20 21  1  0
 21 22  2  0
 22 23  1  0
 23 24  2  0
 24 25  1  0
 21 26  1  0
 25 26  2  0
M  END
