pyridine_urea_2735
     RDKit          3D

 23 24  0  0  0  0  0  0  0  0999 V2000
   13.3630   -2.4100   23.6390 C   0  0  0  0  0  0  0  0  0  0  0  0
   12.2880   -2.0280   24.6440 C   0  0  0  0  0  0  0  0  0  0  0  0
   11.0430   -2.6890   24.3710 O   0  0  0  0  0  0  0  0  0  0  0  0
    9.9450   -1.9170   24.0680 C   0  0  0  0  0  0  0  0  0  0  0  0
    8.6930   -1.7630   24.7450 O   0  0  0  0  0  0  0  0  0  0  0  0
   10.0090   -1.2160   22.8980 C   0  0  1  0  0  0  0  0  0  0  0  0
   11.4050   -1.3850   22.2990 C   0  0  0  0  0  0  0  0  0  0  0  0
   12.2350   -0.3090   22.5670 C   0  0  0  0  0  0  0  0  0  0  0  0
   12.8750    1.0680   22.8630 C   0  0  0  0  0  0  0  0  0  0  0  0
   12.6390    2.6010   23.0850 C   0  0  0  0  0  0  0  0  0  0  0  0
   11.1270    2.5850   22.9250 C   0  0  0  0  0  0  0  0  0  0  0  0
   10.2180    1.4510   22.6530 C   0  0  0  0  0  0  0  0  0  0  0  0
   10.7980    0.1000   22.4890 C   0  0  0  0  0  0  0  0  0  0  0  0
    8.8810   -1.4080   22.0840 N   0  0  0  0  0  0  0  0  0  0  0  0
    8.2720   -0.3770   21.4210 C   0  0  0  0  0  0  0  0  0  0  0  0
    8.7950    0.6980   21.2030 O   0  0  0  0  0  0  0  0  0  0  0  0
    7.0100   -0.7250   21.0370 N   0  0  0  0  0  0  0  0  0  0  0  0
    6.2880    0.0200   20.0110 C   0  0  0  0  0  0  0  0  0  0  0  0
    5.0910    0.7200   20.1960 C   0  0  0  0  0  0  0  0  0  0  0  0
    4.5550    1.3870   19.1070 C   0  0  0  0  0  0  0  0  0  0  0  0
    5.2030    1.3440   17.8990 C   0  0  0  0  0  0  0  0  0  0  0  0
    6.3470    0.6810   17.6830 N   0  0  0  0  0  0  0  0  0  0  0  0
    6.8550    0.0350   18.7470 C   0  0  0  0  0  0  0  0  0  0  0  0
  1  2  1  0
  2  3  1  0
  3  4  1  0
  4  5  2  0
  4  6  1  0
  6  7  1  6
  7  8  1  0
  8  9  2  0
  9 10  1  0
 10 11  2  0
 11 12  1  0
  8 13  1  0
 12 13  2  0
  6 14  1  0
 14 15  1  0
 15 16  2  0
 15 17  1  0
 17 18  1  0
 18 19  2  0
 19 20  1  0
 20 21  2  0
 21 22  1  0
 18 23  1  0
 22 23  2  0
M  END
