pyridine_urea_8799
     RDKit          3D

 20 21  0  0  0  0  0  0  0  0999 V2000
   13.5710   -1.7820   20.8360 C   0  0  0  0  0  0  0  0  0  0  0  0
   12.3990   -1.9950   21.6750 C   0  0  0  0  0  0  0  0  0  0  0  0
   12.9380   -2.6330   22.9760 C   0  0  0  0  0  0  0  0  0  0  0  0
   11.9960   -0.7590   22.1150 O   0  0  0  0  0  0  0  0  0  0  0  0
   11.1820   -1.1400   23.1410 C   0  0  2  0  0  0  0  0  0  0  0  0
   10.0110   -1.5130   22.5980 C   0  0  0  0  0  0  0  0  0  0  0  0
    9.3270   -0.7900   23.4840 C   0  0  2  0  0  0  0  0  0  0  0  0
    8.4140    0.2210   22.9770 N   0  0  0  0  0  0  0  0  0  0  0  0
    8.3300    0.5640   21.6530 C   0  0  0  0  0  0  0  0  0  0  0  0
    8.9940    1.4470   21.1170 O   0  0  0  0  0  0  0  0  0  0  0  0
    7.3840   -0.1800   21.0190 N   0  0  0  0  0  0  0  0  0  0  0  0
    6.5730    0.2970   20.0520 C   0  0  0  0  0  0  0  0  0  0  0  0
    5.4050    0.9980   20.2690 C   0  0  0  0  0  0  0  0  0  0  0  0
    4.6440    1.4820   19.2200 C   0  0  0  0  0  0  0  0  0  0  0  0
    5.1170    1.2300   17.9300 C   0  0  0  0  0  0  0  0  0  0  0  0
    6.2390    0.5420   17.6810 N   0  0  0  0  0  0  0  0  0  0  0  0
    6.9340    0.0920   18.7370 C   0  0  0  0  0  0  0  0  0  0  0  0
   10.5980   -0.1330   24.1350 C   0  0  0  0  0  0  0  0  0  0  0  0
   11.0830    1.1800   23.8780 C   0  0  0  0  0  0  0  0  0  0  0  0
   11.1060   -0.6170   25.4440 C   0  0  0  0  0  0  0  0  0  0  0  0
  1  2  1  0
  2  3  1  0
  2  4  1  0
  5  4  1  6
  5  6  1  0
  6  7  1  0
  7  8  1  6
  8  9  1  0
  9 10  2  0
  9 11  1  0
 11 12  1  0
 12 13  2  0
 13 14  1  0
 14 15  2  0
 15 16  1  0
 12 17  1  0
 16 17  2  0
  5 18  1  0
  7 18  1  0
 18 19  1  0
 18 20  1  0
M  END
