pyridine_urea_7945
     RDKit          3D

 25 27  0  0  0  0  0  0  0  0999 V2000
    8.8580    1.6080   20.8300 O   0  0  0  0  0  0  0  0  0  0  0  0
    8.3070    0.6930   21.4020 C   0  0  0  0  0  0  0  0  0  0  0  0
    7.3290   -0.1410   20.9460 N   0  0  0  0  0  0  0  0  0  0  0  0
    6.5610    0.3250   19.9220 C   0  0  0  0  0  0  0  0  0  0  0  0
    5.3580    0.9640   20.2060 C   0  0  0  0  0  0  0  0  0  0  0  0
    4.6070    1.4680   19.1570 C   0  0  0  0  0  0  0  0  0  0  0  0
    5.1050    1.3010   17.8860 C   0  0  0  0  0  0  0  0  0  0  0  0
    6.2500    0.6740   17.6040 N   0  0  0  0  0  0  0  0  0  0  0  0
    6.9500    0.2010   18.6330 C   0  0  0  0  0  0  0  0  0  0  0  0
    8.6110    0.4180   22.6440 N   0  0  0  0  0  0  0  0  0  0  0  0
    8.8950   -0.9210   23.0090 C   0  0  2  0  0  0  0  0  0  0  0  0
    9.3360   -0.6660   24.3420 C   0  0  0  0  0  0  0  0  0  0  0  0
    8.3210   -0.4320   25.2730 C   0  0  0  0  0  0  0  0  0  0  0  0
    8.6310   -0.1730   26.5270 C   0  0  0  0  0  0  0  0  0  0  0  0
    9.9480   -0.1720   26.7390 C   0  0  0  0  0  0  0  0  0  0  0  0
   10.8710   -0.4330   25.7060 C   0  0  0  0  0  0  0  0  0  0  0  0
   10.7330   -0.7080   24.3930 C   0  0  0  0  0  0  0  0  0  0  0  0
    9.9250   -1.6800   22.1900 C   0  0  0  0  0  0  0  0  0  0  0  0
   10.9530   -0.8860   22.4800 C   0  0  0  0  0  0  0  0  0  0  0  0
   11.2960    0.2060   23.1660 C   0  0  0  0  0  0  0  0  0  0  0  0
   12.5060    0.0210   22.7000 C   0  0  0  0  0  0  0  0  0  0  0  0
   13.5960    0.7520   22.9080 F   0  0  0  0  0  0  0  0  0  0  0  0
   12.3710   -1.1730   21.8840 C   0  0  0  0  0  0  0  0  0  0  0  0
   13.6420   -1.8120   21.0440 Cl  0  0  0  0  0  0  0  0  0  0  0  0
   11.1720   -1.9750   21.6430 C   0  0  0  0  0  0  0  0  0  0  0  0
  1  2  2  0
  2  3  1  0
  3  4  1  0
  4  5  2  0
  5  6  1  0
  6  7  2  0
  7  8  1  0
  4  9  1  0
  8  9  2  0
  2 10  1  0
 11 10  1  6
 11 12  1  0
 12 13  2  0
 13 14  1  0
 14 15  2  0
 15 16  1  0
 12 17  1  0
 16 17  2  0
 11 18  1  0
 18 19  2  0
 19 20  1  0
 20 21  2  0
 21 22  1  0
 21 23  1  0
 23 24  1  0
 18 25  1  0
 23 25  2  0
M  END
