pyridine_urea_6744
     RDKit          3D

 21 22  0  0  0  0  0  0  0  0999 V2000
   11.4560   -2.8530   24.2000 C   0  0  0  0  0  0  0  0  0  0  0  0
   12.6830   -1.9750   24.4910 C   0  0  0  0  0  0  0  0  0  0  0  0
   12.2290   -0.6960   25.1760 C   0  0  0  0  0  0  0  0  0  0  0  0
   13.7040   -2.7080   25.3880 C   0  0  0  0  0  0  0  0  0  0  0  0
   13.2580   -1.4680   23.2910 O   0  0  0  0  0  0  0  0  0  0  0  0
   13.0060   -0.1830   22.9460 C   0  0  0  0  0  0  0  0  0  0  0  0
   13.9630    0.8310   22.7740 O   0  0  0  0  0  0  0  0  0  0  0  0
   11.6700    0.0410   22.7490 C   0  0  1  0  0  0  0  0  0  0  0  0
   10.9480   -0.9840   22.2440 C   0  0  0  0  0  0  0  0  0  0  0  0
   10.0080   -0.8570   23.2270 C   0  0  2  0  0  0  0  0  0  0  0  0
    8.6600   -0.7730   22.7120 N   0  0  0  0  0  0  0  0  0  0  0  0
    8.3170   -0.0130   21.6120 C   0  0  0  0  0  0  0  0  0  0  0  0
    8.9940    1.1990   21.2250 O   0  0  0  0  0  0  0  0  0  0  0  0
    7.2350   -0.5760   20.9770 N   0  0  0  0  0  0  0  0  0  0  0  0
    6.4780    0.0810   20.0090 C   0  0  0  0  0  0  0  0  0  0  0  0
    5.2850    0.8030   20.2670 C   0  0  0  0  0  0  0  0  0  0  0  0
    4.5140    1.4990   19.2710 C   0  0  0  0  0  0  0  0  0  0  0  0
    5.1610    1.3550   17.8950 C   0  0  0  0  0  0  0  0  0  0  0  0
    6.2970    0.6470   17.6990 N   0  0  0  0  0  0  0  0  0  0  0  0
    6.9480    0.0170   18.7260 C   0  0  0  0  0  0  0  0  0  0  0  0
   10.8320    0.3210   23.8640 C   0  0  0  0  0  0  0  0  0  0  0  0
  1  2  1  0
  2  3  1  0
  2  4  1  0
  2  5  1  0
  5  6  1  0
  6  7  2  0
  8  6  1  1
  8  9  1  0
  9 10  1  0
 10 11  1  6
 11 12  1  0
 12 13  2  0
 12 14  1  0
 14 15  1  0
 15 16  2  0
 16 17  1  0
 17 18  2  0
 18 19  1  0
 15 20  1  0
 19 20  2  0
  8 21  1  0
 10 21  1  0
M  END
