pyridine_urea_3181
     RDKit          3D

 20 21  0  0  0  0  0  0  0  0999 V2000
    8.6960    1.2380   21.0720 O   0  0  0  0  0  0  0  0  0  0  0  0
    8.2420    0.1320   21.3930 C   0  0  0  0  0  0  0  0  0  0  0  0
    8.8600   -0.7470   22.2030 N   0  0  0  0  0  0  0  0  0  0  0  0
   10.2230   -0.6870   22.4270 C   0  0  0  0  0  0  0  0  0  0  0  0
   10.9100   -1.8860   22.3780 C   0  0  0  0  0  0  0  0  0  0  0  0
   10.2390   -2.6380   21.7070 O   0  0  0  0  0  0  0  0  0  0  0  0
   10.9730   -2.3950   23.6200 C   0  0  0  0  0  0  0  0  0  0  0  0
   11.2930   -1.2830   24.3320 C   0  0  0  0  0  0  0  0  0  0  0  0
   12.3490   -0.3920   23.6190 C   0  0  0  0  0  0  0  0  0  0  0  0
   11.9220    0.8200   23.2220 F   0  0  0  0  0  0  0  0  0  0  0  0
   13.3060   -0.2470   24.4920 F   0  0  0  0  0  0  0  0  0  0  0  0
   13.0440   -0.8770   22.5380 C   0  0  0  0  0  0  0  0  0  0  0  0
   12.1740   -1.8660   21.8160 C   0  0  0  0  0  0  0  0  0  0  0  0
    7.0540   -0.3930   20.9840 N   0  0  0  0  0  0  0  0  0  0  0  0
    6.3220    0.2220   19.9920 C   0  0  0  0  0  0  0  0  0  0  0  0
    5.1310    0.8920   20.1780 C   0  0  0  0  0  0  0  0  0  0  0  0
    4.5270    1.4860   19.0740 C   0  0  0  0  0  0  0  0  0  0  0  0
    5.1510    1.3780   17.8310 C   0  0  0  0  0  0  0  0  0  0  0  0
    6.3010    0.7190   17.6460 N   0  0  0  0  0  0  0  0  0  0  0  0
    6.8510    0.1610   18.7210 C   0  0  0  0  0  0  0  0  0  0  0  0
  1  2  2  0
  2  3  1  0
  3  4  1  0
  4  5  1  0
  5  6  1  0
  5  7  1  0
  7  8  1  0
  8  9  1  0
  9 10  1  0
  9 11  1  0
  9 12  1  0
  5 13  1  0
 12 13  1  0
  2 14  1  0
 14 15  1  0
 15 16  2  0
 16 17  1  0
 17 18  2  0
 18 19  1  0
 15 20  1  0
 19 20  2  0
M  END
