pyridine_urea_3789
     RDKit          3D

 23 25  0  0  0  0  0  0  0  0999 V2000
    8.7970    1.1140   21.1590 O   0  0  0  0  0  0  0  0  0  0  0  0
    8.2460    0.0960   21.6220 C   0  0  0  0  0  0  0  0  0  0  0  0
    7.2520   -0.6260   21.0030 N   0  0  0  0  0  0  0  0  0  0  0  0
    6.5340    0.0520   19.9700 C   0  0  0  0  0  0  0  0  0  0  0  0
    5.2530    0.7880   20.3520 C   0  0  0  0  0  0  0  0  0  0  0  0
    4.5150    1.5220   19.2400 C   0  0  0  0  0  0  0  0  0  0  0  0
    5.1600    1.4320   17.8580 C   0  0  0  0  0  0  0  0  0  0  0  0
    6.3380    0.7030   17.6860 N   0  0  0  0  0  0  0  0  0  0  0  0
    6.9830    0.0510   18.6820 C   0  0  0  0  0  0  0  0  0  0  0  0
    8.5390   -0.4600   22.8450 N   0  0  0  0  0  0  0  0  0  0  0  0
    9.7270   -1.1810   23.0240 C   0  0  1  0  0  0  0  0  0  0  0  0
   10.5710   -1.3640   21.8900 C   0  0  0  0  0  0  0  0  0  0  0  0
   11.9630   -1.3230   22.0240 C   0  0  0  0  0  0  0  0  0  0  0  0
   12.3700    0.1660   22.7090 S   0  0  0  0  0  0  0  0  0  0  0  0
   11.4180    1.2160   22.4660 O   0  0  0  0  0  0  0  0  0  0  0  0
   13.7950    0.3160   22.7210 O   0  0  0  0  0  0  0  0  0  0  0  0
   11.8180   -0.7770   24.0280 C   0  0  2  0  0  0  0  0  0  0  0  0
   12.7210   -0.4710   24.9320 C   0  0  0  0  0  0  0  0  0  0  0  0
   13.2290   -1.6490   24.6330 C   0  0  1  0  0  0  0  0  0  0  0  0
   12.6650   -2.9740   24.8820 C   0  0  0  0  0  0  0  0  0  0  0  0
   13.6290   -3.6110   25.7160 O   0  0  0  0  0  0  0  0  0  0  0  0
   12.1310   -2.1860   23.7920 C   0  0  0  0  0  0  0  0  0  0  0  0
   10.4910   -0.4900   24.1770 C   0  0  0  0  0  0  0  0  0  0  0  0
  1  2  2  0
  2  3  1  0
  3  4  1  0
  4  5  2  0
  5  6  1  0
  6  7  2  0
  7  8  1  0
  4  9  1  0
  8  9  2  0
  2 10  1  0
 11 10  1  6
 11 12  1  0
 12 13  1  0
 14 13  1  0
 14 15  2  0
 14 16  2  0
 14 17  1  0
 17 18  1  1
 18 19  1  0
 19 20  1  1
 20 21  1  0
 17 22  1  0
 19 22  1  0
 11 23  1  0
 17 23  1  0
M  END
