pyridine_urea_9311
     RDKit          3D

 17 17  0  0  0  0  0  0  0  0999 V2000
   11.8550    0.9430   23.6310 C   0  0  0  0  0  0  0  0  0  0  0  0
   12.8250   -0.1230   23.2860 C   0  0  0  0  0  0  0  0  0  0  0  0
   13.2320   -0.6560   24.4670 F   0  0  0  0  0  0  0  0  0  0  0  0
   13.8550    0.4900   22.7050 F   0  0  0  0  0  0  0  0  0  0  0  0
   12.5290   -1.2120   22.4950 C   0  0  0  0  0  0  0  0  0  0  0  0
   11.1950   -1.5330   22.3120 C   0  0  0  0  0  0  0  0  0  0  0  0
   10.2700   -0.7740   23.0000 C   0  0  0  0  0  0  0  0  0  0  0  0
    8.9310   -0.9380   22.4710 N   0  0  0  0  0  0  0  0  0  0  0  0
    8.4590   -0.0200   21.5620 C   0  0  0  0  0  0  0  0  0  0  0  0
    9.0230    1.0640   21.3050 O   0  0  0  0  0  0  0  0  0  0  0  0
    7.2140   -0.4990   20.9890 N   0  0  0  0  0  0  0  0  0  0  0  0
    6.5310    0.0860   19.9930 C   0  0  0  0  0  0  0  0  0  0  0  0
    5.2500    0.8710   20.3070 C   0  0  0  0  0  0  0  0  0  0  0  0
    4.6070    1.4660   19.2390 C   0  0  0  0  0  0  0  0  0  0  0  0
    5.1430    1.3240   17.9640 C   0  0  0  0  0  0  0  0  0  0  0  0
    6.2560    0.6320   17.6740 N   0  0  0  0  0  0  0  0  0  0  0  0
    6.9230    0.0320   18.6780 C   0  0  0  0  0  0  0  0  0  0  0  0
  1  2  1  0
  2  3  1  0
  2  4  1  0
  2  5  1  0
  5  6  1  0
  6  7  1  0
  7  8  1  0
  8  9  1  0
  9 10  2  0
  9 11  1  0
 11 12  1  0
 12 13  2  0
 13 14  1  0
 14 15  2  0
 15 16  1  0
 12 17  1  0
 16 17  2  0
M  END
