pyridine_urea_12574
     RDKit          3D

 21 22  0  0  0  0  0  0  0  0999 V2000
    9.4090    2.1390   24.2010 C   0  0  0  0  0  0  0  0  0  0  0  0
   10.3680    1.3070   23.5670 O   0  0  0  0  0  0  0  0  0  0  0  0
   10.4730    0.0380   24.2210 C   0  0  1  0  0  0  0  0  0  0  0  0
    9.5680   -0.9440   23.3930 C   0  0  0  0  0  0  0  0  0  0  0  0
    8.3650   -0.3200   22.9090 N   0  0  0  0  0  0  0  0  0  0  0  0
    8.2040    0.1650   21.6460 C   0  0  0  0  0  0  0  0  0  0  0  0
    8.8820    1.2570   21.1260 O   0  0  0  0  0  0  0  0  0  0  0  0
    7.2050   -0.5990   20.9390 N   0  0  0  0  0  0  0  0  0  0  0  0
    6.4840    0.0590   20.0020 C   0  0  0  0  0  0  0  0  0  0  0  0
    5.3050    0.7260   20.3440 C   0  0  0  0  0  0  0  0  0  0  0  0
    4.5800    1.4490   19.2340 C   0  0  0  0  0  0  0  0  0  0  0  0
    5.1870    1.3900   17.8630 C   0  0  0  0  0  0  0  0  0  0  0  0
    6.3260    0.7100   17.6430 N   0  0  0  0  0  0  0  0  0  0  0  0
    6.9210    0.0830   18.6870 C   0  0  0  0  0  0  0  0  0  0  0  0
   11.7780   -0.4510   24.1900 C   0  0  0  0  0  0  0  0  0  0  0  0
   12.7180   -0.6000   25.0530 C   0  0  0  0  0  0  0  0  0  0  0  0
   13.0970   -1.0920   23.6630 C   0  0  0  0  0  0  0  0  0  0  0  0
   11.6070   -0.6160   23.2230 C   0  0  0  0  0  0  0  0  0  0  0  0
   12.0540   -1.0910   22.0390 C   0  0  0  0  0  0  0  0  0  0  0  0
   13.3260   -1.5920   21.9610 C   0  0  0  0  0  0  0  0  0  0  0  0
   12.7230   -1.0470   23.1930 C   0  0  0  0  0  0  0  0  0  0  0  0
  1  2  1  0
  2  3  1  0
  3  4  1  6
  4  5  1  0
  5  6  1  0
  6  7  2  0
  6  8  1  0
  8  9  1  0
  9 10  2  0
 10 11  1  0
 11 12  2  0
 12 13  1  0
  9 14  1  0
 13 14  2  0
  3 15  1  0
 15 16  2  0
 16 17  1  0
 17 18  2  0
 18 19  1  0
 19 20  1  0
 15 21  1  0
 19 21  2  0
M  END
