pyridine_urea_3431
     RDKit          3D

 19 20  0  0  0  0  0  0  0  0999 V2000
   12.7520   -2.4020   21.4220 C   0  0  0  0  0  0  0  0  0  0  0  0
   12.4560   -1.1760   22.1850 C   0  0  0  0  0  0  0  0  0  0  0  0
   13.1700   -0.0340   22.5640 C   0  0  0  0  0  0  0  0  0  0  0  0
   11.7960    0.4110   23.2640 C   0  0  0  0  0  0  0  0  0  0  0  0
   12.5790    1.4750   23.5550 C   0  0  0  0  0  0  0  0  0  0  0  0
   12.7460    0.2980   22.8760 C   0  0  0  0  0  0  0  0  0  0  0  0
   11.5940   -0.5980   22.7830 C   0  0  0  0  0  0  0  0  0  0  0  0
   10.1210   -0.6130   23.2680 C   0  0  1  0  0  0  0  0  0  0  0  0
    9.6650    0.5790   23.8370 C   0  0  0  0  0  0  0  0  0  0  0  0
    9.2370   -0.9100   22.0810 N   0  0  0  0  0  0  0  0  0  0  0  0
    8.5290    0.0750   21.4320 C   0  0  0  0  0  0  0  0  0  0  0  0
    8.9670    1.2010   21.1930 O   0  0  0  0  0  0  0  0  0  0  0  0
    7.2670   -0.3780   21.0880 N   0  0  0  0  0  0  0  0  0  0  0  0
    6.5410    0.1740   20.0340 C   0  0  0  0  0  0  0  0  0  0  0  0
    5.3810    0.9000   20.3230 C   0  0  0  0  0  0  0  0  0  0  0  0
    4.6590    1.4750   19.2780 C   0  0  0  0  0  0  0  0  0  0  0  0
    5.1380    1.2950   17.9970 C   0  0  0  0  0  0  0  0  0  0  0  0
    6.2420    0.5960   17.6930 N   0  0  0  0  0  0  0  0  0  0  0  0
    6.9250    0.0450   18.7140 C   0  0  0  0  0  0  0  0  0  0  0  0
  1  2  1  0
  2  3  2  0
  3  4  1  0
  4  5  2  0
  5  6  1  0
  2  7  1  0
  6  7  2  0
  7  8  1  0
  8  9  1  6
  8 10  1  0
 10 11  1  0
 11 12  2  0
 11 13  1  0
 13 14  1  0
 14 15  2  0
 15 16  1  0
 16 17  2  0
 17 18  1  0
 14 19  1  0
 18 19  2  0
M  END
