pyridine_urea_14349
     RDKit          3D

 22 23  0  0  0  0  0  0  0  0999 V2000
   15.0140    1.5920   19.9570 C   0  0  0  0  0  0  0  0  0  0  0  0
   14.2290    0.7630   21.0160 C   0  0  0  0  0  0  0  0  0  0  0  0
   14.4640    1.1730   22.2300 C   0  0  0  0  0  0  0  0  0  0  0  0
   14.1200   -0.4710   20.6250 O   0  0  0  0  0  0  0  0  0  0  0  0
   13.2420   -1.5060   20.9920 C   0  0  0  0  0  0  0  0  0  0  0  0
   12.5230   -1.4400   22.1800 C   0  0  0  0  0  0  0  0  0  0  0  0
   13.4170   -1.2390   23.3390 C   0  0  0  0  0  0  0  0  0  0  0  0
   12.9040   -1.1970   24.6620 C   0  0  0  0  0  0  0  0  0  0  0  0
   11.5110   -1.3610   24.4460 C   0  0  0  0  0  0  0  0  0  0  0  0
   10.7010   -1.5280   23.4580 C   0  0  0  0  0  0  0  0  0  0  0  0
   11.0630   -1.6090   22.0930 C   0  0  0  0  0  0  0  0  0  0  0  0
    9.7320   -1.7300   22.3440 C   0  0  0  0  0  0  0  0  0  0  0  0
    8.9170   -1.2310   21.3640 N   0  0  0  0  0  0  0  0  0  0  0  0
    8.0230   -0.2330   21.5140 C   0  0  0  0  0  0  0  0  0  0  0  0
    8.2860    0.8190   22.0320 O   0  0  0  0  0  0  0  0  0  0  0  0
    6.8200   -0.5910   21.0120 N   0  0  0  0  0  0  0  0  0  0  0  0
    6.2790    0.0700   19.9340 C   0  0  0  0  0  0  0  0  0  0  0  0
    5.0810    0.7410   20.0690 C   0  0  0  0  0  0  0  0  0  0  0  0
    4.4980    1.4340   19.0280 C   0  0  0  0  0  0  0  0  0  0  0  0
    5.1800    1.4290   17.8170 C   0  0  0  0  0  0  0  0  0  0  0  0
    6.3520    0.7790   17.6440 N   0  0  0  0  0  0  0  0  0  0  0  0
    6.8720    0.1190   18.6940 C   0  0  0  0  0  0  0  0  0  0  0  0
  1  2  1  0
  2  3  1  0
  2  4  1  0
  4  5  1  0
  5  6  1  0
  6  7  2  0
  7  8  1  0
  8  9  2  0
  9 10  1  0
  6 11  1  0
 10 11  2  0
 11 12  1  0
 12 13  1  0
 13 14  1  0
 14 15  2  0
 14 16  1  0
 16 17  1  0
 17 18  2  0
 18 19  1  0
 19 20  2  0
 20 21  1  0
 17 22  1  0
 21 22  2  0
M  END
