pyridine_urea_12363
     RDKit          3D

 22 24  0  0  0  0  0  0  0  0999 V2000
    8.7100    0.7090   21.1820 O   0  0  0  0  0  0  0  0  0  0  0  0
    8.1950   -0.3600   21.4500 C   0  0  0  0  0  0  0  0  0  0  0  0
    8.7480   -1.2770   22.3110 N   0  0  0  0  0  0  0  0  0  0  0  0
    9.1380   -0.8190   23.6250 C   0  0  0  0  0  0  0  0  0  0  0  0
   10.2210    0.2930   23.5990 C   0  0  2  0  0  0  0  0  0  0  0  0
   10.3320    0.6910   24.9510 O   0  0  0  0  0  0  0  0  0  0  0  0
    9.8520    1.4370   22.9160 C   0  0  0  0  0  0  0  0  0  0  0  0
   10.7500    2.5240   23.3830 C   0  0  0  0  0  0  0  0  0  0  0  0
   11.4070    1.8740   24.1580 O   0  0  0  0  0  0  0  0  0  0  0  0
   12.4420    1.1250   23.5260 C   0  0  0  0  0  0  0  0  0  0  0  0
   12.8780   -0.0890   22.7880 C   0  0  0  0  0  0  0  0  0  0  0  0
   11.7180   -1.0960   22.5230 C   0  0  0  0  0  0  0  0  0  0  0  0
   13.0090   -1.4940   22.0240 C   0  0  0  0  0  0  0  0  0  0  0  0
   13.1830   -0.1050   22.7140 C   0  0  0  0  0  0  0  0  0  0  0  0
   11.6380   -0.1140   23.0630 C   0  0  0  0  0  0  0  0  0  0  0  0
    7.0000   -0.7910   20.9510 N   0  0  0  0  0  0  0  0  0  0  0  0
    6.3130   -0.0580   20.0110 C   0  0  0  0  0  0  0  0  0  0  0  0
    5.1140    0.6240   20.2230 C   0  0  0  0  0  0  0  0  0  0  0  0
    4.5860    1.3230   19.1420 C   0  0  0  0  0  0  0  0  0  0  0  0
    5.2210    1.3380   17.9220 C   0  0  0  0  0  0  0  0  0  0  0  0
    6.3670    0.6870   17.6960 N   0  0  0  0  0  0  0  0  0  0  0  0
    6.8760    0.0090   18.7440 C   0  0  0  0  0  0  0  0  0  0  0  0
  1  2  2  0
  2  3  1  0
  3  4  1  0
  4  5  1  0
  5  6  1  1
  5  7  1  0
  7  8  1  0
  8  9  1  0
  9 10  1  0
 10 11  2  0
 11 12  1  0
 12 13  2  0
 13 14  1  0
  5 15  1  0
 10 15  1  0
 14 15  2  0
  2 16  1  0
 16 17  1  0
 17 18  2  0
 18 19  1  0
 19 20  2  0
 20 21  1  0
 17 22  1  0
 21 22  2  0
M  END
