pyridine_urea_13317
     RDKit          3D

 20 21  0  0  0  0  0  0  0  0999 V2000
   13.4640   -1.5250   21.7470 N   0  0  0  0  0  0  0  0  0  0  0  0
   12.1830   -1.2440   22.0030 C   0  0  0  0  0  0  0  0  0  0  0  0
   12.0380   -2.4790   21.3300 O   0  0  0  0  0  0  0  0  0  0  0  0
   12.8360   -0.0440   22.6170 C   0  0  0  0  0  0  0  0  0  0  0  0
   12.4260    0.2290   23.8840 C   0  0  2  0  0  0  0  0  0  0  0  0
   12.5470   -0.8120   24.7840 C   0  0  0  0  0  0  0  0  0  0  0  0
   11.4970   -1.3980   24.6500 O   0  0  0  0  0  0  0  0  0  0  0  0
   10.7980   -0.8210   23.6300 C   0  0  1  0  0  0  0  0  0  0  0  0
    9.4100   -1.3060   23.2490 C   0  0  0  0  0  0  0  0  0  0  0  0
    8.6100   -0.2330   22.8760 N   0  0  0  0  0  0  0  0  0  0  0  0
    8.3150    0.2510   21.5750 C   0  0  0  0  0  0  0  0  0  0  0  0
    8.8690    1.2560   21.1130 O   0  0  0  0  0  0  0  0  0  0  0  0
    7.3640   -0.5100   20.9810 N   0  0  0  0  0  0  0  0  0  0  0  0
    6.5800    0.1100   20.0630 C   0  0  0  0  0  0  0  0  0  0  0  0
    5.4160    0.8340   20.3550 C   0  0  0  0  0  0  0  0  0  0  0  0
    4.7100    1.4270   19.3220 C   0  0  0  0  0  0  0  0  0  0  0  0
    5.1860    1.2820   18.0250 C   0  0  0  0  0  0  0  0  0  0  0  0
    6.2870    0.5920   17.7220 N   0  0  0  0  0  0  0  0  0  0  0  0
    6.9570    0.0210   18.7400 C   0  0  0  0  0  0  0  0  0  0  0  0
   10.9290    0.5470   23.8450 C   0  0  0  0  0  0  0  0  0  0  0  0
  1  2  1  0
  2  3  2  0
  2  4  1  0
  5  4  1  6
  5  6  1  0
  6  7  1  0
  7  8  1  0
  8  9  1  1
  9 10  1  0
 10 11  1  0
 11 12  2  0
 11 13  1  0
 13 14  1  0
 14 15  2  0
 15 16  1  0
 16 17  2  0
 17 18  1  0
 14 19  1  0
 18 19  2  0
  5 20  1  0
  8 20  1  0
M  END
