pyridine_urea_13181
     RDKit          3D

 17 18  0  0  0  0  0  0  0  0999 V2000
   12.8410   -1.2900   22.1650 C   0  0  0  0  0  0  0  0  0  0  0  0
   12.3540   -1.1990   23.5730 C   0  0  0  0  0  0  0  0  0  0  0  0
   13.2540   -1.0180   24.5230 C   0  0  0  0  0  0  0  0  0  0  0  0
   11.3240   -0.0170   23.7090 C   0  0  0  0  0  0  0  0  0  0  0  0
   10.3270   -0.8670   24.0310 C   0  0  0  0  0  0  0  0  0  0  0  0
    9.3260   -1.0980   22.9430 C   0  0  0  0  0  0  0  0  0  0  0  0
    8.4820    0.0260   22.8310 N   0  0  0  0  0  0  0  0  0  0  0  0
    8.2370    0.4530   21.5700 C   0  0  0  0  0  0  0  0  0  0  0  0
    8.8360    1.4060   21.0680 O   0  0  0  0  0  0  0  0  0  0  0  0
    7.2040   -0.3640   20.9840 N   0  0  0  0  0  0  0  0  0  0  0  0
    6.5100    0.1930   19.9630 C   0  0  0  0  0  0  0  0  0  0  0  0
    5.3440    0.9030   20.2500 C   0  0  0  0  0  0  0  0  0  0  0  0
    4.6430    1.4930   19.2140 C   0  0  0  0  0  0  0  0  0  0  0  0
    5.1410    1.3450   17.9300 C   0  0  0  0  0  0  0  0  0  0  0  0
    6.2490    0.6590   17.6360 N   0  0  0  0  0  0  0  0  0  0  0  0
    6.9080    0.0980   18.6580 C   0  0  0  0  0  0  0  0  0  0  0  0
   11.2160   -1.8910   24.0160 C   0  0  0  0  0  0  0  0  0  0  0  0
  2  1  1  0
  2  3  1  0
  2  4  1  0
  4  5  1  0
  5  6  1  0
  6  7  1  0
  7  8  1  0
  8  9  2  0
  8 10  1  0
 10 11  1  0
 11 12  2  0
 12 13  1  0
 13 14  2  0
 14 15  1  0
 11 16  1  0
 15 16  2  0
  2 17  1  0
  5 17  1  0
M  END
