pyridine_urea_15027
     RDKit          3D

 19 20  0  0  0  0  0  0  0  0999 V2000
    7.1030   -1.4680   26.0300 C   0  0  0  0  0  0  0  0  0  0  0  0
    8.2970   -2.0250   25.5080 O   0  0  0  0  0  0  0  0  0  0  0  0
    9.4050   -1.1330   25.6440 C   0  0  0  0  0  0  0  0  0  0  0  0
   10.4330   -1.3700   24.5750 C   0  0  0  0  0  0  0  0  0  0  0  0
   11.9210   -1.6490   24.5860 C   0  0  0  0  0  0  0  0  0  0  0  0
   12.5900   -1.7930   23.2280 C   0  0  0  0  0  0  0  0  0  0  0  0
   11.7610   -1.6680   21.9380 C   0  0  0  0  0  0  0  0  0  0  0  0
   10.2260   -1.3830   21.9960 C   0  0  0  0  0  0  0  0  0  0  0  0
    9.2570   -1.2220   20.9700 N   0  0  0  0  0  0  0  0  0  0  0  0
    8.3920   -0.1880   21.1630 C   0  0  0  0  0  0  0  0  0  0  0  0
    8.8500    1.0670   21.4680 O   0  0  0  0  0  0  0  0  0  0  0  0
    7.0870   -0.5380   20.9800 N   0  0  0  0  0  0  0  0  0  0  0  0
    6.3330    0.1110   20.0150 C   0  0  0  0  0  0  0  0  0  0  0  0
    5.1460    0.7930   20.2180 C   0  0  0  0  0  0  0  0  0  0  0  0
    4.5250    1.4190   19.1450 C   0  0  0  0  0  0  0  0  0  0  0  0
    5.1260    1.3320   17.8980 C   0  0  0  0  0  0  0  0  0  0  0  0
    6.2660    0.6690   17.6780 N   0  0  0  0  0  0  0  0  0  0  0  0
    6.8390    0.0770   18.7340 C   0  0  0  0  0  0  0  0  0  0  0  0
    9.6640   -1.2500   23.3540 C   0  0  0  0  0  0  0  0  0  0  0  0
  1  2  1  0
  2  3  1  0
  3  4  1  0
  4  5  2  0
  5  6  1  0
  6  7  2  0
  7  8  1  0
  8  9  1  0
  9 10  1  0
 10 11  2  0
 10 12  1  0
 12 13  1  0
 13 14  2  0
 14 15  1  0
 15 16  2  0
 16 17  1  0
 13 18  1  0
 17 18  2  0
  4 19  1  0
  8 19  2  0
M  END
