pyridine_urea_4832
     RDKit          3D

 21 23  0  0  0  0  0  0  0  0999 V2000
    2.3580    3.7480   18.4370 O   0  0  0  0  0  0  0  0  0  0  0  0
    3.0990    2.8400   18.7940 C   0  0  0  0  0  0  0  0  0  0  0  0
    2.8660    2.1960   20.1900 C   0  0  0  0  0  0  0  0  0  0  0  0
    3.9380    2.0380   20.7420 O   0  0  0  0  0  0  0  0  0  0  0  0
    4.8510    1.3710   19.9950 C   0  0  0  0  0  0  0  0  0  0  0  0
    5.6590    0.5560   20.7300 C   0  0  0  0  0  0  0  0  0  0  0  0
    6.6280   -0.1630   20.0790 C   0  0  0  0  0  0  0  0  0  0  0  0
    7.4440   -0.9780   20.9470 N   0  0  0  0  0  0  0  0  0  0  0  0
    8.4560   -0.2590   21.5240 C   0  0  0  0  0  0  0  0  0  0  0  0
    8.6100    0.9290   21.2680 O   0  0  0  0  0  0  0  0  0  0  0  0
    9.2460   -0.9840   22.3660 N   0  0  0  0  0  0  0  0  0  0  0  0
   10.5700   -0.5970   22.5290 C   0  0  0  0  0  0  0  0  0  0  0  0
   11.6870   -1.4340   22.4150 C   0  0  0  0  0  0  0  0  0  0  0  0
   12.9450   -0.8790   22.5870 C   0  0  0  0  0  0  0  0  0  0  0  0
   13.1290    0.4680   22.8660 C   0  0  0  0  0  0  0  0  0  0  0  0
   12.0540    1.2880   22.9810 N   0  0  0  0  0  0  0  0  0  0  0  0
   10.7800    0.7500   22.8180 C   0  0  0  0  0  0  0  0  0  0  0  0
    6.7550   -0.0520   18.7030 C   0  0  0  0  0  0  0  0  0  0  0  0
    5.9670    0.7450   17.9430 N   0  0  0  0  0  0  0  0  0  0  0  0
    5.0070    1.4610   18.6340 C   0  0  0  0  0  0  0  0  0  0  0  0
    4.1500    2.3040   18.0460 N   0  0  0  0  0  0  0  0  0  0  0  0
  1  2  2  0
  2  3  1  0
  3  4  1  0
  4  5  1  0
  5  6  1  0
  6  7  2  0
  7  8  1  0
  8  9  1  0
  9 10  2  0
  9 11  1  0
 11 12  1  0
 12 13  2  0
 13 14  1  0
 14 15  2  0
 15 16  1  0
 12 17  1  0
 16 17  2  0
  7 18  1  0
 18 19  2  0
  5 20  2  0
 19 20  1  0
  2 21  1  0
 20 21  1  0
M  END
