pyridine_urea_14925
     RDKit          3D

 19 20  0  0  0  0  0  0  0  0999 V2000
   13.5370   -2.8600   25.0840 C   0  0  0  0  0  0  0  0  0  0  0  0
   12.3780   -2.2010   24.7620 N   0  0  0  0  0  0  0  0  0  0  0  0
   12.3550   -0.7710   24.9520 C   0  0  0  0  0  0  0  0  0  0  0  0
   12.6370   -0.0150   23.6610 C   0  0  2  0  0  0  0  0  0  0  0  0
   11.6800    1.1280   23.5000 C   0  0  0  0  0  0  0  0  0  0  0  0
   10.2750    0.5580   23.4240 C   0  0  0  0  0  0  0  0  0  0  0  0
   10.1380   -0.9140   23.0360 C   0  0  1  0  0  0  0  0  0  0  0  0
    8.9770   -1.1070   22.3140 N   0  0  0  0  0  0  0  0  0  0  0  0
    8.2990   -0.1830   21.4850 C   0  0  0  0  0  0  0  0  0  0  0  0
    8.7590    0.9070   21.1680 O   0  0  0  0  0  0  0  0  0  0  0  0
    7.0940   -0.6690   21.1040 N   0  0  0  0  0  0  0  0  0  0  0  0
    6.4770   -0.0220   20.0800 C   0  0  0  0  0  0  0  0  0  0  0  0
    5.3070    0.7050   20.3440 C   0  0  0  0  0  0  0  0  0  0  0  0
    4.6880    1.3700   19.2940 C   0  0  0  0  0  0  0  0  0  0  0  0
    5.2270    1.3040   18.0180 C   0  0  0  0  0  0  0  0  0  0  0  0
    6.3390    0.6120   17.7440 N   0  0  0  0  0  0  0  0  0  0  0  0
    6.9280   -0.0280   18.7740 C   0  0  0  0  0  0  0  0  0  0  0  0
   11.3740   -1.4560   22.2790 C   0  0  0  0  0  0  0  0  0  0  0  0
   12.6900   -1.0230   22.5150 C   0  0  0  0  0  0  0  0  0  0  0  0
  1  2  1  0
  2  3  1  0
  4  3  1  1
  4  5  1  0
  5  6  1  0
  6  7  1  0
  7  8  1  6
  8  9  1  0
  9 10  2  0
  9 11  1  0
 11 12  1  0
 12 13  2  0
 13 14  1  0
 14 15  2  0
 15 16  1  0
 12 17  1  0
 16 17  2  0
  7 18  1  0
  4 19  1  0
 18 19  1  0
M  END
