pyridine_urea_4467
     RDKit          3D

 23 25  0  0  0  0  0  0  0  0999 V2000
    8.5700   -1.1960   20.5180 O   0  0  0  0  0  0  0  0  0  0  0  0
    7.8090   -0.8280   21.3410 C   0  0  0  0  0  0  0  0  0  0  0  0
    6.4680   -0.8230   21.1790 N   0  0  0  0  0  0  0  0  0  0  0  0
    6.0470   -0.0560   20.0450 C   0  0  0  0  0  0  0  0  0  0  0  0
    4.8080    0.7970   20.2380 C   0  0  0  0  0  0  0  0  0  0  0  0
    4.3440    1.6290   19.0540 C   0  0  0  0  0  0  0  0  0  0  0  0
    5.1860    1.5080   17.7910 C   0  0  0  0  0  0  0  0  0  0  0  0
    6.3100    0.6700   17.7590 N   0  0  0  0  0  0  0  0  0  0  0  0
    6.7210   -0.0740   18.8320 C   0  0  0  0  0  0  0  0  0  0  0  0
    8.2660   -0.3200   22.4940 N   0  0  0  0  0  0  0  0  0  0  0  0
    9.3670    0.4570   22.1670 C   0  0  1  0  0  0  0  0  0  0  0  0
    9.9010    1.3280   23.0100 C   0  0  0  0  0  0  0  0  0  0  0  0
   11.2730    1.3470   22.8920 C   0  0  0  0  0  0  0  0  0  0  0  0
   11.6460    0.2600   22.2110 N   0  0  0  0  0  0  0  0  0  0  0  0
   12.1540   -0.4790   22.9450 C   0  0  0  0  0  0  0  0  0  0  0  0
   13.2160   -1.2120   22.5510 C   0  0  0  0  0  0  0  0  0  0  0  0
   13.6930   -2.0580   23.5130 C   0  0  0  0  0  0  0  0  0  0  0  0
   13.0470   -2.0750   24.8320 C   0  0  0  0  0  0  0  0  0  0  0  0
   13.8630   -3.1410   25.8430 Cl  0  0  0  0  0  0  0  0  0  0  0  0
   11.9270   -1.2380   24.9970 C   0  0  0  0  0  0  0  0  0  0  0  0
   11.0450   -0.9530   25.9150 F   0  0  0  0  0  0  0  0  0  0  0  0
   11.5160   -0.4490   24.0400 C   0  0  0  0  0  0  0  0  0  0  0  0
   10.4400   -0.5280   21.8980 C   0  0  0  0  0  0  0  0  0  0  0  0
  1  2  2  0
  2  3  1  0
  3  4  1  0
  4  5  2  0
  5  6  1  0
  6  7  2  0
  7  8  1  0
  4  9  1  0
  8  9  2  0
  2 10  1  0
 11 10  1  1
 11 12  1  0
 12 13  1  0
 13 14  1  0
 14 15  1  0
 15 16  2  0
 16 17  1  0
 17 18  2  0
 18 19  1  0
 18 20  1  0
 20 21  1  0
 15 22  1  0
 20 22  2  0
 11 23  1  0
 14 23  1  0
M  END
