pyridine_urea_5177
     RDKit          3D

 20 21  0  0  0  0  0  0  0  0999 V2000
    8.8800    0.9730   21.4430 O   0  0  0  0  0  0  0  0  0  0  0  0
    8.5620   -0.2040   21.3610 C   0  0  0  0  0  0  0  0  0  0  0  0
    9.4290   -1.2760   21.4700 N   0  0  0  0  0  0  0  0  0  0  0  0
   10.4500   -1.4500   22.4470 C   0  0  0  0  0  0  0  0  0  0  0  0
   11.8100   -1.4300   22.0350 C   0  0  0  0  0  0  0  0  0  0  0  0
   12.5900   -0.3630   22.5470 C   0  0  0  0  0  0  0  0  0  0  0  0
   12.5070   -0.4690   23.8870 C   0  0  0  0  0  0  0  0  0  0  0  0
   11.1970   -0.0300   23.8080 C   0  0  0  0  0  0  0  0  0  0  0  0
   10.3430    0.3700   22.9180 C   0  0  0  0  0  0  0  0  0  0  0  0
    9.4080    0.4860   24.0130 C   0  0  0  0  0  0  0  0  0  0  0  0
   10.2040    0.0770   25.1600 C   0  0  0  0  0  0  0  0  0  0  0  0
    9.3160    0.1330   26.6550 Cl  0  0  0  0  0  0  0  0  0  0  0  0
   11.6740   -0.3500   25.0550 C   0  0  0  0  0  0  0  0  0  0  0  0
    7.2730   -0.5830   21.0870 N   0  0  0  0  0  0  0  0  0  0  0  0
    6.5350    0.0150   20.0580 C   0  0  0  0  0  0  0  0  0  0  0  0
    5.3600    0.7060   20.3640 C   0  0  0  0  0  0  0  0  0  0  0  0
    4.6380    1.3270   19.3380 C   0  0  0  0  0  0  0  0  0  0  0  0
    5.1340    1.2230   18.0480 C   0  0  0  0  0  0  0  0  0  0  0  0
    6.2520    0.5580   17.7310 N   0  0  0  0  0  0  0  0  0  0  0  0
    6.9320   -0.0340   18.7320 C   0  0  0  0  0  0  0  0  0  0  0  0
  1  2  2  0
  2  3  1  0
  3  4  1  0
  4  5  1  0
  5  6  1  0
  6  7  1  0
  7  8  2  0
  8  9  1  0
  9 10  2  0
 10 11  1  0
 11 12  1  0
  7 13  1  0
 11 13  2  0
  2 14  1  0
 14 15  1  0
 15 16  2  0
 16 17  1  0
 17 18  2  0
 18 19  1  0
 15 20  1  0
 19 20  2  0
M  END
