pyridine_urea_9821
     RDKit          3D

 25 27  0  0  0  0  0  0  0  0999 V2000
    8.8430    0.7600   21.2170 O   0  0  0  0  0  0  0  0  0  0  0  0
    8.0290   -0.0480   21.6280 C   0  0  0  0  0  0  0  0  0  0  0  0
    7.9110   -0.4330   22.9220 N   0  0  0  0  0  0  0  0  0  0  0  0
    9.0710   -0.4490   23.7380 C   0  0  0  0  0  0  0  0  0  0  0  0
    9.7430    0.8970   23.9880 C   0  0  0  0  0  0  0  0  0  0  0  0
   10.9290    1.9140   23.8740 C   0  0  0  0  0  0  0  0  0  0  0  0
   12.2930    1.7870   23.1940 C   0  0  0  0  0  0  0  0  0  0  0  0
   12.6670    0.5850   22.4730 C   0  0  0  0  0  0  0  0  0  0  0  0
   11.5530   -0.3550   22.5050 C   0  0  0  0  0  0  0  0  0  0  0  0
   11.8220   -1.3160   21.9360 O   0  0  0  0  0  0  0  0  0  0  0  0
   12.4230   -1.5730   23.0940 C   0  0  0  0  0  0  0  0  0  0  0  0
   13.0750   -2.6850   23.0620 C   0  0  0  0  0  0  0  0  0  0  0  0
   13.6990   -3.0160   24.1890 C   0  0  0  0  0  0  0  0  0  0  0  0
   13.7280   -2.3050   25.3350 C   0  0  0  0  0  0  0  0  0  0  0  0
   14.4260   -2.8020   26.3450 F   0  0  0  0  0  0  0  0  0  0  0  0
   13.0580   -1.1230   25.3980 C   0  0  0  0  0  0  0  0  0  0  0  0
   12.3620   -0.7390   24.2090 C   0  0  0  0  0  0  0  0  0  0  0  0
   10.3760   -0.0410   23.2270 N   0  0  0  0  0  0  0  0  0  0  0  0
    7.0870   -0.6700   20.8530 N   0  0  0  0  0  0  0  0  0  0  0  0
    6.3850    0.0090   19.9480 C   0  0  0  0  0  0  0  0  0  0  0  0
    5.1120    0.7410   20.1900 C   0  0  0  0  0  0  0  0  0  0  0  0
    4.5270    1.4150   19.1270 C   0  0  0  0  0  0  0  0  0  0  0  0
    5.1620    1.3690   17.8970 C   0  0  0  0  0  0  0  0  0  0  0  0
    6.3100    0.7010   17.6670 N   0  0  0  0  0  0  0  0  0  0  0  0
    6.8820    0.0470   18.6810 C   0  0  0  0  0  0  0  0  0  0  0  0
  1  2  2  0
  2  3  1  0
  3  4  1  0
  4  5  1  0
  5  6  2  0
  6  7  1  0
  7  8  2  0
  8  9  1  0
  9 10  1  0
 10 11  1  0
 11 12  2  0
 12 13  1  0
 13 14  2  0
 14 15  1  0
 14 16  1  0
 11 17  1  0
 16 17  2  0
  5 18  1  0
  9 18  2  0
  2 19  1  0
 19 20  1  0
 20 21  2  0
 21 22  1  0
 22 23  2  0
 23 24  1  0
 20 25  1  0
 24 25  2  0
M  END
