pyridine_urea_8295
     RDKit          3D

 23 25  0  0  0  0  0  0  0  0999 V2000
    8.5300   -0.6370   25.3430 C   0  0  0  0  0  0  0  0  0  0  0  0
    9.7240   -0.7660   24.4020 C   0  0  0  0  0  0  0  0  0  0  0  0
   11.0990   -0.5550   25.0590 C   0  0  0  0  0  0  0  0  0  0  0  0
   12.2370   -0.6200   24.3230 C   0  0  0  0  0  0  0  0  0  0  0  0
   12.1370   -0.9110   22.8360 C   0  0  0  0  0  0  0  0  0  0  0  0
   13.2380   -0.9150   22.1110 C   0  0  0  0  0  0  0  0  0  0  0  0
   13.6040   -1.7460   21.3080 O   0  0  0  0  0  0  0  0  0  0  0  0
   13.7990    0.3500   22.5320 N   0  0  0  0  0  0  0  0  0  0  0  0
   12.7360    1.1340   23.1740 C   0  0  0  0  0  0  0  0  0  0  0  0
   11.4110    1.1350   22.8480 C   0  0  0  0  0  0  0  0  0  0  0  0
   12.2750    2.5280   22.7840 C   0  0  0  0  0  0  0  0  0  0  0  0
   10.9370   -1.1320   22.2090 C   0  0  0  0  0  0  0  0  0  0  0  0
    9.6700   -1.0490   23.0330 C   0  0  0  0  0  0  0  0  0  0  0  0
    8.4500   -1.2340   22.4290 N   0  0  0  0  0  0  0  0  0  0  0  0
    7.9950   -0.3420   21.5030 C   0  0  0  0  0  0  0  0  0  0  0  0
    8.5630    0.7010   21.1990 O   0  0  0  0  0  0  0  0  0  0  0  0
    6.8110   -0.7540   20.9640 N   0  0  0  0  0  0  0  0  0  0  0  0
    6.2510   -0.0380   19.9250 C   0  0  0  0  0  0  0  0  0  0  0  0
    5.0560    0.6450   20.1010 C   0  0  0  0  0  0  0  0  0  0  0  0
    4.5120    1.3700   19.0660 C   0  0  0  0  0  0  0  0  0  0  0  0
    5.1570    1.4170   17.8580 C   0  0  0  0  0  0  0  0  0  0  0  0
    6.3160    0.7640   17.6430 N   0  0  0  0  0  0  0  0  0  0  0  0
    6.8260    0.0560   18.6770 C   0  0  0  0  0  0  0  0  0  0  0  0
  1  2  1  0
  2  3  2  0
  3  4  1  0
  4  5  2  0
  5  6  1  0
  6  7  2  0
  6  8  1  0
  8  9  1  0
  9 10  1  0
  9 11  1  0
 10 11  1  0
  5 12  1  0
  2 13  1  0
 12 13  2  0
 13 14  1  0
 14 15  1  0
 15 16  2  0
 15 17  1  0
 17 18  1  0
 18 19  2  0
 19 20  1  0
 20 21  2  0
 21 22  1  0
 18 23  1  0
 22 23  2  0
M  END
