pyridine_urea_1145
     RDKit          3D

 21 22  0  0  0  0  0  0  0  0999 V2000
   13.0710   -2.2720   21.1630 C   0  0  0  0  0  0  0  0  0  0  0  0
   13.6270   -0.9930   21.4570 O   0  0  0  0  0  0  0  0  0  0  0  0
   13.1190   -0.5040   22.6090 C   0  0  0  0  0  0  0  0  0  0  0  0
   13.3250    0.6220   23.0230 O   0  0  0  0  0  0  0  0  0  0  0  0
   12.3270   -1.4210   23.2590 C   0  0  0  0  0  0  0  0  0  0  0  0
   11.0650   -1.6350   22.8980 C   0  0  0  0  0  0  0  0  0  0  0  0
   10.5130   -2.5140   23.6120 N   0  0  0  0  0  0  0  0  0  0  0  0
    9.2030   -2.8090   23.3330 C   0  0  0  0  0  0  0  0  0  0  0  0
    8.1880   -1.6910   23.3120 C   0  0  0  0  0  0  0  0  0  0  0  0
    8.7580   -0.6000   22.6820 N   0  0  0  0  0  0  0  0  0  0  0  0
    8.2650    0.0770   21.5440 C   0  0  0  0  0  0  0  0  0  0  0  0
    8.7650    1.1490   21.1460 O   0  0  0  0  0  0  0  0  0  0  0  0
    7.2150   -0.6010   21.0260 N   0  0  0  0  0  0  0  0  0  0  0  0
    6.5170    0.0460   20.0730 C   0  0  0  0  0  0  0  0  0  0  0  0
    5.3490    0.7820   20.2950 C   0  0  0  0  0  0  0  0  0  0  0  0
    4.7050    1.4300   19.2260 C   0  0  0  0  0  0  0  0  0  0  0  0
    5.1900    1.3710   17.9280 C   0  0  0  0  0  0  0  0  0  0  0  0
    6.3480    0.6260   17.7380 N   0  0  0  0  0  0  0  0  0  0  0  0
    6.9890   -0.0200   18.7810 C   0  0  0  0  0  0  0  0  0  0  0  0
   11.4550   -2.9560   24.5370 N   0  0  0  0  0  0  0  0  0  0  0  0
   12.6390   -2.2420   24.3140 N   0  0  0  0  0  0  0  0  0  0  0  0
  1  2  1  0
  2  3  1  0
  3  4  2  0
  3  5  1  0
  5  6  2  0
  6  7  1  0
  7  8  1  0
  8  9  1  0
  9 10  1  0
 10 11  1  0
 11 12  2  0
 11 13  1  0
 13 14  1  0
 14 15  2  0
 15 16  1  0
 16 17  2  0
 17 18  1  0
 14 19  1  0
 18 19  2  0
  7 20  1  0
  5 21  1  0
 20 21  2  0
M  END
