pyridine_urea_14131
     RDKit          3D

 22 22  0  0  0  0  0  0  0  0999 V2000
    8.0600    3.2140   21.8970 C   0  0  0  0  0  0  0  0  0  0  0  0
    8.7420    3.5320   22.8330 C   0  0  0  0  0  0  0  0  0  0  0  0
    9.1530    2.2900   23.4620 O   0  0  0  0  0  0  0  0  0  0  0  0
   10.3670    1.8090   23.0670 C   0  0  0  0  0  0  0  0  0  0  0  0
   11.1990    2.5000   22.4890 O   0  0  0  0  0  0  0  0  0  0  0  0
   10.5550    0.3750   23.4520 C   0  0  1  0  0  0  0  0  0  0  0  0
    9.8050    0.0690   24.5770 C   0  0  0  0  0  0  0  0  0  0  0  0
   10.3370   -0.8050   22.7100 C   0  0  0  0  0  0  0  0  0  0  0  0
    8.9500   -1.0720   22.3110 N   0  0  0  0  0  0  0  0  0  0  0  0
    8.3220   -0.1460   21.5180 C   0  0  0  0  0  0  0  0  0  0  0  0
    8.9370    1.0990   21.1340 O   0  0  0  0  0  0  0  0  0  0  0  0
    6.9990   -0.5840   21.1470 N   0  0  0  0  0  0  0  0  0  0  0  0
    6.4250    0.0530   19.9780 C   0  0  0  0  0  0  0  0  0  0  0  0
    5.1760    0.8500   20.2450 C   0  0  0  0  0  0  0  0  0  0  0  0
    4.5690    1.5180   19.1880 C   0  0  0  0  0  0  0  0  0  0  0  0
    5.1360    1.4250   17.9220 C   0  0  0  0  0  0  0  0  0  0  0  0
    6.3310    0.6460   17.6750 N   0  0  0  0  0  0  0  0  0  0  0  0
    6.9260   -0.0090   18.7070 C   0  0  0  0  0  0  0  0  0  0  0  0
   11.7190    0.2470   24.4400 C   0  0  0  0  0  0  0  0  0  0  0  0
   12.7800   -0.1610   23.4970 C   0  0  0  0  0  0  0  0  0  0  0  0
   13.1950    1.0580   22.8130 C   0  0  0  0  0  0  0  0  0  0  0  0
   12.5000   -1.1260   22.3480 C   0  0  0  0  0  0  0  0  0  0  0  0
  1  2  1  0
  2  3  1  0
  3  4  1  0
  4  5  2  0
  6  4  1  0
  6  7  1  1
  6  8  1  0
  8  9  1  0
  9 10  1  0
 10 11  2  0
 10 12  1  0
 12 13  1  0
 13 14  2  0
 14 15  1  0
 15 16  2  0
 16 17  1  0
 13 18  1  0
 17 18  2  0
  6 19  1  0
 19 20  1  0
 20 21  1  0
 20 22  1  0
M  END
