pyridine_urea_6382
     RDKit          3D

 23 25  0  0  0  0  0  0  0  0999 V2000
    8.8210    1.1750   21.1610 O   0  0  0  0  0  0  0  0  0  0  0  0
    8.2840    0.1220   21.5470 C   0  0  0  0  0  0  0  0  0  0  0  0
    8.6700   -0.5660   22.6650 N   0  0  0  0  0  0  0  0  0  0  0  0
   10.0320   -0.4330   23.1010 C   0  0  0  0  0  0  0  0  0  0  0  0
   10.3970    0.9960   23.4940 C   0  0  0  0  0  0  0  0  0  0  0  0
   11.8630    1.1280   23.5090 C   0  0  0  0  0  0  0  0  0  0  0  0
   12.4050   -0.0640   23.8950 C   0  0  0  0  0  0  0  0  0  0  0  0
   12.8430   -0.7550   25.1590 C   0  0  0  0  0  0  0  0  0  0  0  0
   13.4200   -2.1060   25.0970 C   0  0  0  0  0  0  0  0  0  0  0  0
   13.5800   -2.7650   23.8010 N   0  0  0  0  0  0  0  0  0  0  0  0
   13.1900   -2.4460   22.3830 C   0  0  0  0  0  0  0  0  0  0  0  0
   12.5860   -1.8960   21.3000 C   0  0  0  0  0  0  0  0  0  0  0  0
   11.6530   -2.2250   22.2540 C   0  0  0  0  0  0  0  0  0  0  0  0
   11.9780   -2.4780   23.6440 C   0  0  0  0  0  0  0  0  0  0  0  0
   12.8840   -1.6320   24.1470 C   0  0  0  0  0  0  0  0  0  0  0  0
   12.6430   -1.0430   22.8860 C   0  0  0  0  0  0  0  0  0  0  0  0
    7.2250   -0.4950   20.9280 N   0  0  0  0  0  0  0  0  0  0  0  0
    6.4780    0.1280   20.0080 C   0  0  0  0  0  0  0  0  0  0  0  0
    5.2090    0.8910   20.2660 C   0  0  0  0  0  0  0  0  0  0  0  0
    4.5880    1.4870   19.1690 C   0  0  0  0  0  0  0  0  0  0  0  0
    5.1700    1.3430   17.9210 C   0  0  0  0  0  0  0  0  0  0  0  0
    6.2950    0.6600   17.6640 N   0  0  0  0  0  0  0  0  0  0  0  0
    6.9120    0.0750   18.7060 C   0  0  0  0  0  0  0  0  0  0  0  0
  1  2  2  0
  2  3  1  0
  3  4  1  0
  4  5  1  0
  5  6  1  0
  6  7  1  0
  7  8  2  0
  8  9  1  0
  9 10  2  0
 10 11  1  0
 11 12  1  0
 12 13  2  0
 13 14  1  0
 14 15  2  0
  7 16  1  0
 11 16  2  0
 15 16  1  0
  2 17  1  0
 17 18  1  0
 18 19  2  0
 19 20  1  0
 20 21  2  0
 21 22  1  0
 18 23  1  0
 22 23  2  0
M  END
