pyridine_urea_14935
     RDKit          3D

 19 19  0  0  0  0  0  0  0  0999 V2000
    8.9710    0.0010   26.0110 C   0  0  0  0  0  0  0  0  0  0  0  0
    9.0930   -0.3410   24.6340 O   0  0  0  0  0  0  0  0  0  0  0  0
   10.1160    0.4040   23.9670 C   0  0  0  0  0  0  0  0  0  0  0  0
    9.8920    1.3240   24.7430 O   0  0  0  0  0  0  0  0  0  0  0  0
   10.0600   -0.9390   23.2420 C   0  0  2  0  0  0  0  0  0  0  0  0
   11.1940   -1.0150   22.2550 C   0  0  0  0  0  0  0  0  0  0  0  0
   12.5200   -1.4590   22.8480 C   0  0  0  0  0  0  0  0  0  0  0  0
   12.7730   -0.5230   24.2430 S   0  0  0  0  0  0  0  0  0  0  0  0
   12.7850    0.8760   23.2550 C   0  0  0  0  0  0  0  0  0  0  0  0
    8.9150   -1.1610   22.5530 N   0  0  0  0  0  0  0  0  0  0  0  0
    8.3960   -0.2690   21.6200 C   0  0  0  0  0  0  0  0  0  0  0  0
    8.9200    0.8070   21.3650 O   0  0  0  0  0  0  0  0  0  0  0  0
    7.1630   -0.7980   21.0310 N   0  0  0  0  0  0  0  0  0  0  0  0
    6.4440   -0.0550   20.0670 C   0  0  0  0  0  0  0  0  0  0  0  0
    5.2650    0.6630   20.3090 C   0  0  0  0  0  0  0  0  0  0  0  0
    4.6730    1.3490   19.2570 C   0  0  0  0  0  0  0  0  0  0  0  0
    5.2550    1.3120   18.0020 C   0  0  0  0  0  0  0  0  0  0  0  0
    6.3810    0.6270   17.7510 N   0  0  0  0  0  0  0  0  0  0  0  0
    6.9400   -0.0350   18.7800 C   0  0  0  0  0  0  0  0  0  0  0  0
  1  2  1  0
  2  3  1  0
  3  4  2  0
  3  5  1  0
  5  6  1  6
  6  7  1  0
  7  8  1  0
  8  9  1  0
  5 10  1  0
 10 11  1  0
 11 12  2  0
 11 13  1  0
 13 14  1  0
 14 15  2  0
 15 16  1  0
 16 17  2  0
 17 18  1  0
 14 19  1  0
 18 19  2  0
M  END
