pyridine_urea_2293
     RDKit          3D

 26 29  0  0  0  0  0  0  0  0999 V2000
    9.0370    1.3490   21.1990 O   0  0  0  0  0  0  0  0  0  0  0  0
    8.5340    0.2880   21.5800 C   0  0  0  0  0  0  0  0  0  0  0  0
    8.9730   -0.4850   22.6480 N   0  0  0  0  0  0  0  0  0  0  0  0
   10.3110   -0.8900   23.0480 C   0  0  0  0  0  0  0  0  0  0  0  0
   11.4110    0.1600   23.2510 C   0  0  0  0  0  0  0  0  0  0  0  0
   11.1050    1.4960   23.8830 C   0  0  0  0  0  0  0  0  0  0  0  0
   12.1800    0.7850   23.2970 C   0  0  0  0  0  0  0  0  0  0  0  0
   11.8040   -0.6150   22.9660 C   0  0  0  0  0  0  0  0  0  0  0  0
   10.5140   -1.3290   23.2450 N   0  0  0  0  0  0  0  0  0  0  0  0
   10.0810   -2.4710   22.5440 C   0  0  0  0  0  0  0  0  0  0  0  0
    8.8190   -2.9940   23.0080 N   0  0  0  0  0  0  0  0  0  0  0  0
    8.5200   -2.1210   24.0000 C   0  0  0  0  0  0  0  0  0  0  0  0
    7.3950   -2.1580   24.7850 C   0  0  0  0  0  0  0  0  0  0  0  0
    7.2100   -1.2030   25.7730 C   0  0  0  0  0  0  0  0  0  0  0  0
    8.1470   -0.1640   26.0210 C   0  0  0  0  0  0  0  0  0  0  0  0
    9.3660   -0.0070   25.2700 C   0  0  0  0  0  0  0  0  0  0  0  0
    9.4700   -1.1120   24.2040 C   0  0  0  0  0  0  0  0  0  0  0  0
   12.7890   -1.1250   22.4300 N   0  0  0  0  0  0  0  0  0  0  0  0
   13.0510    0.0860   22.7980 C   0  0  0  0  0  0  0  0  0  0  0  0
    7.4040   -0.3070   21.0330 N   0  0  0  0  0  0  0  0  0  0  0  0
    6.6130    0.1970   20.0530 C   0  0  0  0  0  0  0  0  0  0  0  0
    5.4200    0.8900   20.4450 C   0  0  0  0  0  0  0  0  0  0  0  0
    4.6320    1.3980   19.4330 C   0  0  0  0  0  0  0  0  0  0  0  0
    5.3240    1.0370   18.1740 C   0  0  0  0  0  0  0  0  0  0  0  0
    6.1850    0.5430   17.6660 N   0  0  0  0  0  0  0  0  0  0  0  0
    6.9370    0.0530   18.6840 C   0  0  0  0  0  0  0  0  0  0  0  0
  1  2  2  0
  2  3  1  0
  3  4  1  0
  4  5  1  0
  5  6  2  0
  6  7  1  0
  7  8  2  0
  8  9  1  0
  9 10  1  0
 10 11  2  0
 11 12  1  0
 12 13  1  0
 13 14  2  0
 14 15  1  0
 15 16  2  0
  9 17  1  0
 12 17  2  0
 16 17  1  0
  8 18  1  0
  5 19  1  0
 18 19  2  0
  2 20  1  0
 20 21  1  0
 21 22  2  0
 22 23  1  0
 23 24  2  0
 24 25  1  0
 21 26  1  0
 25 26  2  0
M  END
