pyridine_urea_4725
     RDKit          3D

 22 24  0  0  0  0  0  0  0  0999 V2000
    9.1490    0.8340   21.4920 O   0  0  0  0  0  0  0  0  0  0  0  0
    8.6370   -0.2580   21.6870 C   0  0  0  0  0  0  0  0  0  0  0  0
    9.2150   -1.1980   22.5360 N   0  0  0  0  0  0  0  0  0  0  0  0
   10.6590   -1.2430   22.8330 C   0  0  0  0  0  0  0  0  0  0  0  0
   11.4170   -2.0040   21.7160 C   0  0  0  0  0  0  0  0  0  0  0  0
   12.7400   -2.3900   21.7780 N   0  0  0  0  0  0  0  0  0  0  0  0
   13.2890   -3.5480   22.1260 N   0  0  0  0  0  0  0  0  0  0  0  0
   13.7900   -4.1950   20.9820 C   0  0  0  0  0  0  0  0  0  0  0  0
   14.3490   -5.4470   20.6720 C   0  0  0  0  0  0  0  0  0  0  0  0
   15.3250   -5.6460   19.8230 C   0  0  0  0  0  0  0  0  0  0  0  0
   15.7000   -4.6020   19.2510 C   0  0  0  0  0  0  0  0  0  0  0  0
   14.8760   -3.5900   19.4130 C   0  0  0  0  0  0  0  0  0  0  0  0
   13.7540   -3.5190   20.1170 N   0  0  0  0  0  0  0  0  0  0  0  0
   13.4890   -2.2270   20.6950 C   0  0  0  0  0  0  0  0  0  0  0  0
   13.9940   -1.0430   20.1600 O   0  0  0  0  0  0  0  0  0  0  0  0
    7.4380   -0.6970   21.1260 N   0  0  0  0  0  0  0  0  0  0  0  0
    6.6990   -0.0710   20.1580 C   0  0  0  0  0  0  0  0  0  0  0  0
    5.5790    0.7000   20.5320 C   0  0  0  0  0  0  0  0  0  0  0  0
    4.8100    1.3690   19.4310 C   0  0  0  0  0  0  0  0  0  0  0  0
    5.1890    1.2320   18.1280 C   0  0  0  0  0  0  0  0  0  0  0  0
    6.2550    0.4880   17.7940 N   0  0  0  0  0  0  0  0  0  0  0  0
    6.9680   -0.1320   18.7880 C   0  0  0  0  0  0  0  0  0  0  0  0
  1  2  2  0
  2  3  1  0
  3  4  1  0
  4  5  1  0
  5  6  1  0
  6  7  1  0
  7  8  2  0
  8  9  1  0
  9 10  2  0
 10 11  1  0
 11 12  2  0
  8 13  1  0
 12 13  1  0
  6 14  1  0
 13 14  1  0
 14 15  2  0
  2 16  1  0
 16 17  1  0
 17 18  2  0
 18 19  1  0
 19 20  2  0
 20 21  1  0
 17 22  1  0
 21 22  2  0
M  END
