pyridine_urea_8116
     RDKit          3D

 24 26  0  0  0  0  0  0  0  0999 V2000
   13.5320    0.2110   22.5680 C   0  0  0  0  0  0  0  0  0  0  0  0
   13.5230   -1.2660   22.3700 C   0  0  0  0  0  0  0  0  0  0  0  0
   13.2760   -1.8690   23.7480 C   0  0  0  0  0  0  0  0  0  0  0  0
   12.5270   -2.9150   23.4520 C   0  0  0  0  0  0  0  0  0  0  0  0
   11.3230   -2.6270   22.8170 N   0  0  0  0  0  0  0  0  0  0  0  0
   10.4710   -1.9010   23.4280 C   0  0  0  0  0  0  0  0  0  0  0  0
   10.6910   -1.8300   24.7300 C   0  0  0  0  0  0  0  0  0  0  0  0
    9.7800   -1.0370   25.5720 C   0  0  0  0  0  0  0  0  0  0  0  0
    8.5900   -0.2640   25.1310 C   0  0  0  0  0  0  0  0  0  0  0  0
    7.8210    0.4280   26.0170 F   0  0  0  0  0  0  0  0  0  0  0  0
    8.4190   -0.3740   23.6570 C   0  0  0  0  0  0  0  0  0  0  0  0
    9.4040   -1.2190   22.8690 C   0  0  0  0  0  0  0  0  0  0  0  0
    9.0830   -1.2020   21.5490 N   0  0  0  0  0  0  0  0  0  0  0  0
    8.2480   -0.1700   21.1570 C   0  0  0  0  0  0  0  0  0  0  0  0
    8.5900    1.0020   21.0260 O   0  0  0  0  0  0  0  0  0  0  0  0
    7.0000   -0.6150   20.9710 N   0  0  0  0  0  0  0  0  0  0  0  0
    6.3910    0.0390   19.9840 C   0  0  0  0  0  0  0  0  0  0  0  0
    5.2340    0.7750   20.2520 C   0  0  0  0  0  0  0  0  0  0  0  0
    4.6370    1.4610   19.1970 C   0  0  0  0  0  0  0  0  0  0  0  0
    5.1550    1.4250   17.9200 C   0  0  0  0  0  0  0  0  0  0  0  0
    6.2440    0.7420   17.5780 N   0  0  0  0  0  0  0  0  0  0  0  0
    6.8690    0.0250   18.6910 C   0  0  0  0  0  0  0  0  0  0  0  0
   11.4720   -2.0530   21.6000 C   0  0  0  0  0  0  0  0  0  0  0  0
   12.8170   -1.9570   21.4020 C   0  0  0  0  0  0  0  0  0  0  0  0
  1  2  1  0
  2  3  1  0
  3  4  1  0
  4  5  1  0
  5  6  1  0
  6  7  2  0
  7  8  1  0
  8  9  2  0
  9 10  1  0
  9 11  1  0
  6 12  1  0
 11 12  2  0
 12 13  1  0
 13 14  1  0
 14 15  2  0
 14 16  1  0
 16 17  1  0
 17 18  2  0
 18 19  1  0
 19 20  2  0
 20 21  1  0
 17 22  1  0
 21 22  2  0
  5 23  1  0
  2 24  1  0
 23 24  1  0
M  END
