pyridine_urea_8905
     RDKit          3D

 20 21  0  0  0  0  0  0  0  0999 V2000
   11.4880   -2.8460   23.7250 C   0  0  0  0  0  0  0  0  0  0  0  0
   11.8200   -1.4130   23.3660 C   0  0  0  0  0  0  0  0  0  0  0  0
   13.1640   -0.9950   23.0600 C   0  0  0  0  0  0  0  0  0  0  0  0
   13.3000    0.2910   22.7960 C   0  0  0  0  0  0  0  0  0  0  0  0
   12.2710    1.2050   22.7860 C   0  0  0  0  0  0  0  0  0  0  0  0
   12.5980    2.4740   22.5180 F   0  0  0  0  0  0  0  0  0  0  0  0
   10.8610    1.0680   23.0130 C   0  0  0  0  0  0  0  0  0  0  0  0
    9.5510    0.7490   23.2580 C   0  0  0  0  0  0  0  0  0  0  0  0
    9.3350   -0.6310   23.4500 C   0  0  0  0  0  0  0  0  0  0  0  0
    8.8090   -1.2110   22.2490 N   0  0  0  0  0  0  0  0  0  0  0  0
    8.2290   -0.3140   21.4240 C   0  0  0  0  0  0  0  0  0  0  0  0
    8.7760    0.7310   21.1080 O   0  0  0  0  0  0  0  0  0  0  0  0
    6.9540   -0.6840   20.9980 N   0  0  0  0  0  0  0  0  0  0  0  0
    6.3750   -0.0270   19.9560 C   0  0  0  0  0  0  0  0  0  0  0  0
    5.1940    0.6430   20.2810 C   0  0  0  0  0  0  0  0  0  0  0  0
    4.5700    1.3920   19.1480 C   0  0  0  0  0  0  0  0  0  0  0  0
    5.1480    1.3920   17.8990 C   0  0  0  0  0  0  0  0  0  0  0  0
    6.2900    0.7180   17.6400 N   0  0  0  0  0  0  0  0  0  0  0  0
    6.8890    0.0090   18.6880 C   0  0  0  0  0  0  0  0  0  0  0  0
   10.7760   -0.3270   23.3070 C   0  0  0  0  0  0  0  0  0  0  0  0
  1  2  1  0
  2  3  2  0
  3  4  1  0
  4  5  2  0
  5  6  1  0
  5  7  1  0
  7  8  1  0
  8  9  1  0
  9 10  1  0
 10 11  1  0
 11 12  2  0
 11 13  1  0
 13 14  1  0
 14 15  2  0
 15 16  1  0
 16 17  2  0
 17 18  1  0
 14 19  1  0
 18 19  2  0
  2 20  1  0
  7 20  2  0
M  END
