pyridine_urea_9932
     RDKit          3D

 25 27  0  0  0  0  0  0  0  0999 V2000
    8.7280    1.0630   21.2810 O   0  0  0  0  0  0  0  0  0  0  0  0
    8.5240   -0.1430   21.2680 C   0  0  0  0  0  0  0  0  0  0  0  0
    7.2870   -0.6990   21.0400 N   0  0  0  0  0  0  0  0  0  0  0  0
    6.5420   -0.0180   20.0200 C   0  0  0  0  0  0  0  0  0  0  0  0
    5.2600    0.7130   20.4120 C   0  0  0  0  0  0  0  0  0  0  0  0
    4.5080    1.4460   19.3020 C   0  0  0  0  0  0  0  0  0  0  0  0
    5.1380    1.3620   17.9130 C   0  0  0  0  0  0  0  0  0  0  0  0
    6.3210    0.6400   17.7280 N   0  0  0  0  0  0  0  0  0  0  0  0
    6.9780   -0.0130   18.7210 C   0  0  0  0  0  0  0  0  0  0  0  0
    9.5300   -1.0650   21.4400 N   0  0  0  0  0  0  0  0  0  0  0  0
   10.4400   -0.8680   22.4790 C   0  0  0  0  0  0  0  0  0  0  0  0
   11.8210   -0.8570   22.5430 C   0  0  0  0  0  0  0  0  0  0  0  0
   12.5310   -0.6360   23.7050 C   0  0  0  0  0  0  0  0  0  0  0  0
   11.8250   -0.4200   24.8970 C   0  0  0  0  0  0  0  0  0  0  0  0
   10.3850   -0.4130   24.9600 C   0  0  0  0  0  0  0  0  0  0  0  0
    9.5160   -0.2350   26.0550 N   0  0  0  0  0  0  0  0  0  0  0  0
   10.0140    0.0840   27.3340 N   0  0  0  0  0  0  0  0  0  0  0  0
    8.9580    0.1960   28.1720 C   0  0  0  0  0  0  0  0  0  0  0  0
    7.7700   -0.0690   27.4070 C   0  0  0  0  0  0  0  0  0  0  0  0
    8.1160   -0.3390   26.1070 C   0  0  0  0  0  0  0  0  0  0  0  0
    7.2130   -0.6780   24.9720 C   0  0  0  0  0  0  0  0  0  0  0  0
    7.1480    0.2560   23.9970 F   0  0  0  0  0  0  0  0  0  0  0  0
    7.4810   -1.8670   24.3820 F   0  0  0  0  0  0  0  0  0  0  0  0
    5.9360   -0.8040   25.4250 F   0  0  0  0  0  0  0  0  0  0  0  0
    9.7320   -0.6270   23.7710 C   0  0  0  0  0  0  0  0  0  0  0  0
  1  2  2  0
  2  3  1  0
  3  4  1  0
  4  5  2  0
  5  6  1  0
  6  7  2  0
  7  8  1  0
  4  9  1  0
  8  9  2  0
  2 10  1  0
 10 11  1  0
 11 12  2  0
 12 13  1  0
 13 14  2  0
 14 15  1  0
 15 16  1  0
 16 17  1  0
 17 18  2  0
 18 19  1  0
 16 20  1  0
 19 20  2  0
 20 21  1  0
 21 22  1  0
 21 23  1  0
 21 24  1  0
 11 25  1  0
 15 25  2  0
M  END
