pyridine_urea_14441
     RDKit          3D

 18 19  0  0  0  0  0  0  0  0999 V2000
   12.0540   -0.6090   25.0370 C   0  0  0  0  0  0  0  0  0  0  0  0
   12.8220   -0.2430   23.8370 C   0  0  1  0  0  0  0  0  0  0  0  0
   12.3000   -0.5730   22.6330 C   0  0  0  0  0  0  0  0  0  0  0  0
   10.9440   -0.2490   22.5980 C   0  0  1  0  0  0  0  0  0  0  0  0
   10.0660   -1.2200   23.0670 C   0  0  0  0  0  0  0  0  0  0  0  0
    8.7690   -1.3730   22.4840 N   0  0  0  0  0  0  0  0  0  0  0  0
    8.3060   -0.4150   21.5990 C   0  0  0  0  0  0  0  0  0  0  0  0
    8.8760    0.6430   21.3800 O   0  0  0  0  0  0  0  0  0  0  0  0
    7.1190   -0.8120   21.0220 N   0  0  0  0  0  0  0  0  0  0  0  0
    6.4180   -0.0770   20.0570 C   0  0  0  0  0  0  0  0  0  0  0  0
    5.1360    0.7230   20.2760 C   0  0  0  0  0  0  0  0  0  0  0  0
    4.6060    1.3840   19.2050 C   0  0  0  0  0  0  0  0  0  0  0  0
    5.2160    1.3270   17.9680 C   0  0  0  0  0  0  0  0  0  0  0  0
    6.3460    0.6320   17.7230 N   0  0  0  0  0  0  0  0  0  0  0  0
    6.9100   -0.0450   18.7560 C   0  0  0  0  0  0  0  0  0  0  0  0
   10.5720    1.1690   23.1930 C   0  0  0  0  0  0  0  0  0  0  0  0
   11.8950    1.5660   23.1310 C   0  0  0  0  0  0  0  0  0  0  0  0
   12.8840    0.9640   23.8330 O   0  0  0  0  0  0  0  0  0  0  0  0
  2  1  1  1
  2  3  1  0
  3  4  1  0
  4  5  1  1
  5  6  1  0
  6  7  1  0
  7  8  2  0
  7  9  1  0
  9 10  1  0
 10 11  2  0
 11 12  1  0
 12 13  2  0
 13 14  1  0
 10 15  1  0
 14 15  2  0
  4 16  1  0
 16 17  1  0
  2 18  1  0
 17 18  1  0
M  END
