pyridine_urea_754
     RDKit          3D

 23 25  0  0  0  0  0  0  0  0999 V2000
    8.1790    0.4360   27.3260 C   0  0  0  0  0  0  0  0  0  0  0  0
    8.0370   -0.2740   26.3460 O   0  0  0  0  0  0  0  0  0  0  0  0
    9.1280   -0.3810   25.5330 C   0  0  0  0  0  0  0  0  0  0  0  0
    9.0070   -0.5290   24.2000 C   0  0  0  0  0  0  0  0  0  0  0  0
   10.1790   -0.6150   23.5230 C   0  0  0  0  0  0  0  0  0  0  0  0
   10.2060   -0.7790   22.1890 C   0  0  0  0  0  0  0  0  0  0  0  0
    9.0560   -1.3570   21.7180 N   0  0  0  0  0  0  0  0  0  0  0  0
    8.1630   -0.2910   21.2910 C   0  0  0  0  0  0  0  0  0  0  0  0
    8.5880    0.8660   21.1940 O   0  0  0  0  0  0  0  0  0  0  0  0
    6.8870   -0.6170   20.9860 N   0  0  0  0  0  0  0  0  0  0  0  0
    6.2360    0.0640   20.0190 C   0  0  0  0  0  0  0  0  0  0  0  0
    5.0440    0.7680   20.1420 C   0  0  0  0  0  0  0  0  0  0  0  0
    4.5190    1.4340   19.0450 C   0  0  0  0  0  0  0  0  0  0  0  0
    5.1620    1.4130   17.8290 C   0  0  0  0  0  0  0  0  0  0  0  0
    6.3080    0.7610   17.6070 N   0  0  0  0  0  0  0  0  0  0  0  0
    6.8260    0.0750   18.7670 C   0  0  0  0  0  0  0  0  0  0  0  0
   11.4410   -0.5520   24.1230 C   0  0  0  0  0  0  0  0  0  0  0  0
   12.7710   -0.6090   23.5660 C   0  0  0  0  0  0  0  0  0  0  0  0
   12.9180   -0.7430   22.2810 C   0  0  0  0  0  0  0  0  0  0  0  0
   11.6960   -0.6900   22.8400 C   0  0  0  0  0  0  0  0  0  0  0  0
   12.5210   -0.5590   24.1070 C   0  0  0  0  0  0  0  0  0  0  0  0
   11.7680   -0.4300   25.3200 C   0  0  0  0  0  0  0  0  0  0  0  0
   10.5370   -0.3500   26.0150 N   0  0  0  0  0  0  0  0  0  0  0  0
  1  2  1  0
  2  3  1  0
  3  4  2  0
  4  5  1  0
  5  6  1  0
  6  7  1  0
  7  8  1  0
  8  9  2  0
  8 10  1  0
 10 11  1  0
 11 12  2  0
 12 13  1  0
 13 14  2  0
 14 15  1  0
 11 16  1  0
 15 16  2  0
  5 17  2  0
 17 18  1  0
 18 19  2  0
 19 20  1  0
 20 21  2  0
 17 22  1  0
 21 22  1  0
  3 23  1  0
 22 23  2  0
M  END
