pyridine_urea_4975
     RDKit          3D

 21 21  0  0  0  0  0  0  0  0999 V2000
    9.9990    1.8760   22.8710 C   0  0  0  0  0  0  0  0  0  0  0  0
   10.6730    0.5490   23.0810 C   0  0  0  0  0  0  0  0  0  0  0  0
   12.0640    0.4910   22.9780 C   0  0  0  0  0  0  0  0  0  0  0  0
   10.0110   -0.5420   22.2260 C   0  0  2  0  0  0  0  0  0  0  0  0
    8.7020   -0.5420   22.3510 N   0  0  0  0  0  0  0  0  0  0  0  0
    8.1070    0.1150   21.3740 C   0  0  0  0  0  0  0  0  0  0  0  0
    8.5090    1.2150   20.9720 O   0  0  0  0  0  0  0  0  0  0  0  0
    7.0510   -0.5860   20.9420 N   0  0  0  0  0  0  0  0  0  0  0  0
    6.3810    0.0700   20.0020 C   0  0  0  0  0  0  0  0  0  0  0  0
    5.1890    0.7790   20.1910 C   0  0  0  0  0  0  0  0  0  0  0  0
    4.5150    1.5230   19.0280 C   0  0  0  0  0  0  0  0  0  0  0  0
    5.1480    1.4500   17.7990 C   0  0  0  0  0  0  0  0  0  0  0  0
    6.2920    0.7380   17.6870 N   0  0  0  0  0  0  0  0  0  0  0  0
    6.9030    0.0640   18.7290 C   0  0  0  0  0  0  0  0  0  0  0  0
   10.3590   -1.8870   22.7400 C   0  0  0  0  0  0  0  0  0  0  0  0
   10.0250   -2.9440   22.2390 O   0  0  0  0  0  0  0  0  0  0  0  0
   11.1260   -1.7240   23.9210 O   0  0  0  0  0  0  0  0  0  0  0  0
   12.4910   -2.0740   23.8020 C   0  0  0  0  0  0  0  0  0  0  0  0
   13.3520   -1.2770   24.4300 C   0  0  0  0  0  0  0  0  0  0  0  0
   12.6240   -3.0980   24.6490 C   0  0  0  0  0  0  0  0  0  0  0  0
   12.9370   -2.3890   22.3710 C   0  0  0  0  0  0  0  0  0  0  0  0
  1  2  1  0
  2  3  1  0
  2  4  1  0
  4  5  1  1
  5  6  1  0
  6  7  2  0
  6  8  1  0
  8  9  1  0
  9 10  2  0
 10 11  1  0
 11 12  2  0
 12 13  1  0
  9 14  1  0
 13 14  2  0
  4 15  1  0
 15 16  2  0
 15 17  1  0
 18 17  1  0
 18 19  1  0
 18 20  1  0
 18 21  1  0
M  END
