pyridine_urea_2947
     RDKit          3D

 22 23  0  0  0  0  0  0  0  0999 V2000
    8.9570    1.1820   21.1760 O   0  0  0  0  0  0  0  0  0  0  0  0
    8.5100    0.0590   21.4470 C   0  0  0  0  0  0  0  0  0  0  0  0
    9.2030   -0.8530   22.2070 N   0  0  0  0  0  0  0  0  0  0  0  0
    9.3300   -0.6240   23.6260 C   0  0  0  0  0  0  0  0  0  0  0  0
   10.4550    0.3940   24.0420 C   0  0  0  0  0  0  0  0  0  0  0  0
   11.7430    0.2580   23.4910 C   0  0  0  0  0  0  0  0  0  0  0  0
   12.6550    1.1770   22.9950 C   0  0  0  0  0  0  0  0  0  0  0  0
   13.3020    0.0300   22.8300 C   0  0  0  0  0  0  0  0  0  0  0  0
   11.7580   -0.1020   23.5060 C   0  0  0  0  0  0  0  0  0  0  0  0
   11.6720   -1.6400   23.7210 C   0  0  0  0  0  0  0  0  0  0  0  0
   12.6900   -0.8830   23.2050 C   0  0  0  0  0  0  0  0  0  0  0  0
   13.0240   -2.0560   23.1970 O   0  0  0  0  0  0  0  0  0  0  0  0
   12.6750   -2.6770   24.4310 C   0  0  0  0  0  0  0  0  0  0  0  0
   13.7720   -3.1520   25.0100 F   0  0  0  0  0  0  0  0  0  0  0  0
   12.2790   -1.7150   25.2600 F   0  0  0  0  0  0  0  0  0  0  0  0
    7.2970   -0.4480   21.0570 N   0  0  0  0  0  0  0  0  0  0  0  0
    6.5640    0.1280   20.0200 C   0  0  0  0  0  0  0  0  0  0  0  0
    5.2920    0.9040   20.3190 C   0  0  0  0  0  0  0  0  0  0  0  0
    4.6140    1.4750   19.2530 C   0  0  0  0  0  0  0  0  0  0  0  0
    5.1320    1.3090   17.9720 C   0  0  0  0  0  0  0  0  0  0  0  0
    6.2480    0.6180   17.6910 N   0  0  0  0  0  0  0  0  0  0  0  0
    6.9320    0.0480   18.7030 C   0  0  0  0  0  0  0  0  0  0  0  0
  1  2  2  0
  2  3  1  0
  3  4  1  0
  4  5  1  0
  5  6  1  0
  6  7  2  0
  7  8  1  0
  8  9  2  0
  9 10  1  0
  6 11  1  0
 10 11  2  0
 11 12  1  0
 12 13  1  0
 13 14  1  0
 13 15  1  0
  2 16  1  0
 16 17  1  0
 17 18  2  0
 18 19  1  0
 19 20  2  0
 20 21  1  0
 17 22  1  0
 21 22  2  0
M  END
