pyridine_urea_10673
     RDKit          3D

 21 23  0  0  0  0  0  0  0  0999 V2000
    8.6200    0.3080   21.1850 O   0  0  0  0  0  0  0  0  0  0  0  0
    8.0350   -0.7430   21.3930 C   0  0  0  0  0  0  0  0  0  0  0  0
    8.5290   -1.8710   22.0190 N   0  0  0  0  0  0  0  0  0  0  0  0
    9.8960   -2.0810   22.2050 C   0  0  0  0  0  0  0  0  0  0  0  0
   10.6380   -0.7800   22.4790 C   0  0  0  0  0  0  0  0  0  0  0  0
    9.9070    0.3580   22.6330 N   0  0  0  0  0  0  0  0  0  0  0  0
   10.7300    1.4250   22.7770 C   0  0  0  0  0  0  0  0  0  0  0  0
   10.3530    2.8760   22.9320 C   0  0  0  0  0  0  0  0  0  0  0  0
   11.3290    3.8560   23.0450 C   0  0  0  0  0  0  0  0  0  0  0  0
   10.8810    5.5190   23.2240 Cl  0  0  0  0  0  0  0  0  0  0  0  0
   12.6460    3.4180   23.0010 C   0  0  0  0  0  0  0  0  0  0  0  0
   12.9900    2.0660   22.8660 C   0  0  0  0  0  0  0  0  0  0  0  0
   12.0640    1.1030   22.7610 C   0  0  0  0  0  0  0  0  0  0  0  0
   12.4120   -0.5660   22.5840 S   0  0  0  0  0  0  0  0  0  0  0  0
    6.7430   -0.8940   20.9760 N   0  0  0  0  0  0  0  0  0  0  0  0
    6.2220   -0.1530   19.9740 C   0  0  0  0  0  0  0  0  0  0  0  0
    5.0350    0.5700   20.2070 C   0  0  0  0  0  0  0  0  0  0  0  0
    4.4210    1.3830   19.2060 C   0  0  0  0  0  0  0  0  0  0  0  0
    5.2230    1.3450   17.9060 C   0  0  0  0  0  0  0  0  0  0  0  0
    6.3470    0.6470   17.7170 N   0  0  0  0  0  0  0  0  0  0  0  0
    6.8020   -0.0690   18.7400 C   0  0  0  0  0  0  0  0  0  0  0  0
  1  2  2  0
  2  3  1  0
  3  4  1  0
  4  5  1  0
  5  6  2  0
  6  7  1  0
  7  8  2  0
  8  9  1  0
  9 10  1  0
  9 11  2  0
 11 12  1  0
  7 13  1  0
 12 13  2  0
  5 14  1  0
 13 14  1  0
  2 15  1  0
 15 16  1  0
 16 17  2  0
 17 18  1  0
 18 19  2  0
 19 20  1  0
 16 21  1  0
 20 21  2  0
M  END
