pyridine_urea_7827
     RDKit          3D

 26 27  0  0  0  0  0  0  0  0999 V2000
   12.4530    2.2990   22.7550 C   0  0  0  0  0  0  0  0  0  0  0  0
   12.1860    1.0980   22.6090 O   0  0  0  0  0  0  0  0  0  0  0  0
   10.8550    0.8300   22.7150 C   0  0  0  0  0  0  0  0  0  0  0  0
    9.9990    1.7110   22.7610 O   0  0  0  0  0  0  0  0  0  0  0  0
   10.5150   -0.5680   22.7760 C   0  0  1  0  0  0  0  0  0  0  0  0
    9.5070   -0.8120   23.6920 C   0  0  0  0  0  0  0  0  0  0  0  0
    9.7970   -0.9510   21.6760 N   0  0  0  0  0  0  0  0  0  0  0  0
    8.6850   -0.2000   21.3220 C   0  0  0  0  0  0  0  0  0  0  0  0
    8.7100    1.0240   21.2190 O   0  0  0  0  0  0  0  0  0  0  0  0
    7.4930   -0.8040   21.0380 N   0  0  0  0  0  0  0  0  0  0  0  0
    6.6720   -0.1210   20.1800 C   0  0  0  0  0  0  0  0  0  0  0  0
    5.5170    0.5870   20.5310 C   0  0  0  0  0  0  0  0  0  0  0  0
    4.7420    1.2930   19.4200 C   0  0  0  0  0  0  0  0  0  0  0  0
    5.2230    1.1990   18.1150 C   0  0  0  0  0  0  0  0  0  0  0  0
    6.3320    0.5040   17.8200 N   0  0  0  0  0  0  0  0  0  0  0  0
    7.0070   -0.1210   18.8230 C   0  0  0  0  0  0  0  0  0  0  0  0
   11.8350   -1.3160   22.9050 C   0  0  0  0  0  0  0  0  0  0  0  0
   11.5280   -1.5440   21.6170 C   0  0  0  0  0  0  0  0  0  0  0  0
   12.6360   -2.1300   21.8570 C   0  0  0  0  0  0  0  0  0  0  0  0
   12.3830   -1.5540   23.1350 C   0  0  0  0  0  0  0  0  0  0  0  0
   11.5190   -0.8050   23.7480 C   0  0  0  0  0  0  0  0  0  0  0  0
   11.0540   -1.3100   24.9030 F   0  0  0  0  0  0  0  0  0  0  0  0
   12.3830    0.2100   23.9780 F   0  0  0  0  0  0  0  0  0  0  0  0
   10.4910   -0.2980   23.0410 F   0  0  0  0  0  0  0  0  0  0  0  0
   13.4410   -1.9440   23.9610 C   0  0  0  0  0  0  0  0  0  0  0  0
   13.1110   -2.1800   22.6120 C   0  0  0  0  0  0  0  0  0  0  0  0
  1  2  1  0
  2  3  1  0
  3  4  2  0
  5  3  1  0
  5  6  1  1
  5  7  1  0
  7  8  1  0
  8  9  2  0
  8 10  1  0
 10 11  1  0
 11 12  2  0
 12 13  1  0
 13 14  2  0
 14 15  1  0
 11 16  1  0
 15 16  2  0
  5 17  1  0
 17 18  2  0
 18 19  1  0
 19 20  2  0
 20 21  1  0
 21 22  1  0
 21 23  1  0
 21 24  1  0
 20 25  1  0
 17 26  1  0
 25 26  2  0
M  END
