pyridine_urea_3983
     RDKit          3D

 27 29  0  0  0  0  0  0  0  0999 V2000
    6.3120    0.1060   24.4310 C   0  0  0  0  0  0  0  0  0  0  0  0
    7.5490   -0.4880   25.0590 C   0  0  0  0  0  0  0  0  0  0  0  0
    8.0230   -0.0640   26.3080 C   0  0  0  0  0  0  0  0  0  0  0  0
    8.7130   -0.2970   24.0570 C   0  0  1  0  0  0  0  0  0  0  0  0
    8.4820   -0.8390   22.7580 N   0  0  0  0  0  0  0  0  0  0  0  0
    8.0600   -0.1690   21.6100 C   0  0  0  0  0  0  0  0  0  0  0  0
    8.6040    0.8430   21.1850 O   0  0  0  0  0  0  0  0  0  0  0  0
    6.9880   -0.7810   21.0620 N   0  0  0  0  0  0  0  0  0  0  0  0
    6.4020   -0.0950   20.0550 C   0  0  0  0  0  0  0  0  0  0  0  0
    5.2260    0.6010   20.3190 C   0  0  0  0  0  0  0  0  0  0  0  0
    4.5800    1.3890   19.1660 C   0  0  0  0  0  0  0  0  0  0  0  0
    5.2160    1.3480   17.9480 C   0  0  0  0  0  0  0  0  0  0  0  0
    6.3510    0.6530   17.7450 N   0  0  0  0  0  0  0  0  0  0  0  0
    6.9040   -0.0360   18.7700 C   0  0  0  0  0  0  0  0  0  0  0  0
    8.7580    1.0900   24.2240 C   0  0  0  0  0  0  0  0  0  0  0  0
    7.8030    1.8820   24.7780 O   0  0  0  0  0  0  0  0  0  0  0  0
    9.8790    1.6900   23.7890 N   0  0  0  0  0  0  0  0  0  0  0  0
    9.8280    3.0440   23.7300 C   0  0  0  0  0  0  0  0  0  0  0  0
   10.5210    1.1440   22.7340 C   0  0  0  0  0  0  0  0  0  0  0  0
   10.9610   -0.2920   22.7170 C   0  0  0  0  0  0  0  0  0  0  0  0
   10.7160   -1.2170   21.6970 N   0  0  0  0  0  0  0  0  0  0  0  0
   11.2890   -2.3350   22.0900 N   0  0  0  0  0  0  0  0  0  0  0  0
   11.9000   -2.1580   23.3530 C   0  0  0  0  0  0  0  0  0  0  0  0
   11.6630   -0.8980   23.6890 N   0  0  0  0  0  0  0  0  0  0  0  0
   12.2270   -0.6300   24.9360 C   0  0  0  0  0  0  0  0  0  0  0  0
   13.1660   -1.6500   24.8680 C   0  0  0  0  0  0  0  0  0  0  0  0
   12.6970   -2.8750   24.4150 C   0  0  0  0  0  0  0  0  0  0  0  0
  1  2  1  0
  2  3  1  0
  2  4  1  0
  4  5  1  6
  5  6  1  0
  6  7  2  0
  6  8  1  0
  8  9  1  0
  9 10  2  0
 10 11  1  0
 11 12  2  0
 12 13  1  0
  9 14  1  0
 13 14  2  0
  4 15  1  0
 15 16  2  0
 15 17  1  0
 17 18  1  0
 17 19  1  0
 19 20  1  0
 20 21  2  0
 21 22  1  0
 22 23  2  0
 20 24  1  0
 23 24  1  0
 24 25  1  0
 25 26  1  0
 23 27  1  0
 26 27  1  0
M  END
