pyridine_urea_11886
     RDKit          3D

 24 26  0  0  0  0  0  0  0  0999 V2000
    9.3650   -2.6170   22.1340 C   0  0  0  0  0  0  0  0  0  0  0  0
   10.0500   -1.8520   22.7920 O   0  0  0  0  0  0  0  0  0  0  0  0
   10.5840   -0.8670   22.0550 C   0  0  0  0  0  0  0  0  0  0  0  0
   10.4070    0.3750   22.6830 C   0  0  2  0  0  0  0  0  0  0  0  0
    9.3840    0.3680   23.5900 C   0  0  0  0  0  0  0  0  0  0  0  0
    8.3310   -0.4360   22.9220 N   0  0  0  0  0  0  0  0  0  0  0  0
    7.9180   -0.1020   21.6530 C   0  0  0  0  0  0  0  0  0  0  0  0
    8.3730    0.8350   21.0220 O   0  0  0  0  0  0  0  0  0  0  0  0
    6.9360   -0.8320   21.0890 N   0  0  0  0  0  0  0  0  0  0  0  0
    6.2910   -0.1230   20.1240 C   0  0  0  0  0  0  0  0  0  0  0  0
    5.0980    0.5770   20.3080 C   0  0  0  0  0  0  0  0  0  0  0  0
    4.5220    1.3350   19.1180 C   0  0  0  0  0  0  0  0  0  0  0  0
    5.2170    1.2890   17.9150 C   0  0  0  0  0  0  0  0  0  0  0  0
    6.3640    0.6000   17.7690 N   0  0  0  0  0  0  0  0  0  0  0  0
    6.8480   -0.0660   18.8490 C   0  0  0  0  0  0  0  0  0  0  0  0
    9.7730    1.1630   21.6920 O   0  0  0  0  0  0  0  0  0  0  0  0
    9.4890    2.4370   22.1870 C   0  0  0  0  0  0  0  0  0  0  0  0
   10.6640    3.0410   22.6010 C   0  0  0  0  0  0  0  0  0  0  0  0
   11.8970    2.3910   22.9270 C   0  0  0  0  0  0  0  0  0  0  0  0
   12.8310    1.4530   23.2150 C   0  0  0  0  0  0  0  0  0  0  0  0
   11.7640    0.4170   23.0890 C   0  0  0  0  0  0  0  0  0  0  0  0
   12.2480   -0.8950   23.3310 C   0  0  0  0  0  0  0  0  0  0  0  0
   12.7390    0.2790   23.3200 C   0  0  0  0  0  0  0  0  0  0  0  0
   11.6080    1.0630   22.9580 C   0  0  0  0  0  0  0  0  0  0  0  0
  1  2  1  0
  2  3  1  0
  4  3  1  6
  4  5  1  0
  5  6  1  0
  6  7  1  0
  7  8  2  0
  7  9  1  0
  9 10  1  0
 10 11  2  0
 11 12  1  0
 12 13  2  0
 13 14  1  0
 10 15  1  0
 14 15  2  0
  4 16  1  0
 16 17  1  0
 17 18  1  0
 18 19  1  0
 19 20  2  0
 20 21  1  0
 21 22  2  0
 22 23  1  0
  4 24  1  0
 19 24  1  0
 23 24  2  0
M  END
