pyridine_urea_6564
     RDKit          3D

 22 23  0  0  0  0  0  0  0  0999 V2000
    8.7810    1.3410   21.1540 O   0  0  0  0  0  0  0  0  0  0  0  0
    8.4190    0.2090   21.5010 C   0  0  0  0  0  0  0  0  0  0  0  0
    9.0980   -0.5530   22.4130 N   0  0  0  0  0  0  0  0  0  0  0  0
   10.5050   -0.5680   22.4100 C   0  0  0  0  0  0  0  0  0  0  0  0
   11.4370   -0.4370   23.6430 C   0  0  2  0  0  0  0  0  0  0  0  0
   11.1650   -1.2870   24.5030 O   0  0  0  0  0  0  0  0  0  0  0  0
   11.4810    0.9990   24.0760 C   0  0  0  0  0  0  0  0  0  0  0  0
   12.5850    0.6620   23.2630 C   0  0  0  0  0  0  0  0  0  0  0  0
   12.5000   -0.6530   22.8430 C   0  0  0  0  0  0  0  0  0  0  0  0
   13.5190   -1.0550   22.0480 F   0  0  0  0  0  0  0  0  0  0  0  0
   11.4950   -1.7200   23.0900 C   0  0  0  0  0  0  0  0  0  0  0  0
   10.3990   -2.4200   23.5280 F   0  0  0  0  0  0  0  0  0  0  0  0
   10.4750   -1.0170   23.9870 C   0  0  0  0  0  0  0  0  0  0  0  0
    9.4410   -1.8520   24.3270 F   0  0  0  0  0  0  0  0  0  0  0  0
   10.4350    0.3230   24.4950 C   0  0  0  0  0  0  0  0  0  0  0  0
    7.3030   -0.4380   21.0270 N   0  0  0  0  0  0  0  0  0  0  0  0
    6.5070    0.1530   20.0460 C   0  0  0  0  0  0  0  0  0  0  0  0
    5.3050    0.8650   20.3040 C   0  0  0  0  0  0  0  0  0  0  0  0
    4.5070    1.4960   19.2840 C   0  0  0  0  0  0  0  0  0  0  0  0
    5.1380    1.2910   17.9130 C   0  0  0  0  0  0  0  0  0  0  0  0
    6.2760    0.5990   17.7120 N   0  0  0  0  0  0  0  0  0  0  0  0
    6.9530    0.0330   18.7590 C   0  0  0  0  0  0  0  0  0  0  0  0
  1  2  2  0
  2  3  1  0
  3  4  1  0
  4  5  1  0
  5  6  1  1
  5  7  1  0
  7  8  2  0
  8  9  1  0
  9 10  1  0
  9 11  2  0
 11 12  1  0
 11 13  1  0
 13 14  1  0
  7 15  1  0
 13 15  2  0
  2 16  1  0
 16 17  1  0
 17 18  2  0
 18 19  1  0
 19 20  2  0
 20 21  1  0
 17 22  1  0
 21 22  2  0
M  END
