pyridine_urea_3109
     RDKit          3D

 21 22  0  0  0  0  0  0  0  0999 V2000
    8.7440    1.4350   21.0420 O   0  0  0  0  0  0  0  0  0  0  0  0
    8.4530    0.3120   21.4550 C   0  0  0  0  0  0  0  0  0  0  0  0
    9.1990   -0.3320   22.3900 N   0  0  0  0  0  0  0  0  0  0  0  0
   10.3000    0.3310   22.9800 C   0  0  0  0  0  0  0  0  0  0  0  0
   11.2680   -0.4160   23.6680 C   0  0  2  0  0  0  0  0  0  0  0  0
   12.2210    0.3340   23.8550 O   0  0  0  0  0  0  0  0  0  0  0  0
   11.8110   -1.4030   22.9310 C   0  0  0  0  0  0  0  0  0  0  0  0
   12.5450   -0.3290   22.9360 C   0  0  0  0  0  0  0  0  0  0  0  0
   13.6940   -0.1740   22.2990 F   0  0  0  0  0  0  0  0  0  0  0  0
   11.8740    0.7660   23.8020 C   0  0  0  0  0  0  0  0  0  0  0  0
   10.5960    0.6870   24.5520 C   0  0  0  0  0  0  0  0  0  0  0  0
   10.0970   -0.8080   24.2330 C   0  0  0  0  0  0  0  0  0  0  0  0
   10.6580   -1.8290   23.4550 C   0  0  0  0  0  0  0  0  0  0  0  0
    9.8270   -3.3200   23.3210 Cl  0  0  0  0  0  0  0  0  0  0  0  0
    7.3520   -0.3940   21.0430 N   0  0  0  0  0  0  0  0  0  0  0  0
    6.5780    0.1460   20.0170 C   0  0  0  0  0  0  0  0  0  0  0  0
    5.4050    0.8350   20.3240 C   0  0  0  0  0  0  0  0  0  0  0  0
    4.6600    1.4000   19.2830 C   0  0  0  0  0  0  0  0  0  0  0  0
    5.1150    1.2520   17.9850 C   0  0  0  0  0  0  0  0  0  0  0  0
    6.2280    0.5830   17.6750 N   0  0  0  0  0  0  0  0  0  0  0  0
    6.9310    0.0470   18.6900 C   0  0  0  0  0  0  0  0  0  0  0  0
  1  2  2  0
  2  3  1  0
  3  4  1  0
  4  5  1  0
  5  6  1  6
  5  7  1  0
  7  8  2  0
  8  9  1  0
  8 10  1  0
 10 11  2  0
 11 12  1  0
  7 13  1  0
 12 13  2  0
 13 14  1  0
  2 15  1  0
 15 16  1  0
 16 17  2  0
 17 18  1  0
 18 19  2  0
 19 20  1  0
 16 21  1  0
 20 21  2  0
M  END
