pyridine_urea_5055
     RDKit          3D

 20 21  0  0  0  0  0  0  0  0999 V2000
   10.0340   -0.2890   25.2710 C   0  0  0  0  0  0  0  0  0  0  0  0
   10.4720    0.4110   24.0120 C   0  0  0  0  0  0  0  0  0  0  0  0
    9.9790    1.7010   23.7850 C   0  0  0  0  0  0  0  0  0  0  0  0
   10.0570   -0.4740   22.8010 C   0  0  0  0  0  0  0  0  0  0  0  0
    8.7400   -0.5500   22.6090 N   0  0  0  0  0  0  0  0  0  0  0  0
    8.2720    0.0930   21.5200 C   0  0  0  0  0  0  0  0  0  0  0  0
    8.7460    1.1710   21.1240 O   0  0  0  0  0  0  0  0  0  0  0  0
    7.2520   -0.6140   20.9890 N   0  0  0  0  0  0  0  0  0  0  0  0
    6.5300    0.0400   20.0610 C   0  0  0  0  0  0  0  0  0  0  0  0
    5.3580    0.7720   20.3000 C   0  0  0  0  0  0  0  0  0  0  0  0
    4.6140    1.4990   19.1610 C   0  0  0  0  0  0  0  0  0  0  0  0
    5.1670    1.3930   17.8950 C   0  0  0  0  0  0  0  0  0  0  0  0
    6.2980    0.6630   17.7350 N   0  0  0  0  0  0  0  0  0  0  0  0
    6.9670    0.0020   18.7550 C   0  0  0  0  0  0  0  0  0  0  0  0
   12.0120    0.4200   23.9510 C   0  0  0  0  0  0  0  0  0  0  0  0
   12.6240   -0.5520   24.6960 C   0  0  0  0  0  0  0  0  0  0  0  0
   12.4200   -1.8440   24.2540 C   0  0  0  0  0  0  0  0  0  0  0  0
   12.6450   -2.0570   22.9210 C   0  0  0  0  0  0  0  0  0  0  0  0
   12.6000   -0.9690   22.1060 C   0  0  0  0  0  0  0  0  0  0  0  0
   12.5850    0.3020   22.7070 C   0  0  0  0  0  0  0  0  0  0  0  0
  2  1  1  0
  2  3  1  0
  2  4  1  0
  4  5  1  0
  5  6  1  0
  6  7  2  0
  6  8  1  0
  8  9  1  0
  9 10  2  0
 10 11  1  0
 11 12  2  0
 12 13  1  0
  9 14  1  0
 13 14  2  0
  2 15  1  0
 15 16  1  0
 16 17  1  0
 17 18  1  0
 18 19  1  0
 15 20  1  0
 19 20  1  0
M  END
