pyridine_urea_8871
     RDKit          3D

 20 22  0  0  0  0  0  0  0  0999 V2000
    8.1970    1.9770   20.9910 O   0  0  0  0  0  0  0  0  0  0  0  0
    8.1530    0.8610   21.4640 C   0  0  0  0  0  0  0  0  0  0  0  0
    7.1230   -0.0000   21.2400 N   0  0  0  0  0  0  0  0  0  0  0  0
    6.5230    0.3470   20.0080 C   0  0  0  0  0  0  0  0  0  0  0  0
    5.2870    1.2350   20.1620 C   0  0  0  0  0  0  0  0  0  0  0  0
    4.6250    1.6840   19.0400 C   0  0  0  0  0  0  0  0  0  0  0  0
    5.1290    1.2980   17.8130 C   0  0  0  0  0  0  0  0  0  0  0  0
    6.2290    0.4900   17.7200 N   0  0  0  0  0  0  0  0  0  0  0  0
    6.9480   -0.0070   18.7950 C   0  0  0  0  0  0  0  0  0  0  0  0
    9.1100    0.3280   22.1820 N   0  0  0  0  0  0  0  0  0  0  0  0
   10.1470   -0.2640   22.6590 C   0  0  0  0  0  0  0  0  0  0  0  0
   10.6830   -1.1200   21.7650 C   0  0  0  0  0  0  0  0  0  0  0  0
   11.7610   -1.8650   22.0100 C   0  0  0  0  0  0  0  0  0  0  0  0
   12.3180   -1.7580   23.2190 C   0  0  0  0  0  0  0  0  0  0  0  0
   13.3880   -2.5550   23.4950 C   0  0  0  0  0  0  0  0  0  0  0  0
   13.8820   -2.3830   24.8290 C   0  0  0  0  0  0  0  0  0  0  0  0
   13.3570   -1.5280   25.6450 C   0  0  0  0  0  0  0  0  0  0  0  0
   12.3180   -0.7300   25.3830 N   0  0  0  0  0  0  0  0  0  0  0  0
   11.8260   -0.8860   24.1830 C   0  0  0  0  0  0  0  0  0  0  0  0
   10.7590   -0.1270   23.9470 C   0  0  0  0  0  0  0  0  0  0  0  0
  1  2  2  0
  2  3  1  0
  3  4  1  0
  4  5  2  0
  5  6  1  0
  6  7  2  0
  7  8  1  0
  4  9  1  0
  8  9  2  0
  2 10  1  0
 10 11  1  0
 11 12  2  0
 12 13  1  0
 13 14  2  0
 14 15  1  0
 15 16  2  0
 16 17  1  0
 17 18  2  0
 14 19  1  0
 18 19  1  0
 11 20  1  0
 19 20  2  0
M  END
