pyridine_urea_6235
     RDKit          3D

 24 26  0  0  0  0  0  0  0  0999 V2000
    8.6160    0.8370   21.2230 O   0  0  0  0  0  0  0  0  0  0  0  0
    8.3330   -0.3190   21.5090 C   0  0  0  0  0  0  0  0  0  0  0  0
    7.1350   -0.8720   21.1230 N   0  0  0  0  0  0  0  0  0  0  0  0
    6.4810   -0.1550   20.0420 C   0  0  0  0  0  0  0  0  0  0  0  0
    5.1900    0.5850   20.3820 C   0  0  0  0  0  0  0  0  0  0  0  0
    4.5740    1.3190   19.2350 C   0  0  0  0  0  0  0  0  0  0  0  0
    5.2010    1.2710   18.0020 C   0  0  0  0  0  0  0  0  0  0  0  0
    6.3400    0.5970   17.7580 N   0  0  0  0  0  0  0  0  0  0  0  0
    6.9440   -0.0890   18.7530 C   0  0  0  0  0  0  0  0  0  0  0  0
    9.1870   -1.1320   22.2280 N   0  0  0  0  0  0  0  0  0  0  0  0
   10.5020   -0.5020   22.4660 C   0  0  0  0  0  0  0  0  0  0  0  0
   11.6850   -1.1690   22.3770 C   0  0  0  0  0  0  0  0  0  0  0  0
   12.8170   -0.1830   22.6630 C   0  0  0  0  0  0  0  0  0  0  0  0
   12.7310    1.1770   22.9670 C   0  0  0  0  0  0  0  0  0  0  0  0
   11.5060    1.7830   23.0460 C   0  0  0  0  0  0  0  0  0  0  0  0
   11.4110    3.2500   23.3920 N   0  0  0  0  0  0  0  0  0  0  0  0
   12.0690    4.2790   22.7070 C   0  0  0  0  0  0  0  0  0  0  0  0
   13.2090    4.0510   21.8810 O   0  0  0  0  0  0  0  0  0  0  0  0
   11.5350    5.5030   22.9600 N   0  0  0  0  0  0  0  0  0  0  0  0
   12.2290    6.2680   23.8420 C   0  0  0  0  0  0  0  0  0  0  0  0
   11.2810    7.0430   24.6420 C   0  0  0  0  0  0  0  0  0  0  0  0
    9.9800    6.7360   24.0010 C   0  0  0  0  0  0  0  0  0  0  0  0
   10.2330    5.9420   22.8500 C   0  0  0  0  0  0  0  0  0  0  0  0
   10.4320    0.9800   22.8090 C   0  0  0  0  0  0  0  0  0  0  0  0
  1  2  2  0
  2  3  1  0
  3  4  1  0
  4  5  2  0
  5  6  1  0
  6  7  2  0
  7  8  1  0
  4  9  1  0
  8  9  2  0
  2 10  1  0
 10 11  1  0
 11 12  2  0
 12 13  1  0
 13 14  2  0
 14 15  1  0
 15 16  1  0
 16 17  1  0
 17 18  2  0
 17 19  1  0
 19 20  1  0
 20 21  1  0
 21 22  1  0
 19 23  1  0
 22 23  1  0
 11 24  1  0
 15 24  2  0
M  END
