pyridine_urea_892
     RDKit          3D

 22 23  0  0  0  0  0  0  0  0999 V2000
   12.6070    3.9930   22.1140 C   0  0  0  0  0  0  0  0  0  0  0  0
   12.5040    2.5430   22.2440 N   0  0  0  0  0  0  0  0  0  0  0  0
   13.8530    1.5550   22.0800 S   0  0  0  0  0  0  0  0  0  0  0  0
   14.9360    2.4610   22.0800 O   0  0  0  0  0  0  0  0  0  0  0  0
   13.8410    0.5210   21.1300 O   0  0  0  0  0  0  0  0  0  0  0  0
   13.5670    0.6120   23.3910 N   0  0  0  0  0  0  0  0  0  0  0  0
   12.4200    0.0270   23.1460 C   0  0  0  0  0  0  0  0  0  0  0  0
   11.3140    0.5470   23.7470 C   0  0  0  0  0  0  0  0  0  0  0  0
   10.0830    0.0620   23.5240 C   0  0  0  0  0  0  0  0  0  0  0  0
    9.8740   -0.9920   22.6720 C   0  0  0  0  0  0  0  0  0  0  0  0
    8.5840   -1.2950   22.5210 N   0  0  0  0  0  0  0  0  0  0  0  0
    7.9750   -0.4160   21.6250 C   0  0  0  0  0  0  0  0  0  0  0  0
    8.5430    0.7870   21.2770 O   0  0  0  0  0  0  0  0  0  0  0  0
    6.7890   -0.8160   21.1090 N   0  0  0  0  0  0  0  0  0  0  0  0
    6.2500   -0.1060   20.0000 C   0  0  0  0  0  0  0  0  0  0  0  0
    4.9530    0.6550   20.1930 C   0  0  0  0  0  0  0  0  0  0  0  0
    4.4650    1.3540   19.1010 C   0  0  0  0  0  0  0  0  0  0  0  0
    5.1740    1.3320   17.8930 C   0  0  0  0  0  0  0  0  0  0  0  0
    6.3290    0.6590   17.6920 N   0  0  0  0  0  0  0  0  0  0  0  0
    6.8680   -0.0750   18.7780 C   0  0  0  0  0  0  0  0  0  0  0  0
   11.0210   -1.6750   21.9710 C   0  0  0  0  0  0  0  0  0  0  0  0
   12.2730   -1.1810   22.1980 C   0  0  0  0  0  0  0  0  0  0  0  0
  1  2  1  0
  3  2  1  0
  3  4  2  0
  3  5  2  0
  3  6  1  0
  6  7  1  0
  7  8  2  0
  8  9  1  0
  9 10  2  0
 10 11  1  0
 11 12  1  0
 12 13  2  0
 12 14  1  0
 14 15  1  0
 15 16  2  0
 16 17  1  0
 17 18  2  0
 18 19  1  0
 15 20  1  0
 19 20  2  0
 10 21  1  0
  7 22  1  0
 21 22  2  0
M  END
