pyridine_urea_1543
     RDKit          3D

 20 21  0  0  0  0  0  0  0  0999 V2000
    8.8630    0.9430   21.3650 O   0  0  0  0  0  0  0  0  0  0  0  0
    8.5530   -0.2370   21.4210 C   0  0  0  0  0  0  0  0  0  0  0  0
    9.3670   -1.2460   21.8780 N   0  0  0  0  0  0  0  0  0  0  0  0
   10.3240   -1.1250   22.9160 C   0  0  0  0  0  0  0  0  0  0  0  0
   11.6970   -1.2570   22.6230 C   0  0  0  0  0  0  0  0  0  0  0  0
   12.6370   -0.3400   23.1650 C   0  0  0  0  0  0  0  0  0  0  0  0
   12.4620    1.0250   22.9570 C   0  0  0  0  0  0  0  0  0  0  0  0
   11.3440    1.0020   23.7190 C   0  0  0  0  0  0  0  0  0  0  0  0
   10.7500   -0.0200   24.3780 C   0  0  0  0  0  0  0  0  0  0  0  0
   10.0200    1.3250   24.5030 C   0  0  0  0  0  0  0  0  0  0  0  0
   10.6240    2.4190   23.8250 C   0  0  0  0  0  0  0  0  0  0  0  0
   11.8320    2.3000   23.0660 C   0  0  0  0  0  0  0  0  0  0  0  0
   12.4140    3.7580   22.3340 Cl  0  0  0  0  0  0  0  0  0  0  0  0
    7.3210   -0.7070   21.0030 N   0  0  0  0  0  0  0  0  0  0  0  0
    6.5130   -0.0230   20.0730 C   0  0  0  0  0  0  0  0  0  0  0  0
    5.3350    0.6640   20.3830 C   0  0  0  0  0  0  0  0  0  0  0  0
    4.5930    1.3340   19.4070 C   0  0  0  0  0  0  0  0  0  0  0  0
    5.1910    1.2340   18.0300 C   0  0  0  0  0  0  0  0  0  0  0  0
    6.3110    0.5720   17.7480 N   0  0  0  0  0  0  0  0  0  0  0  0
    6.9380   -0.0360   18.7600 C   0  0  0  0  0  0  0  0  0  0  0  0
  1  2  2  0
  2  3  1  0
  3  4  1  0
  4  5  1  0
  5  6  1  0
  6  7  1  0
  7  8  2  0
  8  9  1  0
  9 10  2  0
 10 11  1  0
  7 12  1  0
 11 12  2  0
 12 13  1  0
  2 14  1  0
 14 15  1  0
 15 16  2  0
 16 17  1  0
 17 18  2  0
 18 19  1  0
 15 20  1  0
 19 20  2  0
M  END
