pyridine_urea_10483
     RDKit          3D

 22 23  0  0  0  0  0  0  0  0999 V2000
    7.6690    1.0370   30.2710 C   0  0  0  0  0  0  0  0  0  0  0  0
    7.7580    0.3390   28.8980 C   0  0  0  0  0  0  0  0  0  0  0  0
    7.9120   -1.1830   28.9860 C   0  0  0  0  0  0  0  0  0  0  0  0
    8.0120   -1.9760   27.6860 C   0  0  0  0  0  0  0  0  0  0  0  0
    7.9630   -1.2650   26.3690 C   0  0  0  0  0  0  0  0  0  0  0  0
    8.1000   -2.2150   24.8040 S   0  0  0  0  0  0  0  0  0  0  0  0
    6.8190   -2.1860   24.1430 O   0  0  0  0  0  0  0  0  0  0  0  0
    8.8020   -3.4540   25.0660 O   0  0  0  0  0  0  0  0  0  0  0  0
    9.1900   -1.1130   23.9230 C   0  0  0  0  0  0  0  0  0  0  0  0
    9.9220   -1.6400   22.8540 C   0  0  0  0  0  0  0  0  0  0  0  0
    9.3110   -1.2990   21.5910 N   0  0  0  0  0  0  0  0  0  0  0  0
    8.5430   -0.1760   21.4760 C   0  0  0  0  0  0  0  0  0  0  0  0
    9.0670    0.9260   21.5630 O   0  0  0  0  0  0  0  0  0  0  0  0
    7.2220   -0.4580   21.2300 N   0  0  0  0  0  0  0  0  0  0  0  0
    6.5300    0.1280   20.1730 C   0  0  0  0  0  0  0  0  0  0  0  0
    5.3710    0.8880   20.3370 C   0  0  0  0  0  0  0  0  0  0  0  0
    4.6980    1.4840   19.2750 C   0  0  0  0  0  0  0  0  0  0  0  0
    5.1600    1.3450   17.9700 C   0  0  0  0  0  0  0  0  0  0  0  0
    6.2450    0.6420   17.6620 N   0  0  0  0  0  0  0  0  0  0  0  0
    6.9050    0.0580   18.6930 C   0  0  0  0  0  0  0  0  0  0  0  0
    7.8180    0.1330   26.3160 C   0  0  0  0  0  0  0  0  0  0  0  0
    7.7170    0.9400   27.4590 C   0  0  0  0  0  0  0  0  0  0  0  0
  1  2  1  0
  2  3  2  0
  3  4  1  0
  4  5  2  0
  5  6  1  0
  6  7  2  0
  6  8  2  0
  6  9  1  0
  9 10  1  0
 10 11  1  0
 11 12  1  0
 12 13  2  0
 12 14  1  0
 14 15  1  0
 15 16  2  0
 16 17  1  0
 17 18  2  0
 18 19  1  0
 15 20  1  0
 19 20  2  0
  5 21  1  0
  2 22  1  0
 21 22  2  0
M  END
