pyridine_urea_12901
     RDKit          3D

 19 19  0  0  0  0  0  0  0  0999 V2000
   12.1540    2.7990   22.7930 C   0  0  0  0  0  0  0  0  0  0  0  0
   12.3900    1.3110   23.1740 C   0  0  0  0  0  0  0  0  0  0  0  0
   11.4590    0.7110   24.2320 C   0  0  0  0  0  0  0  0  0  0  0  0
   10.4530   -0.1490   23.8650 C   0  0  0  0  0  0  0  0  0  0  0  0
   10.5270   -0.7230   22.6260 C   0  0  2  0  0  0  0  0  0  0  0  0
    9.1710   -1.0490   22.2080 N   0  0  0  0  0  0  0  0  0  0  0  0
    8.4890   -0.0990   21.4620 C   0  0  0  0  0  0  0  0  0  0  0  0
    9.0030    1.1600   21.2020 O   0  0  0  0  0  0  0  0  0  0  0  0
    7.2690   -0.5730   21.0320 N   0  0  0  0  0  0  0  0  0  0  0  0
    6.4990    0.0750   20.0580 C   0  0  0  0  0  0  0  0  0  0  0  0
    5.3080    0.7930   20.2920 C   0  0  0  0  0  0  0  0  0  0  0  0
    4.6370    1.4180   19.2340 C   0  0  0  0  0  0  0  0  0  0  0  0
    5.1560    1.3270   17.9510 C   0  0  0  0  0  0  0  0  0  0  0  0
    6.3000    0.6280   17.7200 N   0  0  0  0  0  0  0  0  0  0  0  0
    6.9610    0.0070   18.7630 C   0  0  0  0  0  0  0  0  0  0  0  0
   11.5390   -1.6890   22.5700 C   0  0  0  0  0  0  0  0  0  0  0  0
   12.2110   -1.8820   21.5600 O   0  0  0  0  0  0  0  0  0  0  0  0
   11.7150   -2.4230   23.7890 O   0  0  0  0  0  0  0  0  0  0  0  0
   13.0800   -2.4840   24.2170 C   0  0  0  0  0  0  0  0  0  0  0  0
  1  2  2  3
  2  3  1  0
  3  4  1  0
  5  4  1  1
  5  6  1  0
  6  7  1  0
  7  8  2  0
  7  9  1  0
  9 10  1  0
 10 11  2  0
 11 12  1  0
 12 13  2  0
 13 14  1  0
 10 15  1  0
 14 15  2  0
  5 16  1  0
 16 17  2  0
 16 18  1  0
 18 19  1  0
M  END
