pyridine_urea_5244
     RDKit          3D

 19 21  0  0  0  0  0  0  0  0999 V2000
    8.9430    1.1050   21.2350 O   0  0  0  0  0  0  0  0  0  0  0  0
    8.4930   -0.0060   21.5470 C   0  0  0  0  0  0  0  0  0  0  0  0
    9.0080   -0.8920   22.4730 N   0  0  0  0  0  0  0  0  0  0  0  0
   10.0090   -0.6660   23.4470 C   0  0  0  0  0  0  0  0  0  0  0  0
   10.7560    0.5060   23.3590 C   0  0  0  0  0  0  0  0  0  0  0  0
   12.1310    0.6620   23.5550 C   0  0  0  0  0  0  0  0  0  0  0  0
   12.3390    2.0480   23.3220 N   0  0  0  0  0  0  0  0  0  0  0  0
   11.0720    2.4200   23.0540 C   0  0  0  0  0  0  0  0  0  0  0  0
   10.7250    3.8740   22.7250 C   0  0  0  0  0  0  0  0  0  0  0  0
   11.2710    4.8430   23.4310 C   0  0  0  0  0  0  0  0  0  0  0  0
   12.0970    4.7370   22.2880 C   0  0  0  0  0  0  0  0  0  0  0  0
   10.1530    1.5820   23.0630 O   0  0  0  0  0  0  0  0  0  0  0  0
    7.3360   -0.5210   20.9880 N   0  0  0  0  0  0  0  0  0  0  0  0
    6.5620    0.1040   20.0740 C   0  0  0  0  0  0  0  0  0  0  0  0
    5.4110    0.8210   20.3410 C   0  0  0  0  0  0  0  0  0  0  0  0
    4.6950    1.4390   19.3150 C   0  0  0  0  0  0  0  0  0  0  0  0
    5.1790    1.3110   18.0100 C   0  0  0  0  0  0  0  0  0  0  0  0
    6.2860    0.6150   17.7190 N   0  0  0  0  0  0  0  0  0  0  0  0
    6.9400    0.0350   18.7470 C   0  0  0  0  0  0  0  0  0  0  0  0
  1  2  2  0
  2  3  1  0
  3  4  1  0
  4  5  1  0
  5  6  2  0
  6  7  1  0
  7  8  2  0
  8  9  1  0
  9 10  1  0
  9 11  1  0
 10 11  1  0
  5 12  1  0
  8 12  1  0
  2 13  1  0
 13 14  1  0
 14 15  2  0
 15 16  1  0
 16 17  2  0
 17 18  1  0
 14 19  1  0
 18 19  2  0
M  END
