pyridine_urea_7295
     RDKit          3D

 18 19  0  0  0  0  0  0  0  0999 V2000
    9.6650    1.0870   24.6470 C   0  0  0  0  0  0  0  0  0  0  0  0
   10.4080   -0.0790   24.0270 C   0  0  1  0  0  0  0  0  0  0  0  0
   10.9560   -0.7910   25.1370 O   0  0  0  0  0  0  0  0  0  0  0  0
    9.5000   -0.9200   23.3930 C   0  0  0  0  0  0  0  0  0  0  0  0
    8.4120   -0.3540   22.8860 N   0  0  0  0  0  0  0  0  0  0  0  0
    8.2070    0.1130   21.6170 C   0  0  0  0  0  0  0  0  0  0  0  0
    8.8100    1.0950   21.1480 O   0  0  0  0  0  0  0  0  0  0  0  0
    7.1820   -0.7190   20.9840 N   0  0  0  0  0  0  0  0  0  0  0  0
    6.4860   -0.0020   19.9930 C   0  0  0  0  0  0  0  0  0  0  0  0
    5.3260    0.6910   20.3390 C   0  0  0  0  0  0  0  0  0  0  0  0
    4.6370    1.4060   19.3580 C   0  0  0  0  0  0  0  0  0  0  0  0
    5.2130    1.3780   17.9520 C   0  0  0  0  0  0  0  0  0  0  0  0
    6.3320    0.6890   17.6720 N   0  0  0  0  0  0  0  0  0  0  0  0
    6.9310    0.0240   18.6850 C   0  0  0  0  0  0  0  0  0  0  0  0
   11.4800    0.0580   22.9780 C   0  0  0  0  0  0  0  0  0  0  0  0
   12.6920    0.3900   23.4750 C   0  0  0  0  0  0  0  0  0  0  0  0
   13.2050   -0.7190   22.9040 C   0  0  0  0  0  0  0  0  0  0  0  0
   12.0360   -1.2870   22.3860 C   0  0  0  0  0  0  0  0  0  0  0  0
  2  1  1  1
  2  3  1  0
  2  4  1  0
  4  5  1  0
  5  6  1  0
  6  7  2  0
  6  8  1  0
  8  9  1  0
  9 10  2  0
 10 11  1  0
 11 12  2  0
 12 13  1  0
  9 14  1  0
 13 14  2  0
  2 15  1  0
 15 16  1  0
 16 17  1  0
 15 18  1  0
 17 18  1  0
M  END
