pyridine_urea_10236
     RDKit          3D

 23 25  0  0  0  0  0  0  0  0999 V2000
    9.4270   -0.8910   21.4850 O   0  0  0  0  0  0  0  0  0  0  0  0
    8.4820   -0.1460   21.4470 C   0  0  0  0  0  0  0  0  0  0  0  0
    8.5950    1.1980   21.7630 N   0  0  0  0  0  0  0  0  0  0  0  0
    7.5880    2.0880   22.2420 C   0  0  0  0  0  0  0  0  0  0  0  0
    7.0900    1.8650   23.5080 C   0  0  0  0  0  0  0  0  0  0  0  0
    7.5740    0.8180   24.1730 N   0  0  0  0  0  0  0  0  0  0  0  0
    6.9390    0.7880   25.4040 C   0  0  0  0  0  0  0  0  0  0  0  0
    7.3310   -0.2380   26.2170 C   0  0  0  0  0  0  0  0  0  0  0  0
    8.3960   -0.8130   25.5110 C   0  0  0  0  0  0  0  0  0  0  0  0
    8.2590   -1.9740   24.5090 C   0  0  0  0  0  0  0  0  0  0  0  0
    9.3230   -2.5300   23.8110 C   0  0  0  0  0  0  0  0  0  0  0  0
   10.6060   -1.9980   24.0330 C   0  0  0  0  0  0  0  0  0  0  0  0
   10.7910   -0.9310   24.9380 C   0  0  0  0  0  0  0  0  0  0  0  0
    9.7130   -0.3610   25.6510 C   0  0  0  0  0  0  0  0  0  0  0  0
    6.0120    1.8940   25.4800 N   0  0  0  0  0  0  0  0  0  0  0  0
    6.2130    2.5140   24.1750 O   0  0  0  0  0  0  0  0  0  0  0  0
    7.1970   -0.4800   21.0690 N   0  0  0  0  0  0  0  0  0  0  0  0
    6.5680    0.0850   20.0240 C   0  0  0  0  0  0  0  0  0  0  0  0
    5.4410    0.8280   20.3600 C   0  0  0  0  0  0  0  0  0  0  0  0
    4.7160    1.4840   19.3540 C   0  0  0  0  0  0  0  0  0  0  0  0
    5.0970    1.4100   18.0070 C   0  0  0  0  0  0  0  0  0  0  0  0
    6.2770    0.6120   17.6440 N   0  0  0  0  0  0  0  0  0  0  0  0
    6.9640   -0.0260   18.7320 C   0  0  0  0  0  0  0  0  0  0  0  0
  1  2  2  0
  2  3  1  0
  3  4  1  0
  4  5  1  0
  5  6  2  0
  6  7  1  0
  7  8  1  0
  8  9  1  0
  9 10  2  0
 10 11  1  0
 11 12  2  0
 12 13  1  0
  9 14  1  0
 13 14  2  0
  7 15  2  0
  5 16  1  0
 15 16  1  0
  2 17  1  0
 17 18  1  0
 18 19  2  0
 19 20  1  0
 20 21  2  0
 21 22  1  0
 18 23  1  0
 22 23  2  0
M  END
