pyridine_urea_571
     RDKit          3D

 24 27  0  0  0  0  0  0  0  0999 V2000
    8.9190    0.7390   21.3860 O   0  0  0  0  0  0  0  0  0  0  0  0
    8.5800   -0.4090   21.1370 C   0  0  0  0  0  0  0  0  0  0  0  0
    7.2670   -0.7750   20.8920 N   0  0  0  0  0  0  0  0  0  0  0  0
    6.4620   -0.0550   19.9970 C   0  0  0  0  0  0  0  0  0  0  0  0
    5.2660    0.6030   20.2810 C   0  0  0  0  0  0  0  0  0  0  0  0
    4.5970    1.2910   19.2640 C   0  0  0  0  0  0  0  0  0  0  0  0
    5.1560    1.2920   17.9990 C   0  0  0  0  0  0  0  0  0  0  0  0
    6.3000    0.6600   17.7040 N   0  0  0  0  0  0  0  0  0  0  0  0
    6.9130    0.0110   18.7000 C   0  0  0  0  0  0  0  0  0  0  0  0
    9.4700   -1.4740   21.0270 N   0  0  0  0  0  0  0  0  0  0  0  0
   10.2220   -1.9940   22.0500 C   0  0  1  0  0  0  0  0  0  0  0  0
   11.6090   -1.7190   22.0890 C   0  0  0  0  0  0  0  0  0  0  0  0
   12.1450   -0.5910   22.7790 C   0  0  0  0  0  0  0  0  0  0  0  0
   11.2360    0.2620   23.4500 C   0  0  0  0  0  0  0  0  0  0  0  0
    9.9710   -0.3900   23.6290 C   0  0  0  0  0  0  0  0  0  0  0  0
    9.4840   -1.4710   22.9850 C   0  0  0  0  0  0  0  0  0  0  0  0
    8.2370   -1.8090   23.4350 C   0  0  0  0  0  0  0  0  0  0  0  0
    7.7170   -1.0370   24.3930 N   0  0  0  0  0  0  0  0  0  0  0  0
    8.7920   -0.1620   24.5030 N   0  0  0  0  0  0  0  0  0  0  0  0
    8.7270    0.7880   25.3880 C   0  0  0  0  0  0  0  0  0  0  0  0
    9.7900    0.1140   25.8570 C   0  0  0  0  0  0  0  0  0  0  0  0
   10.6580    0.3480   24.8050 C   0  0  0  0  0  0  0  0  0  0  0  0
   10.2830    1.6030   24.2370 C   0  0  0  0  0  0  0  0  0  0  0  0
    8.9920    1.9670   24.6780 C   0  0  0  0  0  0  0  0  0  0  0  0
  1  2  2  0
  2  3  1  0
  3  4  1  0
  4  5  2  0
  5  6  1  0
  6  7  2  0
  7  8  1  0
  4  9  1  0
  8  9  2  0
  2 10  1  0
 11 10  1  6
 11 12  1  0
 12 13  1  0
 13 14  1  0
 14 15  1  0
 11 16  1  0
 15 16  2  0
 16 17  1  0
 17 18  2  0
 15 19  1  0
 18 19  1  0
 19 20  1  0
 20 21  1  0
 21 22  1  0
 22 23  1  0
 20 24  1  0
 23 24  1  0
M  END
