pyridine_urea_369
     RDKit          3D

 26 29  0  0  0  0  0  0  0  0999 V2000
    8.6740    0.4860   21.0820 O   0  0  0  0  0  0  0  0  0  0  0  0
    8.3930   -0.6210   21.5080 C   0  0  0  0  0  0  0  0  0  0  0  0
    7.1920   -1.1700   21.1290 N   0  0  0  0  0  0  0  0  0  0  0  0
    6.5250   -0.3790   20.0880 C   0  0  0  0  0  0  0  0  0  0  0  0
    5.2390    0.3560   20.4670 C   0  0  0  0  0  0  0  0  0  0  0  0
    4.6160    1.1580   19.3670 C   0  0  0  0  0  0  0  0  0  0  0  0
    5.2300    1.1780   18.1240 C   0  0  0  0  0  0  0  0  0  0  0  0
    6.3660    0.5120   17.8380 N   0  0  0  0  0  0  0  0  0  0  0  0
    6.9740   -0.2340   18.7900 C   0  0  0  0  0  0  0  0  0  0  0  0
    9.2700   -1.2840   22.3780 N   0  0  0  0  0  0  0  0  0  0  0  0
   10.3280   -0.2800   22.6080 C   0  0  0  0  0  0  0  0  0  0  0  0
   11.6860   -0.4460   22.4820 C   0  0  0  0  0  0  0  0  0  0  0  0
   12.3780    0.9180   22.7310 C   0  0  0  0  0  0  0  0  0  0  0  0
   11.7560    2.1570   23.0460 C   0  0  0  0  0  0  0  0  0  0  0  0
   12.3070    3.3950   23.2440 N   0  0  0  0  0  0  0  0  0  0  0  0
   11.5190    4.5020   23.1790 C   0  0  0  0  0  0  0  0  0  0  0  0
   11.8050    5.3270   22.0940 C   0  0  0  0  0  0  0  0  0  0  0  0
   13.0700    6.1250   22.2440 C   0  0  0  0  0  0  0  0  0  0  0  0
   13.1890    4.7650   21.6550 C   0  0  0  0  0  0  0  0  0  0  0  0
   13.5410    3.8530   22.7600 C   0  0  0  0  0  0  0  0  0  0  0  0
   10.4060    2.1920   23.1890 C   0  0  0  0  0  0  0  0  0  0  0  0
    9.7970    3.3730   23.5250 N   0  0  0  0  0  0  0  0  0  0  0  0
    8.4520    3.4160   23.6680 C   0  0  0  0  0  0  0  0  0  0  0  0
    7.6850    2.3010   23.4790 C   0  0  0  0  0  0  0  0  0  0  0  0
    8.3090    1.1310   23.1410 C   0  0  0  0  0  0  0  0  0  0  0  0
    9.7010    1.0500   22.9890 C   0  0  0  0  0  0  0  0  0  0  0  0
  1  2  2  0
  2  3  1  0
  3  4  1  0
  4  5  2  0
  5  6  1  0
  6  7  2  0
  7  8  1  0
  4  9  1  0
  8  9  2  0
  2 10  1  0
 10 11  1  0
 11 12  2  0
 12 13  1  0
 13 14  2  0
 14 15  1  0
 15 16  1  0
 16 17  1  0
 17 18  1  0
 18 19  1  0
 15 20  1  0
 19 20  1  0
 14 21  1  0
 21 22  1  0
 22 23  2  0
 23 24  1  0
 24 25  2  0
 11 26  1  0
 21 26  2  0
 25 26  1  0
M  END
