pyridine_urea_15230
     RDKit          3D

 17 18  0  0  0  0  0  0  0  0999 V2000
    8.4120    0.9000   20.9830 O   0  0  0  0  0  0  0  0  0  0  0  0
    8.1810   -0.2220   21.4000 C   0  0  0  0  0  0  0  0  0  0  0  0
    7.0410   -0.8860   21.0370 N   0  0  0  0  0  0  0  0  0  0  0  0
    6.3860   -0.1490   19.9990 C   0  0  0  0  0  0  0  0  0  0  0  0
    5.0910    0.5780   20.3380 C   0  0  0  0  0  0  0  0  0  0  0  0
    4.4250    1.3840   19.2240 C   0  0  0  0  0  0  0  0  0  0  0  0
    5.1480    1.3660   17.8770 C   0  0  0  0  0  0  0  0  0  0  0  0
    6.3310    0.6350   17.7320 N   0  0  0  0  0  0  0  0  0  0  0  0
    6.9150   -0.0800   18.7330 C   0  0  0  0  0  0  0  0  0  0  0  0
    9.0220   -0.8910   22.2440 N   0  0  0  0  0  0  0  0  0  0  0  0
   10.1110   -0.1270   22.6850 C   0  0  0  0  0  0  0  0  0  0  0  0
   10.1790    1.2880   22.7290 C   0  0  0  0  0  0  0  0  0  0  0  0
    9.4680    1.7700   23.7720 F   0  0  0  0  0  0  0  0  0  0  0  0
   11.4570    1.7380   22.8340 F   0  0  0  0  0  0  0  0  0  0  0  0
    9.5830    1.9050   21.6950 F   0  0  0  0  0  0  0  0  0  0  0  0
   11.4170   -0.8640   22.3900 C   0  0  0  0  0  0  0  0  0  0  0  0
   11.1120   -0.9590   23.6500 C   0  0  0  0  0  0  0  0  0  0  0  0
  1  2  2  0
  2  3  1  0
  3  4  1  0
  4  5  2  0
  5  6  1  0
  6  7  2  0
  7  8  1  0
  4  9  1  0
  8  9  2  0
  2 10  1  0
 11 10  1  0
 11 12  1  0
 12 13  1  0
 12 14  1  0
 12 15  1  0
 11 16  1  0
 11 17  1  0
 16 17  1  0
M  END
