pyridine_urea_8407
     RDKit          3D

 22 23  0  0  0  0  0  0  0  0999 V2000
   13.9600    4.5820   22.7230 C   0  0  0  0  0  0  0  0  0  0  0  0
   14.9640    3.6520   22.0180 C   0  0  0  0  0  0  0  0  0  0  0  0
   16.3360    4.1680   22.6330 C   0  0  0  0  0  0  0  0  0  0  0  0
   15.3180    3.9700   20.5940 C   0  0  0  0  0  0  0  0  0  0  0  0
   14.6070    2.1700   22.1810 O   0  0  0  0  0  0  0  0  0  0  0  0
   13.3430    1.3910   22.4200 C   0  0  0  0  0  0  0  0  0  0  0  0
   12.3050    2.1850   22.7290 C   0  0  0  0  0  0  0  0  0  0  0  0
   11.0210    1.5120   22.9130 C   0  0  0  0  0  0  0  0  0  0  0  0
   10.8160    0.0610   22.8240 C   0  0  0  0  0  0  0  0  0  0  0  0
   11.9490   -0.9110   22.5040 C   0  0  0  0  0  0  0  0  0  0  0  0
   10.5230   -1.4720   22.7510 C   0  0  0  0  0  0  0  0  0  0  0  0
    9.5760   -1.3430   21.6130 N   0  0  0  0  0  0  0  0  0  0  0  0
    8.6970   -0.2660   21.4500 C   0  0  0  0  0  0  0  0  0  0  0  0
    9.0340    0.8920   21.6260 O   0  0  0  0  0  0  0  0  0  0  0  0
    7.4000   -0.6800   21.0280 N   0  0  0  0  0  0  0  0  0  0  0  0
    6.5900   -0.0140   20.1080 C   0  0  0  0  0  0  0  0  0  0  0  0
    5.4310    0.6990   20.4160 C   0  0  0  0  0  0  0  0  0  0  0  0
    4.7220    1.3310   19.3900 C   0  0  0  0  0  0  0  0  0  0  0  0
    5.1890    1.2340   18.0880 C   0  0  0  0  0  0  0  0  0  0  0  0
    6.2940    0.5510   17.7620 N   0  0  0  0  0  0  0  0  0  0  0  0
    6.9630   -0.0530   18.7700 C   0  0  0  0  0  0  0  0  0  0  0  0
   13.1200   -0.0330   22.3380 C   0  0  0  0  0  0  0  0  0  0  0  0
  1  2  1  0
  2  3  1  0
  2  4  1  0
  2  5  1  0
  5  6  1  0
  6  7  2  0
  7  8  1  0
  8  9  2  0
  9 10  1  0
 10 11  1  0
 11 12  1  0
 12 13  1  0
 13 14  2  0
 13 15  1  0
 15 16  1  0
 16 17  2  0
 17 18  1  0
 18 19  2  0
 19 20  1  0
 16 21  1  0
 20 21  2  0
  6 22  1  0
 10 22  2  0
M  END
