pyridine_urea_6388
     RDKit          3D

 23 25  0  0  0  0  0  0  0  0999 V2000
   11.6920    4.0160   22.9380 C   0  0  0  0  0  0  0  0  0  0  0  0
   10.7030    3.2170   23.5940 O   0  0  0  0  0  0  0  0  0  0  0  0
   10.7770    1.8610   23.1560 C   0  0  0  0  0  0  0  0  0  0  0  0
   12.1300    1.2050   22.8820 C   0  0  0  0  0  0  0  0  0  0  0  0
   11.9620   -0.1570   22.3950 C   0  0  0  0  0  0  0  0  0  0  0  0
   12.6050   -1.1970   21.9150 N   0  0  0  0  0  0  0  0  0  0  0  0
   13.4910   -1.3330   20.9240 C   0  0  0  0  0  0  0  0  0  0  0  0
   13.7930   -2.7250   20.6150 C   0  0  0  0  0  0  0  0  0  0  0  0
   13.1080   -3.2490   21.5180 N   0  0  0  0  0  0  0  0  0  0  0  0
   12.4130   -2.4260   22.2320 C   0  0  0  0  0  0  0  0  0  0  0  0
   10.8220   -0.8380   22.2360 C   0  0  0  0  0  0  0  0  0  0  0  0
    9.6170   -0.2510   22.5120 C   0  0  0  0  0  0  0  0  0  0  0  0
    9.5030    0.9790   22.9230 C   0  0  0  0  0  0  0  0  0  0  0  0
    8.2640    1.3090   23.0550 N   0  0  0  0  0  0  0  0  0  0  0  0
    7.8590    1.0310   21.7890 C   0  0  0  0  0  0  0  0  0  0  0  0
    8.3390    1.6680   20.7060 O   0  0  0  0  0  0  0  0  0  0  0  0
    6.8880   -0.0310   21.4340 N   0  0  0  0  0  0  0  0  0  0  0  0
    6.2380    0.3650   20.2770 C   0  0  0  0  0  0  0  0  0  0  0  0
    4.9000    1.0740   20.5640 C   0  0  0  0  0  0  0  0  0  0  0  0
    4.5020    1.3880   19.1470 C   0  0  0  0  0  0  0  0  0  0  0  0
    5.2180    1.0820   17.8960 C   0  0  0  0  0  0  0  0  0  0  0  0
    6.3560    0.4530   17.8450 N   0  0  0  0  0  0  0  0  0  0  0  0
    6.8250    0.1160   19.0230 C   0  0  0  0  0  0  0  0  0  0  0  0
  1  2  1  0
  2  3  1  0
  3  4  2  0
  4  5  1  0
  5  6  1  0
  6  7  1  0
  7  8  2  0
  8  9  1  0
  6 10  1  0
  9 10  2  0
  5 11  2  0
 11 12  1  0
  3 13  1  0
 12 13  2  0
 13 14  1  0
 14 15  1  0
 15 16  2  0
 15 17  1  0
 17 18  1  0
 18 19  2  0
 19 20  1  0
 20 21  2  0
 21 22  1  0
 18 23  1  0
 22 23  2  0
M  END
