pyridine_urea_9566
     RDKit          3D

 23 25  0  0  0  0  0  0  0  0999 V2000
    8.9170    0.8930   21.3440 O   0  0  0  0  0  0  0  0  0  0  0  0
    8.4860   -0.2450   21.4750 C   0  0  0  0  0  0  0  0  0  0  0  0
    9.2050   -1.2390   22.0940 N   0  0  0  0  0  0  0  0  0  0  0  0
    9.8690   -0.9180   23.3370 C   0  0  0  0  0  0  0  0  0  0  0  0
   11.3900   -1.0770   23.3160 C   0  0  0  0  0  0  0  0  0  0  0  0
   12.1060    0.2090   23.1370 C   0  0  0  0  0  0  0  0  0  0  0  0
   13.2470    0.4770   22.6170 C   0  0  0  0  0  0  0  0  0  0  0  0
   12.7340    1.8370   23.0510 C   0  0  0  0  0  0  0  0  0  0  0  0
   11.4530    0.7680   23.5400 C   0  0  0  0  0  0  0  0  0  0  0  0
   10.9180    1.9710   23.9670 C   0  0  0  0  0  0  0  0  0  0  0  0
   11.9710    1.6370   23.4010 C   0  0  0  0  0  0  0  0  0  0  0  0
   11.8020   -1.4800   24.6450 C   0  0  0  0  0  0  0  0  0  0  0  0
   12.1130   -2.5790   23.9710 C   0  0  0  0  0  0  0  0  0  0  0  0
   11.3920   -3.6220   24.3720 F   0  0  0  0  0  0  0  0  0  0  0  0
   13.3520   -2.9160   24.4220 F   0  0  0  0  0  0  0  0  0  0  0  0
   12.0100   -2.2980   22.5640 C   0  0  0  0  0  0  0  0  0  0  0  0
    7.2580   -0.6880   21.0380 N   0  0  0  0  0  0  0  0  0  0  0  0
    6.4890   -0.0010   20.0910 C   0  0  0  0  0  0  0  0  0  0  0  0
    5.3120    0.7100   20.3310 C   0  0  0  0  0  0  0  0  0  0  0  0
    4.6120    1.4060   19.2280 C   0  0  0  0  0  0  0  0  0  0  0  0
    5.1860    1.3050   17.9810 C   0  0  0  0  0  0  0  0  0  0  0  0
    6.3150    0.6170   17.7310 N   0  0  0  0  0  0  0  0  0  0  0  0
    6.9270   -0.0090   18.7710 C   0  0  0  0  0  0  0  0  0  0  0  0
  1  2  2  0
  2  3  1  0
  3  4  1  0
  5  4  1  0
  5  6  1  0
  6  7  2  0
  7  8  1  0
  8  9  2  0
  9 10  1  0
  6 11  1  0
 10 11  2  0
  5 12  1  0
 12 13  1  0
 13 14  1  0
 13 15  1  0
  5 16  1  0
 13 16  1  0
  2 17  1  0
 17 18  1  0
 18 19  2  0
 19 20  1  0
 20 21  2  0
 21 22  1  0
 18 23  1  0
 22 23  2  0
M  END
