pyridine_urea_490
     RDKit          3D

 25 26  0  0  0  0  0  0  0  0999 V2000
   11.1190    6.1090   25.8450 C   0  0  0  0  0  0  0  0  0  0  0  0
   11.9330    5.9280   24.5810 C   0  0  0  0  0  0  0  0  0  0  0  0
   11.3400    5.3570   23.4610 C   0  0  1  0  0  0  0  0  0  0  0  0
   11.7230    5.9530   22.2670 C   0  0  0  0  0  0  0  0  0  0  0  0
   12.0530    5.1320   21.3990 O   0  0  0  0  0  0  0  0  0  0  0  0
   11.5310    3.8940   23.4270 N   0  0  0  0  0  0  0  0  0  0  0  0
   12.6730    3.3720   22.7830 C   0  0  0  0  0  0  0  0  0  0  0  0
   13.4570    4.2330   21.9570 O   0  0  0  0  0  0  0  0  0  0  0  0
   12.9770    1.9960   23.0320 C   0  0  0  0  0  0  0  0  0  0  0  0
   12.0120    0.9160   22.8060 C   0  0  0  0  0  0  0  0  0  0  0  0
   12.3650   -0.4030   22.4880 C   0  0  0  0  0  0  0  0  0  0  0  0
   11.3360   -1.3030   22.2690 C   0  0  0  0  0  0  0  0  0  0  0  0
   10.0430   -0.8350   22.3860 C   0  0  0  0  0  0  0  0  0  0  0  0
    8.9250   -1.5530   22.1510 N   0  0  0  0  0  0  0  0  0  0  0  0
    8.0560   -0.7150   21.4060 C   0  0  0  0  0  0  0  0  0  0  0  0
    8.3360    0.4270   21.0540 O   0  0  0  0  0  0  0  0  0  0  0  0
    6.8530   -1.1660   21.0480 N   0  0  0  0  0  0  0  0  0  0  0  0
    6.3210   -0.3290   19.9590 C   0  0  0  0  0  0  0  0  0  0  0  0
    5.1290    0.3880   20.2310 C   0  0  0  0  0  0  0  0  0  0  0  0
    4.5560    1.2200   19.2430 C   0  0  0  0  0  0  0  0  0  0  0  0
    5.1750    1.3300   18.0040 C   0  0  0  0  0  0  0  0  0  0  0  0
    6.3280    0.6280   17.7570 N   0  0  0  0  0  0  0  0  0  0  0  0
    6.8980   -0.1960   18.7200 C   0  0  0  0  0  0  0  0  0  0  0  0
    9.7950    0.4590   22.7310 C   0  0  0  0  0  0  0  0  0  0  0  0
   10.7380    1.3700   22.9500 C   0  0  0  0  0  0  0  0  0  0  0  0
  1  2  1  0
  3  2  1  1
  3  4  1  0
  4  5  1  0
  3  6  1  0
  6  7  1  0
  7  8  2  0
  7  9  1  0
  9 10  1  0
 10 11  2  0
 11 12  1  0
 12 13  2  0
 13 14  1  0
 14 15  1  0
 15 16  2  0
 15 17  1  0
 17 18  1  0
 18 19  2  0
 19 20  1  0
 20 21  2  0
 21 22  1  0
 18 23  1  0
 22 23  2  0
 13 24  1  0
 10 25  1  0
 24 25  2  0
M  END
