pyridine_urea_2179
     RDKit          3D

 26 28  0  0  0  0  0  0  0  0999 V2000
   14.3210   -0.2340   19.5650 C   0  0  0  0  0  0  0  0  0  0  0  0
   14.0270    0.1870   20.8320 N   0  0  0  0  0  0  0  0  0  0  0  0
   14.3360    1.4810   21.1980 N   0  0  0  0  0  0  0  0  0  0  0  0
   14.0240    1.4400   22.5140 N   0  0  0  0  0  0  0  0  0  0  0  0
   13.6030    0.1590   22.8010 C   0  0  0  0  0  0  0  0  0  0  0  0
   13.2990   -0.1920   24.0300 N   0  0  0  0  0  0  0  0  0  0  0  0
   13.4550   -1.8250   24.1980 S   0  0  0  0  0  0  0  0  0  0  0  0
   14.0290   -2.4450   23.0600 O   0  0  0  0  0  0  0  0  0  0  0  0
   13.5930   -2.2620   25.5660 O   0  0  0  0  0  0  0  0  0  0  0  0
   11.8660   -1.8310   23.7400 C   0  0  0  0  0  0  0  0  0  0  0  0
   11.4950   -2.1720   22.3560 C   0  0  0  0  0  0  0  0  0  0  0  0
   10.1230   -2.1550   21.9830 C   0  0  0  0  0  0  0  0  0  0  0  0
    9.1150   -1.8400   22.8100 C   0  0  0  0  0  0  0  0  0  0  0  0
    7.7770   -1.8300   22.3900 N   0  0  0  0  0  0  0  0  0  0  0  0
    7.6140   -1.0260   21.3370 C   0  0  0  0  0  0  0  0  0  0  0  0
    8.6280   -0.6640   20.5850 O   0  0  0  0  0  0  0  0  0  0  0  0
    6.3360   -0.6510   21.1400 N   0  0  0  0  0  0  0  0  0  0  0  0
    5.9750    0.0600   20.0050 C   0  0  0  0  0  0  0  0  0  0  0  0
    4.8510    0.8540   20.0550 C   0  0  0  0  0  0  0  0  0  0  0  0
    4.4560    1.5800   18.9620 C   0  0  0  0  0  0  0  0  0  0  0  0
    5.2100    1.5030   17.7940 C   0  0  0  0  0  0  0  0  0  0  0  0
    6.3160    0.7340   17.7030 N   0  0  0  0  0  0  0  0  0  0  0  0
    6.6770    0.0310   18.8060 C   0  0  0  0  0  0  0  0  0  0  0  0
    9.6950   -1.5220   24.1720 C   0  0  0  0  0  0  0  0  0  0  0  0
   10.8950   -1.4500   24.8280 C   0  0  0  0  0  0  0  0  0  0  0  0
   13.5550   -0.6500   21.7620 N   0  0  0  0  0  0  0  0  0  0  0  0
  1  2  1  0
  2  3  1  0
  3  4  2  0
  4  5  1  0
  5  6  1  0
  7  6  1  0
  7  8  2  0
  7  9  2  0
  7 10  1  0
 10 11  2  0
 11 12  1  0
 12 13  2  0
 13 14  1  0
 14 15  1  0
 15 16  2  0
 15 17  1  0
 17 18  1  0
 18 19  2  0
 19 20  1  0
 20 21  2  0
 21 22  1  0
 18 23  1  0
 22 23  2  0
 13 24  1  0
 10 25  1  0
 24 25  2  0
  2 26  1  0
  5 26  2  0
M  END
