pyridine_urea_10157
     RDKit          3D

 23 25  0  0  0  0  0  0  0  0999 V2000
   10.3530    5.9060   22.7780 C   0  0  0  0  0  0  0  0  0  0  0  0
    9.9990    4.7730   23.1120 O   0  0  0  0  0  0  0  0  0  0  0  0
   10.8990    3.7480   22.9270 C   0  0  0  0  0  0  0  0  0  0  0  0
   12.2150    4.1470   22.7780 C   0  0  0  0  0  0  0  0  0  0  0  0
   13.2290    3.2250   22.5910 C   0  0  0  0  0  0  0  0  0  0  0  0
   12.9430    1.8750   22.5530 C   0  0  0  0  0  0  0  0  0  0  0  0
   11.6840    1.3520   22.6730 C   0  0  0  0  0  0  0  0  0  0  0  0
   11.4190   -0.1470   22.5790 C   0  0  0  0  0  0  0  0  0  0  0  0
   10.2860   -0.5200   23.2250 C   0  0  1  0  0  0  0  0  0  0  0  0
    9.2630   -1.0750   22.3000 N   0  0  0  0  0  0  0  0  0  0  0  0
    8.4490   -0.1190   21.4690 C   0  0  0  0  0  0  0  0  0  0  0  0
    8.8990    1.2220   21.1420 O   0  0  0  0  0  0  0  0  0  0  0  0
    7.1870   -0.7080   21.0570 N   0  0  0  0  0  0  0  0  0  0  0  0
    6.4980   -0.0280   20.0490 C   0  0  0  0  0  0  0  0  0  0  0  0
    5.3160    0.6920   20.2860 C   0  0  0  0  0  0  0  0  0  0  0  0
    4.6120    1.4240   19.1870 C   0  0  0  0  0  0  0  0  0  0  0  0
    5.1630    1.3760   17.9080 C   0  0  0  0  0  0  0  0  0  0  0  0
    6.3340    0.6370   17.7400 N   0  0  0  0  0  0  0  0  0  0  0  0
    6.9530   -0.0210   18.7440 C   0  0  0  0  0  0  0  0  0  0  0  0
   10.7930   -1.4170   24.2670 C   0  0  0  0  0  0  0  0  0  0  0  0
   11.5210   -2.3890   23.9060 C   0  0  0  0  0  0  0  0  0  0  0  0
   12.3800   -1.3830   24.4680 C   0  0  0  0  0  0  0  0  0  0  0  0
   10.6140    2.2510   22.8650 C   0  0  0  0  0  0  0  0  0  0  0  0
  1  2  1  0
  2  3  1  0
  3  4  2  0
  4  5  1  0
  5  6  2  0
  6  7  1  0
  7  8  1  0
  9  8  1  6
  9 10  1  0
 10 11  1  0
 11 12  2  0
 11 13  1  0
 13 14  1  0
 14 15  2  0
 15 16  1  0
 16 17  2  0
 17 18  1  0
 14 19  1  0
 18 19  2  0
  9 20  1  0
 20 21  1  0
 20 22  1  0
 21 22  1  0
  3 23  1  0
  7 23  2  0
M  END
