pyridine_urea_9908
     RDKit          3D

 25 27  0  0  0  0  0  0  0  0999 V2000
    8.5560    1.3010   20.8710 O   0  0  0  0  0  0  0  0  0  0  0  0
    8.0940    0.2010   21.1910 C   0  0  0  0  0  0  0  0  0  0  0  0
    8.6170   -0.5020   22.1720 N   0  0  0  0  0  0  0  0  0  0  0  0
    8.8700    0.2970   23.3150 C   0  0  0  0  0  0  0  0  0  0  0  0
   10.2370    0.8720   23.2310 C   0  0  0  0  0  0  0  0  0  0  0  0
   11.8240    1.0420   22.9990 C   0  0  0  0  0  0  0  0  0  0  0  0
   12.8580    0.0270   22.5400 C   0  0  0  0  0  0  0  0  0  0  0  0
   12.3270   -1.2940   22.2450 C   0  0  0  0  0  0  0  0  0  0  0  0
   13.0960   -2.8170   21.6080 Br  0  0  0  0  0  0  0  0  0  0  0  0
   10.9550   -1.2170   22.5270 C   0  0  0  0  0  0  0  0  0  0  0  0
   10.0070   -0.4680   22.9160 C   0  0  0  0  0  0  0  0  0  0  0  0
    8.6920   -0.9560   23.0160 O   0  0  0  0  0  0  0  0  0  0  0  0
    8.3230   -1.7650   24.1660 C   0  0  0  0  0  0  0  0  0  0  0  0
    7.2720   -1.4050   25.0140 C   0  0  0  0  0  0  0  0  0  0  0  0
    6.9020   -2.1830   26.1270 C   0  0  0  0  0  0  0  0  0  0  0  0
    7.5930   -3.3620   26.4070 C   0  0  0  0  0  0  0  0  0  0  0  0
    8.6970   -3.7230   25.4920 C   0  0  0  0  0  0  0  0  0  0  0  0
    9.0350   -2.9230   24.4040 C   0  0  0  0  0  0  0  0  0  0  0  0
    7.0180   -0.4540   20.6930 N   0  0  0  0  0  0  0  0  0  0  0  0
    6.2510    0.2150   19.7940 C   0  0  0  0  0  0  0  0  0  0  0  0
    5.0190    0.8030   20.0340 C   0  0  0  0  0  0  0  0  0  0  0  0
    4.4250    1.4650   18.9870 C   0  0  0  0  0  0  0  0  0  0  0  0
    5.0800    1.5090   17.7590 C   0  0  0  0  0  0  0  0  0  0  0  0
    6.2620    0.9270   17.5320 N   0  0  0  0  0  0  0  0  0  0  0  0
    6.8030    0.2990   18.5610 C   0  0  0  0  0  0  0  0  0  0  0  0
  1  2  2  0
  2  3  1  0
  3  4  1  0
  4  5  1  0
  5  6  2  0
  6  7  1  0
  7  8  2  0
  8  9  1  0
  8 10  1  0
  5 11  1  0
 10 11  2  0
 11 12  1  0
 12 13  1  0
 13 14  2  0
 14 15  1  0
 15 16  2  0
 16 17  1  0
 13 18  1  0
 17 18  2  0
  2 19  1  0
 19 20  1  0
 20 21  2  0
 21 22  1  0
 22 23  2  0
 23 24  1  0
 20 25  1  0
 24 25  2  0
M  END
