pyridine_urea_15249
     RDKit          3D

 16 17  0  0  0  0  0  0  0  0999 V2000
   11.2630   -2.6710   24.2380 C   0  0  0  0  0  0  0  0  0  0  0  0
    9.9860   -1.8700   23.9420 C   0  0  0  0  0  0  0  0  0  0  0  0
   10.2910   -0.9670   22.7640 C   0  0  0  0  0  0  0  0  0  0  0  0
    9.5140   -1.1850   21.6720 N   0  0  0  0  0  0  0  0  0  0  0  0
    8.5840   -0.2360   21.4160 C   0  0  0  0  0  0  0  0  0  0  0  0
    8.8630    0.9520   21.3670 O   0  0  0  0  0  0  0  0  0  0  0  0
    7.2530   -0.7640   21.1720 N   0  0  0  0  0  0  0  0  0  0  0  0
    6.5530   -0.1110   20.1830 C   0  0  0  0  0  0  0  0  0  0  0  0
    5.2510    0.6640   20.4310 C   0  0  0  0  0  0  0  0  0  0  0  0
    4.5770    1.3660   19.2460 C   0  0  0  0  0  0  0  0  0  0  0  0
    5.1620    1.2790   17.9910 C   0  0  0  0  0  0  0  0  0  0  0  0
    6.2860    0.6110   17.7280 N   0  0  0  0  0  0  0  0  0  0  0  0
    6.9390   -0.0330   18.7090 C   0  0  0  0  0  0  0  0  0  0  0  0
   11.6950   -1.1930   22.4390 C   0  0  0  0  0  0  0  0  0  0  0  0
   11.8100    0.0280   23.0220 C   0  0  0  0  0  0  0  0  0  0  0  0
   10.4710    0.5720   23.0000 C   0  0  0  0  0  0  0  0  0  0  0  0
  1  2  3  0
  3  2  1  0
  3  4  1  0
  4  5  1  0
  5  6  2  0
  5  7  1  0
  7  8  1  0
  8  9  2  0
  9 10  1  0
 10 11  2  0
 11 12  1  0
  8 13  1  0
 12 13  2  0
  3 14  1  0
 14 15  1  0
  3 16  1  0
 15 16  1  0
M  END
