pyridine_urea_11397
     RDKit          3D

 22 24  0  0  0  0  0  0  0  0999 V2000
   10.5300    2.2670   24.0330 C   0  0  0  0  0  0  0  0  0  0  0  0
   11.2530    1.3350   23.8560 C   0  0  1  0  0  0  0  0  0  0  0  0
   11.9950    0.0100   23.9270 C   0  0  0  0  0  0  0  0  0  0  0  0
   12.6090   -0.6000   25.0200 C   0  0  0  0  0  0  0  0  0  0  0  0
   13.1230   -1.7960   24.5550 C   0  0  0  0  0  0  0  0  0  0  0  0
   13.9760   -2.8330   25.7740 Br  0  0  0  0  0  0  0  0  0  0  0  0
   13.0640   -2.4010   23.0770 C   0  0  0  0  0  0  0  0  0  0  0  0
   12.3580   -1.6680   21.9650 C   0  0  0  0  0  0  0  0  0  0  0  0
   12.2720   -0.9700   23.0130 C   0  0  0  0  0  0  0  0  0  0  0  0
   11.5750   -0.1530   22.1190 O   0  0  0  0  0  0  0  0  0  0  0  0
   10.5650    0.6040   22.7150 C   0  0  1  0  0  0  0  0  0  0  0  0
    9.8060   -0.2130   23.5260 C   0  0  0  0  0  0  0  0  0  0  0  0
    8.7160   -0.7460   22.6990 N   0  0  0  0  0  0  0  0  0  0  0  0
    8.2440    0.0490   21.5430 C   0  0  0  0  0  0  0  0  0  0  0  0
    8.8110    1.2290   21.1400 O   0  0  0  0  0  0  0  0  0  0  0  0
    7.1540   -0.5380   20.9530 N   0  0  0  0  0  0  0  0  0  0  0  0
    6.3900    0.1180   19.9890 C   0  0  0  0  0  0  0  0  0  0  0  0
    5.1050    0.7680   20.5670 C   0  0  0  0  0  0  0  0  0  0  0  0
    4.6160    1.3600   19.2540 C   0  0  0  0  0  0  0  0  0  0  0  0
    5.2050    1.3070   17.8960 C   0  0  0  0  0  0  0  0  0  0  0  0
    6.3140    0.6790   17.6440 N   0  0  0  0  0  0  0  0  0  0  0  0
    6.8630    0.1110   18.6950 C   0  0  0  0  0  0  0  0  0  0  0  0
  2  1  1  1
  2  3  1  0
  3  4  2  0
  4  5  1  0
  5  6  1  0
  5  7  2  0
  7  8  1  0
  3  9  1  0
  8  9  2  0
  9 10  1  0
  2 11  1  0
 10 11  1  0
 11 12  1  1
 12 13  1  0
 13 14  1  0
 14 15  2  0
 14 16  1  0
 16 17  1  0
 17 18  2  0
 18 19  1  0
 19 20  2  0
 20 21  1  0
 17 22  1  0
 21 22  2  0
M  END
