pyridine_urea_8127
     RDKit          3D

 24 26  0  0  0  0  0  0  0  0999 V2000
    9.6910   -0.4690   25.7080 C   0  0  0  0  0  0  0  0  0  0  0  0
    8.9910   -0.2740   24.3650 C   0  0  0  0  0  0  0  0  0  0  0  0
    7.6010    0.4190   24.6070 C   0  0  0  0  0  0  0  0  0  0  0  0
    8.8380   -1.5670   23.5560 C   0  0  0  0  0  0  0  0  0  0  0  0
    8.9830   -1.2740   22.1940 N   0  0  0  0  0  0  0  0  0  0  0  0
    8.2700   -0.4390   21.3790 C   0  0  0  0  0  0  0  0  0  0  0  0
    8.7300    0.6640   21.1230 O   0  0  0  0  0  0  0  0  0  0  0  0
    7.0930   -0.9200   20.9350 N   0  0  0  0  0  0  0  0  0  0  0  0
    6.4480   -0.1670   20.0200 C   0  0  0  0  0  0  0  0  0  0  0  0
    5.1670    0.6370   20.2740 C   0  0  0  0  0  0  0  0  0  0  0  0
    4.4780    1.4760   19.2000 C   0  0  0  0  0  0  0  0  0  0  0  0
    5.2170    1.4100   17.8770 C   0  0  0  0  0  0  0  0  0  0  0  0
    6.3570    0.6630   17.7310 N   0  0  0  0  0  0  0  0  0  0  0  0
    6.9550   -0.0960   18.7420 C   0  0  0  0  0  0  0  0  0  0  0  0
    9.7690    0.6640   23.5480 N   0  0  0  0  0  0  0  0  0  0  0  0
   11.0350    0.1980   23.0920 C   0  0  0  0  0  0  0  0  0  0  0  0
   12.2270    1.0550   23.4970 C   0  0  0  0  0  0  0  0  0  0  0  0
   11.9960    2.3820   23.1980 C   0  0  0  0  0  0  0  0  0  0  0  0
   12.9200    3.2770   22.6570 C   0  0  0  0  0  0  0  0  0  0  0  0
   12.5730    4.6040   22.3840 C   0  0  0  0  0  0  0  0  0  0  0  0
   11.2870    5.0360   22.6630 C   0  0  0  0  0  0  0  0  0  0  0  0
   10.3810    4.1130   23.2170 C   0  0  0  0  0  0  0  0  0  0  0  0
   10.6950    2.7850   23.4980 C   0  0  0  0  0  0  0  0  0  0  0  0
    9.7610    1.9170   24.0580 C   0  0  0  0  0  0  0  0  0  0  0  0
  2  1  1  0
  2  3  1  0
  2  4  1  0
  4  5  1  0
  5  6  1  0
  6  7  2  0
  6  8  1  0
  8  9  1  0
  9 10  2  0
 10 11  1  0
 11 12  2  0
 12 13  1  0
  9 14  1  0
 13 14  2  0
  2 15  1  0
 15 16  1  0
 16 17  1  0
 17 18  1  0
 18 19  2  0
 19 20  1  0
 20 21  2  0
 21 22  1  0
 18 23  1  0
 22 23  2  0
 15 24  1  0
 23 24  1  0
M  END
