pyridine_urea_7402
     RDKit          3D

 17 18  0  0  0  0  0  0  0  0999 V2000
   10.3970   -1.8030   22.0880 C   0  0  0  0  0  0  0  0  0  0  0  0
    9.7360   -1.2310   23.3420 C   0  0  1  0  0  0  0  0  0  0  0  0
   10.4100   -0.1300   23.8310 C   0  0  0  0  0  0  0  0  0  0  0  0
   11.5020    0.1350   23.0630 C   0  0  0  0  0  0  0  0  0  0  0  0
   12.5620    0.6860   23.6420 C   0  0  0  0  0  0  0  0  0  0  0  0
   13.3480   -0.2790   23.1560 C   0  0  0  0  0  0  0  0  0  0  0  0
   12.3930   -1.0690   22.5530 C   0  0  0  0  0  0  0  0  0  0  0  0
    8.3950   -0.8560   22.9750 N   0  0  0  0  0  0  0  0  0  0  0  0
    8.1870   -0.1990   21.7930 C   0  0  0  0  0  0  0  0  0  0  0  0
    8.9360    0.6740   21.3760 O   0  0  0  0  0  0  0  0  0  0  0  0
    7.0440   -0.6510   21.1980 N   0  0  0  0  0  0  0  0  0  0  0  0
    6.4290    0.0000   20.1290 C   0  0  0  0  0  0  0  0  0  0  0  0
    5.2620    0.7530   20.2880 C   0  0  0  0  0  0  0  0  0  0  0  0
    4.6410    1.4190   19.2410 C   0  0  0  0  0  0  0  0  0  0  0  0
    5.2020    1.3350   17.9850 C   0  0  0  0  0  0  0  0  0  0  0  0
    6.3070    0.6520   17.6740 N   0  0  0  0  0  0  0  0  0  0  0  0
    6.9170   -0.0010   18.6870 C   0  0  0  0  0  0  0  0  0  0  0  0
  2  1  1  6
  2  3  1  0
  3  4  1  0
  4  5  1  0
  5  6  1  0
  4  7  1  0
  6  7  1  0
  2  8  1  0
  8  9  1  0
  9 10  2  0
  9 11  1  0
 11 12  1  0
 12 13  2  0
 13 14  1  0
 14 15  2  0
 15 16  1  0
 12 17  1  0
 16 17  2  0
M  END
