pyridine_urea_8465
     RDKit          3D

 22 23  0  0  0  0  0  0  0  0999 V2000
   15.8930    2.0690   19.2370 C   0  0  0  0  0  0  0  0  0  0  0  0
   15.4570    2.7360   20.5100 O   0  0  0  0  0  0  0  0  0  0  0  0
   14.7520    2.2260   21.6940 C   0  0  0  0  0  0  0  0  0  0  0  0
   13.9120    1.1870   21.9790 C   0  0  0  0  0  0  0  0  0  0  0  0
   12.9300    1.3550   22.9010 C   0  0  0  0  0  0  0  0  0  0  0  0
   12.5530    2.4860   23.1280 O   0  0  0  0  0  0  0  0  0  0  0  0
   12.4780    0.3050   23.5050 N   0  0  0  0  0  0  0  0  0  0  0  0
   12.3990   -0.6980   22.6090 C   0  0  0  0  0  0  0  0  0  0  0  0
   11.0120   -1.2560   22.3470 C   0  0  0  0  0  0  0  0  0  0  0  0
    9.9460   -0.6860   23.0410 C   0  0  0  0  0  0  0  0  0  0  0  0
    8.7990   -1.0720   22.2700 N   0  0  0  0  0  0  0  0  0  0  0  0
    8.2080   -0.1700   21.4100 C   0  0  0  0  0  0  0  0  0  0  0  0
    8.7440    1.1260   21.0680 O   0  0  0  0  0  0  0  0  0  0  0  0
    7.0480   -0.6950   20.9650 N   0  0  0  0  0  0  0  0  0  0  0  0
    6.3800    0.0100   20.0330 C   0  0  0  0  0  0  0  0  0  0  0  0
    5.2010    0.7190   20.2590 C   0  0  0  0  0  0  0  0  0  0  0  0
    4.6190    1.4100   19.1950 C   0  0  0  0  0  0  0  0  0  0  0  0
    5.2630    1.3450   17.9670 C   0  0  0  0  0  0  0  0  0  0  0  0
    6.3880    0.6770   17.7110 N   0  0  0  0  0  0  0  0  0  0  0  0
    6.9200    0.0210   18.7550 C   0  0  0  0  0  0  0  0  0  0  0  0
   10.0640    0.7560   23.3210 C   0  0  0  0  0  0  0  0  0  0  0  0
   11.2390    0.5930   23.9960 C   0  0  0  0  0  0  0  0  0  0  0  0
  1  2  1  0
  2  3  1  0
  3  4  1  0
  4  5  1  0
  5  6  2  0
  5  7  1  0
  7  8  1  0
  8  9  1  0
  9 10  1  0
 10 11  1  0
 11 12  1  0
 12 13  2  0
 12 14  1  0
 14 15  1  0
 15 16  2  0
 16 17  1  0
 17 18  2  0
 18 19  1  0
 15 20  1  0
 19 20  2  0
 10 21  1  0
  7 22  1  0
 21 22  1  0
M  END
