pyridine_urea_3062
     RDKit          3D

 21 22  0  0  0  0  0  0  0  0999 V2000
    2.9830   -6.1290   23.1980 C   0  0  0  0  0  0  0  0  0  0  0  0
    4.1300   -5.3950   23.0190 N   0  0  0  0  0  0  0  0  0  0  0  0
    4.3040   -4.0310   23.3160 C   0  0  0  0  0  0  0  0  0  0  0  0
    5.6190   -3.6780   23.6240 C   0  0  0  0  0  0  0  0  0  0  0  0
    6.6360   -4.2680   22.8730 C   0  0  0  0  0  0  0  0  0  0  0  0
    7.9570   -3.9840   23.4300 N   0  0  0  0  0  0  0  0  0  0  0  0
    8.3220   -2.6800   23.6680 C   0  0  0  0  0  0  0  0  0  0  0  0
    7.9650   -2.0750   24.6640 O   0  0  0  0  0  0  0  0  0  0  0  0
    9.1970   -2.0520   22.5850 C   0  0  0  0  0  0  0  0  0  0  0  0
    9.1320   -0.5940   22.6580 N   0  0  0  0  0  0  0  0  0  0  0  0
    8.5540    0.1960   21.5790 C   0  0  0  0  0  0  0  0  0  0  0  0
    9.0340    1.2760   21.2300 O   0  0  0  0  0  0  0  0  0  0  0  0
    7.4330   -0.4100   21.0560 N   0  0  0  0  0  0  0  0  0  0  0  0
    6.6530    0.1440   20.0340 C   0  0  0  0  0  0  0  0  0  0  0  0
    5.5000    0.8600   20.3750 C   0  0  0  0  0  0  0  0  0  0  0  0
    4.7320    1.4270   19.3690 C   0  0  0  0  0  0  0  0  0  0  0  0
    5.1440    1.2590   18.0550 C   0  0  0  0  0  0  0  0  0  0  0  0
    6.2390    0.5710   17.7110 N   0  0  0  0  0  0  0  0  0  0  0  0
    6.9630    0.0300   18.7020 C   0  0  0  0  0  0  0  0  0  0  0  0
    6.4330   -5.7790   22.6990 C   0  0  0  0  0  0  0  0  0  0  0  0
    5.3070   -6.1990   23.3860 C   0  0  0  0  0  0  0  0  0  0  0  0
  1  2  1  0
  2  3  1  0
  3  4  1  0
  4  5  1  0
  5  6  1  0
  6  7  1  0
  7  8  2  0
  7  9  1  0
  9 10  1  0
 10 11  1  0
 11 12  2  0
 11 13  1  0
 13 14  1  0
 14 15  2  0
 15 16  1  0
 16 17  2  0
 17 18  1  0
 14 19  1  0
 18 19  2  0
  5 20  1  0
  2 21  1  0
 20 21  1  0
M  END
