pyridine_urea_13934
     RDKit          3D

 24 26  0  0  0  0  0  0  0  0999 V2000
   13.2200    3.4130   22.9840 C   0  0  0  0  0  0  0  0  0  0  0  0
   12.4140    2.5380   22.9590 C   0  0  0  0  0  0  0  0  0  0  0  0
   10.8340    3.1240   22.3540 S   0  0  0  0  0  0  0  0  0  0  0  0
   10.3470    1.4780   22.5330 C   0  0  0  0  0  0  0  0  0  0  0  0
    9.2030    0.6840   22.2770 C   0  0  0  0  0  0  0  0  0  0  0  0
    9.5560   -0.6450   22.1180 C   0  0  0  0  0  0  0  0  0  0  0  0
    8.3230   -1.2100   21.7080 N   0  0  0  0  0  0  0  0  0  0  0  0
    7.2290   -0.4700   22.0450 C   0  0  0  0  0  0  0  0  0  0  0  0
    7.8410   -0.2300   23.0520 O   0  0  0  0  0  0  0  0  0  0  0  0
    6.8680   -0.9400   20.8280 N   0  0  0  0  0  0  0  0  0  0  0  0
    6.1910   -0.1250   19.9210 C   0  0  0  0  0  0  0  0  0  0  0  0
    5.0180    0.4910   20.2470 C   0  0  0  0  0  0  0  0  0  0  0  0
    4.5800    1.2960   19.0510 C   0  0  0  0  0  0  0  0  0  0  0  0
    5.2530    1.3800   17.8670 C   0  0  0  0  0  0  0  0  0  0  0  0
    6.3840    0.7490   17.6320 N   0  0  0  0  0  0  0  0  0  0  0  0
    6.7980    0.0220   18.6760 C   0  0  0  0  0  0  0  0  0  0  0  0
   11.1080    0.5540   23.0090 N   0  0  0  0  0  0  0  0  0  0  0  0
   12.2940    0.9960   23.3000 C   0  0  0  0  0  0  0  0  0  0  0  0
   12.8750   -0.2980   23.8010 C   0  0  0  0  0  0  0  0  0  0  0  0
   12.6940   -0.4820   22.4150 C   0  0  0  0  0  0  0  0  0  0  0  0
   13.0500   -1.8000   21.8690 C   0  0  0  0  0  0  0  0  0  0  0  0
   13.5310   -2.7200   22.8160 C   0  0  0  0  0  0  0  0  0  0  0  0
   13.6760   -2.4160   24.1920 C   0  0  0  0  0  0  0  0  0  0  0  0
   13.3510   -1.1820   24.7200 C   0  0  0  0  0  0  0  0  0  0  0  0
  1  2  1  0
  2  3  1  0
  3  4  1  0
  4  5  1  0
  5  6  1  0
  6  7  1  0
  7  8  1  0
  8  9  2  0
  8 10  1  0
 10 11  1  0
 11 12  2  0
 12 13  1  0
 13 14  2  0
 14 15  1  0
 11 16  1  0
 15 16  2  0
  4 17  2  0
  2 18  2  0
 17 18  1  0
 18 19  1  0
 19 20  2  0
 20 21  1  0
 21 22  2  0
 22 23  1  0
 19 24  1  0
 23 24  2  0
M  END
