pyridine_urea_14635
     RDKit          3D

 20 21  0  0  0  0  0  0  0  0999 V2000
    8.8450    1.2310   21.1780 O   0  0  0  0  0  0  0  0  0  0  0  0
    8.4550    0.0990   21.5070 C   0  0  0  0  0  0  0  0  0  0  0  0
    9.1570   -0.7080   22.3810 N   0  0  0  0  0  0  0  0  0  0  0  0
   10.5680   -0.6900   22.4270 C   0  0  0  0  0  0  0  0  0  0  0  0
   11.3430   -0.6030   23.5980 C   0  0  0  0  0  0  0  0  0  0  0  0
   11.2390    0.6070   24.2290 C   0  0  0  0  0  0  0  0  0  0  0  0
   12.3810    0.6500   23.4900 C   0  0  0  0  0  0  0  0  0  0  0  0
   12.6580   -0.5180   22.7850 C   0  0  0  0  0  0  0  0  0  0  0  0
   13.6490   -0.6380   22.0760 O   0  0  0  0  0  0  0  0  0  0  0  0
   11.5820   -1.6580   22.9940 C   0  0  0  0  0  0  0  0  0  0  0  0
   10.4260   -1.4660   23.8470 C   0  0  0  0  0  0  0  0  0  0  0  0
   10.2050   -0.2430   24.5340 C   0  0  0  0  0  0  0  0  0  0  0  0
    8.6850    0.0120   25.6430 Br  0  0  0  0  0  0  0  0  0  0  0  0
    7.2980   -0.4980   21.0580 N   0  0  0  0  0  0  0  0  0  0  0  0
    6.5480    0.1030   20.0550 C   0  0  0  0  0  0  0  0  0  0  0  0
    5.3670    0.8160   20.3110 C   0  0  0  0  0  0  0  0  0  0  0  0
    4.6290    1.4650   19.1950 C   0  0  0  0  0  0  0  0  0  0  0  0
    5.1090    1.3680   17.8980 C   0  0  0  0  0  0  0  0  0  0  0  0
    6.2830    0.6320   17.7150 N   0  0  0  0  0  0  0  0  0  0  0  0
    6.9490    0.0400   18.7330 C   0  0  0  0  0  0  0  0  0  0  0  0
  1  2  2  0
  2  3  1  0
  3  4  1  0
  4  5  1  0
  5  6  1  0
  6  7  2  0
  7  8  1  0
  8  9  1  0
  8 10  2  0
 10 11  1  0
  6 12  1  0
 11 12  2  0
 12 13  1  0
  2 14  1  0
 14 15  1  0
 15 16  2  0
 16 17  1  0
 17 18  2  0
 18 19  1  0
 15 20  1  0
 19 20  2  0
M  END
