pyridine_urea_6488
     RDKit          3D

 22 22  0  0  0  0  0  0  0  0999 V2000
   13.2800    0.4150   22.7920 C   0  0  0  0  0  0  0  0  0  0  0  0
   12.4020    0.8020   23.4740 C   0  0  0  0  0  0  0  0  0  0  0  0
   11.0140    1.0000   24.0240 C   0  0  0  0  0  0  0  0  0  0  0  0
   10.0820    0.3850   23.0730 C   0  0  0  0  0  0  0  0  0  0  0  0
    9.5650   -0.8530   23.3970 C   0  0  1  0  0  0  0  0  0  0  0  0
    8.4060   -1.0730   22.5840 N   0  0  0  0  0  0  0  0  0  0  0  0
    8.0960   -0.2540   21.5280 C   0  0  0  0  0  0  0  0  0  0  0  0
    8.7310    0.7490   21.2260 O   0  0  0  0  0  0  0  0  0  0  0  0
    6.9770   -0.7140   20.8950 N   0  0  0  0  0  0  0  0  0  0  0  0
    6.2350    0.0330   19.9790 C   0  0  0  0  0  0  0  0  0  0  0  0
    5.0580    0.6300   20.3280 C   0  0  0  0  0  0  0  0  0  0  0  0
    4.5630    1.3480   19.0930 C   0  0  0  0  0  0  0  0  0  0  0  0
    5.2090    1.3640   17.8860 C   0  0  0  0  0  0  0  0  0  0  0  0
    6.3440    0.7440   17.6600 N   0  0  0  0  0  0  0  0  0  0  0  0
    6.8210    0.0960   18.7180 C   0  0  0  0  0  0  0  0  0  0  0  0
   10.8110   -1.6200   22.8700 C   0  0  0  0  0  0  0  0  0  0  0  0
   11.2840   -1.3930   21.5400 O   0  0  0  0  0  0  0  0  0  0  0  0
   11.3250   -2.5130   23.8500 O   0  0  0  0  0  0  0  0  0  0  0  0
   12.5880   -2.0550   24.2500 C   0  0  0  0  0  0  0  0  0  0  0  0
   13.2670   -3.0390   25.0760 C   0  0  0  0  0  0  0  0  0  0  0  0
   13.3340   -2.0790   22.9030 C   0  0  0  0  0  0  0  0  0  0  0  0
   12.7420   -0.8370   25.0160 C   0  0  0  0  0  0  0  0  0  0  0  0
  1  2  1  0
  2  3  1  0
  3  4  1  0
  5  4  1  6
  5  6  1  0
  6  7  1  0
  7  8  2  0
  7  9  1  0
  9 10  1  0
 10 11  2  0
 11 12  1  0
 12 13  2  0
 13 14  1  0
 10 15  1  0
 14 15  2  0
  5 16  1  0
 16 17  2  0
 16 18  1  0
 19 18  1  0
 19 20  1  0
 19 21  1  0
 19 22  1  0
M  END
