pyridine_urea_5959
     RDKit          3D

 26 28  0  0  0  0  0  0  0  0999 V2000
    8.8880   -1.5450   20.8570 O   0  0  0  0  0  0  0  0  0  0  0  0
    8.1930   -0.6690   21.2190 C   0  0  0  0  0  0  0  0  0  0  0  0
    6.7580   -0.6680   21.0630 N   0  0  0  0  0  0  0  0  0  0  0  0
    6.2320    0.0310   20.0040 C   0  0  0  0  0  0  0  0  0  0  0  0
    5.0590    0.7630   20.1750 C   0  0  0  0  0  0  0  0  0  0  0  0
    4.5530    1.4650   19.0870 C   0  0  0  0  0  0  0  0  0  0  0  0
    5.2370    1.4100   17.8700 C   0  0  0  0  0  0  0  0  0  0  0  0
    6.3640    0.7020   17.7000 N   0  0  0  0  0  0  0  0  0  0  0  0
    6.8400    0.0250   18.7690 C   0  0  0  0  0  0  0  0  0  0  0  0
    8.6570    0.3970   21.8540 N   0  0  0  0  0  0  0  0  0  0  0  0
    9.2090    0.0080   23.0880 C   0  0  0  0  0  0  0  0  0  0  0  0
   10.6530    0.1800   23.4480 C   0  0  0  0  0  0  0  0  0  0  0  0
   10.9240   -0.0190   24.7760 C   0  0  0  0  0  0  0  0  0  0  0  0
    9.8890   -0.3800   25.6940 C   0  0  0  0  0  0  0  0  0  0  0  0
   10.1200   -0.0410   27.0510 O   0  0  0  0  0  0  0  0  0  0  0  0
    8.7390   -1.0000   25.3120 N   0  0  0  0  0  0  0  0  0  0  0  0
    7.7580   -1.3870   26.3250 C   0  0  0  0  0  0  0  0  0  0  0  0
    7.6270   -0.2200   27.0730 C   0  0  0  0  0  0  0  0  0  0  0  0
    7.6360    1.0090   26.4200 C   0  0  0  0  0  0  0  0  0  0  0  0
    7.5030    2.1970   27.1460 C   0  0  0  0  0  0  0  0  0  0  0  0
    7.3640    2.1250   28.5310 C   0  0  0  0  0  0  0  0  0  0  0  0
    7.2430    3.3200   29.1650 F   0  0  0  0  0  0  0  0  0  0  0  0
    7.3520    0.9080   29.2070 C   0  0  0  0  0  0  0  0  0  0  0  0
    7.4850   -0.2770   28.4690 C   0  0  0  0  0  0  0  0  0  0  0  0
    7.4630   -1.4370   29.1850 F   0  0  0  0  0  0  0  0  0  0  0  0
    8.2590   -0.6320   24.1230 C   0  0  0  0  0  0  0  0  0  0  0  0
  1  2  2  0
  2  3  1  0
  3  4  1  0
  4  5  2  0
  5  6  1  0
  6  7  2  0
  7  8  1  0
  4  9  1  0
  8  9  2  0
  2 10  1  0
 10 11  1  0
 11 12  1  0
 12 13  2  0
 13 14  1  0
 14 15  2  0
 14 16  1  0
 16 17  1  0
 17 18  1  0
 18 19  2  0
 19 20  1  0
 20 21  2  0
 21 22  1  0
 21 23  1  0
 18 24  1  0
 23 24  2  0
 24 25  1  0
 11 26  2  0
 16 26  1  0
M  END
