pyridine_urea_12103
     RDKit          3D

 23 25  0  0  0  0  0  0  0  0999 V2000
   10.5560   -1.9590   23.8040 C   0  0  0  0  0  0  0  0  0  0  0  0
    9.8770   -1.1320   22.7400 C   0  0  1  0  0  0  0  0  0  0  0  0
    8.5340   -1.4850   22.4110 N   0  0  0  0  0  0  0  0  0  0  0  0
    8.0200   -0.5910   21.5020 C   0  0  0  0  0  0  0  0  0  0  0  0
    8.6330    0.4070   21.1450 O   0  0  0  0  0  0  0  0  0  0  0  0
    6.7870   -0.9150   21.0420 N   0  0  0  0  0  0  0  0  0  0  0  0
    6.2440   -0.1410   19.9520 C   0  0  0  0  0  0  0  0  0  0  0  0
    5.0770    0.5770   20.1210 C   0  0  0  0  0  0  0  0  0  0  0  0
    4.4990    1.3620   19.1180 C   0  0  0  0  0  0  0  0  0  0  0  0
    5.1600    1.4040   17.8900 C   0  0  0  0  0  0  0  0  0  0  0  0
    6.3180    0.6900   17.7070 N   0  0  0  0  0  0  0  0  0  0  0  0
    6.8610   -0.0810   18.7280 C   0  0  0  0  0  0  0  0  0  0  0  0
    9.8520    0.3470   22.9620 C   0  0  0  0  0  0  0  0  0  0  0  0
    8.7710    1.2150   23.1680 C   0  0  0  0  0  0  0  0  0  0  0  0
    8.9490    2.6130   23.3210 C   0  0  0  0  0  0  0  0  0  0  0  0
   10.2440    3.1830   23.2670 C   0  0  0  0  0  0  0  0  0  0  0  0
   10.4330    4.5130   23.4060 F   0  0  0  0  0  0  0  0  0  0  0  0
   11.2740    2.2620   23.0670 C   0  0  0  0  0  0  0  0  0  0  0  0
   12.7380    2.3970   22.9480 C   0  0  0  0  0  0  0  0  0  0  0  0
   13.6550    1.1840   22.7400 C   0  0  0  0  0  0  0  0  0  0  0  0
   13.0380   -0.0260   22.6790 C   0  0  0  0  0  0  0  0  0  0  0  0
   12.1470    0.7700   22.8340 C   0  0  0  0  0  0  0  0  0  0  0  0
   10.9710    0.9910   22.9500 C   0  0  0  0  0  0  0  0  0  0  0  0
  2  1  1  1
  2  3  1  0
  3  4  1  0
  4  5  2  0
  4  6  1  0
  6  7  1  0
  7  8  2  0
  8  9  1  0
  9 10  2  0
 10 11  1  0
  7 12  1  0
 11 12  2  0
  2 13  1  0
 13 14  2  0
 14 15  1  0
 15 16  2  0
 16 17  1  0
 16 18  1  0
 18 19  1  0
 19 20  2  0
 20 21  1  0
 21 22  2  0
 13 23  1  0
 18 23  2  0
 22 23  1  0
M  END
