pyridine_urea_13916
     RDKit          3D

 24 25  0  0  0  0  0  0  0  0999 V2000
    8.9090    0.0590   27.1930 C   0  0  0  0  0  0  0  0  0  0  0  0
   10.1910   -0.0100   26.5970 O   0  0  0  0  0  0  0  0  0  0  0  0
   10.1510   -0.2670   25.2030 C   0  0  0  0  0  0  0  0  0  0  0  0
    9.4310   -1.0610   24.5500 C   0  0  0  0  0  0  0  0  0  0  0  0
   10.1720   -0.5880   23.3200 C   0  0  0  0  0  0  0  0  0  0  0  0
   10.1930   -0.8240   22.0830 C   0  0  0  0  0  0  0  0  0  0  0  0
    9.5250   -1.2200   23.3970 C   0  0  0  0  0  0  0  0  0  0  0  0
   10.6380    0.0040   23.8930 C   0  0  0  0  0  0  0  0  0  0  0  0
   10.7070   -0.1260   22.5860 C   0  0  1  0  0  0  0  0  0  0  0  0
    9.7080    1.0030   22.5640 C   0  0  0  0  0  0  0  0  0  0  0  0
    8.3620    0.4220   22.6110 N   0  0  0  0  0  0  0  0  0  0  0  0
    7.9540   -0.2990   21.5260 C   0  0  0  0  0  0  0  0  0  0  0  0
    8.8590   -0.9640   20.7280 O   0  0  0  0  0  0  0  0  0  0  0  0
    6.6260   -0.2840   21.2790 N   0  0  0  0  0  0  0  0  0  0  0  0
    6.1630    0.2480   20.0810 C   0  0  0  0  0  0  0  0  0  0  0  0
    5.0000    0.9770   20.1300 C   0  0  0  0  0  0  0  0  0  0  0  0
    4.2230    1.7080   19.0290 C   0  0  0  0  0  0  0  0  0  0  0  0
    5.1710    1.3530   17.8860 C   0  0  0  0  0  0  0  0  0  0  0  0
    6.3070    0.6400   17.8060 N   0  0  0  0  0  0  0  0  0  0  0  0
    6.7900    0.0930   18.8970 C   0  0  0  0  0  0  0  0  0  0  0  0
   11.9990    0.0580   22.1080 O   0  0  0  0  0  0  0  0  0  0  0  0
   12.6550   -1.0870   22.4520 C   0  0  0  0  0  0  0  0  0  0  0  0
   13.4540   -0.4670   23.3360 C   0  0  0  0  0  0  0  0  0  0  0  0
   13.1440   -1.7280   21.3150 C   0  0  0  0  0  0  0  0  0  0  0  0
  1  2  1  0
  2  3  1  0
  3  4  2  0
  4  5  1  0
  5  6  2  0
  6  7  1  0
  3  8  1  0
  7  8  2  0
  8  9  1  0
  9 10  1  6
 10 11  1  0
 11 12  1  0
 12 13  2  0
 12 14  1  0
 14 15  1  0
 15 16  2  0
 16 17  1  0
 17 18  2  0
 18 19  1  0
 15 20  1  0
 19 20  2  0
  9 21  1  0
 21 22  1  0
 22 23  1  0
 22 24  1  0
M  END
