pyridine_urea_14499
     RDKit          3D

 21 22  0  0  0  0  0  0  0  0999 V2000
    8.8430    0.7960   21.2740 O   0  0  0  0  0  0  0  0  0  0  0  0
    8.4240   -0.3500   21.3440 C   0  0  0  0  0  0  0  0  0  0  0  0
    9.2540   -1.4400   21.8360 N   0  0  0  0  0  0  0  0  0  0  0  0
   10.4110   -1.0620   22.5100 C   0  0  0  0  0  0  0  0  0  0  0  0
   11.6390   -1.6300   22.1520 C   0  0  0  0  0  0  0  0  0  0  0  0
   12.6700   -0.8960   22.7450 C   0  0  0  0  0  0  0  0  0  0  0  0
   12.2870   -0.2640   23.9330 C   0  0  0  0  0  0  0  0  0  0  0  0
   11.3600    0.9220   23.8470 C   0  0  0  0  0  0  0  0  0  0  0  0
   10.1040    0.5880   24.3960 N   0  0  0  0  0  0  0  0  0  0  0  0
    8.8310    0.9660   23.9410 C   0  0  0  0  0  0  0  0  0  0  0  0
    7.7700    1.3340   24.9540 C   0  0  0  0  0  0  0  0  0  0  0  0
    8.1290    1.0300   26.2450 C   0  0  0  0  0  0  0  0  0  0  0  0
    9.1120    0.0510   26.4440 C   0  0  0  0  0  0  0  0  0  0  0  0
   10.0770   -0.3160   25.4600 C   0  0  0  0  0  0  0  0  0  0  0  0
    7.1620   -0.7360   20.9700 N   0  0  0  0  0  0  0  0  0  0  0  0
    6.4490   -0.0600   20.0440 C   0  0  0  0  0  0  0  0  0  0  0  0
    5.2690    0.6530   20.2490 C   0  0  0  0  0  0  0  0  0  0  0  0
    4.6020    1.3480   19.2270 C   0  0  0  0  0  0  0  0  0  0  0  0
    5.1480    1.3240   17.9500 C   0  0  0  0  0  0  0  0  0  0  0  0
    6.2880    0.6380   17.7060 N   0  0  0  0  0  0  0  0  0  0  0  0
    6.9390   -0.0600   18.7580 C   0  0  0  0  0  0  0  0  0  0  0  0
  1  2  2  0
  2  3  1  0
  3  4  1  0
  4  5  1  0
  5  6  1  0
  6  7  1  0
  7  8  1  0
  8  9  1  0
  9 10  1  0
 10 11  1  0
 11 12  1  0
 12 13  1  0
  9 14  1  0
 13 14  1  0
  2 15  1  0
 15 16  1  0
 16 17  2  0
 17 18  1  0
 18 19  2  0
 19 20  1  0
 16 21  1  0
 20 21  2  0
M  END
