pyridine_urea_14606
     RDKit          3D

 21 23  0  0  0  0  0  0  0  0999 V2000
    8.7630    1.4000   21.1190 O   0  0  0  0  0  0  0  0  0  0  0  0
    8.6220    0.2020   21.3760 C   0  0  0  0  0  0  0  0  0  0  0  0
    7.4800   -0.4950   21.0080 N   0  0  0  0  0  0  0  0  0  0  0  0
    6.5940    0.0860   20.0800 C   0  0  0  0  0  0  0  0  0  0  0  0
    5.4020    0.7490   20.3740 C   0  0  0  0  0  0  0  0  0  0  0  0
    4.6440    1.3020   19.3380 C   0  0  0  0  0  0  0  0  0  0  0  0
    5.1100    1.1690   18.0470 C   0  0  0  0  0  0  0  0  0  0  0  0
    6.2410    0.5300   17.7330 N   0  0  0  0  0  0  0  0  0  0  0  0
    6.9460    0.0080   18.7480 C   0  0  0  0  0  0  0  0  0  0  0  0
    9.6000   -0.5400   22.0340 N   0  0  0  0  0  0  0  0  0  0  0  0
   10.5290    0.1030   22.9120 C   0  0  1  0  0  0  0  0  0  0  0  0
   10.2590   -0.0590   24.3080 C   0  0  0  0  0  0  0  0  0  0  0  0
   11.2370   -0.8080   25.1210 C   0  0  0  0  0  0  0  0  0  0  0  0
   11.4440   -2.4420   24.2970 S   0  0  0  0  0  0  0  0  0  0  0  0
   10.5730   -1.2580   23.5060 C   0  0  0  0  0  0  0  0  0  0  0  0
   10.7040   -0.2380   22.9270 C   0  0  0  0  0  0  0  0  0  0  0  0
   11.5530    0.6800   22.4490 F   0  0  0  0  0  0  0  0  0  0  0  0
   11.9440   -1.1360   23.4410 C   0  0  0  0  0  0  0  0  0  0  0  0
   13.0230   -0.5470   23.1390 C   0  0  0  0  0  0  0  0  0  0  0  0
   12.9240    0.5040   22.6020 C   0  0  0  0  0  0  0  0  0  0  0  0
   11.8790   -0.5450   23.1410 C   0  0  0  0  0  0  0  0  0  0  0  0
  1  2  2  0
  2  3  1  0
  3  4  1  0
  4  5  2  0
  5  6  1  0
  6  7  2  0
  7  8  1  0
  4  9  1  0
  8  9  2  0
  2 10  1  0
 11 10  1  6
 11 12  1  0
 12 13  1  0
 13 14  1  0
 14 15  1  0
 15 16  2  0
 16 17  1  0
 16 18  1  0
 18 19  2  0
 19 20  1  0
 11 21  1  0
 15 21  1  0
 20 21  2  0
M  END
