pyridine_urea_2908
     RDKit          3D

 22 24  0  0  0  0  0  0  0  0999 V2000
    9.0550   -0.1560   21.3990 O   0  0  0  0  0  0  0  0  0  0  0  0
    7.8740   -0.2000   21.6960 C   0  0  0  0  0  0  0  0  0  0  0  0
    7.3360    0.4010   22.8170 N   0  0  0  0  0  0  0  0  0  0  0  0
    7.8380    1.7260   23.1460 C   0  0  0  0  0  0  0  0  0  0  0  0
    9.3510    1.5090   23.0950 C   0  0  0  0  0  0  0  0  0  0  0  0
    9.4730    0.0920   23.5640 N   0  0  0  0  0  0  0  0  0  0  0  0
   10.7800   -0.4740   23.5210 C   0  0  0  0  0  0  0  0  0  0  0  0
   10.8820   -1.9580   23.8840 C   0  0  0  0  0  0  0  0  0  0  0  0
   12.1130   -2.5470   23.8450 C   0  0  0  0  0  0  0  0  0  0  0  0
   13.3190   -1.7330   23.4360 C   0  0  0  0  0  0  0  0  0  0  0  0
   13.2650   -0.2520   23.0660 C   0  0  0  0  0  0  0  0  0  0  0  0
   11.8680    0.2930   23.1620 C   0  0  0  0  0  0  0  0  0  0  0  0
   11.7110    1.7850   22.8390 C   0  0  0  0  0  0  0  0  0  0  0  0
   12.7850    2.6140   22.7440 O   0  0  0  0  0  0  0  0  0  0  0  0
   10.4210    2.2950   22.6840 N   0  0  0  0  0  0  0  0  0  0  0  0
    6.8870   -0.7880   20.9780 N   0  0  0  0  0  0  0  0  0  0  0  0
    6.3260   -0.0820   19.9290 C   0  0  0  0  0  0  0  0  0  0  0  0
    5.0350    0.6770   20.1150 C   0  0  0  0  0  0  0  0  0  0  0  0
    4.5160    1.3850   19.0620 C   0  0  0  0  0  0  0  0  0  0  0  0
    5.1720    1.3990   17.8440 C   0  0  0  0  0  0  0  0  0  0  0  0
    6.3280    0.7190   17.6510 N   0  0  0  0  0  0  0  0  0  0  0  0
    6.8730    0.0050   18.6710 C   0  0  0  0  0  0  0  0  0  0  0  0
  1  2  2  0
  2  3  1  0
  3  4  1  0
  4  5  1  0
  5  6  2  0
  6  7  1  0
  7  8  2  0
  8  9  1  0
  9 10  2  0
 10 11  1  0
  7 12  1  0
 11 12  2  0
 12 13  1  0
 13 14  2  0
  5 15  1  0
 13 15  1  0
  2 16  1  0
 16 17  1  0
 17 18  2  0
 18 19  1  0
 19 20  2  0
 20 21  1  0
 17 22  1  0
 21 22  2  0
M  END
