pyridine_urea_13412
     RDKit          3D

 21 22  0  0  0  0  0  0  0  0999 V2000
   13.4460   -1.9130   25.3580 C   0  0  0  0  0  0  0  0  0  0  0  0
   13.2470   -0.4870   25.3980 O   0  0  0  0  0  0  0  0  0  0  0  0
   12.5370    0.0220   24.3640 C   0  0  0  0  0  0  0  0  0  0  0  0
   12.8330    0.9530   23.6140 O   0  0  0  0  0  0  0  0  0  0  0  0
   11.3160   -0.7980   24.3260 C   0  0  1  0  0  0  0  0  0  0  0  0
   10.1910   -0.0940   23.6090 C   0  0  0  0  0  0  0  0  0  0  0  0
    9.6800   -1.0910   22.6510 C   0  0  1  0  0  0  0  0  0  0  0  0
    9.0240   -0.9270   21.4080 N   0  0  0  0  0  0  0  0  0  0  0  0
    8.2480    0.1570   21.2150 C   0  0  0  0  0  0  0  0  0  0  0  0
    8.7770    1.5170   21.1510 O   0  0  0  0  0  0  0  0  0  0  0  0
    6.8790   -0.2500   21.0710 N   0  0  0  0  0  0  0  0  0  0  0  0
    6.2990    0.2800   19.9860 C   0  0  0  0  0  0  0  0  0  0  0  0
    5.1290    1.0160   20.1340 C   0  0  0  0  0  0  0  0  0  0  0  0
    4.5350    1.5960   19.0370 C   0  0  0  0  0  0  0  0  0  0  0  0
    5.1480    1.4120   17.8160 C   0  0  0  0  0  0  0  0  0  0  0  0
    6.2660    0.7010   17.6270 N   0  0  0  0  0  0  0  0  0  0  0  0
    6.8200    0.1460   18.7170 C   0  0  0  0  0  0  0  0  0  0  0  0
   10.6750   -2.0100   22.2530 C   0  0  0  0  0  0  0  0  0  0  0  0
   11.7590   -2.3360   23.5080 S   0  0  0  0  0  0  0  0  0  0  0  0
   11.2730   -3.4390   24.3100 O   0  0  0  0  0  0  0  0  0  0  0  0
   13.0950   -2.3070   22.9390 O   0  0  0  0  0  0  0  0  0  0  0  0
  1  2  1  0
  2  3  1  0
  3  4  2  0
  5  3  1  6
  5  6  1  0
  6  7  1  0
  7  8  1  6
  8  9  1  0
  9 10  2  0
  9 11  1  0
 11 12  1  0
 12 13  2  0
 13 14  1  0
 14 15  2  0
 15 16  1  0
 12 17  1  0
 16 17  2  0
  7 18  1  0
  5 19  1  0
 19 18  1  0
 19 20  2  0
 19 21  2  0
M  END
