pyridine_urea_4454
     RDKit          3D

 23 24  0  0  0  0  0  0  0  0999 V2000
    8.8060    1.6420   21.1430 O   0  0  0  0  0  0  0  0  0  0  0  0
    8.2300    0.7010   21.6910 C   0  0  0  0  0  0  0  0  0  0  0  0
    8.5890    0.2790   22.9330 N   0  0  0  0  0  0  0  0  0  0  0  0
    9.7910   -0.4490   22.8620 C   0  0  0  0  0  0  0  0  0  0  0  0
    9.6350   -1.2510   21.5800 C   0  0  0  0  0  0  0  0  0  0  0  0
    8.8620   -2.3640   21.7370 O   0  0  0  0  0  0  0  0  0  0  0  0
    9.8640   -2.6580   22.5990 C   0  0  0  0  0  0  0  0  0  0  0  0
   10.9360   -1.6760   22.2090 C   0  0  0  0  0  0  0  0  0  0  0  0
   12.2020   -1.6490   22.9260 C   0  0  0  0  0  0  0  0  0  0  0  0
   12.2940   -2.6570   24.0170 C   0  0  0  0  0  0  0  0  0  0  0  0
   13.4160   -2.6860   24.7020 C   0  0  0  0  0  0  0  0  0  0  0  0
   14.2430   -2.8060   23.6770 F   0  0  0  0  0  0  0  0  0  0  0  0
   13.5280   -1.5220   25.3360 F   0  0  0  0  0  0  0  0  0  0  0  0
   13.5890   -3.7010   25.5540 F   0  0  0  0  0  0  0  0  0  0  0  0
   11.1730   -3.6220   24.3400 C   0  0  0  0  0  0  0  0  0  0  0  0
   10.0060   -3.5710   23.6120 C   0  0  0  0  0  0  0  0  0  0  0  0
    7.2050   -0.0580   21.1740 N   0  0  0  0  0  0  0  0  0  0  0  0
    6.4350    0.4180   20.1260 C   0  0  0  0  0  0  0  0  0  0  0  0
    5.2610    1.1360   20.3020 C   0  0  0  0  0  0  0  0  0  0  0  0
    4.5710    1.6090   19.0870 C   0  0  0  0  0  0  0  0  0  0  0  0
    5.1290    1.3110   17.8590 C   0  0  0  0  0  0  0  0  0  0  0  0
    6.2540    0.6040   17.7110 N   0  0  0  0  0  0  0  0  0  0  0  0
    6.8710    0.1780   18.8290 C   0  0  0  0  0  0  0  0  0  0  0  0
  1  2  2  0
  2  3  1  0
  3  4  1  0
  4  5  1  0
  5  6  1  0
  6  7  1  0
  7  8  2  0
  8  9  1  0
  9 10  2  0
 10 11  1  0
 11 12  1  0
 11 13  1  0
 11 14  1  0
 10 15  1  0
  7 16  1  0
 15 16  2  0
  2 17  1  0
 17 18  1  0
 18 19  2  0
 19 20  1  0
 20 21  2  0
 21 22  1  0
 18 23  1  0
 22 23  2  0
M  END
