pyridine_urea_2921
     RDKit          3D

 22 24  0  0  0  0  0  0  0  0999 V2000
    9.0210    1.2330   21.2870 O   0  0  0  0  0  0  0  0  0  0  0  0
    8.5290    0.1360   21.5860 C   0  0  0  0  0  0  0  0  0  0  0  0
    9.1190   -0.7340   22.4820 N   0  0  0  0  0  0  0  0  0  0  0  0
    9.3560   -2.0810   22.0010 C   0  0  0  0  0  0  0  0  0  0  0  0
    8.6470   -3.2200   22.8170 C   0  0  0  0  0  0  0  0  0  0  0  0
    8.4980   -3.2860   24.2650 N   0  0  0  0  0  0  0  0  0  0  0  0
    7.8050   -4.5530   24.4040 C   0  0  0  0  0  0  0  0  0  0  0  0
    7.4870   -5.0110   25.8150 C   0  0  0  0  0  0  0  0  0  0  0  0
    8.5470   -5.3310   26.6310 C   0  0  0  0  0  0  0  0  0  0  0  0
    8.3300   -5.7910   28.0490 C   0  0  0  0  0  0  0  0  0  0  0  0
    6.9390   -5.9340   28.6620 C   0  0  0  0  0  0  0  0  0  0  0  0
    5.8150   -5.5610   27.6930 C   0  0  0  0  0  0  0  0  0  0  0  0
    6.1670   -5.1030   26.2710 C   0  0  0  0  0  0  0  0  0  0  0  0
    7.5350   -5.1730   23.2170 N   0  0  0  0  0  0  0  0  0  0  0  0
    8.0600   -4.3550   22.1810 O   0  0  0  0  0  0  0  0  0  0  0  0
    7.3520   -0.3910   21.1090 N   0  0  0  0  0  0  0  0  0  0  0  0
    6.6340    0.1640   20.0490 C   0  0  0  0  0  0  0  0  0  0  0  0
    5.4030    0.9990   20.3090 C   0  0  0  0  0  0  0  0  0  0  0  0
    4.7240    1.5530   19.2520 C   0  0  0  0  0  0  0  0  0  0  0  0
    5.1680    1.3440   17.9620 C   0  0  0  0  0  0  0  0  0  0  0  0
    6.2570    0.5940   17.6890 N   0  0  0  0  0  0  0  0  0  0  0  0
    6.9570    0.0250   18.7150 C   0  0  0  0  0  0  0  0  0  0  0  0
  1  2  2  0
  2  3  1  0
  3  4  1  0
  4  5  1  0
  5  6  2  0
  6  7  1  0
  7  8  1  0
  8  9  2  0
  9 10  1  0
 10 11  2  0
 11 12  1  0
  8 13  1  0
 12 13  2  0
  7 14  2  0
  5 15  1  0
 14 15  1  0
  2 16  1  0
 16 17  1  0
 17 18  2  0
 18 19  1  0
 19 20  2  0
 20 21  1  0
 17 22  1  0
 21 22  2  0
M  END
