pyridine_urea_5451
     RDKit          3D

 18 18  0  0  0  0  0  0  0  0999 V2000
   12.1390    4.5770   23.2680 C   0  0  0  0  0  0  0  0  0  0  0  0
   12.3750    3.2230   22.5980 C   0  0  0  0  0  0  0  0  0  0  0  0
   11.2910    1.8870   23.1030 S   0  0  0  0  0  0  0  0  0  0  0  0
   10.9880    2.0460   24.4820 O   0  0  0  0  0  0  0  0  0  0  0  0
   10.1870    1.8560   22.1940 O   0  0  0  0  0  0  0  0  0  0  0  0
   12.2770    0.3990   22.9090 C   0  0  0  0  0  0  0  0  0  0  0  0
   11.6390   -0.8350   22.6830 C   0  0  0  0  0  0  0  0  0  0  0  0
   10.2080   -0.9050   23.2550 C   0  0  0  0  0  0  0  0  0  0  0  0
    9.2400   -1.2210   22.3000 N   0  0  0  0  0  0  0  0  0  0  0  0
    8.4740   -0.3030   21.5490 C   0  0  0  0  0  0  0  0  0  0  0  0
    8.8670    0.8170   21.2920 O   0  0  0  0  0  0  0  0  0  0  0  0
    7.2290   -0.7910   21.1190 N   0  0  0  0  0  0  0  0  0  0  0  0
    6.5240   -0.0870   20.0280 C   0  0  0  0  0  0  0  0  0  0  0  0
    5.2380    0.6400   20.4800 C   0  0  0  0  0  0  0  0  0  0  0  0
    4.5620    1.3780   19.3180 C   0  0  0  0  0  0  0  0  0  0  0  0
    5.1760    1.3270   17.9400 C   0  0  0  0  0  0  0  0  0  0  0  0
    6.3180    0.6280   17.7070 N   0  0  0  0  0  0  0  0  0  0  0  0
    6.9660   -0.0580   18.7200 C   0  0  0  0  0  0  0  0  0  0  0  0
  1  2  1  0
  3  2  1  0
  3  4  2  0
  3  5  2  0
  3  6  1  0
  6  7  1  0
  7  8  1  0
  8  9  1  0
  9 10  1  0
 10 11  2  0
 10 12  1  0
 12 13  1  0
 13 14  2  0
 14 15  1  0
 15 16  2  0
 16 17  1  0
 13 18  1  0
 17 18  2  0
M  END
