pyridine_urea_2561
     RDKit          3D

 24 26  0  0  0  0  0  0  0  0999 V2000
    8.5930    0.7290   21.3230 O   0  0  0  0  0  0  0  0  0  0  0  0
    8.4090   -0.4760   21.3210 C   0  0  0  0  0  0  0  0  0  0  0  0
    7.2240   -1.0160   20.9110 N   0  0  0  0  0  0  0  0  0  0  0  0
    6.4890   -0.2700   19.9710 C   0  0  0  0  0  0  0  0  0  0  0  0
    5.2730    0.3400   20.3110 C   0  0  0  0  0  0  0  0  0  0  0  0
    4.5800    1.0930   19.3540 C   0  0  0  0  0  0  0  0  0  0  0  0
    5.1310    1.2100   18.0910 C   0  0  0  0  0  0  0  0  0  0  0  0
    6.2910    0.6300   17.7480 N   0  0  0  0  0  0  0  0  0  0  0  0
    6.9320   -0.0890   18.6860 C   0  0  0  0  0  0  0  0  0  0  0  0
    9.4410   -1.3150   21.7170 N   0  0  0  0  0  0  0  0  0  0  0  0
   10.3770   -0.3720   22.3250 C   0  0  0  0  0  0  0  0  0  0  0  0
   11.8590   -0.5940   22.5830 C   0  0  0  0  0  0  0  0  0  0  0  0
   12.4960    0.6630   22.9670 C   0  0  0  0  0  0  0  0  0  0  0  0
   11.7180    1.8360   22.7530 N   0  0  0  0  0  0  0  0  0  0  0  0
   11.9380    3.1400   23.1680 C   0  0  0  0  0  0  0  0  0  0  0  0
   11.2500    3.6050   24.0610 O   0  0  0  0  0  0  0  0  0  0  0  0
   12.7820    4.1240   22.6440 C   0  0  0  0  0  0  0  0  0  0  0  0
   13.2550    5.0270   23.5460 C   0  0  0  0  0  0  0  0  0  0  0  0
   12.3040    5.7070   24.3220 C   0  0  0  0  0  0  0  0  0  0  0  0
   11.4760    6.4470   23.5210 C   0  0  0  0  0  0  0  0  0  0  0  0
   11.1400    5.7810   22.3450 C   0  0  0  0  0  0  0  0  0  0  0  0
   12.1580    4.9700   21.7750 C   0  0  0  0  0  0  0  0  0  0  0  0
   10.3450    1.6450   22.9980 C   0  0  0  0  0  0  0  0  0  0  0  0
    9.8990    0.3940   23.2830 C   0  0  0  0  0  0  0  0  0  0  0  0
  1  2  2  0
  2  3  1  0
  3  4  1  0
  4  5  2  0
  5  6  1  0
  6  7  2  0
  7  8  1  0
  4  9  1  0
  8  9  2  0
  2 10  1  0
 10 11  1  0
 11 12  1  0
 12 13  1  0
 13 14  1  0
 14 15  1  0
 15 16  2  0
 15 17  1  0
 17 18  1  0
 18 19  1  0
 19 20  1  0
 20 21  1  0
 17 22  1  0
 21 22  1  0
 14 23  1  0
 11 24  1  0
 23 24  1  0
M  END
