pyridine_urea_14372
     RDKit          3D

 22 23  0  0  0  0  0  0  0  0999 V2000
   13.2790   -2.5390   23.7550 C   0  0  0  0  0  0  0  0  0  0  0  0
   12.3230   -1.8950   24.7050 C   0  0  0  0  0  0  0  0  0  0  0  0
   12.5990   -0.6220   25.1150 C   0  0  0  0  0  0  0  0  0  0  0  0
   10.9260   -1.7720   24.0840 C   0  0  0  0  0  0  0  0  0  0  0  0
   10.7720   -2.6540   23.0460 C   0  0  0  0  0  0  0  0  0  0  0  0
   11.0020   -2.1810   21.9710 O   0  0  0  0  0  0  0  0  0  0  0  0
   11.4400   -0.9360   22.3280 C   0  0  0  0  0  0  0  0  0  0  0  0
   12.8630   -0.5130   22.4570 C   0  0  0  0  0  0  0  0  0  0  0  0
   13.1180    0.8930   22.8880 C   0  0  0  0  0  0  0  0  0  0  0  0
   12.0380    1.7100   23.1440 C   0  0  0  0  0  0  0  0  0  0  0  0
   10.7270    1.2460   22.9910 C   0  0  0  0  0  0  0  0  0  0  0  0
   10.4410   -0.0380   22.5910 C   0  0  0  0  0  0  0  0  0  0  0  0
    9.1070   -0.4460   22.4310 N   0  0  0  0  0  0  0  0  0  0  0  0
    8.3560    0.2140   21.5040 C   0  0  0  0  0  0  0  0  0  0  0  0
    8.7120    1.3270   21.1020 O   0  0  0  0  0  0  0  0  0  0  0  0
    7.2340   -0.4510   21.0970 N   0  0  0  0  0  0  0  0  0  0  0  0
    6.5150    0.0960   20.0410 C   0  0  0  0  0  0  0  0  0  0  0  0
    5.3410    0.7880   20.2850 C   0  0  0  0  0  0  0  0  0  0  0  0
    4.5980    1.3800   19.2750 C   0  0  0  0  0  0  0  0  0  0  0  0
    5.0950    1.2450   17.9860 C   0  0  0  0  0  0  0  0  0  0  0  0
    6.2200    0.5760   17.6970 N   0  0  0  0  0  0  0  0  0  0  0  0
    6.9030    0.0150   18.7210 C   0  0  0  0  0  0  0  0  0  0  0  0
  1  2  1  0
  2  3  1  0
  2  4  1  0
  4  5  1  0
  5  6  1  0
  6  7  1  0
  7  8  2  0
  8  9  1  0
  9 10  2  0
 10 11  1  0
  7 12  1  0
 11 12  2  0
 12 13  1  0
 13 14  1  0
 14 15  2  0
 14 16  1  0
 16 17  1  0
 17 18  2  0
 18 19  1  0
 19 20  2  0
 20 21  1  0
 17 22  1  0
 21 22  2  0
M  END
