pyridine_urea_3176
     RDKit          3D

 20 21  0  0  0  0  0  0  0  0999 V2000
    8.9080    1.2240   21.1860 O   0  0  0  0  0  0  0  0  0  0  0  0
    8.3350    0.2100   21.6120 C   0  0  0  0  0  0  0  0  0  0  0  0
    8.5430   -0.4020   22.8180 N   0  0  0  0  0  0  0  0  0  0  0  0
    9.7680   -0.8300   23.3250 C   0  0  0  0  0  0  0  0  0  0  0  0
   10.7920    0.0970   23.3390 C   0  0  0  0  0  0  0  0  0  0  0  0
   12.1050    0.7920   23.1450 C   0  0  0  0  0  0  0  0  0  0  0  0
   12.8680   -0.2290   22.4200 N   0  0  0  0  0  0  0  0  0  0  0  0
   12.2610   -1.3340   22.1600 N   0  0  0  0  0  0  0  0  0  0  0  0
   12.9190   -2.2010   21.5220 C   0  0  0  0  0  0  0  0  0  0  0  0
   12.1420   -2.9040   20.7240 F   0  0  0  0  0  0  0  0  0  0  0  0
   13.8180   -1.5950   20.7290 F   0  0  0  0  0  0  0  0  0  0  0  0
   13.5110   -3.0480   22.3940 F   0  0  0  0  0  0  0  0  0  0  0  0
   11.0620   -1.2750   22.6410 C   0  0  0  0  0  0  0  0  0  0  0  0
    7.3570   -0.4600   20.9240 N   0  0  0  0  0  0  0  0  0  0  0  0
    6.5550    0.1480   20.0040 C   0  0  0  0  0  0  0  0  0  0  0  0
    5.2610    0.9140   20.2880 C   0  0  0  0  0  0  0  0  0  0  0  0
    4.5940    1.4810   19.2110 C   0  0  0  0  0  0  0  0  0  0  0  0
    5.1430    1.3180   17.9540 C   0  0  0  0  0  0  0  0  0  0  0  0
    6.2740    0.6380   17.6850 N   0  0  0  0  0  0  0  0  0  0  0  0
    6.9330    0.0840   18.6860 C   0  0  0  0  0  0  0  0  0  0  0  0
  1  2  2  0
  2  3  1  0
  3  4  1  0
  4  5  1  0
  5  6  1  0
  6  7  2  0
  7  8  1  0
  8  9  1  0
  9 10  1  0
  9 11  1  0
  9 12  1  0
  5 13  2  0
  8 13  1  0
  2 14  1  0
 14 15  1  0
 15 16  2  0
 16 17  1  0
 17 18  2  0
 18 19  1  0
 15 20  1  0
 19 20  2  0
M  END
