pyridine_urea_2962
     RDKit          3D

 21 22  0  0  0  0  0  0  0  0999 V2000
   12.0570    3.2250   22.6150 C   0  0  0  0  0  0  0  0  0  0  0  0
   11.2050    3.1900   23.7560 O   0  0  0  0  0  0  0  0  0  0  0  0
   10.2120    2.1490   23.7260 C   0  0  0  0  0  0  0  0  0  0  0  0
    9.2140    2.1020   24.4290 O   0  0  0  0  0  0  0  0  0  0  0  0
   10.5400    1.0340   22.6570 C   0  0  0  0  0  0  0  0  0  0  0  0
   10.1610   -0.2840   22.9130 C   0  0  1  0  0  0  0  0  0  0  0  0
    8.8810   -0.6850   22.5220 N   0  0  0  0  0  0  0  0  0  0  0  0
    8.1560   -0.1490   21.4950 C   0  0  0  0  0  0  0  0  0  0  0  0
    8.4480    0.9530   21.0610 O   0  0  0  0  0  0  0  0  0  0  0  0
    7.1250   -0.8620   21.0190 N   0  0  0  0  0  0  0  0  0  0  0  0
    6.4400   -0.1520   20.0930 C   0  0  0  0  0  0  0  0  0  0  0  0
    5.1390    0.6300   20.3640 C   0  0  0  0  0  0  0  0  0  0  0  0
    4.4680    1.4130   19.2380 C   0  0  0  0  0  0  0  0  0  0  0  0
    5.2040    1.3190   17.9220 C   0  0  0  0  0  0  0  0  0  0  0  0
    6.3470    0.5990   17.7650 N   0  0  0  0  0  0  0  0  0  0  0  0
    6.9500   -0.1150   18.8030 C   0  0  0  0  0  0  0  0  0  0  0  0
   11.2350   -1.1770   22.3130 C   0  0  0  0  0  0  0  0  0  0  0  0
   12.6050   -0.6180   22.6520 C   0  0  0  0  0  0  0  0  0  0  0  0
   12.7340   -0.6330   24.0270 C   0  0  0  0  0  0  0  0  0  0  0  0
   11.7120    0.1320   24.6650 O   0  0  0  0  0  0  0  0  0  0  0  0
   10.4020   -0.3660   24.4270 C   0  0  0  0  0  0  0  0  0  0  0  0
  1  2  1  0
  2  3  1  0
  3  4  2  0
  3  5  1  0
  6  5  1  6
  6  7  1  0
  7  8  1  0
  8  9  2  0
  8 10  1  0
 10 11  1  0
 11 12  2  0
 12 13  1  0
 13 14  2  0
 14 15  1  0
 11 16  1  0
 15 16  2  0
  6 17  1  0
 17 18  1  0
 18 19  1  0
 19 20  1  0
  6 21  1  0
 20 21  1  0
M  END
