pyridine_urea_9328
     RDKit          3D

 18 19  0  0  0  0  0  0  0  0999 V2000
    7.9050   -4.4110   23.1070 C   0  0  0  0  0  0  0  0  0  0  0  0
    7.8220   -2.9550   22.7240 C   0  0  2  0  0  0  0  0  0  0  0  0
    9.0290   -2.2440   22.6280 C   0  0  0  0  0  0  0  0  0  0  0  0
    8.9910   -0.8200   22.6080 N   0  0  0  0  0  0  0  0  0  0  0  0
    8.5020    0.0170   21.6040 C   0  0  0  0  0  0  0  0  0  0  0  0
    9.0080    1.1030   21.2730 O   0  0  0  0  0  0  0  0  0  0  0  0
    7.3510   -0.5120   21.0420 N   0  0  0  0  0  0  0  0  0  0  0  0
    6.5950    0.1010   20.0340 C   0  0  0  0  0  0  0  0  0  0  0  0
    5.4400    0.8100   20.4070 C   0  0  0  0  0  0  0  0  0  0  0  0
    4.6840    1.4400   19.4250 C   0  0  0  0  0  0  0  0  0  0  0  0
    5.1750    1.3140   17.9850 C   0  0  0  0  0  0  0  0  0  0  0  0
    6.2730    0.6210   17.6840 N   0  0  0  0  0  0  0  0  0  0  0  0
    6.9470    0.0400   18.6990 C   0  0  0  0  0  0  0  0  0  0  0  0
    6.7670   -2.4580   23.4090 N   0  0  0  0  0  0  0  0  0  0  0  0
    5.6000   -1.8160   23.3520 C   0  0  0  0  0  0  0  0  0  0  0  0
    5.1320   -1.7120   24.6360 C   0  0  0  0  0  0  0  0  0  0  0  0
    6.1010   -2.3340   25.4150 C   0  0  0  0  0  0  0  0  0  0  0  0
    7.1460   -2.8150   24.6730 N   0  0  0  0  0  0  0  0  0  0  0  0
  2  1  1  1
  2  3  1  0
  3  4  1  0
  4  5  1  0
  5  6  2  0
  5  7  1  0
  7  8  1  0
  8  9  2  0
  9 10  1  0
 10 11  2  0
 11 12  1  0
  8 13  1  0
 12 13  2  0
  2 14  1  0
 14 15  1  0
 15 16  2  0
 16 17  1  0
 14 18  1  0
 17 18  2  0
M  END
