pyridine_urea_10564
     RDKit          3D

 21 23  0  0  0  0  0  0  0  0999 V2000
    8.6690    0.7800   21.3750 O   0  0  0  0  0  0  0  0  0  0  0  0
    8.3510   -0.4010   21.4050 C   0  0  0  0  0  0  0  0  0  0  0  0
    7.1610   -0.8850   20.9350 N   0  0  0  0  0  0  0  0  0  0  0  0
    6.3920   -0.1340   20.0410 C   0  0  0  0  0  0  0  0  0  0  0  0
    5.0720    0.5770   20.3790 C   0  0  0  0  0  0  0  0  0  0  0  0
    4.4580    1.3450   19.2090 C   0  0  0  0  0  0  0  0  0  0  0  0
    5.1900    1.3190   17.9040 C   0  0  0  0  0  0  0  0  0  0  0  0
    6.3420    0.6510   17.7250 N   0  0  0  0  0  0  0  0  0  0  0  0
    6.8860   -0.0280   18.7520 C   0  0  0  0  0  0  0  0  0  0  0  0
    9.1990   -1.3550   21.9150 N   0  0  0  0  0  0  0  0  0  0  0  0
   10.4820   -0.8470   22.3130 C   0  0  0  0  0  0  0  0  0  0  0  0
   10.6670   -0.8060   23.6690 C   0  0  0  0  0  0  0  0  0  0  0  0
   12.0160   -0.8990   23.8570 C   0  0  0  0  0  0  0  0  0  0  0  0
   12.7890   -0.0680   23.1660 N   0  0  0  0  0  0  0  0  0  0  0  0
   12.3320    1.2710   22.9790 C   0  0  0  0  0  0  0  0  0  0  0  0
   13.2600    2.3640   22.9280 N   0  0  0  0  0  0  0  0  0  0  0  0
   12.5280    3.4680   22.7500 N   0  0  0  0  0  0  0  0  0  0  0  0
   11.2570    3.1010   22.6920 C   0  0  0  0  0  0  0  0  0  0  0  0
   11.0720    1.7700   22.8270 N   0  0  0  0  0  0  0  0  0  0  0  0
   13.0360   -0.9560   22.1950 C   0  0  0  0  0  0  0  0  0  0  0  0
   11.7040   -1.6700   21.8680 C   0  0  0  0  0  0  0  0  0  0  0  0
  1  2  2  0
  2  3  1  0
  3  4  1  0
  4  5  2  0
  5  6  1  0
  6  7  2  0
  7  8  1  0
  4  9  1  0
  8  9  2  0
  2 10  1  0
 10 11  1  0
 11 12  1  0
 12 13  1  0
 13 14  1  0
 14 15  1  0
 15 16  2  0
 16 17  1  0
 17 18  2  0
 15 19  1  0
 18 19  1  0
 14 20  1  0
 11 21  1  0
 20 21  1  0
M  END
