pyridine_urea_10237
     RDKit          3D

 23 24  0  0  0  0  0  0  0  0999 V2000
   11.6230   -1.7490   22.3490 C   0  0  0  0  0  0  0  0  0  0  0  0
   10.4580   -0.7770   22.3430 C   0  0  1  0  0  0  0  0  0  0  0  0
    9.1280   -1.3540   22.4030 N   0  0  0  0  0  0  0  0  0  0  0  0
    8.2510   -0.4820   21.6160 C   0  0  0  0  0  0  0  0  0  0  0  0
    8.7470    0.8400   21.3930 O   0  0  0  0  0  0  0  0  0  0  0  0
    7.0480   -0.9310   21.1300 N   0  0  0  0  0  0  0  0  0  0  0  0
    6.3920   -0.1680   20.0690 C   0  0  0  0  0  0  0  0  0  0  0  0
    5.2100    0.5310   20.3390 C   0  0  0  0  0  0  0  0  0  0  0  0
    4.5930    1.2740   19.3310 C   0  0  0  0  0  0  0  0  0  0  0  0
    5.2080    1.3240   17.9410 C   0  0  0  0  0  0  0  0  0  0  0  0
    6.3570    0.6190   17.7290 N   0  0  0  0  0  0  0  0  0  0  0  0
    6.9340   -0.1150   18.7770 C   0  0  0  0  0  0  0  0  0  0  0  0
   10.4280    0.5090   23.1160 C   0  0  0  0  0  0  0  0  0  0  0  0
   10.9060    1.5100   23.6180 C   0  0  0  0  0  0  0  0  0  0  0  0
   12.1990    1.3550   23.3110 C   0  0  0  0  0  0  0  0  0  0  0  0
   11.6230   -0.0230   22.6630 C   0  0  0  0  0  0  0  0  0  0  0  0
   12.8900    0.1170   22.5130 C   0  0  0  0  0  0  0  0  0  0  0  0
   11.9180    0.9230   23.0790 C   0  0  0  0  0  0  0  0  0  0  0  0
   12.2670    2.1400   23.6060 N   0  0  0  0  0  0  0  0  0  0  0  0
   11.6040    3.5820   22.9730 S   0  0  0  0  0  0  0  0  0  0  0  0
   12.9850    4.3020   22.1200 C   0  0  0  0  0  0  0  0  0  0  0  0
   11.2660    4.4810   24.0500 O   0  0  0  0  0  0  0  0  0  0  0  0
   10.6160    3.1630   22.0110 O   0  0  0  0  0  0  0  0  0  0  0  0
  2  1  1  1
  2  3  1  0
  3  4  1  0
  4  5  2  0
  4  6  1  0
  6  7  1  0
  7  8  2  0
  8  9  1  0
  9 10  2  0
 10 11  1  0
  7 12  1  0
 11 12  2  0
  2 13  1  0
 13 14  2  0
 14 15  1  0
 15 16  2  0
 16 17  1  0
 13 18  1  0
 17 18  2  0
 18 19  1  0
 20 19  1  0
 20 21  1  0
 20 22  2  0
 20 23  2  0
M  END
