pyridine_urea_9874
     RDKit          3D

 25 27  0  0  0  0  0  0  0  0999 V2000
    8.4360    1.8700   22.8810 C   0  0  0  0  0  0  0  0  0  0  0  0
    9.7840    1.1380   22.7990 C   0  0  0  0  0  0  0  0  0  0  0  0
   10.9370    1.9400   23.0500 C   0  0  0  0  0  0  0  0  0  0  0  0
   12.2830    1.3430   23.0020 C   0  0  0  0  0  0  0  0  0  0  0  0
   13.0300    2.2610   23.2470 O   0  0  0  0  0  0  0  0  0  0  0  0
   12.7660    3.4800   22.5030 C   0  0  0  0  0  0  0  0  0  0  0  0
   12.0990    4.5620   23.3510 C   0  0  0  0  0  0  0  0  0  0  0  0
   12.6400    5.9900   23.3290 C   0  0  0  0  0  0  0  0  0  0  0  0
   11.9490    6.8730   24.1470 C   0  0  0  0  0  0  0  0  0  0  0  0
   10.8540    6.5340   24.9350 C   0  0  0  0  0  0  0  0  0  0  0  0
   10.3020    5.2660   25.0070 C   0  0  0  0  0  0  0  0  0  0  0  0
   10.9340    4.2460   24.1930 N   0  0  0  0  0  0  0  0  0  0  0  0
   12.8240   -0.1000   22.7180 C   0  0  0  0  0  0  0  0  0  0  0  0
   11.5620   -0.7840   22.4670 C   0  0  0  0  0  0  0  0  0  0  0  0
   10.1400   -0.2650   22.4850 C   0  0  0  0  0  0  0  0  0  0  0  0
    9.1190   -1.1070   22.1730 N   0  0  0  0  0  0  0  0  0  0  0  0
    8.1750   -0.4320   21.3660 C   0  0  0  0  0  0  0  0  0  0  0  0
    8.4450    0.8380   20.9540 O   0  0  0  0  0  0  0  0  0  0  0  0
    7.0420   -1.0590   21.0270 N   0  0  0  0  0  0  0  0  0  0  0  0
    6.4350   -0.3220   20.0550 C   0  0  0  0  0  0  0  0  0  0  0  0
    5.2490    0.3660   20.3090 C   0  0  0  0  0  0  0  0  0  0  0  0
    4.6150    1.1330   19.3490 C   0  0  0  0  0  0  0  0  0  0  0  0
    5.1910    1.2180   18.0840 C   0  0  0  0  0  0  0  0  0  0  0  0
    6.3380    0.5670   17.7920 N   0  0  0  0  0  0  0  0  0  0  0  0
    6.9250   -0.1780   18.7670 C   0  0  0  0  0  0  0  0  0  0  0  0
  1  2  1  0
  2  3  2  0
  3  4  1  0
  4  5  1  0
  5  6  1  0
  6  7  1  0
  7  8  2  0
  8  9  1  0
  9 10  2  0
 10 11  1  0
  7 12  1  0
 11 12  2  0
  4 13  2  0
 13 14  1  0
  2 15  1  0
 14 15  2  0
 15 16  1  0
 16 17  1  0
 17 18  2  0
 17 19  1  0
 19 20  1  0
 20 21  2  0
 21 22  1  0
 22 23  2  0
 23 24  1  0
 20 25  1  0
 24 25  2  0
M  END
