pyridine_urea_6549
     RDKit          3D

 22 23  0  0  0  0  0  0  0  0999 V2000
   12.7710    1.2300   22.9190 C   0  0  0  0  0  0  0  0  0  0  0  0
   12.8620   -0.2670   22.5200 C   0  0  0  0  0  0  0  0  0  0  0  0
   11.4280   -0.8900   22.3530 C   0  0  0  0  0  0  0  0  0  0  0  0
   10.3470    0.1480   22.6730 C   0  0  1  0  0  0  0  0  0  0  0  0
    8.9950   -0.3490   22.5220 N   0  0  0  0  0  0  0  0  0  0  0  0
    8.3020    0.2300   21.4860 C   0  0  0  0  0  0  0  0  0  0  0  0
    8.6300    1.3260   21.0200 O   0  0  0  0  0  0  0  0  0  0  0  0
    7.2580   -0.5300   21.0860 N   0  0  0  0  0  0  0  0  0  0  0  0
    6.5180    0.0720   20.1350 C   0  0  0  0  0  0  0  0  0  0  0  0
    5.3480    0.7970   20.3540 C   0  0  0  0  0  0  0  0  0  0  0  0
    4.6490    1.4030   19.3070 C   0  0  0  0  0  0  0  0  0  0  0  0
    5.1490    1.2680   18.0280 C   0  0  0  0  0  0  0  0  0  0  0  0
    6.2540    0.5890   17.6900 N   0  0  0  0  0  0  0  0  0  0  0  0
    6.9260    0.0040   18.7050 C   0  0  0  0  0  0  0  0  0  0  0  0
   10.8940    0.3910   24.0530 C   0  0  1  0  0  0  0  0  0  0  0  0
    9.8900    0.2630   25.0470 O   0  0  0  0  0  0  0  0  0  0  0  0
   11.8110   -0.6340   24.0490 C   0  0  0  0  0  0  0  0  0  0  0  0
   12.6290   -0.9310   25.2550 C   0  0  0  0  0  0  0  0  0  0  0  0
   13.4890   -1.9780   25.1740 C   0  0  0  0  0  0  0  0  0  0  0  0
   13.6110   -2.7160   24.0260 C   0  0  0  0  0  0  0  0  0  0  0  0
   12.9050   -2.4820   22.8780 C   0  0  0  0  0  0  0  0  0  0  0  0
   11.9860   -1.4730   22.7880 C   0  0  0  0  0  0  0  0  0  0  0  0
  1  2  1  0
  2  3  1  0
  4  3  1  1
  4  5  1  0
  5  6  1  0
  6  7  2  0
  6  8  1  0
  8  9  1  0
  9 10  2  0
 10 11  1  0
 11 12  2  0
 12 13  1  0
  9 14  1  0
 13 14  2  0
  4 15  1  0
 15 16  1  1
 15 17  1  0
 17 18  2  0
 18 19  1  0
 19 20  2  0
 20 21  1  0
 17 22  1  0
 21 22  2  0
M  END
