pyridine_urea_12971
     RDKit          3D

 19 20  0  0  0  0  0  0  0  0999 V2000
    8.8700    1.0970   21.2250 O   0  0  0  0  0  0  0  0  0  0  0  0
    8.3210    0.0150   21.4910 C   0  0  0  0  0  0  0  0  0  0  0  0
    8.8540   -0.8900   22.3590 N   0  0  0  0  0  0  0  0  0  0  0  0
   10.2760   -1.0750   22.3400 C   0  0  0  0  0  0  0  0  0  0  0  0
   10.8900   -0.2540   23.4610 C   0  0  1  0  0  0  0  0  0  0  0  0
   10.1360   -0.7710   24.5850 O   0  0  0  0  0  0  0  0  0  0  0  0
   12.2530   -0.3570   23.7180 C   0  0  0  0  0  0  0  0  0  0  0  0
   12.6280   -1.4080   24.5550 C   0  0  0  0  0  0  0  0  0  0  0  0
   13.1810   -2.4810   23.8820 C   0  0  0  0  0  0  0  0  0  0  0  0
   12.6630   -2.6130   22.7910 O   0  0  0  0  0  0  0  0  0  0  0  0
   12.8730   -1.5100   21.9040 C   0  0  0  0  0  0  0  0  0  0  0  0
   12.9620   -0.2980   22.5760 C   0  0  0  0  0  0  0  0  0  0  0  0
    7.1370   -0.4560   21.0070 N   0  0  0  0  0  0  0  0  0  0  0  0
    6.4540    0.1500   19.9890 C   0  0  0  0  0  0  0  0  0  0  0  0
    5.2820    0.8500   20.2890 C   0  0  0  0  0  0  0  0  0  0  0  0
    4.5910    1.4900   19.2560 C   0  0  0  0  0  0  0  0  0  0  0  0
    5.1590    1.3830   17.8800 C   0  0  0  0  0  0  0  0  0  0  0  0
    6.2760    0.6940   17.6380 N   0  0  0  0  0  0  0  0  0  0  0  0
    6.8840    0.1040   18.6820 C   0  0  0  0  0  0  0  0  0  0  0  0
  1  2  2  0
  2  3  1  0
  3  4  1  0
  4  5  1  0
  5  6  1  1
  5  7  1  0
  7  8  1  0
  8  9  1  0
  9 10  1  0
 10 11  1  0
  7 12  1  0
 11 12  1  0
  2 13  1  0
 13 14  1  0
 14 15  2  0
 15 16  1  0
 16 17  2  0
 17 18  1  0
 14 19  1  0
 18 19  2  0
M  END
