pyridine_urea_7965
     RDKit          3D

 25 27  0  0  0  0  0  0  0  0999 V2000
   12.8990    1.8340   22.8590 C   0  0  0  0  0  0  0  0  0  0  0  0
   12.4330    0.4280   22.9220 C   0  0  0  0  0  0  0  0  0  0  0  0
   13.3810   -0.6020   23.0390 N   0  0  0  0  0  0  0  0  0  0  0  0
   12.6540   -1.7160   23.0740 N   0  0  0  0  0  0  0  0  0  0  0  0
   13.3000   -2.8710   23.2050 C   0  0  0  0  0  0  0  0  0  0  0  0
   11.2010   -1.4710   22.9650 C   0  0  0  0  0  0  0  0  0  0  0  0
   10.2630   -2.4730   22.9660 N   0  0  0  0  0  0  0  0  0  0  0  0
    9.5460   -2.7000   24.1170 C   0  0  0  0  0  0  0  0  0  0  0  0
    8.2120   -2.3170   24.2830 C   0  0  0  0  0  0  0  0  0  0  0  0
    7.3830   -2.7550   23.3070 N   0  0  0  0  0  0  0  0  0  0  0  0
    6.0280   -2.5010   23.3980 C   0  0  0  0  0  0  0  0  0  0  0  0
    8.1180   -2.9300   22.1360 C   0  0  0  0  0  0  0  0  0  0  0  0
    9.4300   -2.4300   21.8950 C   0  0  0  0  0  0  0  0  0  0  0  0
   11.0610   -0.1310   22.8900 C   0  0  0  0  0  0  0  0  0  0  0  0
   10.0000    0.6800   22.8080 C   0  0  0  0  0  0  0  0  0  0  0  0
    8.8310    0.0590   22.5520 N   0  0  0  0  0  0  0  0  0  0  0  0
    8.1320    0.4510   21.4430 C   0  0  0  0  0  0  0  0  0  0  0  0
    8.5300    1.4900   20.9180 O   0  0  0  0  0  0  0  0  0  0  0  0
    7.0930   -0.2800   21.0280 N   0  0  0  0  0  0  0  0  0  0  0  0
    6.4040    0.2450   19.9720 C   0  0  0  0  0  0  0  0  0  0  0  0
    5.2290    0.9460   20.2200 C   0  0  0  0  0  0  0  0  0  0  0  0
    4.5820    1.4990   19.1310 C   0  0  0  0  0  0  0  0  0  0  0  0
    5.1200    1.3290   17.8770 C   0  0  0  0  0  0  0  0  0  0  0  0
    6.2290    0.6490   17.6120 N   0  0  0  0  0  0  0  0  0  0  0  0
    6.8500    0.1190   18.6760 C   0  0  0  0  0  0  0  0  0  0  0  0
  1  2  1  0
  2  3  2  0
  3  4  1  0
  4  5  1  0
  4  6  1  0
  6  7  1  0
  7  8  1  0
  8  9  1  0
  9 10  1  0
 10 11  1  0
 10 12  1  0
  7 13  1  0
 12 13  1  0
  2 14  1  0
  6 14  2  0
 14 15  1  0
 15 16  1  0
 16 17  1  0
 17 18  2  0
 17 19  1  0
 19 20  1  0
 20 21  2  0
 21 22  1  0
 22 23  2  0
 23 24  1  0
 20 25  1  0
 24 25  2  0
M  END
