pyridine_urea_10449
     RDKit          3D

 22 23  0  0  0  0  0  0  0  0999 V2000
   13.0470   -0.4280   22.3570 C   0  0  0  0  0  0  0  0  0  0  0  0
   11.6240   -1.0870   22.3370 C   0  0  0  0  0  0  0  0  0  0  0  0
   10.5990   -0.0040   22.7520 C   0  0  1  0  0  0  0  0  0  0  0  0
    9.1540   -0.4370   22.5430 N   0  0  0  0  0  0  0  0  0  0  0  0
    8.4650    0.2450   21.5570 C   0  0  0  0  0  0  0  0  0  0  0  0
    8.8470    1.3580   21.1780 O   0  0  0  0  0  0  0  0  0  0  0  0
    7.3560   -0.4240   21.0840 N   0  0  0  0  0  0  0  0  0  0  0  0
    6.5880    0.1250   20.0500 C   0  0  0  0  0  0  0  0  0  0  0  0
    5.4260    0.8180   20.3730 C   0  0  0  0  0  0  0  0  0  0  0  0
    4.6830    1.3830   19.3340 C   0  0  0  0  0  0  0  0  0  0  0  0
    5.1350    1.2300   18.0250 C   0  0  0  0  0  0  0  0  0  0  0  0
    6.2390    0.5580   17.7100 N   0  0  0  0  0  0  0  0  0  0  0  0
    6.9370    0.0220   18.7230 C   0  0  0  0  0  0  0  0  0  0  0  0
   10.8320    0.5610   24.1770 C   0  0  2  0  0  0  0  0  0  0  0  0
   11.3420    1.8650   24.0430 O   0  0  0  0  0  0  0  0  0  0  0  0
   11.8070   -0.4440   24.2950 C   0  0  0  0  0  0  0  0  0  0  0  0
   12.7240   -0.8090   25.3090 C   0  0  0  0  0  0  0  0  0  0  0  0
   13.5440   -2.0060   24.9400 C   0  0  0  0  0  0  0  0  0  0  0  0
   13.3800   -2.5920   23.7550 C   0  0  0  0  0  0  0  0  0  0  0  0
   12.4860   -2.2020   22.7880 C   0  0  0  0  0  0  0  0  0  0  0  0
   11.5890   -1.1090   22.9040 C   0  0  0  0  0  0  0  0  0  0  0  0
   10.7020   -0.7200   21.9750 F   0  0  0  0  0  0  0  0  0  0  0  0
  1  2  1  0
  3  2  1  1
  3  4  1  0
  4  5  1  0
  5  6  2  0
  5  7  1  0
  7  8  1  0
  8  9  2  0
  9 10  1  0
 10 11  2  0
 11 12  1  0
  8 13  1  0
 12 13  2  0
  3 14  1  0
 14 15  1  6
 14 16  1  0
 16 17  2  0
 17 18  1  0
 18 19  2  0
 19 20  1  0
 16 21  1  0
 20 21  2  0
 21 22  1  0
M  END
