pyridine_urea_10250
     RDKit          3D

 23 25  0  0  0  0  0  0  0  0999 V2000
    8.9820    1.2380   21.1170 O   0  0  0  0  0  0  0  0  0  0  0  0
    8.6250    0.0880   21.4030 C   0  0  0  0  0  0  0  0  0  0  0  0
    9.3880   -0.8100   22.1580 N   0  0  0  0  0  0  0  0  0  0  0  0
   10.4830   -0.5010   23.0530 C   0  0  0  0  0  0  0  0  0  0  0  0
   11.7570   -0.9430   22.7120 C   0  0  0  0  0  0  0  0  0  0  0  0
   11.9320   -2.1730   22.3480 C   0  0  0  0  0  0  0  0  0  0  0  0
   12.9080   -1.2460   22.4030 C   0  0  0  0  0  0  0  0  0  0  0  0
   11.8230   -0.2710   22.9520 C   0  0  0  0  0  0  0  0  0  0  0  0
   10.3040   -0.5190   23.3030 C   0  0  0  0  0  0  0  0  0  0  0  0
    9.7180   -1.7410   23.7260 C   0  0  0  0  0  0  0  0  0  0  0  0
    8.3380   -1.8110   24.0050 C   0  0  0  0  0  0  0  0  0  0  0  0
    7.5290   -0.6730   23.8690 C   0  0  0  0  0  0  0  0  0  0  0  0
    8.0590    0.5620   23.4560 C   0  0  0  0  0  0  0  0  0  0  0  0
    9.5240    0.6660   23.1530 C   0  0  0  0  0  0  0  0  0  0  0  0
   12.5400    1.0250   23.1170 C   0  0  0  0  0  0  0  0  0  0  0  0
   12.9640   -0.1180   22.7020 C   0  0  0  0  0  0  0  0  0  0  0  0
    7.4200   -0.4700   21.0170 N   0  0  0  0  0  0  0  0  0  0  0  0
    6.5770    0.1320   20.0730 C   0  0  0  0  0  0  0  0  0  0  0  0
    5.4030    0.8260   20.3460 C   0  0  0  0  0  0  0  0  0  0  0  0
    4.6670    1.3940   19.3130 C   0  0  0  0  0  0  0  0  0  0  0  0
    5.1380    1.2450   18.0300 C   0  0  0  0  0  0  0  0  0  0  0  0
    6.2570    0.5760   17.7240 N   0  0  0  0  0  0  0  0  0  0  0  0
    6.9430    0.0370   18.7460 C   0  0  0  0  0  0  0  0  0  0  0  0
  1  2  2  0
  2  3  1  0
  3  4  1  0
  4  5  1  0
  5  6  2  0
  6  7  1  0
  7  8  2  0
  8  9  1  0
  9 10  2  0
 10 11  1  0
 11 12  2  0
 12 13  1  0
  9 14  1  0
 13 14  2  0
  8 15  1  0
  5 16  1  0
 15 16  2  0
  2 17  1  0
 17 18  1  0
 18 19  2  0
 19 20  1  0
 20 21  2  0
 21 22  1  0
 18 23  1  0
 22 23  2  0
M  END
