pyridine_urea_359
     RDKit          3D

 26 29  0  0  0  0  0  0  0  0999 V2000
    8.8510    0.9000   21.2790 O   0  0  0  0  0  0  0  0  0  0  0  0
    8.4860   -0.1530   21.7870 C   0  0  0  0  0  0  0  0  0  0  0  0
    9.3360   -1.0760   22.3420 N   0  0  0  0  0  0  0  0  0  0  0  0
   10.7250   -0.7270   22.5400 C   0  0  0  0  0  0  0  0  0  0  0  0
   10.9320    0.7700   22.9130 C   0  0  0  0  0  0  0  0  0  0  0  0
   12.3620    1.1210   23.1040 C   0  0  0  0  0  0  0  0  0  0  0  0
   13.0830    0.0210   22.9010 C   0  0  0  0  0  0  0  0  0  0  0  0
   13.1290   -1.2550   22.6020 N   0  0  0  0  0  0  0  0  0  0  0  0
   11.8280   -1.6180   22.4120 C   0  0  0  0  0  0  0  0  0  0  0  0
    7.1720   -0.5440   21.8820 N   0  0  0  0  0  0  0  0  0  0  0  0
    6.1860    0.0410   20.9630 C   0  0  2  0  0  0  0  0  0  0  0  0
    4.9540   -0.1150   21.4950 C   0  0  0  0  0  0  0  0  0  0  0  0
    4.3250    1.0470   20.7390 C   0  0  0  0  0  0  0  0  0  0  0  0
    4.6660    1.0980   19.4280 C   0  0  0  0  0  0  0  0  0  0  0  0
    4.1250    1.8560   18.4740 N   0  0  0  0  0  0  0  0  0  0  0  0
    4.8170    1.5630   17.3580 N   0  0  0  0  0  0  0  0  0  0  0  0
    5.7350    0.6050   17.7860 C   0  0  0  0  0  0  0  0  0  0  0  0
    6.6800    0.0260   17.0640 C   0  0  0  0  0  0  0  0  0  0  0  0
    6.9870   -1.4680   17.1630 C   0  0  0  0  0  0  0  0  0  0  0  0
    8.1700   -1.4440   16.2250 C   0  0  0  0  0  0  0  0  0  0  0  0
    8.7440   -0.2640   15.4940 C   0  0  0  0  0  0  0  0  0  0  0  0
    9.8260   -0.2720   14.6880 F   0  0  0  0  0  0  0  0  0  0  0  0
    8.2050    0.8940   15.6140 C   0  0  0  0  0  0  0  0  0  0  0  0
    7.1890    1.0470   16.3850 C   0  0  0  0  0  0  0  0  0  0  0  0
    5.6430    0.3450   18.9710 N   0  0  0  0  0  0  0  0  0  0  0  0
    6.3330   -0.4630   19.6820 C   0  0  0  0  0  0  0  0  0  0  0  0
  1  2  2  0
  2  3  1  0
  3  4  1  0
  4  5  2  0
  5  6  1  0
  6  7  2  0
  7  8  1  0
  4  9  1  0
  8  9  2  0
  2 10  1  0
 11 10  1  1
 11 12  1  0
 12 13  1  0
 13 14  1  0
 14 15  2  0
 15 16  1  0
 16 17  2  0
 17 18  1  0
 18 19  2  0
 19 20  1  0
 20 21  2  0
 21 22  1  0
 21 23  1  0
 18 24  1  0
 23 24  2  0
 14 25  1  0
 17 25  1  0
 11 26  1  0
 25 26  1  0
M  END
