pyridine_urea_10925
     RDKit          3D

 19 20  0  0  0  0  0  0  0  0999 V2000
   10.0090   -1.8260   24.2530 C   0  0  0  0  0  0  0  0  0  0  0  0
   10.1240   -1.0630   22.9680 C   0  0  0  0  0  0  0  0  0  0  0  0
    8.9860   -1.3880   22.1440 N   0  0  0  0  0  0  0  0  0  0  0  0
    8.3550   -0.3530   21.5040 C   0  0  0  0  0  0  0  0  0  0  0  0
    8.8690    0.7420   21.3380 O   0  0  0  0  0  0  0  0  0  0  0  0
    7.0990   -0.7050   21.0840 N   0  0  0  0  0  0  0  0  0  0  0  0
    6.3850    0.0130   20.0090 C   0  0  0  0  0  0  0  0  0  0  0  0
    5.1910    0.6600   20.3520 C   0  0  0  0  0  0  0  0  0  0  0  0
    4.5010    1.3980   19.2440 C   0  0  0  0  0  0  0  0  0  0  0  0
    5.1690    1.3640   17.8890 C   0  0  0  0  0  0  0  0  0  0  0  0
    6.3170    0.7050   17.6620 N   0  0  0  0  0  0  0  0  0  0  0  0
    6.8640    0.0660   18.7170 C   0  0  0  0  0  0  0  0  0  0  0  0
   11.3560   -1.5540   22.2550 C   0  0  0  0  0  0  0  0  0  0  0  0
   12.5670   -0.9390   22.5580 C   0  0  0  0  0  0  0  0  0  0  0  0
   12.5800   -0.0440   23.6300 C   0  0  0  0  0  0  0  0  0  0  0  0
   13.2460   -0.5830   24.6370 F   0  0  0  0  0  0  0  0  0  0  0  0
   13.2670    1.0400   23.2480 F   0  0  0  0  0  0  0  0  0  0  0  0
   11.4200    0.5410   24.1160 C   0  0  0  0  0  0  0  0  0  0  0  0
   10.3860    0.4090   23.2690 C   0  0  0  0  0  0  0  0  0  0  0  0
  1  2  1  0
  2  3  1  0
  3  4  1  0
  4  5  2  0
  4  6  1  0
  6  7  1  0
  7  8  2  0
  8  9  1  0
  9 10  2  0
 10 11  1  0
  7 12  1  0
 11 12  2  0
  2 13  1  0
 13 14  1  0
 14 15  1  0
 15 16  1  0
 15 17  1  0
 15 18  1  0
  2 19  1  0
 18 19  1  0
M  END
