pyridine_urea_737
     RDKit          3D

 23 25  0  0  0  0  0  0  0  0999 V2000
    8.9700    1.4150   21.1710 O   0  0  0  0  0  0  0  0  0  0  0  0
    8.3700    0.4820   21.7100 C   0  0  0  0  0  0  0  0  0  0  0  0
    8.6410   -0.0090   22.9720 N   0  0  0  0  0  0  0  0  0  0  0  0
    9.9070   -0.2510   23.5370 C   0  0  0  0  0  0  0  0  0  0  0  0
   10.8740    0.7180   23.6040 C   0  0  0  0  0  0  0  0  0  0  0  0
   12.0560    1.3450   23.4870 C   0  0  0  0  0  0  0  0  0  0  0  0
   13.0170    0.6590   22.9660 C   0  0  0  0  0  0  0  0  0  0  0  0
   12.7610   -0.6090   22.5830 C   0  0  0  0  0  0  0  0  0  0  0  0
   12.0580   -1.9590   22.2970 C   0  0  0  0  0  0  0  0  0  0  0  0
   10.6740   -2.1130   22.8170 N   0  0  0  0  0  0  0  0  0  0  0  0
    9.6750   -2.0760   21.7650 C   0  0  0  0  0  0  0  0  0  0  0  0
    8.3950   -2.3360   22.2110 C   0  0  0  0  0  0  0  0  0  0  0  0
    8.4880   -3.6330   22.7540 O   0  0  0  0  0  0  0  0  0  0  0  0
    8.9670   -3.4470   24.0050 C   0  0  0  0  0  0  0  0  0  0  0  0
   10.2540   -2.8280   23.9700 C   0  0  0  0  0  0  0  0  0  0  0  0
   11.5490   -0.4140   23.0020 O   0  0  0  0  0  0  0  0  0  0  0  0
    7.3100   -0.2120   21.1520 N   0  0  0  0  0  0  0  0  0  0  0  0
    6.6030    0.2790   19.9830 C   0  0  0  0  0  0  0  0  0  0  0  0
    5.4660    1.0710   20.2590 C   0  0  0  0  0  0  0  0  0  0  0  0
    4.7230    1.6210   19.2050 C   0  0  0  0  0  0  0  0  0  0  0  0
    5.1320    1.3690   17.9070 C   0  0  0  0  0  0  0  0  0  0  0  0
    6.2250    0.5910   17.6570 N   0  0  0  0  0  0  0  0  0  0  0  0
    6.9620    0.0420   18.6870 C   0  0  0  0  0  0  0  0  0  0  0  0
  1  2  2  0
  2  3  1  0
  3  4  1  0
  4  5  1  0
  5  6  2  0
  6  7  1  0
  7  8  2  0
  8  9  1  0
  9 10  1  0
 10 11  1  0
 11 12  1  0
 12 13  1  0
 13 14  1  0
 10 15  1  0
 14 15  1  0
  5 16  1  0
  8 16  1  0
  2 17  1  0
 17 18  1  0
 18 19  2  0
 19 20  1  0
 20 21  2  0
 21 22  1  0
 18 23  1  0
 22 23  2  0
M  END
