pyridine_urea_10402
     RDKit          3D

 23 24  0  0  0  0  0  0  0  0999 V2000
   12.1770    2.4710   22.8230 C   0  0  0  0  0  0  0  0  0  0  0  0
   11.2190    2.1530   23.8290 O   0  0  0  0  0  0  0  0  0  0  0  0
   10.9980    0.8070   23.9810 C   0  0  0  0  0  0  0  0  0  0  0  0
   10.4180    0.1900   22.6870 C   0  0  1  0  0  0  0  0  0  0  0  0
   10.9400   -1.1390   22.1120 C   0  0  0  0  0  0  0  0  0  0  0  0
   12.2680   -1.7540   22.3630 C   0  0  0  0  0  0  0  0  0  0  0  0
   11.8990   -1.4320   23.5290 C   0  0  0  0  0  0  0  0  0  0  0  0
   10.7880   -0.8110   23.8930 C   0  0  0  0  0  0  0  0  0  0  0  0
   11.1490   -0.8810   25.1210 C   0  0  0  0  0  0  0  0  0  0  0  0
   10.4960   -0.4330   26.2120 F   0  0  0  0  0  0  0  0  0  0  0  0
   12.4200   -1.5610   25.0520 C   0  0  0  0  0  0  0  0  0  0  0  0
   12.9610   -1.9820   23.7590 C   0  0  0  0  0  0  0  0  0  0  0  0
   14.1200   -2.6160   23.8350 F   0  0  0  0  0  0  0  0  0  0  0  0
    8.9420   -0.0670   22.7220 N   0  0  0  0  0  0  0  0  0  0  0  0
    8.2360    0.4240   21.5630 C   0  0  0  0  0  0  0  0  0  0  0  0
    8.6700    1.6470   20.9880 O   0  0  0  0  0  0  0  0  0  0  0  0
    7.2080   -0.3530   21.1190 N   0  0  0  0  0  0  0  0  0  0  0  0
    6.5060    0.1550   20.0390 C   0  0  0  0  0  0  0  0  0  0  0  0
    5.2200    0.9180   20.2810 C   0  0  0  0  0  0  0  0  0  0  0  0
    4.5660    1.4390   19.1950 C   0  0  0  0  0  0  0  0  0  0  0  0
    5.0980    1.2500   17.9260 C   0  0  0  0  0  0  0  0  0  0  0  0
    6.2270    0.5640   17.6880 N   0  0  0  0  0  0  0  0  0  0  0  0
    6.9020    0.0350   18.7300 C   0  0  0  0  0  0  0  0  0  0  0  0
  1  2  1  0
  2  3  1  0
  4  3  1  1
  4  5  1  0
  5  6  1  0
  6  7  2  0
  7  8  1  0
  8  9  2  0
  9 10  1  0
  9 11  1  0
  6 12  1  0
 11 12  2  0
 12 13  1  0
  4 14  1  0
 14 15  1  0
 15 16  2  0
 15 17  1  0
 17 18  1  0
 18 19  2  0
 19 20  1  0
 20 21  2  0
 21 22  1  0
 18 23  1  0
 22 23  2  0
M  END
