pyridine_urea_3677
     RDKit          3D

 20 22  0  0  0  0  0  0  0  0999 V2000
    8.6510    0.7760   21.2140 O   0  0  0  0  0  0  0  0  0  0  0  0
    8.0660   -0.1780   21.7020 C   0  0  0  0  0  0  0  0  0  0  0  0
    7.0430   -0.8370   21.0650 N   0  0  0  0  0  0  0  0  0  0  0  0
    6.4170   -0.0960   20.0070 C   0  0  0  0  0  0  0  0  0  0  0  0
    5.1360    0.6590   20.3450 C   0  0  0  0  0  0  0  0  0  0  0  0
    4.4740    1.4570   19.2240 C   0  0  0  0  0  0  0  0  0  0  0  0
    5.1860    1.4070   17.8740 C   0  0  0  0  0  0  0  0  0  0  0  0
    6.3580    0.6570   17.7290 N   0  0  0  0  0  0  0  0  0  0  0  0
    6.9380   -0.0550   18.7390 C   0  0  0  0  0  0  0  0  0  0  0  0
    8.3390   -0.7090   22.9520 N   0  0  0  0  0  0  0  0  0  0  0  0
    9.6820   -0.8020   23.3340 C   0  0  2  0  0  0  0  0  0  0  0  0
   10.1750   -0.2250   24.4620 C   0  0  0  0  0  0  0  0  0  0  0  0
   11.1570    0.4050   23.7460 C   0  0  1  0  0  0  0  0  0  0  0  0
   11.0810    1.6200   23.9030 O   0  0  0  0  0  0  0  0  0  0  0  0
   12.3950   -0.1150   23.8430 C   0  0  0  0  0  0  0  0  0  0  0  0
   12.8740    0.0680   24.9310 O   0  0  0  0  0  0  0  0  0  0  0  0
   13.1920    0.0840   22.7370 C   0  0  0  0  0  0  0  0  0  0  0  0
   13.2100   -1.1930   22.3370 C   0  0  0  0  0  0  0  0  0  0  0  0
   12.3590   -1.6660   23.4090 C   0  0  0  0  0  0  0  0  0  0  0  0
   10.6560   -0.0010   22.4650 C   0  0  0  0  0  0  0  0  0  0  0  0
  1  2  2  0
  2  3  1  0
  3  4  1  0
  4  5  2  0
  5  6  1  0
  6  7  2  0
  7  8  1  0
  4  9  1  0
  8  9  2  0
  2 10  1  0
 11 10  1  6
 11 12  1  0
 12 13  1  0
 13 14  1  6
 13 15  1  0
 15 16  1  0
 15 17  1  0
 17 18  1  0
 15 19  1  0
 18 19  1  0
 11 20  1  0
 13 20  1  0
M  END
