pyridine_urea_4697
     RDKit          3D

 22 24  0  0  0  0  0  0  0  0999 V2000
   11.7360    6.9680   24.7410 C   0  0  0  0  0  0  0  0  0  0  0  0
   12.1270    5.7490   23.8740 C   0  0  0  0  0  0  0  0  0  0  0  0
   13.1730    5.9000   22.8060 C   0  0  0  0  0  0  0  0  0  0  0  0
   13.3570    4.3450   22.0670 S   0  0  0  0  0  0  0  0  0  0  0  0
   12.1040    3.6180   23.1590 C   0  0  0  0  0  0  0  0  0  0  0  0
   11.7660    2.2520   23.0000 C   0  0  0  0  0  0  0  0  0  0  0  0
   10.4070    2.1480   23.0020 C   0  0  0  0  0  0  0  0  0  0  0  0
    9.7320    0.9900   22.8260 C   0  0  0  0  0  0  0  0  0  0  0  0
   10.3660   -0.2030   22.6200 C   0  0  0  0  0  0  0  0  0  0  0  0
    9.3350   -1.1890   22.3890 N   0  0  0  0  0  0  0  0  0  0  0  0
    8.4680   -0.4980   21.5340 C   0  0  0  0  0  0  0  0  0  0  0  0
    8.7840    0.6170   21.1550 O   0  0  0  0  0  0  0  0  0  0  0  0
    7.2410   -1.0440   21.1040 N   0  0  0  0  0  0  0  0  0  0  0  0
    6.5650   -0.3440   20.1000 C   0  0  0  0  0  0  0  0  0  0  0  0
    5.4040    0.3210   20.5230 C   0  0  0  0  0  0  0  0  0  0  0  0
    4.6760    1.0970   19.4590 C   0  0  0  0  0  0  0  0  0  0  0  0
    5.1440    1.1310   18.1640 C   0  0  0  0  0  0  0  0  0  0  0  0
    6.2610    0.4740   17.7870 N   0  0  0  0  0  0  0  0  0  0  0  0
    6.9620   -0.2610   18.7740 C   0  0  0  0  0  0  0  0  0  0  0  0
   11.7770   -0.2880   22.6280 C   0  0  0  0  0  0  0  0  0  0  0  0
   12.5370    1.0350   22.8340 C   0  0  0  0  0  0  0  0  0  0  0  0
   11.5390    4.5370   24.0620 N   0  0  0  0  0  0  0  0  0  0  0  0
  1  2  1  0
  2  3  2  0
  3  4  1  0
  4  5  1  0
  5  6  1  0
  6  7  2  0
  7  8  1  0
  8  9  2  0
  9 10  1  0
 10 11  1  0
 11 12  2  0
 11 13  1  0
 13 14  1  0
 14 15  2  0
 15 16  1  0
 16 17  2  0
 17 18  1  0
 14 19  1  0
 18 19  2  0
  9 20  1  0
  6 21  1  0
 20 21  2  0
  2 22  1  0
  5 22  2  0
M  END
