pyridine_urea_10420
     RDKit          3D

 22 23  0  0  0  0  0  0  0  0999 V2000
   13.2790   -1.6780   22.0710 C   0  0  0  0  0  0  0  0  0  0  0  0
   11.9970   -1.1220   22.2850 O   0  0  0  0  0  0  0  0  0  0  0  0
   11.0030   -1.8380   21.6990 C   0  0  0  0  0  0  0  0  0  0  0  0
   11.8770   -2.1090   20.8770 O   0  0  0  0  0  0  0  0  0  0  0  0
   10.3500   -1.2310   22.9520 C   0  0  2  0  0  0  0  0  0  0  0  0
    9.0000   -0.5470   22.7420 N   0  0  0  0  0  0  0  0  0  0  0  0
    8.5730    0.1440   21.6220 C   0  0  0  0  0  0  0  0  0  0  0  0
    9.1110    1.1920   21.2440 O   0  0  0  0  0  0  0  0  0  0  0  0
    7.4710   -0.4640   21.0480 N   0  0  0  0  0  0  0  0  0  0  0  0
    6.6830    0.1140   20.0400 C   0  0  0  0  0  0  0  0  0  0  0  0
    5.5520    0.8410   20.3920 C   0  0  0  0  0  0  0  0  0  0  0  0
    4.7880    1.4240   19.3940 C   0  0  0  0  0  0  0  0  0  0  0  0
    5.1620    1.2760   18.0710 C   0  0  0  0  0  0  0  0  0  0  0  0
    6.2370    0.5790   17.6970 N   0  0  0  0  0  0  0  0  0  0  0  0
    6.9730    0.0120   18.6860 C   0  0  0  0  0  0  0  0  0  0  0  0
   11.3710   -0.3300   23.7140 C   0  0  0  0  0  0  0  0  0  0  0  0
   11.2100    0.9080   23.4030 C   0  0  0  0  0  0  0  0  0  0  0  0
   12.0830    0.3730   24.2080 C   0  0  0  0  0  0  0  0  0  0  0  0
   11.3190   -1.1520   23.7820 C   0  0  0  0  0  0  0  0  0  0  0  0
   11.2340   -2.5520   23.9080 C   0  0  0  0  0  0  0  0  0  0  0  0
   12.2950   -1.4970   24.6620 C   0  0  0  0  0  0  0  0  0  0  0  0
   12.5930   -0.3540   24.7670 C   0  0  0  0  0  0  0  0  0  0  0  0
  1  2  1  0
  2  3  1  0
  3  4  2  0
  3  5  1  0
  5  6  1  6
  6  7  1  0
  7  8  2  0
  7  9  1  0
  9 10  1  0
 10 11  2  0
 11 12  1  0
 12 13  2  0
 13 14  1  0
 10 15  1  0
 14 15  2  0
  5 16  1  0
 16 17  2  0
 17 18  1  0
 18 19  2  0
 19 20  1  0
 19 21  1  0
 16 22  1  0
 21 22  2  0
M  END
