pyridine_urea_10050
     RDKit          3D

 24 26  0  0  0  0  0  0  0  0999 V2000
    8.6150    1.0390   21.2720 O   0  0  0  0  0  0  0  0  0  0  0  0
    8.2260   -0.1210   21.2800 C   0  0  0  0  0  0  0  0  0  0  0  0
    6.9500   -0.5230   20.9800 N   0  0  0  0  0  0  0  0  0  0  0  0
    6.2490    0.1440   19.9860 C   0  0  0  0  0  0  0  0  0  0  0  0
    5.0480    0.8140   20.1440 C   0  0  0  0  0  0  0  0  0  0  0  0
    4.4860    1.4560   19.0430 C   0  0  0  0  0  0  0  0  0  0  0  0
    5.1530    1.4000   17.8370 C   0  0  0  0  0  0  0  0  0  0  0  0
    6.3120    0.7460   17.6690 N   0  0  0  0  0  0  0  0  0  0  0  0
    6.8240    0.1390   18.7390 C   0  0  0  0  0  0  0  0  0  0  0  0
    9.0130   -1.1840   21.5670 N   0  0  0  0  0  0  0  0  0  0  0  0
    9.9040   -1.1120   22.6170 C   0  0  2  0  0  0  0  0  0  0  0  0
   11.1230   -1.6690   22.3270 C   0  0  0  0  0  0  0  0  0  0  0  0
   12.0760   -0.7240   22.4990 C   0  0  0  0  0  0  0  0  0  0  0  0
   11.9850    0.5390   22.7650 C   0  0  0  0  0  0  0  0  0  0  0  0
   11.0180    1.3660   22.9670 C   0  0  0  0  0  0  0  0  0  0  0  0
   12.4650    1.7800   22.9800 C   0  0  0  0  0  0  0  0  0  0  0  0
   13.5530    0.7920   22.7340 C   0  0  0  0  0  0  0  0  0  0  0  0
   13.3550   -0.6200   22.4700 C   0  0  0  0  0  0  0  0  0  0  0  0
    9.2340   -1.6750   23.8880 C   0  0  0  0  0  0  0  0  0  0  0  0
    8.6530   -0.7940   24.8340 O   0  0  0  0  0  0  0  0  0  0  0  0
    9.1940   -3.0640   24.0110 N   0  0  0  0  0  0  0  0  0  0  0  0
    8.1120   -3.8200   24.5180 C   0  0  0  0  0  0  0  0  0  0  0  0
    7.8620   -4.0010   25.7800 C   0  0  0  0  0  0  0  0  0  0  0  0
    8.6070   -5.0270   25.5320 C   0  0  0  0  0  0  0  0  0  0  0  0
  1  2  2  0
  2  3  1  0
  3  4  1  0
  4  5  2  0
  5  6  1  0
  6  7  2  0
  7  8  1  0
  4  9  1  0
  8  9  2  0
  2 10  1  0
 10 11  1  0
 11 12  1  6
 12 13  1  0
 13 14  2  0
 14 15  1  0
 15 16  2  0
 16 17  1  0
 13 18  1  0
 17 18  2  0
 11 19  1  0
 19 20  2  0
 19 21  1  0
 21 22  1  0
 22 23  1  0
 22 24  1  0
 23 24  1  0
M  END
