pyridine_urea_2737
     RDKit          3D

 22 24  0  0  0  0  0  0  0  0999 V2000
    8.7830    1.3560   21.0940 O   0  0  0  0  0  0  0  0  0  0  0  0
    8.4090    0.2910   21.6040 C   0  0  0  0  0  0  0  0  0  0  0  0
    7.3610   -0.4740   21.1050 N   0  0  0  0  0  0  0  0  0  0  0  0
    6.5790    0.1320   20.0540 C   0  0  0  0  0  0  0  0  0  0  0  0
    5.2820    0.9240   20.4080 C   0  0  0  0  0  0  0  0  0  0  0  0
    4.5860    1.5000   19.3560 C   0  0  0  0  0  0  0  0  0  0  0  0
    5.1650    1.3000   17.9550 C   0  0  0  0  0  0  0  0  0  0  0  0
    6.2870    0.5970   17.7030 N   0  0  0  0  0  0  0  0  0  0  0  0
    6.9540    0.0390   18.7330 C   0  0  0  0  0  0  0  0  0  0  0  0
    8.9650   -0.2840   22.7210 N   0  0  0  0  0  0  0  0  0  0  0  0
   10.4210   -0.1850   22.8470 C   0  0  1  0  0  0  0  0  0  0  0  0
   10.8130    0.8200   23.8820 C   0  0  0  0  0  0  0  0  0  0  0  0
   12.1230    1.0230   23.5090 C   0  0  0  0  0  0  0  0  0  0  0  0
   11.0670    2.2160   23.5660 C   0  0  0  0  0  0  0  0  0  0  0  0
   11.0630   -1.3700   23.0530 C   0  0  0  0  0  0  0  0  0  0  0  0
   10.7420   -2.2460   21.9040 C   0  0  0  0  0  0  0  0  0  0  0  0
   11.6360   -2.3260   21.0910 O   0  0  0  0  0  0  0  0  0  0  0  0
   10.5020   -2.0570   24.3130 C   0  0  0  0  0  0  0  0  0  0  0  0
   11.2900   -3.1710   24.4360 C   0  0  0  0  0  0  0  0  0  0  0  0
   12.4800   -2.7250   25.0600 O   0  0  0  0  0  0  0  0  0  0  0  0
   12.9870   -1.4930   24.5150 C   0  0  0  0  0  0  0  0  0  0  0  0
   12.4530   -1.2020   23.2600 C   0  0  0  0  0  0  0  0  0  0  0  0
  1  2  2  0
  2  3  1  0
  3  4  1  0
  4  5  2  0
  5  6  1  0
  6  7  2  0
  7  8  1  0
  4  9  1  0
  8  9  2  0
  2 10  1  0
 11 10  1  1
 11 12  1  0
 12 13  1  0
 12 14  1  0
 13 14  1  0
 11 15  1  0
 15 16  1  0
 16 17  1  0
 15 18  1  0
 18 19  1  0
 19 20  1  0
 20 21  1  0
 15 22  1  0
 21 22  1  0
M  END
