pyridine_urea_6715
     RDKit          3D

 22 23  0  0  0  0  0  0  0  0999 V2000
    8.7950    1.3650   21.0070 O   0  0  0  0  0  0  0  0  0  0  0  0
    8.1480    0.4020   21.4120 C   0  0  0  0  0  0  0  0  0  0  0  0
    7.2270   -0.3630   20.7780 N   0  0  0  0  0  0  0  0  0  0  0  0
    6.4000    0.2550   19.8920 C   0  0  0  0  0  0  0  0  0  0  0  0
    5.0630    0.9060   20.2430 C   0  0  0  0  0  0  0  0  0  0  0  0
    4.3890    1.5550   19.0460 C   0  0  0  0  0  0  0  0  0  0  0  0
    5.1050    1.4680   17.7370 C   0  0  0  0  0  0  0  0  0  0  0  0
    6.2730    0.8490   17.5670 N   0  0  0  0  0  0  0  0  0  0  0  0
    6.8640    0.2820   18.6080 C   0  0  0  0  0  0  0  0  0  0  0  0
    8.2690   -0.0410   22.6470 N   0  0  0  0  0  0  0  0  0  0  0  0
    9.5460   -0.3040   23.1110 C   0  0  0  0  0  0  0  0  0  0  0  0
    9.8110   -0.2280   24.3810 C   0  0  0  0  0  0  0  0  0  0  0  0
   10.9990   -0.5190   24.7850 C   0  0  0  0  0  0  0  0  0  0  0  0
   12.0720   -0.9030   24.0370 C   0  0  0  0  0  0  0  0  0  0  0  0
   13.2040   -1.1800   25.3170 S   0  0  0  0  0  0  0  0  0  0  0  0
   13.2100   -2.9140   24.8760 C   0  0  0  0  0  0  0  0  0  0  0  0
   11.9470   -3.3810   24.7250 F   0  0  0  0  0  0  0  0  0  0  0  0
   13.8500   -3.6640   25.7940 F   0  0  0  0  0  0  0  0  0  0  0  0
   13.8170   -3.0550   23.6760 F   0  0  0  0  0  0  0  0  0  0  0  0
   12.1240   -1.0480   22.4680 C   0  0  0  0  0  0  0  0  0  0  0  0
   13.1110   -1.4020   21.6320 F   0  0  0  0  0  0  0  0  0  0  0  0
   10.6500   -0.6920   22.1690 C   0  0  0  0  0  0  0  0  0  0  0  0
  1  2  2  0
  2  3  1  0
  3  4  1  0
  4  5  2  0
  5  6  1  0
  6  7  2  0
  7  8  1  0
  4  9  1  0
  8  9  2  0
  2 10  1  0
 10 11  1  0
 11 12  2  0
 12 13  1  0
 13 14  2  0
 14 15  1  0
 15 16  1  0
 16 17  1  0
 16 18  1  0
 16 19  1  0
 14 20  1  0
 20 21  1  0
 11 22  1  0
 20 22  2  0
M  END
