pyridine_urea_7930
     RDKit          3D

 25 27  0  0  0  0  0  0  0  0999 V2000
   13.5540   -1.1850   20.2370 C   0  0  0  0  0  0  0  0  0  0  0  0
   13.8420   -2.4870   20.5600 C   0  0  0  0  0  0  0  0  0  0  0  0
   14.5660   -3.4630   19.8000 C   0  0  0  0  0  0  0  0  0  0  0  0
   14.9660   -4.6000   20.0700 C   0  0  0  0  0  0  0  0  0  0  0  0
   14.6090   -4.6890   21.2190 C   0  0  0  0  0  0  0  0  0  0  0  0
   13.7530   -3.6210   22.0970 C   0  0  0  0  0  0  0  0  0  0  0  0
   13.4150   -2.5630   21.6360 C   0  0  0  0  0  0  0  0  0  0  0  0
   12.7020   -1.4770   22.2080 N   0  0  0  0  0  0  0  0  0  0  0  0
   13.2530   -0.3910   22.6880 N   0  0  0  0  0  0  0  0  0  0  0  0
   12.1940    0.3440   23.0180 C   0  0  0  0  0  0  0  0  0  0  0  0
   12.2920    1.5750   23.5240 C   0  0  0  0  0  0  0  0  0  0  0  0
   10.9960   -0.2730   22.7850 C   0  0  0  0  0  0  0  0  0  0  0  0
    9.7810    0.2830   23.0630 C   0  0  0  0  0  0  0  0  0  0  0  0
    8.7270   -0.3660   22.5480 N   0  0  0  0  0  0  0  0  0  0  0  0
    8.2080    0.1950   21.4340 C   0  0  0  0  0  0  0  0  0  0  0  0
    8.5830    1.2750   20.9640 O   0  0  0  0  0  0  0  0  0  0  0  0
    7.2140   -0.6120   20.9510 N   0  0  0  0  0  0  0  0  0  0  0  0
    6.4230    0.0660   20.0620 C   0  0  0  0  0  0  0  0  0  0  0  0
    5.2450    0.8240   20.3410 C   0  0  0  0  0  0  0  0  0  0  0  0
    4.6280    1.4150   19.2520 C   0  0  0  0  0  0  0  0  0  0  0  0
    5.3270    1.1130   18.1440 C   0  0  0  0  0  0  0  0  0  0  0  0
    6.2010    0.5890   17.6770 N   0  0  0  0  0  0  0  0  0  0  0  0
    6.8450   -0.0130   18.7100 C   0  0  0  0  0  0  0  0  0  0  0  0
   11.3160   -1.4610   22.2420 C   0  0  0  0  0  0  0  0  0  0  0  0
   10.4150   -2.3950   21.8130 C   0  0  0  0  0  0  0  0  0  0  0  0
  1  2  1  0
  2  3  2  0
  3  4  1  0
  4  5  2  0
  5  6  1  0
  2  7  1  0
  6  7  2  0
  7  8  1  0
  8  9  1  0
  9 10  2  0
 10 11  1  0
 10 12  1  0
 12 13  1  0
 13 14  1  0
 14 15  1  0
 15 16  2  0
 15 17  1  0
 17 18  1  0
 18 19  2  0
 19 20  1  0
 20 21  2  0
 21 22  1  0
 18 23  1  0
 22 23  2  0
  8 24  1  0
 12 24  2  0
 24 25  1  0
M  END
