pyridine_urea_11539
     RDKit          3D

 16 17  0  0  0  0  0  0  0  0999 V2000
   12.0010    1.4820   22.9510 C   0  0  0  0  0  0  0  0  0  0  0  0
   10.5760    0.9820   22.8130 C   0  0  2  0  0  0  0  0  0  0  0  0
    9.7280    1.8190   23.6210 O   0  0  0  0  0  0  0  0  0  0  0  0
   10.2970   -0.3700   22.9160 C   0  0  0  0  0  0  0  0  0  0  0  0
    9.0740   -0.7990   22.3600 N   0  0  0  0  0  0  0  0  0  0  0  0
    8.3510   -0.0160   21.4790 C   0  0  0  0  0  0  0  0  0  0  0  0
    8.7920    1.3030   21.0760 O   0  0  0  0  0  0  0  0  0  0  0  0
    7.1880   -0.6160   21.0360 N   0  0  0  0  0  0  0  0  0  0  0  0
    6.4630    0.0120   20.0200 C   0  0  0  0  0  0  0  0  0  0  0  0
    5.2800    0.7000   20.3540 C   0  0  0  0  0  0  0  0  0  0  0  0
    4.5630    1.3540   19.3620 C   0  0  0  0  0  0  0  0  0  0  0  0
    5.1380    1.2710   17.9480 C   0  0  0  0  0  0  0  0  0  0  0  0
    6.2550    0.5980   17.6720 N   0  0  0  0  0  0  0  0  0  0  0  0
    6.8810   -0.0070   18.7010 C   0  0  0  0  0  0  0  0  0  0  0  0
   11.1690   -1.2330   23.6860 C   0  0  0  0  0  0  0  0  0  0  0  0
   11.5490   -1.2700   22.4900 C   0  0  0  0  0  0  0  0  0  0  0  0
  2  1  1  1
  2  3  1  0
  2  4  1  0
  4  5  1  0
  5  6  1  0
  6  7  2  0
  6  8  1  0
  8  9  1  0
  9 10  2  0
 10 11  1  0
 11 12  2  0
 12 13  1  0
  9 14  1  0
 13 14  2  0
  4 15  1  0
  4 16  1  0
 15 16  1  0
M  END
