pyridine_urea_6078
     RDKit          3D

 25 26  0  0  0  0  0  0  0  0999 V2000
   12.0610   -2.6980   24.2450 C   0  0  0  0  0  0  0  0  0  0  0  0
   13.3070   -2.1120   24.8480 C   0  0  0  0  0  0  0  0  0  0  0  0
   14.0320   -2.8980   25.6600 C   0  0  0  0  0  0  0  0  0  0  0  0
   13.0340   -1.1050   25.4700 O   0  0  0  0  0  0  0  0  0  0  0  0
   12.1460   -0.4700   24.7640 C   0  0  0  0  0  0  0  0  0  0  0  0
   12.6690   -0.0030   23.6580 C   0  0  0  0  0  0  0  0  0  0  0  0
   11.9150    0.7170   22.6680 C   0  0  0  0  0  0  0  0  0  0  0  0
   10.3980    1.0860   22.6570 C   0  0  0  0  0  0  0  0  0  0  0  0
    8.9830    1.1640   23.1410 C   0  0  0  0  0  0  0  0  0  0  0  0
    8.3500   -0.1230   22.8650 N   0  0  0  0  0  0  0  0  0  0  0  0
    8.3840   -0.5410   21.5760 C   0  0  0  0  0  0  0  0  0  0  0  0
    9.4240   -0.6760   21.0100 O   0  0  0  0  0  0  0  0  0  0  0  0
    7.1190   -0.7680   21.0710 N   0  0  0  0  0  0  0  0  0  0  0  0
    6.4810   -0.0670   20.0310 C   0  0  0  0  0  0  0  0  0  0  0  0
    5.3140    0.6590   20.3120 C   0  0  0  0  0  0  0  0  0  0  0  0
    4.6860    1.3550   19.2850 C   0  0  0  0  0  0  0  0  0  0  0  0
    5.2340    1.3090   18.0220 C   0  0  0  0  0  0  0  0  0  0  0  0
    6.3450    0.6220   17.7310 N   0  0  0  0  0  0  0  0  0  0  0  0
    6.9410   -0.0500   18.7350 C   0  0  0  0  0  0  0  0  0  0  0  0
   10.0810    0.4480   24.0420 C   0  0  0  0  0  0  0  0  0  0  0  0
    8.7250    0.6050   24.4540 C   0  0  0  0  0  0  0  0  0  0  0  0
    8.3500    1.8670   24.7690 F   0  0  0  0  0  0  0  0  0  0  0  0
    8.4120   -0.0420   25.5950 F   0  0  0  0  0  0  0  0  0  0  0  0
    7.7120    0.2330   23.6320 F   0  0  0  0  0  0  0  0  0  0  0  0
   10.8480   -0.2330   24.9580 C   0  0  0  0  0  0  0  0  0  0  0  0
  1  2  1  0
  2  3  1  0
  2  4  1  0
  4  5  1  0
  5  6  2  0
  6  7  1  0
  7  8  2  0
  8  9  1  0
  9 10  1  0
 10 11  1  0
 11 12  2  0
 11 13  1  0
 13 14  1  0
 14 15  2  0
 15 16  1  0
 16 17  2  0
 17 18  1  0
 14 19  1  0
 18 19  2  0
  8 20  1  0
 20 21  1  0
 21 22  1  0
 21 23  1  0
 21 24  1  0
  5 25  1  0
 20 25  2  0
M  END
