pyridine_urea_9599
     RDKit          3D

 19 20  0  0  0  0  0  0  0  0999 V2000
    8.7940    0.7820   21.3180 O   0  0  0  0  0  0  0  0  0  0  0  0
    8.2710   -0.2970   21.5750 C   0  0  0  0  0  0  0  0  0  0  0  0
    8.8110   -1.2370   22.4200 N   0  0  0  0  0  0  0  0  0  0  0  0
   10.0250   -0.9250   23.1180 C   0  0  0  0  0  0  0  0  0  0  0  0
   11.2460   -1.3680   22.3380 C   0  0  0  0  0  0  0  0  0  0  0  0
   11.4140   -2.3850   21.4880 N   0  0  0  0  0  0  0  0  0  0  0  0
   12.7390   -2.3920   21.0170 C   0  0  0  0  0  0  0  0  0  0  0  0
   13.5440   -1.3500   21.5350 O   0  0  0  0  0  0  0  0  0  0  0  0
   12.5920   -0.7000   22.3800 C   0  0  0  0  0  0  0  0  0  0  0  0
   12.7990    0.4630   23.2270 C   0  0  0  0  0  0  0  0  0  0  0  0
   13.1510   -0.0980   24.3750 F   0  0  0  0  0  0  0  0  0  0  0  0
   13.8180    1.1520   22.7580 F   0  0  0  0  0  0  0  0  0  0  0  0
    7.0580   -0.7150   21.0700 N   0  0  0  0  0  0  0  0  0  0  0  0
    6.3810   -0.0030   20.0630 C   0  0  0  0  0  0  0  0  0  0  0  0
    5.2110    0.7270   20.2050 C   0  0  0  0  0  0  0  0  0  0  0  0
    4.6070    1.4100   19.1600 C   0  0  0  0  0  0  0  0  0  0  0  0
    5.2170    1.3500   17.9220 C   0  0  0  0  0  0  0  0  0  0  0  0
    6.3570    0.6500   17.7280 N   0  0  0  0  0  0  0  0  0  0  0  0
    6.8910    0.0050   18.7870 C   0  0  0  0  0  0  0  0  0  0  0  0
  1  2  2  0
  2  3  1  0
  3  4  1  0
  4  5  1  0
  5  6  1  0
  6  7  2  0
  7  8  1  0
  5  9  2  0
  8  9  1  0
  9 10  1  0
 10 11  1  0
 10 12  1  0
  2 13  1  0
 13 14  1  0
 14 15  2  0
 15 16  1  0
 16 17  2  0
 17 18  1  0
 14 19  1  0
 18 19  2  0
M  END
