pyridine_urea_3674
     RDKit          3D

 27 28  0  0  0  0  0  0  0  0999 V2000
   10.0430   -2.5540   21.7970 C   0  0  0  0  0  0  0  0  0  0  0  0
   11.3850   -2.5930   22.2110 O   0  0  0  0  0  0  0  0  0  0  0  0
   12.0900   -1.4300   21.8240 C   0  0  0  0  0  0  0  0  0  0  0  0
   13.1420   -1.4670   21.1900 O   0  0  0  0  0  0  0  0  0  0  0  0
   11.4310   -0.1170   22.3140 C   0  0  2  0  0  0  0  0  0  0  0  0
   11.6490   -0.1470   23.7290 C   0  0  0  0  0  0  0  0  0  0  0  0
   11.5820   -1.5620   24.0900 C   0  0  0  0  0  0  0  0  0  0  0  0
   10.2360   -1.2120   23.7740 C   0  0  0  0  0  0  0  0  0  0  0  0
    9.8270    0.1400   23.3600 C   0  0  0  0  0  0  0  0  0  0  0  0
    8.7960   -0.8350   23.4490 C   0  0  0  0  0  0  0  0  0  0  0  0
    9.1530   -2.1710   23.8450 C   0  0  0  0  0  0  0  0  0  0  0  0
    8.1200   -3.1330   23.9220 C   0  0  0  0  0  0  0  0  0  0  0  0
    7.2240   -3.0160   22.8960 F   0  0  0  0  0  0  0  0  0  0  0  0
    7.3350   -2.9720   25.0200 F   0  0  0  0  0  0  0  0  0  0  0  0
    8.5170   -4.4130   23.8880 F   0  0  0  0  0  0  0  0  0  0  0  0
   10.6680   -2.5960   24.1990 C   0  0  0  0  0  0  0  0  0  0  0  0
   11.0730   -3.7960   24.5630 F   0  0  0  0  0  0  0  0  0  0  0  0
   10.0900    0.2620   22.0290 N   0  0  0  0  0  0  0  0  0  0  0  0
    8.9470   -0.2810   21.3970 C   0  0  0  0  0  0  0  0  0  0  0  0
    8.8360   -1.4840   20.8740 O   0  0  0  0  0  0  0  0  0  0  0  0
    7.8600    0.5690   21.3470 N   0  0  0  0  0  0  0  0  0  0  0  0
    6.9220    0.7110   20.2860 C   0  0  0  0  0  0  0  0  0  0  0  0
    5.7780    1.4910   20.3280 C   0  0  0  0  0  0  0  0  0  0  0  0
    4.8520    1.6170   19.1980 C   0  0  0  0  0  0  0  0  0  0  0  0
    5.1340    0.9310   18.0460 C   0  0  0  0  0  0  0  0  0  0  0  0
    6.2370    0.1520   17.9660 N   0  0  0  0  0  0  0  0  0  0  0  0
    7.0790    0.0510   19.0460 C   0  0  0  0  0  0  0  0  0  0  0  0
  1  2  1  0
  2  3  1  0
  3  4  2  0
  3  5  1  0
  5  6  1  1
  6  7  1  0
  7  8  2  0
  8  9  1  0
  9 10  2  0
 10 11  1  0
 11 12  1  0
 12 13  1  0
 12 14  1  0
 12 15  1  0
  7 16  1  0
 11 16  2  0
 16 17  1  0
  5 18  1  0
 18 19  1  0
 19 20  2  0
 19 21  1  0
 21 22  1  0
 22 23  2  0
 23 24  1  0
 24 25  2  0
 25 26  1  0
 22 27  1  0
 26 27  2  0
M  END
