pyridine_urea_3166
     RDKit          3D

 20 22  0  0  0  0  0  0  0  0999 V2000
    8.8120    0.9490   21.2770 O   0  0  0  0  0  0  0  0  0  0  0  0
    8.3500   -0.1600   21.5270 C   0  0  0  0  0  0  0  0  0  0  0  0
    7.1300   -0.6070   21.0970 N   0  0  0  0  0  0  0  0  0  0  0  0
    6.4450    0.0130   20.0460 C   0  0  0  0  0  0  0  0  0  0  0  0
    5.2700    0.7240   20.3100 C   0  0  0  0  0  0  0  0  0  0  0  0
    4.6000    1.3630   19.2680 C   0  0  0  0  0  0  0  0  0  0  0  0
    5.1310    1.2670   17.9980 C   0  0  0  0  0  0  0  0  0  0  0  0
    6.2480    0.5840   17.7210 N   0  0  0  0  0  0  0  0  0  0  0  0
    6.8810   -0.0270   18.7410 C   0  0  0  0  0  0  0  0  0  0  0  0
    9.0640   -1.0670   22.2640 N   0  0  0  0  0  0  0  0  0  0  0  0
   10.4620   -0.7200   22.4030 C   0  0  1  0  0  0  0  0  0  0  0  0
   10.5730    0.3050   23.5160 C   0  0  0  0  0  0  0  0  0  0  0  0
   11.1400   -0.0220   24.5360 C   0  0  0  0  0  0  0  0  0  0  0  0
   11.9550    0.8980   23.6810 C   0  0  0  0  0  0  0  0  0  0  0  0
   11.4810   -1.6610   22.4200 C   0  0  1  0  0  0  0  0  0  0  0  0
   12.7980   -1.1450   22.4760 C   0  0  0  0  0  0  0  0  0  0  0  0
   13.4650   -0.9700   23.6710 O   0  0  0  0  0  0  0  0  0  0  0  0
   13.1210   -1.8190   24.7500 C   0  0  0  0  0  0  0  0  0  0  0  0
   12.4780   -2.8760   24.1790 C   0  0  0  0  0  0  0  0  0  0  0  0
   11.2560   -2.4680   23.5960 O   0  0  0  0  0  0  0  0  0  0  0  0
  1  2  2  0
  2  3  1  0
  3  4  1  0
  4  5  2  0
  5  6  1  0
  6  7  2  0
  7  8  1  0
  4  9  1  0
  8  9  2  0
  2 10  1  0
 11 10  1  1
 11 12  1  0
 12 13  1  0
 12 14  1  0
 13 14  1  0
 11 15  1  0
 15 16  1  1
 16 17  1  0
 17 18  1  0
 18 19  1  0
 15 20  1  0
 19 20  1  0
M  END
