pyridine_urea_13988
     RDKit          3D

 23 25  0  0  0  0  0  0  0  0999 V2000
    9.6940   -0.1640   23.0700 C   0  0  0  0  0  0  0  0  0  0  0  0
    9.9530   -1.3120   22.7730 C   0  0  0  0  0  0  0  0  0  0  0  0
   10.1420   -2.8060   22.9760 C   0  0  0  0  0  0  0  0  0  0  0  0
   11.2300   -1.0430   21.9300 C   0  0  0  0  0  0  0  0  0  0  0  0
   12.2720   -1.6590   22.5180 C   0  0  0  0  0  0  0  0  0  0  0  0
   13.2880   -2.5950   22.4820 C   0  0  0  0  0  0  0  0  0  0  0  0
   13.7270   -2.3560   23.7530 N   0  0  0  0  0  0  0  0  0  0  0  0
   13.1010   -1.3630   24.5810 C   0  0  0  0  0  0  0  0  0  0  0  0
   12.3780   -0.3660   25.2360 C   0  0  0  0  0  0  0  0  0  0  0  0
   11.1270    0.4870   24.5970 C   0  0  0  0  0  0  0  0  0  0  0  0
   10.5410    0.4350   23.3760 C   0  0  0  0  0  0  0  0  0  0  0  0
   11.1210   -0.4470   22.7280 C   0  0  0  0  0  0  0  0  0  0  0  0
   11.9970   -0.7940   23.6600 C   0  0  0  0  0  0  0  0  0  0  0  0
    8.9900   -1.3960   21.6280 N   0  0  0  0  0  0  0  0  0  0  0  0
    8.2250   -0.2630   21.3350 C   0  0  0  0  0  0  0  0  0  0  0  0
    8.7080    0.8630   21.2680 O   0  0  0  0  0  0  0  0  0  0  0  0
    6.9420   -0.5920   21.1370 N   0  0  0  0  0  0  0  0  0  0  0  0
    6.3230    0.0490   20.1260 C   0  0  0  0  0  0  0  0  0  0  0  0
    5.0480    0.8210   20.2320 C   0  0  0  0  0  0  0  0  0  0  0  0
    4.5200    1.4510   19.1110 C   0  0  0  0  0  0  0  0  0  0  0  0
    5.2150    1.3290   17.9170 C   0  0  0  0  0  0  0  0  0  0  0  0
    6.3660    0.6400   17.7650 N   0  0  0  0  0  0  0  0  0  0  0  0
    6.8770    0.0270   18.8570 C   0  0  0  0  0  0  0  0  0  0  0  0
  1  2  1  0
  2  3  1  0
  2  4  1  0
  4  5  1  0
  5  6  2  0
  6  7  1  0
  7  8  1  0
  8  9  1  0
  9 10  2  0
 10 11  1  0
 11 12  2  0
  5 13  1  0
  8 13  2  0
 12 13  1  0
  2 14  1  0
 14 15  1  0
 15 16  2  0
 15 17  1  0
 17 18  1  0
 18 19  2  0
 19 20  1  0
 20 21  2  0
 21 22  1  0
 18 23  1  0
 22 23  2  0
M  END
