pyridine_urea_2148
     RDKit          3D

 18 19  0  0  0  0  0  0  0  0999 V2000
    8.9060    0.6240   21.4070 O   0  0  0  0  0  0  0  0  0  0  0  0
    8.2980   -0.3890   21.7150 C   0  0  0  0  0  0  0  0  0  0  0  0
    8.7190   -1.3500   22.6150 N   0  0  0  0  0  0  0  0  0  0  0  0
   10.0450   -1.6250   23.0060 C   0  0  0  0  0  0  0  0  0  0  0  0
   11.1780   -0.9680   22.2330 C   0  0  1  0  0  0  0  0  0  0  0  0
   11.2510    0.4900   22.6460 C   0  0  0  0  0  0  0  0  0  0  0  0
   11.4570    0.5810   24.0930 C   0  0  0  0  0  0  0  0  0  0  0  0
   12.1760   -0.4560   24.5930 C   0  0  0  0  0  0  0  0  0  0  0  0
   13.0990   -0.8240   23.6430 C   0  0  0  0  0  0  0  0  0  0  0  0
   12.5750   -1.5360   22.5680 C   0  0  1  0  0  0  0  0  0  0  0  0
   12.4600   -2.7080   22.8710 O   0  0  0  0  0  0  0  0  0  0  0  0
    7.0670   -0.7300   21.2120 N   0  0  0  0  0  0  0  0  0  0  0  0
    6.4420   -0.0600   20.1540 C   0  0  0  0  0  0  0  0  0  0  0  0
    5.2590    0.6720   20.3150 C   0  0  0  0  0  0  0  0  0  0  0  0
    4.6340    1.3580   19.2520 C   0  0  0  0  0  0  0  0  0  0  0  0
    5.2050    1.3210   17.9650 C   0  0  0  0  0  0  0  0  0  0  0  0
    6.3240    0.6500   17.7060 N   0  0  0  0  0  0  0  0  0  0  0  0
    6.9200   -0.0050   18.7150 C   0  0  0  0  0  0  0  0  0  0  0  0
  1  2  2  0
  2  3  1  0
  3  4  1  0
  5  4  1  1
  5  6  1  0
  6  7  1  0
  7  8  1  0
  8  9  1  0
  5 10  1  0
  9 10  1  0
 10 11  1  1
  2 12  1  0
 12 13  1  0
 13 14  2  0
 14 15  1  0
 15 16  2  0
 16 17  1  0
 13 18  1  0
 17 18  2  0
M  END
