pyridine_urea_7809
     RDKit          3D

 26 28  0  0  0  0  0  0  0  0999 V2000
    8.3830    0.8670   21.1110 O   0  0  0  0  0  0  0  0  0  0  0  0
    7.7730   -0.1320   21.4790 C   0  0  0  0  0  0  0  0  0  0  0  0
    6.6690   -0.6450   20.9040 N   0  0  0  0  0  0  0  0  0  0  0  0
    6.1510    0.0520   19.8490 C   0  0  0  0  0  0  0  0  0  0  0  0
    4.9540    0.7360   20.0140 C   0  0  0  0  0  0  0  0  0  0  0  0
    4.4400    1.4640   18.9530 C   0  0  0  0  0  0  0  0  0  0  0  0
    5.1470    1.4730   17.7730 C   0  0  0  0  0  0  0  0  0  0  0  0
    6.3020    0.8090   17.5990 N   0  0  0  0  0  0  0  0  0  0  0  0
    6.7780    0.1140   18.6380 C   0  0  0  0  0  0  0  0  0  0  0  0
    8.1580   -0.8700   22.5470 N   0  0  0  0  0  0  0  0  0  0  0  0
    9.5910   -0.8420   22.6910 C   0  0  1  0  0  0  0  0  0  0  0  0
   10.1720   -0.1770   23.8620 C   0  0  0  0  0  0  0  0  0  0  0  0
   11.4210   -0.1050   23.3540 C   0  0  0  0  0  0  0  0  0  0  0  0
   12.3820    0.8510   23.3460 C   0  0  0  0  0  0  0  0  0  0  0  0
   13.5270    0.6410   22.7250 C   0  0  0  0  0  0  0  0  0  0  0  0
   13.8060   -0.4810   22.0850 N   0  0  0  0  0  0  0  0  0  0  0  0
   12.9610   -1.4810   22.0190 C   0  0  0  0  0  0  0  0  0  0  0  0
   11.7390   -1.4260   22.6020 C   0  0  0  0  0  0  0  0  0  0  0  0
   10.3380   -2.0970   22.2890 C   0  0  0  0  0  0  0  0  0  0  0  0
   11.1790   -1.0630   22.1010 C   0  0  0  0  0  0  0  0  0  0  0  0
   10.7790    0.2800   22.4630 C   0  0  0  0  0  0  0  0  0  0  0  0
    9.3910   -0.0100   22.9910 C   0  0  0  0  0  0  0  0  0  0  0  0
    8.5970    1.4520   23.5320 Cl  0  0  0  0  0  0  0  0  0  0  0  0
    8.6000   -1.2500   23.1330 C   0  0  0  0  0  0  0  0  0  0  0  0
    7.0020   -1.2230   23.8230 Cl  0  0  0  0  0  0  0  0  0  0  0  0
    9.1450   -2.4480   22.7200 C   0  0  0  0  0  0  0  0  0  0  0  0
  1  2  2  0
  2  3  1  0
  3  4  1  0
  4  5  2  0
  5  6  1  0
  6  7  2  0
  7  8  1  0
  4  9  1  0
  8  9  2  0
  2 10  1  0
 10 11  1  0
 11 12  1  1
 12 13  1  0
 13 14  2  0
 14 15  1  0
 15 16  2  0
 16 17  1  0
 13 18  1  0
 17 18  2  0
 11 19  1  0
 19 20  2  0
 20 21  1  0
 21 22  2  0
 22 23  1  0
 22 24  1  0
 24 25  1  0
 19 26  1  0
 24 26  2  0
M  END
