pyridine_urea_7979
     RDKit          3D

 25 27  0  0  0  0  0  0  0  0999 V2000
   10.2420   -1.2720   23.0240 C   0  0  0  0  0  0  0  0  0  0  0  0
    9.2100   -0.1160   23.0120 C   0  0  2  0  0  0  0  0  0  0  0  0
    8.9110    0.5930   24.2140 C   0  0  0  0  0  0  0  0  0  0  0  0
    9.8090    0.2130   25.1060 C   0  0  0  0  0  0  0  0  0  0  0  0
   11.0440   -0.3170   25.5370 C   0  0  0  0  0  0  0  0  0  0  0  0
   12.3500   -0.8710   25.2680 C   0  0  0  0  0  0  0  0  0  0  0  0
   12.0980   -0.7810   24.0300 C   0  0  0  0  0  0  0  0  0  0  0  0
   12.7570   -1.1900   22.9660 C   0  0  0  0  0  0  0  0  0  0  0  0
   12.9660   -2.4310   23.0400 C   0  0  0  0  0  0  0  0  0  0  0  0
   13.4370   -2.9690   22.0460 C   0  0  0  0  0  0  0  0  0  0  0  0
   13.7210   -2.4290   20.8910 C   0  0  0  0  0  0  0  0  0  0  0  0
   13.6040   -1.1550   20.8090 C   0  0  0  0  0  0  0  0  0  0  0  0
   13.0940   -0.4700   21.9160 C   0  0  0  0  0  0  0  0  0  0  0  0
   10.9800   -0.2790   23.2760 C   0  0  0  0  0  0  0  0  0  0  0  0
    9.9640    0.1680   23.8000 C   0  0  0  0  0  0  0  0  0  0  0  0
    8.0420   -0.7830   22.5730 N   0  0  0  0  0  0  0  0  0  0  0  0
    7.7650   -0.1480   21.3300 C   0  0  0  0  0  0  0  0  0  0  0  0
    8.3830    0.8300   20.9220 O   0  0  0  0  0  0  0  0  0  0  0  0
    6.7340   -0.7490   20.7190 N   0  0  0  0  0  0  0  0  0  0  0  0
    6.0880    0.0180   19.7950 C   0  0  0  0  0  0  0  0  0  0  0  0
    4.8720    0.6570   19.9740 C   0  0  0  0  0  0  0  0  0  0  0  0
    4.3590    1.4320   18.9320 C   0  0  0  0  0  0  0  0  0  0  0  0
    5.0990    1.5210   17.7700 C   0  0  0  0  0  0  0  0  0  0  0  0
    6.2780    0.8980   17.5810 N   0  0  0  0  0  0  0  0  0  0  0  0
    6.7330    0.1670   18.5990 C   0  0  0  0  0  0  0  0  0  0  0  0
  2  1  1  1
  2  3  1  0
  3  4  1  0
  4  5  2  0
  5  6  1  0
  6  7  2  0
  7  8  1  0
  8  9  2  0
  9 10  1  0
 10 11  2  0
 11 12  1  0
  8 13  1  0
 12 13  2  0
  7 14  1  0
  4 15  1  0
 14 15  2  0
  2 16  1  0
 16 17  1  0
 17 18  2  0
 17 19  1  0
 19 20  1  0
 20 21  2  0
 21 22  1  0
 22 23  2  0
 23 24  1  0
 20 25  1  0
 24 25  2  0
M  END
