pyridine_urea_3477
     RDKit          3D

 19 20  0  0  0  0  0  0  0  0999 V2000
   13.2050   -2.4730   20.9490 N   0  0  0  0  0  0  0  0  0  0  0  0
   13.4320   -1.3130   21.5870 C   0  0  0  0  0  0  0  0  0  0  0  0
   12.0820   -1.8380   21.9400 C   0  0  0  0  0  0  0  0  0  0  0  0
   11.1210   -1.1870   22.8430 C   0  0  0  0  0  0  0  0  0  0  0  0
   11.1770    0.0740   23.6130 C   0  0  0  0  0  0  0  0  0  0  0  0
    9.9130   -0.7220   23.7330 C   0  0  0  0  0  0  0  0  0  0  0  0
    9.7770   -1.6370   22.5340 C   0  0  0  0  0  0  0  0  0  0  0  0
    8.5140   -1.4980   22.0780 N   0  0  0  0  0  0  0  0  0  0  0  0
    8.0100   -0.3830   21.4210 C   0  0  0  0  0  0  0  0  0  0  0  0
    8.6470    0.6400   21.2060 O   0  0  0  0  0  0  0  0  0  0  0  0
    6.7400   -0.6340   21.0840 N   0  0  0  0  0  0  0  0  0  0  0  0
    6.2570    0.0280   20.0180 C   0  0  0  0  0  0  0  0  0  0  0  0
    5.0850    0.7630   20.1820 C   0  0  0  0  0  0  0  0  0  0  0  0
    4.5760    1.4540   19.0980 C   0  0  0  0  0  0  0  0  0  0  0  0
    5.2360    1.4000   17.8850 C   0  0  0  0  0  0  0  0  0  0  0  0
    6.3640    0.6920   17.7110 N   0  0  0  0  0  0  0  0  0  0  0  0
    6.8490    0.0230   18.7730 C   0  0  0  0  0  0  0  0  0  0  0  0
   12.4390    0.4390   23.2180 C   0  0  0  0  0  0  0  0  0  0  0  0
   13.3540   -0.1540   22.3770 C   0  0  0  0  0  0  0  0  0  0  0  0
  1  2  1  0
  2  3  2  0
  3  4  1  0
  4  5  2  0
  5  6  1  0
  6  7  1  0
  7  8  1  0
  8  9  1  0
  9 10  2  0
  9 11  1  0
 11 12  1  0
 12 13  2  0
 13 14  1  0
 14 15  2  0
 15 16  1  0
 12 17  1  0
 16 17  2  0
  5 18  1  0
  2 19  1  0
 18 19  2  0
M  END
