pyridine_urea_14535
     RDKit          3D

 21 22  0  0  0  0  0  0  0  0999 V2000
   14.8140    1.6160   18.3280 C   0  0  0  0  0  0  0  0  0  0  0  0
   14.9470    0.7910   19.6100 C   0  0  0  0  0  0  0  0  0  0  0  0
   14.3640   -0.6270   19.9860 O   0  0  0  0  0  0  0  0  0  0  0  0
   13.4770   -0.8890   21.1520 C   0  0  0  0  0  0  0  0  0  0  0  0
   12.3780   -1.6930   21.1960 C   0  0  0  0  0  0  0  0  0  0  0  0
   11.5160   -1.6910   22.2870 C   0  0  0  0  0  0  0  0  0  0  0  0
   11.4100   -1.0700   23.5790 C   0  0  0  0  0  0  0  0  0  0  0  0
   10.1800   -1.9200   23.2470 C   0  0  2  0  0  0  0  0  0  0  0  0
   10.1380   -2.2160   21.8980 C   0  0  0  0  0  0  0  0  0  0  0  0
    8.9820   -1.1190   23.3410 N   0  0  0  0  0  0  0  0  0  0  0  0
    8.4080   -0.3360   22.1350 C   0  0  0  0  0  0  0  0  0  0  0  0
    8.8080    1.0020   21.8870 O   0  0  0  0  0  0  0  0  0  0  0  0
    7.4080   -1.0240   21.2960 N   0  0  0  0  0  0  0  0  0  0  0  0
    6.7010   -0.2930   20.2730 C   0  0  0  0  0  0  0  0  0  0  0  0
    5.5500    0.4790   20.5350 C   0  0  0  0  0  0  0  0  0  0  0  0
    4.8350    1.2300   19.4560 C   0  0  0  0  0  0  0  0  0  0  0  0
    5.2720    1.2070   18.1420 C   0  0  0  0  0  0  0  0  0  0  0  0
    6.4180    0.4250   17.9280 N   0  0  0  0  0  0  0  0  0  0  0  0
    7.0790   -0.2750   18.9170 C   0  0  0  0  0  0  0  0  0  0  0  0
   12.6340   -0.3760   23.5370 C   0  0  0  0  0  0  0  0  0  0  0  0
   13.5610   -0.2370   22.5180 C   0  0  0  0  0  0  0  0  0  0  0  0
  1  2  1  0
  2  3  1  0
  3  4  1  0
  4  5  2  0
  5  6  1  0
  6  7  2  0
  7  8  1  0
  8  9  1  6
  8 10  1  0
 10 11  1  0
 11 12  2  0
 11 13  1  0
 13 14  1  0
 14 15  2  0
 15 16  1  0
 16 17  2  0
 17 18  1  0
 14 19  1  0
 18 19  2  0
  7 20  1  0
  4 21  1  0
 20 21  2  0
M  END
