pyridine_urea_3786
     RDKit          3D

 23 24  0  0  0  0  0  0  0  0999 V2000
   12.5460   -0.5930   25.3830 C   0  0  0  0  0  0  0  0  0  0  0  0
   11.2250   -1.0910   25.4870 O   0  0  0  0  0  0  0  0  0  0  0  0
   10.2550   -0.3550   24.7540 C   0  0  0  0  0  0  0  0  0  0  0  0
    9.8810    0.7950   24.9300 O   0  0  0  0  0  0  0  0  0  0  0  0
    9.7010   -1.2650   23.7090 C   0  0  0  0  0  0  0  0  0  0  0  0
   10.2330   -1.0270   22.3240 C   0  0  1  0  0  0  0  0  0  0  0  0
   11.4330   -1.9270   21.9530 C   0  0  0  0  0  0  0  0  0  0  0  0
   12.7870   -1.4190   22.4040 C   0  0  0  0  0  0  0  0  0  0  0  0
   12.7820   -1.7340   23.8690 C   0  0  0  0  0  0  0  0  0  0  0  0
   12.9320   -0.4450   24.3750 C   0  0  0  0  0  0  0  0  0  0  0  0
   11.8700    0.4310   24.1120 C   0  0  0  0  0  0  0  0  0  0  0  0
   11.6690    0.3410   22.8070 C   0  0  0  0  0  0  0  0  0  0  0  0
   12.8870   -0.0720   22.3300 C   0  0  0  0  0  0  0  0  0  0  0  0
    9.0840   -1.4090   21.5110 N   0  0  0  0  0  0  0  0  0  0  0  0
    8.3300   -0.3190   21.2710 C   0  0  0  0  0  0  0  0  0  0  0  0
    8.7730    0.9680   21.2930 O   0  0  0  0  0  0  0  0  0  0  0  0
    7.0470   -0.6860   20.9810 N   0  0  0  0  0  0  0  0  0  0  0  0
    6.3270    0.0210   20.0280 C   0  0  0  0  0  0  0  0  0  0  0  0
    5.1400    0.7210   20.2260 C   0  0  0  0  0  0  0  0  0  0  0  0
    4.5420    1.4300   19.0840 C   0  0  0  0  0  0  0  0  0  0  0  0
    5.1710    1.3790   17.8650 C   0  0  0  0  0  0  0  0  0  0  0  0
    6.3120    0.6960   17.6700 N   0  0  0  0  0  0  0  0  0  0  0  0
    6.8480    0.0460   18.7340 C   0  0  0  0  0  0  0  0  0  0  0  0
  1  2  1  0
  2  3  1  0
  3  4  2  0
  3  5  1  0
  6  5  1  1
  6  7  1  0
  7  8  1  0
  8  9  1  0
  9 10  1  0
 10 11  1  0
 11 12  1  0
  8 13  1  0
 12 13  1  0
  6 14  1  0
 14 15  1  0
 15 16  2  0
 15 17  1  0
 17 18  1  0
 18 19  2  0
 19 20  1  0
 20 21  2  0
 21 22  1  0
 18 23  1  0
 22 23  2  0
M  END
