pyridine_urea_6470
     RDKit          3D

 18 19  0  0  0  0  0  0  0  0999 V2000
    9.5360   -0.0800   27.0400 C   0  0  0  0  0  0  0  0  0  0  0  0
    9.5990   -0.2900   25.8590 C   0  0  0  0  0  0  0  0  0  0  0  0
    9.9390   -0.2750   24.3160 C   0  0  0  0  0  0  0  0  0  0  0  0
    9.3970   -1.1500   23.2190 C   0  0  0  0  0  0  0  0  0  0  0  0
    9.4150   -0.7990   21.8230 N   0  0  0  0  0  0  0  0  0  0  0  0
    8.5070    0.1150   21.3480 C   0  0  0  0  0  0  0  0  0  0  0  0
    8.8480    1.5120   21.1120 O   0  0  0  0  0  0  0  0  0  0  0  0
    7.2900   -0.4250   21.1180 N   0  0  0  0  0  0  0  0  0  0  0  0
    6.5940    0.0890   20.0700 C   0  0  0  0  0  0  0  0  0  0  0  0
    5.3670    0.8730   20.3550 C   0  0  0  0  0  0  0  0  0  0  0  0
    4.5700    1.4640   19.4320 C   0  0  0  0  0  0  0  0  0  0  0  0
    5.1660    1.1750   18.0750 C   0  0  0  0  0  0  0  0  0  0  0  0
    6.2560    0.4750   17.7550 N   0  0  0  0  0  0  0  0  0  0  0  0
    6.9550   -0.0640   18.7630 C   0  0  0  0  0  0  0  0  0  0  0  0
    8.8010   -2.4580   23.6700 C   0  0  0  0  0  0  0  0  0  0  0  0
    8.7900   -2.6990   25.0860 N   0  0  0  0  0  0  0  0  0  0  0  0
    8.5730   -1.4630   25.6740 C   0  0  0  0  0  0  0  0  0  0  0  0
    7.2550   -1.2120   26.2080 O   0  0  0  0  0  0  0  0  0  0  0  0
  1  2  1  0
  2  3  2  0
  3  4  1  0
  4  5  1  0
  5  6  1  0
  6  7  2  0
  6  8  1  0
  8  9  1  0
  9 10  2  0
 10 11  1  0
 11 12  2  0
 12 13  1  0
  9 14  1  0
 13 14  2  0
  4 15  2  0
 15 16  1  0
  2 17  1  0
 16 17  1  0
 17 18  2  0
M  END
