pyridine_urea_14843
     RDKit          3D

 20 21  0  0  0  0  0  0  0  0999 V2000
   12.3270   -2.8800   24.6200 C   0  0  0  0  0  0  0  0  0  0  0  0
   13.7710   -2.4790   24.4230 C   0  0  0  0  0  0  0  0  0  0  0  0
   13.8100   -1.1460   23.9520 O   0  0  0  0  0  0  0  0  0  0  0  0
   12.5870   -0.8830   23.5970 C   0  0  0  0  0  0  0  0  0  0  0  0
   12.0930   -1.0570   22.3330 C   0  0  0  0  0  0  0  0  0  0  0  0
   10.7760   -0.8100   22.1150 C   0  0  0  0  0  0  0  0  0  0  0  0
    9.9220   -0.3850   23.1120 C   0  0  0  0  0  0  0  0  0  0  0  0
    8.5420   -0.1730   22.7990 N   0  0  0  0  0  0  0  0  0  0  0  0
    8.1900    0.2680   21.5770 C   0  0  0  0  0  0  0  0  0  0  0  0
    8.7830    1.3840   21.0110 O   0  0  0  0  0  0  0  0  0  0  0  0
    7.1310   -0.6120   21.0580 N   0  0  0  0  0  0  0  0  0  0  0  0
    6.4810    0.0540   19.9710 C   0  0  0  0  0  0  0  0  0  0  0  0
    5.3230    0.7860   20.2270 C   0  0  0  0  0  0  0  0  0  0  0  0
    4.6660    1.4570   19.2210 C   0  0  0  0  0  0  0  0  0  0  0  0
    5.1360    1.4250   17.9210 C   0  0  0  0  0  0  0  0  0  0  0  0
    6.2390    0.7360   17.5770 N   0  0  0  0  0  0  0  0  0  0  0  0
    6.9130    0.0360   18.6720 C   0  0  0  0  0  0  0  0  0  0  0  0
   10.3450   -0.1440   24.4960 C   0  0  0  0  0  0  0  0  0  0  0  0
    9.4500    0.2840   25.4740 C   0  0  0  0  0  0  0  0  0  0  0  0
   11.6790   -0.4010   24.7070 C   0  0  0  0  0  0  0  0  0  0  0  0
  1  2  1  0
  2  3  1  0
  3  4  1  0
  4  5  2  0
  5  6  1  0
  6  7  2  0
  7  8  1  0
  8  9  1  0
  9 10  2  0
  9 11  1  0
 11 12  1  0
 12 13  2  0
 13 14  1  0
 14 15  2  0
 15 16  1  0
 12 17  1  0
 16 17  2  0
  7 18  1  0
 18 19  1  0
  4 20  1  0
 18 20  2  0
M  END
