pyridine_urea_13527
     RDKit          3D

 19 20  0  0  0  0  0  0  0  0999 V2000
   11.6240   -0.6570   25.4150 C   0  0  0  0  0  0  0  0  0  0  0  0
   11.6900    0.0770   24.1390 C   0  0  2  0  0  0  0  0  0  0  0  0
   10.2250    0.2570   23.7690 C   0  0  0  0  0  0  0  0  0  0  0  0
    9.7550   -0.9830   23.0910 C   0  0  1  0  0  0  0  0  0  0  0  0
    8.3680   -0.9680   22.7120 N   0  0  0  0  0  0  0  0  0  0  0  0
    8.0060   -0.2500   21.5960 C   0  0  0  0  0  0  0  0  0  0  0  0
    8.5860    0.7580   21.2110 O   0  0  0  0  0  0  0  0  0  0  0  0
    6.9310   -0.8160   21.0230 N   0  0  0  0  0  0  0  0  0  0  0  0
    6.3190   -0.0840   20.0740 C   0  0  0  0  0  0  0  0  0  0  0  0
    5.1410    0.6390   20.2630 C   0  0  0  0  0  0  0  0  0  0  0  0
    4.5960    1.3750   19.1880 C   0  0  0  0  0  0  0  0  0  0  0  0
    5.2470    1.3650   17.9550 C   0  0  0  0  0  0  0  0  0  0  0  0
    6.3770    0.6920   17.7030 N   0  0  0  0  0  0  0  0  0  0  0  0
    6.8980   -0.0100   18.7150 C   0  0  0  0  0  0  0  0  0  0  0  0
   10.6980   -0.7510   21.9630 C   0  0  0  0  0  0  0  0  0  0  0  0
   11.8070   -1.5510   22.1230 C   0  0  0  0  0  0  0  0  0  0  0  0
   12.5340   -0.8150   23.2400 C   0  0  0  0  0  0  0  0  0  0  0  0
   13.3170   -1.7490   23.8910 C   0  0  0  0  0  0  0  0  0  0  0  0
   13.3330    0.1170   22.4070 C   0  0  0  0  0  0  0  0  0  0  0  0
  2  1  1  1
  2  3  1  0
  3  4  1  0
  4  5  1  6
  5  6  1  0
  6  7  2  0
  6  8  1  0
  8  9  1  0
  9 10  2  0
 10 11  1  0
 11 12  2  0
 12 13  1  0
  9 14  1  0
 13 14  2  0
  4 15  1  0
 15 16  1  0
  2 17  1  0
 16 17  1  0
 17 18  1  0
 17 19  1  0
M  END
