pyridine_urea_1821
     RDKit          3D

 16 17  0  0  0  0  0  0  0  0999 V2000
   12.9830    0.6070   23.4470 C   0  0  0  0  0  0  0  0  0  0  0  0
   11.7460    0.1140   22.8350 C   0  0  2  0  0  0  0  0  0  0  0  0
   10.6240   -0.3500   23.5330 C   0  0  0  0  0  0  0  0  0  0  0  0
   10.1340   -1.4390   22.9110 C   0  0  1  0  0  0  0  0  0  0  0  0
    8.9230   -1.4090   22.1780 N   0  0  0  0  0  0  0  0  0  0  0  0
    8.3200   -0.3360   21.5260 C   0  0  0  0  0  0  0  0  0  0  0  0
    8.8850    0.7300   21.3260 O   0  0  0  0  0  0  0  0  0  0  0  0
    7.0560   -0.6640   21.1770 N   0  0  0  0  0  0  0  0  0  0  0  0
    6.4690   -0.0270   20.1280 C   0  0  0  0  0  0  0  0  0  0  0  0
    5.3000    0.6900   20.3750 C   0  0  0  0  0  0  0  0  0  0  0  0
    4.6270    1.4210   19.1970 C   0  0  0  0  0  0  0  0  0  0  0  0
    5.2360    1.3150   17.9700 C   0  0  0  0  0  0  0  0  0  0  0  0
    6.3640    0.6090   17.7770 N   0  0  0  0  0  0  0  0  0  0  0  0
    6.9420   -0.0340   18.8240 C   0  0  0  0  0  0  0  0  0  0  0  0
   11.2260   -1.7940   22.1840 C   0  0  0  0  0  0  0  0  0  0  0  0
   12.1620   -0.8250   22.1120 O   0  0  0  0  0  0  0  0  0  0  0  0
  2  1  1  1
  2  3  1  0
  3  4  1  0
  4  5  1  6
  5  6  1  0
  6  7  2  0
  6  8  1  0
  8  9  1  0
  9 10  2  0
 10 11  1  0
 11 12  2  0
 12 13  1  0
  9 14  1  0
 13 14  2  0
  4 15  1  0
  2 16  1  0
 15 16  1  0
M  END
