pyridine_urea_93
     RDKit          3D

 20 21  0  0  0  0  0  0  0  0999 V2000
   13.1100   -3.2520   20.9950 C   0  0  0  0  0  0  0  0  0  0  0  0
   13.1610   -2.6150   22.0040 C   0  0  0  0  0  0  0  0  0  0  0  0
   11.7990   -2.4250   22.4110 O   0  0  0  0  0  0  0  0  0  0  0  0
   11.3780   -1.2180   22.0470 C   0  0  2  0  0  0  0  0  0  0  0  0
   12.4320   -0.2210   22.3890 C   0  0  0  0  0  0  0  0  0  0  0  0
   12.7970   -0.2820   23.6690 C   0  0  0  0  0  0  0  0  0  0  0  0
   11.7370   -0.3210   24.7350 C   0  0  0  0  0  0  0  0  0  0  0  0
   10.7430    0.7310   24.4150 C   0  0  0  0  0  0  0  0  0  0  0  0
   10.2490    0.8100   23.1940 C   0  0  0  0  0  0  0  0  0  0  0  0
   10.2740   -0.6680   22.9980 C   0  0  1  0  0  0  0  0  0  0  0  0
    8.9810   -0.9800   22.4160 N   0  0  0  0  0  0  0  0  0  0  0  0
    8.4020   -0.0980   21.5170 C   0  0  0  0  0  0  0  0  0  0  0  0
    8.9470    1.1970   21.2160 O   0  0  0  0  0  0  0  0  0  0  0  0
    7.2460   -0.6070   20.9790 N   0  0  0  0  0  0  0  0  0  0  0  0
    6.5350    0.0150   19.9540 C   0  0  0  0  0  0  0  0  0  0  0  0
    5.3830    0.7140   20.2700 C   0  0  0  0  0  0  0  0  0  0  0  0
    4.4130    1.5030   19.3600 C   0  0  0  0  0  0  0  0  0  0  0  0
    5.1510    1.2480   18.0470 C   0  0  0  0  0  0  0  0  0  0  0  0
    6.2590    0.5700   17.7360 N   0  0  0  0  0  0  0  0  0  0  0  0
    6.9290   -0.0330   18.6820 C   0  0  0  0  0  0  0  0  0  0  0  0
  1  2  1  0
  2  3  1  0
  4  3  1  1
  4  5  1  0
  5  6  1  0
  6  7  1  0
  7  8  1  0
  8  9  1  0
  4 10  1  0
  9 10  1  0
 10 11  1  6
 11 12  1  0
 12 13  2  0
 12 14  1  0
 14 15  1  0
 15 16  2  0
 16 17  1  0
 17 18  2  0
 18 19  1  0
 15 20  1  0
 19 20  2  0
M  END
