pyridine_urea_4875
     RDKit          3D

 21 22  0  0  0  0  0  0  0  0999 V2000
   13.7630   -2.4620   25.3610 C   0  0  0  0  0  0  0  0  0  0  0  0
   13.5440   -1.7770   24.0080 C   0  0  0  0  0  0  0  0  0  0  0  0
   13.5720   -2.7630   22.8970 C   0  0  0  0  0  0  0  0  0  0  0  0
   12.2940   -1.3480   23.7780 N   0  0  0  0  0  0  0  0  0  0  0  0
   11.8000   -0.5730   22.8460 C   0  0  0  0  0  0  0  0  0  0  0  0
   10.4610   -0.3510   22.8740 C   0  0  0  0  0  0  0  0  0  0  0  0
    9.2100   -0.4740   23.3530 C   0  0  0  0  0  0  0  0  0  0  0  0
    8.7320   -1.7870   23.4180 C   0  0  0  0  0  0  0  0  0  0  0  0
    9.2620    0.0120   24.8110 C   0  0  0  0  0  0  0  0  0  0  0  0
    8.1910    0.1850   22.8130 N   0  0  0  0  0  0  0  0  0  0  0  0
    8.1230    0.4430   21.4830 C   0  0  0  0  0  0  0  0  0  0  0  0
    8.7600    1.3630   20.9730 O   0  0  0  0  0  0  0  0  0  0  0  0
    7.2830   -0.4270   20.9110 N   0  0  0  0  0  0  0  0  0  0  0  0
    6.5480    0.1580   19.9790 C   0  0  0  0  0  0  0  0  0  0  0  0
    5.3830    0.8660   20.3400 C   0  0  0  0  0  0  0  0  0  0  0  0
    4.6580    1.5040   19.2040 C   0  0  0  0  0  0  0  0  0  0  0  0
    5.1260    1.3800   17.9340 C   0  0  0  0  0  0  0  0  0  0  0  0
    6.2350    0.6890   17.5880 N   0  0  0  0  0  0  0  0  0  0  0  0
    6.8650    0.1300   18.6400 C   0  0  0  0  0  0  0  0  0  0  0  0
   10.2880   -1.1430   24.0080 N   0  0  0  0  0  0  0  0  0  0  0  0
   11.3950   -1.7570   24.5700 N   0  0  0  0  0  0  0  0  0  0  0  0
  1  2  1  0
  2  3  1  0
  2  4  1  0
  4  5  1  0
  5  6  2  0
  6  7  1  0
  7  8  1  0
  7  9  1  0
  7 10  1  0
 10 11  1  0
 11 12  2  0
 11 13  1  0
 13 14  1  0
 14 15  2  0
 15 16  1  0
 16 17  2  0
 17 18  1  0
 14 19  1  0
 18 19  2  0
  6 20  1  0
  4 21  1  0
 20 21  2  0
M  END
