pyridine_urea_12219
     RDKit          3D

 23 25  0  0  0  0  0  0  0  0999 V2000
    8.7850   -0.8930   20.6330 O   0  0  0  0  0  0  0  0  0  0  0  0
    8.0420   -0.6410   21.5030 C   0  0  0  0  0  0  0  0  0  0  0  0
    6.7110   -0.4500   21.3340 N   0  0  0  0  0  0  0  0  0  0  0  0
    6.2140    0.1390   20.1630 C   0  0  0  0  0  0  0  0  0  0  0  0
    5.0320    0.8680   20.2360 C   0  0  0  0  0  0  0  0  0  0  0  0
    4.5180    1.4770   19.0970 C   0  0  0  0  0  0  0  0  0  0  0  0
    5.2100    1.3350   17.9110 C   0  0  0  0  0  0  0  0  0  0  0  0
    6.3490    0.6370   17.8020 N   0  0  0  0  0  0  0  0  0  0  0  0
    6.8300    0.0510   18.9190 C   0  0  0  0  0  0  0  0  0  0  0  0
    8.5340   -0.4800   22.7480 N   0  0  0  0  0  0  0  0  0  0  0  0
    9.9560   -0.1360   22.6960 C   0  0  0  0  0  0  0  0  0  0  0  0
   10.4130    1.2320   23.1170 C   0  0  0  0  0  0  0  0  0  0  0  0
   11.7960    1.5280   23.0590 C   0  0  0  0  0  0  0  0  0  0  0  0
   12.7140    0.5760   22.6150 C   0  0  0  0  0  0  0  0  0  0  0  0
   12.2680   -0.6920   22.2060 C   0  0  0  0  0  0  0  0  0  0  0  0
   13.2360   -1.5700   21.7680 O   0  0  0  0  0  0  0  0  0  0  0  0
   13.3850   -1.9670   23.0420 C   0  0  0  0  0  0  0  0  0  0  0  0
   13.1620   -0.8690   23.8080 C   0  0  0  0  0  0  0  0  0  0  0  0
   13.2580   -1.0280   25.0850 N   0  0  0  0  0  0  0  0  0  0  0  0
   13.5550   -2.1540   25.6620 C   0  0  0  0  0  0  0  0  0  0  0  0
   13.7340   -3.1880   24.8920 C   0  0  0  0  0  0  0  0  0  0  0  0
   13.6770   -3.1720   23.5560 N   0  0  0  0  0  0  0  0  0  0  0  0
   10.9580   -1.1230   22.2160 C   0  0  0  0  0  0  0  0  0  0  0  0
  1  2  2  0
  2  3  1  0
  3  4  1  0
  4  5  2  0
  5  6  1  0
  6  7  2  0
  7  8  1  0
  4  9  1  0
  8  9  2  0
  2 10  1  0
 10 11  1  0
 11 12  2  0
 12 13  1  0
 13 14  2  0
 14 15  1  0
 15 16  1  0
 16 17  1  0
 17 18  2  0
 18 19  1  0
 19 20  2  0
 20 21  1  0
 17 22  1  0
 21 22  2  0
 11 23  1  0
 15 23  2  0
M  END
