pyridine_urea_14809
     RDKit          3D

 20 21  0  0  0  0  0  0  0  0999 V2000
   12.9000   -1.1450   22.7840 C   0  0  0  0  0  0  0  0  0  0  0  0
   11.5590   -1.0640   22.0680 C   0  0  0  0  0  0  0  0  0  0  0  0
   10.3860   -1.6690   22.4690 C   0  0  2  0  0  0  0  0  0  0  0  0
    9.4160   -1.6480   21.3780 N   0  0  0  0  0  0  0  0  0  0  0  0
    8.4790   -0.5150   21.3900 C   0  0  0  0  0  0  0  0  0  0  0  0
    9.0530    0.5790   21.5210 O   0  0  0  0  0  0  0  0  0  0  0  0
    7.1180   -0.7250   21.2230 N   0  0  0  0  0  0  0  0  0  0  0  0
    6.4680   -0.0220   20.1230 C   0  0  0  0  0  0  0  0  0  0  0  0
    5.3070    0.7330   20.3340 C   0  0  0  0  0  0  0  0  0  0  0  0
    4.6700    1.4640   19.1410 C   0  0  0  0  0  0  0  0  0  0  0  0
    5.2000    1.4100   17.8660 C   0  0  0  0  0  0  0  0  0  0  0  0
    6.3230    0.6460   17.7730 N   0  0  0  0  0  0  0  0  0  0  0  0
    6.9680   -0.0610   18.8030 C   0  0  0  0  0  0  0  0  0  0  0  0
    9.8170   -1.0400   23.6250 C   0  0  0  0  0  0  0  0  0  0  0  0
    8.5850   -0.6720   23.9080 C   0  0  0  0  0  0  0  0  0  0  0  0
    8.6730   -0.0930   25.3120 C   0  0  0  0  0  0  0  0  0  0  0  0
   10.0020   -0.0600   25.9980 C   0  0  0  0  0  0  0  0  0  0  0  0
   11.2840   -0.5500   25.4400 C   0  0  0  0  0  0  0  0  0  0  0  0
   12.2140   -1.2720   24.2130 Cl  0  0  0  0  0  0  0  0  0  0  0  0
   10.2230   -0.6160   24.7830 C   0  0  0  0  0  0  0  0  0  0  0  0
  1  2  1  0
  3  2  1  6
  3  4  1  0
  4  5  1  0
  5  6  2  0
  5  7  1  0
  7  8  1  0
  8  9  2  0
  9 10  1  0
 10 11  2  0
 11 12  1  0
  8 13  1  0
 12 13  2  0
  3 14  1  0
 14 15  2  0
 15 16  1  0
 16 17  2  0
 17 18  1  0
 18 19  1  0
 14 20  1  0
 18 20  2  0
M  END
