pyridine_urea_13290
     RDKit          3D

 23 25  0  0  0  0  0  0  0  0999 V2000
   11.8250   -3.2940   24.6810 C   0  0  0  0  0  0  0  0  0  0  0  0
   11.4820   -2.6130   23.5150 O   0  0  0  0  0  0  0  0  0  0  0  0
   12.0460   -1.4090   23.5860 C   0  0  2  0  0  0  0  0  0  0  0  0
   13.2660   -1.3900   24.0090 C   0  0  0  0  0  0  0  0  0  0  0  0
   13.4560   -1.4820   25.3260 F   0  0  0  0  0  0  0  0  0  0  0  0
   13.7370   -0.2290   23.5250 F   0  0  0  0  0  0  0  0  0  0  0  0
   13.9050   -2.4180   23.4220 F   0  0  0  0  0  0  0  0  0  0  0  0
   11.2310   -0.6730   24.6980 C   0  0  0  0  0  0  0  0  0  0  0  0
   10.4410    0.0260   23.8820 C   0  0  1  0  0  0  0  0  0  0  0  0
   11.4470    0.6130   22.9680 C   0  0  0  0  0  0  0  0  0  0  0  0
   11.7880   -0.6110   22.4620 C   0  0  2  0  0  0  0  0  0  0  0  0
   10.4640   -1.0880   21.9600 C   0  0  0  0  0  0  0  0  0  0  0  0
    9.6920   -0.8910   23.1160 C   0  0  2  0  0  0  0  0  0  0  0  0
    8.4160   -0.3830   22.7440 N   0  0  0  0  0  0  0  0  0  0  0  0
    8.1360    0.2540   21.5820 C   0  0  0  0  0  0  0  0  0  0  0  0
    8.8190    1.3560   21.0980 O   0  0  0  0  0  0  0  0  0  0  0  0
    7.0730   -0.3700   20.9860 N   0  0  0  0  0  0  0  0  0  0  0  0
    6.4240    0.2070   19.9240 C   0  0  0  0  0  0  0  0  0  0  0  0
    5.2660    0.9340   20.1410 C   0  0  0  0  0  0  0  0  0  0  0  0
    4.5740    1.5620   19.1270 C   0  0  0  0  0  0  0  0  0  0  0  0
    5.1180    1.4150   17.8650 C   0  0  0  0  0  0  0  0  0  0  0  0
    6.2360    0.7060   17.6040 N   0  0  0  0  0  0  0  0  0  0  0  0
    6.8720    0.1140   18.6300 C   0  0  0  0  0  0  0  0  0  0  0  0
  1  2  1  0
  3  2  1  6
  3  4  1  0
  4  5  1  0
  4  6  1  0
  4  7  1  0
  3  8  1  0
  9  8  1  1
  9 10  1  0
  3 11  1  0
 10 11  1  0
 11 12  1  1
  9 13  1  0
 12 13  1  0
 13 14  1  6
 14 15  1  0
 15 16  2  0
 15 17  1  0
 17 18  1  0
 18 19  2  0
 19 20  1  0
 20 21  2  0
 21 22  1  0
 18 23  1  0
 22 23  2  0
M  END
