pyridine_urea_7354
     RDKit          3D

 18 19  0  0  0  0  0  0  0  0999 V2000
    8.7340    1.2290   21.0820 O   0  0  0  0  0  0  0  0  0  0  0  0
    8.2660    0.1650   21.4990 C   0  0  0  0  0  0  0  0  0  0  0  0
    8.7430   -0.5210   22.5500 N   0  0  0  0  0  0  0  0  0  0  0  0
    9.9120   -0.1270   23.1630 C   0  0  0  0  0  0  0  0  0  0  0  0
   11.0470   -0.2640   22.4150 C   0  0  0  0  0  0  0  0  0  0  0  0
   11.9160   -1.0600   23.0280 C   0  0  0  0  0  0  0  0  0  0  0  0
   12.5780   -2.0170   22.1670 N   0  0  0  0  0  0  0  0  0  0  0  0
   13.4490   -2.8760   22.8420 C   0  0  0  0  0  0  0  0  0  0  0  0
   13.6150   -2.7630   24.2050 C   0  0  0  0  0  0  0  0  0  0  0  0
   12.9820   -1.8470   24.9160 C   0  0  0  0  0  0  0  0  0  0  0  0
   12.1350   -0.9960   24.3600 N   0  0  0  0  0  0  0  0  0  0  0  0
    7.1730   -0.4700   20.9710 N   0  0  0  0  0  0  0  0  0  0  0  0
    6.4430    0.1620   19.9900 C   0  0  0  0  0  0  0  0  0  0  0  0
    5.2600    0.9060   20.1810 C   0  0  0  0  0  0  0  0  0  0  0  0
    4.6450    1.5180   19.0970 C   0  0  0  0  0  0  0  0  0  0  0  0
    5.1660    1.4160   17.8290 C   0  0  0  0  0  0  0  0  0  0  0  0
    6.2940    0.6910   17.6400 N   0  0  0  0  0  0  0  0  0  0  0  0
    6.9300    0.0660   18.7070 C   0  0  0  0  0  0  0  0  0  0  0  0
  1  2  2  0
  2  3  1  0
  3  4  1  0
  4  5  1  0
  5  6  1  0
  6  7  2  0
  7  8  1  0
  8  9  2  0
  9 10  1  0
  6 11  1  0
 10 11  2  0
  2 12  1  0
 12 13  1  0
 13 14  2  0
 14 15  1  0
 15 16  2  0
 16 17  1  0
 13 18  1  0
 17 18  2  0
M  END
