pyridine_urea_9210
     RDKit          3D

 18 19  0  0  0  0  0  0  0  0999 V2000
    8.8780    0.7870   21.3070 O   0  0  0  0  0  0  0  0  0  0  0  0
    8.3650   -0.3030   21.5220 C   0  0  0  0  0  0  0  0  0  0  0  0
    8.9140   -1.3430   22.2170 N   0  0  0  0  0  0  0  0  0  0  0  0
    9.7570   -1.2470   23.3350 C   0  0  0  0  0  0  0  0  0  0  0  0
   10.8730   -0.4230   23.1990 C   0  0  0  0  0  0  0  0  0  0  0  0
   10.4870    0.9450   22.9850 O   0  0  0  0  0  0  0  0  0  0  0  0
   12.1390   -0.9390   23.2510 N   0  0  0  0  0  0  0  0  0  0  0  0
   12.7190   -1.6200   22.1300 C   0  0  0  0  0  0  0  0  0  0  0  0
   13.3130   -2.6640   22.7430 C   0  0  0  0  0  0  0  0  0  0  0  0
   13.2160   -2.6000   24.0760 C   0  0  0  0  0  0  0  0  0  0  0  0
   12.5340   -1.4920   24.4830 C   0  0  0  0  0  0  0  0  0  0  0  0
    7.1090   -0.6160   21.0650 N   0  0  0  0  0  0  0  0  0  0  0  0
    6.4750    0.0120   20.0480 C   0  0  0  0  0  0  0  0  0  0  0  0
    5.3170    0.7290   20.3150 C   0  0  0  0  0  0  0  0  0  0  0  0
    4.6560    1.3910   19.2790 C   0  0  0  0  0  0  0  0  0  0  0  0
    5.1880    1.3070   18.0050 C   0  0  0  0  0  0  0  0  0  0  0  0
    6.3000    0.6190   17.7250 N   0  0  0  0  0  0  0  0  0  0  0  0
    6.9180   -0.0130   18.7410 C   0  0  0  0  0  0  0  0  0  0  0  0
  1  2  2  0
  2  3  1  0
  3  4  1  0
  4  5  1  0
  5  6  2  0
  5  7  1  0
  7  8  1  0
  8  9  1  0
  9 10  2  0
  7 11  1  0
 10 11  1  0
  2 12  1  0
 12 13  1  0
 13 14  2  0
 14 15  1  0
 15 16  2  0
 16 17  1  0
 13 18  1  0
 17 18  2  0
M  END
