pyridine_urea_8814
     RDKit          3D

 21 22  0  0  0  0  0  0  0  0999 V2000
    8.0750    1.7390   20.8550 O   0  0  0  0  0  0  0  0  0  0  0  0
    8.1180    0.6080   21.3010 C   0  0  0  0  0  0  0  0  0  0  0  0
    7.1360   -0.2990   21.0950 N   0  0  0  0  0  0  0  0  0  0  0  0
    6.4980    0.1710   19.9300 C   0  0  0  0  0  0  0  0  0  0  0  0
    5.2450    1.0100   20.1720 C   0  0  0  0  0  0  0  0  0  0  0  0
    4.5730    1.5600   19.0960 C   0  0  0  0  0  0  0  0  0  0  0  0
    5.0940    1.3110   17.8350 C   0  0  0  0  0  0  0  0  0  0  0  0
    6.2100    0.5420   17.6670 N   0  0  0  0  0  0  0  0  0  0  0  0
    6.9340   -0.0450   18.6940 C   0  0  0  0  0  0  0  0  0  0  0  0
    9.1540    0.1800   21.9700 N   0  0  0  0  0  0  0  0  0  0  0  0
   10.2740   -0.1310   22.5110 C   0  0  0  0  0  0  0  0  0  0  0  0
   11.0260    0.9630   22.9850 C   0  0  0  0  0  0  0  0  0  0  0  0
   12.2600    0.8520   23.5830 C   0  0  0  0  0  0  0  0  0  0  0  0
   12.8300   -0.3840   23.7580 C   0  0  0  0  0  0  0  0  0  0  0  0
   12.1280   -1.4800   23.3220 C   0  0  0  0  0  0  0  0  0  0  0  0
   12.4870   -2.5900   23.4490 O   0  0  0  0  0  0  0  0  0  0  0  0
   12.1730   -2.9540   24.7630 C   0  0  0  0  0  0  0  0  0  0  0  0
   13.3800   -2.7920   25.3140 C   0  0  0  0  0  0  0  0  0  0  0  0
   14.1970   -2.6680   24.3130 F   0  0  0  0  0  0  0  0  0  0  0  0
   13.8950   -3.8130   26.0010 F   0  0  0  0  0  0  0  0  0  0  0  0
   10.8230   -1.3500   22.6760 C   0  0  0  0  0  0  0  0  0  0  0  0
  1  2  2  0
  2  3  1  0
  3  4  1  0
  4  5  2  0
  5  6  1  0
  6  7  2  0
  7  8  1  0
  4  9  1  0
  8  9  2  0
  2 10  1  0
 10 11  1  0
 11 12  2  0
 12 13  1  0
 13 14  2  0
 14 15  1  0
 15 16  1  0
 16 17  1  0
 17 18  1  0
 18 19  1  0
 18 20  1  0
 11 21  1  0
 15 21  2  0
M  END
