pyridine_urea_11532
     RDKit          3D

 21 22  0  0  0  0  0  0  0  0999 V2000
    7.7380   -4.1300   23.4200 C   0  0  0  0  0  0  0  0  0  0  0  0
    7.7780   -2.8280   22.8550 O   0  0  0  0  0  0  0  0  0  0  0  0
    8.5750   -1.9530   23.5700 C   0  0  0  0  0  0  0  0  0  0  0  0
    8.3090   -1.6340   24.7140 O   0  0  0  0  0  0  0  0  0  0  0  0
    9.7050   -1.4850   22.8800 C   0  0  2  0  0  0  0  0  0  0  0  0
    9.5160   -0.8380   21.6460 N   0  0  0  0  0  0  0  0  0  0  0  0
    8.5960    0.1450   21.3380 C   0  0  0  0  0  0  0  0  0  0  0  0
    8.9480    1.4680   21.2530 O   0  0  0  0  0  0  0  0  0  0  0  0
    7.3340   -0.3690   21.0850 N   0  0  0  0  0  0  0  0  0  0  0  0
    6.5600    0.1810   20.0590 C   0  0  0  0  0  0  0  0  0  0  0  0
    5.3910    0.8750   20.3990 C   0  0  0  0  0  0  0  0  0  0  0  0
    4.6400    1.4440   19.3850 C   0  0  0  0  0  0  0  0  0  0  0  0
    5.1470    1.2690   17.9640 C   0  0  0  0  0  0  0  0  0  0  0  0
    6.2510    0.5960   17.6720 N   0  0  0  0  0  0  0  0  0  0  0  0
    6.9240    0.0710   18.7210 C   0  0  0  0  0  0  0  0  0  0  0  0
   10.9010   -2.2450   23.1670 C   0  0  0  0  0  0  0  0  0  0  0  0
   11.0430   -1.1470   23.7080 C   0  0  1  0  0  0  0  0  0  0  0  0
   11.8610   -0.2540   23.0460 C   0  0  0  0  0  0  0  0  0  0  0  0
   11.3440    0.8750   22.5560 F   0  0  0  0  0  0  0  0  0  0  0  0
   12.4850   -0.9080   22.0440 F   0  0  0  0  0  0  0  0  0  0  0  0
   12.8930    0.1390   23.8240 F   0  0  0  0  0  0  0  0  0  0  0  0
  1  2  1  0
  2  3  1  0
  3  4  2  0
  5  3  1  0
  5  6  1  6
  6  7  1  0
  7  8  2  0
  7  9  1  0
  9 10  1  0
 10 11  2  0
 11 12  1  0
 12 13  2  0
 13 14  1  0
 10 15  1  0
 14 15  2  0
  5 16  1  0
  5 17  1  0
 16 17  1  0
 17 18  1  6
 18 19  1  0
 18 20  1  0
 18 21  1  0
M  END
