pyridine_urea_13684
     RDKit          3D

 26 28  0  0  0  0  0  0  0  0999 V2000
    9.1600    0.0450   26.6110 C   0  0  0  0  0  0  0  0  0  0  0  0
   10.0060   -0.7770   25.8080 O   0  0  0  0  0  0  0  0  0  0  0  0
   10.2040   -0.3190   24.5460 C   0  0  0  0  0  0  0  0  0  0  0  0
   11.7660   -0.4960   24.0880 C   0  0  0  0  0  0  0  0  0  0  0  0
   11.4880    0.1450   22.7010 C   0  0  0  0  0  0  0  0  0  0  0  0
   10.1730    0.6480   22.2400 C   0  0  0  0  0  0  0  0  0  0  0  0
    9.8710    0.1440   23.4230 C   0  0  1  0  0  0  0  0  0  0  0  0
    9.2020   -0.9050   22.7680 N   0  0  0  0  0  0  0  0  0  0  0  0
    8.5350   -0.3020   21.6750 C   0  0  0  0  0  0  0  0  0  0  0  0
    8.9120    0.7160   21.1180 O   0  0  0  0  0  0  0  0  0  0  0  0
    7.3520   -0.8480   21.1960 N   0  0  0  0  0  0  0  0  0  0  0  0
    6.6220   -0.1890   20.1580 C   0  0  0  0  0  0  0  0  0  0  0  0
    5.4550    0.5180   20.4580 C   0  0  0  0  0  0  0  0  0  0  0  0
    4.7330    1.1790   19.4740 C   0  0  0  0  0  0  0  0  0  0  0  0
    5.1910    1.1330   18.1580 C   0  0  0  0  0  0  0  0  0  0  0  0
    6.3060    0.4610   17.8240 N   0  0  0  0  0  0  0  0  0  0  0  0
    6.9940   -0.1830   18.8170 C   0  0  0  0  0  0  0  0  0  0  0  0
   11.3210    0.6300   23.3740 C   0  0  0  0  0  0  0  0  0  0  0  0
   12.5090    1.3590   23.2280 C   0  0  0  0  0  0  0  0  0  0  0  0
   12.7990    2.6670   22.8330 C   0  0  0  0  0  0  0  0  0  0  0  0
   11.9400    3.6210   22.4800 C   0  0  0  0  0  0  0  0  0  0  0  0
   12.4350    5.2050   22.0190 Cl  0  0  0  0  0  0  0  0  0  0  0  0
   10.6800    3.2070   22.5240 C   0  0  0  0  0  0  0  0  0  0  0  0
   10.4450    1.7390   22.9670 C   0  0  0  0  0  0  0  0  0  0  0  0
    8.9020    0.8040   22.5600 C   0  0  0  0  0  0  0  0  0  0  0  0
    8.8710    0.2790   23.8390 C   0  0  0  0  0  0  0  0  0  0  0  0
  1  2  1  0
  2  3  1  0
  3  4  2  0
  4  5  1  0
  5  6  2  0
  6  7  1  0
  7  8  1  6
  8  9  1  0
  9 10  2  0
  9 11  1  0
 11 12  1  0
 12 13  2  0
 13 14  1  0
 14 15  2  0
 15 16  1  0
 12 17  1  0
 16 17  2  0
  7 18  1  0
 18 19  2  0
 19 20  1  0
 20 21  2  0
 21 22  1  0
 21 23  1  0
 18 24  1  0
 23 24  2  0
  6 25  1  0
  3 26  1  0
 25 26  2  0
M  END
