pyridine_urea_7956
     RDKit          3D

 25 27  0  0  0  0  0  0  0  0999 V2000
    8.8670    1.3130   21.1290 O   0  0  0  0  0  0  0  0  0  0  0  0
    8.2790    0.3250   21.5740 C   0  0  0  0  0  0  0  0  0  0  0  0
    8.4510   -0.2510   22.7830 N   0  0  0  0  0  0  0  0  0  0  0  0
    9.1190   -1.4430   22.9950 C   0  0  0  0  0  0  0  0  0  0  0  0
   10.0310   -1.4130   24.0090 C   0  0  0  0  0  0  0  0  0  0  0  0
   11.1840   -1.3670   24.8420 C   0  0  0  0  0  0  0  0  0  0  0  0
   12.5450   -1.2910   24.6530 C   0  0  0  0  0  0  0  0  0  0  0  0
   13.0240   -1.2430   23.4700 C   0  0  0  0  0  0  0  0  0  0  0  0
   12.1560   -1.2750   22.5280 C   0  0  0  0  0  0  0  0  0  0  0  0
   12.7170   -1.2300   21.4680 N   0  0  0  0  0  0  0  0  0  0  0  0
   13.4620   -1.6190   20.5120 C   0  0  0  0  0  0  0  0  0  0  0  0
   14.1310   -0.7290   19.6490 O   0  0  0  0  0  0  0  0  0  0  0  0
   13.7460   -2.9430   20.4680 C   0  0  0  0  0  0  0  0  0  0  0  0
   13.3500   -3.9290   21.0240 C   0  0  0  0  0  0  0  0  0  0  0  0
   14.2070   -4.9660   20.6630 C   0  0  0  0  0  0  0  0  0  0  0  0
   15.1210   -4.6020   19.8850 C   0  0  0  0  0  0  0  0  0  0  0  0
   14.9090   -3.4020   19.6340 O   0  0  0  0  0  0  0  0  0  0  0  0
   10.6800   -1.3580   22.7820 C   0  0  0  0  0  0  0  0  0  0  0  0
    7.3080   -0.3640   20.9030 N   0  0  0  0  0  0  0  0  0  0  0  0
    6.4960    0.2350   19.9640 C   0  0  0  0  0  0  0  0  0  0  0  0
    5.3400    0.9610   20.2440 C   0  0  0  0  0  0  0  0  0  0  0  0
    4.6310    1.5350   19.2040 C   0  0  0  0  0  0  0  0  0  0  0  0
    5.1060    1.3610   17.9180 C   0  0  0  0  0  0  0  0  0  0  0  0
    6.2040    0.6580   17.6270 N   0  0  0  0  0  0  0  0  0  0  0  0
    6.8690    0.1130   18.6530 C   0  0  0  0  0  0  0  0  0  0  0  0
  1  2  2  0
  2  3  1  0
  3  4  1  0
  4  5  1  0
  5  6  2  0
  6  7  1  0
  7  8  2  0
  8  9  1  0
  9 10  1  0
 10 11  1  0
 11 12  2  0
 11 13  1  0
 13 14  2  0
 14 15  1  0
 15 16  2  0
 13 17  1  0
 16 17  1  0
  5 18  1  0
  9 18  2  0
  2 19  1  0
 19 20  1  0
 20 21  2  0
 21 22  1  0
 22 23  2  0
 23 24  1  0
 20 25  1  0
 24 25  2  0
M  END
