pyridine_urea_10265
     RDKit          3D

 23 25  0  0  0  0  0  0  0  0999 V2000
    9.2130   -0.8520   21.2110 O   0  0  0  0  0  0  0  0  0  0  0  0
    8.1400   -0.4750   21.5810 C   0  0  0  0  0  0  0  0  0  0  0  0
    6.9350   -0.8030   21.0090 N   0  0  0  0  0  0  0  0  0  0  0  0
    6.2820   -0.0500   20.0210 C   0  0  0  0  0  0  0  0  0  0  0  0
    5.1050    0.6660   20.1960 C   0  0  0  0  0  0  0  0  0  0  0  0
    4.5640    1.3830   19.1260 C   0  0  0  0  0  0  0  0  0  0  0  0
    5.2270    1.3560   17.9160 C   0  0  0  0  0  0  0  0  0  0  0  0
    6.3640    0.6690   17.7210 N   0  0  0  0  0  0  0  0  0  0  0  0
    6.8590   -0.0130   18.7670 C   0  0  0  0  0  0  0  0  0  0  0  0
    7.9640    0.3680   22.6470 N   0  0  0  0  0  0  0  0  0  0  0  0
    8.5430    1.6530   22.7540 C   0  0  0  0  0  0  0  0  0  0  0  0
    9.6260    1.7450   21.9870 C   0  0  0  0  0  0  0  0  0  0  0  0
   10.6710    2.3910   22.6180 C   0  0  0  0  0  0  0  0  0  0  0  0
   10.2030    3.6260   22.9030 N   0  0  0  0  0  0  0  0  0  0  0  0
   11.2260    4.6280   22.6510 C   0  0  0  0  0  0  0  0  0  0  0  0
   12.3190    4.0620   21.8900 C   0  0  0  0  0  0  0  0  0  0  0  0
   13.3630    3.3200   22.5320 C   0  0  0  0  0  0  0  0  0  0  0  0
   14.4000    2.7640   21.7560 C   0  0  0  0  0  0  0  0  0  0  0  0
   14.4920    2.8970   20.4280 C   0  0  0  0  0  0  0  0  0  0  0  0
   13.5670    3.5760   19.7810 C   0  0  0  0  0  0  0  0  0  0  0  0
   12.5170    4.1270   20.5160 C   0  0  0  0  0  0  0  0  0  0  0  0
    9.4110    3.4050   24.0430 C   0  0  0  0  0  0  0  0  0  0  0  0
    8.9410    2.0420   23.9870 C   0  0  0  0  0  0  0  0  0  0  0  0
  1  2  2  0
  2  3  1  0
  3  4  1  0
  4  5  2  0
  5  6  1  0
  6  7  2  0
  7  8  1  0
  4  9  1  0
  8  9  2  0
  2 10  1  0
 10 11  1  0
 11 12  1  0
 12 13  1  0
 13 14  1  0
 14 15  1  0
 15 16  1  0
 16 17  2  0
 17 18  1  0
 18 19  2  0
 19 20  1  0
 16 21  1  0
 20 21  2  0
 14 22  1  0
 11 23  1  0
 22 23  1  0
M  END
