pyridine_urea_4393
     RDKit          3D

 23 25  0  0  0  0  0  0  0  0999 V2000
    8.9560    1.1790   21.2160 O   0  0  0  0  0  0  0  0  0  0  0  0
    8.4890    0.1870   21.7980 C   0  0  0  0  0  0  0  0  0  0  0  0
    9.2410   -0.8010   22.4000 N   0  0  0  0  0  0  0  0  0  0  0  0
   10.6490   -0.5570   22.5700 C   0  0  0  0  0  0  0  0  0  0  0  0
   11.0000    0.9270   22.9010 C   0  0  0  0  0  0  0  0  0  0  0  0
   12.4850    1.2440   23.0870 C   0  0  0  0  0  0  0  0  0  0  0  0
   13.1680   -0.0490   22.8890 C   0  0  0  0  0  0  0  0  0  0  0  0
   12.9740   -1.3730   22.6060 N   0  0  0  0  0  0  0  0  0  0  0  0
   11.6200   -1.5950   22.4420 C   0  0  0  0  0  0  0  0  0  0  0  0
    7.1320   -0.0640   21.9160 N   0  0  0  0  0  0  0  0  0  0  0  0
    6.3620    0.1210   20.7650 C   0  0  1  0  0  0  0  0  0  0  0  0
    6.0560    1.4220   20.3860 C   0  0  0  0  0  0  0  0  0  0  0  0
    5.5820    1.5520   19.1050 C   0  0  0  0  0  0  0  0  0  0  0  0
    6.6100    1.1900   18.2420 C   0  0  0  0  0  0  0  0  0  0  0  0
    7.2910    0.0830   18.5060 N   0  0  0  0  0  0  0  0  0  0  0  0
    7.8910   -0.6590   17.5400 C   0  0  0  0  0  0  0  0  0  0  0  0
    8.3080   -1.7310   17.8570 O   0  0  0  0  0  0  0  0  0  0  0  0
    7.9300   -0.2490   16.2930 N   0  0  0  0  0  0  0  0  0  0  0  0
    9.0460   -0.4240   15.6690 C   0  0  0  0  0  0  0  0  0  0  0  0
    9.0780    0.2040   14.3880 C   0  0  0  0  0  0  0  0  0  0  0  0
    7.8060    0.5590   14.3260 C   0  0  0  0  0  0  0  0  0  0  0  0
    7.4970    0.9080   15.7690 C   0  0  0  0  0  0  0  0  0  0  0  0
    7.2820   -0.5940   19.8010 C   0  0  0  0  0  0  0  0  0  0  0  0
  1  2  2  0
  2  3  1  0
  3  4  1  0
  4  5  2  0
  5  6  1  0
  6  7  2  0
  7  8  1  0
  4  9  1  0
  8  9  2  0
  2 10  1  0
 11 10  1  1
 11 12  1  0
 12 13  1  0
 13 14  1  0
 14 15  1  0
 15 16  1  0
 16 17  2  0
 16 18  1  0
 18 19  1  0
 19 20  1  0
 20 21  1  0
 18 22  1  0
 21 22  1  0
 11 23  1  0
 15 23  1  0
M  END
