pyridine_urea_275
     RDKit          3D

 28 30  0  0  0  0  0  0  0  0999 V2000
    8.7070    0.8890   21.1790 O   0  0  0  0  0  0  0  0  0  0  0  0
    8.3770   -0.2710   21.3850 C   0  0  0  0  0  0  0  0  0  0  0  0
    7.1110   -0.7310   21.1050 N   0  0  0  0  0  0  0  0  0  0  0  0
    6.4620   -0.0430   20.0170 C   0  0  0  0  0  0  0  0  0  0  0  0
    5.1760    0.7050   20.3440 C   0  0  0  0  0  0  0  0  0  0  0  0
    4.5600    1.4090   19.1840 C   0  0  0  0  0  0  0  0  0  0  0  0
    5.1860    1.3290   17.9530 C   0  0  0  0  0  0  0  0  0  0  0  0
    6.3200    0.6450   17.7200 N   0  0  0  0  0  0  0  0  0  0  0  0
    6.9240   -0.0140   18.7280 C   0  0  0  0  0  0  0  0  0  0  0  0
    9.2120   -1.2330   21.8930 N   0  0  0  0  0  0  0  0  0  0  0  0
   10.3890   -0.8290   22.6910 C   0  0  1  0  0  0  0  0  0  0  0  0
   11.5110   -1.3110   22.1690 C   0  0  0  0  0  0  0  0  0  0  0  0
   12.7480   -2.0140   22.6060 C   0  0  0  0  0  0  0  0  0  0  0  0
   13.6180   -2.6020   23.4860 C   0  0  0  0  0  0  0  0  0  0  0  0
   13.1880   -2.5770   24.7390 C   0  0  0  0  0  0  0  0  0  0  0  0
   11.9880   -1.9710   24.7980 C   0  0  0  0  0  0  0  0  0  0  0  0
   11.2670   -1.4120   23.5870 C   0  0  0  0  0  0  0  0  0  0  0  0
   10.4500    0.6970   22.9110 C   0  0  0  0  0  0  0  0  0  0  0  0
    9.2660    1.4010   23.2010 C   0  0  0  0  0  0  0  0  0  0  0  0
    9.7460    2.7650   23.3270 C   0  0  0  0  0  0  0  0  0  0  0  0
   11.2090    3.1590   23.1590 C   0  0  0  0  0  0  0  0  0  0  0  0
   12.3440    2.2420   22.8520 C   0  0  0  0  0  0  0  0  0  0  0  0
   13.1750    3.3330   22.8810 O   0  0  0  0  0  0  0  0  0  0  0  0
   12.7570    4.5090   22.1960 C   0  0  0  0  0  0  0  0  0  0  0  0
   12.0830    5.3660   22.9860 F   0  0  0  0  0  0  0  0  0  0  0  0
   12.0140    4.1800   21.1270 F   0  0  0  0  0  0  0  0  0  0  0  0
   13.8150    5.1770   21.6820 F   0  0  0  0  0  0  0  0  0  0  0  0
   11.1700    1.7820   22.9630 C   0  0  0  0  0  0  0  0  0  0  0  0
  1  2  2  0
  2  3  1  0
  3  4  1  0
  4  5  2  0
  5  6  1  0
  6  7  2  0
  7  8  1  0
  4  9  1  0
  8  9  2  0
  2 10  1  0
 11 10  1  6
 11 12  1  0
 12 13  2  0
 13 14  1  0
 14 15  2  0
 15 16  1  0
 12 17  1  0
 16 17  2  0
 11 18  1  0
 18 19  2  0
 19 20  1  0
 20 21  2  0
 21 22  1  0
 22 23  1  0
 23 24  1  0
 24 25  1  0
 24 26  1  0
 24 27  1  0
 18 28  1  0
 22 28  2  0
M  END
