pyridine_urea_6834
     RDKit          3D

 21 22  0  0  0  0  0  0  0  0999 V2000
   11.8750    0.2270   23.2300 C   0  0  0  0  0  0  0  0  0  0  0  0
   10.5100   -0.2080   23.8760 C   0  0  0  0  0  0  0  0  0  0  0  0
    9.6940   -1.0650   23.0310 C   0  0  2  0  0  0  0  0  0  0  0  0
   10.4300   -0.8370   21.8280 C   0  0  0  0  0  0  0  0  0  0  0  0
   11.6540   -1.5990   21.9300 C   0  0  0  0  0  0  0  0  0  0  0  0
   12.3680   -2.1470   20.9900 C   0  0  0  0  0  0  0  0  0  0  0  0
   13.3860   -2.8120   21.3320 C   0  0  0  0  0  0  0  0  0  0  0  0
   13.6560   -2.9060   22.6620 C   0  0  0  0  0  0  0  0  0  0  0  0
   12.9310   -2.3320   23.5690 C   0  0  0  0  0  0  0  0  0  0  0  0
   11.8180   -1.5770   23.4790 C   0  0  0  0  0  0  0  0  0  0  0  0
   12.6570   -2.0020   25.0650 Br  0  0  0  0  0  0  0  0  0  0  0  0
    8.3370   -0.5510   22.8000 N   0  0  0  0  0  0  0  0  0  0  0  0
    8.0570    0.1620   21.5750 C   0  0  0  0  0  0  0  0  0  0  0  0
    8.7080    1.1390   21.1590 O   0  0  0  0  0  0  0  0  0  0  0  0
    6.9860   -0.4160   20.9840 N   0  0  0  0  0  0  0  0  0  0  0  0
    6.3750    0.1870   19.9200 C   0  0  0  0  0  0  0  0  0  0  0  0
    5.1040    0.9840   20.1210 C   0  0  0  0  0  0  0  0  0  0  0  0
    4.5410    1.5920   19.0430 C   0  0  0  0  0  0  0  0  0  0  0  0
    5.1510    1.4560   17.8110 C   0  0  0  0  0  0  0  0  0  0  0  0
    6.2750    0.7480   17.5850 N   0  0  0  0  0  0  0  0  0  0  0  0
    6.8560    0.1320   18.6380 C   0  0  0  0  0  0  0  0  0  0  0  0
  1  2  1  0
  3  2  1  1
  3  4  1  0
  4  5  1  0
  5  6  2  0
  6  7  1  0
  7  8  2  0
  8  9  1  0
  5 10  1  0
  9 10  2  0
 10 11  1  0
  3 12  1  0
 12 13  1  0
 13 14  2  0
 13 15  1  0
 15 16  1  0
 16 17  2  0
 17 18  1  0
 18 19  2  0
 19 20  1  0
 16 21  1  0
 20 21  2  0
M  END
