pyridine_urea_11311
     RDKit          3D

 15 15  0  0  0  0  0  0  0  0999 V2000
   12.1570    0.6400   23.1260 C   0  0  0  0  0  0  0  0  0  0  0  0
   11.2240   -0.1170   23.2380 C   0  0  2  0  0  0  0  0  0  0  0  0
   11.9300   -0.9010   24.2330 O   0  0  0  0  0  0  0  0  0  0  0  0
   10.1720   -1.1600   22.9690 C   0  0  2  0  0  0  0  0  0  0  0  0
   10.5840   -1.7870   21.7260 C   0  0  0  0  0  0  0  0  0  0  0  0
    8.8820   -0.4380   22.8180 N   0  0  0  0  0  0  0  0  0  0  0  0
    8.4600    0.1520   21.6220 C   0  0  0  0  0  0  0  0  0  0  0  0
    8.9710    1.1930   21.1830 O   0  0  0  0  0  0  0  0  0  0  0  0
    7.4340   -0.5560   21.0720 N   0  0  0  0  0  0  0  0  0  0  0  0
    6.7020    0.0250   20.0760 C   0  0  0  0  0  0  0  0  0  0  0  0
    5.4810    0.8100   20.4150 C   0  0  0  0  0  0  0  0  0  0  0  0
    4.6490    1.4510   19.5350 C   0  0  0  0  0  0  0  0  0  0  0  0
    5.2320    1.1960   18.1600 C   0  0  0  0  0  0  0  0  0  0  0  0
    6.3050    0.5120   17.7590 N   0  0  0  0  0  0  0  0  0  0  0  0
    6.9880   -0.0460   18.7520 C   0  0  0  0  0  0  0  0  0  0  0  0
  2  1  1  6
  2  3  1  0
  2  4  1  0
  4  5  1  6
  4  6  1  0
  6  7  1  0
  7  8  2  0
  7  9  1  0
  9 10  1  0
 10 11  2  0
 11 12  1  0
 12 13  2  0
 13 14  1  0
 10 15  1  0
 14 15  2  0
M  END
