pyridine_urea_2024
     RDKit          3D

 15 15  0  0  0  0  0  0  0  0999 V2000
   12.0720    1.9750   22.8270 C   0  0  0  0  0  0  0  0  0  0  0  0
   13.1010    0.8350   23.0470 C   0  0  0  0  0  0  0  0  0  0  0  0
   12.7650   -0.4350   22.2740 C   0  0  0  0  0  0  0  0  0  0  0  0
   11.4120   -1.0840   22.4650 C   0  0  0  0  0  0  0  0  0  0  0  0
   10.0650   -1.1260   23.1030 C   0  0  0  0  0  0  0  0  0  0  0  0
    8.7550   -1.2550   22.4940 N   0  0  0  0  0  0  0  0  0  0  0  0
    8.2940   -0.2900   21.6180 C   0  0  0  0  0  0  0  0  0  0  0  0
    8.9240    0.7230   21.3490 O   0  0  0  0  0  0  0  0  0  0  0  0
    6.9850   -0.6570   21.1110 N   0  0  0  0  0  0  0  0  0  0  0  0
    6.4080   -0.0080   20.0510 C   0  0  0  0  0  0  0  0  0  0  0  0
    5.2490    0.7440   20.2760 C   0  0  0  0  0  0  0  0  0  0  0  0
    4.6520    1.4170   19.2230 C   0  0  0  0  0  0  0  0  0  0  0  0
    5.2050    1.3400   17.9640 C   0  0  0  0  0  0  0  0  0  0  0  0
    6.3130    0.6200   17.7250 N   0  0  0  0  0  0  0  0  0  0  0  0
    6.8930   -0.0380   18.7590 C   0  0  0  0  0  0  0  0  0  0  0  0
  1  2  1  0
  2  3  1  0
  3  4  2  3
  4  5  1  0
  5  6  1  0
  6  7  1  0
  7  8  2  0
  7  9  1  0
  9 10  1  0
 10 11  2  0
 11 12  1  0
 12 13  2  0
 13 14  1  0
 10 15  1  0
 14 15  2  0
M  END
