pyridine_urea_5078
     RDKit          3D

 20 21  0  0  0  0  0  0  0  0999 V2000
    8.8310    0.9460   21.5640 O   0  0  0  0  0  0  0  0  0  0  0  0
    8.4540   -0.2020   21.3860 C   0  0  0  0  0  0  0  0  0  0  0  0
    9.2530   -1.3070   21.4080 N   0  0  0  0  0  0  0  0  0  0  0  0
   10.1450   -1.6750   22.4220 C   0  0  0  0  0  0  0  0  0  0  0  0
   11.5050   -1.6030   22.1070 C   0  0  0  0  0  0  0  0  0  0  0  0
   12.1080   -0.4520   22.5840 C   0  0  0  0  0  0  0  0  0  0  0  0
   12.8310   -0.7900   23.6780 C   0  0  0  0  0  0  0  0  0  0  0  0
   12.1920   -0.1630   24.8420 C   0  0  0  0  0  0  0  0  0  0  0  0
   10.8470   -0.4430   24.8160 C   0  0  0  0  0  0  0  0  0  0  0  0
   10.7130   -1.7820   24.6070 F   0  0  0  0  0  0  0  0  0  0  0  0
   10.2030   -0.2270   25.9890 F   0  0  0  0  0  0  0  0  0  0  0  0
   10.2230    0.4690   23.7980 C   0  0  0  0  0  0  0  0  0  0  0  0
   11.1470    0.6050   22.7610 C   0  0  0  0  0  0  0  0  0  0  0  0
    7.1610   -0.5500   21.0890 N   0  0  0  0  0  0  0  0  0  0  0  0
    6.4650    0.0760   20.0530 C   0  0  0  0  0  0  0  0  0  0  0  0
    5.2990    0.8000   20.3360 C   0  0  0  0  0  0  0  0  0  0  0  0
    4.6710    1.4160   19.2600 C   0  0  0  0  0  0  0  0  0  0  0  0
    5.1640    1.3190   17.9810 C   0  0  0  0  0  0  0  0  0  0  0  0
    6.2620    0.6290   17.6820 N   0  0  0  0  0  0  0  0  0  0  0  0
    6.8870    0.0240   18.7230 C   0  0  0  0  0  0  0  0  0  0  0  0
  1  2  2  0
  2  3  1  0
  3  4  1  0
  4  5  1  0
  5  6  1  0
  6  7  1  0
  7  8  1  0
  8  9  1  0
  9 10  1  0
  9 11  1  0
  9 12  1  0
  6 13  1  0
 12 13  1  0
  2 14  1  0
 14 15  1  0
 15 16  2  0
 16 17  1  0
 17 18  2  0
 18 19  1  0
 15 20  1  0
 19 20  2  0
M  END
