pyridine_urea_9003
     RDKit          3D

 19 20  0  0  0  0  0  0  0  0999 V2000
   10.2970   -2.7500   23.6070 C   0  0  0  0  0  0  0  0  0  0  0  0
   11.4230   -2.1770   23.0810 N   0  0  0  0  0  0  0  0  0  0  0  0
   11.3430   -0.9070   22.4270 C   0  0  1  0  0  0  0  0  0  0  0  0
   10.0650   -0.2160   22.9100 C   0  0  0  0  0  0  0  0  0  0  0  0
    8.8990   -0.8030   22.5390 N   0  0  0  0  0  0  0  0  0  0  0  0
    8.3740    0.0220   21.5720 C   0  0  0  0  0  0  0  0  0  0  0  0
    8.8760    1.1020   21.2100 O   0  0  0  0  0  0  0  0  0  0  0  0
    7.2030   -0.4550   21.0520 N   0  0  0  0  0  0  0  0  0  0  0  0
    6.5030    0.1530   20.0160 C   0  0  0  0  0  0  0  0  0  0  0  0
    5.3450    0.8600   20.2770 C   0  0  0  0  0  0  0  0  0  0  0  0
    4.6860    1.4670   19.2190 C   0  0  0  0  0  0  0  0  0  0  0  0
    5.1700    1.3710   17.9110 C   0  0  0  0  0  0  0  0  0  0  0  0
    6.2690    0.6890   17.6370 N   0  0  0  0  0  0  0  0  0  0  0  0
    6.8890    0.1060   18.7140 C   0  0  0  0  0  0  0  0  0  0  0  0
   12.4670   -0.0910   22.5630 C   0  0  0  0  0  0  0  0  0  0  0  0
   12.8840   -0.5430   23.7980 C   0  0  0  0  0  0  0  0  0  0  0  0
   12.7900   -2.2580   24.0000 S   0  0  0  0  0  0  0  0  0  0  0  0
   12.5010   -2.4850   25.3750 O   0  0  0  0  0  0  0  0  0  0  0  0
   13.8080   -2.9480   23.2620 O   0  0  0  0  0  0  0  0  0  0  0  0
  1  2  1  0
  2  3  1  0
  3  4  1  1
  4  5  1  0
  5  6  1  0
  6  7  2  0
  6  8  1  0
  8  9  1  0
  9 10  2  0
 10 11  1  0
 11 12  2  0
 12 13  1  0
  9 14  1  0
 13 14  2  0
  3 15  1  0
 15 16  1  0
 17  2  1  0
 16 17  1  0
 17 18  2  0
 17 19  2  0
M  END
