pyridine_urea_4378
     RDKit          3D

 23 24  0  0  0  0  0  0  0  0999 V2000
   12.5770   -1.9640   24.8450 C   0  0  0  0  0  0  0  0  0  0  0  0
   12.1720   -0.5940   24.8640 O   0  0  0  0  0  0  0  0  0  0  0  0
   10.8010   -0.3540   25.2370 C   0  0  0  0  0  0  0  0  0  0  0  0
   10.3350   -0.4840   26.3550 O   0  0  0  0  0  0  0  0  0  0  0  0
    9.9190    0.1180   24.1060 C   0  0  0  0  0  0  0  0  0  0  0  0
    9.1480   -1.0250   23.5060 C   0  0  2  0  0  0  0  0  0  0  0  0
    9.9320   -1.6620   22.4090 C   0  0  0  0  0  0  0  0  0  0  0  0
   11.2560   -1.0300   22.3920 C   0  0  0  0  0  0  0  0  0  0  0  0
   11.3210    0.3310   23.0900 C   0  0  0  0  0  0  0  0  0  0  0  0
   12.5420    0.9200   23.0770 C   0  0  0  0  0  0  0  0  0  0  0  0
   13.5760    0.2770   22.4590 C   0  0  0  0  0  0  0  0  0  0  0  0
   13.4500   -0.9640   21.8340 C   0  0  0  0  0  0  0  0  0  0  0  0
   12.3060   -1.6130   21.8050 C   0  0  0  0  0  0  0  0  0  0  0  0
    7.9430   -0.4290   22.9430 N   0  0  0  0  0  0  0  0  0  0  0  0
    8.1030    0.0830   21.6920 C   0  0  0  0  0  0  0  0  0  0  0  0
    8.9550    1.0870   21.2840 O   0  0  0  0  0  0  0  0  0  0  0  0
    7.2100   -0.5760   20.9000 N   0  0  0  0  0  0  0  0  0  0  0  0
    6.4470    0.0940   19.9640 C   0  0  0  0  0  0  0  0  0  0  0  0
    5.2590    0.7770   20.1940 C   0  0  0  0  0  0  0  0  0  0  0  0
    4.5480    1.4740   19.1020 C   0  0  0  0  0  0  0  0  0  0  0  0
    5.1560    1.3860   17.8650 C   0  0  0  0  0  0  0  0  0  0  0  0
    6.3010    0.7170   17.6340 N   0  0  0  0  0  0  0  0  0  0  0  0
    6.9060    0.0990   18.6690 C   0  0  0  0  0  0  0  0  0  0  0  0
  1  2  1  0
  2  3  1  0
  3  4  2  0
  3  5  1  0
  6  5  1  6
  6  7  1  0
  7  8  1  0
  8  9  2  0
  9 10  1  0
 10 11  2  0
 11 12  1  0
  8 13  1  0
 12 13  2  0
  6 14  1  0
 14 15  1  0
 15 16  2  0
 15 17  1  0
 17 18  1  0
 18 19  2  0
 19 20  1  0
 20 21  2  0
 21 22  1  0
 18 23  1  0
 22 23  2  0
M  END
