pyridine_urea_1148
     RDKit          3D

 21 22  0  0  0  0  0  0  0  0999 V2000
   12.6300   -2.6260   21.1960 C   0  0  0  0  0  0  0  0  0  0  0  0
   11.9630   -1.3810   21.8270 C   0  0  0  0  0  0  0  0  0  0  0  0
   10.5410   -1.6950   22.3080 C   0  0  2  0  0  0  0  0  0  0  0  0
    9.4890   -1.3180   21.3630 N   0  0  0  0  0  0  0  0  0  0  0  0
    8.6690   -0.2100   21.4500 C   0  0  0  0  0  0  0  0  0  0  0  0
    9.0800    0.9090   21.7110 O   0  0  0  0  0  0  0  0  0  0  0  0
    7.3540   -0.5290   21.1500 N   0  0  0  0  0  0  0  0  0  0  0  0
    6.6150    0.0630   20.1000 C   0  0  0  0  0  0  0  0  0  0  0  0
    5.4630    0.7940   20.4040 C   0  0  0  0  0  0  0  0  0  0  0  0
    4.7330    1.3970   19.3760 C   0  0  0  0  0  0  0  0  0  0  0  0
    5.1820    1.2490   18.0720 C   0  0  0  0  0  0  0  0  0  0  0  0
    6.2750    0.5500   17.7560 N   0  0  0  0  0  0  0  0  0  0  0  0
    6.9650   -0.0290   18.7670 C   0  0  0  0  0  0  0  0  0  0  0  0
   10.3360   -1.0950   23.6440 C   0  0  0  0  0  0  0  0  0  0  0  0
    9.4530   -1.0500   24.4620 C   0  0  0  0  0  0  0  0  0  0  0  0
   10.5640   -0.2710   25.0810 C   0  0  0  0  0  0  0  0  0  0  0  0
   11.4020   -0.5910   23.7610 C   0  0  0  0  0  0  0  0  0  0  0  0
   12.7840   -0.5370   22.7330 Cl  0  0  0  0  0  0  0  0  0  0  0  0
   12.2830    0.1440   24.4780 C   0  0  0  0  0  0  0  0  0  0  0  0
   11.0620   -0.2890   24.6350 C   0  0  0  0  0  0  0  0  0  0  0  0
   10.3600   -0.0300   25.7440 F   0  0  0  0  0  0  0  0  0  0  0  0
  1  2  3  0
  3  2  1  6
  3  4  1  0
  4  5  1  0
  5  6  2  0
  5  7  1  0
  7  8  1  0
  8  9  2  0
  9 10  1  0
 10 11  2  0
 11 12  1  0
  8 13  1  0
 12 13  2  0
  3 14  1  0
 14 15  2  0
 15 16  1  0
 16 17  2  0
 17 18  1  0
 17 19  1  0
 14 20  1  0
 19 20  2  0
 20 21  1  0
M  END
