pyridine_urea_3947
     RDKit          3D

 29 31  0  0  0  0  0  0  0  0999 V2000
    7.1360    3.3470   26.6410 C   0  0  0  0  0  0  0  0  0  0  0  0
    6.5900    2.9710   25.3750 O   0  0  0  0  0  0  0  0  0  0  0  0
    7.4670    2.1770   24.6720 C   0  0  0  0  0  0  0  0  0  0  0  0
    7.1840    0.9060   24.3690 C   0  0  0  0  0  0  0  0  0  0  0  0
    8.0860    0.1710   23.6910 C   0  0  0  0  0  0  0  0  0  0  0  0
    9.2970    0.7720   23.3230 C   0  0  0  0  0  0  0  0  0  0  0  0
   10.1640   -0.0600   22.6120 C   0  0  2  0  0  0  0  0  0  0  0  0
    9.4220   -1.1100   22.0610 N   0  0  0  0  0  0  0  0  0  0  0  0
    8.4030   -0.5070   21.3150 C   0  0  0  0  0  0  0  0  0  0  0  0
    8.5870    0.8610   20.9970 O   0  0  0  0  0  0  0  0  0  0  0  0
    7.2590   -1.1530   20.9210 N   0  0  0  0  0  0  0  0  0  0  0  0
    6.4170   -0.3400   20.0210 C   0  0  0  0  0  0  0  0  0  0  0  0
    5.2030    0.2620   20.3140 C   0  0  0  0  0  0  0  0  0  0  0  0
    4.5570    1.0260   19.3310 C   0  0  0  0  0  0  0  0  0  0  0  0
    5.1510    1.1600   18.0850 C   0  0  0  0  0  0  0  0  0  0  0  0
    6.3220    0.5820   17.7800 N   0  0  0  0  0  0  0  0  0  0  0  0
    6.9140   -0.1460   18.7440 C   0  0  0  0  0  0  0  0  0  0  0  0
   11.5750    0.0680   22.8870 C   0  0  0  0  0  0  0  0  0  0  0  0
   11.2180    1.3980   22.7090 C   0  0  0  0  0  0  0  0  0  0  0  0
    9.8620    1.8740   22.4140 C   0  0  0  0  0  0  0  0  0  0  0  0
   10.7530    2.8850   22.4920 C   0  0  0  0  0  0  0  0  0  0  0  0
   12.0910    2.5380   22.7730 C   0  0  0  0  0  0  0  0  0  0  0  0
   13.0380    4.0380   22.8040 S   0  0  0  0  0  0  0  0  0  0  0  0
   12.3430    4.9860   21.5170 C   0  0  0  0  0  0  0  0  0  0  0  0
   12.7440    4.8430   23.9680 O   0  0  0  0  0  0  0  0  0  0  0  0
   14.3330    3.7310   22.3600 O   0  0  0  0  0  0  0  0  0  0  0  0
   12.5760    1.1190   22.9910 C   0  0  0  0  0  0  0  0  0  0  0  0
    9.7840    2.1250   23.5430 C   0  0  0  0  0  0  0  0  0  0  0  0
    8.6800    2.7110   24.2720 C   0  0  0  0  0  0  0  0  0  0  0  0
  1  2  1  0
  2  3  1  0
  3  4  2  0
  4  5  1  0
  5  6  2  0
  6  7  1  0
  7  8  1  1
  8  9  1  0
  9 10  2  0
  9 11  1  0
 11 12  1  0
 12 13  2  0
 13 14  1  0
 14 15  2  0
 15 16  1  0
 12 17  1  0
 16 17  2  0
  7 18  1  0
 18 19  2  0
 19 20  1  0
 20 21  2  0
 21 22  1  0
 22 23  1  0
 23 24  1  0
 23 25  2  0
 23 26  2  0
 18 27  1  0
 22 27  2  0
  6 28  1  0
  3 29  1  0
 28 29  2  0
M  END
