pyridine_urea_13709
     RDKit          3D

 25 27  0  0  0  0  0  0  0  0999 V2000
    8.8030    0.7800   21.3150 O   0  0  0  0  0  0  0  0  0  0  0  0
    8.3720   -0.3390   21.5590 C   0  0  0  0  0  0  0  0  0  0  0  0
    7.2370   -0.8630   20.9970 N   0  0  0  0  0  0  0  0  0  0  0  0
    6.4570   -0.1310   20.0890 C   0  0  0  0  0  0  0  0  0  0  0  0
    5.1400    0.5930   20.4340 C   0  0  0  0  0  0  0  0  0  0  0  0
    4.5030    1.3340   19.2550 C   0  0  0  0  0  0  0  0  0  0  0  0
    5.2070    1.2770   17.9380 C   0  0  0  0  0  0  0  0  0  0  0  0
    6.3570    0.6050   17.7530 N   0  0  0  0  0  0  0  0  0  0  0  0
    6.9240   -0.0550   18.7870 C   0  0  0  0  0  0  0  0  0  0  0  0
    9.0390   -1.1610   22.4440 N   0  0  0  0  0  0  0  0  0  0  0  0
   10.3890   -0.7510   22.6950 C   0  0  0  0  0  0  0  0  0  0  0  0
   11.4650   -1.3390   22.0470 C   0  0  0  0  0  0  0  0  0  0  0  0
   12.7520   -0.8790   22.2950 C   0  0  0  0  0  0  0  0  0  0  0  0
   12.9740    0.1660   23.1850 C   0  0  0  0  0  0  0  0  0  0  0  0
   11.8980    0.7670   23.8660 C   0  0  0  0  0  0  0  0  0  0  0  0
   10.6230    0.2720   23.5960 C   0  0  0  0  0  0  0  0  0  0  0  0
    9.4340    0.8890   24.3330 C   0  0  0  0  0  0  0  0  0  0  0  0
    8.8800    0.2020   25.4020 C   0  0  0  0  0  0  0  0  0  0  0  0
    7.7860    0.6840   26.1390 C   0  0  0  0  0  0  0  0  0  0  0  0
    7.1810    1.9090   25.8320 C   0  0  0  0  0  0  0  0  0  0  0  0
    6.1330    2.3670   26.5400 F   0  0  0  0  0  0  0  0  0  0  0  0
    7.6670    2.6690   24.7820 C   0  0  0  0  0  0  0  0  0  0  0  0
    7.0410    3.8560   24.5320 F   0  0  0  0  0  0  0  0  0  0  0  0
    8.8590    2.1240   23.9920 C   0  0  0  0  0  0  0  0  0  0  0  0
    9.3020    2.9080   22.9690 F   0  0  0  0  0  0  0  0  0  0  0  0
  1  2  2  0
  2  3  1  0
  3  4  1  0
  4  5  2  0
  5  6  1  0
  6  7  2  0
  7  8  1  0
  4  9  1  0
  8  9  2  0
  2 10  1  0
 10 11  1  0
 11 12  2  0
 12 13  1  0
 13 14  2  0
 14 15  1  0
 11 16  1  0
 15 16  2  0
 16 17  1  0
 17 18  2  0
 18 19  1  0
 19 20  2  0
 20 21  1  0
 20 22  1  0
 22 23  1  0
 17 24  1  0
 22 24  2  0
 24 25  1  0
M  END
