pyridine_urea_2287
     RDKit          3D

 25 26  0  0  0  0  0  0  0  0999 V2000
   13.6780   -2.4530   23.5730 C   0  0  0  0  0  0  0  0  0  0  0  0
   13.4530   -1.2010   22.2780 S   0  0  0  0  0  0  0  0  0  0  0  0
   13.9770    0.1020   22.5720 O   0  0  0  0  0  0  0  0  0  0  0  0
   13.2170   -1.7750   20.9730 O   0  0  0  0  0  0  0  0  0  0  0  0
   11.9160   -0.9420   23.0080 C   0  0  0  0  0  0  0  0  0  0  0  0
   11.9500   -0.4780   24.4670 C   0  0  0  0  0  0  0  0  0  0  0  0
   10.6210   -0.2800   25.1580 C   0  0  0  0  0  0  0  0  0  0  0  0
    9.3790   -0.5180   24.4290 C   0  0  0  0  0  0  0  0  0  0  0  0
    8.3170   -0.3540   25.0350 O   0  0  0  0  0  0  0  0  0  0  0  0
    7.6620    0.8700   24.6610 C   0  0  0  0  0  0  0  0  0  0  0  0
    7.1380    1.4160   25.8380 C   0  0  0  0  0  0  0  0  0  0  0  0
    6.1310    2.3070   25.5820 F   0  0  0  0  0  0  0  0  0  0  0  0
    6.6060    0.4610   26.6520 F   0  0  0  0  0  0  0  0  0  0  0  0
    9.3510   -0.9500   23.0390 C   0  0  0  0  0  0  0  0  0  0  0  0
    8.1040   -1.1430   22.4510 N   0  0  0  0  0  0  0  0  0  0  0  0
    7.8500   -0.3360   21.4130 C   0  0  0  0  0  0  0  0  0  0  0  0
    8.5150    0.6490   21.1080 O   0  0  0  0  0  0  0  0  0  0  0  0
    6.7480   -0.7710   20.7770 N   0  0  0  0  0  0  0  0  0  0  0  0
    6.1350    0.0070   19.8380 C   0  0  0  0  0  0  0  0  0  0  0  0
    4.9320    0.7180   20.0430 C   0  0  0  0  0  0  0  0  0  0  0  0
    4.3140    1.5470   19.0450 C   0  0  0  0  0  0  0  0  0  0  0  0
    5.1390    1.5410   17.7620 C   0  0  0  0  0  0  0  0  0  0  0  0
    6.2850    0.8330   17.6180 N   0  0  0  0  0  0  0  0  0  0  0  0
    6.7780    0.0770   18.6440 C   0  0  0  0  0  0  0  0  0  0  0  0
   10.6200   -1.1790   22.2730 C   0  0  0  0  0  0  0  0  0  0  0  0
  2  1  1  0
  2  3  2  0
  2  4  2  0
  2  5  1  0
  5  6  2  0
  6  7  1  0
  7  8  2  0
  8  9  1  0
  9 10  1  0
 10 11  1  0
 11 12  1  0
 11 13  1  0
  8 14  1  0
 14 15  1  0
 15 16  1  0
 16 17  2  0
 16 18  1  0
 18 19  1  0
 19 20  2  0
 20 21  1  0
 21 22  2  0
 22 23  1  0
 19 24  1  0
 23 24  2  0
  5 25  1  0
 14 25  2  0
M  END
