pyridine_urea_14139
     RDKit          3D

 22 24  0  0  0  0  0  0  0  0999 V2000
    7.6560   -1.7120   25.3770 O   0  0  0  0  0  0  0  0  0  0  0  0
    8.5050   -1.0450   24.7940 C   0  0  0  0  0  0  0  0  0  0  0  0
    8.7710    0.0960   25.1210 C   0  0  0  0  0  0  0  0  0  0  0  0
    9.9120    0.1980   25.5680 O   0  0  0  0  0  0  0  0  0  0  0  0
   10.8360   -0.0640   24.4980 C   0  0  0  0  0  0  0  0  0  0  0  0
   12.1450    0.4800   24.2310 C   0  0  0  0  0  0  0  0  0  0  0  0
   12.8120    0.0450   23.1930 C   0  0  0  0  0  0  0  0  0  0  0  0
   12.4360   -0.9630   22.1560 C   0  0  0  0  0  0  0  0  0  0  0  0
   11.1330   -1.6980   22.0740 C   0  0  0  0  0  0  0  0  0  0  0  0
    9.9190   -2.0930   22.3690 C   0  0  0  0  0  0  0  0  0  0  0  0
    9.0560   -1.5710   21.3290 N   0  0  0  0  0  0  0  0  0  0  0  0
    8.4530   -0.3360   21.4040 C   0  0  0  0  0  0  0  0  0  0  0  0
    9.0680    0.7090   21.5690 O   0  0  0  0  0  0  0  0  0  0  0  0
    7.1000   -0.4660   21.2190 N   0  0  0  0  0  0  0  0  0  0  0  0
    6.4180    0.1570   20.0800 C   0  0  0  0  0  0  0  0  0  0  0  0
    5.2700    0.8790   20.3980 C   0  0  0  0  0  0  0  0  0  0  0  0
    4.6070    1.4970   19.3540 C   0  0  0  0  0  0  0  0  0  0  0  0
    5.1740    1.3400   17.9700 C   0  0  0  0  0  0  0  0  0  0  0  0
    6.2700    0.6390   17.6650 N   0  0  0  0  0  0  0  0  0  0  0  0
    6.8950    0.0480   18.6980 C   0  0  0  0  0  0  0  0  0  0  0  0
   10.4800   -1.0660   23.4060 C   0  0  0  0  0  0  0  0  0  0  0  0
    9.2400   -1.5200   23.7100 N   0  0  0  0  0  0  0  0  0  0  0  0
  1  2  2  0
  2  3  1  0
  3  4  1  0
  4  5  1  0
  5  6  1  0
  6  7  2  0
  7  8  1  0
  8  9  2  0
  9 10  1  0
 10 11  1  0
 11 12  1  0
 12 13  2  0
 12 14  1  0
 14 15  1  0
 15 16  2  0
 16 17  1  0
 17 18  2  0
 18 19  1  0
 15 20  1  0
 19 20  2  0
  5 21  2  0
  9 21  1  0
  2 22  1  0
 21 22  1  0
M  END
