pyridine_urea_12866
     RDKit          3D

 19 19  0  0  0  0  0  0  0  0999 V2000
   12.2910    3.8980   21.9040 C   0  0  0  0  0  0  0  0  0  0  0  0
   12.0640    2.8600   23.0370 C   0  0  0  0  0  0  0  0  0  0  0  0
   11.1840    1.7900   22.6690 O   0  0  0  0  0  0  0  0  0  0  0  0
   11.2550    0.9070   23.7430 C   0  0  1  0  0  0  0  0  0  0  0  0
   10.2490   -0.0110   23.9500 C   0  0  0  0  0  0  0  0  0  0  0  0
   10.0830   -1.0050   22.9880 C   0  0  0  0  0  0  0  0  0  0  0  0
    8.7370   -1.1660   22.4960 N   0  0  0  0  0  0  0  0  0  0  0  0
    8.2750   -0.2560   21.5750 C   0  0  0  0  0  0  0  0  0  0  0  0
    8.8460    0.7940   21.3260 O   0  0  0  0  0  0  0  0  0  0  0  0
    7.1040   -0.6970   21.0060 N   0  0  0  0  0  0  0  0  0  0  0  0
    6.4120    0.0100   20.0230 C   0  0  0  0  0  0  0  0  0  0  0  0
    5.2180    0.7330   20.2000 C   0  0  0  0  0  0  0  0  0  0  0  0
    4.6210    1.4160   19.1470 C   0  0  0  0  0  0  0  0  0  0  0  0
    5.1900    1.4050   17.8820 C   0  0  0  0  0  0  0  0  0  0  0  0
    6.3500    0.6970   17.6990 N   0  0  0  0  0  0  0  0  0  0  0  0
    6.9480    0.0090   18.7500 C   0  0  0  0  0  0  0  0  0  0  0  0
   12.5860    0.0800   23.7880 C   0  0  0  0  0  0  0  0  0  0  0  0
   12.4370   -1.2750   23.6400 C   0  0  0  0  0  0  0  0  0  0  0  0
   13.3510    0.5160   22.6140 C   0  0  0  0  0  0  0  0  0  0  0  0
  1  2  1  0
  2  3  1  0
  3  4  1  0
  4  5  1  6
  5  6  1  0
  6  7  1  0
  7  8  1  0
  8  9  2  0
  8 10  1  0
 10 11  1  0
 11 12  2  0
 12 13  1  0
 13 14  2  0
 14 15  1  0
 11 16  1  0
 15 16  2  0
  4 17  1  0
 17 18  1  0
 17 19  1  0
M  END
