pyridine_urea_2204
     RDKit          3D

 26 28  0  0  0  0  0  0  0  0999 V2000
   13.1220    3.7470   22.5100 C   0  0  0  0  0  0  0  0  0  0  0  0
   13.3120    2.3470   22.7640 O   0  0  0  0  0  0  0  0  0  0  0  0
   12.1610    1.6510   22.7840 C   0  0  0  0  0  0  0  0  0  0  0  0
   10.8970    2.4150   23.1300 C   0  0  0  0  0  0  0  0  0  0  0  0
    9.5790    1.7070   23.1720 C   0  0  0  0  0  0  0  0  0  0  0  0
    9.4950    0.2800   22.8730 C   0  0  0  0  0  0  0  0  0  0  0  0
    8.3950   -0.6440   22.8120 N   0  0  0  0  0  0  0  0  0  0  0  0
    7.9780   -0.7430   21.5190 C   0  0  0  0  0  0  0  0  0  0  0  0
    8.7730   -0.8190   20.6520 O   0  0  0  0  0  0  0  0  0  0  0  0
    6.5580   -0.6920   21.3040 N   0  0  0  0  0  0  0  0  0  0  0  0
    6.1360   -0.0330   20.1690 C   0  0  0  0  0  0  0  0  0  0  0  0
    4.9710    0.7370   20.2470 C   0  0  0  0  0  0  0  0  0  0  0  0
    4.5350    1.4080   19.1210 C   0  0  0  0  0  0  0  0  0  0  0  0
    5.2240    1.3340   17.9310 C   0  0  0  0  0  0  0  0  0  0  0  0
    6.3470    0.6010   17.8160 N   0  0  0  0  0  0  0  0  0  0  0  0
    6.7770   -0.0630   18.9270 C   0  0  0  0  0  0  0  0  0  0  0  0
   10.6260   -0.5020   22.5400 C   0  0  0  0  0  0  0  0  0  0  0  0
   12.0000    0.1510   22.4860 C   0  0  0  0  0  0  0  0  0  0  0  0
   12.9430   -0.7230   22.1950 C   0  0  0  0  0  0  0  0  0  0  0  0
   13.5990   -0.9350   20.9550 O   0  0  0  0  0  0  0  0  0  0  0  0
   13.2190   -1.4280   23.2120 C   0  0  0  0  0  0  0  0  0  0  0  0
   13.1490   -0.7510   24.3590 C   0  0  0  0  0  0  0  0  0  0  0  0
   13.4240   -1.3480   25.5430 C   0  0  0  0  0  0  0  0  0  0  0  0
   13.7820   -2.6860   25.6120 C   0  0  0  0  0  0  0  0  0  0  0  0
   13.7970   -3.2330   24.3330 C   0  0  0  0  0  0  0  0  0  0  0  0
   13.5340   -2.6860   23.1610 C   0  0  0  0  0  0  0  0  0  0  0  0
  1  2  1  0
  2  3  1  0
  3  4  2  0
  4  5  1  0
  5  6  2  0
  6  7  1  0
  7  8  1  0
  8  9  2  0
  8 10  1  0
 10 11  1  0
 11 12  2  0
 12 13  1  0
 13 14  2  0
 14 15  1  0
 11 16  1  0
 15 16  2  0
  6 17  1  0
  3 18  1  0
 17 18  2  0
 18 19  1  0
 19 20  2  0
 19 21  1  0
 21 22  2  0
 22 23  1  0
 23 24  2  0
 24 25  1  0
 21 26  1  0
 25 26  2  0
M  END
