pyridine_urea_1759
     RDKit          3D

 17 18  0  0  0  0  0  0  0  0999 V2000
   10.3800    1.1250   22.5620 C   0  0  0  0  0  0  0  0  0  0  0  0
   10.6750   -0.1950   23.1830 C   0  0  0  0  0  0  0  0  0  0  0  0
    9.5810   -0.8420   23.7070 C   0  0  0  0  0  0  0  0  0  0  0  0
    8.5830   -1.1320   22.7380 N   0  0  0  0  0  0  0  0  0  0  0  0
    8.1610   -0.3220   21.6840 C   0  0  0  0  0  0  0  0  0  0  0  0
    8.7020    0.7040   21.3060 O   0  0  0  0  0  0  0  0  0  0  0  0
    7.0100   -0.7940   21.0870 N   0  0  0  0  0  0  0  0  0  0  0  0
    6.3870   -0.0900   20.0420 C   0  0  0  0  0  0  0  0  0  0  0  0
    5.1950    0.6000   20.3210 C   0  0  0  0  0  0  0  0  0  0  0  0
    4.5550    1.3190   19.3130 C   0  0  0  0  0  0  0  0  0  0  0  0
    5.2230    1.3030   17.9420 C   0  0  0  0  0  0  0  0  0  0  0  0
    6.3540    0.6320   17.7210 N   0  0  0  0  0  0  0  0  0  0  0  0
    6.9010   -0.0410   18.7600 C   0  0  0  0  0  0  0  0  0  0  0  0
   11.7830    0.1500   24.2050 C   0  0  0  0  0  0  0  0  0  0  0  0
   13.0070   -0.1690   23.6460 C   0  0  0  0  0  0  0  0  0  0  0  0
   12.7940   -0.9720   22.5690 C   0  0  0  0  0  0  0  0  0  0  0  0
   11.4410   -1.1150   22.4300 C   0  0  0  0  0  0  0  0  0  0  0  0
  2  1  1  0
  2  3  1  0
  3  4  1  0
  4  5  1  0
  5  6  2  0
  5  7  1  0
  7  8  1  0
  8  9  2  0
  9 10  1  0
 10 11  2  0
 11 12  1  0
  8 13  1  0
 12 13  2  0
  2 14  1  0
 14 15  1  0
 15 16  1  0
  2 17  1  0
 16 17  1  0
M  END
