pyridine_urea_9330
     RDKit          3D

 17 17  0  0  0  0  0  0  0  0999 V2000
   12.3990   -0.2260   24.6610 C   0  0  0  0  0  0  0  0  0  0  0  0
   12.7710   -0.7640   23.3340 C   0  0  0  0  0  0  0  0  0  0  0  0
   13.2600    0.0880   22.3940 C   0  0  0  0  0  0  0  0  0  0  0  0
   11.5030   -1.4020   22.7600 C   0  0  2  0  0  0  0  0  0  0  0  0
   11.3230   -2.6100   23.3960 C   0  0  0  0  0  0  0  0  0  0  0  0
   11.4780   -1.6990   21.5830 O   0  0  0  0  0  0  0  0  0  0  0  0
   10.4770   -0.4610   22.9550 C   0  0  0  0  0  0  0  0  0  0  0  0
    9.2140   -0.7620   22.3970 N   0  0  0  0  0  0  0  0  0  0  0  0
    8.5140    0.0500   21.5180 C   0  0  0  0  0  0  0  0  0  0  0  0
    9.0010    1.3550   21.2030 O   0  0  0  0  0  0  0  0  0  0  0  0
    7.3510   -0.5340   21.0380 N   0  0  0  0  0  0  0  0  0  0  0  0
    6.5060    0.1220   20.0410 C   0  0  0  0  0  0  0  0  0  0  0  0
    5.3340    0.8150   20.2880 C   0  0  0  0  0  0  0  0  0  0  0  0
    4.6310    1.4150   19.2490 C   0  0  0  0  0  0  0  0  0  0  0  0
    5.1420    1.2940   17.9710 C   0  0  0  0  0  0  0  0  0  0  0  0
    6.2700    0.6200   17.6930 N   0  0  0  0  0  0  0  0  0  0  0  0
    6.9140    0.0570   18.7270 C   0  0  0  0  0  0  0  0  0  0  0  0
  1  2  1  0
  2  3  1  0
  2  4  1  0
  4  5  1  1
  4  6  1  0
  4  7  1  0
  7  8  1  0
  8  9  1  0
  9 10  2  0
  9 11  1  0
 11 12  1  0
 12 13  2  0
 13 14  1  0
 14 15  2  0
 15 16  1  0
 12 17  1  0
 16 17  2  0
M  END
