pyridine_urea_12209
     RDKit          3D

 23 24  0  0  0  0  0  0  0  0999 V2000
    8.4010   -1.6000   28.5560 C   0  0  0  0  0  0  0  0  0  0  0  0
    7.6040   -2.5180   27.6330 C   0  0  0  0  0  0  0  0  0  0  0  0
    6.6470   -3.2510   28.3320 C   0  0  0  0  0  0  0  0  0  0  0  0
    6.9960   -1.6940   26.5910 N   0  0  0  0  0  0  0  0  0  0  0  0
    6.0350   -2.2780   25.8170 C   0  0  0  0  0  0  0  0  0  0  0  0
    7.6490   -0.5810   26.1620 C   0  0  0  0  0  0  0  0  0  0  0  0
    8.4500   -0.9450   25.0780 C   0  0  0  0  0  0  0  0  0  0  0  0
    9.7050   -1.0300   24.8180 C   0  0  0  0  0  0  0  0  0  0  0  0
   10.2700   -1.4710   23.4210 C   0  0  0  0  0  0  0  0  0  0  0  0
    9.7700   -1.8950   22.2440 C   0  0  0  0  0  0  0  0  0  0  0  0
    8.9920   -2.2540   21.3020 C   0  0  0  0  0  0  0  0  0  0  0  0
    8.6360   -1.1630   20.6400 N   0  0  0  0  0  0  0  0  0  0  0  0
    8.1910   -0.0080   21.1750 C   0  0  0  0  0  0  0  0  0  0  0  0
    8.8820    0.9480   21.4950 O   0  0  0  0  0  0  0  0  0  0  0  0
    6.8590   -0.0900   21.2420 N   0  0  0  0  0  0  0  0  0  0  0  0
    6.3110    0.3730   20.1210 C   0  0  0  0  0  0  0  0  0  0  0  0
    5.1430    1.1180   20.2130 C   0  0  0  0  0  0  0  0  0  0  0  0
    4.5520    1.6350   19.0740 C   0  0  0  0  0  0  0  0  0  0  0  0
    5.1570    1.3890   17.8540 C   0  0  0  0  0  0  0  0  0  0  0  0
    6.2810    0.6640   17.7240 N   0  0  0  0  0  0  0  0  0  0  0  0
    6.8330    0.1700   18.8510 C   0  0  0  0  0  0  0  0  0  0  0  0
    8.3880   -1.7940   22.6190 C   0  0  0  0  0  0  0  0  0  0  0  0
    7.9320   -1.3820   23.8140 C   0  0  0  0  0  0  0  0  0  0  0  0
  1  2  1  0
  2  3  1  0
  2  4  1  0
  4  5  1  0
  4  6  1  0
  6  7  1  0
  7  8  2  0
  8  9  1  0
  9 10  2  0
 10 11  1  0
 11 12  1  0
 12 13  1  0
 13 14  2  0
 13 15  1  0
 15 16  1  0
 16 17  2  0
 17 18  1  0
 18 19  2  0
 19 20  1  0
 16 21  1  0
 20 21  2  0
 10 22  1  0
  7 23  1  0
 22 23  2  0
M  END
