pyridine_urea_3496
     RDKit          3D

 18 19  0  0  0  0  0  0  0  0999 V2000
   13.6510   -2.6310   25.3420 C   0  0  0  0  0  0  0  0  0  0  0  0
   12.7400   -2.3300   24.1630 C   0  0  0  0  0  0  0  0  0  0  0  0
   11.3280   -2.2430   24.4100 N   0  0  0  0  0  0  0  0  0  0  0  0
   10.6880   -1.9820   23.2500 C   0  0  0  0  0  0  0  0  0  0  0  0
    9.1970   -1.8310   23.1770 C   0  0  2  0  0  0  0  0  0  0  0  0
    8.5830   -3.2070   23.4460 C   0  0  0  0  0  0  0  0  0  0  0  0
    8.8930   -1.5130   21.8090 N   0  0  0  0  0  0  0  0  0  0  0  0
    8.3100   -0.3290   21.4290 C   0  0  0  0  0  0  0  0  0  0  0  0
    8.8900    0.7480   21.4060 O   0  0  0  0  0  0  0  0  0  0  0  0
    6.9980   -0.5680   21.0830 N   0  0  0  0  0  0  0  0  0  0  0  0
    6.3200    0.1040   20.0600 C   0  0  0  0  0  0  0  0  0  0  0  0
    5.1320    0.8190   20.2270 C   0  0  0  0  0  0  0  0  0  0  0  0
    4.5640    1.4550   19.1260 C   0  0  0  0  0  0  0  0  0  0  0  0
    5.2040    1.3510   17.9130 C   0  0  0  0  0  0  0  0  0  0  0  0
    6.3430    0.6650   17.7270 N   0  0  0  0  0  0  0  0  0  0  0  0
    6.8730    0.0570   18.7980 C   0  0  0  0  0  0  0  0  0  0  0  0
   11.6010   -1.8540   22.0470 C   0  0  0  0  0  0  0  0  0  0  0  0
   13.2300   -2.0820   22.5370 S   0  0  0  0  0  0  0  0  0  0  0  0
  1  2  1  0
  2  3  2  0
  3  4  1  0
  4  5  1  0
  5  6  1  6
  5  7  1  0
  7  8  1  0
  8  9  2  0
  8 10  1  0
 10 11  1  0
 11 12  2  0
 12 13  1  0
 13 14  2  0
 14 15  1  0
 11 16  1  0
 15 16  2  0
  4 17  2  0
  2 18  1  0
 17 18  1  0
M  END
