pyridine_urea_4633
     RDKit          3D

 22 23  0  0  0  0  0  0  0  0999 V2000
    9.6070    1.6720   22.6010 C   0  0  0  0  0  0  0  0  0  0  0  0
    9.5500    0.1540   22.9270 C   0  0  0  0  0  0  0  0  0  0  0  0
    9.6730   -0.0590   24.4500 C   0  0  0  0  0  0  0  0  0  0  0  0
   10.6980   -0.4980   22.1920 C   0  0  0  0  0  0  0  0  0  0  0  0
   11.1920   -1.4920   22.9380 C   0  0  0  0  0  0  0  0  0  0  0  0
   11.6290   -0.9980   24.2060 N   0  0  0  0  0  0  0  0  0  0  0  0
   12.1270   -1.9460   24.9860 C   0  0  0  0  0  0  0  0  0  0  0  0
   12.6130   -2.8930   24.1790 C   0  0  0  0  0  0  0  0  0  0  0  0
   13.5190   -2.4120   23.2690 C   0  0  0  0  0  0  0  0  0  0  0  0
   13.0770   -1.5190   22.2910 C   0  0  0  0  0  0  0  0  0  0  0  0
   13.1320   -0.1830   22.7270 C   0  0  0  0  0  0  0  0  0  0  0  0
   12.5290   -0.0270   23.9670 C   0  0  0  0  0  0  0  0  0  0  0  0
    8.5000   -0.5110   22.4690 N   0  0  0  0  0  0  0  0  0  0  0  0
    7.9030   -0.0240   21.3240 C   0  0  0  0  0  0  0  0  0  0  0  0
    8.2760    1.0120   20.8030 O   0  0  0  0  0  0  0  0  0  0  0  0
    6.8960   -0.7730   20.8900 N   0  0  0  0  0  0  0  0  0  0  0  0
    6.2260   -0.0580   19.9780 C   0  0  0  0  0  0  0  0  0  0  0  0
    4.9890    0.6150   20.2300 C   0  0  0  0  0  0  0  0  0  0  0  0
    4.4580    1.3220   19.1770 C   0  0  0  0  0  0  0  0  0  0  0  0
    5.1860    1.3470   17.8630 C   0  0  0  0  0  0  0  0  0  0  0  0
    6.3370    0.6940   17.6810 N   0  0  0  0  0  0  0  0  0  0  0  0
    6.8140    0.0200   18.7310 C   0  0  0  0  0  0  0  0  0  0  0  0
  1  2  1  0
  2  3  1  0
  2  4  1  0
  4  5  1  0
  5  6  1  0
  6  7  1  0
  7  8  1  0
  8  9  1  0
  9 10  1  0
 10 11  1  0
  6 12  1  0
 11 12  1  0
  2 13  1  0
 13 14  1  0
 14 15  2  0
 14 16  1  0
 16 17  1  0
 17 18  2  0
 18 19  1  0
 19 20  2  0
 20 21  1  0
 17 22  1  0
 21 22  2  0
M  END
