pyridine_urea_12355
     RDKit          3D

 22 23  0  0  0  0  0  0  0  0999 V2000
    7.8100   -2.3470   24.3520 C   0  0  0  0  0  0  0  0  0  0  0  0
    8.8600   -1.5640   24.8980 O   0  0  0  0  0  0  0  0  0  0  0  0
    9.9320   -1.4700   23.9690 C   0  0  0  0  0  0  0  0  0  0  0  0
   11.4240   -1.6300   24.3990 C   0  0  0  0  0  0  0  0  0  0  0  0
   12.5140   -1.5280   23.4990 C   0  0  0  0  0  0  0  0  0  0  0  0
   13.7460   -1.6640   23.9530 O   0  0  0  0  0  0  0  0  0  0  0  0
   13.3860   -2.1510   25.1860 C   0  0  0  0  0  0  0  0  0  0  0  0
   14.3500   -2.5880   26.0290 C   0  0  0  0  0  0  0  0  0  0  0  0
   12.4330   -3.0470   24.7680 C   0  0  0  0  0  0  0  0  0  0  0  0
   12.2580   -1.2940   22.1940 C   0  0  0  0  0  0  0  0  0  0  0  0
   10.8320   -1.1340   21.7070 C   0  0  0  0  0  0  0  0  0  0  0  0
    9.7060   -1.2290   22.6610 C   0  0  0  0  0  0  0  0  0  0  0  0
    8.4100   -1.0330   22.0690 N   0  0  0  0  0  0  0  0  0  0  0  0
    8.2340    0.1790   21.4380 C   0  0  0  0  0  0  0  0  0  0  0  0
    9.4060    0.5830   21.9960 O   0  0  0  0  0  0  0  0  0  0  0  0
    7.0970   -0.5220   21.0240 N   0  0  0  0  0  0  0  0  0  0  0  0
    6.3440    0.0760   20.0530 C   0  0  0  0  0  0  0  0  0  0  0  0
    5.1230    0.7150   20.2530 C   0  0  0  0  0  0  0  0  0  0  0  0
    4.5000    1.3010   19.1540 C   0  0  0  0  0  0  0  0  0  0  0  0
    5.1190    1.2250   17.9150 C   0  0  0  0  0  0  0  0  0  0  0  0
    6.2850    0.6050   17.7110 N   0  0  0  0  0  0  0  0  0  0  0  0
    6.8620    0.0500   18.7760 C   0  0  0  0  0  0  0  0  0  0  0  0
  1  2  1  0
  2  3  1  0
  3  4  2  0
  4  5  1  0
  5  6  1  0
  6  7  1  0
  7  8  1  0
  7  9  1  0
  5 10  2  0
 10 11  1  0
  3 12  1  0
 11 12  2  0
 12 13  1  0
 13 14  1  0
 14 15  2  0
 14 16  1  0
 16 17  1  0
 17 18  2  0
 18 19  1  0
 19 20  2  0
 20 21  1  0
 17 22  1  0
 21 22  2  0
M  END
