pyridine_urea_11253
     RDKit          3D

 16 17  0  0  0  0  0  0  0  0999 V2000
    8.9990    1.0560   21.2610 O   0  0  0  0  0  0  0  0  0  0  0  0
    8.3600    0.0660   21.6490 C   0  0  0  0  0  0  0  0  0  0  0  0
    8.6280   -0.6140   22.8160 N   0  0  0  0  0  0  0  0  0  0  0  0
    9.9440   -1.1220   23.1020 C   0  0  0  0  0  0  0  0  0  0  0  0
   10.9870   -0.0280   23.1600 C   0  0  0  0  0  0  0  0  0  0  0  0
   12.3390    0.6340   23.0670 C   0  0  0  0  0  0  0  0  0  0  0  0
   13.5210    0.0920   22.7370 N   0  0  0  0  0  0  0  0  0  0  0  0
   13.3490   -1.1940   22.4830 N   0  0  0  0  0  0  0  0  0  0  0  0
   11.7500   -1.5360   22.6930 S   0  0  0  0  0  0  0  0  0  0  0  0
    7.2840   -0.5250   21.0390 N   0  0  0  0  0  0  0  0  0  0  0  0
    6.5820    0.0850   20.0150 C   0  0  0  0  0  0  0  0  0  0  0  0
    5.3110    0.8940   20.3210 C   0  0  0  0  0  0  0  0  0  0  0  0
    4.6460    1.5280   19.1670 C   0  0  0  0  0  0  0  0  0  0  0  0
    5.1410    1.3900   17.9330 C   0  0  0  0  0  0  0  0  0  0  0  0
    6.2770    0.6530   17.6530 N   0  0  0  0  0  0  0  0  0  0  0  0
    6.9500    0.0310   18.7030 C   0  0  0  0  0  0  0  0  0  0  0  0
  1  2  2  0
  2  3  1  0
  3  4  1  0
  4  5  1  0
  5  6  2  0
  6  7  1  0
  7  8  2  0
  5  9  1  0
  8  9  1  0
  2 10  1  0
 10 11  1  0
 11 12  2  0
 12 13  1  0
 13 14  2  0
 14 15  1  0
 11 16  1  0
 15 16  2  0
M  END
