pyridine_urea_9786
     RDKit          3D

 26 28  0  0  0  0  0  0  0  0999 V2000
    8.8500    3.3430   22.2180 C   0  0  0  0  0  0  0  0  0  0  0  0
    9.1110    2.4640   23.3010 O   0  0  0  0  0  0  0  0  0  0  0  0
   10.2290    1.6250   23.0240 C   0  0  0  0  0  0  0  0  0  0  0  0
   11.5960    2.2500   23.1510 C   0  0  0  0  0  0  0  0  0  0  0  0
   12.7280    1.3510   22.8610 C   0  0  0  0  0  0  0  0  0  0  0  0
   12.3760   -0.0470   22.4680 C   0  0  0  0  0  0  0  0  0  0  0  0
   13.3980   -1.0380   22.1440 C   0  0  0  0  0  0  0  0  0  0  0  0
   13.8010   -1.0740   20.9940 O   0  0  0  0  0  0  0  0  0  0  0  0
   13.6570   -1.8370   23.2860 N   0  0  0  0  0  0  0  0  0  0  0  0
   13.1490   -2.9990   23.0770 C   0  0  0  0  0  0  0  0  0  0  0  0
   11.9090   -2.6170   22.6430 C   0  0  0  0  0  0  0  0  0  0  0  0
   11.2430   -2.4780   23.6240 O   0  0  0  0  0  0  0  0  0  0  0  0
   11.7550   -1.5460   24.5570 C   0  0  0  0  0  0  0  0  0  0  0  0
   13.1390   -1.3680   24.4750 C   0  0  0  0  0  0  0  0  0  0  0  0
   11.0800   -0.5400   22.3690 C   0  0  0  0  0  0  0  0  0  0  0  0
    9.9460    0.1910   22.6230 C   0  0  0  0  0  0  0  0  0  0  0  0
    8.7010   -0.3170   22.5010 N   0  0  0  0  0  0  0  0  0  0  0  0
    7.9900    0.1090   21.4010 C   0  0  0  0  0  0  0  0  0  0  0  0
    8.3340    1.3480   20.7820 O   0  0  0  0  0  0  0  0  0  0  0  0
    6.9890   -0.6670   20.9680 N   0  0  0  0  0  0  0  0  0  0  0  0
    6.3210    0.0000   20.0230 C   0  0  0  0  0  0  0  0  0  0  0  0
    5.0390    0.7400   20.1960 C   0  0  0  0  0  0  0  0  0  0  0  0
    4.5120    1.3920   19.0860 C   0  0  0  0  0  0  0  0  0  0  0  0
    5.1960    1.3230   17.8890 C   0  0  0  0  0  0  0  0  0  0  0  0
    6.3490    0.6610   17.6880 N   0  0  0  0  0  0  0  0  0  0  0  0
    6.8540    0.0330   18.7580 C   0  0  0  0  0  0  0  0  0  0  0  0
  1  2  1  0
  2  3  1  0
  3  4  2  0
  4  5  1  0
  5  6  2  0
  6  7  1  0
  7  8  2  0
  7  9  1  0
  9 10  1  0
 10 11  1  0
 11 12  1  0
 12 13  1  0
  9 14  1  0
 13 14  1  0
  6 15  1  0
  3 16  1  0
 15 16  2  0
 16 17  1  0
 17 18  1  0
 18 19  2  0
 18 20  1  0
 20 21  1  0
 21 22  2  0
 22 23  1  0
 23 24  2  0
 24 25  1  0
 21 26  1  0
 25 26  2  0
M  END
