pyridine_urea_168
     RDKit          3D

 19 20  0  0  0  0  0  0  0  0999 V2000
    8.7220    1.2600   21.0900 O   0  0  0  0  0  0  0  0  0  0  0  0
    8.3160    0.1720   21.5300 C   0  0  0  0  0  0  0  0  0  0  0  0
    8.9310   -0.4360   22.5750 N   0  0  0  0  0  0  0  0  0  0  0  0
   10.1760    0.2010   22.8920 C   0  0  0  0  0  0  0  0  0  0  0  0
   10.5670    0.1400   24.3480 C   0  0  0  0  0  0  0  0  0  0  0  0
   11.7490   -0.7200   24.3650 C   0  0  0  0  0  0  0  0  0  0  0  0
   11.7060   -1.6880   25.3900 O   0  0  0  0  0  0  0  0  0  0  0  0
   12.8960   -2.2420   25.0410 C   0  0  0  0  0  0  0  0  0  0  0  0
   13.6120   -1.7950   24.0320 N   0  0  0  0  0  0  0  0  0  0  0  0
   12.8800   -0.7780   23.5600 C   0  0  0  0  0  0  0  0  0  0  0  0
   13.2580    0.0180   22.4290 C   0  0  0  0  0  0  0  0  0  0  0  0
   13.5830   -0.8880   21.3710 O   0  0  0  0  0  0  0  0  0  0  0  0
    7.2300   -0.4920   21.0340 N   0  0  0  0  0  0  0  0  0  0  0  0
    6.5410    0.1080   20.0020 C   0  0  0  0  0  0  0  0  0  0  0  0
    5.3120    0.9060   20.2530 C   0  0  0  0  0  0  0  0  0  0  0  0
    4.6470    1.5310   19.2240 C   0  0  0  0  0  0  0  0  0  0  0  0
    5.0760    1.4580   17.9060 C   0  0  0  0  0  0  0  0  0  0  0  0
    6.2830    0.6620   17.6150 N   0  0  0  0  0  0  0  0  0  0  0  0
    6.9080    0.0570   18.6850 C   0  0  0  0  0  0  0  0  0  0  0  0
  1  2  2  0
  2  3  1  0
  3  4  1  0
  4  5  1  0
  5  6  1  0
  6  7  1  0
  7  8  1  0
  8  9  2  0
  6 10  2  0
  9 10  1  0
 10 11  1  0
 11 12  1  0
  2 13  1  0
 13 14  1  0
 14 15  2  0
 15 16  1  0
 16 17  2  0
 17 18  1  0
 14 19  1  0
 18 19  2  0
M  END
