pyridine_urea_12419
     RDKit          3D

 21 22  0  0  0  0  0  0  0  0999 V2000
   12.7530   -0.1430   22.8410 C   0  0  0  0  0  0  0  0  0  0  0  0
   12.3460    0.1490   24.2790 C   0  0  0  0  0  0  0  0  0  0  0  0
   10.8420   -0.2660   24.5160 C   0  0  0  0  0  0  0  0  0  0  0  0
   10.1440   -0.0130   25.7920 N   0  0  0  0  0  0  0  0  0  0  0  0
    8.8710   -0.5150   25.6070 N   0  0  0  0  0  0  0  0  0  0  0  0
    7.9000   -0.4060   26.7120 C   0  0  0  0  0  0  0  0  0  0  0  0
    8.8040   -1.0320   24.3600 C   0  0  0  0  0  0  0  0  0  0  0  0
    7.8470   -1.5790   23.8380 O   0  0  0  0  0  0  0  0  0  0  0  0
    8.2290   -2.8620   23.5220 C   0  0  0  0  0  0  0  0  0  0  0  0
    9.9780   -0.8950   23.6530 C   0  0  0  0  0  0  0  0  0  0  0  0
   10.2970   -1.3240   22.2600 C   0  0  0  0  0  0  0  0  0  0  0  0
    9.2920   -1.3570   21.3860 N   0  0  0  0  0  0  0  0  0  0  0  0
    8.4990   -0.2700   21.3420 C   0  0  0  0  0  0  0  0  0  0  0  0
    8.8850    0.8870   21.4460 O   0  0  0  0  0  0  0  0  0  0  0  0
    7.1040   -0.6730   21.1150 N   0  0  0  0  0  0  0  0  0  0  0  0
    6.4550   -0.0110   20.0770 C   0  0  0  0  0  0  0  0  0  0  0  0
    5.1730    0.7580   20.3340 C   0  0  0  0  0  0  0  0  0  0  0  0
    4.5600    1.4510   19.1440 C   0  0  0  0  0  0  0  0  0  0  0  0
    5.1790    1.3550   17.9130 C   0  0  0  0  0  0  0  0  0  0  0  0
    6.3190    0.6540   17.7290 N   0  0  0  0  0  0  0  0  0  0  0  0
    6.9130    0.0080   18.7680 C   0  0  0  0  0  0  0  0  0  0  0  0
  1  2  1  0
  2  3  1  0
  3  4  2  0
  4  5  1  0
  5  6  1  0
  5  7  1  0
  7  8  1  0
  8  9  1  0
  3 10  1  0
  7 10  2  0
 10 11  1  0
 11 12  1  0
 12 13  1  0
 13 14  2  0
 13 15  1  0
 15 16  1  0
 16 17  2  0
 17 18  1  0
 18 19  2  0
 19 20  1  0
 16 21  1  0
 20 21  2  0
M  END
