pyridine_urea_6121
     RDKit          3D

 25 27  0  0  0  0  0  0  0  0999 V2000
    8.5550    0.7710   21.2670 O   0  0  0  0  0  0  0  0  0  0  0  0
    8.1660   -0.3470   21.5840 C   0  0  0  0  0  0  0  0  0  0  0  0
    6.9910   -0.8700   21.1160 N   0  0  0  0  0  0  0  0  0  0  0  0
    6.4060   -0.1430   20.0140 C   0  0  0  0  0  0  0  0  0  0  0  0
    5.1140    0.6080   20.3200 C   0  0  0  0  0  0  0  0  0  0  0  0
    4.5460    1.3600   19.1650 C   0  0  0  0  0  0  0  0  0  0  0  0
    5.2150    1.3150   17.9560 C   0  0  0  0  0  0  0  0  0  0  0  0
    6.3540    0.6290   17.7420 N   0  0  0  0  0  0  0  0  0  0  0  0
    6.9160   -0.0720   18.7450 C   0  0  0  0  0  0  0  0  0  0  0  0
    8.8790   -1.1680   22.4290 N   0  0  0  0  0  0  0  0  0  0  0  0
   10.2760   -0.7420   22.5510 C   0  0  0  0  0  0  0  0  0  0  0  0
   11.3070   -1.6250   22.4100 C   0  0  0  0  0  0  0  0  0  0  0  0
   12.6030   -0.8710   22.5520 C   0  0  0  0  0  0  0  0  0  0  0  0
   12.7270    0.4690   22.7780 C   0  0  0  0  0  0  0  0  0  0  0  0
   13.9700    0.8730   22.8310 F   0  0  0  0  0  0  0  0  0  0  0  0
   11.6940    1.3130   22.9190 C   0  0  0  0  0  0  0  0  0  0  0  0
   12.0930    2.7160   23.1400 N   0  0  0  0  0  0  0  0  0  0  0  0
   11.1200    3.6510   23.4750 C   0  0  0  0  0  0  0  0  0  0  0  0
    9.7270    3.2870   23.6160 O   0  0  0  0  0  0  0  0  0  0  0  0
   11.4890    5.0890   23.7360 C   0  0  0  0  0  0  0  0  0  0  0  0
   10.8950    5.0840   25.0580 C   0  0  0  0  0  0  0  0  0  0  0  0
   11.1060    6.4450   25.6340 C   0  0  0  0  0  0  0  0  0  0  0  0
   11.9560    7.4800   24.5170 S   0  0  0  0  0  0  0  0  0  0  0  0
   12.1160    6.2960   23.2540 C   0  0  0  0  0  0  0  0  0  0  0  0
   10.4570    0.7580   22.8210 C   0  0  0  0  0  0  0  0  0  0  0  0
  1  2  2  0
  2  3  1  0
  3  4  1  0
  4  5  2  0
  5  6  1  0
  6  7  2  0
  7  8  1  0
  4  9  1  0
  8  9  2  0
  2 10  1  0
 10 11  1  0
 11 12  2  0
 12 13  1  0
 13 14  2  0
 14 15  1  0
 14 16  1  0
 16 17  1  0
 17 18  1  0
 18 19  2  0
 18 20  1  0
 20 21  1  0
 21 22  2  0
 22 23  1  0
 20 24  2  0
 23 24  1  0
 11 25  1  0
 16 25  2  0
M  END
