pyridine_urea_11814
     RDKit          3D

 25 27  0  0  0  0  0  0  0  0999 V2000
    8.8810    1.2650   21.1910 O   0  0  0  0  0  0  0  0  0  0  0  0
    8.5410    0.1330   21.5650 C   0  0  0  0  0  0  0  0  0  0  0  0
    9.2150   -0.6620   22.4430 N   0  0  0  0  0  0  0  0  0  0  0  0
   10.5890   -0.5690   22.5760 C   0  0  0  0  0  0  0  0  0  0  0  0
   10.9470    0.7320   22.9110 C   0  0  0  0  0  0  0  0  0  0  0  0
   12.2380    1.0720   23.0780 C   0  0  0  0  0  0  0  0  0  0  0  0
   13.0710    0.0620   22.8970 C   0  0  0  0  0  0  0  0  0  0  0  0
   12.6850   -1.1820   22.5780 N   0  0  0  0  0  0  0  0  0  0  0  0
   11.4220   -1.7080   22.3650 C   0  0  0  0  0  0  0  0  0  0  0  0
    7.4080   -0.4790   21.1380 N   0  0  0  0  0  0  0  0  0  0  0  0
    6.6050    0.1630   20.1250 C   0  0  0  0  0  0  0  0  0  0  0  0
    5.1670    0.6360   20.3340 C   0  0  0  0  0  0  0  0  0  0  0  0
    4.5570    1.2470   19.1670 C   0  0  0  0  0  0  0  0  0  0  0  0
    5.2560    1.3970   17.9140 C   0  0  0  0  0  0  0  0  0  0  0  0
    6.5280    0.9800   17.7220 N   0  0  0  0  0  0  0  0  0  0  0  0
    6.8980    0.4660   18.8730 C   0  0  0  0  0  0  0  0  0  0  0  0
    5.6340    0.8150   19.2680 O   0  0  0  0  0  0  0  0  0  0  0  0
    5.5290    2.1310   19.7340 C   0  0  0  0  0  0  0  0  0  0  0  0
    4.9860    3.3530   20.3150 C   0  0  0  0  0  0  0  0  0  0  0  0
    3.6120    3.6130   20.8600 C   0  0  0  0  0  0  0  0  0  0  0  0
    2.5840    2.5700   20.8770 C   0  0  0  0  0  0  0  0  0  0  0  0
    0.9620    2.7050   21.4590 Cl  0  0  0  0  0  0  0  0  0  0  0  0
    3.0480    1.4250   20.3680 C   0  0  0  0  0  0  0  0  0  0  0  0
    4.3630    1.2720   19.8730 C   0  0  0  0  0  0  0  0  0  0  0  0
    4.6110   -0.3590   19.3110 Cl  0  0  0  0  0  0  0  0  0  0  0  0
  1  2  2  0
  2  3  1  0
  3  4  1  0
  4  5  2  0
  5  6  1  0
  6  7  2  0
  7  8  1  0
  4  9  1  0
  8  9  2  0
  2 10  1  0
 10 11  1  0
 11 12  2  0
 12 13  1  0
 13 14  2  0
 14 15  1  0
 11 16  1  0
 15 16  2  0
 16 17  1  0
 17 18  1  0
 18 19  2  0
 19 20  1  0
 20 21  2  0
 21 22  1  0
 21 23  1  0
 18 24  1  0
 23 24  2  0
 24 25  1  0
M  END
