pyridine_urea_5491
     RDKit          3D

 18 18  0  0  0  0  0  0  0  0999 V2000
    4.5600    0.1540   24.7030 C   0  0  0  0  0  0  0  0  0  0  0  0
    4.7410    0.2330   26.2200 C   0  0  0  0  0  0  0  0  0  0  0  0
    6.0810   -0.1140   26.6080 O   0  0  0  0  0  0  0  0  0  0  0  0
    6.4250   -1.4260   26.4700 C   0  0  0  0  0  0  0  0  0  0  0  0
    6.2870   -2.4210   27.4910 O   0  0  0  0  0  0  0  0  0  0  0  0
    6.9440   -1.6560   25.1260 N   0  0  0  0  0  0  0  0  0  0  0  0
    8.0560   -1.0230   24.6050 C   0  0  0  0  0  0  0  0  0  0  0  0
    8.3500   -1.8930   23.3660 C   0  0  0  0  0  0  0  0  0  0  0  0
    9.0770   -1.3720   22.3460 N   0  0  0  0  0  0  0  0  0  0  0  0
    8.5150   -0.3720   21.6220 C   0  0  0  0  0  0  0  0  0  0  0  0
    9.0580    0.7150   21.4840 O   0  0  0  0  0  0  0  0  0  0  0  0
    7.2960   -0.7450   21.1000 N   0  0  0  0  0  0  0  0  0  0  0  0
    6.5700   -0.0410   20.0520 C   0  0  0  0  0  0  0  0  0  0  0  0
    5.2970    0.7250   20.4670 C   0  0  0  0  0  0  0  0  0  0  0  0
    4.5940    1.4600   19.3170 C   0  0  0  0  0  0  0  0  0  0  0  0
    5.2070    1.3580   17.9360 C   0  0  0  0  0  0  0  0  0  0  0  0
    6.3430    0.6260   17.7360 N   0  0  0  0  0  0  0  0  0  0  0  0
    7.0110   -0.0570   18.7420 C   0  0  0  0  0  0  0  0  0  0  0  0
  1  2  1  0
  2  3  1  0
  3  4  1  0
  4  5  2  0
  4  6  1  0
  6  7  1  0
  7  8  1  0
  8  9  1  0
  9 10  1  0
 10 11  2  0
 10 12  1  0
 12 13  1  0
 13 14  2  0
 14 15  1  0
 15 16  2  0
 16 17  1  0
 13 18  1  0
 17 18  2  0
M  END
