pyridine_urea_2689
     RDKit          3D

 23 24  0  0  0  0  0  0  0  0999 V2000
   13.1110   -2.6610   23.5660 C   0  0  0  0  0  0  0  0  0  0  0  0
   12.5960   -2.0420   22.4400 N   0  0  0  0  0  0  0  0  0  0  0  0
   13.0290   -2.3850   21.1120 C   0  0  0  0  0  0  0  0  0  0  0  0
   12.8090   -0.6040   22.4940 C   0  0  0  0  0  0  0  0  0  0  0  0
   13.4360   -0.1430   23.6080 C   0  0  0  0  0  0  0  0  0  0  0  0
   12.8890    0.2340   24.6060 O   0  0  0  0  0  0  0  0  0  0  0  0
   11.6850   -0.1090   24.2130 C   0  0  0  0  0  0  0  0  0  0  0  0
   10.6420   -0.2800   25.0600 C   0  0  0  0  0  0  0  0  0  0  0  0
    9.3450   -0.6790   24.4870 C   0  0  0  0  0  0  0  0  0  0  0  0
    9.3700   -0.8550   22.9970 C   0  0  0  0  0  0  0  0  0  0  0  0
    8.1450   -1.2240   22.4560 N   0  0  0  0  0  0  0  0  0  0  0  0
    7.8210   -0.4120   21.4300 C   0  0  0  0  0  0  0  0  0  0  0  0
    8.4280    0.6120   21.1290 O   0  0  0  0  0  0  0  0  0  0  0  0
    6.7300   -0.8630   20.7900 N   0  0  0  0  0  0  0  0  0  0  0  0
    6.1090   -0.0560   19.8700 C   0  0  0  0  0  0  0  0  0  0  0  0
    4.8200    0.7080   20.1100 C   0  0  0  0  0  0  0  0  0  0  0  0
    4.3840    1.5270   18.9140 C   0  0  0  0  0  0  0  0  0  0  0  0
    5.1580    1.5080   17.7680 C   0  0  0  0  0  0  0  0  0  0  0  0
    6.2920    0.7980   17.6250 N   0  0  0  0  0  0  0  0  0  0  0  0
    6.7290    0.0550   18.6500 C   0  0  0  0  0  0  0  0  0  0  0  0
   10.4950   -0.6580   22.2380 C   0  0  0  0  0  0  0  0  0  0  0  0
   11.6380   -0.2800   22.8640 C   0  0  0  0  0  0  0  0  0  0  0  0
   12.7590   -0.0670   22.1710 F   0  0  0  0  0  0  0  0  0  0  0  0
  1  2  1  0
  2  3  1  0
  2  4  1  0
  4  5  1  0
  5  6  1  0
  6  7  1  0
  7  8  2  0
  8  9  1  0
  9 10  2  0
 10 11  1  0
 11 12  1  0
 12 13  2  0
 12 14  1  0
 14 15  1  0
 15 16  2  0
 16 17  1  0
 17 18  2  0
 18 19  1  0
 15 20  1  0
 19 20  2  0
 10 21  1  0
  7 22  1  0
 21 22  2  0
 22 23  1  0
M  END
