pyridine_urea_8152
     RDKit          3D

 23 25  0  0  0  0  0  0  0  0999 V2000
    8.7010    1.4000   21.1250 O   0  0  0  0  0  0  0  0  0  0  0  0
    8.3610    0.2260   21.2970 C   0  0  0  0  0  0  0  0  0  0  0  0
    7.0740   -0.2260   21.1760 N   0  0  0  0  0  0  0  0  0  0  0  0
    6.3800    0.3050   20.0510 C   0  0  0  0  0  0  0  0  0  0  0  0
    5.0550    1.0830   20.2900 C   0  0  0  0  0  0  0  0  0  0  0  0
    4.4380    1.6050   19.1720 C   0  0  0  0  0  0  0  0  0  0  0  0
    5.1290    1.3570   17.8290 C   0  0  0  0  0  0  0  0  0  0  0  0
    6.2730    0.6630   17.6760 N   0  0  0  0  0  0  0  0  0  0  0  0
    6.8630    0.1580   18.7690 C   0  0  0  0  0  0  0  0  0  0  0  0
    9.1720   -0.8010   21.5980 N   0  0  0  0  0  0  0  0  0  0  0  0
    9.9140   -0.7510   22.8130 C   0  0  0  0  0  0  0  0  0  0  0  0
    9.2030   -1.6080   23.8620 C   0  0  0  0  0  0  0  0  0  0  0  0
    9.4190   -3.0900   23.5960 C   0  0  0  0  0  0  0  0  0  0  0  0
    8.7480   -4.0590   24.5790 C   0  0  0  0  0  0  0  0  0  0  0  0
    7.9690   -3.3700   25.6700 C   0  0  0  0  0  0  0  0  0  0  0  0
    7.2700   -4.2650   26.6920 C   0  0  0  0  0  0  0  0  0  0  0  0
    6.4460   -5.1320   26.0510 F   0  0  0  0  0  0  0  0  0  0  0  0
    6.5140   -3.5590   27.5540 F   0  0  0  0  0  0  0  0  0  0  0  0
    8.1490   -5.0070   27.4020 F   0  0  0  0  0  0  0  0  0  0  0  0
    7.7840   -1.8660   25.8840 C   0  0  0  0  0  0  0  0  0  0  0  0
    8.4350   -1.0890   24.9280 C   0  0  0  0  0  0  0  0  0  0  0  0
   11.2840   -0.2560   23.0200 C   0  0  0  0  0  0  0  0  0  0  0  0
   11.3210   -1.3620   22.4400 C   0  0  0  0  0  0  0  0  0  0  0  0
  1  2  2  0
  2  3  1  0
  3  4  1  0
  4  5  2  0
  5  6  1  0
  6  7  2  0
  7  8  1  0
  4  9  1  0
  8  9  2  0
  2 10  1  0
 11 10  1  0
 11 12  1  0
 12 13  2  0
 13 14  1  0
 14 15  2  0
 15 16  1  0
 16 17  1  0
 16 18  1  0
 16 19  1  0
 15 20  1  0
 12 21  1  0
 20 21  2  0
 11 22  1  0
 11 23  1  0
 22 23  1  0
M  END
