pyridine_urea_6930
     RDKit          3D

 20 21  0  0  0  0  0  0  0  0999 V2000
    8.7430    1.1590   21.0970 O   0  0  0  0  0  0  0  0  0  0  0  0
    8.3360    0.0370   21.4330 C   0  0  0  0  0  0  0  0  0  0  0  0
    7.1920   -0.5540   20.9490 N   0  0  0  0  0  0  0  0  0  0  0  0
    6.4100    0.0990   19.9990 C   0  0  0  0  0  0  0  0  0  0  0  0
    5.2140    0.7720   20.2290 C   0  0  0  0  0  0  0  0  0  0  0  0
    4.5680    1.3970   19.1660 C   0  0  0  0  0  0  0  0  0  0  0  0
    5.1440    1.3220   17.9140 C   0  0  0  0  0  0  0  0  0  0  0  0
    6.2880    0.6680   17.6710 N   0  0  0  0  0  0  0  0  0  0  0  0
    6.8840    0.0800   18.7090 C   0  0  0  0  0  0  0  0  0  0  0  0
    8.9810   -0.7720   22.3420 N   0  0  0  0  0  0  0  0  0  0  0  0
    9.8740   -0.2660   23.2830 C   0  0  1  0  0  0  0  0  0  0  0  0
   10.9530   -0.9470   23.5660 C   0  0  0  0  0  0  0  0  0  0  0  0
   11.8680    0.0480   23.2680 C   0  0  1  0  0  0  0  0  0  0  0  0
   12.6750   -0.6410   22.3120 N   0  0  0  0  0  0  0  0  0  0  0  0
   12.8050   -2.0420   22.4390 C   0  0  0  0  0  0  0  0  0  0  0  0
   12.8730   -2.4080   23.7930 C   0  0  0  0  0  0  0  0  0  0  0  0
   11.8500   -3.1050   24.3100 F   0  0  0  0  0  0  0  0  0  0  0  0
   13.0460   -1.3910   24.6420 F   0  0  0  0  0  0  0  0  0  0  0  0
   13.9470   -3.1450   24.0010 F   0  0  0  0  0  0  0  0  0  0  0  0
   10.5520    0.8980   22.8950 C   0  0  0  0  0  0  0  0  0  0  0  0
  1  2  2  0
  2  3  1  0
  3  4  1  0
  4  5  2  0
  5  6  1  0
  6  7  2  0
  7  8  1  0
  4  9  1  0
  8  9  2  0
  2 10  1  0
 11 10  1  6
 11 12  1  0
 12 13  1  0
 13 14  1  6
 14 15  1  0
 15 16  1  0
 16 17  1  0
 16 18  1  0
 16 19  1  0
 11 20  1  0
 13 20  1  0
M  END
