pyridine_urea_10615
     RDKit          3D

 21 23  0  0  0  0  0  0  0  0999 V2000
    8.1780    1.0750   20.6580 O   0  0  0  0  0  0  0  0  0  0  0  0
    7.8250    0.0490   21.2220 C   0  0  0  0  0  0  0  0  0  0  0  0
    8.4290   -0.3920   22.2960 N   0  0  0  0  0  0  0  0  0  0  0  0
    9.5050    0.3780   22.6200 C   0  0  0  0  0  0  0  0  0  0  0  0
   10.8370   -0.1520   22.2720 C   0  0  0  0  0  0  0  0  0  0  0  0
   10.3170    0.1040   23.6960 C   0  0  0  0  0  0  0  0  0  0  0  0
   10.9170   -0.0760   24.9880 C   0  0  0  0  0  0  0  0  0  0  0  0
   12.1380   -0.5420   25.0710 C   0  0  0  0  0  0  0  0  0  0  0  0
   12.7460   -0.8430   23.9560 C   0  0  0  0  0  0  0  0  0  0  0  0
   12.2060   -0.6730   22.7380 C   0  0  0  0  0  0  0  0  0  0  0  0
   12.9500   -1.0160   21.8570 O   0  0  0  0  0  0  0  0  0  0  0  0
   12.9940   -2.4190   22.0430 C   0  0  0  0  0  0  0  0  0  0  0  0
   13.5910   -2.6200   23.2930 C   0  0  0  0  0  0  0  0  0  0  0  0
   13.9210   -1.3720   23.9190 O   0  0  0  0  0  0  0  0  0  0  0  0
    6.7830   -0.6880   20.8150 N   0  0  0  0  0  0  0  0  0  0  0  0
    6.0710    0.0230   19.8900 C   0  0  0  0  0  0  0  0  0  0  0  0
    4.8120    0.6260   20.1400 C   0  0  0  0  0  0  0  0  0  0  0  0
    4.3340    1.3810   18.9030 C   0  0  0  0  0  0  0  0  0  0  0  0
    5.0940    1.4040   17.7570 C   0  0  0  0  0  0  0  0  0  0  0  0
    6.2620    0.7890   17.6220 N   0  0  0  0  0  0  0  0  0  0  0  0
    6.7080    0.1290   18.6770 C   0  0  0  0  0  0  0  0  0  0  0  0
  1  2  2  0
  2  3  1  0
  3  4  1  0
  4  5  1  0
  5  6  2  0
  6  7  1  0
  7  8  2  0
  8  9  1  0
  5 10  1  0
  9 10  2  0
 10 11  1  0
 11 12  1  0
 12 13  1  0
  9 14  1  0
 13 14  1  0
  2 15  1  0
 15 16  1  0
 16 17  2  0
 17 18  1  0
 18 19  2  0
 19 20  1  0
 16 21  1  0
 20 21  2  0
M  END
