pyridine_urea_11889
     RDKit          3D

 24 27  0  0  0  0  0  0  0  0999 V2000
    8.8060    1.1660   21.5470 O   0  0  0  0  0  0  0  0  0  0  0  0
    8.2100    0.1450   21.2680 C   0  0  0  0  0  0  0  0  0  0  0  0
    6.8800   -0.0480   21.1530 N   0  0  0  0  0  0  0  0  0  0  0  0
    6.2800    0.4320   20.0190 C   0  0  0  0  0  0  0  0  0  0  0  0
    5.1060    1.1540   20.1410 C   0  0  0  0  0  0  0  0  0  0  0  0
    4.5130    1.6670   19.0000 C   0  0  0  0  0  0  0  0  0  0  0  0
    5.1290    1.4300   17.7920 C   0  0  0  0  0  0  0  0  0  0  0  0
    6.2550    0.7230   17.6520 N   0  0  0  0  0  0  0  0  0  0  0  0
    6.8090    0.2350   18.7640 C   0  0  0  0  0  0  0  0  0  0  0  0
    8.8100   -1.0100   20.9660 N   0  0  0  0  0  0  0  0  0  0  0  0
    9.5900   -1.6780   21.9240 C   0  0  2  0  0  0  0  0  0  0  0  0
    9.9300   -0.8270   23.0980 C   0  0  0  0  0  0  0  0  0  0  0  0
   11.3140   -0.5580   23.0980 C   0  0  0  0  0  0  0  0  0  0  0  0
   12.1650   -1.3120   23.9480 C   0  0  0  0  0  0  0  0  0  0  0  0
   12.3660   -0.3020   24.8150 C   0  0  0  0  0  0  0  0  0  0  0  0
   13.1790   -0.9960   25.5660 C   0  0  0  0  0  0  0  0  0  0  0  0
   13.7310   -2.1760   25.6270 C   0  0  0  0  0  0  0  0  0  0  0  0
   13.4440   -3.0000   24.7340 C   0  0  0  0  0  0  0  0  0  0  0  0
   12.5760   -2.7660   23.7250 C   0  0  0  0  0  0  0  0  0  0  0  0
   11.7700   -2.4210   22.8640 N   0  0  0  0  0  0  0  0  0  0  0  0
   12.7980   -2.5880   22.1460 C   0  0  0  0  0  0  0  0  0  0  0  0
   11.9780   -2.2770   21.5250 C   0  0  0  0  0  0  0  0  0  0  0  0
   10.9650   -2.1720   22.6380 N   0  0  0  0  0  0  0  0  0  0  0  0
   10.8410   -1.9930   21.6560 C   0  0  0  0  0  0  0  0  0  0  0  0
  1  2  2  0
  2  3  1  0
  3  4  1  0
  4  5  2  0
  5  6  1  0
  6  7  2  0
  7  8  1  0
  4  9  1  0
  8  9  2  0
  2 10  1  0
 11 10  1  6
 11 12  1  0
 12 13  1  0
 13 14  1  0
 14 15  1  0
 15 16  2  0
 16 17  1  0
 17 18  2  0
 14 19  2  0
 18 19  1  0
 19 20  1  0
 20 21  1  0
 21 22  2  0
 22 23  1  0
 11 24  1  0
 20 24  1  0
 23 24  2  0
M  END
