pyridine_urea_8546
     RDKit          3D

 22 23  0  0  0  0  0  0  0  0999 V2000
    9.3000   -5.9250   27.0040 C   0  0  0  0  0  0  0  0  0  0  0  0
    7.8610   -5.6600   27.3190 C   0  0  0  0  0  0  0  0  0  0  0  0
    7.5940   -4.2470   27.1650 N   0  0  0  0  0  0  0  0  0  0  0  0
    6.2950   -3.8790   27.7740 C   0  0  0  0  0  0  0  0  0  0  0  0
    5.5420   -2.9520   27.0560 C   0  0  0  0  0  0  0  0  0  0  0  0
    5.3270   -3.3240   25.6540 N   0  0  0  0  0  0  0  0  0  0  0  0
    4.8160   -2.3990   24.7640 C   0  0  0  0  0  0  0  0  0  0  0  0
    5.7630   -1.2320   24.4660 C   0  0  0  0  0  0  0  0  0  0  0  0
    6.6440   -1.3440   23.3850 C   0  0  0  0  0  0  0  0  0  0  0  0
    8.0720   -0.7720   23.5260 C   0  0  0  0  0  0  0  0  0  0  0  0
    8.9060   -0.6590   22.4710 N   0  0  0  0  0  0  0  0  0  0  0  0
    8.4140    0.0790   21.4540 C   0  0  0  0  0  0  0  0  0  0  0  0
    8.8770    1.1920   21.1450 O   0  0  0  0  0  0  0  0  0  0  0  0
    7.3760   -0.5810   20.8930 N   0  0  0  0  0  0  0  0  0  0  0  0
    6.5850    0.0830   20.0230 C   0  0  0  0  0  0  0  0  0  0  0  0
    5.4390    0.8190   20.3420 C   0  0  0  0  0  0  0  0  0  0  0  0
    4.7300    1.4610   19.3180 C   0  0  0  0  0  0  0  0  0  0  0  0
    5.1780    1.3500   18.0120 C   0  0  0  0  0  0  0  0  0  0  0  0
    6.2680    0.6410   17.6810 N   0  0  0  0  0  0  0  0  0  0  0  0
    6.9390    0.0300   18.6910 C   0  0  0  0  0  0  0  0  0  0  0  0
    6.4480   -4.1310   25.1510 C   0  0  0  0  0  0  0  0  0  0  0  0
    7.6510   -3.7860   25.7760 C   0  0  0  0  0  0  0  0  0  0  0  0
  1  2  1  0
  2  3  1  0
  3  4  1  0
  4  5  1  0
  5  6  1  0
  6  7  1  0
  7  8  1  0
  8  9  1  0
  9 10  1  0
 10 11  1  0
 11 12  1  0
 12 13  2  0
 12 14  1  0
 14 15  1  0
 15 16  2  0
 16 17  1  0
 17 18  2  0
 18 19  1  0
 15 20  1  0
 19 20  2  0
  6 21  1  0
  3 22  1  0
 21 22  1  0
M  END
