pyridine_urea_11513
     RDKit          3D

 21 23  0  0  0  0  0  0  0  0999 V2000
    8.9540    1.2530   21.1980 O   0  0  0  0  0  0  0  0  0  0  0  0
    8.4490    0.1590   21.4920 C   0  0  0  0  0  0  0  0  0  0  0  0
    8.9250   -0.7040   22.4360 N   0  0  0  0  0  0  0  0  0  0  0  0
    8.6810   -2.0890   22.4690 C   0  0  0  0  0  0  0  0  0  0  0  0
    9.0550   -2.7100   23.6450 C   0  0  0  0  0  0  0  0  0  0  0  0
    8.1560   -3.4310   24.4200 C   0  0  0  0  0  0  0  0  0  0  0  0
    8.1100   -3.1230   25.7420 C   0  0  0  0  0  0  0  0  0  0  0  0
    7.2450   -3.8530   26.3780 N   0  0  0  0  0  0  0  0  0  0  0  0
    6.9280   -3.8310   27.6910 C   0  0  0  0  0  0  0  0  0  0  0  0
    5.9530   -4.7370   28.0700 C   0  0  0  0  0  0  0  0  0  0  0  0
    5.3650   -5.6420   26.9630 C   0  0  0  0  0  0  0  0  0  0  0  0
    5.7450   -5.5910   25.6640 N   0  0  0  0  0  0  0  0  0  0  0  0
    6.7130   -4.6570   25.4230 C   0  0  0  0  0  0  0  0  0  0  0  0
    7.2720   -4.4170   24.1500 N   0  0  0  0  0  0  0  0  0  0  0  0
    7.3080   -0.3880   20.9490 N   0  0  0  0  0  0  0  0  0  0  0  0
    6.5220    0.1990   20.0330 C   0  0  0  0  0  0  0  0  0  0  0  0
    5.3580    0.9150   20.3070 C   0  0  0  0  0  0  0  0  0  0  0  0
    4.6440    1.4850   19.2630 C   0  0  0  0  0  0  0  0  0  0  0  0
    5.1210    1.3210   17.9800 C   0  0  0  0  0  0  0  0  0  0  0  0
    6.2290    0.6320   17.6840 N   0  0  0  0  0  0  0  0  0  0  0  0
    6.8970    0.0910   18.7120 C   0  0  0  0  0  0  0  0  0  0  0  0
  1  2  2  0
  2  3  1  0
  3  4  1  0
  4  5  1  0
  5  6  1  0
  6  7  2  0
  7  8  1  0
  8  9  1  0
  9 10  2  0
 10 11  1  0
 11 12  2  0
  8 13  1  0
 12 13  1  0
  6 14  1  0
 13 14  2  0
  2 15  1  0
 15 16  1  0
 16 17  2  0
 17 18  1  0
 18 19  2  0
 19 20  1  0
 16 21  1  0
 20 21  2  0
M  END
