pyridine_urea_6763
     RDKit          3D

 21 23  0  0  0  0  0  0  0  0999 V2000
    9.0820   -3.5540   23.5550 C   0  0  0  0  0  0  0  0  0  0  0  0
   10.2720   -2.9090   23.8130 N   0  0  0  0  0  0  0  0  0  0  0  0
   11.4000   -3.4220   24.4940 N   0  0  0  0  0  0  0  0  0  0  0  0
   12.2900   -2.3830   24.5300 C   0  0  0  0  0  0  0  0  0  0  0  0
   13.8770   -2.6120   25.4020 Br  0  0  0  0  0  0  0  0  0  0  0  0
   11.7980   -1.1410   23.8360 C   0  0  0  0  0  0  0  0  0  0  0  0
   12.3360    0.2390   23.5650 C   0  0  0  0  0  0  0  0  0  0  0  0
   11.4450    1.1730   22.8470 C   0  0  0  0  0  0  0  0  0  0  0  0
   10.1960    0.7510   22.4580 C   0  0  0  0  0  0  0  0  0  0  0  0
    9.1480    1.3930   21.7770 N   0  0  0  0  0  0  0  0  0  0  0  0
    8.3150    0.2890   21.3360 C   0  0  0  0  0  0  0  0  0  0  0  0
    8.8790   -0.6630   20.8820 O   0  0  0  0  0  0  0  0  0  0  0  0
    6.9260    0.3180   21.4750 N   0  0  0  0  0  0  0  0  0  0  0  0
    6.4080    0.5820   20.1320 C   0  0  0  0  0  0  0  0  0  0  0  0
    5.2870    1.3710   20.2130 C   0  0  0  0  0  0  0  0  0  0  0  0
    4.6480    1.7580   19.0630 C   0  0  0  0  0  0  0  0  0  0  0  0
    5.1770    1.3270   17.8470 C   0  0  0  0  0  0  0  0  0  0  0  0
    6.2680    0.5450   17.7430 N   0  0  0  0  0  0  0  0  0  0  0  0
    6.8700    0.1780   18.8940 C   0  0  0  0  0  0  0  0  0  0  0  0
    9.9060   -0.6560   22.8290 C   0  0  0  0  0  0  0  0  0  0  0  0
   10.4790   -1.6650   23.4440 C   0  0  0  0  0  0  0  0  0  0  0  0
  1  2  1  0
  2  3  1  0
  3  4  2  0
  4  5  1  0
  4  6  1  0
  6  7  1  0
  7  8  2  0
  8  9  1  0
  9 10  1  0
 10 11  1  0
 11 12  2  0
 11 13  1  0
 13 14  1  0
 14 15  2  0
 15 16  1  0
 16 17  2  0
 17 18  1  0
 14 19  1  0
 18 19  2  0
  9 20  2  0
  2 21  1  0
  6 21  2  0
 20 21  1  0
M  END
