pyridine_urea_13996
     RDKit          3D

 23 25  0  0  0  0  0  0  0  0999 V2000
    9.1520    0.0050   21.4660 O   0  0  0  0  0  0  0  0  0  0  0  0
    7.9590   -0.2010   21.5750 C   0  0  0  0  0  0  0  0  0  0  0  0
    7.1900    0.2710   22.5970 N   0  0  0  0  0  0  0  0  0  0  0  0
    6.9370   -0.5080   23.7800 C   0  0  0  0  0  0  0  0  0  0  0  0
    8.1910   -0.3750   24.5760 C   0  0  0  0  0  0  0  0  0  0  0  0
    8.3880   -0.3210   26.0230 C   0  0  0  0  0  0  0  0  0  0  0  0
    9.6980   -0.1890   26.1710 C   0  0  0  0  0  0  0  0  0  0  0  0
   10.2590   -0.1600   24.9670 N   0  0  0  0  0  0  0  0  0  0  0  0
   11.5650   -0.0350   24.7160 C   0  0  0  0  0  0  0  0  0  0  0  0
   12.0680   -0.9280   23.7260 C   0  0  0  0  0  0  0  0  0  0  0  0
   11.5470   -0.8830   22.4780 C   0  0  0  0  0  0  0  0  0  0  0  0
   12.2240   -1.8930   21.6110 C   0  0  0  0  0  0  0  0  0  0  0  0
   13.2040   -2.7390   21.9630 C   0  0  0  0  0  0  0  0  0  0  0  0
   13.6930   -2.7520   23.2280 C   0  0  0  0  0  0  0  0  0  0  0  0
   13.1620   -1.8910   24.0970 C   0  0  0  0  0  0  0  0  0  0  0  0
    9.3980   -0.2710   23.8830 N   0  0  0  0  0  0  0  0  0  0  0  0
    7.1260   -0.8590   20.7400 N   0  0  0  0  0  0  0  0  0  0  0  0
    6.3710   -0.1060   19.8660 C   0  0  0  0  0  0  0  0  0  0  0  0
    5.0650    0.5530   20.1390 C   0  0  0  0  0  0  0  0  0  0  0  0
    4.4310    1.3480   19.0500 C   0  0  0  0  0  0  0  0  0  0  0  0
    5.1340    1.4050   17.8490 C   0  0  0  0  0  0  0  0  0  0  0  0
    6.3150    0.7930   17.6250 N   0  0  0  0  0  0  0  0  0  0  0  0
    6.8820    0.0730   18.6110 C   0  0  0  0  0  0  0  0  0  0  0  0
  1  2  2  0
  2  3  1  0
  3  4  1  0
  4  5  1  0
  5  6  1  0
  6  7  2  0
  7  8  1  0
  8  9  1  0
  9 10  1  0
 10 11  2  0
 11 12  1  0
 12 13  2  0
 13 14  1  0
 10 15  1  0
 14 15  2  0
  5 16  2  0
  8 16  1  0
  2 17  1  0
 17 18  1  0
 18 19  2  0
 19 20  1  0
 20 21  2  0
 21 22  1  0
 18 23  1  0
 22 23  2  0
M  END
