pyridine_urea_10785
     RDKit          3D

 20 22  0  0  0  0  0  0  0  0999 V2000
    8.5310    1.4160   20.9570 O   0  0  0  0  0  0  0  0  0  0  0  0
    8.1400    0.4170   21.5660 C   0  0  0  0  0  0  0  0  0  0  0  0
    7.0950   -0.4480   21.0640 N   0  0  0  0  0  0  0  0  0  0  0  0
    6.4120    0.1330   20.0240 C   0  0  0  0  0  0  0  0  0  0  0  0
    5.2300    0.8310   20.2640 C   0  0  0  0  0  0  0  0  0  0  0  0
    4.5870    1.4270   19.1840 C   0  0  0  0  0  0  0  0  0  0  0  0
    5.1490    1.3030   17.9140 C   0  0  0  0  0  0  0  0  0  0  0  0
    6.2780    0.6240   17.6770 N   0  0  0  0  0  0  0  0  0  0  0  0
    6.8870    0.0510   18.7350 C   0  0  0  0  0  0  0  0  0  0  0  0
    8.6290   -0.0030   22.7570 N   0  0  0  0  0  0  0  0  0  0  0  0
   10.0530    0.0700   22.7840 C   0  0  2  0  0  0  0  0  0  0  0  0
   10.4950   -1.2450   22.2170 C   0  0  0  0  0  0  0  0  0  0  0  0
   11.3650   -1.7230   23.1110 C   0  0  0  0  0  0  0  0  0  0  0  0
   11.8210   -0.6160   23.8130 C   0  0  0  0  0  0  0  0  0  0  0  0
   12.8260   -0.1190   23.0810 C   0  0  0  0  0  0  0  0  0  0  0  0
   13.2330   -1.2760   22.4460 C   0  0  0  0  0  0  0  0  0  0  0  0
   13.3720   -2.3560   23.3630 C   0  0  0  0  0  0  0  0  0  0  0  0
   13.0730   -2.1560   24.7300 C   0  0  0  0  0  0  0  0  0  0  0  0
   12.1980   -1.1240   25.0110 C   0  0  0  0  0  0  0  0  0  0  0  0
   10.7830    0.3220   23.9310 C   0  0  0  0  0  0  0  0  0  0  0  0
  1  2  2  0
  2  3  1  0
  3  4  1  0
  4  5  2  0
  5  6  1  0
  6  7  2  0
  7  8  1  0
  4  9  1  0
  8  9  2  0
  2 10  1  0
 11 10  1  1
 11 12  1  0
 12 13  1  0
 14 13  1  0
 14 15  1  0
 15 16  1  0
 16 17  1  0
 17 18  1  0
 14 19  1  0
 18 19  1  0
 11 20  1  0
 14 20  1  0
M  END
