pyridine_urea_6695
     RDKit          3D

 21 22  0  0  0  0  0  0  0  0999 V2000
   11.3090   -2.1440   21.3590 C   0  0  0  0  0  0  0  0  0  0  0  0
   13.0740   -2.0780   21.1190 S   0  0  0  0  0  0  0  0  0  0  0  0
   13.8870   -3.4700   20.3150 C   0  0  0  0  0  0  0  0  0  0  0  0
   13.7220   -0.8120   21.0820 O   0  0  0  0  0  0  0  0  0  0  0  0
   13.1230   -2.5700   22.5810 N   0  0  0  0  0  0  0  0  0  0  0  0
   12.1940   -1.7800   23.1620 C   0  0  0  0  0  0  0  0  0  0  0  0
   12.8060   -1.2910   24.3620 C   0  0  0  0  0  0  0  0  0  0  0  0
   12.0780   -0.4540   25.2000 C   0  0  0  0  0  0  0  0  0  0  0  0
   10.7980   -0.0210   25.0070 C   0  0  0  0  0  0  0  0  0  0  0  0
   10.1150   -0.3980   23.8890 C   0  0  0  0  0  0  0  0  0  0  0  0
   10.6690   -1.2360   22.9260 C   0  0  0  0  0  0  0  0  0  0  0  0
    9.6980   -1.4210   21.9120 N   0  0  0  0  0  0  0  0  0  0  0  0
    8.7510   -0.4210   21.4610 C   0  0  0  0  0  0  0  0  0  0  0  0
    9.0480    0.7680   21.4030 O   0  0  0  0  0  0  0  0  0  0  0  0
    7.5210   -0.9160   21.1100 N   0  0  0  0  0  0  0  0  0  0  0  0
    6.7850   -0.2300   20.1610 C   0  0  0  0  0  0  0  0  0  0  0  0
    5.6400    0.5090   20.5580 C   0  0  0  0  0  0  0  0  0  0  0  0
    4.8030    1.2570   19.6790 C   0  0  0  0  0  0  0  0  0  0  0  0
    5.2890    1.1700   18.2440 C   0  0  0  0  0  0  0  0  0  0  0  0
    6.3670    0.4750   17.8480 N   0  0  0  0  0  0  0  0  0  0  0  0
    7.0780   -0.1990   18.7980 C   0  0  0  0  0  0  0  0  0  0  0  0
  2  1  1  0
  2  3  1  0
  2  4  2  0
  2  5  2  0
  5  6  1  0
  6  7  2  0
  7  8  1  0
  8  9  2  0
  9 10  1  0
  6 11  1  0
 10 11  2  0
 11 12  1  0
 12 13  1  0
 13 14  2  0
 13 15  1  0
 15 16  1  0
 16 17  2  0
 17 18  1  0
 18 19  2  0
 19 20  1  0
 16 21  1  0
 20 21  2  0
M  END
