pyridine_urea_5342
     RDKit          3D

 19 20  0  0  0  0  0  0  0  0999 V2000
    8.8560    0.6440   21.3530 O   0  0  0  0  0  0  0  0  0  0  0  0
    8.3750   -0.4790   21.4160 C   0  0  0  0  0  0  0  0  0  0  0  0
    9.0170   -1.6200   21.8560 N   0  0  0  0  0  0  0  0  0  0  0  0
    9.7900   -1.7870   23.0340 C   0  0  0  0  0  0  0  0  0  0  0  0
   11.1260   -1.4200   22.9480 C   0  0  0  0  0  0  0  0  0  0  0  0
   10.2400   -0.2950   22.9930 C   0  0  0  0  0  0  0  0  0  0  0  0
   10.4340    1.0660   22.9570 C   0  0  0  0  0  0  0  0  0  0  0  0
   11.7790    1.6520   22.8580 C   0  0  0  0  0  0  0  0  0  0  0  0
   12.0800    3.5250   22.7820 Br  0  0  0  0  0  0  0  0  0  0  0  0
   12.7200    0.7050   22.8190 C   0  0  0  0  0  0  0  0  0  0  0  0
   13.9670    1.1260   22.7310 F   0  0  0  0  0  0  0  0  0  0  0  0
   12.3920   -0.7680   22.8620 C   0  0  0  0  0  0  0  0  0  0  0  0
    7.0900   -0.7680   21.0290 N   0  0  0  0  0  0  0  0  0  0  0  0
    6.3790   -0.0420   20.0620 C   0  0  0  0  0  0  0  0  0  0  0  0
    5.1980    0.6600   20.2820 C   0  0  0  0  0  0  0  0  0  0  0  0
    4.6060    1.3490   19.2220 C   0  0  0  0  0  0  0  0  0  0  0  0
    5.2190    1.3160   17.9680 C   0  0  0  0  0  0  0  0  0  0  0  0
    6.3560    0.6390   17.7430 N   0  0  0  0  0  0  0  0  0  0  0  0
    6.9010   -0.0180   18.7790 C   0  0  0  0  0  0  0  0  0  0  0  0
  1  2  2  0
  2  3  1  0
  3  4  1  0
  4  5  1  0
  5  6  2  0
  6  7  1  0
  7  8  2  0
  8  9  1  0
  8 10  1  0
 10 11  1  0
  5 12  1  0
 10 12  2  0
  2 13  1  0
 13 14  1  0
 14 15  2  0
 15 16  1  0
 16 17  2  0
 17 18  1  0
 14 19  1  0
 18 19  2  0
M  END
