pyridine_urea_4650
     RDKit          3D

 22 23  0  0  0  0  0  0  0  0999 V2000
   10.2700   -2.5290   23.2900 C   0  0  0  0  0  0  0  0  0  0  0  0
   11.7740   -2.4660   22.9070 C   0  0  1  0  0  0  0  0  0  0  0  0
   12.2350   -1.0370   22.5100 C   0  0  0  0  0  0  0  0  0  0  0  0
   12.4520   -0.1470   23.6360 N   0  0  0  0  0  0  0  0  0  0  0  0
   11.6690    0.9740   23.7630 C   0  0  0  0  0  0  0  0  0  0  0  0
   11.9780    2.1470   23.6650 O   0  0  0  0  0  0  0  0  0  0  0  0
   10.3310    0.7390   24.0070 C   0  0  0  0  0  0  0  0  0  0  0  0
    9.9070   -0.3610   23.2700 C   0  0  0  0  0  0  0  0  0  0  0  0
    8.6300   -0.3500   22.7830 N   0  0  0  0  0  0  0  0  0  0  0  0
    8.2100    0.1900   21.5610 C   0  0  0  0  0  0  0  0  0  0  0  0
    8.7170    1.2140   21.0790 O   0  0  0  0  0  0  0  0  0  0  0  0
    7.2040   -0.5120   21.0050 N   0  0  0  0  0  0  0  0  0  0  0  0
    6.5300    0.0930   20.0110 C   0  0  0  0  0  0  0  0  0  0  0  0
    5.3850    0.8180   20.3110 C   0  0  0  0  0  0  0  0  0  0  0  0
    4.6860    1.4580   19.2880 C   0  0  0  0  0  0  0  0  0  0  0  0
    5.1740    1.3430   17.9840 C   0  0  0  0  0  0  0  0  0  0  0  0
    6.2740    0.6380   17.6840 N   0  0  0  0  0  0  0  0  0  0  0  0
    6.9180    0.0350   18.6930 C   0  0  0  0  0  0  0  0  0  0  0  0
   12.4880   -0.9510   24.8540 C   0  0  0  0  0  0  0  0  0  0  0  0
   13.2810   -2.0650   24.5200 C   0  0  1  0  0  0  0  0  0  0  0  0
   13.8840   -2.6000   25.6100 C   0  0  0  0  0  0  0  0  0  0  0  0
   12.4660   -3.0390   23.9330 O   0  0  0  0  0  0  0  0  0  0  0  0
  2  1  1  1
  2  3  1  0
  3  4  1  0
  4  5  1  0
  5  6  2  0
  5  7  1  0
  7  8  1  0
  8  9  1  0
  9 10  1  0
 10 11  2  0
 10 12  1  0
 12 13  1  0
 13 14  2  0
 14 15  1  0
 15 16  2  0
 16 17  1  0
 13 18  1  0
 17 18  2  0
  4 19  1  0
 19 20  1  0
 20 21  1  1
  2 22  1  0
 20 22  1  0
M  END
