pyridine_urea_4518
     RDKit          3D

 23 25  0  0  0  0  0  0  0  0999 V2000
    9.0310    0.5260   21.5390 O   0  0  0  0  0  0  0  0  0  0  0  0
    8.3690   -0.4920   21.6320 C   0  0  0  0  0  0  0  0  0  0  0  0
    8.8350   -1.6450   22.2410 N   0  0  0  0  0  0  0  0  0  0  0  0
    9.8540   -1.6170   23.2720 C   0  0  0  0  0  0  0  0  0  0  0  0
   11.0030   -2.5900   22.9880 C   0  0  0  0  0  0  0  0  0  0  0  0
   12.1590   -1.7390   22.7560 C   0  0  0  0  0  0  0  0  0  0  0  0
   12.6830   -1.5200   21.4600 N   0  0  0  0  0  0  0  0  0  0  0  0
   13.5810   -0.5370   21.6340 C   0  0  0  0  0  0  0  0  0  0  0  0
   14.2800    0.2300   20.3960 C   0  0  0  0  0  0  0  0  0  0  0  0
   14.9790    1.6280   20.5630 C   0  0  0  0  0  0  0  0  0  0  0  0
   15.4300    2.2530   19.4540 C   0  0  0  0  0  0  0  0  0  0  0  0
   15.2670    1.7030   18.2890 C   0  0  0  0  0  0  0  0  0  0  0  0
   14.6600    0.4610   18.2870 C   0  0  0  0  0  0  0  0  0  0  0  0
   14.2110   -0.3270   19.2580 N   0  0  0  0  0  0  0  0  0  0  0  0
   13.7700   -0.1300   22.9310 C   0  0  0  0  0  0  0  0  0  0  0  0
   12.8410   -0.9120   24.1240 S   0  0  0  0  0  0  0  0  0  0  0  0
    7.0800   -0.6800   21.1830 N   0  0  0  0  0  0  0  0  0  0  0  0
    6.5420   -0.0590   20.0970 C   0  0  0  0  0  0  0  0  0  0  0  0
    5.2920    0.7240   20.4150 C   0  0  0  0  0  0  0  0  0  0  0  0
    4.6820    1.3990   19.3500 C   0  0  0  0  0  0  0  0  0  0  0  0
    5.2870    1.3060   18.0110 C   0  0  0  0  0  0  0  0  0  0  0  0
    6.3710    0.6320   17.6950 N   0  0  0  0  0  0  0  0  0  0  0  0
    7.0330   -0.0910   18.7970 C   0  0  0  0  0  0  0  0  0  0  0  0
  1  2  2  0
  2  3  1  0
  3  4  1  0
  4  5  1  0
  5  6  1  0
  6  7  2  0
  7  8  1  0
  8  9  1  0
  9 10  2  0
 10 11  1  0
 11 12  2  0
 12 13  1  0
  9 14  1  0
 13 14  2  0
  8 15  2  0
  6 16  1  0
 15 16  1  0
  2 17  1  0
 17 18  1  0
 18 19  2  0
 19 20  1  0
 20 21  2  0
 21 22  1  0
 18 23  1  0
 22 23  2  0
M  END
