pyridine_urea_11627
     RDKit          3D

 20 22  0  0  0  0  0  0  0  0999 V2000
    8.7750    0.2770   21.3470 O   0  0  0  0  0  0  0  0  0  0  0  0
    7.8660   -0.4640   21.7080 C   0  0  0  0  0  0  0  0  0  0  0  0
    6.8080   -0.8470   20.9500 N   0  0  0  0  0  0  0  0  0  0  0  0
    6.2740   -0.0890   19.9160 C   0  0  0  0  0  0  0  0  0  0  0  0
    5.0910    0.6150   20.1310 C   0  0  0  0  0  0  0  0  0  0  0  0
    4.5470    1.3860   19.1040 C   0  0  0  0  0  0  0  0  0  0  0  0
    5.2190    1.4190   17.8990 C   0  0  0  0  0  0  0  0  0  0  0  0
    6.3570    0.7450   17.6750 N   0  0  0  0  0  0  0  0  0  0  0  0
    6.8580    0.0070   18.6810 C   0  0  0  0  0  0  0  0  0  0  0  0
    7.7450   -1.0160   22.9620 N   0  0  0  0  0  0  0  0  0  0  0  0
    8.8960   -1.2170   23.8040 C   0  0  2  0  0  0  0  0  0  0  0  0
    9.3850   -0.2890   24.7160 C   0  0  0  0  0  0  0  0  0  0  0  0
    9.7890   -0.0010   23.3790 C   0  0  1  0  0  0  0  0  0  0  0  0
   10.9500   -0.4000   22.9680 C   0  0  0  0  0  0  0  0  0  0  0  0
   11.5240   -1.4500   22.4420 C   0  0  0  0  0  0  0  0  0  0  0  0
   12.9120   -1.0500   22.2660 C   0  0  0  0  0  0  0  0  0  0  0  0
   13.4880    0.3030   22.6410 C   0  0  0  0  0  0  0  0  0  0  0  0
   12.5960    1.3730   23.2710 C   0  0  0  0  0  0  0  0  0  0  0  0
   12.1800    0.1130   22.8880 C   0  0  0  0  0  0  0  0  0  0  0  0
   13.3630   -1.1340   22.1490 Br  0  0  0  0  0  0  0  0  0  0  0  0
  1  2  2  0
  2  3  1  0
  3  4  1  0
  4  5  2  0
  5  6  1  0
  6  7  2  0
  7  8  1  0
  4  9  1  0
  8  9  2  0
  2 10  1  0
 11 10  1  6
 11 12  1  0
 11 13  1  0
 12 13  1  0
 13 14  1  1
 14 15  2  0
 15 16  1  0
 16 17  2  0
 17 18  1  0
 14 19  1  0
 18 19  2  0
 19 20  1  0
M  END
