pyridine_urea_5111
     RDKit          3D

 20 22  0  0  0  0  0  0  0  0999 V2000
    9.4930    0.8500   21.6860 O   0  0  0  0  0  0  0  0  0  0  0  0
    8.7370   -0.1060   21.8130 C   0  0  0  0  0  0  0  0  0  0  0  0
    8.9030   -1.1590   22.6780 N   0  0  0  0  0  0  0  0  0  0  0  0
    8.6490   -2.5270   22.4720 C   0  0  0  0  0  0  0  0  0  0  0  0
    8.5120   -3.2780   23.6420 C   0  0  0  0  0  0  0  0  0  0  0  0
    7.4480   -3.8860   24.2010 N   0  0  0  0  0  0  0  0  0  0  0  0
    7.9550   -4.4320   25.3370 C   0  0  0  0  0  0  0  0  0  0  0  0
    7.3060   -5.1720   26.3110 C   0  0  0  0  0  0  0  0  0  0  0  0
    8.1430   -5.6550   27.4940 C   0  0  0  0  0  0  0  0  0  0  0  0
    9.4890   -5.3030   27.4720 C   0  0  0  0  0  0  0  0  0  0  0  0
   10.1450   -4.4810   26.3490 C   0  0  0  0  0  0  0  0  0  0  0  0
    9.3220   -4.0710   25.3090 C   0  0  0  0  0  0  0  0  0  0  0  0
    9.5870   -3.3850   24.2700 O   0  0  0  0  0  0  0  0  0  0  0  0
    7.5960   -0.1640   21.0470 N   0  0  0  0  0  0  0  0  0  0  0  0
    6.6670    0.2890   20.1100 C   0  0  0  0  0  0  0  0  0  0  0  0
    5.4850    0.9760   20.3820 C   0  0  0  0  0  0  0  0  0  0  0  0
    4.6830    1.3900   19.3170 C   0  0  0  0  0  0  0  0  0  0  0  0
    5.0750    1.1100   18.0200 C   0  0  0  0  0  0  0  0  0  0  0  0
    6.1880    0.4430   17.7260 N   0  0  0  0  0  0  0  0  0  0  0  0
    6.9580    0.0460   18.7790 C   0  0  0  0  0  0  0  0  0  0  0  0
  1  2  2  0
  2  3  1  0
  3  4  1  0
  4  5  1  0
  5  6  2  0
  6  7  1  0
  7  8  2  0
  8  9  1  0
  9 10  2  0
 10 11  1  0
  7 12  1  0
 11 12  2  0
  5 13  1  0
 12 13  1  0
  2 14  1  0
 14 15  1  0
 15 16  2  0
 16 17  1  0
 17 18  2  0
 18 19  1  0
 15 20  1  0
 19 20  2  0
M  END
