pyridine_urea_2570
     RDKit          3D

 23 25  0  0  0  0  0  0  0  0999 V2000
   14.1630   -2.8180   26.0560 C   0  0  0  0  0  0  0  0  0  0  0  0
   13.3140   -2.8260   25.0310 N   0  0  0  0  0  0  0  0  0  0  0  0
   13.5480   -2.3240   23.8490 C   0  0  0  0  0  0  0  0  0  0  0  0
   12.6000   -2.4270   23.0380 C   0  0  0  0  0  0  0  0  0  0  0  0
   12.8290   -1.8900   21.8750 N   0  0  0  0  0  0  0  0  0  0  0  0
   12.1380   -0.7450   22.2360 C   0  0  0  0  0  0  0  0  0  0  0  0
   12.8010    0.4010   22.5840 C   0  0  0  0  0  0  0  0  0  0  0  0
   12.0410    1.4890   22.9470 C   0  0  0  0  0  0  0  0  0  0  0  0
   10.6340    1.4100   22.9690 C   0  0  0  0  0  0  0  0  0  0  0  0
    9.8670    0.1410   22.6060 C   0  0  0  0  0  0  0  0  0  0  0  0
    8.5590   -0.0060   22.6130 N   0  0  0  0  0  0  0  0  0  0  0  0
    8.0820    0.3910   21.4460 C   0  0  0  0  0  0  0  0  0  0  0  0
    8.5370    1.4000   20.9060 O   0  0  0  0  0  0  0  0  0  0  0  0
    7.1100   -0.4200   21.0050 N   0  0  0  0  0  0  0  0  0  0  0  0
    6.4140    0.1580   20.0190 C   0  0  0  0  0  0  0  0  0  0  0  0
    5.2360    0.8510   20.2480 C   0  0  0  0  0  0  0  0  0  0  0  0
    4.5890    1.4450   19.1740 C   0  0  0  0  0  0  0  0  0  0  0  0
    5.1530    1.3190   17.9090 C   0  0  0  0  0  0  0  0  0  0  0  0
    6.2860    0.6430   17.6730 N   0  0  0  0  0  0  0  0  0  0  0  0
    6.8870    0.0790   18.7300 C   0  0  0  0  0  0  0  0  0  0  0  0
   10.7980   -0.9060   22.2330 C   0  0  0  0  0  0  0  0  0  0  0  0
   11.6080   -3.0560   23.7310 C   0  0  0  0  0  0  0  0  0  0  0  0
   12.0510   -3.3290   24.9990 N   0  0  0  0  0  0  0  0  0  0  0  0
  1  2  1  0
  2  3  1  0
  3  4  2  0
  4  5  1  0
  5  6  1  0
  6  7  2  0
  7  8  1  0
  8  9  2  0
  9 10  1  0
 10 11  1  0
 11 12  1  0
 12 13  2  0
 12 14  1  0
 14 15  1  0
 15 16  2  0
 16 17  1  0
 17 18  2  0
 18 19  1  0
 15 20  1  0
 19 20  2  0
  6 21  1  0
 10 21  2  0
  4 22  1  0
  2 23  1  0
 22 23  2  0
M  END
