pyridine_urea_12862
     RDKit          3D

 19 20  0  0  0  0  0  0  0  0999 V2000
   12.4620    3.2930   22.6350 C   0  0  0  0  0  0  0  0  0  0  0  0
   12.0090    1.9630   22.8820 O   0  0  0  0  0  0  0  0  0  0  0  0
   12.9630    1.0000   23.0820 C   0  0  0  0  0  0  0  0  0  0  0  0
   12.6650   -0.3460   22.4530 C   0  0  0  0  0  0  0  0  0  0  0  0
   13.6280   -1.1270   21.6930 O   0  0  0  0  0  0  0  0  0  0  0  0
   12.8500   -2.2140   21.3600 C   0  0  0  0  0  0  0  0  0  0  0  0
   11.4720   -2.1810   21.8520 N   0  0  0  0  0  0  0  0  0  0  0  0
   11.3360   -1.0110   22.5410 C   0  0  0  0  0  0  0  0  0  0  0  0
   10.0880   -0.7650   23.0980 C   0  0  0  0  0  0  0  0  0  0  0  0
    9.0410   -1.1040   22.2760 N   0  0  0  0  0  0  0  0  0  0  0  0
    8.2620   -0.2250   21.5000 C   0  0  0  0  0  0  0  0  0  0  0  0
    8.7270    0.8710   21.2160 O   0  0  0  0  0  0  0  0  0  0  0  0
    7.0440   -0.6730   21.1260 N   0  0  0  0  0  0  0  0  0  0  0  0
    6.4550   -0.0330   20.0840 C   0  0  0  0  0  0  0  0  0  0  0  0
    5.2930    0.6930   20.3090 C   0  0  0  0  0  0  0  0  0  0  0  0
    4.6470    1.3750   19.2770 C   0  0  0  0  0  0  0  0  0  0  0  0
    5.2220    1.2960   18.0090 C   0  0  0  0  0  0  0  0  0  0  0  0
    6.3420    0.6010   17.7490 N   0  0  0  0  0  0  0  0  0  0  0  0
    6.9340   -0.0480   18.7810 C   0  0  0  0  0  0  0  0  0  0  0  0
  1  2  1  0
  2  3  1  0
  3  4  1  0
  4  5  1  0
  5  6  1  0
  6  7  2  0
  4  8  2  0
  7  8  1  0
  8  9  1  0
  9 10  1  0
 10 11  1  0
 11 12  2  0
 11 13  1  0
 13 14  1  0
 14 15  2  0
 15 16  1  0
 16 17  2  0
 17 18  1  0
 14 19  1  0
 18 19  2  0
M  END
