pyridine_urea_15254
     RDKit          3D

 16 16  0  0  0  0  0  0  0  0999 V2000
   10.5050    0.6450   22.8620 C   0  0  0  0  0  0  0  0  0  0  0  0
   10.3640   -0.8740   22.7430 C   0  0  0  0  0  0  0  0  0  0  0  0
   10.1820   -1.4290   24.1330 C   0  0  0  0  0  0  0  0  0  0  0  0
   11.6550   -1.4800   22.1920 C   0  0  0  0  0  0  0  0  0  0  0  0
   12.9180   -0.6870   22.5140 C   0  0  0  0  0  0  0  0  0  0  0  0
   13.0830   -0.7330   23.7180 O   0  0  0  0  0  0  0  0  0  0  0  0
    9.2290   -1.2730   21.9070 N   0  0  0  0  0  0  0  0  0  0  0  0
    8.4550   -0.2220   21.4550 C   0  0  0  0  0  0  0  0  0  0  0  0
    8.8560    0.9290   21.3750 O   0  0  0  0  0  0  0  0  0  0  0  0
    7.2000   -0.6260   21.0840 N   0  0  0  0  0  0  0  0  0  0  0  0
    6.4990    0.0050   20.0460 C   0  0  0  0  0  0  0  0  0  0  0  0
    5.3310    0.7180   20.3320 C   0  0  0  0  0  0  0  0  0  0  0  0
    4.6430    1.3640   19.3040 C   0  0  0  0  0  0  0  0  0  0  0  0
    5.1510    1.2710   18.0250 C   0  0  0  0  0  0  0  0  0  0  0  0
    6.2640    0.5870   17.7250 N   0  0  0  0  0  0  0  0  0  0  0  0
    6.9110   -0.0290   18.7340 C   0  0  0  0  0  0  0  0  0  0  0  0
  1  2  1  0
  2  3  1  0
  2  4  1  0
  4  5  1  0
  5  6  1  0
  2  7  1  0
  7  8  1  0
  8  9  2  0
  8 10  1  0
 10 11  1  0
 11 12  2  0
 12 13  1  0
 13 14  2  0
 14 15  1  0
 11 16  1  0
 15 16  2  0
M  END
