pyridine_urea_14070
     RDKit          3D

 23 25  0  0  0  0  0  0  0  0999 V2000
    8.3980   -5.2590   27.8720 C   0  0  0  0  0  0  0  0  0  0  0  0
    7.8560   -5.6290   26.8640 C   0  0  0  0  0  0  0  0  0  0  0  0
    7.1040   -4.4910   26.3430 O   0  0  0  0  0  0  0  0  0  0  0  0
    7.7490   -3.7370   25.4080 C   0  0  0  0  0  0  0  0  0  0  0  0
    7.7290   -2.2810   25.7080 C   0  0  0  0  0  0  0  0  0  0  0  0
    8.3700   -1.4720   24.8210 C   0  0  0  0  0  0  0  0  0  0  0  0
    9.0920   -1.9520   23.5750 C   0  0  0  0  0  0  0  0  0  0  0  0
    9.7980   -1.0300   22.6580 C   0  0  0  0  0  0  0  0  0  0  0  0
    9.1120   -0.9560   21.4390 N   0  0  0  0  0  0  0  0  0  0  0  0
    8.3120    0.1030   21.1960 C   0  0  0  0  0  0  0  0  0  0  0  0
    8.7270    1.2670   21.1480 O   0  0  0  0  0  0  0  0  0  0  0  0
    7.0350   -0.3200   21.0000 N   0  0  0  0  0  0  0  0  0  0  0  0
    6.2990    0.2680   20.0020 C   0  0  0  0  0  0  0  0  0  0  0  0
    5.1110    0.9490   20.1620 C   0  0  0  0  0  0  0  0  0  0  0  0
    4.4860    1.5250   19.0690 C   0  0  0  0  0  0  0  0  0  0  0  0
    5.1030    1.3790   17.8460 C   0  0  0  0  0  0  0  0  0  0  0  0
    6.2500    0.7100   17.6560 N   0  0  0  0  0  0  0  0  0  0  0  0
    6.8180    0.1720   18.7340 C   0  0  0  0  0  0  0  0  0  0  0  0
   10.1020    0.2590   23.4910 C   0  0  0  0  0  0  0  0  0  0  0  0
   11.4920   -0.0680   23.0980 C   0  0  0  0  0  0  0  0  0  0  0  0
   11.3370   -1.2380   22.3640 C   0  0  0  0  0  0  0  0  0  0  0  0
    9.0600   -3.3300   23.3360 C   0  0  0  0  0  0  0  0  0  0  0  0
    8.4030   -4.1940   24.2390 C   0  0  0  0  0  0  0  0  0  0  0  0
  1  2  1  0
  2  3  1  0
  3  4  1  0
  4  5  2  0
  5  6  1  0
  6  7  2  0
  7  8  1  0
  8  9  1  0
  9 10  1  0
 10 11  2  0
 10 12  1  0
 12 13  1  0
 13 14  2  0
 14 15  1  0
 15 16  2  0
 16 17  1  0
 13 18  1  0
 17 18  2  0
  8 19  1  0
 19 20  1  0
  8 21  1  0
 20 21  1  0
  7 22  1  0
  4 23  1  0
 22 23  2  0
M  END
