pyridine_urea_8570
     RDKit          3D

 21 23  0  0  0  0  0  0  0  0999 V2000
    8.9420    1.1800   21.1970 O   0  0  0  0  0  0  0  0  0  0  0  0
    8.4840    0.0690   21.5050 C   0  0  0  0  0  0  0  0  0  0  0  0
    9.0000   -0.7910   22.4400 N   0  0  0  0  0  0  0  0  0  0  0  0
    9.9570   -1.7990   22.2210 C   0  0  0  0  0  0  0  0  0  0  0  0
   10.4210   -2.4500   23.3630 C   0  0  0  0  0  0  0  0  0  0  0  0
   11.7320   -2.3930   23.8590 C   0  0  0  0  0  0  0  0  0  0  0  0
   11.7740   -3.2180   25.0610 N   0  0  0  0  0  0  0  0  0  0  0  0
   10.5060   -3.7120   25.2200 C   0  0  0  0  0  0  0  0  0  0  0  0
   10.0000   -4.6280   26.3150 C   0  0  0  0  0  0  0  0  0  0  0  0
    8.6490   -4.9580   26.1680 C   0  0  0  0  0  0  0  0  0  0  0  0
    7.7740   -4.4220   24.9990 C   0  0  0  0  0  0  0  0  0  0  0  0
    5.9480   -4.8980   24.8530 Br  0  0  0  0  0  0  0  0  0  0  0  0
    8.3860   -3.5690   24.0620 C   0  0  0  0  0  0  0  0  0  0  0  0
    9.7070   -3.2670   24.2210 N   0  0  0  0  0  0  0  0  0  0  0  0
    7.3450   -0.4650   20.9490 N   0  0  0  0  0  0  0  0  0  0  0  0
    6.5590    0.1460   20.0380 C   0  0  0  0  0  0  0  0  0  0  0  0
    5.4000    0.8740   20.3280 C   0  0  0  0  0  0  0  0  0  0  0  0
    4.7000    1.4690   19.2770 C   0  0  0  0  0  0  0  0  0  0  0  0
    5.1630    1.3270   17.9810 C   0  0  0  0  0  0  0  0  0  0  0  0
    6.2630    0.6250   17.6860 N   0  0  0  0  0  0  0  0  0  0  0  0
    6.9400    0.0470   18.7110 C   0  0  0  0  0  0  0  0  0  0  0  0
  1  2  2  0
  2  3  1  0
  3  4  1  0
  4  5  1  0
  5  6  2  0
  6  7  1  0
  7  8  2  0
  8  9  1  0
  9 10  2  0
 10 11  1  0
 11 12  1  0
 11 13  2  0
  5 14  1  0
  8 14  1  0
 13 14  1  0
  2 15  1  0
 15 16  1  0
 16 17  2  0
 17 18  1  0
 18 19  2  0
 19 20  1  0
 16 21  1  0
 20 21  2  0
M  END
