pyridine_urea_14375
     RDKit          3D

 22 24  0  0  0  0  0  0  0  0999 V2000
    8.3730    0.8150   21.2190 O   0  0  0  0  0  0  0  0  0  0  0  0
    7.7730   -0.1520   21.6810 C   0  0  0  0  0  0  0  0  0  0  0  0
    8.1940   -0.7710   22.8950 N   0  0  0  0  0  0  0  0  0  0  0  0
    9.5210   -0.5950   22.8860 C   0  0  0  0  0  0  0  0  0  0  0  0
   10.3310   -1.4240   22.1660 C   0  0  0  0  0  0  0  0  0  0  0  0
   11.6320   -1.1740   22.1730 C   0  0  0  0  0  0  0  0  0  0  0  0
   12.1190   -0.1160   22.8810 C   0  0  0  0  0  0  0  0  0  0  0  0
   13.4920   -0.0300   22.7740 C   0  0  0  0  0  0  0  0  0  0  0  0
   13.4800   -1.0590   23.6660 N   0  0  0  0  0  0  0  0  0  0  0  0
   13.0300   -1.0060   24.9860 C   0  0  0  0  0  0  0  0  0  0  0  0
   13.1520   -2.1520   25.5790 N   0  0  0  0  0  0  0  0  0  0  0  0
   13.6460   -2.8990   24.6400 C   0  0  0  0  0  0  0  0  0  0  0  0
   13.8820   -2.3450   23.4150 N   0  0  0  0  0  0  0  0  0  0  0  0
   11.3760    0.7660   23.6380 C   0  0  0  0  0  0  0  0  0  0  0  0
   10.0110    0.6190   23.7200 C   0  0  0  0  0  0  0  0  0  0  0  0
    6.7160   -0.6230   21.0130 N   0  0  0  0  0  0  0  0  0  0  0  0
    6.1410    0.0720   19.9430 C   0  0  0  0  0  0  0  0  0  0  0  0
    4.9560    0.7530   20.0740 C   0  0  0  0  0  0  0  0  0  0  0  0
    4.4820    1.4240   18.9810 C   0  0  0  0  0  0  0  0  0  0  0  0
    5.1750    1.4120   17.7870 C   0  0  0  0  0  0  0  0  0  0  0  0
    6.3220    0.7450   17.6450 N   0  0  0  0  0  0  0  0  0  0  0  0
    6.7860    0.0880   18.7240 C   0  0  0  0  0  0  0  0  0  0  0  0
  1  2  2  0
  2  3  1  0
  3  4  1  0
  4  5  2  0
  5  6  1  0
  6  7  2  0
  7  8  1  0
  8  9  1  0
  9 10  1  0
 10 11  2  0
 11 12  1  0
  9 13  1  0
 12 13  2  0
  7 14  1  0
  4 15  1  0
 14 15  2  0
  2 16  1  0
 16 17  1  0
 17 18  2  0
 18 19  1  0
 19 20  2  0
 20 21  1  0
 17 22  1  0
 21 22  2  0
M  END
