pyridine_urea_10732
     RDKit          3D

 20 21  0  0  0  0  0  0  0  0999 V2000
    8.6910   -3.4150   23.0740 C   0  0  0  0  0  0  0  0  0  0  0  0
    9.8250   -3.0720   22.2780 O   0  0  0  0  0  0  0  0  0  0  0  0
   10.8880   -2.6450   23.0100 C   0  0  0  0  0  0  0  0  0  0  0  0
   11.4350   -3.3460   23.8480 O   0  0  0  0  0  0  0  0  0  0  0  0
   11.3020   -1.3430   22.8100 C   0  0  2  0  0  0  0  0  0  0  0  0
   10.2920   -0.5930   22.2030 C   0  0  0  0  0  0  0  0  0  0  0  0
    9.0180   -0.6190   22.5510 N   0  0  0  0  0  0  0  0  0  0  0  0
    8.3960    0.1030   21.5480 C   0  0  0  0  0  0  0  0  0  0  0  0
    8.8100    1.2130   21.1690 O   0  0  0  0  0  0  0  0  0  0  0  0
    7.3080   -0.5600   21.0930 N   0  0  0  0  0  0  0  0  0  0  0  0
    6.6190    0.0390   20.0850 C   0  0  0  0  0  0  0  0  0  0  0  0
    5.3920    0.8180   20.4930 C   0  0  0  0  0  0  0  0  0  0  0  0
    4.7010    1.4580   19.3120 C   0  0  0  0  0  0  0  0  0  0  0  0
    5.1930    1.3040   18.0320 C   0  0  0  0  0  0  0  0  0  0  0  0
    6.2640    0.6140   17.6670 N   0  0  0  0  0  0  0  0  0  0  0  0
    6.9410   -0.0010   18.7460 C   0  0  0  0  0  0  0  0  0  0  0  0
   12.5720   -1.1450   22.3730 C   0  0  0  0  0  0  0  0  0  0  0  0
   12.9830    0.1460   22.6720 C   0  0  0  0  0  0  0  0  0  0  0  0
   12.3530    0.3040   23.8900 O   0  0  0  0  0  0  0  0  0  0  0  0
   11.5830   -0.8680   24.0730 C   0  0  0  0  0  0  0  0  0  0  0  0
  1  2  1  0
  2  3  1  0
  3  4  2  0
  5  3  1  0
  5  6  1  6
  6  7  1  0
  7  8  1  0
  8  9  2  0
  8 10  1  0
 10 11  1  0
 11 12  2  0
 12 13  1  0
 13 14  2  0
 14 15  1  0
 11 16  1  0
 15 16  2  0
  5 17  1  0
 17 18  1  0
 18 19  1  0
  5 20  1  0
 19 20  1  0
M  END
