pyridine_urea_15168
     RDKit          3D

 18 19  0  0  0  0  0  0  0  0999 V2000
    9.0220    0.9380   21.3770 O   0  0  0  0  0  0  0  0  0  0  0  0
    8.4950   -0.1250   21.6710 C   0  0  0  0  0  0  0  0  0  0  0  0
    9.0280   -0.9520   22.6450 N   0  0  0  0  0  0  0  0  0  0  0  0
    8.5450   -2.3050   22.8220 C   0  0  0  0  0  0  0  0  0  0  0  0
    7.2970   -2.3730   23.7060 C   0  0  0  0  0  0  0  0  0  0  0  0
    6.5390   -3.5050   23.4650 N   0  0  0  0  0  0  0  0  0  0  0  0
    6.7900   -4.5220   22.5290 C   0  0  0  0  0  0  0  0  0  0  0  0
    6.5880   -5.8310   23.2720 C   0  0  0  0  0  0  0  0  0  0  0  0
    6.2070   -5.4090   24.5240 N   0  0  0  0  0  0  0  0  0  0  0  0
    6.1970   -4.0170   24.7130 C   0  0  0  0  0  0  0  0  0  0  0  0
    5.9400   -3.4190   25.7470 O   0  0  0  0  0  0  0  0  0  0  0  0
    7.3380   -0.6200   21.1110 N   0  0  0  0  0  0  0  0  0  0  0  0
    6.6060   -0.0050   20.0730 C   0  0  0  0  0  0  0  0  0  0  0  0
    5.4510    0.7170   20.3900 C   0  0  0  0  0  0  0  0  0  0  0  0
    4.7190    1.3440   19.3800 C   0  0  0  0  0  0  0  0  0  0  0  0
    5.1670    1.2330   18.0850 C   0  0  0  0  0  0  0  0  0  0  0  0
    6.2660    0.5430   17.7480 N   0  0  0  0  0  0  0  0  0  0  0  0
    6.9580   -0.0600   18.7410 C   0  0  0  0  0  0  0  0  0  0  0  0
  1  2  2  0
  2  3  1  0
  3  4  1  0
  4  5  1  0
  5  6  1  0
  6  7  1  0
  7  8  1  0
  8  9  1  0
  6 10  1  0
  9 10  1  0
 10 11  2  0
  2 12  1  0
 12 13  1  0
 13 14  2  0
 14 15  1  0
 15 16  2  0
 16 17  1  0
 13 18  1  0
 17 18  2  0
M  END
