pyridine_urea_4457
     RDKit          3D

 23 25  0  0  0  0  0  0  0  0999 V2000
    8.7020    1.1810   21.1800 O   0  0  0  0  0  0  0  0  0  0  0  0
    8.1910    0.1670   21.6930 C   0  0  0  0  0  0  0  0  0  0  0  0
    7.2310   -0.6110   21.0800 N   0  0  0  0  0  0  0  0  0  0  0  0
    6.5260    0.0460   20.0230 C   0  0  0  0  0  0  0  0  0  0  0  0
    5.2460    0.7920   20.3840 C   0  0  0  0  0  0  0  0  0  0  0  0
    4.5120    1.5090   19.2550 C   0  0  0  0  0  0  0  0  0  0  0  0
    5.1600    1.3940   17.8760 C   0  0  0  0  0  0  0  0  0  0  0  0
    6.3380    0.6600   17.7160 N   0  0  0  0  0  0  0  0  0  0  0  0
    6.9790    0.0210   18.7310 C   0  0  0  0  0  0  0  0  0  0  0  0
    8.5080   -0.3130   22.9580 N   0  0  0  0  0  0  0  0  0  0  0  0
    9.8690   -0.3800   23.2950 C   0  0  1  0  0  0  0  0  0  0  0  0
   10.7590    0.1060   22.3740 C   0  0  0  0  0  0  0  0  0  0  0  0
   11.5230    1.1400   22.9600 C   0  0  0  0  0  0  0  0  0  0  0  0
   11.5700    0.8650   24.2530 N   0  0  0  0  0  0  0  0  0  0  0  0
   12.2620   -0.2280   24.1610 C   0  0  0  0  0  0  0  0  0  0  0  0
   12.8140   -0.8000   25.2740 C   0  0  0  0  0  0  0  0  0  0  0  0
   13.5270   -2.0100   25.1630 C   0  0  0  0  0  0  0  0  0  0  0  0
   13.6600   -2.6160   23.8120 C   0  0  0  0  0  0  0  0  0  0  0  0
   13.0660   -1.9320   22.7840 C   0  0  0  0  0  0  0  0  0  0  0  0
   13.0640   -2.4280   21.0300 Br  0  0  0  0  0  0  0  0  0  0  0  0
   12.3680   -0.7430   22.9490 C   0  0  0  0  0  0  0  0  0  0  0  0
   10.1590    0.5270   24.4860 C   0  0  0  0  0  0  0  0  0  0  0  0
    9.1610    0.7790   25.3750 O   0  0  0  0  0  0  0  0  0  0  0  0
  1  2  2  0
  2  3  1  0
  3  4  1  0
  4  5  2  0
  5  6  1  0
  6  7  2  0
  7  8  1  0
  4  9  1  0
  8  9  2  0
  2 10  1  0
 11 10  1  6
 11 12  1  0
 12 13  1  0
 13 14  1  0
 14 15  1  0
 15 16  2  0
 16 17  1  0
 17 18  2  0
 18 19  1  0
 19 20  1  0
 15 21  1  0
 19 21  2  0
 11 22  1  0
 14 22  1  0
 22 23  2  0
M  END
