pyridine_urea_11087
     RDKit          3D

 18 19  0  0  0  0  0  0  0  0999 V2000
   12.2130   -2.1270   21.3430 O   0  0  0  0  0  0  0  0  0  0  0  0
   12.7790   -1.3580   22.0960 C   0  0  0  0  0  0  0  0  0  0  0  0
   13.0540   -0.5220   22.8190 C   0  0  0  0  0  0  0  0  0  0  0  0
   12.7110    0.5970   23.6640 C   0  0  0  0  0  0  0  0  0  0  0  0
   11.3660    0.5550   23.2010 C   0  0  2  0  0  0  0  0  0  0  0  0
   10.4080    0.1910   24.0770 C   0  0  0  0  0  0  0  0  0  0  0  0
    9.4670   -0.9580   23.7120 C   0  0  0  0  0  0  0  0  0  0  0  0
    8.2320   -0.4620   23.0750 N   0  0  0  0  0  0  0  0  0  0  0  0
    8.1510    0.0450   21.7890 C   0  0  0  0  0  0  0  0  0  0  0  0
    8.9380    1.1570   21.2830 O   0  0  0  0  0  0  0  0  0  0  0  0
    7.1340   -0.6890   21.0730 N   0  0  0  0  0  0  0  0  0  0  0  0
    6.5130   -0.0090   19.9520 C   0  0  0  0  0  0  0  0  0  0  0  0
    5.2620    0.7570   20.2750 C   0  0  0  0  0  0  0  0  0  0  0  0
    4.6470    1.4370   19.2320 C   0  0  0  0  0  0  0  0  0  0  0  0
    5.1290    1.4420   17.9320 C   0  0  0  0  0  0  0  0  0  0  0  0
    6.3350    0.6810   17.6660 N   0  0  0  0  0  0  0  0  0  0  0  0
    6.9660   -0.0030   18.6650 C   0  0  0  0  0  0  0  0  0  0  0  0
   11.5200   -0.6760   22.2760 N   0  0  0  0  0  0  0  0  0  0  0  0
  1  2  2  0
  2  3  1  0
  3  4  1  0
  4  5  1  0
  5  6  1  1
  6  7  1  0
  7  8  1  0
  8  9  1  0
  9 10  2  0
  9 11  1  0
 11 12  1  0
 12 13  2  0
 13 14  1  0
 14 15  2  0
 15 16  1  0
 12 17  1  0
 16 17  2  0
  2 18  1  0
  5 18  1  0
M  END
