pyridine_urea_7431
     RDKit          3D

 18 18  0  0  0  0  0  0  0  0999 V2000
   13.0790    0.1850   22.9860 C   0  0  0  0  0  0  0  0  0  0  0  0
   13.3700   -1.0050   23.0630 O   0  0  0  0  0  0  0  0  0  0  0  0
   12.9010   -1.7760   22.0530 C   0  0  0  0  0  0  0  0  0  0  0  0
   11.5020   -1.8170   22.0670 C   0  0  0  0  0  0  0  0  0  0  0  0
   10.9040   -2.2020   23.1950 N   0  0  0  0  0  0  0  0  0  0  0  0
   11.5850   -2.4690   24.3450 C   0  0  0  0  0  0  0  0  0  0  0  0
    9.6570   -2.7350   23.0140 C   0  0  0  0  0  0  0  0  0  0  0  0
    8.6870   -1.8120   23.3950 C   0  0  0  0  0  0  0  0  0  0  0  0
    8.9840   -0.4340   22.9890 N   0  0  0  0  0  0  0  0  0  0  0  0
    8.4830    0.1660   21.8240 C   0  0  0  0  0  0  0  0  0  0  0  0
    9.0070    1.3760   21.2420 O   0  0  0  0  0  0  0  0  0  0  0  0
    7.4000   -0.4420   21.1990 N   0  0  0  0  0  0  0  0  0  0  0  0
    6.6750    0.1070   20.1250 C   0  0  0  0  0  0  0  0  0  0  0  0
    5.5440    0.8900   20.3730 C   0  0  0  0  0  0  0  0  0  0  0  0
    4.8130    1.4590   19.3530 C   0  0  0  0  0  0  0  0  0  0  0  0
    5.1810    1.2720   18.0410 C   0  0  0  0  0  0  0  0  0  0  0  0
    6.2630    0.5160   17.7520 N   0  0  0  0  0  0  0  0  0  0  0  0
    6.9790   -0.0460   18.7750 C   0  0  0  0  0  0  0  0  0  0  0  0
  1  2  1  0
  2  3  1  0
  3  4  1  0
  4  5  1  0
  5  6  1  0
  5  7  1  0
  7  8  1  0
  8  9  1  0
  9 10  1  0
 10 11  2  0
 10 12  1  0
 12 13  1  0
 13 14  2  0
 14 15  1  0
 15 16  2  0
 16 17  1  0
 13 18  1  0
 17 18  2  0
M  END
