pyridine_urea_10245
     RDKit          3D

 23 25  0  0  0  0  0  0  0  0999 V2000
   12.6280   -2.1270   21.8000 C   0  0  0  0  0  0  0  0  0  0  0  0
   12.4140   -0.8230   22.5300 C   0  0  0  0  0  0  0  0  0  0  0  0
   13.2250    0.1630   22.6210 C   0  0  0  0  0  0  0  0  0  0  0  0
   12.6470    1.0990   23.3340 C   0  0  0  0  0  0  0  0  0  0  0  0
   11.3590    0.8690   23.8290 C   0  0  0  0  0  0  0  0  0  0  0  0
   10.1360    0.3290   24.1440 C   0  0  2  0  0  0  0  0  0  0  0  0
    9.8690   -0.9190   23.2550 C   0  0  0  0  0  0  0  0  0  0  0  0
    8.5860   -0.9730   22.7020 N   0  0  0  0  0  0  0  0  0  0  0  0
    8.1060   -0.3010   21.5930 C   0  0  0  0  0  0  0  0  0  0  0  0
    8.5390    0.7270   21.0760 O   0  0  0  0  0  0  0  0  0  0  0  0
    6.9280   -0.9580   21.0430 N   0  0  0  0  0  0  0  0  0  0  0  0
    6.3270   -0.1370   19.9740 C   0  0  0  0  0  0  0  0  0  0  0  0
    5.1550    0.5650   20.2230 C   0  0  0  0  0  0  0  0  0  0  0  0
    4.5530    1.3500   19.2550 C   0  0  0  0  0  0  0  0  0  0  0  0
    5.2420    1.3880   17.9510 C   0  0  0  0  0  0  0  0  0  0  0  0
    6.3820    0.7030   17.7070 N   0  0  0  0  0  0  0  0  0  0  0  0
    6.9000   -0.0450   18.7180 C   0  0  0  0  0  0  0  0  0  0  0  0
    9.0210    1.1140   23.9340 N   0  0  0  0  0  0  0  0  0  0  0  0
    9.2820    2.3500   23.3400 C   0  0  0  0  0  0  0  0  0  0  0  0
    8.6070    3.3250   24.0680 C   0  0  0  0  0  0  0  0  0  0  0  0
    7.9070    2.6610   25.0930 C   0  0  0  0  0  0  0  0  0  0  0  0
    8.2680    1.2960   25.0970 C   0  0  0  0  0  0  0  0  0  0  0  0
   11.4170   -0.4890   23.1590 O   0  0  0  0  0  0  0  0  0  0  0  0
  1  2  1  0
  2  3  2  0
  3  4  1  0
  4  5  2  0
  5  6  1  0
  6  7  1  6
  7  8  1  0
  8  9  1  0
  9 10  2  0
  9 11  1  0
 11 12  1  0
 12 13  2  0
 13 14  1  0
 14 15  2  0
 15 16  1  0
 12 17  1  0
 16 17  2  0
  6 18  1  0
 18 19  1  0
 19 20  1  0
 20 21  1  0
 18 22  1  0
 21 22  1  0
  2 23  1  0
  5 23  1  0
M  END
