pyridine_urea_5949
     RDKit          3D

 26 28  0  0  0  0  0  0  0  0999 V2000
   13.5360    0.6710   22.8190 C   0  0  0  0  0  0  0  0  0  0  0  0
   13.0170    1.9530   23.1140 O   0  0  0  0  0  0  0  0  0  0  0  0
   11.7340    1.7920   23.1580 C   0  0  0  0  0  0  0  0  0  0  0  0
   11.7900    0.5350   22.8720 C   0  0  0  0  0  0  0  0  0  0  0  0
   10.3840    0.0520   22.8350 C   0  0  0  0  0  0  0  0  0  0  0  0
   10.5250   -1.1570   22.5510 C   0  0  0  0  0  0  0  0  0  0  0  0
    9.9360   -2.5030   22.2690 C   0  0  0  0  0  0  0  0  0  0  0  0
   11.8450   -0.6660   22.5950 C   0  0  0  0  0  0  0  0  0  0  0  0
   10.8980    0.7470   22.9810 C   0  0  0  0  0  0  0  0  0  0  0  0
    9.4750    0.8220   23.0960 C   0  0  0  0  0  0  0  0  0  0  0  0
    8.8930   -0.3410   23.6120 C   0  0  0  0  0  0  0  0  0  0  0  0
    8.0420   -1.0030   22.8270 N   0  0  0  0  0  0  0  0  0  0  0  0
    7.9910   -0.8500   21.4860 C   0  0  0  0  0  0  0  0  0  0  0  0
    8.9830   -0.6410   20.8620 O   0  0  0  0  0  0  0  0  0  0  0  0
    6.7200   -0.9550   21.0000 N   0  0  0  0  0  0  0  0  0  0  0  0
    6.1550   -0.1390   20.0170 C   0  0  0  0  0  0  0  0  0  0  0  0
    5.0060    0.6170   20.1760 C   0  0  0  0  0  0  0  0  0  0  0  0
    4.5620    1.3840   19.1120 C   0  0  0  0  0  0  0  0  0  0  0  0
    5.2500    1.3950   17.9110 C   0  0  0  0  0  0  0  0  0  0  0  0
    6.3680    0.6670   17.7300 N   0  0  0  0  0  0  0  0  0  0  0  0
    6.7870   -0.0750   18.7800 C   0  0  0  0  0  0  0  0  0  0  0  0
    8.8920    1.8390   24.1390 C   0  0  0  0  0  0  0  0  0  0  0  0
    9.4950    3.0880   24.0700 C   0  0  0  0  0  0  0  0  0  0  0  0
    8.9000    3.6570   23.0100 O   0  0  0  0  0  0  0  0  0  0  0  0
    9.0500    2.8770   21.8250 C   0  0  0  0  0  0  0  0  0  0  0  0
    8.9130    1.4660   21.9880 C   0  0  0  0  0  0  0  0  0  0  0  0
  1  2  1  0
  2  3  1  0
  3  4  2  0
  4  5  1  0
  5  6  2  0
  6  7  1  0
  6  8  1  0
  3  9  1  0
  8  9  2  0
  9 10  1  0
 10 11  1  0
 11 12  1  0
 12 13  1  0
 13 14  2  0
 13 15  1  0
 15 16  1  0
 16 17  2  0
 17 18  1  0
 18 19  2  0
 19 20  1  0
 16 21  1  0
 20 21  2  0
 10 22  1  0
 22 23  1  0
 23 24  1  0
 24 25  1  0
 10 26  1  0
 25 26  1  0
M  END
