pyridine_urea_3227
     RDKit          3D

 20 21  0  0  0  0  0  0  0  0999 V2000
    8.6020    1.4120   20.9370 O   0  0  0  0  0  0  0  0  0  0  0  0
    8.2750    0.3380   21.4410 C   0  0  0  0  0  0  0  0  0  0  0  0
    8.9220   -0.1650   22.5010 N   0  0  0  0  0  0  0  0  0  0  0  0
    9.8880    0.6610   23.0790 C   0  0  0  0  0  0  0  0  0  0  0  0
   11.0560    0.0890   23.5120 C   0  0  0  0  0  0  0  0  0  0  0  0
   11.4680   -0.8320   22.7250 C   0  0  0  0  0  0  0  0  0  0  0  0
   12.5830    0.1290   22.9050 C   0  0  0  0  0  0  0  0  0  0  0  0
   12.4360   -0.9710   22.1830 C   0  0  0  0  0  0  0  0  0  0  0  0
   13.4320   -1.7580   21.1080 Cl  0  0  0  0  0  0  0  0  0  0  0  0
   11.1780   -1.4160   22.4630 C   0  0  0  0  0  0  0  0  0  0  0  0
   11.0520   -2.5500   21.7280 C   0  0  0  0  0  0  0  0  0  0  0  0
   12.2610   -1.7430   21.7860 C   0  0  0  0  0  0  0  0  0  0  0  0
   12.6950   -3.0310   20.7460 Cl  0  0  0  0  0  0  0  0  0  0  0  0
    7.2250   -0.4250   21.0200 N   0  0  0  0  0  0  0  0  0  0  0  0
    6.4840    0.1220   19.9900 C   0  0  0  0  0  0  0  0  0  0  0  0
    5.3130    0.8190   20.2920 C   0  0  0  0  0  0  0  0  0  0  0  0
    4.5940    1.4010   19.2490 C   0  0  0  0  0  0  0  0  0  0  0  0
    5.0770    1.2610   17.9550 C   0  0  0  0  0  0  0  0  0  0  0  0
    6.1860    0.5850   17.6560 N   0  0  0  0  0  0  0  0  0  0  0  0
    6.8620    0.0320   18.6740 C   0  0  0  0  0  0  0  0  0  0  0  0
  1  2  2  0
  2  3  1  0
  3  4  1  0
  4  5  1  0
  5  6  1  0
  6  7  2  0
  7  8  1  0
  8  9  1  0
  8 10  2  0
 10 11  1  0
  6 12  1  0
 11 12  2  0
 12 13  1  0
  2 14  1  0
 14 15  1  0
 15 16  2  0
 16 17  1  0
 17 18  2  0
 18 19  1  0
 15 20  1  0
 19 20  2  0
M  END
