pyridine_urea_3164
     RDKit          3D

 20 22  0  0  0  0  0  0  0  0999 V2000
    8.6680    0.5170   21.1460 O   0  0  0  0  0  0  0  0  0  0  0  0
    8.1190   -0.5350   21.4250 C   0  0  0  0  0  0  0  0  0  0  0  0
    8.6070   -1.5570   22.2030 N   0  0  0  0  0  0  0  0  0  0  0  0
    9.9660   -1.8250   22.3900 C   0  0  0  0  0  0  0  0  0  0  0  0
   10.7460   -0.7060   22.3490 C   0  0  2  0  0  0  0  0  0  0  0  0
   12.1110   -1.0430   22.4590 C   0  0  0  0  0  0  0  0  0  0  0  0
   12.8010   -0.0280   23.0700 C   0  0  0  0  0  0  0  0  0  0  0  0
   12.2840    0.2160   24.4680 C   0  0  0  0  0  0  0  0  0  0  0  0
   10.9530   -0.1020   24.5760 C   0  0  0  0  0  0  0  0  0  0  0  0
   10.4840    0.2310   23.2960 N   0  0  0  0  0  0  0  0  0  0  0  0
    9.5740    1.2390   23.0290 C   0  0  0  0  0  0  0  0  0  0  0  0
    8.4020    1.0720   23.4080 C   0  0  0  0  0  0  0  0  0  0  0  0
    9.1310    2.1080   24.1800 C   0  0  0  0  0  0  0  0  0  0  0  0
    6.8660   -0.8090   20.9470 N   0  0  0  0  0  0  0  0  0  0  0  0
    6.2520   -0.0770   20.0000 C   0  0  0  0  0  0  0  0  0  0  0  0
    5.0620    0.6350   20.1860 C   0  0  0  0  0  0  0  0  0  0  0  0
    4.5280    1.3700   19.1220 C   0  0  0  0  0  0  0  0  0  0  0  0
    5.2340    1.3370   17.9360 C   0  0  0  0  0  0  0  0  0  0  0  0
    6.3730    0.6660   17.7150 N   0  0  0  0  0  0  0  0  0  0  0  0
    6.8620   -0.0320   18.7550 C   0  0  0  0  0  0  0  0  0  0  0  0
  1  2  2  0
  2  3  1  0
  3  4  1  0
  5  4  1  1
  5  6  1  0
  6  7  1  0
  7  8  1  0
  8  9  1  0
  5 10  1  0
  9 10  1  0
 10 11  1  0
 11 12  1  0
 11 13  1  0
 12 13  1  0
  2 14  1  0
 14 15  1  0
 15 16  2  0
 16 17  1  0
 17 18  2  0
 18 19  1  0
 15 20  1  0
 19 20  2  0
M  END
