pyridine_urea_14803
     RDKit          3D

 20 21  0  0  0  0  0  0  0  0999 V2000
    6.6110    1.0180   23.9030 C   0  0  0  0  0  0  0  0  0  0  0  0
    7.8090    1.9050   23.5990 C   0  0  0  0  0  0  0  0  0  0  0  0
    8.9170    1.1890   23.0430 O   0  0  0  0  0  0  0  0  0  0  0  0
   10.1250    1.8160   22.9490 C   0  0  0  0  0  0  0  0  0  0  0  0
   11.5520    1.6210   22.8900 N   0  0  0  0  0  0  0  0  0  0  0  0
   11.9290    0.0900   22.9490 C   0  0  0  0  0  0  0  0  0  0  0  0
   13.2460    0.0410   22.9130 C   0  0  0  0  0  0  0  0  0  0  0  0
   12.3430    1.0260   22.9050 C   0  0  0  0  0  0  0  0  0  0  0  0
   10.7860    0.5250   22.9690 C   0  0  0  0  0  0  0  0  0  0  0  0
   10.2390   -0.7760   23.0270 C   0  0  0  0  0  0  0  0  0  0  0  0
    8.7970   -0.7700   22.7930 N   0  0  0  0  0  0  0  0  0  0  0  0
    8.3910   -0.0210   21.5740 C   0  0  0  0  0  0  0  0  0  0  0  0
    8.9780    1.2170   21.0960 O   0  0  0  0  0  0  0  0  0  0  0  0
    7.3290   -0.6330   20.9640 N   0  0  0  0  0  0  0  0  0  0  0  0
    6.5310    0.0350   20.0410 C   0  0  0  0  0  0  0  0  0  0  0  0
    5.3730    0.7510   20.3230 C   0  0  0  0  0  0  0  0  0  0  0  0
    4.6180    1.4430   19.2490 C   0  0  0  0  0  0  0  0  0  0  0  0
    5.1560    1.3130   17.9740 C   0  0  0  0  0  0  0  0  0  0  0  0
    6.2610    0.6240   17.6650 N   0  0  0  0  0  0  0  0  0  0  0  0
    6.9330   -0.0090   18.7220 C   0  0  0  0  0  0  0  0  0  0  0  0
  1  2  1  0
  2  3  1  0
  3  4  1  0
  4  5  2  0
  5  6  1  0
  6  7  2  0
  7  8  1  0
  4  9  1  0
  8  9  2  0
  9 10  1  0
 10 11  1  0
 11 12  1  0
 12 13  2  0
 12 14  1  0
 14 15  1  0
 15 16  2  0
 16 17  1  0
 17 18  2  0
 18 19  1  0
 15 20  1  0
 19 20  2  0
M  END
