pyridine_urea_13022
     RDKit          3D

 18 18  0  0  0  0  0  0  0  0999 V2000
   12.4810   -1.3450   23.5450 C   0  0  0  0  0  0  0  0  0  0  0  0
   11.5900   -1.1950   22.3260 C   0  0  1  0  0  0  0  0  0  0  0  0
   12.4090   -1.8280   21.3270 O   0  0  0  0  0  0  0  0  0  0  0  0
   10.2410   -1.5610   22.4360 C   0  0  2  0  0  0  0  0  0  0  0  0
    9.2550   -0.4750   22.5770 N   0  0  0  0  0  0  0  0  0  0  0  0
    8.6230    0.1880   21.5310 C   0  0  0  0  0  0  0  0  0  0  0  0
    9.0160    1.2980   21.1560 O   0  0  0  0  0  0  0  0  0  0  0  0
    7.4630   -0.5570   21.0030 N   0  0  0  0  0  0  0  0  0  0  0  0
    6.6740    0.0510   20.0510 C   0  0  0  0  0  0  0  0  0  0  0  0
    5.4230    0.8160   20.4860 C   0  0  0  0  0  0  0  0  0  0  0  0
    4.6770    1.4210   19.4770 C   0  0  0  0  0  0  0  0  0  0  0  0
    5.1750    1.2680   18.0360 C   0  0  0  0  0  0  0  0  0  0  0  0
    6.2790    0.5740   17.7150 N   0  0  0  0  0  0  0  0  0  0  0  0
    6.9870   -0.0080   18.7100 C   0  0  0  0  0  0  0  0  0  0  0  0
    9.9690   -2.3570   23.5140 C   0  0  0  0  0  0  0  0  0  0  0  0
    9.5460   -1.5990   24.5290 F   0  0  0  0  0  0  0  0  0  0  0  0
    8.9760   -3.2440   23.2720 F   0  0  0  0  0  0  0  0  0  0  0  0
   11.0500   -3.0310   23.9470 F   0  0  0  0  0  0  0  0  0  0  0  0
  2  1  1  1
  2  3  1  0
  2  4  1  0
  4  5  1  1
  5  6  1  0
  6  7  2  0
  6  8  1  0
  8  9  1  0
  9 10  2  0
 10 11  1  0
 11 12  2  0
 12 13  1  0
  9 14  1  0
 13 14  2  0
  4 15  1  0
 15 16  1  0
 15 17  1  0
 15 18  1  0
M  END
