pyridine_urea_2723
     RDKit          3D

 23 25  0  0  0  0  0  0  0  0999 V2000
    8.7840    1.3970   21.0750 O   0  0  0  0  0  0  0  0  0  0  0  0
    8.2790    0.3670   21.5260 C   0  0  0  0  0  0  0  0  0  0  0  0
    8.7580   -0.2250   22.6390 N   0  0  0  0  0  0  0  0  0  0  0  0
   10.1380    0.0620   22.8960 C   0  0  0  0  0  0  0  0  0  0  0  0
   10.9480   -1.2440   22.9220 C   0  0  0  0  0  0  0  0  0  0  0  0
   10.6020   -2.0900   23.9600 C   0  0  0  0  0  0  0  0  0  0  0  0
    9.5620   -2.9890   23.9140 O   0  0  0  0  0  0  0  0  0  0  0  0
   11.4590   -1.9190   25.1020 N   0  0  0  0  0  0  0  0  0  0  0  0
   12.4670   -2.8200   25.0290 C   0  0  0  0  0  0  0  0  0  0  0  0
   12.7230   -2.8600   23.6790 C   0  0  0  0  0  0  0  0  0  0  0  0
   12.9030   -1.4890   23.1520 C   0  0  0  0  0  0  0  0  0  0  0  0
   13.5660   -1.1380   21.6730 S   0  0  0  0  0  0  0  0  0  0  0  0
   13.4630    0.5440   21.9940 C   0  0  0  0  0  0  0  0  0  0  0  0
   12.8180    0.8650   23.2760 C   0  0  0  0  0  0  0  0  0  0  0  0
   12.5160   -0.4330   23.8950 C   0  0  0  0  0  0  0  0  0  0  0  0
   11.8600   -0.5680   25.1940 C   0  0  0  0  0  0  0  0  0  0  0  0
    7.2040   -0.3130   21.0320 N   0  0  0  0  0  0  0  0  0  0  0  0
    6.5220    0.2010   20.0110 C   0  0  0  0  0  0  0  0  0  0  0  0
    5.3720    0.9450   20.2840 C   0  0  0  0  0  0  0  0  0  0  0  0
    4.6630    1.5180   19.2260 C   0  0  0  0  0  0  0  0  0  0  0  0
    5.1260    1.3260   17.9380 C   0  0  0  0  0  0  0  0  0  0  0  0
    6.1950    0.6270   17.5810 N   0  0  0  0  0  0  0  0  0  0  0  0
    6.9100    0.0440   18.7070 C   0  0  0  0  0  0  0  0  0  0  0  0
  1  2  2  0
  2  3  1  0
  3  4  1  0
  4  5  1  0
  5  6  1  0
  6  7  2  0
  6  8  1  0
  8  9  1  0
  9 10  1  0
 10 11  1  0
 11 12  1  0
 12 13  1  0
 13 14  2  0
 11 15  2  0
 14 15  1  0
  8 16  1  0
 15 16  1  0
  2 17  1  0
 17 18  1  0
 18 19  2  0
 19 20  1  0
 20 21  2  0
 21 22  1  0
 18 23  1  0
 22 23  2  0
M  END
