pyridine_urea_3644
     RDKit          3D

 15 16  0  0  0  0  0  0  0  0999 V2000
    8.8890   -3.2060   23.6000 C   0  0  0  0  0  0  0  0  0  0  0  0
   10.2670   -2.5290   23.5960 C   0  0  0  0  0  0  0  0  0  0  0  0
   10.0340   -1.0970   23.2130 C   0  0  0  0  0  0  0  0  0  0  0  0
    8.7540   -0.7430   22.9240 N   0  0  0  0  0  0  0  0  0  0  0  0
    8.4250   -0.1150   21.7730 C   0  0  0  0  0  0  0  0  0  0  0  0
    9.0210    0.8630   21.3450 O   0  0  0  0  0  0  0  0  0  0  0  0
    7.2580   -0.7460   21.1700 N   0  0  0  0  0  0  0  0  0  0  0  0
    6.5800   -0.0830   20.1760 C   0  0  0  0  0  0  0  0  0  0  0  0
    5.2890    0.7070   20.4390 C   0  0  0  0  0  0  0  0  0  0  0  0
    4.6050    1.4250   19.2610 C   0  0  0  0  0  0  0  0  0  0  0  0
    5.1990    1.3180   18.0090 C   0  0  0  0  0  0  0  0  0  0  0  0
    6.3150    0.6400   17.7330 N   0  0  0  0  0  0  0  0  0  0  0  0
    6.9660   -0.0130   18.7080 C   0  0  0  0  0  0  0  0  0  0  0  0
   10.8690   -0.8030   22.1240 C   0  0  0  0  0  0  0  0  0  0  0  0
   11.1720   -0.0620   23.1800 C   0  0  0  0  0  0  0  0  0  0  0  0
  1  2  1  0
  2  3  1  0
  3  4  1  0
  4  5  1  0
  5  6  2  0
  5  7  1  0
  7  8  1  0
  8  9  2  0
  9 10  1  0
 10 11  2  0
 11 12  1  0
  8 13  1  0
 12 13  2  0
  3 14  1  0
  3 15  1  0
 14 15  1  0
M  END
