pyridine_urea_10227
     RDKit          3D

 23 24  0  0  0  0  0  0  0  0999 V2000
   13.4700    4.9570   21.4300 C   0  0  0  0  0  0  0  0  0  0  0  0
   12.7310    5.8780   22.3510 C   0  0  0  0  0  0  0  0  0  0  0  0
   12.4110    5.1620   23.4510 C   0  0  0  0  0  0  0  0  0  0  0  0
   12.9010    3.8130   23.1540 N   0  0  0  0  0  0  0  0  0  0  0  0
   11.8420    2.8680   23.3900 C   0  0  0  0  0  0  0  0  0  0  0  0
   10.7510    3.3020   23.7990 O   0  0  0  0  0  0  0  0  0  0  0  0
   11.8810    1.5120   23.1960 C   0  0  0  0  0  0  0  0  0  0  0  0
   12.8980    0.7180   22.8050 C   0  0  0  0  0  0  0  0  0  0  0  0
   12.4820   -0.7050   22.6800 C   0  0  0  0  0  0  0  0  0  0  0  0
   11.2060   -1.1780   22.9350 C   0  0  0  0  0  0  0  0  0  0  0  0
   10.0220   -0.4570   23.3720 C   0  0  0  0  0  0  0  0  0  0  0  0
    9.7980   -1.7790   23.1960 C   0  0  0  0  0  0  0  0  0  0  0  0
    8.8610   -1.8250   22.1750 N   0  0  0  0  0  0  0  0  0  0  0  0
    8.3020   -0.6700   21.5520 C   0  0  0  0  0  0  0  0  0  0  0  0
    8.9500    0.3450   21.3240 O   0  0  0  0  0  0  0  0  0  0  0  0
    6.9890   -0.8340   21.2640 N   0  0  0  0  0  0  0  0  0  0  0  0
    6.4500   -0.1280   20.0860 C   0  0  0  0  0  0  0  0  0  0  0  0
    5.2750    0.6340   20.3110 C   0  0  0  0  0  0  0  0  0  0  0  0
    4.6840    1.3510   19.2590 C   0  0  0  0  0  0  0  0  0  0  0  0
    5.2390    1.3250   17.9980 C   0  0  0  0  0  0  0  0  0  0  0  0
    6.3740    0.5930   17.7640 N   0  0  0  0  0  0  0  0  0  0  0  0
    6.9740   -0.1330   18.8010 C   0  0  0  0  0  0  0  0  0  0  0  0
   10.6590    0.9590   23.4430 C   0  0  0  0  0  0  0  0  0  0  0  0
  1  2  1  0
  2  3  1  0
  3  4  1  0
  4  5  1  0
  5  6  2  0
  5  7  1  0
  7  8  2  0
  8  9  1  0
  9 10  2  0
 10 11  1  0
 11 12  1  0
 12 13  1  0
 13 14  1  0
 14 15  2  0
 14 16  1  0
 16 17  1  0
 17 18  2  0
 18 19  1  0
 19 20  2  0
 20 21  1  0
 17 22  1  0
 21 22  2  0
  7 23  1  0
 11 23  2  0
M  END
