pyridine_urea_12318
     RDKit          3D

 22 23  0  0  0  0  0  0  0  0999 V2000
   12.8520    0.9100   23.1330 C   0  0  0  0  0  0  0  0  0  0  0  0
   12.5390   -0.5710   23.1440 C   0  0  0  0  0  0  0  0  0  0  0  0
   11.1220   -0.7020   22.4990 C   0  0  1  0  0  0  0  0  0  0  0  0
   10.0760   -1.2730   23.1900 C   0  0  0  0  0  0  0  0  0  0  0  0
    8.7920   -1.1850   22.6100 N   0  0  0  0  0  0  0  0  0  0  0  0
    8.2490   -0.4280   21.5910 C   0  0  0  0  0  0  0  0  0  0  0  0
    8.7590    0.6430   21.2970 O   0  0  0  0  0  0  0  0  0  0  0  0
    7.1510   -0.9590   21.0000 N   0  0  0  0  0  0  0  0  0  0  0  0
    6.4950   -0.2010   20.0880 C   0  0  0  0  0  0  0  0  0  0  0  0
    5.2200    0.6200   20.3520 C   0  0  0  0  0  0  0  0  0  0  0  0
    4.5210    1.4580   19.2830 C   0  0  0  0  0  0  0  0  0  0  0  0
    5.2370    1.3790   17.9460 C   0  0  0  0  0  0  0  0  0  0  0  0
    6.3700    0.6210   17.7880 N   0  0  0  0  0  0  0  0  0  0  0  0
    6.9800   -0.1390   18.7950 C   0  0  0  0  0  0  0  0  0  0  0  0
   10.6910    0.6020   22.0860 O   0  0  0  0  0  0  0  0  0  0  0  0
   10.0270    1.5620   22.9390 C   0  0  0  0  0  0  0  0  0  0  0  0
    9.0000    1.1100   23.9740 C   0  0  0  0  0  0  0  0  0  0  0  0
    8.3640    2.0660   24.7680 C   0  0  0  0  0  0  0  0  0  0  0  0
    8.6740    3.4310   24.6120 C   0  0  0  0  0  0  0  0  0  0  0  0
    9.6190    3.8370   23.6680 C   0  0  0  0  0  0  0  0  0  0  0  0
    9.8660    5.1650   23.5820 F   0  0  0  0  0  0  0  0  0  0  0  0
   10.2730    2.9380   22.8590 C   0  0  0  0  0  0  0  0  0  0  0  0
  1  2  1  0
  3  2  1  1
  3  4  1  0
  4  5  1  0
  5  6  1  0
  6  7  2  0
  6  8  1  0
  8  9  1  0
  9 10  2  0
 10 11  1  0
 11 12  2  0
 12 13  1  0
  9 14  1  0
 13 14  2  0
  3 15  1  0
 15 16  1  0
 16 17  2  0
 17 18  1  0
 18 19  2  0
 19 20  1  0
 20 21  1  0
 16 22  1  0
 20 22  2  0
M  END
