pyridine_urea_1084
     RDKit          3D

 21 22  0  0  0  0  0  0  0  0999 V2000
   10.0560   -2.4850   22.5700 C   0  0  0  0  0  0  0  0  0  0  0  0
   10.7670   -1.2290   22.9680 C   0  0  0  0  0  0  0  0  0  0  0  0
   10.0270   -0.1440   23.4250 N   0  0  0  0  0  0  0  0  0  0  0  0
   10.4070    1.1210   23.8500 C   0  0  0  0  0  0  0  0  0  0  0  0
    9.0420    0.8870   23.8840 C   0  0  0  0  0  0  0  0  0  0  0  0
    8.6870   -0.1270   22.8880 N   0  0  0  0  0  0  0  0  0  0  0  0
    8.3810    0.3120   21.6160 C   0  0  0  0  0  0  0  0  0  0  0  0
    8.9870    1.2940   21.1760 O   0  0  0  0  0  0  0  0  0  0  0  0
    7.3850   -0.4170   21.0100 N   0  0  0  0  0  0  0  0  0  0  0  0
    6.5480    0.1670   20.0600 C   0  0  0  0  0  0  0  0  0  0  0  0
    5.2470    0.8880   20.3680 C   0  0  0  0  0  0  0  0  0  0  0  0
    4.5610    1.4560   19.1380 C   0  0  0  0  0  0  0  0  0  0  0  0
    5.1320    1.2850   17.9020 C   0  0  0  0  0  0  0  0  0  0  0  0
    6.2800    0.6250   17.6920 N   0  0  0  0  0  0  0  0  0  0  0  0
    6.9380    0.0970   18.7400 C   0  0  0  0  0  0  0  0  0  0  0  0
   11.8020    1.0170   23.6920 C   0  0  0  0  0  0  0  0  0  0  0  0
   12.6950    0.0180   23.2570 C   0  0  0  0  0  0  0  0  0  0  0  0
   12.1990   -1.1700   22.8720 C   0  0  0  0  0  0  0  0  0  0  0  0
   12.8880   -2.2380   22.4380 C   0  0  1  0  0  0  0  0  0  0  0  0
   13.1940   -2.1140   21.0930 C   0  0  0  0  0  0  0  0  0  0  0  0
   14.0530   -2.1690   23.2010 O   0  0  0  0  0  0  0  0  0  0  0  0
  1  2  1  0
  2  3  2  0
  3  4  1  0
  4  5  1  0
  5  6  1  0
  6  7  1  0
  7  8  2  0
  7  9  1  0
  9 10  1  0
 10 11  2  0
 11 12  1  0
 12 13  2  0
 13 14  1  0
 10 15  1  0
 14 15  2  0
  4 16  2  0
 16 17  1  0
  2 18  1  0
 17 18  2  0
 18 19  1  0
 19 20  1  6
 19 21  1  0
M  END
