pyridine_urea_2048
     RDKit          3D

 19 20  0  0  0  0  0  0  0  0999 V2000
    8.7740    0.8560   21.2790 O   0  0  0  0  0  0  0  0  0  0  0  0
    8.2080   -0.1750   21.6220 C   0  0  0  0  0  0  0  0  0  0  0  0
    8.6010   -0.9820   22.6620 N   0  0  0  0  0  0  0  0  0  0  0  0
    9.5470   -0.6080   23.6270 C   0  0  0  0  0  0  0  0  0  0  0  0
   10.6120    0.3940   23.2100 C   0  0  1  0  0  0  0  0  0  0  0  0
   11.7660    0.4980   24.1770 C   0  0  0  0  0  0  0  0  0  0  0  0
   12.9980   -0.1600   23.6660 C   0  0  0  0  0  0  0  0  0  0  0  0
   12.7820   -1.0790   22.6810 C   0  0  0  0  0  0  0  0  0  0  0  0
   13.6070   -0.8650   21.6460 F   0  0  0  0  0  0  0  0  0  0  0  0
   13.1400   -2.2930   23.1770 F   0  0  0  0  0  0  0  0  0  0  0  0
   11.4890   -1.1670   22.2110 C   0  0  0  0  0  0  0  0  0  0  0  0
   11.0540   -0.0150   22.1480 O   0  0  0  0  0  0  0  0  0  0  0  0
    7.0760   -0.6660   21.0230 N   0  0  0  0  0  0  0  0  0  0  0  0
    6.4310   -0.0070   19.9740 C   0  0  0  0  0  0  0  0  0  0  0  0
    5.2310    0.6610   20.2140 C   0  0  0  0  0  0  0  0  0  0  0  0
    4.5990    1.3240   19.1700 C   0  0  0  0  0  0  0  0  0  0  0  0
    5.1880    1.3200   17.9050 C   0  0  0  0  0  0  0  0  0  0  0  0
    6.3350    0.6740   17.6660 N   0  0  0  0  0  0  0  0  0  0  0  0
    6.9260    0.0300   18.6910 C   0  0  0  0  0  0  0  0  0  0  0  0
  1  2  2  0
  2  3  1  0
  3  4  1  0
  5  4  1  1
  5  6  1  0
  6  7  1  0
  7  8  1  0
  8  9  1  0
  8 10  1  0
  8 11  1  0
  5 12  1  0
 11 12  1  0
  2 13  1  0
 13 14  1  0
 14 15  2  0
 15 16  1  0
 16 17  2  0
 17 18  1  0
 14 19  1  0
 18 19  2  0
M  END
