pyridine_urea_6504
     RDKit          3D

 23 24  0  0  0  0  0  0  0  0999 V2000
   13.7540   -2.2810   24.8630 C   0  0  0  0  0  0  0  0  0  0  0  0
   13.8170   -0.9920   24.2270 O   0  0  0  0  0  0  0  0  0  0  0  0
   12.6410   -0.7310   23.7740 C   0  0  0  0  0  0  0  0  0  0  0  0
   11.8330    0.4920   24.1230 C   0  0  0  0  0  0  0  0  0  0  0  0
   10.4560    0.6260   23.5800 C   0  0  0  0  0  0  0  0  0  0  0  0
    9.9680   -0.4550   22.7150 C   0  0  0  0  0  0  0  0  0  0  0  0
    8.7570   -0.7300   22.0350 N   0  0  0  0  0  0  0  0  0  0  0  0
    8.1540    0.2430   21.3410 C   0  0  0  0  0  0  0  0  0  0  0  0
    8.6930    1.3120   21.0360 O   0  0  0  0  0  0  0  0  0  0  0  0
    6.8220   -0.2050   21.0530 N   0  0  0  0  0  0  0  0  0  0  0  0
    6.2710    0.3270   19.9600 C   0  0  0  0  0  0  0  0  0  0  0  0
    5.1080    1.0680   20.1070 C   0  0  0  0  0  0  0  0  0  0  0  0
    4.5550    1.6380   18.9880 C   0  0  0  0  0  0  0  0  0  0  0  0
    5.1440    1.4720   17.7600 C   0  0  0  0  0  0  0  0  0  0  0  0
    6.2610    0.7470   17.5990 N   0  0  0  0  0  0  0  0  0  0  0  0
    6.7970    0.1910   18.6980 C   0  0  0  0  0  0  0  0  0  0  0  0
   10.7190   -1.5970   22.3390 C   0  0  0  0  0  0  0  0  0  0  0  0
   12.1120   -1.7680   22.8700 C   0  0  0  0  0  0  0  0  0  0  0  0
   12.9010   -2.7870   22.5860 N   0  0  0  0  0  0  0  0  0  0  0  0
   12.9070   -2.8110   20.9740 S   0  0  0  0  0  0  0  0  0  0  0  0
   13.9710   -4.1310   20.5170 C   0  0  0  0  0  0  0  0  0  0  0  0
   13.5300   -1.5620   20.5880 O   0  0  0  0  0  0  0  0  0  0  0  0
   11.6060   -3.2060   20.5450 O   0  0  0  0  0  0  0  0  0  0  0  0
  1  2  1  0
  2  3  1  0
  3  4  2  0
  4  5  1  0
  5  6  2  0
  6  7  1  0
  7  8  1  0
  8  9  2  0
  8 10  1  0
 10 11  1  0
 11 12  2  0
 12 13  1  0
 13 14  2  0
 14 15  1  0
 11 16  1  0
 15 16  2  0
  6 17  1  0
  3 18  1  0
 17 18  2  0
 18 19  1  0
 20 19  1  0
 20 21  1  0
 20 22  2  0
 20 23  2  0
M  END
