pyridine_urea_8711
     RDKit          3D

 21 22  0  0  0  0  0  0  0  0999 V2000
    8.9050    1.3660   21.1510 O   0  0  0  0  0  0  0  0  0  0  0  0
    8.6160    0.2200   21.5060 C   0  0  0  0  0  0  0  0  0  0  0  0
    9.3880   -0.5100   22.3790 N   0  0  0  0  0  0  0  0  0  0  0  0
   10.4610    0.0860   23.1020 C   0  0  0  0  0  0  0  0  0  0  0  0
   11.6810   -0.6210   23.3270 C   0  0  1  0  0  0  0  0  0  0  0  0
   11.4340   -1.7590   22.9550 O   0  0  0  0  0  0  0  0  0  0  0  0
   12.7280   -0.2440   22.5020 C   0  0  0  0  0  0  0  0  0  0  0  0
   12.3610    0.8750   23.1620 C   0  0  0  0  0  0  0  0  0  0  0  0
   12.8730    2.0980   23.0060 F   0  0  0  0  0  0  0  0  0  0  0  0
   11.2450    0.5500   24.1480 C   0  0  0  0  0  0  0  0  0  0  0  0
   10.8460   -0.8270   24.1590 C   0  0  0  0  0  0  0  0  0  0  0  0
   11.4720   -1.9680   23.2380 C   0  0  0  0  0  0  0  0  0  0  0  0
   12.4990   -1.5820   22.3480 C   0  0  0  0  0  0  0  0  0  0  0  0
   13.1260   -2.4520   21.5120 F   0  0  0  0  0  0  0  0  0  0  0  0
    7.4800   -0.4400   21.0760 N   0  0  0  0  0  0  0  0  0  0  0  0
    6.6720    0.1000   20.0650 C   0  0  0  0  0  0  0  0  0  0  0  0
    5.5080    0.8030   20.4000 C   0  0  0  0  0  0  0  0  0  0  0  0
    4.7250    1.3590   19.3800 C   0  0  0  0  0  0  0  0  0  0  0  0
    5.1280    1.1960   18.0640 C   0  0  0  0  0  0  0  0  0  0  0  0
    6.2280    0.5210   17.7250 N   0  0  0  0  0  0  0  0  0  0  0  0
    6.9670   -0.0080   18.7190 C   0  0  0  0  0  0  0  0  0  0  0  0
  1  2  2  0
  2  3  1  0
  3  4  1  0
  4  5  1  0
  5  6  1  6
  5  7  1  0
  7  8  2  0
  8  9  1  0
  8 10  1  0
 10 11  2  0
 11 12  1  0
  7 13  1  0
 12 13  2  0
 13 14  1  0
  2 15  1  0
 15 16  1  0
 16 17  2  0
 17 18  1  0
 18 19  2  0
 19 20  1  0
 16 21  1  0
 20 21  2  0
M  END
