pyridine_urea_11405
     RDKit          3D

 20 21  0  0  0  0  0  0  0  0999 V2000
   12.5270   -0.8360   22.5730 C   0  0  0  0  0  0  0  0  0  0  0  0
   12.1310    0.1050   23.1790 C   0  0  0  0  0  0  0  0  0  0  0  0
   12.0640    1.5490   23.6200 C   0  0  0  0  0  0  0  0  0  0  0  0
   10.6370    0.0890   22.8210 C   0  0  1  0  0  0  0  0  0  0  0  0
   10.3790   -1.1690   22.3370 C   0  0  0  0  0  0  0  0  0  0  0  0
    8.9440   -1.2230   22.1770 N   0  0  0  0  0  0  0  0  0  0  0  0
    8.3000   -0.2530   21.4440 C   0  0  0  0  0  0  0  0  0  0  0  0
    8.7590    0.8690   21.2720 O   0  0  0  0  0  0  0  0  0  0  0  0
    7.1010   -0.7000   20.9490 N   0  0  0  0  0  0  0  0  0  0  0  0
    6.3250    0.0240   20.0340 C   0  0  0  0  0  0  0  0  0  0  0  0
    5.1620    0.6380   20.3930 C   0  0  0  0  0  0  0  0  0  0  0  0
    4.6100    1.3370   19.1540 C   0  0  0  0  0  0  0  0  0  0  0  0
    5.2230    1.3150   17.9220 C   0  0  0  0  0  0  0  0  0  0  0  0
    6.3540    0.6740   17.7020 N   0  0  0  0  0  0  0  0  0  0  0  0
    6.8590    0.0560   18.7560 C   0  0  0  0  0  0  0  0  0  0  0  0
    9.9040    0.3640   24.1640 C   0  0  0  0  0  0  0  0  0  0  0  0
   10.4570   -0.5720   25.1910 C   0  0  0  0  0  0  0  0  0  0  0  0
   12.0690   -0.8600   24.7170 S   0  0  0  0  0  0  0  0  0  0  0  0
   12.1310   -2.2690   24.3780 O   0  0  0  0  0  0  0  0  0  0  0  0
   12.9800   -0.3240   25.6740 O   0  0  0  0  0  0  0  0  0  0  0  0
  2  1  1  0
  2  3  1  0
  2  4  1  0
  4  5  1  1
  5  6  1  0
  6  7  1  0
  7  8  2  0
  7  9  1  0
  9 10  1  0
 10 11  2  0
 11 12  1  0
 12 13  2  0
 13 14  1  0
 10 15  1  0
 14 15  2  0
  4 16  1  0
 16 17  1  0
  2 18  1  0
 18 17  1  0
 18 19  2  0
 18 20  2  0
M  END
