pyridine_urea_2202
     RDKit          3D

 27 30  0  0  0  0  0  0  0  0999 V2000
    8.8030    1.3130   21.1420 O   0  0  0  0  0  0  0  0  0  0  0  0
    8.5610    0.1110   21.2860 C   0  0  0  0  0  0  0  0  0  0  0  0
    7.3470   -0.4770   21.0270 N   0  0  0  0  0  0  0  0  0  0  0  0
    6.4970    0.1250   20.1040 C   0  0  0  0  0  0  0  0  0  0  0  0
    5.1740    0.8240   20.4480 C   0  0  0  0  0  0  0  0  0  0  0  0
    4.4660    1.4280   19.2400 C   0  0  0  0  0  0  0  0  0  0  0  0
    5.1260    1.2720   17.9080 C   0  0  0  0  0  0  0  0  0  0  0  0
    6.2830    0.6280   17.7230 N   0  0  0  0  0  0  0  0  0  0  0  0
    6.9100    0.0910   18.7820 C   0  0  0  0  0  0  0  0  0  0  0  0
    9.5280   -0.7840   21.6670 N   0  0  0  0  0  0  0  0  0  0  0  0
   10.4900   -0.4400   22.6940 C   0  0  2  0  0  0  0  0  0  0  0  0
   10.4840    0.9390   22.9840 C   0  0  0  0  0  0  0  0  0  0  0  0
   11.6450    1.5910   22.9830 C   0  0  0  0  0  0  0  0  0  0  0  0
   11.6060    2.8880   23.2390 C   0  0  0  0  0  0  0  0  0  0  0  0
   10.4000    3.5600   23.5110 C   0  0  0  0  0  0  0  0  0  0  0  0
    8.9840    3.1710   23.6050 C   0  0  0  0  0  0  0  0  0  0  0  0
    9.0460    4.8660   23.9300 Cl  0  0  0  0  0  0  0  0  0  0  0  0
    9.3040    1.6610   23.2690 C   0  0  0  0  0  0  0  0  0  0  0  0
   11.8310   -0.8190   22.5730 C   0  0  1  0  0  0  0  0  0  0  0  0
   12.7900   -0.2490   23.1290 C   0  0  0  0  0  0  0  0  0  0  0  0
   12.1830   -1.1400   24.0860 C   0  0  1  0  0  0  0  0  0  0  0  0
   10.8220   -1.3520   24.2920 C   0  0  0  0  0  0  0  0  0  0  0  0
    9.9600   -0.3800   25.1060 C   0  0  0  0  0  0  0  0  0  0  0  0
    8.4830   -0.7520   25.2010 C   0  0  0  0  0  0  0  0  0  0  0  0
    8.0120   -1.9080   24.5720 C   0  0  0  0  0  0  0  0  0  0  0  0
    8.8620   -2.7590   23.8450 C   0  0  0  0  0  0  0  0  0  0  0  0
   10.2330   -2.4900   23.7080 C   0  0  0  0  0  0  0  0  0  0  0  0
  1  2  2  0
  2  3  1  0
  3  4  1  0
  4  5  2  0
  5  6  1  0
  6  7  2  0
  7  8  1  0
  4  9  1  0
  8  9  2  0
  2 10  1  0
 11 10  1  6
 11 12  1  0
 12 13  2  0
 13 14  1  0
 14 15  2  0
 15 16  1  0
 16 17  1  0
 12 18  1  0
 16 18  2  0
 11 19  1  0
 19 20  1  1
 19 21  1  0
 20 21  1  0
 21 22  1  1
 22 23  2  0
 23 24  1  0
 24 25  2  0
 25 26  1  0
 22 27  1  0
 26 27  2  0
M  END
