pyridine_urea_601
     RDKit          3D

 24 25  0  0  0  0  0  0  0  0999 V2000
   15.1810    1.8570   18.5640 C   0  0  0  0  0  0  0  0  0  0  0  0
   14.6700    0.7220   18.6100 O   0  0  0  0  0  0  0  0  0  0  0  0
   14.3010    0.3780   19.8670 C   0  0  0  0  0  0  0  0  0  0  0  0
   14.3300    1.2740   20.6820 O   0  0  0  0  0  0  0  0  0  0  0  0
   13.9640   -0.9700   20.2580 C   0  0  0  0  0  0  0  0  0  0  0  0
   12.8260   -1.5020   20.5960 C   0  0  0  0  0  0  0  0  0  0  0  0
   12.7820   -3.1390   20.9260 S   0  0  0  0  0  0  0  0  0  0  0  0
   12.0050   -2.3840   22.2790 C   0  0  0  0  0  0  0  0  0  0  0  0
   12.8590   -2.4330   23.2930 C   0  0  0  0  0  0  0  0  0  0  0  0
   12.5860   -1.9400   24.6280 C   0  0  0  0  0  0  0  0  0  0  0  0
   13.8400   -2.1660   25.7430 Cl  0  0  0  0  0  0  0  0  0  0  0  0
   11.3390   -1.3870   24.7940 C   0  0  0  0  0  0  0  0  0  0  0  0
   10.4340   -1.2820   23.7530 C   0  0  0  0  0  0  0  0  0  0  0  0
   10.7160   -1.7600   22.4930 C   0  0  0  0  0  0  0  0  0  0  0  0
    9.6270   -1.5710   21.5280 N   0  0  0  0  0  0  0  0  0  0  0  0
    8.7330   -0.3940   21.5530 C   0  0  0  0  0  0  0  0  0  0  0  0
    9.1160    0.7080   21.8870 O   0  0  0  0  0  0  0  0  0  0  0  0
    7.4040   -0.6850   21.1470 N   0  0  0  0  0  0  0  0  0  0  0  0
    6.7100   -0.0780   20.0000 C   0  0  0  0  0  0  0  0  0  0  0  0
    5.6020    0.6860   20.4210 C   0  0  0  0  0  0  0  0  0  0  0  0
    4.8120    1.3660   19.4680 C   0  0  0  0  0  0  0  0  0  0  0  0
    5.1500    1.2660   18.1210 C   0  0  0  0  0  0  0  0  0  0  0  0
    6.2180    0.5170   17.7330 N   0  0  0  0  0  0  0  0  0  0  0  0
    7.0020   -0.1600   18.6630 C   0  0  0  0  0  0  0  0  0  0  0  0
  1  2  1  0
  2  3  1  0
  3  4  2  0
  3  5  1  0
  5  6  1  0
  6  7  1  0
  7  8  1  0
  8  9  2  0
  9 10  1  0
 10 11  1  0
 10 12  2  0
 12 13  1  0
  8 14  1  0
 13 14  2  0
 14 15  1  0
 15 16  1  0
 16 17  2  0
 16 18  1  0
 18 19  1  0
 19 20  2  0
 20 21  1  0
 21 22  2  0
 22 23  1  0
 19 24  1  0
 23 24  2  0
M  END
