pyridine_urea_1788
     RDKit          3D

 17 17  0  0  0  0  0  0  0  0999 V2000
   13.2200   -2.2840   24.6690 C   0  0  0  0  0  0  0  0  0  0  0  0
   13.5020   -1.8470   23.3350 O   0  0  0  0  0  0  0  0  0  0  0  0
   12.6830   -0.8360   22.8810 C   0  0  0  0  0  0  0  0  0  0  0  0
   13.0360    0.3310   22.7740 O   0  0  0  0  0  0  0  0  0  0  0  0
   11.3930   -1.2590   22.5650 C   0  0  1  0  0  0  0  0  0  0  0  0
   11.2210   -2.5050   23.0200 F   0  0  0  0  0  0  0  0  0  0  0  0
   10.3650   -0.3920   22.8910 C   0  0  0  0  0  0  0  0  0  0  0  0
    9.0630   -0.6340   22.4120 N   0  0  0  0  0  0  0  0  0  0  0  0
    8.3810    0.1240   21.4700 C   0  0  0  0  0  0  0  0  0  0  0  0
    8.7830    1.2380   21.1160 O   0  0  0  0  0  0  0  0  0  0  0  0
    7.2690   -0.5280   21.0600 N   0  0  0  0  0  0  0  0  0  0  0  0
    6.5800    0.0710   20.0620 C   0  0  0  0  0  0  0  0  0  0  0  0
    5.4250    0.7860   20.3860 C   0  0  0  0  0  0  0  0  0  0  0  0
    4.6610    1.4730   19.2440 C   0  0  0  0  0  0  0  0  0  0  0  0
    5.1830    1.3260   17.9810 C   0  0  0  0  0  0  0  0  0  0  0  0
    6.2940    0.6210   17.7140 N   0  0  0  0  0  0  0  0  0  0  0  0
    6.9550    0.0210   18.7320 C   0  0  0  0  0  0  0  0  0  0  0  0
  1  2  1  0
  2  3  1  0
  3  4  2  0
  3  5  1  0
  5  6  1  1
  5  7  1  0
  7  8  1  0
  8  9  1  0
  9 10  2  0
  9 11  1  0
 11 12  1  0
 12 13  2  0
 13 14  1  0
 14 15  2  0
 15 16  1  0
 12 17  1  0
 16 17  2  0
M  END
