pyridine_urea_4602
     RDKit          3D

 22 23  0  0  0  0  0  0  0  0999 V2000
    9.9030   -0.1680   24.6910 C   0  0  0  0  0  0  0  0  0  0  0  0
   10.0440   -0.0610   23.1600 C   0  0  0  0  0  0  0  0  0  0  0  0
   10.0270    1.4440   22.8060 C   0  0  0  0  0  0  0  0  0  0  0  0
    8.8050   -0.4820   22.5640 N   0  0  0  0  0  0  0  0  0  0  0  0
    8.2320    0.1440   21.4990 C   0  0  0  0  0  0  0  0  0  0  0  0
    8.6730    1.2100   21.0510 O   0  0  0  0  0  0  0  0  0  0  0  0
    7.1390   -0.5120   21.0190 N   0  0  0  0  0  0  0  0  0  0  0  0
    6.4460    0.0870   19.9820 C   0  0  0  0  0  0  0  0  0  0  0  0
    5.2670    0.7830   20.2540 C   0  0  0  0  0  0  0  0  0  0  0  0
    4.5950    1.4030   19.2090 C   0  0  0  0  0  0  0  0  0  0  0  0
    5.1260    1.3060   17.9330 C   0  0  0  0  0  0  0  0  0  0  0  0
    6.2460    0.6320   17.6580 N   0  0  0  0  0  0  0  0  0  0  0  0
    6.8790    0.0420   18.6840 C   0  0  0  0  0  0  0  0  0  0  0  0
   11.1630   -0.7390   22.7550 C   0  0  0  0  0  0  0  0  0  0  0  0
   11.1120   -1.8080   22.3070 C   0  0  0  0  0  0  0  0  0  0  0  0
   12.4580   -1.2200   22.4080 C   0  0  0  0  0  0  0  0  0  0  0  0
   11.7270    0.1130   23.0750 C   0  0  0  0  0  0  0  0  0  0  0  0
   13.0180    0.3440   23.0070 C   0  0  0  0  0  0  0  0  0  0  0  0
   12.6770   -0.7210   22.5960 C   0  0  0  0  0  0  0  0  0  0  0  0
   13.4670   -1.7370   22.0740 N   0  0  0  0  0  0  0  0  0  0  0  0
   13.7800   -1.6430   20.8730 O   0  0  0  0  0  0  0  0  0  0  0  0
   13.5960   -2.7550   22.7840 O   0  0  0  0  0  0  0  0  0  0  0  0
  1  2  1  0
  2  3  1  0
  2  4  1  0
  4  5  1  0
  5  6  2  0
  5  7  1  0
  7  8  1  0
  8  9  2  0
  9 10  1  0
 10 11  2  0
 11 12  1  0
  8 13  1  0
 12 13  2  0
  2 14  1  0
 14 15  2  0
 15 16  1  0
 16 17  2  0
 17 18  1  0
 14 19  1  0
 18 19  2  0
 19 20  1  0
 20 21  2  0
 20 22  1  0
M  CHG  2  20   1  22  -1
M  END
