pyridine_urea_5229
     RDKit          3D

 19 20  0  0  0  0  0  0  0  0999 V2000
   13.6600   -2.7400   25.2920 C   0  0  0  0  0  0  0  0  0  0  0  0
   12.3600   -2.5010   24.6230 C   0  0  0  0  0  0  0  0  0  0  0  0
   12.1290   -1.3550   23.8420 C   0  0  0  0  0  0  0  0  0  0  0  0
   10.8810   -1.2030   23.2630 C   0  0  0  0  0  0  0  0  0  0  0  0
   10.5660   -0.1630   22.5080 C   0  0  0  0  0  0  0  0  0  0  0  0
    9.5690   -0.4470   21.5710 N   0  0  0  0  0  0  0  0  0  0  0  0
    8.5270    0.3830   21.2930 C   0  0  0  0  0  0  0  0  0  0  0  0
    8.7010    1.5920   21.2120 O   0  0  0  0  0  0  0  0  0  0  0  0
    7.3450   -0.2920   21.0670 N   0  0  0  0  0  0  0  0  0  0  0  0
    6.5180    0.2400   20.0900 C   0  0  0  0  0  0  0  0  0  0  0  0
    5.2170    1.0050   20.2780 C   0  0  0  0  0  0  0  0  0  0  0  0
    4.5700    1.4850   19.1640 C   0  0  0  0  0  0  0  0  0  0  0  0
    5.1090    1.2640   17.9210 C   0  0  0  0  0  0  0  0  0  0  0  0
    6.2420    0.5830   17.6820 N   0  0  0  0  0  0  0  0  0  0  0  0
    6.8880    0.1050   18.7640 C   0  0  0  0  0  0  0  0  0  0  0  0
    9.8790   -2.1380   23.4570 C   0  0  0  0  0  0  0  0  0  0  0  0
   10.1480   -3.2120   24.2340 C   0  0  0  0  0  0  0  0  0  0  0  0
    8.9840   -4.0260   24.3700 O   0  0  0  0  0  0  0  0  0  0  0  0
   11.3470   -3.4390   24.7700 N   0  0  0  0  0  0  0  0  0  0  0  0
  1  2  1  0
  2  3  2  0
  3  4  1  0
  4  5  1  0
  5  6  1  0
  6  7  1  0
  7  8  2  0
  7  9  1  0
  9 10  1  0
 10 11  2  0
 11 12  1  0
 12 13  2  0
 13 14  1  0
 10 15  1  0
 14 15  2  0
  4 16  2  0
 16 17  1  0
 17 18  2  0
  2 19  1  0
 17 19  1  0
M  END
