pyridine_urea_6699
     RDKit          3D

 21 22  0  0  0  0  0  0  0  0999 V2000
    8.7850    1.1600   21.0860 O   0  0  0  0  0  0  0  0  0  0  0  0
    8.3840    0.0740   21.5360 C   0  0  0  0  0  0  0  0  0  0  0  0
    8.9560   -0.6040   22.5590 N   0  0  0  0  0  0  0  0  0  0  0  0
    9.1800   -0.0580   23.8140 C   0  0  0  0  0  0  0  0  0  0  0  0
   10.4460    0.7300   24.1060 C   0  0  0  0  0  0  0  0  0  0  0  0
   11.5430   -0.3000   23.9980 C   0  0  0  0  0  0  0  0  0  0  0  0
   12.2160   -0.8830   25.0300 N   0  0  0  0  0  0  0  0  0  0  0  0
   13.1930   -1.8690   24.8430 C   0  0  0  0  0  0  0  0  0  0  0  0
   13.5120   -2.2890   23.5750 C   0  0  0  0  0  0  0  0  0  0  0  0
   12.8660   -1.7220   22.4790 C   0  0  0  0  0  0  0  0  0  0  0  0
   13.0380   -1.9910   21.1300 C   0  0  0  0  0  0  0  0  0  0  0  0
   13.8640   -1.1300   20.5140 F   0  0  0  0  0  0  0  0  0  0  0  0
   13.6240   -3.1280   20.7970 F   0  0  0  0  0  0  0  0  0  0  0  0
   11.8730   -0.7170   22.7400 N   0  0  0  0  0  0  0  0  0  0  0  0
    7.2620   -0.4940   21.0230 N   0  0  0  0  0  0  0  0  0  0  0  0
    6.4770    0.1480   20.0860 C   0  0  0  0  0  0  0  0  0  0  0  0
    5.2900    0.8620   20.2470 C   0  0  0  0  0  0  0  0  0  0  0  0
    4.6150    1.4800   19.1850 C   0  0  0  0  0  0  0  0  0  0  0  0
    5.1490    1.3830   17.8880 C   0  0  0  0  0  0  0  0  0  0  0  0
    6.2700    0.7140   17.6220 N   0  0  0  0  0  0  0  0  0  0  0  0
    6.9030    0.1310   18.6400 C   0  0  0  0  0  0  0  0  0  0  0  0
  1  2  2  0
  2  3  1  0
  3  4  1  0
  4  5  1  0
  5  6  1  0
  6  7  2  0
  7  8  1  0
  8  9  2  0
  9 10  1  0
 10 11  1  0
 11 12  1  0
 11 13  1  0
  6 14  1  0
 10 14  2  0
  2 15  1  0
 15 16  1  0
 16 17  2  0
 17 18  1  0
 18 19  2  0
 19 20  1  0
 16 21  1  0
 20 21  2  0
M  END
