pyridine_urea_12055
     RDKit          3D

 24 26  0  0  0  0  0  0  0  0999 V2000
    9.5070    2.4850   22.4230 C   0  0  0  0  0  0  0  0  0  0  0  0
   10.9770    2.2760   22.4940 C   0  0  0  0  0  0  0  0  0  0  0  0
   11.8010    3.4690   22.3370 O   0  0  0  0  0  0  0  0  0  0  0  0
   12.9610    2.8520   22.5420 C   0  0  0  0  0  0  0  0  0  0  0  0
   14.2140    3.2410   22.7950 C   0  0  0  0  0  0  0  0  0  0  0  0
   15.4240    2.1590   22.5060 C   0  0  0  0  0  0  0  0  0  0  0  0
   17.2610    2.5180   23.4530 C   0  0  0  0  0  0  0  0  0  0  0  0
   17.6300    3.7150   24.2930 C   0  0  0  0  0  0  0  0  0  0  0  0
   16.3860    4.6080   24.3830 C   0  0  0  0  0  0  0  0  0  0  0  0
   14.6270    4.5050   23.6790 C   0  0  0  0  0  0  0  0  0  0  0  0
   13.0950    1.4860   22.7340 N   0  0  0  0  0  0  0  0  0  0  0  0
   11.8470    1.0530   22.7070 C   0  0  0  0  0  0  0  0  0  0  0  0
   11.4550   -0.2930   22.8760 C   0  0  0  0  0  0  0  0  0  0  0  0
   10.1010   -0.4980   23.1260 C   0  0  0  0  0  0  0  0  0  0  0  0
    9.3020   -0.9140   22.0810 N   0  0  0  0  0  0  0  0  0  0  0  0
    8.4070   -0.1020   21.3430 C   0  0  0  0  0  0  0  0  0  0  0  0
    8.6750    1.1780   20.9120 O   0  0  0  0  0  0  0  0  0  0  0  0
    7.2360   -0.7190   21.0800 N   0  0  0  0  0  0  0  0  0  0  0  0
    6.4790   -0.0380   20.1060 C   0  0  0  0  0  0  0  0  0  0  0  0
    5.2640    0.6290   20.3240 C   0  0  0  0  0  0  0  0  0  0  0  0
    4.6280    1.2720   19.2600 C   0  0  0  0  0  0  0  0  0  0  0  0
    5.2280    1.2260   18.0160 C   0  0  0  0  0  0  0  0  0  0  0  0
    6.3860    0.5930   17.7760 N   0  0  0  0  0  0  0  0  0  0  0  0
    6.9800   -0.0230   18.8190 C   0  0  0  0  0  0  0  0  0  0  0  0
  1  2  1  0
  2  3  1  0
  3  4  1  0
  4  5  1  0
  5  6  2  0
  6  7  1  0
  7  8  2  0
  8  9  1  0
  5 10  1  0
  9 10  2  0
  4 11  2  0
  2 12  2  0
 11 12  1  0
 12 13  1  0
 13 14  1  0
 14 15  1  0
 15 16  1  0
 16 17  2  0
 16 18  1  0
 18 19  1  0
 19 20  2  0
 20 21  1  0
 21 22  2  0
 22 23  1  0
 19 24  1  0
 23 24  2  0
M  END
