pyridine_urea_10478
     RDKit          3D

 22 24  0  0  0  0  0  0  0  0999 V2000
    8.5900    0.6070   21.0660 O   0  0  0  0  0  0  0  0  0  0  0  0
    8.3550   -0.5340   21.4420 C   0  0  0  0  0  0  0  0  0  0  0  0
    9.2490   -1.2640   22.2320 N   0  0  0  0  0  0  0  0  0  0  0  0
   10.3590   -0.4570   22.4890 C   0  0  0  0  0  0  0  0  0  0  0  0
   11.8960   -0.6670   22.5180 C   0  0  0  0  0  0  0  0  0  0  0  0
   12.7200    0.6480   22.7980 C   0  0  0  0  0  0  0  0  0  0  0  0
   12.0070    2.0090   23.0230 C   0  0  0  0  0  0  0  0  0  0  0  0
   12.4630    3.2680   23.2540 N   0  0  0  0  0  0  0  0  0  0  0  0
   11.4860    4.1720   23.5370 C   0  0  0  0  0  0  0  0  0  0  0  0
   11.8410    5.5210   23.5810 C   0  0  0  0  0  0  0  0  0  0  0  0
   12.4660    5.9010   22.3840 C   0  0  0  0  0  0  0  0  0  0  0  0
   13.1860    4.8700   21.7840 C   0  0  0  0  0  0  0  0  0  0  0  0
   13.5620    3.9290   22.7130 C   0  0  0  0  0  0  0  0  0  0  0  0
   10.6420    2.0190   22.9990 C   0  0  0  0  0  0  0  0  0  0  0  0
    9.8570    0.9440   22.7670 C   0  0  0  0  0  0  0  0  0  0  0  0
    7.1600   -1.0640   21.0390 N   0  0  0  0  0  0  0  0  0  0  0  0
    6.4510   -0.3310   20.1270 C   0  0  0  0  0  0  0  0  0  0  0  0
    5.2470    0.3340   20.2950 C   0  0  0  0  0  0  0  0  0  0  0  0
    4.5970    1.0830   19.3120 C   0  0  0  0  0  0  0  0  0  0  0  0
    5.1780    1.1900   18.0550 C   0  0  0  0  0  0  0  0  0  0  0  0
    6.3480    0.5820   17.7680 N   0  0  0  0  0  0  0  0  0  0  0  0
    6.9840   -0.2000   18.8560 C   0  0  0  0  0  0  0  0  0  0  0  0
  1  2  2  0
  2  3  1  0
  3  4  1  0
  4  5  2  0
  5  6  1  0
  6  7  2  0
  7  8  1  0
  8  9  1  0
  9 10  1  0
 10 11  1  0
 11 12  1  0
  8 13  1  0
 12 13  1  0
  7 14  1  0
  4 15  1  0
 14 15  2  0
  2 16  1  0
 16 17  1  0
 17 18  2  0
 18 19  1  0
 19 20  2  0
 20 21  1  0
 17 22  1  0
 21 22  2  0
M  END
