pyridine_urea_14829
     RDKit          3D

 20 21  0  0  0  0  0  0  0  0999 V2000
    8.1160   -1.8180   27.0080 C   0  0  0  0  0  0  0  0  0  0  0  0
    8.5910   -2.4110   25.4060 S   0  0  0  0  0  0  0  0  0  0  0  0
    9.6200   -1.1150   24.7880 C   0  0  0  0  0  0  0  0  0  0  0  0
   10.3350   -1.2880   23.5520 C   0  0  0  0  0  0  0  0  0  0  0  0
   11.8040   -1.2070   23.1480 C   0  0  0  0  0  0  0  0  0  0  0  0
   12.2950   -1.4640   22.0300 C   0  0  0  0  0  0  0  0  0  0  0  0
   11.4080   -1.7630   21.2140 C   0  0  0  0  0  0  0  0  0  0  0  0
    9.8820   -1.7630   21.5430 C   0  0  0  0  0  0  0  0  0  0  0  0
    8.8300   -1.9420   20.7620 N   0  0  0  0  0  0  0  0  0  0  0  0
    8.0080   -0.8330   20.8170 C   0  0  0  0  0  0  0  0  0  0  0  0
    8.3560    0.3500   20.9270 O   0  0  0  0  0  0  0  0  0  0  0  0
    6.6060   -1.1420   20.7660 N   0  0  0  0  0  0  0  0  0  0  0  0
    6.0720   -0.2080   19.7930 C   0  0  0  0  0  0  0  0  0  0  0  0
    4.9030    0.4700   20.0560 C   0  0  0  0  0  0  0  0  0  0  0  0
    4.3750    1.3600   19.1490 C   0  0  0  0  0  0  0  0  0  0  0  0
    5.1470    1.5250   17.9010 C   0  0  0  0  0  0  0  0  0  0  0  0
    6.2970    0.8590   17.6440 N   0  0  0  0  0  0  0  0  0  0  0  0
    6.7330    0.0060   18.6010 C   0  0  0  0  0  0  0  0  0  0  0  0
    9.4620   -1.5440   22.7180 C   0  0  0  0  0  0  0  0  0  0  0  0
    8.1030   -1.5830   23.0480 C   0  0  0  0  0  0  0  0  0  0  0  0
  1  2  1  0
  2  3  1  0
  3  4  1  0
  4  5  2  0
  5  6  1  0
  6  7  2  0
  7  8  1  0
  8  9  1  0
  9 10  1  0
 10 11  2  0
 10 12  1  0
 12 13  1  0
 13 14  2  0
 14 15  1  0
 15 16  2  0
 16 17  1  0
 13 18  1  0
 17 18  2  0
  4 19  1  0
  8 19  2  0
 19 20  1  0
M  END
