pyridine_urea_10548
     RDKit          3D

 21 23  0  0  0  0  0  0  0  0999 V2000
    8.7940    1.1500   21.0830 O   0  0  0  0  0  0  0  0  0  0  0  0
    8.3300    0.0630   21.4600 C   0  0  0  0  0  0  0  0  0  0  0  0
    7.2870   -0.6140   20.8980 N   0  0  0  0  0  0  0  0  0  0  0  0
    6.4620    0.0530   20.0040 C   0  0  0  0  0  0  0  0  0  0  0  0
    5.1370    0.7370   20.3650 C   0  0  0  0  0  0  0  0  0  0  0  0
    4.4600    1.4220   19.1840 C   0  0  0  0  0  0  0  0  0  0  0  0
    5.1500    1.3450   17.8590 C   0  0  0  0  0  0  0  0  0  0  0  0
    6.3090    0.7020   17.6680 N   0  0  0  0  0  0  0  0  0  0  0  0
    6.9070    0.0970   18.7020 C   0  0  0  0  0  0  0  0  0  0  0  0
    8.8420   -0.5730   22.5500 N   0  0  0  0  0  0  0  0  0  0  0  0
    9.4910    0.3250   23.4470 C   0  0  1  0  0  0  0  0  0  0  0  0
   10.2420   -0.1920   24.4120 C   0  0  0  0  0  0  0  0  0  0  0  0
   11.4370    0.3220   24.0000 C   0  0  1  0  0  0  0  0  0  0  0  0
   12.2510   -0.6890   23.8240 C   0  0  0  0  0  0  0  0  0  0  0  0
   12.9180   -1.2150   24.9140 C   0  0  0  0  0  0  0  0  0  0  0  0
   13.7740   -2.3240   24.8130 C   0  0  0  0  0  0  0  0  0  0  0  0
   13.8470   -2.8090   23.3630 C   0  0  0  0  0  0  0  0  0  0  0  0
   13.1570   -2.2360   22.3290 C   0  0  0  0  0  0  0  0  0  0  0  0
   13.2650   -2.7250   21.0490 F   0  0  0  0  0  0  0  0  0  0  0  0
   12.3660   -1.1860   22.5700 C   0  0  0  0  0  0  0  0  0  0  0  0
   10.5640    0.9410   22.8260 C   0  0  0  0  0  0  0  0  0  0  0  0
  1  2  2  0
  2  3  1  0
  3  4  1  0
  4  5  2  0
  5  6  1  0
  6  7  2  0
  7  8  1  0
  4  9  1  0
  8  9  2  0
  2 10  1  0
 11 10  1  6
 11 12  1  0
 12 13  1  0
 13 14  1  6
 14 15  2  0
 15 16  1  0
 16 17  2  0
 17 18  1  0
 18 19  1  0
 14 20  1  0
 18 20  2  0
 11 21  1  0
 13 21  1  0
M  END
