pyridine_urea_13015
     RDKit          3D

 21 22  0  0  0  0  0  0  0  0999 V2000
    7.8810    0.7080   24.0070 C   0  0  0  0  0  0  0  0  0  0  0  0
    8.8880   -0.3380   24.3890 C   0  0  0  0  0  0  0  0  0  0  0  0
   10.1970    0.0740   24.6380 C   0  0  0  0  0  0  0  0  0  0  0  0
    8.9280   -1.4800   23.3180 C   0  0  2  0  0  0  0  0  0  0  0  0
    9.2030   -1.0770   22.0620 N   0  0  0  0  0  0  0  0  0  0  0  0
    8.4020   -0.1710   21.4590 C   0  0  0  0  0  0  0  0  0  0  0  0
    8.7230    1.0000   21.3240 O   0  0  0  0  0  0  0  0  0  0  0  0
    7.2430   -0.7350   21.0390 N   0  0  0  0  0  0  0  0  0  0  0  0
    6.5390   -0.0490   20.1010 C   0  0  0  0  0  0  0  0  0  0  0  0
    5.3660    0.6970   20.3260 C   0  0  0  0  0  0  0  0  0  0  0  0
    4.6440    1.4500   19.1860 C   0  0  0  0  0  0  0  0  0  0  0  0
    5.2110    1.3590   17.9250 C   0  0  0  0  0  0  0  0  0  0  0  0
    6.3340    0.6210   17.7730 N   0  0  0  0  0  0  0  0  0  0  0  0
    6.9900   -0.0660   18.7930 C   0  0  0  0  0  0  0  0  0  0  0  0
    7.5940   -2.2300   23.2550 C   0  0  0  0  0  0  0  0  0  0  0  0
    6.5910   -1.7330   22.7750 O   0  0  0  0  0  0  0  0  0  0  0  0
    7.6090   -3.4760   23.7760 N   0  0  0  0  0  0  0  0  0  0  0  0
    8.5990   -3.8010   24.6910 C   0  0  0  0  0  0  0  0  0  0  0  0
    7.9370   -4.9820   25.0860 C   0  0  0  0  0  0  0  0  0  0  0  0
    7.2250   -5.4810   24.0330 C   0  0  0  0  0  0  0  0  0  0  0  0
    7.0800   -4.5250   23.0850 C   0  0  0  0  0  0  0  0  0  0  0  0
  1  2  1  0
  2  3  1  0
  2  4  1  0
  4  5  1  6
  5  6  1  0
  6  7  2  0
  6  8  1  0
  8  9  1  0
  9 10  2  0
 10 11  1  0
 11 12  2  0
 12 13  1  0
  9 14  1  0
 13 14  2  0
  4 15  1  0
 15 16  2  0
 15 17  1  0
 17 18  1  0
 18 19  1  0
 19 20  1  0
 17 21  1  0
 20 21  1  0
M  END
