pyridine_urea_15065
     RDKit          3D

 19 20  0  0  0  0  0  0  0  0999 V2000
   13.0030   -2.2730   21.2370 C   0  0  0  0  0  0  0  0  0  0  0  0
   11.6730   -1.8590   21.4820 O   0  0  0  0  0  0  0  0  0  0  0  0
   11.3800   -1.8420   22.8710 C   0  0  0  0  0  0  0  0  0  0  0  0
   12.1020   -2.3150   23.7410 O   0  0  0  0  0  0  0  0  0  0  0  0
   10.0530   -1.1620   23.1720 C   0  0  1  0  0  0  0  0  0  0  0  0
   10.3060    0.2700   23.5920 C   0  0  0  0  0  0  0  0  0  0  0  0
   11.7900    0.4780   23.8780 C   0  0  0  0  0  0  0  0  0  0  0  0
   12.7830    0.1580   22.8780 C   0  0  0  0  0  0  0  0  0  0  0  0
   12.5720    1.5820   22.9550 C   0  0  0  0  0  0  0  0  0  0  0  0
    9.1270   -1.2810   22.1810 N   0  0  0  0  0  0  0  0  0  0  0  0
    8.5120   -0.2290   21.5180 C   0  0  0  0  0  0  0  0  0  0  0  0
    9.0390    0.8550   21.3210 O   0  0  0  0  0  0  0  0  0  0  0  0
    7.2420   -0.5880   21.1100 N   0  0  0  0  0  0  0  0  0  0  0  0
    6.4890    0.0680   20.1150 C   0  0  0  0  0  0  0  0  0  0  0  0
    5.3130    0.7630   20.3070 C   0  0  0  0  0  0  0  0  0  0  0  0
    4.6860    1.3740   19.2340 C   0  0  0  0  0  0  0  0  0  0  0  0
    5.2100    1.2930   17.9580 C   0  0  0  0  0  0  0  0  0  0  0  0
    6.3450    0.6210   17.7230 N   0  0  0  0  0  0  0  0  0  0  0  0
    6.9360    0.0350   18.7960 C   0  0  0  0  0  0  0  0  0  0  0  0
  1  2  1  0
  2  3  1  0
  3  4  2  0
  3  5  1  0
  5  6  1  6
  6  7  1  0
  7  8  1  0
  7  9  1  0
  8  9  1  0
  5 10  1  0
 10 11  1  0
 11 12  2  0
 11 13  1  0
 13 14  1  0
 14 15  2  0
 15 16  1  0
 16 17  2  0
 17 18  1  0
 14 19  1  0
 18 19  2  0
M  END
