pyridine_urea_14536
     RDKit          3D

 21 23  0  0  0  0  0  0  0  0999 V2000
   14.3520   -3.6500   25.6670 O   0  0  0  0  0  0  0  0  0  0  0  0
   13.8460   -2.9210   24.8460 C   0  0  0  0  0  0  0  0  0  0  0  0
   12.8050   -2.0050   25.2200 C   0  0  0  0  0  0  0  0  0  0  0  0
   12.1400   -1.6460   24.1740 C   0  0  0  0  0  0  0  0  0  0  0  0
   10.9840   -1.0280   24.1930 C   0  0  0  0  0  0  0  0  0  0  0  0
   10.2430   -0.6390   23.1470 C   0  0  0  0  0  0  0  0  0  0  0  0
    9.8460   -0.4360   21.9110 C   0  0  0  0  0  0  0  0  0  0  0  0
    8.5230   -0.9350   21.9390 N   0  0  0  0  0  0  0  0  0  0  0  0
    7.7150   -0.0970   21.3210 C   0  0  0  0  0  0  0  0  0  0  0  0
    8.1270    1.1810   20.9940 O   0  0  0  0  0  0  0  0  0  0  0  0
    6.4320   -0.7120   21.0430 N   0  0  0  0  0  0  0  0  0  0  0  0
    6.0240    0.0170   19.8930 C   0  0  0  0  0  0  0  0  0  0  0  0
    4.8440    0.7460   20.0150 C   0  0  0  0  0  0  0  0  0  0  0  0
    4.4010    1.4950   18.9400 C   0  0  0  0  0  0  0  0  0  0  0  0
    5.1480    1.4960   17.7760 C   0  0  0  0  0  0  0  0  0  0  0  0
    6.2860    0.8180   17.5830 N   0  0  0  0  0  0  0  0  0  0  0  0
    6.7420    0.0340   18.7170 C   0  0  0  0  0  0  0  0  0  0  0  0
   11.0240   -1.0750   22.0260 C   0  0  0  0  0  0  0  0  0  0  0  0
   12.2480   -1.7390   21.8880 C   0  0  0  0  0  0  0  0  0  0  0  0
   12.8620   -2.0650   23.0060 C   0  0  0  0  0  0  0  0  0  0  0  0
   13.9840   -2.7110   23.4830 N   0  0  0  0  0  0  0  0  0  0  0  0
  1  2  2  0
  2  3  1  0
  3  4  1  0
  4  5  2  0
  5  6  1  0
  6  7  1  0
  7  8  1  0
  8  9  1  0
  9 10  2  0
  9 11  1  0
 11 12  1  0
 12 13  2  0
 13 14  1  0
 14 15  2  0
 15 16  1  0
 12 17  1  0
 16 17  2  0
  6 18  2  0
 18 19  1  0
  4 20  1  0
 19 20  2  0
  2 21  1  0
 20 21  1  0
M  END
