pyridine_urea_4149
     RDKit          3D

 25 27  0  0  0  0  0  0  0  0999 V2000
    9.9340    3.4480   23.0980 C   0  0  0  0  0  0  0  0  0  0  0  0
   10.3780    2.0330   22.9140 C   0  0  0  0  0  0  0  0  0  0  0  0
    9.5610    0.9810   22.8590 C   0  0  0  0  0  0  0  0  0  0  0  0
    9.9290   -0.3110   22.6650 C   0  0  0  0  0  0  0  0  0  0  0  0
    8.8780   -1.1920   22.5330 N   0  0  0  0  0  0  0  0  0  0  0  0
    8.0950   -0.5920   21.5290 C   0  0  0  0  0  0  0  0  0  0  0  0
    8.5020    0.4430   21.0140 O   0  0  0  0  0  0  0  0  0  0  0  0
    6.9350   -1.1370   21.1640 N   0  0  0  0  0  0  0  0  0  0  0  0
    6.3880   -0.3830   20.1550 C   0  0  0  0  0  0  0  0  0  0  0  0
    5.1940    0.3050   20.3860 C   0  0  0  0  0  0  0  0  0  0  0  0
    4.5910    1.1580   19.2610 C   0  0  0  0  0  0  0  0  0  0  0  0
    5.2620    1.2060   18.0640 C   0  0  0  0  0  0  0  0  0  0  0  0
    6.4150    0.5280   17.8650 N   0  0  0  0  0  0  0  0  0  0  0  0
    6.9390   -0.2290   18.8810 C   0  0  0  0  0  0  0  0  0  0  0  0
   11.2820   -0.6330   22.5630 C   0  0  0  0  0  0  0  0  0  0  0  0
   12.1850    0.4450   22.6120 C   0  0  0  0  0  0  0  0  0  0  0  0
   11.6860    1.7740   22.7560 C   0  0  0  0  0  0  0  0  0  0  0  0
   12.4000    2.8900   22.7140 N   0  0  0  0  0  0  0  0  0  0  0  0
   13.5970    2.4890   22.5810 C   0  0  0  0  0  0  0  0  0  0  0  0
   13.8700    1.0820   22.5330 O   0  0  0  0  0  0  0  0  0  0  0  0
   14.8020    3.2030   22.9870 C   0  0  0  0  0  0  0  0  0  0  0  0
   14.7930    4.5000   23.7400 C   0  0  0  0  0  0  0  0  0  0  0  0
   16.4960    4.5860   24.3940 C   0  0  0  0  0  0  0  0  0  0  0  0
   17.6610    3.7040   24.2430 C   0  0  0  0  0  0  0  0  0  0  0  0
   17.0270    2.5490   23.2260 O   0  0  0  0  0  0  0  0  0  0  0  0
  1  2  1  0
  2  3  2  0
  3  4  1  0
  4  5  1  0
  5  6  1  0
  6  7  2  0
  6  8  1  0
  8  9  1  0
  9 10  2  0
 10 11  1  0
 11 12  2  0
 12 13  1  0
  9 14  1  0
 13 14  2  0
  4 15  2  0
 15 16  1  0
  2 17  1  0
 16 17  2  0
 17 18  1  0
 18 19  1  0
 19 20  2  0
 19 21  1  0
 21 22  2  0
 22 23  1  0
 23 24  2  0
 21 25  1  0
 24 25  1  0
M  END
