pyridine_urea_13868
     RDKit          3D

 24 25  0  0  0  0  0  0  0  0999 V2000
   12.8170    6.0010   22.6820 C   0  0  0  0  0  0  0  0  0  0  0  0
   12.6130    4.8200   22.7330 C   0  0  0  0  0  0  0  0  0  0  0  0
   12.0220    3.4270   22.4920 C   0  0  0  0  0  0  0  0  0  0  0  0
   12.7750    2.4750   23.3490 N   0  0  0  0  0  0  0  0  0  0  0  0
   13.3220    0.9520   22.8660 S   0  0  0  0  0  0  0  0  0  0  0  0
   14.6460    1.1000   22.4920 O   0  0  0  0  0  0  0  0  0  0  0  0
   12.2620    0.5560   22.0650 O   0  0  0  0  0  0  0  0  0  0  0  0
   13.2210   -0.3500   23.8660 C   0  0  0  0  0  0  0  0  0  0  0  0
   12.0520   -0.6290   23.5110 C   0  0  0  0  0  0  0  0  0  0  0  0
   11.0140    0.4410   23.2960 C   0  0  0  0  0  0  0  0  0  0  0  0
    9.7170    0.1020   22.8590 C   0  0  0  0  0  0  0  0  0  0  0  0
    9.4750   -1.1690   22.6430 C   0  0  0  0  0  0  0  0  0  0  0  0
    8.2540   -1.4230   22.2080 N   0  0  0  0  0  0  0  0  0  0  0  0
    7.7030   -0.5030   21.3330 C   0  0  0  0  0  0  0  0  0  0  0  0
    8.2510    0.5390   20.9810 O   0  0  0  0  0  0  0  0  0  0  0  0
    6.5080   -0.8930   20.9260 N   0  0  0  0  0  0  0  0  0  0  0  0
    5.9980   -0.0930   19.9810 C   0  0  0  0  0  0  0  0  0  0  0  0
    4.8500    0.6670   20.1350 C   0  0  0  0  0  0  0  0  0  0  0  0
    4.4380    1.4490   19.0880 C   0  0  0  0  0  0  0  0  0  0  0  0
    5.2270    1.4630   17.8200 C   0  0  0  0  0  0  0  0  0  0  0  0
    6.3440    0.7290   17.6510 N   0  0  0  0  0  0  0  0  0  0  0  0
    6.7270   -0.0330   18.7020 C   0  0  0  0  0  0  0  0  0  0  0  0
   10.5160   -2.2680   22.8550 C   0  0  0  0  0  0  0  0  0  0  0  0
   11.7670   -1.9280   23.2860 C   0  0  0  0  0  0  0  0  0  0  0  0
  1  2  2  3
  2  3  1  0
  3  4  1  0
  5  4  1  0
  5  6  2  0
  5  7  2  0
  5  8  1  0
  8  9  1  0
  9 10  2  0
 10 11  1  0
 11 12  2  0
 12 13  1  0
 13 14  1  0
 14 15  2  0
 14 16  1  0
 16 17  1  0
 17 18  2  0
 18 19  1  0
 19 20  2  0
 20 21  1  0
 17 22  1  0
 21 22  2  0
 12 23  1  0
  9 24  1  0
 23 24  2  0
M  END
