pyridine_urea_11880
     RDKit          3D

 24 26  0  0  0  0  0  0  0  0999 V2000
   13.9140   -3.4430   20.3410 C   0  0  0  0  0  0  0  0  0  0  0  0
   13.1800   -2.2060   20.6720 C   0  0  0  0  0  0  0  0  0  0  0  0
   13.8990   -1.1510   20.3240 C   0  0  0  0  0  0  0  0  0  0  0  0
   12.8590   -1.8450   21.9850 C   0  0  0  0  0  0  0  0  0  0  0  0
   13.5950   -2.2840   23.1110 N   0  0  0  0  0  0  0  0  0  0  0  0
   12.6040   -1.5410   23.0830 C   0  0  0  0  0  0  0  0  0  0  0  0
   12.5510   -1.3940   24.2600 C   0  0  0  0  0  0  0  0  0  0  0  0
   11.4000   -0.5640   24.2740 C   0  0  0  0  0  0  0  0  0  0  0  0
   10.4980    0.0210   23.2230 C   0  0  0  0  0  0  0  0  0  0  0  0
    9.8280   -0.9790   22.5350 C   0  0  0  0  0  0  0  0  0  0  0  0
    8.5400   -0.6090   22.4920 N   0  0  0  0  0  0  0  0  0  0  0  0
    8.0050    0.0720   21.4200 C   0  0  0  0  0  0  0  0  0  0  0  0
    8.5010    1.1410   21.0250 O   0  0  0  0  0  0  0  0  0  0  0  0
    6.9360   -0.5680   20.9270 N   0  0  0  0  0  0  0  0  0  0  0  0
    6.3000    0.1060   19.9770 C   0  0  0  0  0  0  0  0  0  0  0  0
    5.1260    0.8290   20.1420 C   0  0  0  0  0  0  0  0  0  0  0  0
    4.5900    1.4940   19.0550 C   0  0  0  0  0  0  0  0  0  0  0  0
    5.2020    1.4470   17.8270 C   0  0  0  0  0  0  0  0  0  0  0  0
    6.3320    0.7610   17.6050 N   0  0  0  0  0  0  0  0  0  0  0  0
    6.8640    0.0900   18.7140 C   0  0  0  0  0  0  0  0  0  0  0  0
   11.2950   -0.4450   25.5480 C   0  0  0  0  0  0  0  0  0  0  0  0
   12.3280   -1.1810   24.8820 C   0  0  0  0  0  0  0  0  0  0  0  0
   11.6770   -0.8080   23.5740 C   0  0  0  0  0  0  0  0  0  0  0  0
   11.8390   -1.0530   22.1210 O   0  0  0  0  0  0  0  0  0  0  0  0
  1  2  1  0
  2  3  1  0
  2  4  1  0
  4  5  2  0
  5  6  1  0
  6  7  2  0
  7  8  1  0
  8  9  1  0
  9 10  1  0
 10 11  1  0
 11 12  1  0
 12 13  2  0
 12 14  1  0
 14 15  1  0
 15 16  2  0
 16 17  1  0
 17 18  2  0
 18 19  1  0
 15 20  1  0
 19 20  2  0
  8 21  2  0
 21 22  1  0
  6 23  1  0
 22 23  2  0
  4 24  1  0
 23 24  1  0
M  END
