pyridine_urea_609
     RDKit          3D

 24 26  0  0  0  0  0  0  0  0999 V2000
    7.0680    0.1440   26.2000 C   0  0  0  0  0  0  0  0  0  0  0  0
    7.5010    1.0940   25.5530 O   0  0  0  0  0  0  0  0  0  0  0  0
    8.7700    0.9480   25.0450 C   0  0  0  0  0  0  0  0  0  0  0  0
    9.3140    1.8360   24.1320 C   0  0  0  0  0  0  0  0  0  0  0  0
   10.5960    1.6810   23.6250 C   0  0  0  0  0  0  0  0  0  0  0  0
   11.3920    0.6270   24.0150 C   0  0  0  0  0  0  0  0  0  0  0  0
   12.6660    0.4720   23.4930 C   0  0  0  0  0  0  0  0  0  0  0  0
   12.3760   -0.5180   22.7110 C   0  0  0  0  0  0  0  0  0  0  0  0
   11.6570   -1.3140   22.2290 C   0  0  0  0  0  0  0  0  0  0  0  0
   10.3280   -1.7550   22.2370 C   0  0  0  0  0  0  0  0  0  0  0  0
    9.2890   -0.8200   22.4850 N   0  0  0  0  0  0  0  0  0  0  0  0
    8.6000    0.0710   21.5170 C   0  0  0  0  0  0  0  0  0  0  0  0
    9.0010    1.2110   21.2400 O   0  0  0  0  0  0  0  0  0  0  0  0
    7.4550   -0.5330   20.9960 N   0  0  0  0  0  0  0  0  0  0  0  0
    6.6040    0.0940   20.0690 C   0  0  0  0  0  0  0  0  0  0  0  0
    5.3610    0.8470   20.3790 C   0  0  0  0  0  0  0  0  0  0  0  0
    4.6570    1.4160   19.3140 C   0  0  0  0  0  0  0  0  0  0  0  0
    5.1410    1.2590   18.0200 C   0  0  0  0  0  0  0  0  0  0  0  0
    6.2580    0.5740   17.7220 N   0  0  0  0  0  0  0  0  0  0  0  0
    6.9510    0.0160   18.7340 C   0  0  0  0  0  0  0  0  0  0  0  0
   12.7080   -1.5250   21.7330 O   0  0  0  0  0  0  0  0  0  0  0  0
   13.4800   -0.3630   22.5110 N   0  0  0  0  0  0  0  0  0  0  0  0
   10.9460   -0.3380   24.9380 C   0  0  0  0  0  0  0  0  0  0  0  0
    9.6670   -0.2170   25.4680 C   0  0  0  0  0  0  0  0  0  0  0  0
  1  2  1  0
  2  3  1  0
  3  4  2  0
  4  5  1  0
  5  6  2  0
  6  7  1  0
  7  8  1  0
  8  9  2  0
  9 10  1  0
 10 11  1  0
 11 12  1  0
 12 13  2  0
 12 14  1  0
 14 15  1  0
 15 16  2  0
 16 17  1  0
 17 18  2  0
 18 19  1  0
 15 20  1  0
 19 20  2  0
  9 21  1  0
  7 22  2  0
 21 22  1  0
  6 23  1  0
  3 24  1  0
 23 24  2  0
M  END
