pyridine_urea_5953
     RDKit          3D

 26 29  0  0  0  0  0  0  0  0999 V2000
    8.7200    0.9370   21.3200 O   0  0  0  0  0  0  0  0  0  0  0  0
    8.4510   -0.2300   21.5690 C   0  0  0  0  0  0  0  0  0  0  0  0
    9.3300   -1.0550   22.3800 N   0  0  0  0  0  0  0  0  0  0  0  0
   10.5850   -0.4940   22.5590 C   0  0  0  0  0  0  0  0  0  0  0  0
   11.6620   -1.3740   22.4210 C   0  0  0  0  0  0  0  0  0  0  0  0
   12.9230   -0.9100   22.5720 C   0  0  0  0  0  0  0  0  0  0  0  0
   13.0060    0.4120   22.8470 C   0  0  0  0  0  0  0  0  0  0  0  0
   11.9400    1.1980   22.9640 N   0  0  0  0  0  0  0  0  0  0  0  0
   10.5750    0.9070   22.8500 C   0  0  0  0  0  0  0  0  0  0  0  0
    7.3300   -0.8870   21.1360 N   0  0  0  0  0  0  0  0  0  0  0  0
    6.5530   -0.1880   20.1340 C   0  0  0  0  0  0  0  0  0  0  0  0
    7.0200   -0.0660   18.7090 C   0  0  0  0  0  0  0  0  0  0  0  0
    6.2650    0.6100   17.8270 N   0  0  0  0  0  0  0  0  0  0  0  0
    5.0460    1.2200   18.1340 C   0  0  0  0  0  0  0  0  0  0  0  0
    4.4940    1.1660   19.4250 C   0  0  0  0  0  0  0  0  0  0  0  0
    3.2650    1.7520   19.7280 C   0  0  0  0  0  0  0  0  0  0  0  0
    2.4100    1.2320   20.6220 N   0  0  0  0  0  0  0  0  0  0  0  0
    1.3040    2.0910   20.5850 C   0  0  0  0  0  0  0  0  0  0  0  0
    0.2040    1.8390   21.3800 C   0  0  0  0  0  0  0  0  0  0  0  0
   -0.8910    2.6970   21.3320 C   0  0  0  0  0  0  0  0  0  0  0  0
   -2.4310    2.3930   22.4030 Br  0  0  0  0  0  0  0  0  0  0  0  0
   -0.8870    3.8110   20.4890 C   0  0  0  0  0  0  0  0  0  0  0  0
    0.2310    4.0630   19.6840 C   0  0  0  0  0  0  0  0  0  0  0  0
    1.3280    3.1940   19.7360 C   0  0  0  0  0  0  0  0  0  0  0  0
    2.8280    3.1900   18.9050 S   0  0  0  0  0  0  0  0  0  0  0  0
    5.1900    0.4910   20.4490 C   0  0  0  0  0  0  0  0  0  0  0  0
  1  2  2  0
  2  3  1  0
  3  4  1  0
  4  5  2  0
  5  6  1  0
  6  7  2  0
  7  8  1  0
  4  9  1  0
  8  9  2  0
  2 10  1  0
 10 11  1  0
 11 12  2  0
 12 13  1  0
 13 14  2  0
 14 15  1  0
 15 16  1  0
 16 17  2  0
 17 18  1  0
 18 19  2  0
 19 20  1  0
 20 21  1  0
 20 22  2  0
 22 23  1  0
 18 24  1  0
 23 24  2  0
 16 25  1  0
 24 25  1  0
 11 26  1  0
 15 26  2  0
M  END
