pyridine_urea_9587
     RDKit          3D

 21 22  0  0  0  0  0  0  0  0999 V2000
   13.4160   -2.5560   23.1520 C   0  0  0  0  0  0  0  0  0  0  0  0
   12.9820   -2.2540   21.7100 C   0  0  0  0  0  0  0  0  0  0  0  0
   12.2800   -1.0530   21.8060 O   0  0  0  0  0  0  0  0  0  0  0  0
   10.9030   -1.3070   21.9270 C   0  0  0  0  0  0  0  0  0  0  0  0
   10.3380   -2.4980   21.5720 O   0  0  0  0  0  0  0  0  0  0  0  0
   10.0920   -0.2100   22.5260 C   0  0  1  0  0  0  0  0  0  0  0  0
    8.7200   -0.5650   22.2780 N   0  0  0  0  0  0  0  0  0  0  0  0
    8.1150    0.1770   21.3400 C   0  0  0  0  0  0  0  0  0  0  0  0
    8.5680    1.2790   21.0010 O   0  0  0  0  0  0  0  0  0  0  0  0
    6.9740   -0.4650   20.8730 N   0  0  0  0  0  0  0  0  0  0  0  0
    6.2660    0.1690   19.9180 C   0  0  0  0  0  0  0  0  0  0  0  0
    4.9400    0.8810   20.1380 C   0  0  0  0  0  0  0  0  0  0  0  0
    4.4280    1.4880   18.9980 C   0  0  0  0  0  0  0  0  0  0  0  0
    5.1210    1.4100   17.7960 C   0  0  0  0  0  0  0  0  0  0  0  0
    6.2840    0.7660   17.6200 N   0  0  0  0  0  0  0  0  0  0  0  0
    6.8230    0.1660   18.6730 C   0  0  0  0  0  0  0  0  0  0  0  0
   10.3400   -0.2340   23.9430 C   0  0  0  0  0  0  0  0  0  0  0  0
   11.5740   -0.3560   23.7170 C   0  0  0  0  0  0  0  0  0  0  0  0
   12.7820   -0.4950   24.3860 C   0  0  0  0  0  0  0  0  0  0  0  0
   11.9220   -0.4310   25.5280 N   0  0  0  0  0  0  0  0  0  0  0  0
   10.1450   -0.2220   25.5280 S   0  0  0  0  0  0  0  0  0  0  0  0
  1  2  1  0
  2  3  1  0
  3  4  1  0
  4  5  2  0
  4  6  1  0
  6  7  1  1
  7  8  1  0
  8  9  2  0
  8 10  1  0
 10 11  1  0
 11 12  2  0
 12 13  1  0
 13 14  2  0
 14 15  1  0
 11 16  1  0
 15 16  2  0
  6 17  1  0
 17 18  2  0
 18 19  1  0
 19 20  2  0
 17 21  1  0
 20 21  1  0
M  END
