pyridine_urea_3610
     RDKit          3D

 17 18  0  0  0  0  0  0  0  0999 V2000
   12.5070    2.0310   23.0470 C   0  0  0  0  0  0  0  0  0  0  0  0
   12.3710    0.5340   23.1040 C   0  0  0  0  0  0  0  0  0  0  0  0
   13.2450   -0.2970   22.2960 N   0  0  0  0  0  0  0  0  0  0  0  0
   12.6220   -1.5220   22.5990 O   0  0  0  0  0  0  0  0  0  0  0  0
   11.2830   -1.0080   22.6980 C   0  0  1  0  0  0  0  0  0  0  0  0
   10.0820   -1.9000   22.7470 C   0  0  0  0  0  0  0  0  0  0  0  0
    9.2070   -1.6150   21.6110 N   0  0  0  0  0  0  0  0  0  0  0  0
    8.5040   -0.4260   21.4830 C   0  0  0  0  0  0  0  0  0  0  0  0
    9.0270    0.6730   21.6220 O   0  0  0  0  0  0  0  0  0  0  0  0
    7.1850   -0.6500   21.1480 N   0  0  0  0  0  0  0  0  0  0  0  0
    6.5140   -0.0090   20.0890 C   0  0  0  0  0  0  0  0  0  0  0  0
    5.2320    0.7700   20.3930 C   0  0  0  0  0  0  0  0  0  0  0  0
    4.6320    1.3900   19.2880 C   0  0  0  0  0  0  0  0  0  0  0  0
    5.1990    1.2780   18.0210 C   0  0  0  0  0  0  0  0  0  0  0  0
    6.3190    0.5890   17.7620 N   0  0  0  0  0  0  0  0  0  0  0  0
    6.9440   -0.0340   18.7800 C   0  0  0  0  0  0  0  0  0  0  0  0
   11.4660   -0.1930   23.7930 C   0  0  0  0  0  0  0  0  0  0  0  0
  1  2  1  0
  2  3  2  0
  3  4  1  0
  4  5  1  0
  5  6  1  1
  6  7  1  0
  7  8  1  0
  8  9  2  0
  8 10  1  0
 10 11  1  0
 11 12  2  0
 12 13  1  0
 13 14  2  0
 14 15  1  0
 11 16  1  0
 15 16  2  0
  2 17  1  0
  5 17  1  0
M  END
