pyridine_urea_14799
     RDKit          3D

 20 21  0  0  0  0  0  0  0  0999 V2000
    8.9220    0.9090   21.3620 O   0  0  0  0  0  0  0  0  0  0  0  0
    8.4650   -0.2140   21.5290 C   0  0  0  0  0  0  0  0  0  0  0  0
    9.1000   -1.2210   22.2280 N   0  0  0  0  0  0  0  0  0  0  0  0
    8.7230   -1.7460   23.4810 C   0  0  0  0  0  0  0  0  0  0  0  0
    8.7790   -3.1150   23.7060 C   0  0  0  0  0  0  0  0  0  0  0  0
    8.5850   -3.5820   24.9980 N   0  0  0  0  0  0  0  0  0  0  0  0
    8.3290   -4.9910   25.2820 C   0  0  0  0  0  0  0  0  0  0  0  0
    7.9620   -5.8640   24.4980 O   0  0  0  0  0  0  0  0  0  0  0  0
    8.4910   -5.4250   26.5850 C   0  0  0  0  0  0  0  0  0  0  0  0
    7.9970   -4.5650   27.5710 C   0  0  0  0  0  0  0  0  0  0  0  0
    7.5860   -3.1410   27.1080 C   0  0  0  0  0  0  0  0  0  0  0  0
    8.2920   -2.5810   26.0310 C   0  0  0  0  0  0  0  0  0  0  0  0
    8.6110   -1.4010   26.0220 O   0  0  0  0  0  0  0  0  0  0  0  0
    7.2400   -0.6340   21.0340 N   0  0  0  0  0  0  0  0  0  0  0  0
    6.4710    0.0540   20.0860 C   0  0  0  0  0  0  0  0  0  0  0  0
    5.2890    0.7810   20.3570 C   0  0  0  0  0  0  0  0  0  0  0  0
    4.6220    1.4450   19.3120 C   0  0  0  0  0  0  0  0  0  0  0  0
    5.1750    1.3680   17.9520 C   0  0  0  0  0  0  0  0  0  0  0  0
    6.3330    0.6400   17.7170 N   0  0  0  0  0  0  0  0  0  0  0  0
    6.9260    0.0180   18.7720 C   0  0  0  0  0  0  0  0  0  0  0  0
  1  2  2  0
  2  3  1  0
  3  4  1  0
  4  5  1  0
  5  6  1  0
  6  7  1  0
  7  8  2  0
  7  9  1  0
  9 10  1  0
 10 11  1  0
  6 12  1  0
 11 12  1  0
 12 13  2  0
  2 14  1  0
 14 15  1  0
 15 16  2  0
 16 17  1  0
 17 18  2  0
 18 19  1  0
 15 20  1  0
 19 20  2  0
M  END
