pyridine_urea_2736
     RDKit          3D

 23 25  0  0  0  0  0  0  0  0999 V2000
    8.4810    0.6950   21.0800 O   0  0  0  0  0  0  0  0  0  0  0  0
    8.0270   -0.3250   21.5800 C   0  0  0  0  0  0  0  0  0  0  0  0
    6.9130   -0.9250   21.0660 N   0  0  0  0  0  0  0  0  0  0  0  0
    6.3080   -0.1530   20.0060 C   0  0  0  0  0  0  0  0  0  0  0  0
    4.9870    0.6280   20.2840 C   0  0  0  0  0  0  0  0  0  0  0  0
    4.4570    1.3670   19.2360 C   0  0  0  0  0  0  0  0  0  0  0  0
    5.2240    1.3400   17.9080 C   0  0  0  0  0  0  0  0  0  0  0  0
    6.3640    0.6390   17.7230 N   0  0  0  0  0  0  0  0  0  0  0  0
    6.8710   -0.0760   18.7500 C   0  0  0  0  0  0  0  0  0  0  0  0
    8.5470   -0.9500   22.6760 N   0  0  0  0  0  0  0  0  0  0  0  0
    9.7110   -0.2050   23.0630 C   0  0  0  0  0  0  0  0  0  0  0  0
    9.4180    1.2590   23.3000 C   0  0  0  0  0  0  0  0  0  0  0  0
   10.5930    2.1380   23.6630 C   0  0  0  0  0  0  0  0  0  0  0  0
   11.9250    1.4660   23.7510 C   0  0  0  0  0  0  0  0  0  0  0  0
   12.0130    0.0170   23.5140 C   0  0  0  0  0  0  0  0  0  0  0  0
   13.1360   -0.5010   23.6000 N   0  0  0  0  0  0  0  0  0  0  0  0
   13.3700   -0.5060   22.3370 C   0  0  0  0  0  0  0  0  0  0  0  0
   13.1860   -1.6310   21.5840 C   0  0  0  0  0  0  0  0  0  0  0  0
   13.1030   -2.7830   22.3350 C   0  0  0  0  0  0  0  0  0  0  0  0
   13.1340   -2.8170   23.7330 C   0  0  0  0  0  0  0  0  0  0  0  0
   13.2810   -1.6860   24.4020 C   0  0  0  0  0  0  0  0  0  0  0  0
   13.5180   -1.7710   25.6000 O   0  0  0  0  0  0  0  0  0  0  0  0
   10.9370   -0.7700   23.1780 C   0  0  0  0  0  0  0  0  0  0  0  0
  1  2  2  0
  2  3  1  0
  3  4  1  0
  4  5  2  0
  5  6  1  0
  6  7  2  0
  7  8  1  0
  4  9  1  0
  8  9  2  0
  2 10  1  0
 10 11  1  0
 11 12  2  0
 12 13  1  0
 13 14  2  0
 14 15  1  0
 15 16  1  0
 16 17  1  0
 17 18  1  0
 18 19  1  0
 19 20  1  0
 16 21  1  0
 20 21  1  0
 21 22  2  0
 11 23  1  0
 15 23  2  0
M  END
