pyridine_urea_12235
     RDKit          3D

 21 22  0  0  0  0  0  0  0  0999 V2000
   13.5340   -2.8620   24.8710 C   0  0  0  0  0  0  0  0  0  0  0  0
   12.8440   -1.3160   24.3790 S   0  0  0  0  0  0  0  0  0  0  0  0
   13.3550   -0.9500   23.0720 O   0  0  0  0  0  0  0  0  0  0  0  0
   12.9230   -0.4200   25.4910 O   0  0  0  0  0  0  0  0  0  0  0  0
   11.1320   -1.6530   24.1690 C   0  0  0  0  0  0  0  0  0  0  0  0
   10.0070   -0.6030   24.2700 C   0  0  0  0  0  0  0  0  0  0  0  0
    8.6890   -0.9180   24.0940 C   0  0  0  0  0  0  0  0  0  0  0  0
    7.6430    0.1660   24.1850 C   0  0  0  0  0  0  0  0  0  0  0  0
    7.7290    0.7210   22.9320 N   0  0  0  0  0  0  0  0  0  0  0  0
    8.2550    0.1170   21.7870 C   0  0  0  0  0  0  0  0  0  0  0  0
    9.4210    0.2200   21.4570 O   0  0  0  0  0  0  0  0  0  0  0  0
    7.2410   -0.5640   21.1060 N   0  0  0  0  0  0  0  0  0  0  0  0
    6.5520    0.0660   19.9840 C   0  0  0  0  0  0  0  0  0  0  0  0
    5.2870    0.8350   20.3860 C   0  0  0  0  0  0  0  0  0  0  0  0
    4.5570    1.5310   19.2440 C   0  0  0  0  0  0  0  0  0  0  0  0
    5.1590    1.3840   17.8670 C   0  0  0  0  0  0  0  0  0  0  0  0
    6.2900    0.6590   17.6490 N   0  0  0  0  0  0  0  0  0  0  0  0
    6.9700    0.0130   18.6740 C   0  0  0  0  0  0  0  0  0  0  0  0
    8.3030   -2.2120   23.8170 C   0  0  0  0  0  0  0  0  0  0  0  0
    9.2790   -3.1900   23.7190 C   0  0  0  0  0  0  0  0  0  0  0  0
   10.6270   -3.0020   23.8740 N   0  0  0  0  0  0  0  0  0  0  0  0
  2  1  1  0
  2  3  2  0
  2  4  2  0
  2  5  1  0
  5  6  2  0
  6  7  1  0
  7  8  1  0
  8  9  1  0
  9 10  1  0
 10 11  2  0
 10 12  1  0
 12 13  1  0
 13 14  2  0
 14 15  1  0
 15 16  2  0
 16 17  1  0
 13 18  1  0
 17 18  2  0
  7 19  2  0
 19 20  1  0
  5 21  1  0
 20 21  2  0
M  END
