pyridine_urea_11861
     RDKit          3D

 25 27  0  0  0  0  0  0  0  0999 V2000
   12.3530    2.3210   22.9020 C   0  0  0  0  0  0  0  0  0  0  0  0
   11.5850    1.0190   22.7450 C   0  0  0  0  0  0  0  0  0  0  0  0
   12.4130   -0.0370   22.6820 C   0  0  0  0  0  0  0  0  0  0  0  0
   13.1050    1.1420   22.8320 C   0  0  0  0  0  0  0  0  0  0  0  0
   12.2920    2.3230   22.9180 C   0  0  0  0  0  0  0  0  0  0  0  0
   10.8600    2.3260   22.8510 C   0  0  0  0  0  0  0  0  0  0  0  0
   10.2170    1.1090   22.6860 C   0  0  0  0  0  0  0  0  0  0  0  0
   10.1040   -0.3700   22.5150 C   0  0  2  0  0  0  0  0  0  0  0  0
    8.7540   -0.8310   22.5380 N   0  0  0  0  0  0  0  0  0  0  0  0
    8.0800   -0.1570   21.5640 C   0  0  0  0  0  0  0  0  0  0  0  0
    8.5300    0.9300   21.2260 O   0  0  0  0  0  0  0  0  0  0  0  0
    6.9670   -0.7430   21.0440 N   0  0  0  0  0  0  0  0  0  0  0  0
    6.2810   -0.0470   20.0480 C   0  0  0  0  0  0  0  0  0  0  0  0
    5.0770    0.6320   20.2080 C   0  0  0  0  0  0  0  0  0  0  0  0
    4.5150    1.3090   19.1290 C   0  0  0  0  0  0  0  0  0  0  0  0
    5.1710    1.2970   17.9000 C   0  0  0  0  0  0  0  0  0  0  0  0
    6.3280    0.6500   17.7010 N   0  0  0  0  0  0  0  0  0  0  0  0
    6.8620   -0.0190   18.7970 C   0  0  0  0  0  0  0  0  0  0  0  0
   11.0670   -0.8850   23.4690 C   0  0  0  0  0  0  0  0  0  0  0  0
   11.8250    0.0920   24.1730 C   0  0  0  0  0  0  0  0  0  0  0  0
   12.6690   -0.7810   24.8970 C   0  0  0  0  0  0  0  0  0  0  0  0
   12.7510   -2.1420   24.9340 C   0  0  0  0  0  0  0  0  0  0  0  0
   13.9500   -2.8610   25.8880 Cl  0  0  0  0  0  0  0  0  0  0  0  0
   11.9240   -2.9120   24.2370 C   0  0  0  0  0  0  0  0  0  0  0  0
   11.0820   -2.2580   23.4910 C   0  0  0  0  0  0  0  0  0  0  0  0
  1  2  1  0
  2  3  2  0
  3  4  1  0
  4  5  2  0
  5  6  1  0
  2  7  1  0
  6  7  2  0
  7  8  1  0
  8  9  1  1
  9 10  1  0
 10 11  2  0
 10 12  1  0
 12 13  1  0
 13 14  2  0
 14 15  1  0
 15 16  2  0
 16 17  1  0
 13 18  1  0
 17 18  2  0
  8 19  1  0
 19 20  2  0
 20 21  1  0
 21 22  2  0
 22 23  1  0
 22 24  1  0
 19 25  1  0
 24 25  2  0
M  END
