pyridine_urea_11319
     RDKit          3D

 17 18  0  0  0  0  0  0  0  0999 V2000
    8.8810    0.5710   21.3000 O   0  0  0  0  0  0  0  0  0  0  0  0
    8.3150   -0.4620   21.6360 C   0  0  0  0  0  0  0  0  0  0  0  0
    7.0320   -0.7680   21.2190 N   0  0  0  0  0  0  0  0  0  0  0  0
    6.4470   -0.0800   20.0740 C   0  0  0  0  0  0  0  0  0  0  0  0
    5.1620    0.6930   20.3510 C   0  0  0  0  0  0  0  0  0  0  0  0
    4.5850    1.3990   19.1690 C   0  0  0  0  0  0  0  0  0  0  0  0
    5.2400    1.3000   17.9560 C   0  0  0  0  0  0  0  0  0  0  0  0
    6.3740    0.5990   17.7610 N   0  0  0  0  0  0  0  0  0  0  0  0
    6.9450   -0.0650   18.7920 C   0  0  0  0  0  0  0  0  0  0  0  0
    8.8680   -1.4260   22.4750 N   0  0  0  0  0  0  0  0  0  0  0  0
   10.2130   -1.1770   23.0520 C   0  0  1  0  0  0  0  0  0  0  0  0
   11.0890   -1.0510   22.0750 C   0  0  0  0  0  0  0  0  0  0  0  0
   12.3260   -0.9870   22.9530 C   0  0  0  0  0  0  0  0  0  0  0  0
   12.3940    0.1160   23.7840 C   0  0  0  0  0  0  0  0  0  0  0  0
   11.2070    0.5140   24.3720 C   0  0  2  0  0  0  0  0  0  0  0  0
   10.8330   -0.2010   25.4700 O   0  0  0  0  0  0  0  0  0  0  0  0
   10.1360    0.2160   23.6140 C   0  0  0  0  0  0  0  0  0  0  0  0
  1  2  2  0
  2  3  1  0
  3  4  1  0
  4  5  2  0
  5  6  1  0
  6  7  2  0
  7  8  1  0
  4  9  1  0
  8  9  2  0
  2 10  1  0
 11 10  1  6
 11 12  1  0
 12 13  1  0
 13 14  1  0
 14 15  1  0
 15 16  1  1
 11 17  1  0
 15 17  1  0
M  END
