pyridine_urea_3180
     RDKit          3D

 20 22  0  0  0  0  0  0  0  0999 V2000
    8.5850    1.0100   21.1990 O   0  0  0  0  0  0  0  0  0  0  0  0
    8.1590   -0.0900   21.5230 C   0  0  0  0  0  0  0  0  0  0  0  0
    7.0220   -0.6520   21.0400 N   0  0  0  0  0  0  0  0  0  0  0  0
    6.3790   -0.0040   19.9890 C   0  0  0  0  0  0  0  0  0  0  0  0
    5.1810    0.6760   20.2190 C   0  0  0  0  0  0  0  0  0  0  0  0
    4.5560    1.3430   19.1680 C   0  0  0  0  0  0  0  0  0  0  0  0
    5.1520    1.3050   17.9290 C   0  0  0  0  0  0  0  0  0  0  0  0
    6.2960    0.6520   17.6890 N   0  0  0  0  0  0  0  0  0  0  0  0
    6.8810    0.0160   18.7140 C   0  0  0  0  0  0  0  0  0  0  0  0
    8.8290   -0.8560   22.4230 N   0  0  0  0  0  0  0  0  0  0  0  0
   10.1660   -0.3800   22.6130 C   0  0  1  0  0  0  0  0  0  0  0  0
   10.3120    0.2920   23.9730 C   0  0  0  0  0  0  0  0  0  0  0  0
    9.9640    1.4530   24.1750 C   0  0  0  0  0  0  0  0  0  0  0  0
   11.4050    1.3110   23.8180 C   0  0  0  0  0  0  0  0  0  0  0  0
   11.2680   -1.1140   22.2550 C   0  0  2  0  0  0  0  0  0  0  0  0
   11.6470   -2.0820   23.1500 C   0  0  0  0  0  0  0  0  0  0  0  0
   12.0400   -1.5950   24.3730 C   0  0  0  0  0  0  0  0  0  0  0  0
   13.2260   -1.0310   24.1470 C   0  0  0  0  0  0  0  0  0  0  0  0
   13.3480   -0.5590   22.8460 C   0  0  0  0  0  0  0  0  0  0  0  0
   12.1320   -0.2670   22.2060 O   0  0  0  0  0  0  0  0  0  0  0  0
  1  2  2  0
  2  3  1  0
  3  4  1  0
  4  5  2  0
  5  6  1  0
  6  7  2  0
  7  8  1  0
  4  9  1  0
  8  9  2  0
  2 10  1  0
 11 10  1  1
 11 12  1  0
 12 13  1  0
 12 14  1  0
 13 14  1  0
 11 15  1  0
 15 16  1  1
 16 17  1  0
 17 18  1  0
 18 19  1  0
 15 20  1  0
 19 20  1  0
M  END
