pyridine_urea_4407
     RDKit          3D

 23 24  0  0  0  0  0  0  0  0999 V2000
   13.1700   -2.2270   22.1380 C   0  0  0  0  0  0  0  0  0  0  0  0
   13.3710   -1.1660   23.0660 O   0  0  0  0  0  0  0  0  0  0  0  0
   12.6090   -1.3340   24.2660 C   0  0  0  0  0  0  0  0  0  0  0  0
   13.1150   -1.5480   25.3560 O   0  0  0  0  0  0  0  0  0  0  0  0
   11.1020   -1.2570   24.0010 C   0  0  0  0  0  0  0  0  0  0  0  0
   10.7850   -0.4620   22.7320 C   0  0  1  0  0  0  0  0  0  0  0  0
    9.4210   -0.8410   22.1710 N   0  0  0  0  0  0  0  0  0  0  0  0
    8.6450    0.0410   21.4000 C   0  0  0  0  0  0  0  0  0  0  0  0
    9.0020    1.1990   21.1300 O   0  0  0  0  0  0  0  0  0  0  0  0
    7.4280   -0.5490   20.9740 N   0  0  0  0  0  0  0  0  0  0  0  0
    6.5960    0.0720   20.0640 C   0  0  0  0  0  0  0  0  0  0  0  0
    5.3120    0.8330   20.4110 C   0  0  0  0  0  0  0  0  0  0  0  0
    4.6420    1.3950   19.3190 C   0  0  0  0  0  0  0  0  0  0  0  0
    5.1490    1.2420   18.0370 C   0  0  0  0  0  0  0  0  0  0  0  0
    6.2670    0.5700   17.7320 N   0  0  0  0  0  0  0  0  0  0  0  0
    6.9560    0.0040   18.7380 C   0  0  0  0  0  0  0  0  0  0  0  0
   10.7920    1.0360   22.8370 C   0  0  0  0  0  0  0  0  0  0  0  0
   11.6590    0.0270   22.5340 C   0  0  0  0  0  0  0  0  0  0  0  0
   11.0390   -1.3110   22.6620 C   0  0  0  0  0  0  0  0  0  0  0  0
    9.7270   -1.4960   23.0470 N   0  0  0  0  0  0  0  0  0  0  0  0
    8.9370   -0.3930   23.3280 C   0  0  0  0  0  0  0  0  0  0  0  0
    7.3050   -0.7430   23.8040 Cl  0  0  0  0  0  0  0  0  0  0  0  0
    9.4610    1.0340   23.2320 C   0  0  0  0  0  0  0  0  0  0  0  0
  1  2  1  0
  2  3  1  0
  3  4  2  0
  3  5  1  0
  6  5  1  1
  6  7  1  0
  7  8  1  0
  8  9  2  0
  8 10  1  0
 10 11  1  0
 11 12  2  0
 12 13  1  0
 13 14  2  0
 14 15  1  0
 11 16  1  0
 15 16  2  0
  6 17  1  0
 17 18  2  0
 18 19  1  0
 19 20  2  0
 20 21  1  0
 21 22  1  0
 17 23  1  0
 21 23  2  0
M  END
