pyridine_urea_4427
     RDKit          3D

 23 24  0  0  0  0  0  0  0  0999 V2000
   12.8740    1.3270   22.9970 C   0  0  0  0  0  0  0  0  0  0  0  0
   13.9320    0.3890   22.7780 O   0  0  0  0  0  0  0  0  0  0  0  0
   13.5270   -0.9340   23.0910 C   0  0  0  0  0  0  0  0  0  0  0  0
   12.1170   -0.8560   23.3730 C   0  0  0  0  0  0  0  0  0  0  0  0
   11.1500   -1.2220   22.3270 C   0  0  0  0  0  0  0  0  0  0  0  0
    9.7080   -1.1120   22.6570 C   0  0  0  0  0  0  0  0  0  0  0  0
    8.7260   -1.4360   21.7130 N   0  0  0  0  0  0  0  0  0  0  0  0
    8.0850   -0.3400   21.2700 C   0  0  0  0  0  0  0  0  0  0  0  0
    8.6140    0.7590   21.1880 O   0  0  0  0  0  0  0  0  0  0  0  0
    6.8110   -0.6390   20.9380 N   0  0  0  0  0  0  0  0  0  0  0  0
    6.2340    0.0520   19.9010 C   0  0  0  0  0  0  0  0  0  0  0  0
    5.0360    0.7240   20.1000 C   0  0  0  0  0  0  0  0  0  0  0  0
    4.4760    1.4330   19.0450 C   0  0  0  0  0  0  0  0  0  0  0  0
    5.1470    1.4360   17.8370 C   0  0  0  0  0  0  0  0  0  0  0  0
    6.3010    0.7850   17.6340 N   0  0  0  0  0  0  0  0  0  0  0  0
    6.8130    0.1110   18.6660 C   0  0  0  0  0  0  0  0  0  0  0  0
    9.2150   -0.7000   23.8510 C   0  0  0  0  0  0  0  0  0  0  0  0
   10.1000   -0.3230   24.9530 C   0  0  0  0  0  0  0  0  0  0  0  0
    9.4560    0.0800   26.1570 C   0  0  0  0  0  0  0  0  0  0  0  0
    8.3100    0.5110   26.0570 O   0  0  0  0  0  0  0  0  0  0  0  0
   10.1480   -0.0630   27.3780 O   0  0  0  0  0  0  0  0  0  0  0  0
    9.3570    0.2930   28.5160 C   0  0  0  0  0  0  0  0  0  0  0  0
   11.6300   -0.3910   24.7420 C   0  0  0  0  0  0  0  0  0  0  0  0
  1  2  1  0
  2  3  1  0
  3  4  1  0
  4  5  2  0
  5  6  1  0
  6  7  1  0
  7  8  1  0
  8  9  2  0
  8 10  1  0
 10 11  1  0
 11 12  2  0
 12 13  1  0
 13 14  2  0
 14 15  1  0
 11 16  1  0
 15 16  2  0
  6 17  2  0
 17 18  1  0
 18 19  1  0
 19 20  2  0
 19 21  1  0
 21 22  1  0
  4 23  1  0
 18 23  2  0
M  END
