pyridine_urea_6890
     RDKit          3D

 20 21  0  0  0  0  0  0  0  0999 V2000
   12.7740   -2.1920   22.1200 C   0  0  0  0  0  0  0  0  0  0  0  0
   11.6410   -1.8070   23.0590 C   0  0  0  0  0  0  0  0  0  0  0  0
   10.7280   -0.8540   22.6430 C   0  0  1  0  0  0  0  0  0  0  0  0
    9.3930   -1.4370   22.4020 N   0  0  0  0  0  0  0  0  0  0  0  0
    8.5120   -0.5290   21.6130 C   0  0  0  0  0  0  0  0  0  0  0  0
    9.0320    0.5870   21.4200 O   0  0  0  0  0  0  0  0  0  0  0  0
    7.2470   -0.9280   21.1750 N   0  0  0  0  0  0  0  0  0  0  0  0
    6.5530   -0.1620   20.1260 C   0  0  0  0  0  0  0  0  0  0  0  0
    5.3850    0.5740   20.4100 C   0  0  0  0  0  0  0  0  0  0  0  0
    4.7290    1.3540   19.2460 C   0  0  0  0  0  0  0  0  0  0  0  0
    5.2330    1.3570   17.9600 C   0  0  0  0  0  0  0  0  0  0  0  0
    6.3570    0.6110   17.8020 N   0  0  0  0  0  0  0  0  0  0  0  0
    7.0150   -0.1270   18.7940 C   0  0  0  0  0  0  0  0  0  0  0  0
   10.5930    0.2270   23.6480 C   0  0  0  0  0  0  0  0  0  0  0  0
    9.8660    0.1190   24.6680 C   0  0  0  0  0  0  0  0  0  0  0  0
   10.6680    1.3330   24.2590 C   0  0  0  0  0  0  0  0  0  0  0  0
   11.1670    0.4660   23.0820 C   0  0  0  0  0  0  0  0  0  0  0  0
   11.8950    1.5890   22.6320 C   0  0  0  0  0  0  0  0  0  0  0  0
   12.3920    3.4040   22.8460 Br  0  0  0  0  0  0  0  0  0  0  0  0
   11.1780    1.5480   23.6640 C   0  0  0  0  0  0  0  0  0  0  0  0
  1  2  3  0
  3  2  1  1
  3  4  1  0
  4  5  1  0
  5  6  2  0
  5  7  1  0
  7  8  1  0
  8  9  2  0
  9 10  1  0
 10 11  2  0
 11 12  1  0
  8 13  1  0
 12 13  2  0
  3 14  1  0
 14 15  2  0
 15 16  1  0
 16 17  2  0
 17 18  1  0
 18 19  1  0
 14 20  1  0
 18 20  2  0
M  END
