pyridine_urea_9134
     RDKit          3D

 19 20  0  0  0  0  0  0  0  0999 V2000
   10.4320   -4.5200   25.8760 C   0  0  0  0  0  0  0  0  0  0  0  0
    9.8230   -3.4560   24.9170 C   0  0  0  0  0  0  0  0  0  0  0  0
   10.8560   -2.6240   24.2900 N   0  0  0  0  0  0  0  0  0  0  0  0
   12.0340   -2.6850   24.9330 N   0  0  0  0  0  0  0  0  0  0  0  0
   12.9710   -1.8220   24.2050 C   0  0  0  0  0  0  0  0  0  0  0  0
   12.2900   -1.2660   23.1310 N   0  0  0  0  0  0  0  0  0  0  0  0
   11.0580   -1.7690   23.2250 C   0  0  0  0  0  0  0  0  0  0  0  0
   10.0420   -1.4660   22.3060 C   0  0  1  0  0  0  0  0  0  0  0  0
    9.3220   -2.5750   21.9350 C   0  0  0  0  0  0  0  0  0  0  0  0
    9.1470   -0.4940   22.7490 N   0  0  0  0  0  0  0  0  0  0  0  0
    8.5910    0.2140   21.6730 C   0  0  0  0  0  0  0  0  0  0  0  0
    9.0710    1.2820   21.2850 O   0  0  0  0  0  0  0  0  0  0  0  0
    7.4700   -0.4080   21.1540 N   0  0  0  0  0  0  0  0  0  0  0  0
    6.6820    0.1200   20.1140 C   0  0  0  0  0  0  0  0  0  0  0  0
    5.5420    0.8520   20.4430 C   0  0  0  0  0  0  0  0  0  0  0  0
    4.7530    1.4000   19.4280 C   0  0  0  0  0  0  0  0  0  0  0  0
    5.1470    1.1870   18.1050 C   0  0  0  0  0  0  0  0  0  0  0  0
    6.2330    0.4830   17.7600 N   0  0  0  0  0  0  0  0  0  0  0  0
    6.9710   -0.0350   18.7680 C   0  0  0  0  0  0  0  0  0  0  0  0
  1  2  1  0
  2  3  1  0
  3  4  1  0
  4  5  2  0
  5  6  1  0
  3  7  1  0
  6  7  2  0
  7  8  1  0
  8  9  1  1
  8 10  1  0
 10 11  1  0
 11 12  2  0
 11 13  1  0
 13 14  1  0
 14 15  2  0
 15 16  1  0
 16 17  2  0
 17 18  1  0
 14 19  1  0
 18 19  2  0
M  END
