pyridine_urea_9609
     RDKit          3D

 29 31  0  0  0  0  0  0  0  0999 V2000
    8.9020    1.1090   21.1050 O   0  0  0  0  0  0  0  0  0  0  0  0
    8.5390    0.0130   21.5540 C   0  0  0  0  0  0  0  0  0  0  0  0
    7.4110   -0.6540   21.0840 N   0  0  0  0  0  0  0  0  0  0  0  0
    6.6450    0.0110   20.0530 C   0  0  0  0  0  0  0  0  0  0  0  0
    5.3890    0.7780   20.4630 C   0  0  0  0  0  0  0  0  0  0  0  0
    4.6000    1.4900   19.3590 C   0  0  0  0  0  0  0  0  0  0  0  0
    5.1760    1.3520   17.9500 C   0  0  0  0  0  0  0  0  0  0  0  0
    6.3360    0.6060   17.7440 N   0  0  0  0  0  0  0  0  0  0  0  0
    7.0260   -0.0300   18.7360 C   0  0  0  0  0  0  0  0  0  0  0  0
    9.2010   -0.6950   22.5880 N   0  0  0  0  0  0  0  0  0  0  0  0
   10.5520   -0.4000   23.0510 C   0  0  2  0  0  0  0  0  0  0  0  0
   10.9070    0.9770   22.9560 C   0  0  0  0  0  0  0  0  0  0  0  0
   12.2440    1.3870   23.0060 C   0  0  0  0  0  0  0  0  0  0  0  0
   12.5920    2.7300   22.8840 C   0  0  0  0  0  0  0  0  0  0  0  0
   11.6800    3.7620   22.7190 C   0  0  0  0  0  0  0  0  0  0  0  0
   12.0210    5.4240   22.5670 Cl  0  0  0  0  0  0  0  0  0  0  0  0
   10.3320    3.4190   22.6730 C   0  0  0  0  0  0  0  0  0  0  0  0
    9.9230    1.9900   22.7920 C   0  0  0  0  0  0  0  0  0  0  0  0
   11.5990   -1.1750   22.2090 C   0  0  0  0  0  0  0  0  0  0  0  0
   12.3350   -0.1240   22.8750 C   0  0  0  0  0  0  0  0  0  0  0  0
   11.4620    0.5350   23.7590 C   0  0  0  0  0  0  0  0  0  0  0  0
   10.0770    0.0800   23.8400 C   0  0  0  0  0  0  0  0  0  0  0  0
    9.0650    0.5890   24.6660 C   0  0  0  0  0  0  0  0  0  0  0  0
    7.8050    0.2050   24.4140 F   0  0  0  0  0  0  0  0  0  0  0  0
    9.0680    1.9300   24.5790 F   0  0  0  0  0  0  0  0  0  0  0  0
    9.3000    0.2170   25.9370 F   0  0  0  0  0  0  0  0  0  0  0  0
    9.5290   -1.1130   22.9620 C   0  0  0  0  0  0  0  0  0  0  0  0
   10.3940   -1.7450   22.1070 C   0  0  0  0  0  0  0  0  0  0  0  0
   10.0320   -2.7620   21.3610 F   0  0  0  0  0  0  0  0  0  0  0  0
  1  2  2  0
  2  3  1  0
  3  4  1  0
  4  5  2  0
  5  6  1  0
  6  7  2  0
  7  8  1  0
  4  9  1  0
  8  9  2  0
  2 10  1  0
 11 10  1  6
 11 12  1  0
 12 13  2  0
 13 14  1  0
 14 15  2  0
 15 16  1  0
 15 17  1  0
 12 18  1  0
 17 18  2  0
 11 19  1  0
 19 20  2  0
 20 21  1  0
 21 22  2  0
 22 23  1  0
 23 24  1  0
 23 25  1  0
 23 26  1  0
 22 27  1  0
 19 28  1  0
 27 28  2  0
 28 29  1  0
M  END
