pyridine_urea_14936
     RDKit          3D

 19 20  0  0  0  0  0  0  0  0999 V2000
    8.9250    1.1770   21.2180 O   0  0  0  0  0  0  0  0  0  0  0  0
    8.2200    0.2880   21.7170 C   0  0  0  0  0  0  0  0  0  0  0  0
    8.2600   -0.1060   23.0410 N   0  0  0  0  0  0  0  0  0  0  0  0
    9.3850   -0.7930   23.6090 C   0  0  0  0  0  0  0  0  0  0  0  0
   10.5140    0.1320   23.9960 C   0  0  0  0  0  0  0  0  0  0  0  0
   11.6720   -0.3510   23.1900 C   0  0  0  0  0  0  0  0  0  0  0  0
   12.2740    0.9220   23.6330 C   0  0  0  0  0  0  0  0  0  0  0  0
   13.0250   -0.0200   22.7440 C   0  0  0  0  0  0  0  0  0  0  0  0
   12.1940   -1.3130   22.3820 C   0  0  0  0  0  0  0  0  0  0  0  0
   12.1350   -2.3790   21.7910 O   0  0  0  0  0  0  0  0  0  0  0  0
   13.4130   -1.2610   21.8520 C   0  0  0  0  0  0  0  0  0  0  0  0
   13.0550   -0.1890   22.6450 N   0  0  0  0  0  0  0  0  0  0  0  0
    7.2620   -0.4220   21.0250 N   0  0  0  0  0  0  0  0  0  0  0  0
    6.5860    0.1110   19.9930 C   0  0  0  0  0  0  0  0  0  0  0  0
    5.4810    0.8810   20.3120 C   0  0  0  0  0  0  0  0  0  0  0  0
    4.7310    1.4920   19.3380 C   0  0  0  0  0  0  0  0  0  0  0  0
    5.1160    1.3120   18.0370 C   0  0  0  0  0  0  0  0  0  0  0  0
    6.1860    0.5590   17.6600 N   0  0  0  0  0  0  0  0  0  0  0  0
    6.9980   -0.1050   18.6860 C   0  0  0  0  0  0  0  0  0  0  0  0
  1  2  2  0
  2  3  1  0
  3  4  1  0
  4  5  1  0
  5  6  1  0
  6  7  2  0
  7  8  1  0
  8  9  2  0
  9 10  1  0
  9 11  1  0
  6 12  1  0
 11 12  2  0
  2 13  1  0
 13 14  1  0
 14 15  2  0
 15 16  1  0
 16 17  2  0
 17 18  1  0
 14 19  1  0
 18 19  2  0
M  END
