pyridine_urea_3511
     RDKit          3D

 18 19  0  0  0  0  0  0  0  0999 V2000
    5.3140    1.0370   25.0730 C   0  0  0  0  0  0  0  0  0  0  0  0
    6.7640    1.4870   25.3440 C   0  0  0  0  0  0  0  0  0  0  0  0
    7.7070    0.3450   24.9930 C   0  0  0  0  0  0  0  0  0  0  0  0
    8.0420   -0.6170   25.8870 N   0  0  0  0  0  0  0  0  0  0  0  0
    8.8950   -1.4690   25.2300 N   0  0  0  0  0  0  0  0  0  0  0  0
    9.0150   -0.9320   23.9340 C   0  0  0  0  0  0  0  0  0  0  0  0
    9.8670   -1.5670   22.8240 C   0  0  0  0  0  0  0  0  0  0  0  0
    9.3260   -1.2500   21.6120 N   0  0  0  0  0  0  0  0  0  0  0  0
    8.5080   -0.1480   21.3570 C   0  0  0  0  0  0  0  0  0  0  0  0
    8.9390    0.9960   21.3900 O   0  0  0  0  0  0  0  0  0  0  0  0
    7.2250   -0.5280   21.0490 N   0  0  0  0  0  0  0  0  0  0  0  0
    6.5030    0.0810   20.0210 C   0  0  0  0  0  0  0  0  0  0  0  0
    5.3340    0.7890   20.3200 C   0  0  0  0  0  0  0  0  0  0  0  0
    4.6350    1.4080   19.2830 C   0  0  0  0  0  0  0  0  0  0  0  0
    5.1260    1.2970   18.0000 C   0  0  0  0  0  0  0  0  0  0  0  0
    6.2380    0.6170   17.6950 N   0  0  0  0  0  0  0  0  0  0  0  0
    6.8990    0.0270   18.7060 C   0  0  0  0  0  0  0  0  0  0  0  0
    8.2580    0.2530   23.7380 O   0  0  0  0  0  0  0  0  0  0  0  0
  1  2  1  0
  2  3  1  0
  3  4  2  0
  4  5  1  0
  5  6  2  0
  6  7  1  0
  7  8  1  0
  8  9  1  0
  9 10  2  0
  9 11  1  0
 11 12  1  0
 12 13  2  0
 13 14  1  0
 14 15  2  0
 15 16  1  0
 12 17  1  0
 16 17  2  0
  3 18  1  0
  6 18  1  0
M  END
