pyridine_urea_14220
     RDKit          3D

 22 23  0  0  0  0  0  0  0  0999 V2000
    8.6060    1.2640   20.9750 O   0  0  0  0  0  0  0  0  0  0  0  0
    8.1780    0.1550   21.3150 C   0  0  0  0  0  0  0  0  0  0  0  0
    8.8960   -0.6990   22.1940 N   0  0  0  0  0  0  0  0  0  0  0  0
   10.1890   -0.3030   22.4570 C   0  0  0  0  0  0  0  0  0  0  0  0
   10.4410    1.0680   22.6430 C   0  0  0  0  0  0  0  0  0  0  0  0
   11.8090    1.2180   22.7200 C   0  0  0  0  0  0  0  0  0  0  0  0
   12.3220    0.0040   22.9510 C   0  0  0  0  0  0  0  0  0  0  0  0
   13.5950   -0.5040   22.7560 C   0  0  0  0  0  0  0  0  0  0  0  0
   13.6770   -1.8430   23.1330 N   0  0  0  0  0  0  0  0  0  0  0  0
   12.5110   -2.4010   23.6100 N   0  0  0  0  0  0  0  0  0  0  0  0
   11.6650   -1.2260   23.4850 C   0  0  0  0  0  0  0  0  0  0  0  0
   10.2490   -1.4020   23.9050 C   0  0  0  0  0  0  0  0  0  0  0  0
    9.5890   -2.5210   23.5560 F   0  0  0  0  0  0  0  0  0  0  0  0
   10.3230   -1.4540   25.2010 F   0  0  0  0  0  0  0  0  0  0  0  0
    9.4170   -0.3650   23.6330 F   0  0  0  0  0  0  0  0  0  0  0  0
    7.0090   -0.4210   20.9330 N   0  0  0  0  0  0  0  0  0  0  0  0
    6.2820    0.2030   19.9560 C   0  0  0  0  0  0  0  0  0  0  0  0
    5.0820    0.8780   20.1390 C   0  0  0  0  0  0  0  0  0  0  0  0
    4.4870    1.4870   19.0420 C   0  0  0  0  0  0  0  0  0  0  0  0
    5.1250    1.3840   17.8260 C   0  0  0  0  0  0  0  0  0  0  0  0
    6.2730    0.7270   17.6330 N   0  0  0  0  0  0  0  0  0  0  0  0
    6.8210    0.1540   18.7000 C   0  0  0  0  0  0  0  0  0  0  0  0
  1  2  2  0
  2  3  1  0
  3  4  1  0
  4  5  1  0
  5  6  1  0
  6  7  1  0
  7  8  2  0
  8  9  1  0
  9 10  1  0
  7 11  1  0
 10 11  2  0
 11 12  1  0
 12 13  1  0
 12 14  1  0
 12 15  1  0
  2 16  1  0
 16 17  1  0
 17 18  2  0
 18 19  1  0
 19 20  2  0
 20 21  1  0
 17 22  1  0
 21 22  2  0
M  END
