pyridine_urea_12865
     RDKit          3D

 21 23  0  0  0  0  0  0  0  0999 V2000
    8.6700    1.2470   21.0020 O   0  0  0  0  0  0  0  0  0  0  0  0
    8.1960    0.2160   21.4990 C   0  0  0  0  0  0  0  0  0  0  0  0
    7.0060   -0.3250   21.1220 N   0  0  0  0  0  0  0  0  0  0  0  0
    6.4510    0.1980   19.9330 C   0  0  0  0  0  0  0  0  0  0  0  0
    5.1920    1.0460   20.1400 C   0  0  0  0  0  0  0  0  0  0  0  0
    4.5740    1.6350   19.0540 C   0  0  0  0  0  0  0  0  0  0  0  0
    5.1420    1.4240   17.8050 C   0  0  0  0  0  0  0  0  0  0  0  0
    6.2620    0.6500   17.6690 N   0  0  0  0  0  0  0  0  0  0  0  0
    6.9370    0.0200   18.7080 C   0  0  0  0  0  0  0  0  0  0  0  0
    8.7430   -0.5130   22.4800 N   0  0  0  0  0  0  0  0  0  0  0  0
    9.3330   -1.1680   23.4630 C   0  0  1  0  0  0  0  0  0  0  0  0
    9.5370   -2.5310   23.2440 C   0  0  0  0  0  0  0  0  0  0  0  0
   10.3420   -2.7860   22.1190 O   0  0  0  0  0  0  0  0  0  0  0  0
   11.3760   -1.9540   22.2240 C   0  0  0  0  0  0  0  0  0  0  0  0
   12.4400   -1.9090   21.6820 C   0  0  0  0  0  0  0  0  0  0  0  0
   12.3050   -0.8840   22.5780 C   0  0  0  0  0  0  0  0  0  0  0  0
   13.4730   -0.5300   22.2210 C   0  0  0  0  0  0  0  0  0  0  0  0
   13.1960   -2.0390   21.1570 Br  0  0  0  0  0  0  0  0  0  0  0  0
   12.8880    0.2590   23.1750 C   0  0  0  0  0  0  0  0  0  0  0  0
   11.6260   -0.7470   23.0580 C   0  0  0  0  0  0  0  0  0  0  0  0
   10.5680   -0.5070   23.8310 C   0  0  0  0  0  0  0  0  0  0  0  0
  1  2  2  0
  2  3  1  0
  3  4  1  0
  4  5  2  0
  5  6  1  0
  6  7  2  0
  7  8  1  0
  4  9  1  0
  8  9  2  0
  2 10  1  0
 11 10  1  6
 11 12  1  0
 12 13  1  0
 13 14  1  0
 14 15  2  0
 15 16  1  0
 16 17  2  0
 17 18  1  0
 17 19  1  0
 14 20  1  0
 19 20  2  0
 11 21  1  0
 20 21  1  0
M  END
