pyridine_urea_1012
     RDKit          3D

 22 24  0  0  0  0  0  0  0  0999 V2000
    8.8180    1.3040   21.0550 O   0  0  0  0  0  0  0  0  0  0  0  0
    8.3100    0.2710   21.5070 C   0  0  0  0  0  0  0  0  0  0  0  0
    8.7710   -0.3110   22.7340 N   0  0  0  0  0  0  0  0  0  0  0  0
    9.4660    0.5860   23.5310 C   0  0  0  0  0  0  0  0  0  0  0  0
   10.3910    0.0630   24.3970 C   0  0  0  0  0  0  0  0  0  0  0  0
   11.4690   -0.6080   25.0360 C   0  0  0  0  0  0  0  0  0  0  0  0
   12.5000   -1.4220   24.5670 C   0  0  0  0  0  0  0  0  0  0  0  0
   13.8370   -2.3470   25.5790 Br  0  0  0  0  0  0  0  0  0  0  0  0
   12.6890   -1.7340   23.2300 C   0  0  0  0  0  0  0  0  0  0  0  0
   11.6830   -1.1960   22.4280 C   0  0  0  0  0  0  0  0  0  0  0  0
   10.6190   -0.3360   23.0460 C   0  0  0  0  0  0  0  0  0  0  0  0
   11.6840   -1.4710   21.1610 O   0  0  0  0  0  0  0  0  0  0  0  0
   12.7420   -2.2680   20.8420 C   0  0  0  0  0  0  0  0  0  0  0  0
   13.0920   -3.0610   21.8900 C   0  0  0  0  0  0  0  0  0  0  0  0
   13.6600   -2.4720   22.7390 O   0  0  0  0  0  0  0  0  0  0  0  0
    7.2500   -0.4240   20.9580 N   0  0  0  0  0  0  0  0  0  0  0  0
    6.4660    0.1670   20.0190 C   0  0  0  0  0  0  0  0  0  0  0  0
    5.2970    0.8570   20.2640 C   0  0  0  0  0  0  0  0  0  0  0  0
    4.6320    1.4230   19.2090 C   0  0  0  0  0  0  0  0  0  0  0  0
    5.1220    1.3070   17.9260 C   0  0  0  0  0  0  0  0  0  0  0  0
    6.2440    0.6330   17.6560 N   0  0  0  0  0  0  0  0  0  0  0  0
    6.8850    0.0830   18.7060 C   0  0  0  0  0  0  0  0  0  0  0  0
  1  2  2  0
  2  3  1  0
  3  4  1  0
  4  5  1  0
  5  6  2  0
  6  7  1  0
  7  8  1  0
  7  9  2  0
  9 10  1  0
  5 11  1  0
 10 11  2  0
 10 12  1  0
 12 13  1  0
 13 14  1  0
  9 15  1  0
 14 15  1  0
  2 16  1  0
 16 17  1  0
 17 18  2  0
 18 19  1  0
 19 20  2  0
 20 21  1  0
 17 22  1  0
 21 22  2  0
M  END
