pyridine_urea_5303
     RDKit          3D

 19 20  0  0  0  0  0  0  0  0999 V2000
   11.4600    3.7900   21.9900 C   0  0  0  0  0  0  0  0  0  0  0  0
   12.2510    2.6430   23.0850 S   0  0  0  0  0  0  0  0  0  0  0  0
   11.4870    0.9900   22.9190 C   0  0  0  0  0  0  0  0  0  0  0  0
   10.1370    0.8270   22.8690 C   0  0  0  0  0  0  0  0  0  0  0  0
    9.6710   -0.4630   22.7020 C   0  0  0  0  0  0  0  0  0  0  0  0
    8.4290   -0.8590   22.5920 N   0  0  0  0  0  0  0  0  0  0  0  0
    7.9360   -0.2390   21.5190 C   0  0  0  0  0  0  0  0  0  0  0  0
    8.4200    0.8070   21.1050 O   0  0  0  0  0  0  0  0  0  0  0  0
    6.8970   -0.8830   20.9910 N   0  0  0  0  0  0  0  0  0  0  0  0
    6.3020   -0.1480   20.0370 C   0  0  0  0  0  0  0  0  0  0  0  0
    5.1310    0.5950   20.2010 C   0  0  0  0  0  0  0  0  0  0  0  0
    4.5180    1.4240   19.0680 C   0  0  0  0  0  0  0  0  0  0  0  0
    5.1750    1.4130   17.8550 C   0  0  0  0  0  0  0  0  0  0  0  0
    6.3080    0.6700   17.7440 N   0  0  0  0  0  0  0  0  0  0  0  0
    6.8760   -0.0930   18.7710 C   0  0  0  0  0  0  0  0  0  0  0  0
   10.6350   -1.6250   22.5980 C   0  0  0  0  0  0  0  0  0  0  0  0
   11.9710   -1.3490   22.6720 C   0  0  0  0  0  0  0  0  0  0  0  0
   12.3530   -0.0520   22.8260 C   0  0  0  0  0  0  0  0  0  0  0  0
   13.6180    0.1160   22.8690 C   0  0  0  0  0  0  0  0  0  0  0  0
  1  2  1  0
  2  3  1  0
  3  4  2  0
  4  5  1  0
  5  6  1  0
  6  7  1  0
  7  8  2  0
  7  9  1  0
  9 10  1  0
 10 11  2  0
 11 12  1  0
 12 13  2  0
 13 14  1  0
 10 15  1  0
 14 15  2  0
  5 16  2  0
 16 17  1  0
  3 18  1  0
 17 18  2  0
 18 19  1  0
M  END
