pyridine_urea_1662
     RDKit          3D

 18 19  0  0  0  0  0  0  0  0999 V2000
    9.0080    0.7980   21.4320 O   0  0  0  0  0  0  0  0  0  0  0  0
    8.5400   -0.3280   21.2930 C   0  0  0  0  0  0  0  0  0  0  0  0
    7.2260   -0.6150   21.0440 N   0  0  0  0  0  0  0  0  0  0  0  0
    6.5120    0.0200   20.0250 C   0  0  0  0  0  0  0  0  0  0  0  0
    5.3420    0.7260   20.3260 C   0  0  0  0  0  0  0  0  0  0  0  0
    4.6440    1.3730   19.3040 C   0  0  0  0  0  0  0  0  0  0  0  0
    5.1440    1.2870   18.0210 C   0  0  0  0  0  0  0  0  0  0  0  0
    6.2560    0.6100   17.7090 N   0  0  0  0  0  0  0  0  0  0  0  0
    6.9120   -0.0050   18.7120 C   0  0  0  0  0  0  0  0  0  0  0  0
    9.3350   -1.4420   21.3540 N   0  0  0  0  0  0  0  0  0  0  0  0
   10.4280   -1.4260   22.2950 C   0  0  0  0  0  0  0  0  0  0  0  0
   11.8820   -1.4880   21.8380 C   0  0  0  0  0  0  0  0  0  0  0  0
   12.8520   -1.4400   22.7950 C   0  0  0  0  0  0  0  0  0  0  0  0
   12.4810   -1.3580   24.1340 C   0  0  0  0  0  0  0  0  0  0  0  0
   13.3750   -1.3300   25.1520 O   0  0  0  0  0  0  0  0  0  0  0  0
   11.1300   -1.3230   24.5080 C   0  0  0  0  0  0  0  0  0  0  0  0
   10.1090   -1.3590   23.5940 C   0  0  0  0  0  0  0  0  0  0  0  0
    8.2620   -1.3530   24.0070 Br  0  0  0  0  0  0  0  0  0  0  0  0
  1  2  2  0
  2  3  1  0
  3  4  1  0
  4  5  2  0
  5  6  1  0
  6  7  2  0
  7  8  1  0
  4  9  1  0
  8  9  2  0
  2 10  1  0
 10 11  1  0
 11 12  2  0
 12 13  1  0
 13 14  2  0
 14 15  1  0
 14 16  1  0
 11 17  1  0
 16 17  2  0
 17 18  1  0
M  END
