pyridine_urea_4583
     RDKit          3D

 22 24  0  0  0  0  0  0  0  0999 V2000
   13.8960   -3.8850   26.0220 C   0  0  0  0  0  0  0  0  0  0  0  0
   14.5840   -2.6190   25.7610 C   0  0  0  0  0  0  0  0  0  0  0  0
   13.8540   -1.5900   26.2460 O   0  0  0  0  0  0  0  0  0  0  0  0
   13.0080   -1.2950   25.2350 C   0  0  0  0  0  0  0  0  0  0  0  0
   11.9060   -0.6540   25.5210 N   0  0  0  0  0  0  0  0  0  0  0  0
   11.3070   -0.6040   24.4840 C   0  0  0  0  0  0  0  0  0  0  0  0
    9.9900   -0.0700   24.1690 C   0  0  0  0  0  0  0  0  0  0  0  0
    9.5120   -0.2110   22.8020 C   0  0  0  0  0  0  0  0  0  0  0  0
    8.3090    0.2420   22.5720 N   0  0  0  0  0  0  0  0  0  0  0  0
    7.9350    0.5480   21.3230 C   0  0  0  0  0  0  0  0  0  0  0  0
    8.4330    1.4960   20.7380 O   0  0  0  0  0  0  0  0  0  0  0  0
    7.0060   -0.3110   20.9170 N   0  0  0  0  0  0  0  0  0  0  0  0
    6.3850    0.2300   19.8970 C   0  0  0  0  0  0  0  0  0  0  0  0
    5.2220    0.9470   20.1070 C   0  0  0  0  0  0  0  0  0  0  0  0
    4.5630    1.5540   19.0760 C   0  0  0  0  0  0  0  0  0  0  0  0
    5.1100    1.4170   17.8160 C   0  0  0  0  0  0  0  0  0  0  0  0
    6.2290    0.7150   17.5720 N   0  0  0  0  0  0  0  0  0  0  0  0
    6.8390    0.1410   18.6180 C   0  0  0  0  0  0  0  0  0  0  0  0
   10.3790   -0.8610   21.7440 C   0  0  0  0  0  0  0  0  0  0  0  0
   11.6360   -1.3560   21.9920 C   0  0  0  0  0  0  0  0  0  0  0  0
   12.0760   -1.2350   23.3460 C   0  0  0  0  0  0  0  0  0  0  0  0
   13.2960   -1.7080   23.8550 O   0  0  0  0  0  0  0  0  0  0  0  0
  1  2  1  0
  2  3  1  0
  3  4  1  0
  4  5  2  0
  5  6  1  0
  6  7  2  0
  7  8  1  0
  8  9  1  0
  9 10  1  0
 10 11  2  0
 10 12  1  0
 12 13  1  0
 13 14  2  0
 14 15  1  0
 15 16  2  0
 16 17  1  0
 13 18  1  0
 17 18  2  0
  8 19  2  0
 19 20  1  0
  6 21  1  0
 20 21  2  0
  4 22  1  0
 21 22  1  0
M  END
