pyridine_urea_1302
     RDKit          3D

 21 23  0  0  0  0  0  0  0  0999 V2000
    8.4230    1.4450   20.9680 O   0  0  0  0  0  0  0  0  0  0  0  0
    8.4080    0.2880   21.3850 C   0  0  0  0  0  0  0  0  0  0  0  0
    7.3620   -0.5400   21.0930 N   0  0  0  0  0  0  0  0  0  0  0  0
    6.6500    0.0050   19.9770 C   0  0  0  0  0  0  0  0  0  0  0  0
    5.3990    0.8340   20.3100 C   0  0  0  0  0  0  0  0  0  0  0  0
    4.6630    1.4290   19.2930 C   0  0  0  0  0  0  0  0  0  0  0  0
    5.1060    1.2440   17.9910 C   0  0  0  0  0  0  0  0  0  0  0  0
    6.2200    0.4890   17.7360 N   0  0  0  0  0  0  0  0  0  0  0  0
    7.0050   -0.1400   18.7030 C   0  0  0  0  0  0  0  0  0  0  0  0
    9.4250   -0.2390   22.1060 N   0  0  0  0  0  0  0  0  0  0  0  0
   10.5630   -0.5290   22.7470 C   0  0  0  0  0  0  0  0  0  0  0  0
   11.5440   -1.2500   22.0680 C   0  0  0  0  0  0  0  0  0  0  0  0
   12.7500   -1.5440   22.6680 C   0  0  0  0  0  0  0  0  0  0  0  0
   13.0170   -1.1400   23.9710 C   0  0  0  0  0  0  0  0  0  0  0  0
   12.0770   -0.4300   24.7040 C   0  0  0  0  0  0  0  0  0  0  0  0
   10.7860   -0.1150   24.0380 C   0  0  0  0  0  0  0  0  0  0  0  0
    9.9070    0.5180   24.6230 O   0  0  0  0  0  0  0  0  0  0  0  0
    9.3710   -0.1290   25.7800 C   0  0  0  0  0  0  0  0  0  0  0  0
    8.4830    0.7120   26.5190 C   0  0  0  0  0  0  0  0  0  0  0  0
    8.5620    0.5030   27.7610 C   0  0  0  0  0  0  0  0  0  0  0  0
    7.2990   -0.1480   27.1850 C   0  0  0  0  0  0  0  0  0  0  0  0
  1  2  2  0
  2  3  1  0
  3  4  1  0
  4  5  2  0
  5  6  1  0
  6  7  2  0
  7  8  1  0
  4  9  1  0
  8  9  2  0
  2 10  1  0
 10 11  1  0
 11 12  2  0
 12 13  1  0
 13 14  2  0
 14 15  1  0
 11 16  1  0
 15 16  2  0
 16 17  1  0
 17 18  1  0
 18 19  1  0
 19 20  1  0
 19 21  1  0
 20 21  1  0
M  END
