pyridine_urea_9951
     RDKit          3D

 24 26  0  0  0  0  0  0  0  0999 V2000
    8.8280    1.3620   21.2930 O   0  0  0  0  0  0  0  0  0  0  0  0
    8.5080    0.1760   21.1770 C   0  0  0  0  0  0  0  0  0  0  0  0
    7.2090   -0.2710   21.0840 N   0  0  0  0  0  0  0  0  0  0  0  0
    6.4010    0.2630   20.0860 C   0  0  0  0  0  0  0  0  0  0  0  0
    5.1970    0.9270   20.2770 C   0  0  0  0  0  0  0  0  0  0  0  0
    4.5280    1.4370   19.1690 C   0  0  0  0  0  0  0  0  0  0  0  0
    5.0920    1.2570   17.9240 C   0  0  0  0  0  0  0  0  0  0  0  0
    6.2410    0.6090   17.7100 N   0  0  0  0  0  0  0  0  0  0  0  0
    6.8590    0.1300   18.7900 C   0  0  0  0  0  0  0  0  0  0  0  0
    9.4120   -0.8540   21.0350 N   0  0  0  0  0  0  0  0  0  0  0  0
    9.7570   -1.7790   21.9340 C   0  0  2  0  0  0  0  0  0  0  0  0
    9.2240   -1.4610   23.0780 C   0  0  0  0  0  0  0  0  0  0  0  0
    7.9520   -1.3590   23.7350 C   0  0  0  0  0  0  0  0  0  0  0  0
    8.3580   -0.9190   25.0640 N   0  0  0  0  0  0  0  0  0  0  0  0
    9.7490   -0.8190   25.0420 C   0  0  0  0  0  0  0  0  0  0  0  0
   10.8420   -0.4930   25.8820 C   0  0  0  0  0  0  0  0  0  0  0  0
   12.4540   -0.5100   25.4160 C   0  0  0  0  0  0  0  0  0  0  0  0
   12.6340   -0.8520   24.1010 C   0  0  0  0  0  0  0  0  0  0  0  0
   11.4240   -0.8910   24.3190 C   0  0  0  0  0  0  0  0  0  0  0  0
   10.2690   -1.1040   23.9440 C   0  0  0  0  0  0  0  0  0  0  0  0
   11.2570   -1.6730   22.3430 C   0  0  0  0  0  0  0  0  0  0  0  0
   12.4780   -2.0700   21.1940 Cl  0  0  0  0  0  0  0  0  0  0  0  0
   11.6060   -0.0110   22.7440 Cl  0  0  0  0  0  0  0  0  0  0  0  0
   11.6750   -2.6660   23.7910 Cl  0  0  0  0  0  0  0  0  0  0  0  0
  1  2  2  0
  2  3  1  0
  3  4  1  0
  4  5  2  0
  5  6  1  0
  6  7  2  0
  7  8  1  0
  4  9  1  0
  8  9  2  0
  2 10  1  0
 11 10  1  6
 11 12  1  0
 12 13  2  0
 13 14  1  0
 14 15  1  0
 15 16  1  0
 16 17  2  0
 17 18  1  0
 18 19  2  0
 12 20  1  0
 15 20  2  0
 19 20  1  0
 11 21  1  0
 21 22  1  0
 21 23  1  0
 21 24  1  0
M  END
