pyridine_urea_10387
     RDKit          3D

 22 23  0  0  0  0  0  0  0  0999 V2000
   12.1070   -1.7060   24.3850 C   0  0  0  0  0  0  0  0  0  0  0  0
   11.3950   -0.4720   23.7420 C   0  0  0  0  0  0  0  0  0  0  0  0
   12.4980    0.5600   23.4100 C   0  0  0  0  0  0  0  0  0  0  0  0
   10.5320   -0.8640   22.5310 C   0  0  2  0  0  0  0  0  0  0  0  0
    9.0460   -0.6240   22.6620 N   0  0  0  0  0  0  0  0  0  0  0  0
    8.2540   -0.6130   21.5000 C   0  0  0  0  0  0  0  0  0  0  0  0
    8.6900   -0.9740   20.4860 O   0  0  0  0  0  0  0  0  0  0  0  0
    6.9730   -0.1970   21.6150 N   0  0  0  0  0  0  0  0  0  0  0  0
    6.3890    0.2630   20.4590 C   0  0  0  0  0  0  0  0  0  0  0  0
    5.2310    1.0380   20.4380 C   0  0  0  0  0  0  0  0  0  0  0  0
    4.6540    1.5050   19.2530 C   0  0  0  0  0  0  0  0  0  0  0  0
    5.2590    1.1860   18.0530 C   0  0  0  0  0  0  0  0  0  0  0  0
    6.3720    0.4440   17.9200 N   0  0  0  0  0  0  0  0  0  0  0  0
    6.9300   -0.0150   19.0750 C   0  0  0  0  0  0  0  0  0  0  0  0
   10.9730   -2.2960   22.2970 C   0  0  0  0  0  0  0  0  0  0  0  0
   12.0910   -1.4380   22.0730 C   0  0  0  0  0  0  0  0  0  0  0  0
   11.3550   -0.2020   22.4120 C   0  0  0  0  0  0  0  0  0  0  0  0
   10.0920    0.1470   22.7960 C   0  0  0  0  0  0  0  0  0  0  0  0
    9.6560    1.7970   23.0670 Cl  0  0  0  0  0  0  0  0  0  0  0  0
    9.1700   -0.9620   22.9450 C   0  0  0  0  0  0  0  0  0  0  0  0
    9.4720   -2.3650   22.7150 C   0  0  0  0  0  0  0  0  0  0  0  0
    8.6630   -3.4300   22.8400 F   0  0  0  0  0  0  0  0  0  0  0  0
  1  2  1  0
  2  3  1  0
  2  4  1  0
  4  5  1  1
  5  6  1  0
  6  7  2  0
  6  8  1  0
  8  9  1  0
  9 10  2  0
 10 11  1  0
 11 12  2  0
 12 13  1  0
  9 14  1  0
 13 14  2  0
  4 15  1  0
 15 16  2  0
 16 17  1  0
 17 18  2  0
 18 19  1  0
 18 20  1  0
 15 21  1  0
 20 21  2  0
 21 22  1  0
M  END
