pyridine_urea_1194
     RDKit          3D

 21 22  0  0  0  0  0  0  0  0999 V2000
   10.1300    0.8960   23.6230 C   0  0  0  0  0  0  0  0  0  0  0  0
   10.2600   -0.5960   23.1320 C   0  0  1  0  0  0  0  0  0  0  0  0
    9.2900   -0.9460   22.0470 N   0  0  0  0  0  0  0  0  0  0  0  0
    8.4060   -0.0610   21.4180 C   0  0  0  0  0  0  0  0  0  0  0  0
    8.7320    1.2990   21.0800 O   0  0  0  0  0  0  0  0  0  0  0  0
    7.2070   -0.7070   21.1750 N   0  0  0  0  0  0  0  0  0  0  0  0
    6.5290   -0.0180   20.1810 C   0  0  0  0  0  0  0  0  0  0  0  0
    5.3730    0.7530   20.3410 C   0  0  0  0  0  0  0  0  0  0  0  0
    4.7430    1.4150   19.2880 C   0  0  0  0  0  0  0  0  0  0  0  0
    5.2950    1.3020   18.0300 C   0  0  0  0  0  0  0  0  0  0  0  0
    6.4000    0.5780   17.8110 N   0  0  0  0  0  0  0  0  0  0  0  0
    6.9800   -0.0570   18.8630 C   0  0  0  0  0  0  0  0  0  0  0  0
   11.6960   -0.9430   22.6500 C   0  0  0  0  0  0  0  0  0  0  0  0
   11.8990   -2.1060   22.0640 C   0  0  0  0  0  0  0  0  0  0  0  0
   12.9600   -1.2400   22.2060 C   0  0  0  0  0  0  0  0  0  0  0  0
   11.9270   -0.2490   22.9760 C   0  0  0  0  0  0  0  0  0  0  0  0
   10.6440   -0.5320   23.2400 N   0  0  0  0  0  0  0  0  0  0  0  0
   10.4550   -1.5140   24.0020 O   0  0  0  0  0  0  0  0  0  0  0  0
    9.8440    0.4120   23.1380 O   0  0  0  0  0  0  0  0  0  0  0  0
   12.4570    0.9680   23.3820 C   0  0  0  0  0  0  0  0  0  0  0  0
   12.8930   -0.1130   22.7550 C   0  0  0  0  0  0  0  0  0  0  0  0
  2  1  1  6
  2  3  1  0
  3  4  1  0
  4  5  2  0
  4  6  1  0
  6  7  1  0
  7  8  2  0
  8  9  1  0
  9 10  2  0
 10 11  1  0
  7 12  1  0
 11 12  2  0
  2 13  1  0
 13 14  2  0
 14 15  1  0
 15 16  2  0
 16 17  1  0
 17 18  2  0
 17 19  1  0
 16 20  1  0
 13 21  1  0
 20 21  2  0
M  CHG  2  17   1  19  -1
M  END
