pyridine_urea_7701
     RDKit          3D

 18 19  0  0  0  0  0  0  0  0999 V2000
   13.1210   -1.7820   21.4620 C   0  0  0  0  0  0  0  0  0  0  0  0
   12.5460   -0.8940   22.5600 C   0  0  0  0  0  0  0  0  0  0  0  0
   13.1090    0.3690   22.7180 C   0  0  0  0  0  0  0  0  0  0  0  0
   11.0690   -0.6970   22.2580 C   0  0  0  0  0  0  0  0  0  0  0  0
   10.1220   -1.0570   23.1630 C   0  0  2  0  0  0  0  0  0  0  0  0
    8.8100   -0.5930   22.7330 N   0  0  0  0  0  0  0  0  0  0  0  0
    8.4360    0.0720   21.6000 C   0  0  0  0  0  0  0  0  0  0  0  0
    9.0320    1.1020   21.2440 O   0  0  0  0  0  0  0  0  0  0  0  0
    7.2880   -0.5840   20.9600 N   0  0  0  0  0  0  0  0  0  0  0  0
    6.5230    0.0700   20.0320 C   0  0  0  0  0  0  0  0  0  0  0  0
    5.2470    0.8590   20.3070 C   0  0  0  0  0  0  0  0  0  0  0  0
    4.6070    1.4740   19.2300 C   0  0  0  0  0  0  0  0  0  0  0  0
    5.1820    1.3230   17.9750 C   0  0  0  0  0  0  0  0  0  0  0  0
    6.2970    0.6320   17.6890 N   0  0  0  0  0  0  0  0  0  0  0  0
    6.9330    0.0280   18.7150 C   0  0  0  0  0  0  0  0  0  0  0  0
   10.4650   -0.5410   24.5470 C   0  0  0  0  0  0  0  0  0  0  0  0
   11.8240   -0.4040   24.8410 C   0  0  0  0  0  0  0  0  0  0  0  0
   12.6710   -1.7060   24.1520 S   0  0  0  0  0  0  0  0  0  0  0  0
  2  1  1  0
  2  3  1  0
  2  4  1  0
  4  5  1  0
  5  6  1  6
  6  7  1  0
  7  8  2  0
  7  9  1  0
  9 10  1  0
 10 11  2  0
 11 12  1  0
 12 13  2  0
 13 14  1  0
 10 15  1  0
 14 15  2  0
  5 16  1  0
 16 17  1  0
  2 18  1  0
 17 18  1  0
M  END
