pyridine_urea_901
     RDKit          3D

 22 24  0  0  0  0  0  0  0  0999 V2000
   13.1180    5.1420   21.5910 C   0  0  0  0  0  0  0  0  0  0  0  0
   12.9570    4.6130   22.9210 N   0  0  0  0  0  0  0  0  0  0  0  0
   12.4010    5.4980   23.8360 C   0  0  0  0  0  0  0  0  0  0  0  0
   12.5520    3.2970   22.9220 C   0  0  0  0  0  0  0  0  0  0  0  0
   11.2190    3.0690   22.9310 N   0  0  0  0  0  0  0  0  0  0  0  0
   11.1030    1.6420   22.9130 C   0  0  0  0  0  0  0  0  0  0  0  0
    9.9770    0.9070   22.8970 C   0  0  0  0  0  0  0  0  0  0  0  0
   10.0290   -0.5740   22.8530 C   0  0  0  0  0  0  0  0  0  0  0  0
    8.8390   -1.2050   22.7940 N   0  0  0  0  0  0  0  0  0  0  0  0
    8.1470   -0.9220   21.5470 C   0  0  0  0  0  0  0  0  0  0  0  0
    8.7710   -0.8430   20.5690 O   0  0  0  0  0  0  0  0  0  0  0  0
    6.8520   -0.7040   21.5030 N   0  0  0  0  0  0  0  0  0  0  0  0
    6.3030   -0.0640   20.3450 C   0  0  0  0  0  0  0  0  0  0  0  0
    5.1430    0.6600   20.4420 C   0  0  0  0  0  0  0  0  0  0  0  0
    4.5980    1.3020   19.3250 C   0  0  0  0  0  0  0  0  0  0  0  0
    5.2330    1.2160   18.0870 C   0  0  0  0  0  0  0  0  0  0  0  0
    6.3730    0.5220   17.9020 N   0  0  0  0  0  0  0  0  0  0  0  0
    6.8690   -0.1070   19.0710 C   0  0  0  0  0  0  0  0  0  0  0  0
   11.4890   -1.1280   22.8500 C   0  0  0  0  0  0  0  0  0  0  0  0
   12.5930   -0.2270   22.8800 C   0  0  0  0  0  0  0  0  0  0  0  0
   12.3460    1.1440   22.9040 C   0  0  0  0  0  0  0  0  0  0  0  0
   13.2830    2.2520   22.9120 O   0  0  0  0  0  0  0  0  0  0  0  0
  1  2  1  0
  2  3  1  0
  2  4  1  0
  4  5  2  0
  5  6  1  0
  6  7  2  0
  7  8  1  0
  8  9  1  0
  9 10  1  0
 10 11  2  0
 10 12  1  0
 12 13  1  0
 13 14  2  0
 14 15  1  0
 15 16  2  0
 16 17  1  0
 13 18  1  0
 17 18  2  0
  8 19  2  0
 19 20  1  0
  6 21  1  0
 20 21  2  0
  4 22  1  0
 21 22  1  0
M  END
