pyridine_urea_8147
     RDKit          3D

 24 26  0  0  0  0  0  0  0  0999 V2000
    9.0240    0.6840   21.5030 O   0  0  0  0  0  0  0  0  0  0  0  0
    8.3820   -0.3600   21.5600 C   0  0  0  0  0  0  0  0  0  0  0  0
    8.8570   -1.5110   22.1400 N   0  0  0  0  0  0  0  0  0  0  0  0
    9.8840   -1.4170   23.1510 C   0  0  0  0  0  0  0  0  0  0  0  0
    9.3340   -1.3060   24.6210 C   0  0  0  0  0  0  0  0  0  0  0  0
    9.6690   -0.2550   25.4580 C   0  0  0  0  0  0  0  0  0  0  0  0
    8.8870   -0.4790   26.9790 S   0  0  0  0  0  0  0  0  0  0  0  0
    8.1350   -1.9930   26.4120 C   0  0  0  0  0  0  0  0  0  0  0  0
    7.2790   -2.8360   27.1340 C   0  0  0  0  0  0  0  0  0  0  0  0
    5.8210   -2.3670   27.0820 C   0  0  0  0  0  0  0  0  0  0  0  0
    5.2430   -2.0010   28.4530 C   0  0  0  0  0  0  0  0  0  0  0  0
    6.1880   -1.0780   29.1940 C   0  0  0  0  0  0  0  0  0  0  0  0
    5.7290   -0.6370   30.5730 C   0  0  0  0  0  0  0  0  0  0  0  0
    4.3970   -1.1050   31.1510 C   0  0  0  0  0  0  0  0  0  0  0  0
    3.5800   -2.0320   30.2510 C   0  0  0  0  0  0  0  0  0  0  0  0
    4.0200   -2.4330   28.9810 C   0  0  0  0  0  0  0  0  0  0  0  0
    8.4110   -2.3860   25.1430 N   0  0  0  0  0  0  0  0  0  0  0  0
    7.1130   -0.5690   21.0840 N   0  0  0  0  0  0  0  0  0  0  0  0
    6.4670    0.0680   20.0280 C   0  0  0  0  0  0  0  0  0  0  0  0
    5.3080    0.8000   20.3020 C   0  0  0  0  0  0  0  0  0  0  0  0
    4.6770    1.4360   19.2510 C   0  0  0  0  0  0  0  0  0  0  0  0
    5.1980    1.3410   17.9650 C   0  0  0  0  0  0  0  0  0  0  0  0
    6.3040    0.6400   17.6910 N   0  0  0  0  0  0  0  0  0  0  0  0
    6.9080    0.0210   18.7240 C   0  0  0  0  0  0  0  0  0  0  0  0
  1  2  2  0
  2  3  1  0
  3  4  1  0
  4  5  1  0
  5  6  2  0
  6  7  1  0
  7  8  1  0
  8  9  1  0
  9 10  1  0
 10 11  1  0
 11 12  2  0
 12 13  1  0
 13 14  2  0
 14 15  1  0
 11 16  1  0
 15 16  2  0
  5 17  1  0
  8 17  2  0
  2 18  1  0
 18 19  1  0
 19 20  2  0
 20 21  1  0
 21 22  2  0
 22 23  1  0
 19 24  1  0
 23 24  2  0
M  END
