pyridine_urea_4201
     RDKit          3D

 25 26  0  0  0  0  0  0  0  0999 V2000
    7.2000   -1.0330   29.0190 C   0  0  0  0  0  0  0  0  0  0  0  0
    7.7940    0.1820   28.3530 C   0  0  0  0  0  0  0  0  0  0  0  0
    7.1690    1.4280   28.4070 C   0  0  0  0  0  0  0  0  0  0  0  0
    9.1830    0.3750   28.9980 C   0  0  0  0  0  0  0  0  0  0  0  0
    7.8520   -0.1200   26.9380 O   0  0  0  0  0  0  0  0  0  0  0  0
    9.0740   -0.1320   26.2040 C   0  0  0  0  0  0  0  0  0  0  0  0
   10.1320   -0.2170   26.7680 O   0  0  0  0  0  0  0  0  0  0  0  0
    9.0900   -0.0560   24.8020 C   0  0  0  0  0  0  0  0  0  0  0  0
   10.2680   -0.3100   24.0590 C   0  0  0  0  0  0  0  0  0  0  0  0
   10.0730   -1.4250   23.0130 C   0  0  0  0  0  0  0  0  0  0  0  0
    8.8180   -1.3360   22.3090 N   0  0  0  0  0  0  0  0  0  0  0  0
    8.2630   -0.3900   21.5220 C   0  0  0  0  0  0  0  0  0  0  0  0
    8.7750    0.6850   21.2470 O   0  0  0  0  0  0  0  0  0  0  0  0
    7.0360   -0.6930   21.0220 N   0  0  0  0  0  0  0  0  0  0  0  0
    6.3500    0.0200   20.0420 C   0  0  0  0  0  0  0  0  0  0  0  0
    5.1720    0.7420   20.2180 C   0  0  0  0  0  0  0  0  0  0  0  0
    4.6170    1.4090   19.1460 C   0  0  0  0  0  0  0  0  0  0  0  0
    5.2260    1.3580   17.9210 C   0  0  0  0  0  0  0  0  0  0  0  0
    6.3580    0.6730   17.6930 N   0  0  0  0  0  0  0  0  0  0  0  0
    6.8800    0.0270   18.7580 C   0  0  0  0  0  0  0  0  0  0  0  0
   11.3750   -0.9280   24.8930 C   0  0  0  0  0  0  0  0  0  0  0  0
   12.6940   -0.8090   24.4160 C   0  0  0  0  0  0  0  0  0  0  0  0
   12.8950   -0.3680   23.1160 C   0  0  0  0  0  0  0  0  0  0  0  0
   11.8310    0.3220   22.6010 C   0  0  0  0  0  0  0  0  0  0  0  0
   10.9240    0.7680   23.5150 C   0  0  0  0  0  0  0  0  0  0  0  0
  1  2  1  0
  2  3  1  0
  2  4  1  0
  2  5  1  0
  5  6  1  0
  6  7  2  0
  6  8  1  0
  9  8  1  0
  9 10  1  0
 10 11  1  0
 11 12  1  0
 12 13  2  0
 12 14  1  0
 14 15  1  0
 15 16  2  0
 16 17  1  0
 17 18  2  0
 18 19  1  0
 15 20  1  0
 19 20  2  0
  9 21  1  0
 21 22  1  0
 22 23  1  0
 23 24  1  0
  9 25  1  0
 24 25  1  0
M  END
