pyridine_urea_4064
     RDKit          3D

 27 29  0  0  0  0  0  0  0  0999 V2000
    9.0110    0.3770   21.4060 O   0  0  0  0  0  0  0  0  0  0  0  0
    8.3200   -0.6220   21.5640 C   0  0  0  0  0  0  0  0  0  0  0  0
    8.6690   -1.7870   22.2070 N   0  0  0  0  0  0  0  0  0  0  0  0
    9.7410   -2.0320   23.0890 C   0  0  0  0  0  0  0  0  0  0  0  0
   10.9450   -1.4850   22.7330 C   0  0  0  0  0  0  0  0  0  0  0  0
   10.0630   -0.7230   23.5760 C   0  0  0  0  0  0  0  0  0  0  0  0
   10.3130    0.5050   24.0440 C   0  0  0  0  0  0  0  0  0  0  0  0
   11.2080    1.4580   24.0350 C   0  0  0  0  0  0  0  0  0  0  0  0
   12.1690    0.9400   23.2720 C   0  0  0  0  0  0  0  0  0  0  0  0
   13.4330    1.6150   22.9200 C   0  0  0  0  0  0  0  0  0  0  0  0
   14.4340    0.6380   22.6590 O   0  0  0  0  0  0  0  0  0  0  0  0
   13.4450    2.8360   22.8950 O   0  0  0  0  0  0  0  0  0  0  0  0
   12.3680    3.5670   22.4860 C   0  0  0  0  0  0  0  0  0  0  0  0
   12.1720    4.7610   23.1510 C   0  0  0  0  0  0  0  0  0  0  0  0
   11.1080    4.9530   24.0530 C   0  0  0  0  0  0  0  0  0  0  0  0
   10.8900    6.1480   24.7550 C   0  0  0  0  0  0  0  0  0  0  0  0
   11.6850    7.2710   24.6440 C   0  0  0  0  0  0  0  0  0  0  0  0
   12.8420    7.1990   23.7170 C   0  0  0  0  0  0  0  0  0  0  0  0
   13.1330    5.9410   22.9300 C   0  0  0  0  0  0  0  0  0  0  0  0
   12.0170   -0.5000   22.6550 C   0  0  0  0  0  0  0  0  0  0  0  0
    7.0290   -0.7670   21.1190 N   0  0  0  0  0  0  0  0  0  0  0  0
    6.3540    0.0050   20.0600 C   0  0  0  0  0  0  0  0  0  0  0  0
    5.1620    0.7110   20.2240 C   0  0  0  0  0  0  0  0  0  0  0  0
    4.6230    1.4080   19.1480 C   0  0  0  0  0  0  0  0  0  0  0  0
    5.2960    1.3790   17.9330 C   0  0  0  0  0  0  0  0  0  0  0  0
    6.4440    0.7010   17.7510 N   0  0  0  0  0  0  0  0  0  0  0  0
    6.9410    0.0360   18.8110 C   0  0  0  0  0  0  0  0  0  0  0  0
  1  2  2  0
  2  3  1  0
  3  4  1  0
  4  5  1  0
  5  6  2  0
  6  7  1  0
  7  8  2  0
  8  9  1  0
  9 10  1  0
 10 11  2  0
 10 12  1  0
 12 13  1  0
 13 14  1  0
 14 15  2  0
 15 16  1  0
 16 17  2  0
 17 18  1  0
 14 19  1  0
 18 19  2  0
  5 20  1  0
  9 20  2  0
  2 21  1  0
 21 22  1  0
 22 23  2  0
 23 24  1  0
 24 25  2  0
 25 26  1  0
 22 27  1  0
 26 27  2  0
M  END
