pyridine_urea_9702
     RDKit          3D

 27 29  0  0  0  0  0  0  0  0999 V2000
    8.8810    0.8830   21.4350 O   0  0  0  0  0  0  0  0  0  0  0  0
    8.4380   -0.2510   21.3230 C   0  0  0  0  0  0  0  0  0  0  0  0
    9.1970   -1.3830   21.4320 N   0  0  0  0  0  0  0  0  0  0  0  0
    9.9430   -1.6260   22.6310 C   0  0  0  0  0  0  0  0  0  0  0  0
   11.4360   -1.3690   22.5310 C   0  0  0  0  0  0  0  0  0  0  0  0
   12.7920   -0.6430   22.5360 C   0  0  0  0  0  0  0  0  0  0  0  0
   13.0300    0.8210   22.7840 C   0  0  0  0  0  0  0  0  0  0  0  0
   11.9440    1.7840   23.0440 C   0  0  0  0  0  0  0  0  0  0  0  0
   12.3780    2.9130   23.2080 O   0  0  0  0  0  0  0  0  0  0  0  0
   11.5490    3.8100   22.6150 C   0  0  0  0  0  0  0  0  0  0  0  0
   10.8880    4.6810   23.4850 C   0  0  0  0  0  0  0  0  0  0  0  0
   11.2250    5.8480   23.3310 O   0  0  0  0  0  0  0  0  0  0  0  0
   10.2480    6.8520   23.5980 C   0  0  0  0  0  0  0  0  0  0  0  0
   10.4470    7.6450   24.7150 C   0  0  0  0  0  0  0  0  0  0  0  0
    9.5240    8.6470   25.0350 C   0  0  0  0  0  0  0  0  0  0  0  0
    8.3980    8.8530   24.2280 C   0  0  0  0  0  0  0  0  0  0  0  0
    8.1960    7.9880   23.0250 C   0  0  0  0  0  0  0  0  0  0  0  0
    9.1430    7.0070   22.7500 C   0  0  0  0  0  0  0  0  0  0  0  0
   10.7090    1.2790   23.0560 N   0  0  0  0  0  0  0  0  0  0  0  0
   10.5530   -0.1000   22.8330 C   0  0  0  0  0  0  0  0  0  0  0  0
    7.1210   -0.5170   21.0480 N   0  0  0  0  0  0  0  0  0  0  0  0
    6.3860    0.1040   20.1100 C   0  0  0  0  0  0  0  0  0  0  0  0
    5.2260    0.7980   20.3050 C   0  0  0  0  0  0  0  0  0  0  0  0
    4.5780    1.4150   19.2370 C   0  0  0  0  0  0  0  0  0  0  0  0
    5.1300    1.3180   17.9650 C   0  0  0  0  0  0  0  0  0  0  0  0
    6.2690    0.6410   17.6920 N   0  0  0  0  0  0  0  0  0  0  0  0
    6.8990    0.0390   18.7160 C   0  0  0  0  0  0  0  0  0  0  0  0
  1  2  2  0
  2  3  1  0
  3  4  1  0
  4  5  1  0
  5  6  2  0
  6  7  1  0
  7  8  2  0
  8  9  1  0
  9 10  1  0
 10 11  1  0
 11 12  1  0
 12 13  1  0
 13 14  2  0
 14 15  1  0
 15 16  2  0
 16 17  1  0
 13 18  1  0
 17 18  2  0
  8 19  1  0
  5 20  1  0
 19 20  2  0
  2 21  1  0
 21 22  1  0
 22 23  2  0
 23 24  1  0
 24 25  2  0
 25 26  1  0
 22 27  1  0
 26 27  2  0
M  END
