pyridine_urea_11499
     RDKit          3D

 18 19  0  0  0  0  0  0  0  0999 V2000
   13.4380   -2.4980   23.9530 N   0  0  0  0  0  0  0  0  0  0  0  0
   13.4710   -1.4600   23.0570 C   0  0  0  0  0  0  0  0  0  0  0  0
   13.2830   -0.1780   22.4820 O   0  0  0  0  0  0  0  0  0  0  0  0
   12.7270   -0.9150   24.2450 C   0  0  0  0  0  0  0  0  0  0  0  0
   11.7110   -0.0140   24.0340 C   0  0  2  0  0  0  0  0  0  0  0  0
   10.4190   -0.3570   24.3970 C   0  0  0  0  0  0  0  0  0  0  0  0
    9.8860    0.0180   23.1960 C   0  0  2  0  0  0  0  0  0  0  0  0
    9.0150   -0.7200   22.4980 N   0  0  0  0  0  0  0  0  0  0  0  0
    8.4330    0.0210   21.5280 C   0  0  0  0  0  0  0  0  0  0  0  0
    8.8710    1.1240   21.1600 O   0  0  0  0  0  0  0  0  0  0  0  0
    7.2920   -0.5710   21.0260 N   0  0  0  0  0  0  0  0  0  0  0  0
    6.5300    0.0630   19.9780 C   0  0  0  0  0  0  0  0  0  0  0  0
    5.2560    0.8330   20.3400 C   0  0  0  0  0  0  0  0  0  0  0  0
    4.6020    1.4270   19.2820 C   0  0  0  0  0  0  0  0  0  0  0  0
    5.1190    1.2960   17.9920 C   0  0  0  0  0  0  0  0  0  0  0  0
    6.2400    0.6050   17.6840 N   0  0  0  0  0  0  0  0  0  0  0  0
    6.9250    0.0020   18.6700 C   0  0  0  0  0  0  0  0  0  0  0  0
   11.1720    0.2330   22.7250 C   0  0  0  0  0  0  0  0  0  0  0  0
  1  2  1  0
  2  3  2  0
  2  4  1  0
  5  4  1  6
  5  6  1  0
  6  7  1  0
  7  8  1  6
  8  9  1  0
  9 10  2  0
  9 11  1  0
 11 12  1  0
 12 13  2  0
 13 14  1  0
 14 15  2  0
 15 16  1  0
 12 17  1  0
 16 17  2  0
  5 18  1  0
  7 18  1  0
M  END
