pyridine_urea_15130
     RDKit          3D

 17 17  0  0  0  0  0  0  0  0999 V2000
   12.7070   -1.1820   24.6930 C   0  0  0  0  0  0  0  0  0  0  0  0
   12.0570    0.0020   23.9630 C   0  0  0  0  0  0  0  0  0  0  0  0
   12.8700    0.9460   23.1140 C   0  0  0  0  0  0  0  0  0  0  0  0
   10.5640    0.1730   24.0720 C   0  0  0  0  0  0  0  0  0  0  0  0
    9.8880   -0.9450   23.3050 C   0  0  2  0  0  0  0  0  0  0  0  0
   10.6760   -1.5860   22.1670 C   0  0  0  0  0  0  0  0  0  0  0  0
   11.8020   -1.8360   22.5740 O   0  0  0  0  0  0  0  0  0  0  0  0
    8.5970   -0.5350   22.8070 N   0  0  0  0  0  0  0  0  0  0  0  0
    8.3610    0.0980   21.6040 C   0  0  0  0  0  0  0  0  0  0  0  0
    8.9690    1.1070   21.2220 O   0  0  0  0  0  0  0  0  0  0  0  0
    7.2830   -0.6100   20.9150 N   0  0  0  0  0  0  0  0  0  0  0  0
    6.4900    0.0800   19.9950 C   0  0  0  0  0  0  0  0  0  0  0  0
    5.3320    0.8000   20.3020 C   0  0  0  0  0  0  0  0  0  0  0  0
    4.6690    1.4430   19.2720 C   0  0  0  0  0  0  0  0  0  0  0  0
    5.1670    1.3500   17.9830 C   0  0  0  0  0  0  0  0  0  0  0  0
    6.2690    0.6550   17.6720 N   0  0  0  0  0  0  0  0  0  0  0  0
    6.8990    0.0410   18.6830 C   0  0  0  0  0  0  0  0  0  0  0  0
  1  2  2  3
  2  3  1  0
  2  4  1  0
  5  4  1  6
  5  6  1  0
  6  7  1  0
  5  8  1  0
  8  9  1  0
  9 10  2  0
  9 11  1  0
 11 12  1  0
 12 13  2  0
 13 14  1  0
 14 15  2  0
 15 16  1  0
 12 17  1  0
 16 17  2  0
M  END
