pyridine_urea_6055
     RDKit          3D

 25 27  0  0  0  0  0  0  0  0999 V2000
    7.6310    5.4210   22.0100 C   0  0  0  0  0  0  0  0  0  0  0  0
    6.9530    5.1370   23.3200 C   0  0  0  0  0  0  0  0  0  0  0  0
    5.9470    6.0110   23.7340 C   0  0  0  0  0  0  0  0  0  0  0  0
    7.8220    5.0440   24.1910 O   0  0  0  0  0  0  0  0  0  0  0  0
    8.5170    3.8740   24.1840 C   0  0  0  0  0  0  0  0  0  0  0  0
    8.0480    2.8970   24.9820 C   0  0  0  0  0  0  0  0  0  0  0  0
    8.7900    1.6540   24.9780 C   0  0  0  0  0  0  0  0  0  0  0  0
   10.0140    1.6190   24.0600 C   0  0  0  0  0  0  0  0  0  0  0  0
   10.7200    0.2620   24.1560 C   0  0  2  0  0  0  0  0  0  0  0  0
   12.0670    0.4180   23.8710 C   0  0  0  0  0  0  0  0  0  0  0  0
   12.3680   -0.4100   22.7890 C   0  0  0  0  0  0  0  0  0  0  0  0
   11.1920   -1.0590   22.3850 C   0  0  0  0  0  0  0  0  0  0  0  0
   10.2590   -0.8040   23.3720 C   0  0  2  0  0  0  0  0  0  0  0  0
    8.9060   -0.6950   22.8110 N   0  0  0  0  0  0  0  0  0  0  0  0
    8.5130   -0.0050   21.6860 C   0  0  0  0  0  0  0  0  0  0  0  0
    9.1850    1.1340   21.3010 O   0  0  0  0  0  0  0  0  0  0  0  0
    7.4120   -0.5350   21.0630 N   0  0  0  0  0  0  0  0  0  0  0  0
    6.6630    0.0740   20.0410 C   0  0  0  0  0  0  0  0  0  0  0  0
    5.5320    0.8220   20.3460 C   0  0  0  0  0  0  0  0  0  0  0  0
    4.7540    1.4570   19.3830 C   0  0  0  0  0  0  0  0  0  0  0  0
    5.1640    1.3140   18.0580 C   0  0  0  0  0  0  0  0  0  0  0  0
    6.2470    0.5930   17.7150 N   0  0  0  0  0  0  0  0  0  0  0  0
    6.9650   -0.0070   18.7000 C   0  0  0  0  0  0  0  0  0  0  0  0
   10.5790    2.6220   23.1730 C   0  0  0  0  0  0  0  0  0  0  0  0
    9.6560    3.7190   23.3830 C   0  0  0  0  0  0  0  0  0  0  0  0
  1  2  1  0
  2  3  1  0
  2  4  1  0
  4  5  1  0
  5  6  2  0
  6  7  1  0
  7  8  2  0
  9  8  1  6
  9 10  1  0
 10 11  1  0
 11 12  1  0
  9 13  1  0
 12 13  1  0
 13 14  1  6
 14 15  1  0
 15 16  2  0
 15 17  1  0
 17 18  1  0
 18 19  2  0
 19 20  1  0
 20 21  2  0
 21 22  1  0
 18 23  1  0
 22 23  2  0
  8 24  1  0
  5 25  1  0
 24 25  2  0
M  END
