pyridine_urea_9984
     RDKit          3D

 24 26  0  0  0  0  0  0  0  0999 V2000
    8.6840    1.2280   21.3660 O   0  0  0  0  0  0  0  0  0  0  0  0
    8.1620    0.1370   21.1940 C   0  0  0  0  0  0  0  0  0  0  0  0
    8.8180   -1.0220   21.0680 N   0  0  0  0  0  0  0  0  0  0  0  0
    9.4290   -1.5640   22.1300 C   0  0  0  0  0  0  0  0  0  0  0  0
    9.3710   -0.8920   23.3050 C   0  0  0  0  0  0  0  0  0  0  0  0
   10.5370   -0.1440   23.5030 C   0  0  0  0  0  0  0  0  0  0  0  0
   11.9440    0.1570   23.3050 C   0  0  0  0  0  0  0  0  0  0  0  0
   12.8640   -0.5190   22.5580 C   0  0  0  0  0  0  0  0  0  0  0  0
   12.3990   -1.7240   21.8420 C   0  0  0  0  0  0  0  0  0  0  0  0
   13.0910   -2.5150   21.0850 C   0  0  0  0  0  0  0  0  0  0  0  0
   13.6310   -3.4780   21.8310 F   0  0  0  0  0  0  0  0  0  0  0  0
   12.3310   -3.2090   20.2160 F   0  0  0  0  0  0  0  0  0  0  0  0
   13.9760   -1.7440   20.4370 F   0  0  0  0  0  0  0  0  0  0  0  0
   11.0690   -2.1060   21.9530 C   0  0  0  0  0  0  0  0  0  0  0  0
   10.3460   -1.3150   22.7270 C   0  0  0  0  0  0  0  0  0  0  0  0
    8.2820   -1.0030   24.0220 C   0  0  0  0  0  0  0  0  0  0  0  0
    9.2680   -1.7400   24.6270 C   0  0  0  0  0  0  0  0  0  0  0  0
    6.8500   -0.1330   21.0780 N   0  0  0  0  0  0  0  0  0  0  0  0
    6.2200    0.4090   19.9370 C   0  0  0  0  0  0  0  0  0  0  0  0
    5.0580    1.1380   20.1050 C   0  0  0  0  0  0  0  0  0  0  0  0
    4.4750    1.6920   18.9820 C   0  0  0  0  0  0  0  0  0  0  0  0
    5.0860    1.4840   17.7610 C   0  0  0  0  0  0  0  0  0  0  0  0
    6.2000    0.7670   17.5850 N   0  0  0  0  0  0  0  0  0  0  0  0
    6.7470    0.2430   18.6780 C   0  0  0  0  0  0  0  0  0  0  0  0
  1  2  2  0
  2  3  1  0
  3  4  1  0
  4  5  1  0
  5  6  1  0
  6  7  2  0
  7  8  1  0
  8  9  2  0
  9 10  1  0
 10 11  1  0
 10 12  1  0
 10 13  1  0
  9 14  1  0
  6 15  1  0
 14 15  2  0
  5 16  1  0
  5 17  1  0
 16 17  1  0
  2 18  1  0
 18 19  1  0
 19 20  2  0
 20 21  1  0
 21 22  2  0
 22 23  1  0
 19 24  1  0
 23 24  2  0
M  END
