pyridine_urea_4056
     RDKit          3D

 26 28  0  0  0  0  0  0  0  0999 V2000
   15.3060    2.2300   17.8990 N   0  0  0  0  0  0  0  0  0  0  0  0
   15.7600    2.3030   19.1340 C   0  0  0  0  0  0  0  0  0  0  0  0
   14.6770    2.2810   20.1200 C   0  0  0  0  0  0  0  0  0  0  0  0
   14.2790    1.0720   20.7080 C   0  0  0  0  0  0  0  0  0  0  0  0
   14.1630   -0.2120   20.0110 C   0  0  0  0  0  0  0  0  0  0  0  0
   13.7590   -1.3410   20.8010 C   0  0  0  0  0  0  0  0  0  0  0  0
   13.5050   -1.2020   22.1690 C   0  0  0  0  0  0  0  0  0  0  0  0
   13.2170   -2.2260   22.7750 O   0  0  0  0  0  0  0  0  0  0  0  0
   12.3210   -1.9520   23.7320 C   0  0  0  0  0  0  0  0  0  0  0  0
   11.0450   -1.7180   24.5960 C   0  0  0  0  0  0  0  0  0  0  0  0
    9.7270   -1.8670   24.2170 C   0  0  0  0  0  0  0  0  0  0  0  0
    9.3980   -2.2710   22.9660 C   0  0  0  0  0  0  0  0  0  0  0  0
    8.1240   -2.3590   22.4710 N   0  0  0  0  0  0  0  0  0  0  0  0
    7.7390   -1.4230   21.4360 C   0  0  0  0  0  0  0  0  0  0  0  0
    8.5670   -1.0090   20.4950 O   0  0  0  0  0  0  0  0  0  0  0  0
    6.4840   -0.9600   21.4390 N   0  0  0  0  0  0  0  0  0  0  0  0
    6.1170   -0.2250   20.3270 C   0  0  0  0  0  0  0  0  0  0  0  0
    4.9930    0.5870   20.5130 C   0  0  0  0  0  0  0  0  0  0  0  0
    4.5980    1.3770   19.2980 C   0  0  0  0  0  0  0  0  0  0  0  0
    5.3840    1.2640   18.0200 C   0  0  0  0  0  0  0  0  0  0  0  0
    6.4430    0.4640   17.9430 N   0  0  0  0  0  0  0  0  0  0  0  0
    6.7790   -0.2460   19.0660 C   0  0  0  0  0  0  0  0  0  0  0  0
   10.4630   -2.5510   22.2010 C   0  0  0  0  0  0  0  0  0  0  0  0
   11.7180   -2.3910   22.5730 N   0  0  0  0  0  0  0  0  0  0  0  0
   13.5930    0.0130   22.7980 C   0  0  0  0  0  0  0  0  0  0  0  0
   13.9780    1.1270   22.0800 C   0  0  0  0  0  0  0  0  0  0  0  0
  1  2  3  0
  2  3  1  0
  3  4  1  0
  4  5  2  0
  5  6  1  0
  6  7  2  0
  7  8  1  0
  8  9  1  0
  9 10  2  0
 10 11  1  0
 11 12  2  0
 12 13  1  0
 13 14  1  0
 14 15  2  0
 14 16  1  0
 16 17  1  0
 17 18  2  0
 18 19  1  0
 19 20  2  0
 20 21  1  0
 17 22  1  0
 21 22  2  0
 12 23  1  0
  9 24  1  0
 23 24  2  0
  7 25  1  0
  4 26  1  0
 25 26  2  0
M  END
