pyridine_urea_5319
     RDKit          3D

 19 20  0  0  0  0  0  0  0  0999 V2000
    8.7000    0.8850   21.2580 O   0  0  0  0  0  0  0  0  0  0  0  0
    8.2520   -0.2110   21.5660 C   0  0  0  0  0  0  0  0  0  0  0  0
    7.0850   -0.7280   21.0750 N   0  0  0  0  0  0  0  0  0  0  0  0
    6.4290   -0.0680   20.0320 C   0  0  0  0  0  0  0  0  0  0  0  0
    5.2310    0.6170   20.2820 C   0  0  0  0  0  0  0  0  0  0  0  0
    4.5860    1.2940   19.2400 C   0  0  0  0  0  0  0  0  0  0  0  0
    5.1670    1.2590   17.9880 C   0  0  0  0  0  0  0  0  0  0  0  0
    6.3080    0.6050   17.7290 N   0  0  0  0  0  0  0  0  0  0  0  0
    6.9090   -0.0400   18.7450 C   0  0  0  0  0  0  0  0  0  0  0  0
    8.9320   -1.0140   22.4470 N   0  0  0  0  0  0  0  0  0  0  0  0
   10.3010   -0.5770   22.5700 C   0  0  0  0  0  0  0  0  0  0  0  0
   11.4570   -1.5530   22.3820 C   0  0  0  0  0  0  0  0  0  0  0  0
   12.7540   -1.0510   22.4920 C   0  0  0  0  0  0  0  0  0  0  0  0
   12.9590    0.2960   22.7580 C   0  0  0  0  0  0  0  0  0  0  0  0
   14.2160    0.7500   22.8390 O   0  0  0  0  0  0  0  0  0  0  0  0
   11.9020    1.1760   22.9300 C   0  0  0  0  0  0  0  0  0  0  0  0
   12.2410    2.4610   23.1730 F   0  0  0  0  0  0  0  0  0  0  0  0
   10.5920    0.7530   22.8440 C   0  0  0  0  0  0  0  0  0  0  0  0
    9.5660    1.6380   23.0160 F   0  0  0  0  0  0  0  0  0  0  0  0
  1  2  2  0
  2  3  1  0
  3  4  1  0
  4  5  2  0
  5  6  1  0
  6  7  2  0
  7  8  1  0
  4  9  1  0
  8  9  2  0
  2 10  1  0
 10 11  1  0
 11 12  2  0
 12 13  1  0
 13 14  2  0
 14 15  1  0
 14 16  1  0
 16 17  1  0
 11 18  1  0
 16 18  2  0
 18 19  1  0
M  END
