pyridine_urea_10710
     RDKit          3D

 20 22  0  0  0  0  0  0  0  0999 V2000
    8.5260    1.6520   20.9790 O   0  0  0  0  0  0  0  0  0  0  0  0
    8.4460    0.4940   21.3540 C   0  0  0  0  0  0  0  0  0  0  0  0
    9.4800   -0.0690   22.1710 N   0  0  0  0  0  0  0  0  0  0  0  0
   10.3240    0.9290   22.6790 C   0  0  0  0  0  0  0  0  0  0  0  0
   11.7120    0.7190   22.7310 C   0  0  0  0  0  0  0  0  0  0  0  0
   11.8630   -0.5690   22.9900 C   0  0  1  0  0  0  0  0  0  0  0  0
   10.4710   -0.8600   23.1620 O   0  0  0  0  0  0  0  0  0  0  0  0
   12.1300   -1.5010   22.0110 C   0  0  0  0  0  0  0  0  0  0  0  0
   12.5730   -2.5730   22.8500 C   0  0  2  0  0  0  0  0  0  0  0  0
   11.4670   -2.7960   23.8810 C   0  0  0  0  0  0  0  0  0  0  0  0
   11.7910   -1.6860   24.8280 C   0  0  0  0  0  0  0  0  0  0  0  0
   12.6520   -0.9550   24.0860 C   0  0  1  0  0  0  0  0  0  0  0  0
   13.5100   -1.8910   23.5130 C   0  0  0  0  0  0  0  0  0  0  0  0
    7.3880   -0.3320   21.0210 N   0  0  0  0  0  0  0  0  0  0  0  0
    6.5230    0.1750   20.0910 C   0  0  0  0  0  0  0  0  0  0  0  0
    5.3230    0.8210   20.3670 C   0  0  0  0  0  0  0  0  0  0  0  0
    4.6220    1.2930   19.2800 C   0  0  0  0  0  0  0  0  0  0  0  0
    5.0930    1.1270   18.0010 C   0  0  0  0  0  0  0  0  0  0  0  0
    6.2240    0.5050   17.6950 N   0  0  0  0  0  0  0  0  0  0  0  0
    6.8940    0.0520   18.7650 C   0  0  0  0  0  0  0  0  0  0  0  0
  1  2  2  0
  2  3  1  0
  3  4  1  0
  4  5  1  0
  5  6  1  0
  6  7  1  1
  6  8  1  0
  9  8  1  6
  9 10  1  0
 10 11  1  0
  6 12  1  0
 12 11  1  1
  9 13  1  0
 12 13  1  0
  2 14  1  0
 14 15  1  0
 15 16  2  0
 16 17  1  0
 17 18  2  0
 18 19  1  0
 15 20  1  0
 19 20  2  0
M  END
