pyridine_urea_2351
     RDKit          3D

 25 27  0  0  0  0  0  0  0  0999 V2000
    8.7190    0.6600   21.2300 O   0  0  0  0  0  0  0  0  0  0  0  0
    8.3360   -0.5000   21.2430 C   0  0  0  0  0  0  0  0  0  0  0  0
    7.0790   -0.8970   20.8920 N   0  0  0  0  0  0  0  0  0  0  0  0
    6.4030   -0.1510   19.9310 C   0  0  0  0  0  0  0  0  0  0  0  0
    5.1910    0.4830   20.2270 C   0  0  0  0  0  0  0  0  0  0  0  0
    4.5500    1.2400   19.2420 C   0  0  0  0  0  0  0  0  0  0  0  0
    5.1470    1.3330   17.9990 C   0  0  0  0  0  0  0  0  0  0  0  0
    6.3060    0.7230   17.7020 N   0  0  0  0  0  0  0  0  0  0  0  0
    6.8970    0.0020   18.6650 C   0  0  0  0  0  0  0  0  0  0  0  0
    9.1860   -1.5050   21.6220 N   0  0  0  0  0  0  0  0  0  0  0  0
   10.2270   -0.9480   22.4600 C   0  0  0  0  0  0  0  0  0  0  0  0
   11.6560   -1.2430   22.0550 C   0  0  0  0  0  0  0  0  0  0  0  0
   12.6560   -0.6790   22.8460 C   0  0  0  0  0  0  0  0  0  0  0  0
   12.2900    0.1030   23.9560 C   0  0  0  0  0  0  0  0  0  0  0  0
   10.9400    0.3370   24.2980 C   0  0  0  0  0  0  0  0  0  0  0  0
    9.9450   -0.1890   23.5410 C   0  0  0  0  0  0  0  0  0  0  0  0
    8.6130    0.0360   23.8570 N   0  0  0  0  0  0  0  0  0  0  0  0
    8.2100    0.9900   24.7760 C   0  0  0  0  0  0  0  0  0  0  0  0
    7.7130    2.2800   24.5850 C   0  0  0  0  0  0  0  0  0  0  0  0
    7.5170    2.9840   23.0330 Cl  0  0  0  0  0  0  0  0  0  0  0  0
    7.3520    3.0400   25.6950 C   0  0  0  0  0  0  0  0  0  0  0  0
    7.4890    2.5130   26.9780 C   0  0  0  0  0  0  0  0  0  0  0  0
    7.9890    1.2230   27.1520 C   0  0  0  0  0  0  0  0  0  0  0  0
    8.3540    0.4480   26.0490 C   0  0  0  0  0  0  0  0  0  0  0  0
    8.9500   -1.1340   26.2970 Cl  0  0  0  0  0  0  0  0  0  0  0  0
  1  2  2  0
  2  3  1  0
  3  4  1  0
  4  5  2  0
  5  6  1  0
  6  7  2  0
  7  8  1  0
  4  9  1  0
  8  9  2  0
  2 10  1  0
 10 11  1  0
 11 12  2  0
 12 13  1  0
 13 14  2  0
 14 15  1  0
 11 16  1  0
 15 16  2  0
 16 17  1  0
 17 18  1  0
 18 19  2  0
 19 20  1  0
 19 21  1  0
 21 22  2  0
 22 23  1  0
 18 24  1  0
 23 24  2  0
 24 25  1  0
M  END
