pyridine_urea_13759
     RDKit          3D

 25 27  0  0  0  0  0  0  0  0999 V2000
   13.9320    0.0130   22.2400 C   0  0  0  0  0  0  0  0  0  0  0  0
   12.9210   -0.8460   21.7310 C   0  0  0  0  0  0  0  0  0  0  0  0
   13.2410   -1.7860   20.6110 C   0  0  0  0  0  0  0  0  0  0  0  0
   11.9440   -2.6700   20.2860 C   0  0  0  0  0  0  0  0  0  0  0  0
   10.7570   -2.4940   21.1410 C   0  0  0  0  0  0  0  0  0  0  0  0
    9.5140   -2.3100   22.0380 C   0  0  0  0  0  0  0  0  0  0  0  0
   10.6660   -1.6200   22.0900 C   0  0  0  0  0  0  0  0  0  0  0  0
    9.2450   -1.1420   22.8950 S   0  0  0  0  0  0  0  0  0  0  0  0
   10.4180    0.2490   22.8070 C   0  0  0  0  0  0  0  0  0  0  0  0
   10.9270    1.4620   22.3350 C   0  0  0  0  0  0  0  0  0  0  0  0
   12.0820    1.7960   23.1420 C   0  0  0  0  0  0  0  0  0  0  0  0
   12.5280    1.0000   24.2350 C   0  0  0  0  0  0  0  0  0  0  0  0
   11.9930   -0.2450   24.7560 C   0  0  0  0  0  0  0  0  0  0  0  0
   10.8250   -0.4590   23.8280 C   0  0  0  0  0  0  0  0  0  0  0  0
    9.7050   -1.3330   23.3670 N   0  0  0  0  0  0  0  0  0  0  0  0
    9.4310   -1.1580   21.7500 C   0  0  0  0  0  0  0  0  0  0  0  0
   10.4480   -1.2730   20.9860 O   0  0  0  0  0  0  0  0  0  0  0  0
    8.1860   -1.1280   20.7590 N   0  0  0  0  0  0  0  0  0  0  0  0
    6.9420   -0.2580   20.3830 C   0  0  0  0  0  0  0  0  0  0  0  0
    6.3780    0.6410   21.2900 C   0  0  0  0  0  0  0  0  0  0  0  0
    5.2390    1.4880   20.8980 C   0  0  0  0  0  0  0  0  0  0  0  0
    4.7980    1.2500   19.4630 C   0  0  0  0  0  0  0  0  0  0  0  0
    5.3870    0.4000   18.5020 N   0  0  0  0  0  0  0  0  0  0  0  0
    6.4380   -0.3120   19.0830 C   0  0  0  0  0  0  0  0  0  0  0  0
   11.7610   -0.7210   22.4560 C   0  0  0  0  0  0  0  0  0  0  0  0
  1  2  1  0
  2  3  2  0
  3  4  1  0
  4  5  2  0
  5  6  1  0
  5  7  1  0
  7  8  1  0
  8  9  1  0
  9 10  2  0
 10 11  1  0
 11 12  2  0
 12 13  1  0
  9 14  1  0
 13 14  2  0
 14 15  1  0
 15 16  1  0
 16 17  2  0
 16 18  1  0
 18 19  1  0
 19 20  2  0
 20 21  1  0
 21 22  2  0
 22 23  1  0
 19 24  1  0
 23 24  2  0
  2 25  1  0
  7 25  2  0
M  END
