pyridine_urea_10736
     RDKit          3D

 20 21  0  0  0  0  0  0  0  0999 V2000
   13.1290   -2.3820   22.2020 C   0  0  0  0  0  0  0  0  0  0  0  0
   12.2420   -1.8820   23.2790 C   0  0  0  0  0  0  0  0  0  0  0  0
   11.4440   -2.7570   24.0120 C   0  0  0  0  0  0  0  0  0  0  0  0
   13.1500   -1.2470   24.3240 C   0  0  0  0  0  0  0  0  0  0  0  0
   11.3790   -0.8080   22.5800 C   0  0  2  0  0  0  0  0  0  0  0  0
   12.2240    0.0250   22.2720 O   0  0  0  0  0  0  0  0  0  0  0  0
   12.4080    1.0340   23.2170 C   0  0  0  0  0  0  0  0  0  0  0  0
   11.1550    1.7240   23.6380 C   0  0  0  0  0  0  0  0  0  0  0  0
   10.0750    0.7030   23.9140 C   0  0  0  0  0  0  0  0  0  0  0  0
   10.1800   -0.5110   23.2540 C   0  0  1  0  0  0  0  0  0  0  0  0
    9.1060   -0.8110   22.3860 N   0  0  0  0  0  0  0  0  0  0  0  0
    8.4810    0.0490   21.4970 C   0  0  0  0  0  0  0  0  0  0  0  0
    8.9760    1.3630   21.2040 O   0  0  0  0  0  0  0  0  0  0  0  0
    7.3320   -0.5260   20.9720 N   0  0  0  0  0  0  0  0  0  0  0  0
    6.5270    0.1000   20.0480 C   0  0  0  0  0  0  0  0  0  0  0  0
    5.3670    0.7990   20.3400 C   0  0  0  0  0  0  0  0  0  0  0  0
    4.6700    1.3940   19.2990 C   0  0  0  0  0  0  0  0  0  0  0  0
    5.1530    1.2710   18.0070 C   0  0  0  0  0  0  0  0  0  0  0  0
    6.2650    0.5930   17.7060 N   0  0  0  0  0  0  0  0  0  0  0  0
    6.9180    0.0260   18.7320 C   0  0  0  0  0  0  0  0  0  0  0  0
  2  1  1  0
  2  3  1  0
  2  4  1  0
  5  2  1  1
  5  6  1  0
  6  7  1  0
  7  8  1  0
  8  9  1  0
  5 10  1  0
  9 10  1  0
 10 11  1  6
 11 12  1  0
 12 13  2  0
 12 14  1  0
 14 15  1  0
 15 16  2  0
 16 17  1  0
 17 18  2  0
 18 19  1  0
 15 20  1  0
 19 20  2  0
M  END
