pyridine_urea_13407
     RDKit          3D

 22 23  0  0  0  0  0  0  0  0999 V2000
   12.2590    1.3780   23.4250 C   0  0  0  0  0  0  0  0  0  0  0  0
   13.0630    0.1820   22.8810 C   0  0  0  0  0  0  0  0  0  0  0  0
   11.9720   -0.4820   22.8650 C   0  0  0  0  0  0  0  0  0  0  0  0
   12.3240   -2.1110   22.2630 S   0  0  0  0  0  0  0  0  0  0  0  0
   13.3390   -1.7840   20.9570 N   0  0  0  0  0  0  0  0  0  0  0  0
   13.0850   -2.8380   23.2790 O   0  0  0  0  0  0  0  0  0  0  0  0
   11.1210   -2.6650   21.6530 O   0  0  0  0  0  0  0  0  0  0  0  0
   10.7030   -0.4700   23.1020 C   0  0  0  0  0  0  0  0  0  0  0  0
    9.4820    0.2150   23.5500 C   0  0  0  0  0  0  0  0  0  0  0  0
    8.3530   -0.2140   22.9690 N   0  0  0  0  0  0  0  0  0  0  0  0
    8.1660    0.2250   21.7070 C   0  0  0  0  0  0  0  0  0  0  0  0
    8.8760    1.3640   21.1190 O   0  0  0  0  0  0  0  0  0  0  0  0
    7.1590   -0.5680   21.0480 N   0  0  0  0  0  0  0  0  0  0  0  0
    6.4800    0.0830   19.9770 C   0  0  0  0  0  0  0  0  0  0  0  0
    5.3290    0.8500   20.2140 C   0  0  0  0  0  0  0  0  0  0  0  0
    4.6610    1.5090   19.1860 C   0  0  0  0  0  0  0  0  0  0  0  0
    5.1620    1.3960   17.9040 C   0  0  0  0  0  0  0  0  0  0  0  0
    6.2790    0.6380   17.6950 N   0  0  0  0  0  0  0  0  0  0  0  0
    7.0060   -0.0680   18.7170 C   0  0  0  0  0  0  0  0  0  0  0  0
   10.9530   -1.6590   22.6720 N   0  0  0  0  0  0  0  0  0  0  0  0
   12.4630   -1.3080   22.5010 N   0  0  0  0  0  0  0  0  0  0  0  0
   13.2540   -2.3630   21.9970 C   0  0  0  0  0  0  0  0  0  0  0  0
  1  2  1  0
  2  3  2  0
  3  4  1  0
  4  5  1  0
  4  6  2  0
  4  7  2  0
  3  8  1  0
  8  9  1  0
  9 10  1  0
 10 11  1  0
 11 12  2  0
 11 13  1  0
 13 14  1  0
 14 15  2  0
 15 16  1  0
 16 17  2  0
 17 18  1  0
 14 19  1  0
 18 19  2  0
  8 20  2  0
  2 21  1  0
 20 21  1  0
 21 22  1  0
M  END
