pyridine_urea_5997
     RDKit          3D

 27 29  0  0  0  0  0  0  0  0999 V2000
   15.5890   -6.0710   19.3400 N   0  0  0  0  0  0  0  0  0  0  0  0
   15.4680   -4.8330   19.8360 C   0  0  0  0  0  0  0  0  0  0  0  0
   14.7190   -4.8020   21.0620 C   0  0  0  0  0  0  0  0  0  0  0  0
   13.8920   -3.6120   21.5560 C   0  0  0  0  0  0  0  0  0  0  0  0
   13.3870   -3.1430   22.8420 C   0  0  0  0  0  0  0  0  0  0  0  0
   12.8410   -1.8810   23.0300 C   0  0  0  0  0  0  0  0  0  0  0  0
   12.8020   -0.9660   21.8810 C   0  0  0  0  0  0  0  0  0  0  0  0
   12.4280    0.2080   21.8520 O   0  0  0  0  0  0  0  0  0  0  0  0
   12.9440    0.9690   22.8690 C   0  0  0  0  0  0  0  0  0  0  0  0
   12.3410   -0.1000   23.5830 C   0  0  0  0  0  0  0  0  0  0  0  0
   12.6820   -1.0030   24.4570 C   0  0  0  0  0  0  0  0  0  0  0  0
   11.6600   -1.8370   24.7900 C   0  0  0  0  0  0  0  0  0  0  0  0
   10.3570   -1.7390   24.2480 C   0  0  0  0  0  0  0  0  0  0  0  0
    9.8650   -0.8430   23.3250 C   0  0  0  0  0  0  0  0  0  0  0  0
    8.6510   -0.6280   22.7170 N   0  0  0  0  0  0  0  0  0  0  0  0
    8.3120    0.0920   21.5540 C   0  0  0  0  0  0  0  0  0  0  0  0
    8.8520    1.2760   21.0970 O   0  0  0  0  0  0  0  0  0  0  0  0
    7.3070   -0.5900   20.9560 N   0  0  0  0  0  0  0  0  0  0  0  0
    6.5950    0.0430   19.9970 C   0  0  0  0  0  0  0  0  0  0  0  0
    5.4880    0.8140   20.3670 C   0  0  0  0  0  0  0  0  0  0  0  0
    4.7620    1.4740   19.3740 C   0  0  0  0  0  0  0  0  0  0  0  0
    5.1570    1.3440   18.0480 C   0  0  0  0  0  0  0  0  0  0  0  0
    6.2070    0.6050   17.6740 N   0  0  0  0  0  0  0  0  0  0  0  0
    6.8960   -0.0260   18.6520 C   0  0  0  0  0  0  0  0  0  0  0  0
   10.9660    0.0900   22.9360 C   0  0  0  0  0  0  0  0  0  0  0  0
   13.2920   -1.5460   20.6430 C   0  0  0  0  0  0  0  0  0  0  0  0
   13.7820   -2.8250   20.5740 C   0  0  0  0  0  0  0  0  0  0  0  0
  1  2  3  0
  2  3  1  0
  3  4  1  0
  4  5  2  0
  5  6  1  0
  6  7  2  0
  7  8  1  0
  8  9  1  0
  9 10  1  0
 10 11  2  0
 11 12  1  0
 12 13  2  0
 13 14  1  0
 14 15  1  0
 15 16  1  0
 16 17  2  0
 16 18  1  0
 18 19  1  0
 19 20  2  0
 20 21  1  0
 21 22  2  0
 22 23  1  0
 19 24  1  0
 23 24  2  0
 10 25  1  0
 14 25  2  0
  7 26  1  0
  4 27  1  0
 26 27  2  0
M  END
