pyridine_urea_15128
     RDKit          3D

 18 19  0  0  0  0  0  0  0  0999 V2000
   13.4360    0.1020   22.5940 C   0  0  0  0  0  0  0  0  0  0  0  0
   13.0270   -0.5670   23.9010 C   0  0  0  0  0  0  0  0  0  0  0  0
   13.4060   -2.0470   23.9920 C   0  0  0  0  0  0  0  0  0  0  0  0
   11.6400   -0.4350   23.9530 N   0  0  0  0  0  0  0  0  0  0  0  0
   10.3800   -0.5820   23.5350 C   0  0  0  0  0  0  0  0  0  0  0  0
    9.9750   -1.2500   22.3260 C   0  0  0  0  0  0  0  0  0  0  0  0
    8.7020   -1.4130   21.8600 N   0  0  0  0  0  0  0  0  0  0  0  0
    8.0480   -0.3420   21.3520 C   0  0  0  0  0  0  0  0  0  0  0  0
    8.5550    0.7710   21.2750 O   0  0  0  0  0  0  0  0  0  0  0  0
    6.7940   -0.6840   20.9500 N   0  0  0  0  0  0  0  0  0  0  0  0
    6.1610    0.0470   19.9560 C   0  0  0  0  0  0  0  0  0  0  0  0
    4.9710    0.7480   20.1000 C   0  0  0  0  0  0  0  0  0  0  0  0
    4.4660    1.4530   19.0160 C   0  0  0  0  0  0  0  0  0  0  0  0
    5.1730    1.4280   17.8310 C   0  0  0  0  0  0  0  0  0  0  0  0
    6.3220    0.7470   17.6720 N   0  0  0  0  0  0  0  0  0  0  0  0
    6.7840    0.0780   18.7320 C   0  0  0  0  0  0  0  0  0  0  0  0
   11.1640   -1.5570   21.9520 C   0  0  0  0  0  0  0  0  0  0  0  0
   12.1130   -1.1350   22.7990 N   0  0  0  0  0  0  0  0  0  0  0  0
  1  2  1  0
  2  3  1  0
  2  4  1  0
  4  5  1  0
  5  6  2  0
  6  7  1  0
  7  8  1  0
  8  9  2  0
  8 10  1  0
 10 11  1  0
 11 12  2  0
 12 13  1  0
 13 14  2  0
 14 15  1  0
 11 16  1  0
 15 16  2  0
  6 17  1  0
  4 18  1  0
 17 18  2  0
M  END
