pyridine_urea_9560
     RDKit          3D

 21 23  0  0  0  0  0  0  0  0999 V2000
    8.6790    1.4420   21.0960 O   0  0  0  0  0  0  0  0  0  0  0  0
    8.5050    0.2490   21.3440 C   0  0  0  0  0  0  0  0  0  0  0  0
    7.3100   -0.4150   21.1410 N   0  0  0  0  0  0  0  0  0  0  0  0
    6.5590    0.1610   20.0670 C   0  0  0  0  0  0  0  0  0  0  0  0
    5.2910    0.9330   20.4180 C   0  0  0  0  0  0  0  0  0  0  0  0
    4.5240    1.5660   19.2640 C   0  0  0  0  0  0  0  0  0  0  0  0
    5.1260    1.3500   17.8800 C   0  0  0  0  0  0  0  0  0  0  0  0
    6.2940    0.6030   17.7280 N   0  0  0  0  0  0  0  0  0  0  0  0
    6.9680    0.0390   18.7640 C   0  0  0  0  0  0  0  0  0  0  0  0
    9.5010   -0.5690   21.8060 N   0  0  0  0  0  0  0  0  0  0  0  0
   10.2310   -0.1880   22.9630 C   0  0  1  0  0  0  0  0  0  0  0  0
    9.7340   -0.5480   24.1970 C   0  0  0  0  0  0  0  0  0  0  0  0
   10.4500   -2.1140   24.2560 S   0  0  0  0  0  0  0  0  0  0  0  0
    9.5670   -3.0350   23.5980 O   0  0  0  0  0  0  0  0  0  0  0  0
   11.1780   -2.3810   25.4570 O   0  0  0  0  0  0  0  0  0  0  0  0
   11.3930   -1.1880   23.1440 C   0  0  0  0  0  0  0  0  0  0  0  0
   11.6140   -1.9470   22.0270 C   0  0  0  0  0  0  0  0  0  0  0  0
   12.9810   -2.0670   21.7990 C   0  0  0  0  0  0  0  0  0  0  0  0
   13.4480   -0.9380   21.5960 O   0  0  0  0  0  0  0  0  0  0  0  0
   13.1010    0.0460   22.5890 C   0  0  0  0  0  0  0  0  0  0  0  0
   12.5230   -0.6450   23.7360 C   0  0  0  0  0  0  0  0  0  0  0  0
  1  2  2  0
  2  3  1  0
  3  4  1  0
  4  5  2  0
  5  6  1  0
  6  7  2  0
  7  8  1  0
  4  9  1  0
  8  9  2  0
  2 10  1  0
 11 10  1  6
 11 12  1  0
 13 12  1  0
 13 14  2  0
 13 15  2  0
 11 16  1  0
 13 16  1  0
 16 17  1  0
 17 18  1  0
 18 19  1  0
 19 20  1  0
 16 21  1  0
 20 21  1  0
M  END
