pyridine_urea_6836
     RDKit          3D

 21 23  0  0  0  0  0  0  0  0999 V2000
    9.0180    1.3420   21.2120 O   0  0  0  0  0  0  0  0  0  0  0  0
    8.6620    0.2020   21.5320 C   0  0  0  0  0  0  0  0  0  0  0  0
    7.5750   -0.4760   21.0090 N   0  0  0  0  0  0  0  0  0  0  0  0
    6.6740    0.1190   20.1110 C   0  0  0  0  0  0  0  0  0  0  0  0
    5.3930    0.8720   20.5200 C   0  0  0  0  0  0  0  0  0  0  0  0
    4.6040    1.4470   19.3440 C   0  0  0  0  0  0  0  0  0  0  0  0
    5.1480    1.2180   17.9750 C   0  0  0  0  0  0  0  0  0  0  0  0
    6.2710    0.5350   17.7290 N   0  0  0  0  0  0  0  0  0  0  0  0
    6.9750    0.0220   18.7600 C   0  0  0  0  0  0  0  0  0  0  0  0
    9.3520   -0.5420   22.4740 N   0  0  0  0  0  0  0  0  0  0  0  0
   10.4780   -0.0160   23.2360 C   0  0  0  0  0  0  0  0  0  0  0  0
   10.4010    1.3870   23.3680 C   0  0  0  0  0  0  0  0  0  0  0  0
   11.5060    2.1580   23.0510 C   0  0  0  0  0  0  0  0  0  0  0  0
   11.4900    3.5270   23.1630 C   0  0  0  0  0  0  0  0  0  0  0  0
   10.3570    4.2270   23.6050 C   0  0  0  0  0  0  0  0  0  0  0  0
    9.1370    3.5660   23.9740 C   0  0  0  0  0  0  0  0  0  0  0  0
    9.2380    2.0320   23.8190 C   0  0  0  0  0  0  0  0  0  0  0  0
   10.6290   -0.4450   24.5320 C   0  0  0  0  0  0  0  0  0  0  0  0
   11.9240   -0.8230   24.7340 C   0  0  0  0  0  0  0  0  0  0  0  0
   12.5910   -0.9250   23.5450 C   0  0  0  0  0  0  0  0  0  0  0  0
   11.8370   -0.3780   22.5250 C   0  0  0  0  0  0  0  0  0  0  0  0
  1  2  2  0
  2  3  1  0
  3  4  1  0
  4  5  2  0
  5  6  1  0
  6  7  2  0
  7  8  1  0
  4  9  1  0
  8  9  2  0
  2 10  1  0
 11 10  1  0
 11 12  1  0
 12 13  2  0
 13 14  1  0
 14 15  2  0
 15 16  1  0
 12 17  1  0
 16 17  2  0
 11 18  1  0
 18 19  1  0
 19 20  1  0
 11 21  1  0
 20 21  1  0
M  END
