pyridine_urea_10595
     RDKit          3D

 21 23  0  0  0  0  0  0  0  0999 V2000
    8.9080    1.5390   21.0570 O   0  0  0  0  0  0  0  0  0  0  0  0
    8.3270    0.5930   21.5740 C   0  0  0  0  0  0  0  0  0  0  0  0
    7.3750   -0.2170   21.0110 N   0  0  0  0  0  0  0  0  0  0  0  0
    6.5180    0.3020   20.0630 C   0  0  0  0  0  0  0  0  0  0  0  0
    5.2050    1.0170   20.4000 C   0  0  0  0  0  0  0  0  0  0  0  0
    4.4680    1.5350   19.1790 C   0  0  0  0  0  0  0  0  0  0  0  0
    5.1020    1.2850   17.8510 C   0  0  0  0  0  0  0  0  0  0  0  0
    6.2500    0.6310   17.6720 N   0  0  0  0  0  0  0  0  0  0  0  0
    6.9050    0.1700   18.7430 C   0  0  0  0  0  0  0  0  0  0  0  0
    8.5810    0.2340   22.8480 N   0  0  0  0  0  0  0  0  0  0  0  0
    9.6030   -0.7020   23.0580 C   0  0  1  0  0  0  0  0  0  0  0  0
   10.4040   -0.7550   21.9740 C   0  0  0  0  0  0  0  0  0  0  0  0
   11.2910   -1.6720   22.3420 C   0  0  0  0  0  0  0  0  0  0  0  0
   11.4440   -1.3390   23.6650 C   0  0  0  0  0  0  0  0  0  0  0  0
   12.7610   -1.8140   24.2120 C   0  0  0  0  0  0  0  0  0  0  0  0
   13.6710   -2.6820   23.1200 Cl  0  0  0  0  0  0  0  0  0  0  0  0
   13.2910   -1.6170   25.5360 C   0  0  0  0  0  0  0  0  0  0  0  0
   12.1390   -1.2720   24.8210 C   0  0  0  0  0  0  0  0  0  0  0  0
   12.1530   -1.8490   23.2130 Cl  0  0  0  0  0  0  0  0  0  0  0  0
   11.1300   -0.6250   25.2170 C   0  0  0  0  0  0  0  0  0  0  0  0
   10.2690   -0.5590   24.2810 C   0  0  0  0  0  0  0  0  0  0  0  0
  1  2  2  0
  2  3  1  0
  3  4  1  0
  4  5  2  0
  5  6  1  0
  6  7  2  0
  7  8  1  0
  4  9  1  0
  8  9  2  0
  2 10  1  0
 11 10  1  6
 11 12  1  0
 12 13  1  0
 13 14  1  0
 14 15  1  0
 15 16  1  0
 15 17  2  0
 17 18  1  0
 18 19  1  0
 18 20  2  0
 11 21  1  0
 14 21  2  0
 20 21  1  0
M  END
