pyridine_urea_13358
     RDKit          3D

 21 22  0  0  0  0  0  0  0  0999 V2000
   12.2650   -2.7480   24.6950 C   0  0  0  0  0  0  0  0  0  0  0  0
   11.0690   -1.9850   24.8590 O   0  0  0  0  0  0  0  0  0  0  0  0
   10.1060   -1.9900   23.8800 C   0  0  0  0  0  0  0  0  0  0  0  0
    9.1260   -2.7230   23.9640 O   0  0  0  0  0  0  0  0  0  0  0  0
   10.2760   -1.1550   22.7850 C   0  0  1  0  0  0  0  0  0  0  0  0
    9.1070   -1.3450   21.9300 N   0  0  0  0  0  0  0  0  0  0  0  0
    8.3720   -0.2870   21.4360 C   0  0  0  0  0  0  0  0  0  0  0  0
    8.8100    0.8490   21.3200 O   0  0  0  0  0  0  0  0  0  0  0  0
    7.0250   -0.7240   21.0630 N   0  0  0  0  0  0  0  0  0  0  0  0
    6.3950   -0.0400   20.0560 C   0  0  0  0  0  0  0  0  0  0  0  0
    5.1000    0.7080   20.3700 C   0  0  0  0  0  0  0  0  0  0  0  0
    4.5510    1.3740   19.2860 C   0  0  0  0  0  0  0  0  0  0  0  0
    5.2310    1.3220   17.9290 C   0  0  0  0  0  0  0  0  0  0  0  0
    6.3680    0.6430   17.7110 N   0  0  0  0  0  0  0  0  0  0  0  0
    6.9120   -0.0130   18.7660 C   0  0  0  0  0  0  0  0  0  0  0  0
   10.3640    0.2620   23.0400 C   0  0  0  0  0  0  0  0  0  0  0  0
   11.6250   -0.3420   23.2860 C   0  0  2  0  0  0  0  0  0  0  0  0
   12.6910    0.5100   23.1190 C   0  0  0  0  0  0  0  0  0  0  0  0
   13.5360   -0.0090   22.1970 F   0  0  0  0  0  0  0  0  0  0  0  0
   12.3070    1.7400   22.6740 F   0  0  0  0  0  0  0  0  0  0  0  0
   11.6920   -1.4250   22.4290 C   0  0  0  0  0  0  0  0  0  0  0  0
  1  2  1  0
  2  3  1  0
  3  4  2  0
  5  3  1  0
  5  6  1  6
  6  7  1  0
  7  8  2  0
  7  9  1  0
  9 10  1  0
 10 11  2  0
 11 12  1  0
 12 13  2  0
 13 14  1  0
 10 15  1  0
 14 15  2  0
  5 16  1  0
 16 17  1  0
 17 18  1  6
 18 19  1  0
 18 20  1  0
  5 21  1  0
 17 21  1  0
M  END
