pyridine_urea_2069
     RDKit          3D

 19 20  0  0  0  0  0  0  0  0999 V2000
    8.9060    0.8610   21.2890 O   0  0  0  0  0  0  0  0  0  0  0  0
    8.4410   -0.2090   21.6610 C   0  0  0  0  0  0  0  0  0  0  0  0
    8.9640   -0.9930   22.6700 N   0  0  0  0  0  0  0  0  0  0  0  0
    9.0820   -2.4000   22.7200 C   0  0  0  0  0  0  0  0  0  0  0  0
    7.9460   -3.2900   23.2610 C   0  0  0  0  0  0  0  0  0  0  0  0
    6.6930   -2.8760   23.4460 N   0  0  0  0  0  0  0  0  0  0  0  0
    6.0100   -3.9660   23.9290 C   0  0  0  0  0  0  0  0  0  0  0  0
    4.5440   -3.9620   24.2800 C   0  0  0  0  0  0  0  0  0  0  0  0
    4.2850   -4.8930   25.2410 F   0  0  0  0  0  0  0  0  0  0  0  0
    3.8040   -4.3570   23.2050 F   0  0  0  0  0  0  0  0  0  0  0  0
    6.9390   -5.0110   24.0060 N   0  0  0  0  0  0  0  0  0  0  0  0
    8.1890   -4.4620   23.5450 O   0  0  0  0  0  0  0  0  0  0  0  0
    7.3030   -0.6560   21.0560 N   0  0  0  0  0  0  0  0  0  0  0  0
    6.5470    0.0270   20.0880 C   0  0  0  0  0  0  0  0  0  0  0  0
    5.3780    0.7690   20.3240 C   0  0  0  0  0  0  0  0  0  0  0  0
    4.7150    1.4150   19.2620 C   0  0  0  0  0  0  0  0  0  0  0  0
    5.1970    1.3410   17.9660 C   0  0  0  0  0  0  0  0  0  0  0  0
    6.3220    0.6350   17.6730 N   0  0  0  0  0  0  0  0  0  0  0  0
    7.0180   -0.0300   18.6800 C   0  0  0  0  0  0  0  0  0  0  0  0
  1  2  2  0
  2  3  1  0
  3  4  1  0
  4  5  1  0
  5  6  2  0
  6  7  1  0
  7  8  1  0
  8  9  1  0
  8 10  1  0
  7 11  2  0
  5 12  1  0
 11 12  1  0
  2 13  1  0
 13 14  1  0
 14 15  2  0
 15 16  1  0
 16 17  2  0
 17 18  1  0
 14 19  1  0
 18 19  2  0
M  END
