pyridine_urea_14728
     RDKit          3D

 20 21  0  0  0  0  0  0  0  0999 V2000
   13.4830   -2.7480   24.7970 C   0  0  0  0  0  0  0  0  0  0  0  0
   12.4920   -2.4180   24.1760 O   0  0  0  0  0  0  0  0  0  0  0  0
   12.6220   -1.3360   23.3450 C   0  0  2  0  0  0  0  0  0  0  0  0
   12.6220   -0.1530   24.0640 C   0  0  0  0  0  0  0  0  0  0  0  0
   11.3880    0.4120   24.4000 C   0  0  0  0  0  0  0  0  0  0  0  0
   10.3890    0.3200   23.4880 C   0  0  2  0  0  0  0  0  0  0  0  0
    9.8900    1.5900   23.1710 C   0  0  0  0  0  0  0  0  0  0  0  0
    9.4450   -0.6680   23.7790 C   0  0  0  0  0  0  0  0  0  0  0  0
    8.7830   -1.0790   22.5970 N   0  0  0  0  0  0  0  0  0  0  0  0
    8.1900   -0.2730   21.6250 C   0  0  0  0  0  0  0  0  0  0  0  0
    8.6570    0.8020   21.2480 O   0  0  0  0  0  0  0  0  0  0  0  0
    6.9590   -0.8910   21.1570 N   0  0  0  0  0  0  0  0  0  0  0  0
    6.3650   -0.1120   20.0450 C   0  0  0  0  0  0  0  0  0  0  0  0
    5.2070    0.6140   20.2650 C   0  0  0  0  0  0  0  0  0  0  0  0
    4.5940    1.3680   19.2770 C   0  0  0  0  0  0  0  0  0  0  0  0
    5.2590    1.3540   17.9560 C   0  0  0  0  0  0  0  0  0  0  0  0
    6.3930    0.6390   17.7450 N   0  0  0  0  0  0  0  0  0  0  0  0
    6.9190   -0.0730   18.7780 C   0  0  0  0  0  0  0  0  0  0  0  0
   11.0290   -0.1580   22.2550 C   0  0  0  0  0  0  0  0  0  0  0  0
   11.7160   -1.3520   22.3150 C   0  0  0  0  0  0  0  0  0  0  0  0
  1  2  1  0
  3  2  1  1
  3  4  1  0
  4  5  1  0
  5  6  1  0
  6  7  1  6
  6  8  1  0
  8  9  1  0
  9 10  1  0
 10 11  2  0
 10 12  1  0
 12 13  1  0
 13 14  2  0
 14 15  1  0
 15 16  2  0
 16 17  1  0
 13 18  1  0
 17 18  2  0
  6 19  1  0
  3 20  1  0
 19 20  1  0
M  END
