pyridine_urea_8286
     RDKit          3D

 23 25  0  0  0  0  0  0  0  0999 V2000
    8.7410   -5.2830   28.0850 C   0  0  0  0  0  0  0  0  0  0  0  0
   10.0830   -5.5000   27.6960 O   0  0  0  0  0  0  0  0  0  0  0  0
   10.4200   -4.6960   26.5750 C   0  0  0  0  0  0  0  0  0  0  0  0
   11.9210   -4.2550   26.3360 C   0  0  0  0  0  0  0  0  0  0  0  0
   12.3040   -3.4680   25.2890 C   0  0  0  0  0  0  0  0  0  0  0  0
   11.2680   -3.0090   24.3170 C   0  0  0  0  0  0  0  0  0  0  0  0
    9.9790   -3.4170   24.5650 C   0  0  0  0  0  0  0  0  0  0  0  0
    9.4690   -4.2760   25.6860 C   0  0  0  0  0  0  0  0  0  0  0  0
    9.0820   -2.9130   23.5950 N   0  0  0  0  0  0  0  0  0  0  0  0
   10.0550   -2.1750   22.7930 C   0  0  0  0  0  0  0  0  0  0  0  0
    9.6910   -1.3870   21.6480 C   0  0  0  0  0  0  0  0  0  0  0  0
    9.0670   -0.2590   22.1260 N   0  0  0  0  0  0  0  0  0  0  0  0
    8.3160    0.5650   21.4120 C   0  0  0  0  0  0  0  0  0  0  0  0
    8.6750    1.8270   21.0440 O   0  0  0  0  0  0  0  0  0  0  0  0
    7.1340   -0.0480   21.0860 N   0  0  0  0  0  0  0  0  0  0  0  0
    6.4480    0.3850   19.9810 C   0  0  0  0  0  0  0  0  0  0  0  0
    5.1740    1.1670   20.1970 C   0  0  0  0  0  0  0  0  0  0  0  0
    4.5130    1.6250   19.0840 C   0  0  0  0  0  0  0  0  0  0  0  0
    5.0730    1.3310   17.8490 C   0  0  0  0  0  0  0  0  0  0  0  0
    6.1920    0.6310   17.6250 N   0  0  0  0  0  0  0  0  0  0  0  0
    6.8630    0.1660   18.6910 C   0  0  0  0  0  0  0  0  0  0  0  0
   11.3480   -2.2530   23.2160 N   0  0  0  0  0  0  0  0  0  0  0  0
   12.4590   -1.6900   22.6670 C   0  0  0  0  0  0  0  0  0  0  0  0
  1  2  1  0
  2  3  1  0
  3  4  2  0
  4  5  1  0
  5  6  2  0
  6  7  1  0
  3  8  1  0
  7  8  2  0
  7  9  1  0
  9 10  2  0
 10 11  1  0
 11 12  1  0
 12 13  1  0
 13 14  2  0
 13 15  1  0
 15 16  1  0
 16 17  2  0
 17 18  1  0
 18 19  2  0
 19 20  1  0
 16 21  1  0
 20 21  2  0
  6 22  1  0
 10 22  1  0
 22 23  1  0
M  END
