pyridine_urea_7907
     RDKit          3D

 25 27  0  0  0  0  0  0  0  0999 V2000
    9.8120   -0.3080   24.5470 C   0  0  0  0  0  0  0  0  0  0  0  0
   10.1310   -0.1340   23.0680 C   0  0  2  0  0  0  0  0  0  0  0  0
    9.0960   -0.8030   22.3000 N   0  0  0  0  0  0  0  0  0  0  0  0
    8.3980    0.0090   21.4450 C   0  0  0  0  0  0  0  0  0  0  0  0
    8.8220    1.1200   21.0980 O   0  0  0  0  0  0  0  0  0  0  0  0
    7.2140   -0.5460   21.0440 N   0  0  0  0  0  0  0  0  0  0  0  0
    6.4940    0.0810   19.9740 C   0  0  0  0  0  0  0  0  0  0  0  0
    5.3380    0.7970   20.2220 C   0  0  0  0  0  0  0  0  0  0  0  0
    4.6100    1.4530   19.2260 C   0  0  0  0  0  0  0  0  0  0  0  0
    5.1060    1.3610   17.9260 C   0  0  0  0  0  0  0  0  0  0  0  0
    6.2420    0.6460   17.6680 N   0  0  0  0  0  0  0  0  0  0  0  0
    6.9350    0.0080   18.6820 C   0  0  0  0  0  0  0  0  0  0  0  0
   11.4970   -0.6710   22.6860 C   0  0  0  0  0  0  0  0  0  0  0  0
   11.7090   -1.7630   22.1980 C   0  0  0  0  0  0  0  0  0  0  0  0
   12.7330   -0.7670   22.5190 C   0  0  0  0  0  0  0  0  0  0  0  0
   11.7410    0.3380   23.0760 C   0  0  0  0  0  0  0  0  0  0  0  0
   11.5260    1.6310   23.6210 N   0  0  0  0  0  0  0  0  0  0  0  0
   12.3320    2.4810   22.9080 C   0  0  0  0  0  0  0  0  0  0  0  0
   12.1050    3.8520   22.8010 C   0  0  0  0  0  0  0  0  0  0  0  0
   10.8020    4.1610   23.1910 C   0  0  0  0  0  0  0  0  0  0  0  0
    9.9560    3.1090   23.2090 N   0  0  0  0  0  0  0  0  0  0  0  0
   10.2790    2.0520   24.0010 C   0  0  0  0  0  0  0  0  0  0  0  0
    9.5230    1.6600   24.8720 O   0  0  0  0  0  0  0  0  0  0  0  0
   12.9700    0.9430   23.2100 C   0  0  0  0  0  0  0  0  0  0  0  0
   12.8560   -0.2200   22.7330 C   0  0  0  0  0  0  0  0  0  0  0  0
  2  1  1  1
  2  3  1  0
  3  4  1  0
  4  5  2  0
  4  6  1  0
  6  7  1  0
  7  8  2  0
  8  9  1  0
  9 10  2  0
 10 11  1  0
  7 12  1  0
 11 12  2  0
  2 13  1  0
 13 14  2  0
 14 15  1  0
 15 16  2  0
 16 17  1  0
 17 18  1  0
 18 19  1  0
 19 20  1  0
 20 21  1  0
 17 22  1  0
 21 22  1  0
 22 23  2  0
 16 24  1  0
 13 25  1  0
 24 25  2  0
M  END
