pyridine_urea_6888
     RDKit          3D

 20 22  0  0  0  0  0  0  0  0999 V2000
    8.7690    1.0740   21.2180 O   0  0  0  0  0  0  0  0  0  0  0  0
    8.4050   -0.0910   21.2990 C   0  0  0  0  0  0  0  0  0  0  0  0
    9.2270   -1.1190   21.6820 N   0  0  0  0  0  0  0  0  0  0  0  0
    9.5740   -1.4420   23.0030 C   0  0  0  0  0  0  0  0  0  0  0  0
    8.8670   -0.8620   24.0750 C   0  0  0  0  0  0  0  0  0  0  0  0
    8.1130    0.3080   23.8450 N   0  0  0  0  0  0  0  0  0  0  0  0
    7.5230    0.6670   25.0120 N   0  0  0  0  0  0  0  0  0  0  0  0
    7.7740   -0.1360   26.0870 C   0  0  0  0  0  0  0  0  0  0  0  0
    7.3220   -0.0290   27.3980 C   0  0  0  0  0  0  0  0  0  0  0  0
    8.0510   -0.7720   28.3470 C   0  0  0  0  0  0  0  0  0  0  0  0
    8.4190    0.4320   29.0490 C   0  0  0  0  0  0  0  0  0  0  0  0
    7.7530    1.2280   28.1350 C   0  0  0  0  0  0  0  0  0  0  0  0
    8.8540   -1.5210   25.6800 S   0  0  0  0  0  0  0  0  0  0  0  0
    7.1420   -0.5530   21.0100 N   0  0  0  0  0  0  0  0  0  0  0  0
    6.4070    0.0860   20.0830 C   0  0  0  0  0  0  0  0  0  0  0  0
    5.2190    0.7750   20.3430 C   0  0  0  0  0  0  0  0  0  0  0  0
    4.5960    1.3950   19.2760 C   0  0  0  0  0  0  0  0  0  0  0  0
    5.1960    1.3040   17.9440 C   0  0  0  0  0  0  0  0  0  0  0  0
    6.3340    0.6340   17.6960 N   0  0  0  0  0  0  0  0  0  0  0  0
    6.8920    0.0500   18.7740 C   0  0  0  0  0  0  0  0  0  0  0  0
  1  2  2  0
  2  3  1  0
  3  4  1  0
  4  5  1  0
  5  6  2  0
  6  7  1  0
  7  8  2  0
  8  9  1  0
  9 10  1  0
 10 11  1  0
  9 12  1  0
 11 12  1  0
  5 13  1  0
  8 13  1  0
  2 14  1  0
 14 15  1  0
 15 16  2  0
 16 17  1  0
 17 18  2  0
 18 19  1  0
 15 20  1  0
 19 20  2  0
M  END
