pyridine_urea_4663
     RDKit          3D

 22 24  0  0  0  0  0  0  0  0999 V2000
    8.3660   -1.9640   20.6440 O   0  0  0  0  0  0  0  0  0  0  0  0
    8.1650   -1.0300   21.2890 C   0  0  0  0  0  0  0  0  0  0  0  0
    6.9340   -0.4510   21.3430 N   0  0  0  0  0  0  0  0  0  0  0  0
    6.4320    0.1130   20.1120 C   0  0  0  0  0  0  0  0  0  0  0  0
    5.1650    0.9690   20.2530 C   0  0  0  0  0  0  0  0  0  0  0  0
    4.5930    1.5730   19.1390 C   0  0  0  0  0  0  0  0  0  0  0  0
    5.2070    1.3770   17.9060 C   0  0  0  0  0  0  0  0  0  0  0  0
    6.3370    0.5990   17.8140 N   0  0  0  0  0  0  0  0  0  0  0  0
    6.9660   -0.0450   18.8850 C   0  0  0  0  0  0  0  0  0  0  0  0
    9.1200   -0.4230   21.9700 N   0  0  0  0  0  0  0  0  0  0  0  0
   10.0710    0.3180   22.4890 C   0  0  1  0  0  0  0  0  0  0  0  0
    9.7040    1.1990   23.3910 C   0  0  0  0  0  0  0  0  0  0  0  0
   10.4980    2.2960   23.2930 C   0  0  0  0  0  0  0  0  0  0  0  0
   11.9040    2.1680   23.1550 C   0  0  2  0  0  0  0  0  0  0  0  0
   12.3010    3.4780   22.9430 N   0  0  0  0  0  0  0  0  0  0  0  0
   11.3020    4.3120   23.5950 C   0  0  0  0  0  0  0  0  0  0  0  0
   11.8990    5.5870   24.1220 C   0  0  0  0  0  0  0  0  0  0  0  0
   12.6940    6.0670   23.3430 O   0  0  0  0  0  0  0  0  0  0  0  0
   12.5070    5.5360   22.0340 C   0  0  0  0  0  0  0  0  0  0  0  0
   12.8090    4.1470   21.8700 C   0  0  0  0  0  0  0  0  0  0  0  0
   12.4830    0.8800   22.7960 C   0  0  0  0  0  0  0  0  0  0  0  0
   11.4380   -0.2260   22.7370 C   0  0  0  0  0  0  0  0  0  0  0  0
  1  2  2  0
  2  3  1  0
  3  4  1  0
  4  5  2  0
  5  6  1  0
  6  7  2  0
  7  8  1  0
  4  9  1  0
  8  9  2  0
  2 10  1  0
 11 10  1  1
 11 12  1  0
 12 13  1  0
 13 14  1  0
 14 15  1  6
 15 16  1  0
 16 17  1  0
 17 18  1  0
 18 19  1  0
 15 20  1  0
 19 20  1  0
 14 21  1  0
 11 22  1  0
 21 22  1  0
M  END
