pyridine_urea_8287
     RDKit          3D

 23 24  0  0  0  0  0  0  0  0999 V2000
    7.6180    1.3670   27.6630 C   0  0  0  0  0  0  0  0  0  0  0  0
    7.3470    1.2240   26.1630 C   0  0  0  0  0  0  0  0  0  0  0  0
    8.6610    0.6400   25.5310 C   0  0  0  0  0  0  0  0  0  0  0  0
    9.3470   -0.0800   26.2410 O   0  0  0  0  0  0  0  0  0  0  0  0
    9.1300    0.9430   24.1720 N   0  0  0  0  0  0  0  0  0  0  0  0
   10.1740    0.2570   23.6140 C   0  0  0  0  0  0  0  0  0  0  0  0
   11.5670    0.7220   23.9920 C   0  0  0  0  0  0  0  0  0  0  0  0
   12.6520    0.0720   23.5030 C   0  0  0  0  0  0  0  0  0  0  0  0
   12.5910   -1.1110   22.5890 C   0  0  0  0  0  0  0  0  0  0  0  0
   13.6770   -1.7250   22.1480 O   0  0  0  0  0  0  0  0  0  0  0  0
   13.3980   -2.1420   20.8510 C   0  0  0  0  0  0  0  0  0  0  0  0
   11.2190   -1.5540   22.1940 C   0  0  0  0  0  0  0  0  0  0  0  0
   10.0240   -0.8090   22.7480 C   0  0  0  0  0  0  0  0  0  0  0  0
    8.7420   -1.1830   22.3740 N   0  0  0  0  0  0  0  0  0  0  0  0
    8.0440   -0.3590   21.4760 C   0  0  0  0  0  0  0  0  0  0  0  0
    8.5010    0.8640   21.0510 O   0  0  0  0  0  0  0  0  0  0  0  0
    6.8810   -0.8790   21.0640 N   0  0  0  0  0  0  0  0  0  0  0  0
    6.3450   -0.1660   20.0460 C   0  0  0  0  0  0  0  0  0  0  0  0
    5.1570    0.5470   20.2610 C   0  0  0  0  0  0  0  0  0  0  0  0
    4.5920    1.3020   19.2170 C   0  0  0  0  0  0  0  0  0  0  0  0
    5.2250    1.3310   17.9850 C   0  0  0  0  0  0  0  0  0  0  0  0
    6.3550    0.6870   17.6840 N   0  0  0  0  0  0  0  0  0  0  0  0
    6.9130   -0.0900   18.7880 C   0  0  0  0  0  0  0  0  0  0  0  0
  1  2  1  0
  2  3  1  0
  3  4  2  0
  3  5  1  0
  5  6  1  0
  6  7  2  0
  7  8  1  0
  8  9  2  0
  9 10  1  0
 10 11  1  0
  9 12  1  0
  6 13  1  0
 12 13  2  0
 13 14  1  0
 14 15  1  0
 15 16  2  0
 15 17  1  0
 17 18  1  0
 18 19  2  0
 19 20  1  0
 20 21  2  0
 21 22  1  0
 18 23  1  0
 22 23  2  0
M  END
