pyridine_urea_12312
     RDKit          3D

 22 24  0  0  0  0  0  0  0  0999 V2000
   13.2430    4.0010   22.7460 C   0  0  0  0  0  0  0  0  0  0  0  0
   12.0680    3.3100   22.9640 N   0  0  0  0  0  0  0  0  0  0  0  0
   10.9310    4.0470   22.4850 C   0  0  0  0  0  0  0  0  0  0  0  0
    9.7390    3.5880   23.3440 C   0  0  0  0  0  0  0  0  0  0  0  0
    9.4230    2.2810   23.1000 C   0  0  0  0  0  0  0  0  0  0  0  0
   10.6840    1.3950   22.9690 C   0  0  0  0  0  0  0  0  0  0  0  0
   10.4670    0.0340   22.9230 C   0  0  0  0  0  0  0  0  0  0  0  0
   11.4250   -1.1780   22.8020 C   0  0  0  0  0  0  0  0  0  0  0  0
    9.9880   -1.6830   22.8680 C   0  0  0  0  0  0  0  0  0  0  0  0
    9.3130   -1.4810   21.5900 N   0  0  0  0  0  0  0  0  0  0  0  0
    8.4870   -0.4030   21.3470 C   0  0  0  0  0  0  0  0  0  0  0  0
    8.8800    0.7490   21.3870 O   0  0  0  0  0  0  0  0  0  0  0  0
    7.2010   -0.7780   21.0210 N   0  0  0  0  0  0  0  0  0  0  0  0
    6.4380   -0.0600   20.0840 C   0  0  0  0  0  0  0  0  0  0  0  0
    5.1360    0.6800   20.3750 C   0  0  0  0  0  0  0  0  0  0  0  0
    4.5420    1.3830   19.1610 C   0  0  0  0  0  0  0  0  0  0  0  0
    5.1990    1.3010   17.9430 C   0  0  0  0  0  0  0  0  0  0  0  0
    6.3430    0.6240   17.7530 N   0  0  0  0  0  0  0  0  0  0  0  0
    6.9160   -0.0200   18.7880 C   0  0  0  0  0  0  0  0  0  0  0  0
   12.6460   -0.4400   22.7630 C   0  0  0  0  0  0  0  0  0  0  0  0
   12.9310    0.9100   22.8120 C   0  0  0  0  0  0  0  0  0  0  0  0
   11.9770    1.9000   22.9110 C   0  0  0  0  0  0  0  0  0  0  0  0
  1  2  1  0
  2  3  1  0
  3  4  1  0
  4  5  1  0
  5  6  1  0
  6  7  1  0
  7  8  2  0
  8  9  1  0
  9 10  1  0
 10 11  1  0
 11 12  2  0
 11 13  1  0
 13 14  1  0
 14 15  2  0
 15 16  1  0
 16 17  2  0
 17 18  1  0
 14 19  1  0
 18 19  2  0
  8 20  1  0
 20 21  2  0
  2 22  1  0
  6 22  2  0
 21 22  1  0
M  END
