pyridine_urea_1743
     RDKit          3D

 18 18  0  0  0  0  0  0  0  0999 V2000
   11.7710    0.9880   23.8060 C   0  0  0  0  0  0  0  0  0  0  0  0
   10.4560    0.2560   23.6870 C   0  0  0  0  0  0  0  0  0  0  0  0
   10.3800   -0.9960   23.0520 C   0  0  1  0  0  0  0  0  0  0  0  0
   10.2440   -2.0830   23.9230 C   0  0  0  0  0  0  0  0  0  0  0  0
    9.2800   -1.1600   22.1520 N   0  0  0  0  0  0  0  0  0  0  0  0
    8.5030   -0.1890   21.5170 C   0  0  0  0  0  0  0  0  0  0  0  0
    8.8980    0.9540   21.3250 O   0  0  0  0  0  0  0  0  0  0  0  0
    7.2920   -0.6840   21.1550 N   0  0  0  0  0  0  0  0  0  0  0  0
    6.6150   -0.0510   20.1480 C   0  0  0  0  0  0  0  0  0  0  0  0
    5.4650    0.6690   20.4730 C   0  0  0  0  0  0  0  0  0  0  0  0
    4.7110    1.3850   19.3340 C   0  0  0  0  0  0  0  0  0  0  0  0
    5.2280    1.2670   18.0650 C   0  0  0  0  0  0  0  0  0  0  0  0
    6.3400    0.5590   17.7990 N   0  0  0  0  0  0  0  0  0  0  0  0
    6.9920   -0.0710   18.8120 C   0  0  0  0  0  0  0  0  0  0  0  0
   11.7160   -1.1890   22.2900 C   0  0  0  0  0  0  0  0  0  0  0  0
   13.0290   -1.3740   22.0210 O   0  0  0  0  0  0  0  0  0  0  0  0
   12.0820   -1.2370   23.6800 O   0  0  0  0  0  0  0  0  0  0  0  0
   12.9300   -2.3900   23.9210 C   0  0  0  0  0  0  0  0  0  0  0  0
  1  2  1  0
  2  3  1  0
  3  4  1  1
  3  5  1  0
  5  6  1  0
  6  7  2  0
  6  8  1  0
  8  9  1  0
  9 10  2  0
 10 11  1  0
 11 12  2  0
 12 13  1  0
  9 14  1  0
 13 14  2  0
  3 15  1  0
 15 16  2  0
 15 17  1  0
 17 18  1  0
M  END
