pyridine_urea_10796
     RDKit          3D

 20 22  0  0  0  0  0  0  0  0999 V2000
   11.2050   -3.1890   24.1240 C   0  0  0  0  0  0  0  0  0  0  0  0
   12.1290   -2.0950   23.9180 C   0  0  0  0  0  0  0  0  0  0  0  0
   13.4900   -1.9720   24.0320 C   0  0  0  0  0  0  0  0  0  0  0  0
   13.6090   -0.5400   23.6510 N   0  0  0  0  0  0  0  0  0  0  0  0
   12.4750    0.0100   23.3880 C   0  0  0  0  0  0  0  0  0  0  0  0
   12.1190    1.2850   23.0240 C   0  0  0  0  0  0  0  0  0  0  0  0
   10.6370    1.4650   22.8180 C   0  0  0  0  0  0  0  0  0  0  0  0
    9.6950    0.2710   23.0090 C   0  0  0  0  0  0  0  0  0  0  0  0
    8.3080    0.3310   22.8250 N   0  0  0  0  0  0  0  0  0  0  0  0
    8.0640    0.5750   21.5350 C   0  0  0  0  0  0  0  0  0  0  0  0
    8.6380    1.4500   20.8970 O   0  0  0  0  0  0  0  0  0  0  0  0
    7.1120   -0.2350   21.0070 N   0  0  0  0  0  0  0  0  0  0  0  0
    6.4290    0.2700   19.9380 C   0  0  0  0  0  0  0  0  0  0  0  0
    5.2510    0.9700   20.1790 C   0  0  0  0  0  0  0  0  0  0  0  0
    4.5750    1.5180   19.1020 C   0  0  0  0  0  0  0  0  0  0  0  0
    5.1090    1.3380   17.8490 C   0  0  0  0  0  0  0  0  0  0  0  0
    6.2320    0.6550   17.6040 N   0  0  0  0  0  0  0  0  0  0  0  0
    6.8670    0.1350   18.6540 C   0  0  0  0  0  0  0  0  0  0  0  0
   10.2770   -0.8520   23.3600 C   0  0  0  0  0  0  0  0  0  0  0  0
   11.5720   -0.9510   23.5390 C   0  0  0  0  0  0  0  0  0  0  0  0
  1  2  1  0
  2  3  2  0
  3  4  1  0
  4  5  1  0
  5  6  1  0
  6  7  2  0
  7  8  1  0
  8  9  1  0
  9 10  1  0
 10 11  2  0
 10 12  1  0
 12 13  1  0
 13 14  2  0
 14 15  1  0
 15 16  2  0
 16 17  1  0
 13 18  1  0
 17 18  2  0
  8 19  2  0
  2 20  1  0
  5 20  2  0
 19 20  1  0
M  END
