pyridine_urea_1819
     RDKit          3D

 17 17  0  0  0  0  0  0  0  0999 V2000
   13.4100   -1.8740   22.2060 C   0  0  0  0  0  0  0  0  0  0  0  0
   12.2040   -1.2550   22.7570 C   0  0  0  0  0  0  0  0  0  0  0  0
   11.0570   -1.3720   22.0020 C   0  0  0  0  0  0  0  0  0  0  0  0
   12.5310    0.2250   23.0310 C   0  0  0  0  0  0  0  0  0  0  0  0
   11.7820    0.7180   24.0620 C   0  0  0  0  0  0  0  0  0  0  0  0
   10.4050    0.5230   24.0600 C   0  0  0  0  0  0  0  0  0  0  0  0
    9.9180   -0.6010   23.4040 C   0  0  0  0  0  0  0  0  0  0  0  0
    8.5820   -0.4250   22.8960 N   0  0  0  0  0  0  0  0  0  0  0  0
    8.3580    0.1970   21.6890 C   0  0  0  0  0  0  0  0  0  0  0  0
    9.0200    1.1640   21.2820 O   0  0  0  0  0  0  0  0  0  0  0  0
    7.2450   -0.4290   21.0130 N   0  0  0  0  0  0  0  0  0  0  0  0
    6.5470    0.1310   20.0070 C   0  0  0  0  0  0  0  0  0  0  0  0
    5.3850    0.8450   20.3010 C   0  0  0  0  0  0  0  0  0  0  0  0
    4.6770    1.4400   19.2630 C   0  0  0  0  0  0  0  0  0  0  0  0
    5.1490    1.3050   17.9740 C   0  0  0  0  0  0  0  0  0  0  0  0
    6.2560    0.6170   17.6740 N   0  0  0  0  0  0  0  0  0  0  0  0
    6.9270    0.0480   18.6880 C   0  0  0  0  0  0  0  0  0  0  0  0
  1  2  1  0
  2  3  1  0
  2  4  1  0
  4  5  1  0
  5  6  1  0
  6  7  1  0
  7  8  1  0
  8  9  1  0
  9 10  2  0
  9 11  1  0
 11 12  1  0
 12 13  2  0
 13 14  1  0
 14 15  2  0
 15 16  1  0
 12 17  1  0
 16 17  2  0
M  END
