pyridine_urea_3000
     RDKit          3D

 21 22  0  0  0  0  0  0  0  0999 V2000
   13.3460   -2.6790   22.5640 C   0  0  0  0  0  0  0  0  0  0  0  0
   13.1430   -1.5680   21.5570 C   0  0  0  0  0  0  0  0  0  0  0  0
   12.5950   -0.4120   22.4270 C   0  0  0  0  0  0  0  0  0  0  0  0
   13.0920    0.5980   23.0440 C   0  0  0  0  0  0  0  0  0  0  0  0
   11.9220    1.2140   23.6540 C   0  0  0  0  0  0  0  0  0  0  0  0
   10.6760    0.6190   23.4140 C   0  0  0  0  0  0  0  0  0  0  0  0
    9.7760   -0.4060   22.8040 C   0  0  1  0  0  0  0  0  0  0  0  0
   10.3990   -1.7070   23.2940 C   0  0  0  0  0  0  0  0  0  0  0  0
   11.0780   -1.5000   24.2910 O   0  0  0  0  0  0  0  0  0  0  0  0
   12.0590   -2.5180   24.5160 C   0  0  0  0  0  0  0  0  0  0  0  0
    8.7840   -0.8540   22.5080 N   0  0  0  0  0  0  0  0  0  0  0  0
    8.1910   -0.0740   21.5470 C   0  0  0  0  0  0  0  0  0  0  0  0
    8.7260    1.1410   21.1390 O   0  0  0  0  0  0  0  0  0  0  0  0
    7.0040   -0.5930   21.0330 N   0  0  0  0  0  0  0  0  0  0  0  0
    6.3710    0.0310   19.9760 C   0  0  0  0  0  0  0  0  0  0  0  0
    5.0630    0.7670   20.2000 C   0  0  0  0  0  0  0  0  0  0  0  0
    4.4860    1.4020   19.1110 C   0  0  0  0  0  0  0  0  0  0  0  0
    5.1380    1.3260   17.8820 C   0  0  0  0  0  0  0  0  0  0  0  0
    6.2900    0.6680   17.6740 N   0  0  0  0  0  0  0  0  0  0  0  0
    6.8730    0.0430   18.7040 C   0  0  0  0  0  0  0  0  0  0  0  0
   11.1950   -0.3250   22.6870 O   0  0  0  0  0  0  0  0  0  0  0  0
  1  2  1  0
  2  3  1  0
  3  4  2  0
  4  5  1  0
  5  6  2  0
  6  7  1  0
  7  8  1  1
  8  9  1  0
  9 10  1  0
  7 11  1  0
 11 12  1  0
 12 13  2  0
 12 14  1  0
 14 15  1  0
 15 16  2  0
 16 17  1  0
 17 18  2  0
 18 19  1  0
 15 20  1  0
 19 20  2  0
  3 21  1  0
  6 21  1  0
M  END
