pyridine_urea_2801
     RDKit          3D

 22 24  0  0  0  0  0  0  0  0999 V2000
    8.5180    1.0770   21.4390 O   0  0  0  0  0  0  0  0  0  0  0  0
    8.1910   -0.0710   21.1840 C   0  0  0  0  0  0  0  0  0  0  0  0
    6.9030   -0.4960   21.0930 N   0  0  0  0  0  0  0  0  0  0  0  0
    6.2600    0.1510   20.0010 C   0  0  0  0  0  0  0  0  0  0  0  0
    4.9260    0.9110   20.2330 C   0  0  0  0  0  0  0  0  0  0  0  0
    4.3760    1.5370   19.1300 C   0  0  0  0  0  0  0  0  0  0  0  0
    5.1450    1.4100   17.8080 C   0  0  0  0  0  0  0  0  0  0  0  0
    6.2990    0.7240   17.6680 N   0  0  0  0  0  0  0  0  0  0  0  0
    6.8200    0.1200   18.7460 C   0  0  0  0  0  0  0  0  0  0  0  0
    9.0290   -1.0820   20.9170 N   0  0  0  0  0  0  0  0  0  0  0  0
   10.0740   -1.2130   21.8410 C   0  0  0  0  0  0  0  0  0  0  0  0
   11.1860   -2.2000   21.5100 C   0  0  0  0  0  0  0  0  0  0  0  0
   12.2560   -2.3680   22.4830 C   0  0  0  0  0  0  0  0  0  0  0  0
   12.0500   -1.5450   23.6500 C   0  0  0  0  0  0  0  0  0  0  0  0
   10.9370   -0.6230   23.8200 C   0  0  0  0  0  0  0  0  0  0  0  0
   11.2460   -0.1220   25.0540 C   0  0  0  0  0  0  0  0  0  0  0  0
   12.3760   -0.6240   25.6000 N   0  0  0  0  0  0  0  0  0  0  0  0
   12.7920   -1.5360   24.6800 N   0  0  0  0  0  0  0  0  0  0  0  0
   13.7980   -2.3940   24.7390 C   0  0  0  0  0  0  0  0  0  0  0  0
   13.3790   -3.5180   25.3140 F   0  0  0  0  0  0  0  0  0  0  0  0
   14.1040   -2.7840   23.4850 F   0  0  0  0  0  0  0  0  0  0  0  0
    9.9770   -0.4550   22.9390 C   0  0  0  0  0  0  0  0  0  0  0  0
  1  2  2  0
  2  3  1  0
  3  4  1  0
  4  5  2  0
  5  6  1  0
  6  7  2  0
  7  8  1  0
  4  9  1  0
  8  9  2  0
  2 10  1  0
 10 11  1  0
 11 12  2  0
 12 13  1  0
 13 14  2  0
 14 15  1  0
 15 16  1  0
 16 17  2  0
 14 18  1  0
 17 18  1  0
 18 19  1  0
 19 20  1  0
 19 21  1  0
 11 22  1  0
 15 22  2  0
M  END
