pyridine_urea_4263
     RDKit          3D

 24 26  0  0  0  0  0  0  0  0999 V2000
    8.8730   -0.8090   20.6850 O   0  0  0  0  0  0  0  0  0  0  0  0
    8.1450   -0.6380   21.5830 C   0  0  0  0  0  0  0  0  0  0  0  0
    6.7840   -0.6260   21.4230 N   0  0  0  0  0  0  0  0  0  0  0  0
    6.2830    0.0230   20.2290 C   0  0  0  0  0  0  0  0  0  0  0  0
    5.0280    0.8690   20.4170 C   0  0  0  0  0  0  0  0  0  0  0  0
    4.4660    1.5800   19.1930 C   0  0  0  0  0  0  0  0  0  0  0  0
    5.2350    1.3630   17.8910 C   0  0  0  0  0  0  0  0  0  0  0  0
    6.3750    0.5520   17.8630 N   0  0  0  0  0  0  0  0  0  0  0  0
    6.8750   -0.0880   18.9740 C   0  0  0  0  0  0  0  0  0  0  0  0
    8.6300   -0.4010   22.8360 N   0  0  0  0  0  0  0  0  0  0  0  0
    9.7850    0.4070   22.8310 C   0  0  0  0  0  0  0  0  0  0  0  0
    9.9230    1.7260   23.2080 C   0  0  0  0  0  0  0  0  0  0  0  0
   11.1010    2.4600   23.1730 C   0  0  0  0  0  0  0  0  0  0  0  0
   12.2510    1.8100   22.8380 C   0  0  0  0  0  0  0  0  0  0  0  0
   12.2090    0.5240   22.5270 N   0  0  0  0  0  0  0  0  0  0  0  0
   13.2850   -0.1640   22.7120 C   0  0  0  0  0  0  0  0  0  0  0  0
   12.7910   -1.2540   23.3080 C   0  0  0  0  0  0  0  0  0  0  0  0
   11.4320   -1.6390   22.8290 C   0  0  0  0  0  0  0  0  0  0  0  0
   10.8660   -2.7200   23.3870 C   0  0  0  0  0  0  0  0  0  0  0  0
   11.6140   -3.4250   24.3950 C   0  0  0  0  0  0  0  0  0  0  0  0
   12.8470   -3.0520   24.8140 C   0  0  0  0  0  0  0  0  0  0  0  0
   13.4420   -1.9890   24.2920 C   0  0  0  0  0  0  0  0  0  0  0  0
   11.0600   -0.1870   22.3320 C   0  0  0  0  0  0  0  0  0  0  0  0
   11.0030   -1.2660   21.7330 O   0  0  0  0  0  0  0  0  0  0  0  0
  1  2  2  0
  2  3  1  0
  3  4  1  0
  4  5  2  0
  5  6  1  0
  6  7  2  0
  7  8  1  0
  4  9  1  0
  8  9  2  0
  2 10  1  0
 10 11  1  0
 11 12  2  0
 12 13  1  0
 13 14  2  0
 14 15  1  0
 15 16  1  0
 16 17  1  0
 17 18  2  0
 18 19  1  0
 19 20  2  0
 20 21  1  0
 17 22  1  0
 21 22  2  0
 11 23  1  0
 15 23  1  0
 23 24  2  0
M  END
