pyridine_urea_51
     RDKit          3D

 20 21  0  0  0  0  0  0  0  0999 V2000
    8.5110    2.9440   22.1440 C   0  0  0  0  0  0  0  0  0  0  0  0
    8.8290    1.7960   22.9340 O   0  0  0  0  0  0  0  0  0  0  0  0
   10.2390    1.6120   23.0560 C   0  0  0  0  0  0  0  0  0  0  0  0
   11.0660    2.4250   22.6630 O   0  0  0  0  0  0  0  0  0  0  0  0
   10.5850    0.2900   23.7600 C   0  0  2  0  0  0  0  0  0  0  0  0
   11.9750    0.4790   24.2200 C   0  0  0  0  0  0  0  0  0  0  0  0
   12.8170   -0.0540   23.3220 C   0  0  0  0  0  0  0  0  0  0  0  0
   12.4330   -0.9900   22.2140 C   0  0  0  0  0  0  0  0  0  0  0  0
   11.0100   -1.3640   22.0590 C   0  0  0  0  0  0  0  0  0  0  0  0
   10.2760   -0.9890   23.1410 C   0  0  2  0  0  0  0  0  0  0  0  0
    8.8730   -1.0430   22.7340 N   0  0  0  0  0  0  0  0  0  0  0  0
    8.4060   -0.2430   21.7050 C   0  0  0  0  0  0  0  0  0  0  0  0
    9.0010    0.7530   21.3370 O   0  0  0  0  0  0  0  0  0  0  0  0
    7.2100   -0.7000   21.1900 N   0  0  0  0  0  0  0  0  0  0  0  0
    6.5020   -0.0140   20.0920 C   0  0  0  0  0  0  0  0  0  0  0  0
    5.3610    0.7040   20.4610 C   0  0  0  0  0  0  0  0  0  0  0  0
    4.6940    1.3640   19.4510 C   0  0  0  0  0  0  0  0  0  0  0  0
    5.1950    1.2920   18.0480 C   0  0  0  0  0  0  0  0  0  0  0  0
    6.2840    0.5990   17.6820 N   0  0  0  0  0  0  0  0  0  0  0  0
    6.9320   -0.0460   18.6870 C   0  0  0  0  0  0  0  0  0  0  0  0
  1  2  1  0
  2  3  1  0
  3  4  2  0
  5  3  1  6
  5  6  1  0
  6  7  1  0
  7  8  2  0
  8  9  1  0
  5 10  1  0
  9 10  1  0
 10 11  1  6
 11 12  1  0
 12 13  2  0
 12 14  1  0
 14 15  1  0
 15 16  2  0
 16 17  1  0
 17 18  2  0
 18 19  1  0
 15 20  1  0
 19 20  2  0
M  END
