pyridine_urea_8390
     RDKit          3D

 22 24  0  0  0  0  0  0  0  0999 V2000
   12.7850   -0.6930   25.4550 C   0  0  0  0  0  0  0  0  0  0  0  0
   12.8330   -2.1810   25.4310 C   0  0  0  0  0  0  0  0  0  0  0  0
   14.1800   -2.7110   25.8990 C   0  0  0  0  0  0  0  0  0  0  0  0
   12.7820   -2.1790   24.1500 N   0  0  0  0  0  0  0  0  0  0  0  0
   13.7330   -2.8530   23.3780 N   0  0  0  0  0  0  0  0  0  0  0  0
   13.1690   -2.5100   22.0810 C   0  0  0  0  0  0  0  0  0  0  0  0
   11.9940   -1.6940   22.4170 C   0  0  0  0  0  0  0  0  0  0  0  0
   11.7560   -1.4840   23.6230 C   0  0  0  0  0  0  0  0  0  0  0  0
   10.5720   -0.6590   24.1680 C   0  0  0  0  0  0  0  0  0  0  0  0
    9.6990   -0.3890   22.9580 C   0  0  2  0  0  0  0  0  0  0  0  0
    8.4270   -0.0840   23.0120 N   0  0  0  0  0  0  0  0  0  0  0  0
    8.1090    0.3440   21.7630 C   0  0  0  0  0  0  0  0  0  0  0  0
    8.6470    1.3130   21.2000 O   0  0  0  0  0  0  0  0  0  0  0  0
    7.0710   -0.5000   21.1630 N   0  0  0  0  0  0  0  0  0  0  0  0
    6.4280    0.0820   20.0820 C   0  0  0  0  0  0  0  0  0  0  0  0
    5.1340    0.8420   20.3150 C   0  0  0  0  0  0  0  0  0  0  0  0
    4.5150    1.4660   19.0890 C   0  0  0  0  0  0  0  0  0  0  0  0
    5.1570    1.3040   17.8780 C   0  0  0  0  0  0  0  0  0  0  0  0
    6.3010    0.6130   17.7170 N   0  0  0  0  0  0  0  0  0  0  0  0
    6.8940    0.0310   18.7830 C   0  0  0  0  0  0  0  0  0  0  0  0
    9.9310   -1.4050   22.0860 C   0  0  0  0  0  0  0  0  0  0  0  0
   11.1520   -1.1620   21.6860 C   0  0  0  0  0  0  0  0  0  0  0  0
  1  2  1  0
  2  3  1  0
  2  4  1  0
  4  5  1  0
  5  6  2  0
  6  7  1  0
  4  8  1  0
  7  8  2  0
  8  9  1  0
  9 10  1  0
 10 11  1  1
 11 12  1  0
 12 13  2  0
 12 14  1  0
 14 15  1  0
 15 16  2  0
 16 17  1  0
 17 18  2  0
 18 19  1  0
 15 20  1  0
 19 20  2  0
 10 21  1  0
  7 22  1  0
 21 22  1  0
M  END
