pyridine_urea_3591
     RDKit          3D

 17 18  0  0  0  0  0  0  0  0999 V2000
    8.9040    0.5870   21.4080 O   0  0  0  0  0  0  0  0  0  0  0  0
    8.2830   -0.4490   21.6000 C   0  0  0  0  0  0  0  0  0  0  0  0
    8.7060   -1.4950   22.4020 N   0  0  0  0  0  0  0  0  0  0  0  0
    9.9900   -1.4650   23.0650 C   0  0  0  0  0  0  0  0  0  0  0  0
   10.9720   -0.5950   22.3300 C   0  0  2  0  0  0  0  0  0  0  0  0
   12.3560   -1.2240   22.3740 C   0  0  0  0  0  0  0  0  0  0  0  0
   13.0660   -0.5920   23.5400 C   0  0  0  0  0  0  0  0  0  0  0  0
   12.1010   -0.3240   24.6650 C   0  0  0  0  0  0  0  0  0  0  0  0
   11.3100    0.7130   24.2390 N   0  0  0  0  0  0  0  0  0  0  0  0
   10.9100    0.8080   22.9070 C   0  0  0  0  0  0  0  0  0  0  0  0
    7.0430   -0.7180   21.0460 N   0  0  0  0  0  0  0  0  0  0  0  0
    6.4450   -0.0440   20.0360 C   0  0  0  0  0  0  0  0  0  0  0  0
    5.2690    0.6700   20.2950 C   0  0  0  0  0  0  0  0  0  0  0  0
    4.6710    1.3600   19.2490 C   0  0  0  0  0  0  0  0  0  0  0  0
    5.2390    1.3320   17.9870 C   0  0  0  0  0  0  0  0  0  0  0  0
    6.3630    0.6520   17.7220 N   0  0  0  0  0  0  0  0  0  0  0  0
    6.9270   -0.0140   18.7480 C   0  0  0  0  0  0  0  0  0  0  0  0
  1  2  2  0
  2  3  1  0
  3  4  1  0
  5  4  1  1
  5  6  1  0
  6  7  1  0
  7  8  1  0
  8  9  1  0
  5 10  1  0
  9 10  1  0
  2 11  1  0
 11 12  1  0
 12 13  2  0
 13 14  1  0
 14 15  2  0
 15 16  1  0
 12 17  1  0
 16 17  2  0
M  END
