pyridine_urea_2423
     RDKit          3D

 25 27  0  0  0  0  0  0  0  0999 V2000
    9.9660    1.8370   22.9660 C   0  0  0  0  0  0  0  0  0  0  0  0
   11.0500    2.8840   22.8110 C   0  0  0  0  0  0  0  0  0  0  0  0
   10.5480    4.1730   22.7030 C   0  0  0  0  0  0  0  0  0  0  0  0
   11.2970    5.3310   22.5500 C   0  0  0  0  0  0  0  0  0  0  0  0
   12.6560    5.1240   22.5100 C   0  0  0  0  0  0  0  0  0  0  0  0
   13.2040    3.8420   22.6160 C   0  0  0  0  0  0  0  0  0  0  0  0
   12.4470    2.6740   22.7690 C   0  0  0  0  0  0  0  0  0  0  0  0
   13.2360    1.3240   22.8800 C   0  0  0  0  0  0  0  0  0  0  0  0
   12.8580    0.3620   22.2750 O   0  0  0  0  0  0  0  0  0  0  0  0
   11.7910    0.0250   22.9280 C   0  0  0  0  0  0  0  0  0  0  0  0
   11.6200    0.3190   24.2430 C   0  0  0  0  0  0  0  0  0  0  0  0
   10.4830    0.0120   24.9540 C   0  0  0  0  0  0  0  0  0  0  0  0
    9.4780   -0.6170   24.2800 C   0  0  0  0  0  0  0  0  0  0  0  0
    9.6430   -0.9260   22.9390 C   0  0  0  0  0  0  0  0  0  0  0  0
    8.6130   -1.5180   22.2690 N   0  0  0  0  0  0  0  0  0  0  0  0
    8.0090   -0.6500   21.4300 C   0  0  0  0  0  0  0  0  0  0  0  0
    8.5180    0.5670   21.1020 O   0  0  0  0  0  0  0  0  0  0  0  0
    6.8200   -0.9550   20.8810 N   0  0  0  0  0  0  0  0  0  0  0  0
    6.1820   -0.1500   19.9420 C   0  0  0  0  0  0  0  0  0  0  0  0
    4.9960    0.5460   20.1360 C   0  0  0  0  0  0  0  0  0  0  0  0
    4.4900    1.3220   19.1010 C   0  0  0  0  0  0  0  0  0  0  0  0
    5.1890    1.3800   17.9020 C   0  0  0  0  0  0  0  0  0  0  0  0
    6.3350    0.7110   17.6970 N   0  0  0  0  0  0  0  0  0  0  0  0
    6.8020   -0.0330   18.7140 C   0  0  0  0  0  0  0  0  0  0  0  0
   10.7920   -0.6240   22.2650 C   0  0  0  0  0  0  0  0  0  0  0  0
  1  2  1  0
  2  3  2  0
  3  4  1  0
  4  5  2  0
  5  6  1  0
  2  7  1  0
  6  7  2  0
  7  8  1  0
  8  9  1  0
  9 10  1  0
 10 11  2  0
 11 12  1  0
 12 13  2  0
 13 14  1  0
 14 15  1  0
 15 16  1  0
 16 17  2  0
 16 18  1  0
 18 19  1  0
 19 20  2  0
 20 21  1  0
 21 22  2  0
 22 23  1  0
 19 24  1  0
 23 24  2  0
 10 25  1  0
 14 25  2  0
M  END
