pyridine_urea_4726
     RDKit          3D

 22 24  0  0  0  0  0  0  0  0999 V2000
    8.6640    0.4390   21.0240 O   0  0  0  0  0  0  0  0  0  0  0  0
    7.9010   -0.4520   21.3420 C   0  0  0  0  0  0  0  0  0  0  0  0
    8.0350   -1.1130   22.4880 N   0  0  0  0  0  0  0  0  0  0  0  0
    8.1800   -0.2130   23.5650 C   0  0  0  0  0  0  0  0  0  0  0  0
    9.1520    0.8890   23.1270 C   0  0  0  0  0  0  0  0  0  0  0  0
   10.4100    1.5290   22.7850 C   0  0  0  0  0  0  0  0  0  0  0  0
   11.4850    0.7870   22.8620 N   0  0  0  0  0  0  0  0  0  0  0  0
   11.2480   -0.4370   23.2460 C   0  0  0  0  0  0  0  0  0  0  0  0
   12.1470   -1.3050   23.3570 C   0  0  0  0  0  0  0  0  0  0  0  0
   12.4590   -1.7530   22.1440 C   0  0  0  0  0  0  0  0  0  0  0  0
   13.3820   -2.6370   22.0550 C   0  0  0  0  0  0  0  0  0  0  0  0
   13.9560   -3.0290   23.2320 C   0  0  0  0  0  0  0  0  0  0  0  0
   13.6580   -2.6200   24.4930 C   0  0  0  0  0  0  0  0  0  0  0  0
   12.6950   -1.7060   24.5570 C   0  0  0  0  0  0  0  0  0  0  0  0
    9.7060   -0.7710   23.5330 S   0  0  0  0  0  0  0  0  0  0  0  0
    6.8100   -0.8790   20.6810 N   0  0  0  0  0  0  0  0  0  0  0  0
    6.2400   -0.1040   19.7780 C   0  0  0  0  0  0  0  0  0  0  0  0
    5.0280    0.4970   20.0780 C   0  0  0  0  0  0  0  0  0  0  0  0
    4.4570    1.3360   19.0740 C   0  0  0  0  0  0  0  0  0  0  0  0
    5.1350    1.4920   17.8960 C   0  0  0  0  0  0  0  0  0  0  0  0
    6.3410    0.8830   17.6100 N   0  0  0  0  0  0  0  0  0  0  0  0
    6.8370    0.1070   18.5740 C   0  0  0  0  0  0  0  0  0  0  0  0
  1  2  2  0
  2  3  1  0
  3  4  1  0
  4  5  1  0
  5  6  2  0
  6  7  1  0
  7  8  2  0
  8  9  1  0
  9 10  2  0
 10 11  1  0
 11 12  2  0
 12 13  1  0
  9 14  1  0
 13 14  2  0
  5 15  1  0
  8 15  1  0
  2 16  1  0
 16 17  1  0
 17 18  2  0
 18 19  1  0
 19 20  2  0
 20 21  1  0
 17 22  1  0
 21 22  2  0
M  END
