pyridine_urea_8851
     RDKit          3D

 20 21  0  0  0  0  0  0  0  0999 V2000
    9.0320    0.6850   21.3360 O   0  0  0  0  0  0  0  0  0  0  0  0
    8.4900   -0.3830   21.5420 C   0  0  0  0  0  0  0  0  0  0  0  0
    9.1050   -1.4110   22.2200 N   0  0  0  0  0  0  0  0  0  0  0  0
   10.2780   -1.1490   23.0420 C   0  0  0  0  0  0  0  0  0  0  0  0
   11.5910   -1.6000   22.3540 C   0  0  0  0  0  0  0  0  0  0  0  0
   12.7860   -0.9660   22.7030 C   0  0  0  0  0  0  0  0  0  0  0  0
   12.7240    0.2610   23.3390 C   0  0  0  0  0  0  0  0  0  0  0  0
   11.5510    0.9350   23.0590 C   0  0  0  0  0  0  0  0  0  0  0  0
   10.4790    1.8220   22.7370 C   0  0  0  0  0  0  0  0  0  0  0  0
   10.4180    3.1890   22.4080 C   0  0  0  0  0  0  0  0  0  0  0  0
   11.5560    3.8760   22.3750 N   0  0  0  0  0  0  0  0  0  0  0  0
   12.6580    3.1940   22.6500 C   0  0  0  0  0  0  0  0  0  0  0  0
   12.6670    1.8330   22.9630 C   0  0  0  0  0  0  0  0  0  0  0  0
    7.2200   -0.7090   21.1310 N   0  0  0  0  0  0  0  0  0  0  0  0
    6.5620   -0.0660   20.0640 C   0  0  0  0  0  0  0  0  0  0  0  0
    5.3120    0.7150   20.2810 C   0  0  0  0  0  0  0  0  0  0  0  0
    4.5890    1.3920   19.3310 C   0  0  0  0  0  0  0  0  0  0  0  0
    5.1750    1.2760   18.0370 C   0  0  0  0  0  0  0  0  0  0  0  0
    6.3030    0.5780   17.7600 N   0  0  0  0  0  0  0  0  0  0  0  0
    6.9700   -0.0730   18.7530 C   0  0  0  0  0  0  0  0  0  0  0  0
  1  2  2  0
  2  3  1  0
  3  4  1  0
  4  5  1  0
  5  6  1  0
  6  7  1  0
  7  8  1  0
  8  9  2  0
  9 10  1  0
 10 11  2  0
 11 12  1  0
  8 13  1  0
 12 13  2  0
  2 14  1  0
 14 15  1  0
 15 16  2  0
 16 17  1  0
 17 18  2  0
 18 19  1  0
 15 20  1  0
 19 20  2  0
M  END
