pyridine_urea_15275
     RDKit          3D

 17 17  0  0  0  0  0  0  0  0999 V2000
   10.4970    0.8220   23.8570 C   0  0  0  0  0  0  0  0  0  0  0  0
   12.0020    0.7320   24.0810 C   0  0  0  0  0  0  0  0  0  0  0  0
   12.7320    0.1410   22.9120 C   0  0  0  0  0  0  0  0  0  0  0  0
   12.3030   -1.2640   22.5730 C   0  0  2  0  0  0  0  0  0  0  0  0
   13.1030   -1.8820   21.4410 C   0  0  0  0  0  0  0  0  0  0  0  0
   10.8640   -1.2790   22.0950 C   0  0  0  0  0  0  0  0  0  0  0  0
    9.7450   -1.4920   23.0870 C   0  0  0  0  0  0  0  0  0  0  0  0
    8.5980   -0.5910   22.8690 N   0  0  0  0  0  0  0  0  0  0  0  0
    8.3540    0.0530   21.6600 C   0  0  0  0  0  0  0  0  0  0  0  0
    8.9940    1.0460   21.2750 O   0  0  0  0  0  0  0  0  0  0  0  0
    7.3100   -0.5490   20.9970 N   0  0  0  0  0  0  0  0  0  0  0  0
    6.5140    0.0970   20.0440 C   0  0  0  0  0  0  0  0  0  0  0  0
    5.3550    0.8030   20.3100 C   0  0  0  0  0  0  0  0  0  0  0  0
    4.6580    1.4170   19.2720 C   0  0  0  0  0  0  0  0  0  0  0  0
    5.1580    1.3000   17.9840 C   0  0  0  0  0  0  0  0  0  0  0  0
    6.2710    0.6150   17.7000 N   0  0  0  0  0  0  0  0  0  0  0  0
    6.9180    0.0330   18.7280 C   0  0  0  0  0  0  0  0  0  0  0  0
  1  2  1  0
  2  3  1  0
  3  4  1  0
  4  5  1  6
  4  6  1  0
  6  7  1  0
  7  8  1  0
  8  9  1  0
  9 10  2  0
  9 11  1  0
 11 12  1  0
 12 13  2  0
 13 14  1  0
 14 15  2  0
 15 16  1  0
 12 17  1  0
 16 17  2  0
M  END
