pyridine_urea_2848
     RDKit          3D

 22 23  0  0  0  0  0  0  0  0999 V2000
   12.7650    3.4770   22.7160 C   0  0  0  0  0  0  0  0  0  0  0  0
   12.0930    2.1070   22.8550 C   0  0  0  0  0  0  0  0  0  0  0  0
   13.0190    0.9360   22.7880 C   0  0  0  0  0  0  0  0  0  0  0  0
   12.5660   -0.2850   22.8610 C   0  0  0  0  0  0  0  0  0  0  0  0
   11.1180   -0.7050   23.0360 C   0  0  0  0  0  0  0  0  0  0  0  0
    9.7530   -0.8910   23.1980 C   0  0  0  0  0  0  0  0  0  0  0  0
    9.1520   -1.4350   21.9730 N   0  0  0  0  0  0  0  0  0  0  0  0
    8.2870   -0.4530   21.3280 C   0  0  0  0  0  0  0  0  0  0  0  0
    8.6550    0.6770   21.0850 O   0  0  0  0  0  0  0  0  0  0  0  0
    6.9930   -0.9780   21.0380 N   0  0  0  0  0  0  0  0  0  0  0  0
    6.4060   -0.2040   20.0450 C   0  0  0  0  0  0  0  0  0  0  0  0
    5.1410    0.5750   20.3710 C   0  0  0  0  0  0  0  0  0  0  0  0
    4.5500    1.4030   19.2540 C   0  0  0  0  0  0  0  0  0  0  0  0
    5.2570    1.3870   17.9220 C   0  0  0  0  0  0  0  0  0  0  0  0
    6.3770    0.6590   17.7320 N   0  0  0  0  0  0  0  0  0  0  0  0
    6.9030   -0.0880   18.7510 C   0  0  0  0  0  0  0  0  0  0  0  0
   10.4840    0.6470   23.0820 C   0  0  0  0  0  0  0  0  0  0  0  0
    9.1310    0.4910   23.2730 O   0  0  0  0  0  0  0  0  0  0  0  0
    8.1800    1.5850   23.0790 C   0  0  0  0  0  0  0  0  0  0  0  0
    8.5050    2.8780   23.5110 C   0  0  0  0  0  0  0  0  0  0  0  0
    8.5340    2.6110   21.9970 C   0  0  0  0  0  0  0  0  0  0  0  0
   10.7410    2.0630   23.0120 C   0  0  0  0  0  0  0  0  0  0  0  0
  1  2  1  0
  2  3  2  0
  3  4  1  0
  4  5  2  0
  5  6  1  0
  6  7  1  0
  7  8  1  0
  8  9  2  0
  8 10  1  0
 10 11  1  0
 11 12  2  0
 12 13  1  0
 13 14  2  0
 14 15  1  0
 11 16  1  0
 15 16  2  0
  5 17  1  0
 17 18  1  0
 18 19  1  0
 19 20  1  0
 19 21  1  0
  2 22  1  0
 17 22  2  0
M  END
