pyridine_urea_2780
     RDKit          3D

 22 23  0  0  0  0  0  0  0  0999 V2000
   12.7190   -4.2290   26.2600 C   0  0  0  0  0  0  0  0  0  0  0  0
   12.3760   -3.0700   25.5710 O   0  0  0  0  0  0  0  0  0  0  0  0
   13.5700   -2.3600   25.3920 C   0  0  0  0  0  0  0  0  0  0  0  0
   14.6770   -2.7270   25.7290 O   0  0  0  0  0  0  0  0  0  0  0  0
   13.2400   -1.0060   24.7250 C   0  0  0  0  0  0  0  0  0  0  0  0
   12.1410   -0.9020   24.0300 C   0  0  0  0  0  0  0  0  0  0  0  0
   10.9250   -0.3660   24.6750 C   0  0  0  0  0  0  0  0  0  0  0  0
    9.7850   -0.2750   23.9690 C   0  0  0  0  0  0  0  0  0  0  0  0
    9.7130   -0.7300   22.5060 C   0  0  0  0  0  0  0  0  0  0  0  0
    9.2260   -0.9230   21.5160 N   0  0  0  0  0  0  0  0  0  0  0  0
    8.3440    0.1680   21.2350 C   0  0  0  0  0  0  0  0  0  0  0  0
    8.7140    1.3460   21.1420 O   0  0  0  0  0  0  0  0  0  0  0  0
    7.0260   -0.3670   21.0590 N   0  0  0  0  0  0  0  0  0  0  0  0
    6.4130    0.1960   19.9980 C   0  0  0  0  0  0  0  0  0  0  0  0
    5.1290    0.9560   20.2750 C   0  0  0  0  0  0  0  0  0  0  0  0
    4.4020    1.6440   19.1260 C   0  0  0  0  0  0  0  0  0  0  0  0
    5.1200    1.4550   17.7940 C   0  0  0  0  0  0  0  0  0  0  0  0
    6.2820    0.7300   17.6650 N   0  0  0  0  0  0  0  0  0  0  0  0
    6.9170    0.1110   18.7230 C   0  0  0  0  0  0  0  0  0  0  0  0
   10.9460   -1.2180   21.9950 C   0  0  0  0  0  0  0  0  0  0  0  0
   12.0830   -1.2820   22.7420 C   0  0  0  0  0  0  0  0  0  0  0  0
   13.1540   -1.7740   22.0830 F   0  0  0  0  0  0  0  0  0  0  0  0
  1  2  1  0
  2  3  1  0
  3  4  2  0
  3  5  1  0
  5  6  1  0
  6  7  2  0
  7  8  1  0
  8  9  2  0
  9 10  1  0
 10 11  1  0
 11 12  2  0
 11 13  1  0
 13 14  1  0
 14 15  2  0
 15 16  1  0
 16 17  2  0
 17 18  1  0
 14 19  1  0
 18 19  2  0
  9 20  1  0
  6 21  1  0
 20 21  2  0
 21 22  1  0
M  END
