pyridine_urea_10961
     RDKit          3D

 19 20  0  0  0  0  0  0  0  0999 V2000
    8.8280    0.8200   21.2970 O   0  0  0  0  0  0  0  0  0  0  0  0
    8.2830   -0.2410   21.5610 C   0  0  0  0  0  0  0  0  0  0  0  0
    8.7930   -1.1350   22.5840 N   0  0  0  0  0  0  0  0  0  0  0  0
    9.3750   -0.5400   23.6960 C   0  0  0  0  0  0  0  0  0  0  0  0
   10.1750    0.5560   23.4280 C   0  0  0  0  0  0  0  0  0  0  0  0
   11.0100   -0.5530   23.3340 N   0  0  0  0  0  0  0  0  0  0  0  0
   12.3880   -0.9700   23.0620 C   0  0  0  0  0  0  0  0  0  0  0  0
   12.8780   -2.5980   23.0870 Cl  0  0  0  0  0  0  0  0  0  0  0  0
   13.2030    0.0190   22.8050 C   0  0  0  0  0  0  0  0  0  0  0  0
   12.6630    1.3460   22.8280 C   0  0  0  0  0  0  0  0  0  0  0  0
   11.1960    1.5310   23.1250 C   0  0  0  0  0  0  0  0  0  0  0  0
   10.7470    3.3520   23.0270 Br  0  0  0  0  0  0  0  0  0  0  0  0
    7.1430   -0.7250   20.9750 N   0  0  0  0  0  0  0  0  0  0  0  0
    6.4430   -0.0440   20.0470 C   0  0  0  0  0  0  0  0  0  0  0  0
    5.2670    0.6840   20.2710 C   0  0  0  0  0  0  0  0  0  0  0  0
    4.6150    1.3820   19.2300 C   0  0  0  0  0  0  0  0  0  0  0  0
    5.1480    1.3540   17.9440 C   0  0  0  0  0  0  0  0  0  0  0  0
    6.3140    0.6220   17.7320 N   0  0  0  0  0  0  0  0  0  0  0  0
    6.9310   -0.0560   18.7630 C   0  0  0  0  0  0  0  0  0  0  0  0
  1  2  2  0
  2  3  1  0
  3  4  1  0
  4  5  1  0
  5  6  2  0
  6  7  1  0
  7  8  1  0
  7  9  2  0
  9 10  1  0
  5 11  1  0
 10 11  2  0
 11 12  1  0
  2 13  1  0
 13 14  1  0
 14 15  2  0
 15 16  1  0
 16 17  2  0
 17 18  1  0
 14 19  1  0
 18 19  2  0
M  END
