pyridine_urea_12645
     RDKit          3D

 21 23  0  0  0  0  0  0  0  0999 V2000
    7.9970    1.4160   20.6870 O   0  0  0  0  0  0  0  0  0  0  0  0
    8.0080    0.2880   21.1720 C   0  0  0  0  0  0  0  0  0  0  0  0
    6.9850   -0.5660   20.9810 N   0  0  0  0  0  0  0  0  0  0  0  0
    6.3770    0.0270   19.8650 C   0  0  0  0  0  0  0  0  0  0  0  0
    5.0820    0.8020   20.1140 C   0  0  0  0  0  0  0  0  0  0  0  0
    4.4660    1.4510   19.0590 C   0  0  0  0  0  0  0  0  0  0  0  0
    5.0760    1.3600   17.8100 C   0  0  0  0  0  0  0  0  0  0  0  0
    6.2280    0.6410   17.6430 N   0  0  0  0  0  0  0  0  0  0  0  0
    6.8940   -0.0340   18.6470 C   0  0  0  0  0  0  0  0  0  0  0  0
    9.0230   -0.1300   21.8650 N   0  0  0  0  0  0  0  0  0  0  0  0
   10.1260   -0.2070   22.5110 C   0  0  0  0  0  0  0  0  0  0  0  0
   10.5080    1.0930   22.8810 C   0  0  0  0  0  0  0  0  0  0  0  0
   11.6290    1.3970   23.5670 C   0  0  0  0  0  0  0  0  0  0  0  0
   12.4360    0.3960   23.9340 C   0  0  0  0  0  0  0  0  0  0  0  0
   12.1500   -0.8840   23.6360 C   0  0  0  0  0  0  0  0  0  0  0  0
   12.9480   -1.7740   24.0620 N   0  0  0  0  0  0  0  0  0  0  0  0
   13.5250   -2.8080   23.5320 C   0  0  0  0  0  0  0  0  0  0  0  0
   14.2900   -3.4350   24.4560 N   0  0  0  0  0  0  0  0  0  0  0  0
   14.0740   -2.6270   25.5940 N   0  0  0  0  0  0  0  0  0  0  0  0
   13.2420   -1.6000   25.3200 C   0  0  0  0  0  0  0  0  0  0  0  0
   10.9330   -1.2450   22.8700 C   0  0  0  0  0  0  0  0  0  0  0  0
  1  2  2  0
  2  3  1  0
  3  4  1  0
  4  5  2  0
  5  6  1  0
  6  7  2  0
  7  8  1  0
  4  9  1  0
  8  9  2  0
  2 10  1  0
 10 11  1  0
 11 12  2  0
 12 13  1  0
 13 14  2  0
 14 15  1  0
 15 16  1  0
 16 17  1  0
 17 18  2  0
 18 19  1  0
 16 20  1  0
 19 20  2  0
 11 21  1  0
 15 21  2  0
M  END
