pyridine_urea_14826
     RDKit          3D

 20 21  0  0  0  0  0  0  0  0999 V2000
   12.9320   -2.0310   21.8170 C   0  0  0  0  0  0  0  0  0  0  0  0
   12.3860   -1.7060   23.1990 C   0  0  0  0  0  0  0  0  0  0  0  0
   13.1110   -2.1600   24.3000 C   0  0  0  0  0  0  0  0  0  0  0  0
   12.1980   -0.2520   23.2920 N   0  0  0  0  0  0  0  0  0  0  0  0
   13.1670    0.6640   22.8670 C   0  0  0  0  0  0  0  0  0  0  0  0
   12.7820    1.9710   23.0390 N   0  0  0  0  0  0  0  0  0  0  0  0
   11.5160    1.9260   23.5970 N   0  0  0  0  0  0  0  0  0  0  0  0
   11.1890    0.5570   23.7370 C   0  0  0  0  0  0  0  0  0  0  0  0
    9.9830    0.1320   24.2520 C   0  0  0  0  0  0  0  0  0  0  0  0
    9.1920   -0.8760   23.3810 C   0  0  0  0  0  0  0  0  0  0  0  0
    9.3110   -0.6850   22.0510 N   0  0  0  0  0  0  0  0  0  0  0  0
    8.3850    0.0380   21.3730 C   0  0  0  0  0  0  0  0  0  0  0  0
    8.5480    1.2110   20.9880 O   0  0  0  0  0  0  0  0  0  0  0  0
    7.2580   -0.7030   21.1590 N   0  0  0  0  0  0  0  0  0  0  0  0
    6.5090    0.0160   20.1550 C   0  0  0  0  0  0  0  0  0  0  0  0
    5.3520    0.7690   20.4020 C   0  0  0  0  0  0  0  0  0  0  0  0
    4.6990    1.4310   19.3590 C   0  0  0  0  0  0  0  0  0  0  0  0
    5.2460    1.3280   17.9950 C   0  0  0  0  0  0  0  0  0  0  0  0
    6.3680    0.5940   17.7470 N   0  0  0  0  0  0  0  0  0  0  0  0
    6.9670   -0.0470   18.8430 C   0  0  0  0  0  0  0  0  0  0  0  0
  1  2  1  0
  2  3  1  0
  2  4  1  0
  4  5  1  0
  5  6  2  0
  6  7  1  0
  4  8  1  0
  7  8  2  0
  8  9  1  0
  9 10  1  0
 10 11  1  0
 11 12  1  0
 12 13  2  0
 12 14  1  0
 14 15  1  0
 15 16  2  0
 16 17  1  0
 17 18  2  0
 18 19  1  0
 15 20  1  0
 19 20  2  0
M  END
