pyridine_urea_7925
     RDKit          3D

 25 27  0  0  0  0  0  0  0  0999 V2000
   13.4690   -1.1850   20.9110 O   0  0  0  0  0  0  0  0  0  0  0  0
   12.5800   -1.7330   21.5420 C   0  0  0  0  0  0  0  0  0  0  0  0
   11.9260   -2.9740   21.1750 C   0  0  0  0  0  0  0  0  0  0  0  0
   12.6100   -3.6310   20.2910 C   0  0  2  0  0  0  0  0  0  0  0  0
   12.5610   -4.9020   20.0620 C   0  0  0  0  0  0  0  0  0  0  0  0
   13.7820   -5.4680   20.3660 C   0  0  0  0  0  0  0  0  0  0  0  0
   14.6350   -4.5730   20.7110 C   0  0  0  0  0  0  0  0  0  0  0  0
   13.8730   -3.3880   20.6200 C   0  0  0  0  0  0  0  0  0  0  0  0
   12.0630   -1.3280   22.6840 N   0  0  0  0  0  0  0  0  0  0  0  0
   11.6600   -0.1030   22.7650 C   0  0  0  0  0  0  0  0  0  0  0  0
   12.7280    0.7600   22.9340 C   0  0  0  0  0  0  0  0  0  0  0  0
   12.4810    2.1090   23.0230 C   0  0  0  0  0  0  0  0  0  0  0  0
   11.2020    2.6010   22.9620 C   0  0  0  0  0  0  0  0  0  0  0  0
   10.1670    1.7110   22.7920 C   0  0  0  0  0  0  0  0  0  0  0  0
   10.3430    0.3570   22.6770 C   0  0  0  0  0  0  0  0  0  0  0  0
    9.2480   -0.4560   22.4570 N   0  0  0  0  0  0  0  0  0  0  0  0
    8.3460    0.0680   21.4970 C   0  0  0  0  0  0  0  0  0  0  0  0
    8.5080    1.3170   20.9620 O   0  0  0  0  0  0  0  0  0  0  0  0
    7.3130   -0.7230   21.1370 N   0  0  0  0  0  0  0  0  0  0  0  0
    6.5280   -0.0690   20.1640 C   0  0  0  0  0  0  0  0  0  0  0  0
    5.3630    0.6690   20.4200 C   0  0  0  0  0  0  0  0  0  0  0  0
    4.6740    1.2980   19.3740 C   0  0  0  0  0  0  0  0  0  0  0  0
    5.1500    1.1880   18.0730 C   0  0  0  0  0  0  0  0  0  0  0  0
    6.2440    0.5000   17.7430 N   0  0  0  0  0  0  0  0  0  0  0  0
    6.9290   -0.1380   18.8410 C   0  0  0  0  0  0  0  0  0  0  0  0
  1  2  2  0
  2  3  1  0
  4  3  1  1
  4  5  1  0
  5  6  2  0
  6  7  1  0
  4  8  1  0
  7  8  1  0
  2  9  1  0
  9 10  1  0
 10 11  2  0
 11 12  1  0
 12 13  2  0
 13 14  1  0
 10 15  1  0
 14 15  2  0
 15 16  1  0
 16 17  1  0
 17 18  2  0
 17 19  1  0
 19 20  1  0
 20 21  2  0
 21 22  1  0
 22 23  2  0
 23 24  1  0
 20 25  1  0
 24 25  2  0
M  END
