pyridine_urea_8551
     RDKit          3D

 22 23  0  0  0  0  0  0  0  0999 V2000
   13.8060   -2.5510   25.1390 C   0  0  0  0  0  0  0  0  0  0  0  0
   13.7340   -1.5620   24.1180 O   0  0  0  0  0  0  0  0  0  0  0  0
   12.4720   -1.3630   23.7170 C   0  0  0  0  0  0  0  0  0  0  0  0
   11.4340   -1.3360   24.5940 C   0  0  0  0  0  0  0  0  0  0  0  0
   10.1480   -1.1550   24.1940 C   0  0  0  0  0  0  0  0  0  0  0  0
    9.8700   -0.9900   22.9050 C   0  0  0  0  0  0  0  0  0  0  0  0
    8.5960   -0.8000   22.4430 N   0  0  0  0  0  0  0  0  0  0  0  0
    8.2350    0.0530   21.4530 C   0  0  0  0  0  0  0  0  0  0  0  0
    8.8080    1.1170   21.1520 O   0  0  0  0  0  0  0  0  0  0  0  0
    7.1200   -0.4820   20.8730 N   0  0  0  0  0  0  0  0  0  0  0  0
    6.3860    0.1790   19.9160 C   0  0  0  0  0  0  0  0  0  0  0  0
    5.0820    0.9370   20.1180 C   0  0  0  0  0  0  0  0  0  0  0  0
    4.4950    1.5620   19.0320 C   0  0  0  0  0  0  0  0  0  0  0  0
    5.1430    1.4570   17.8130 C   0  0  0  0  0  0  0  0  0  0  0  0
    6.2960    0.7800   17.6140 N   0  0  0  0  0  0  0  0  0  0  0  0
    6.8770    0.1680   18.6480 C   0  0  0  0  0  0  0  0  0  0  0  0
   10.8750   -1.0250   21.9920 C   0  0  0  0  0  0  0  0  0  0  0  0
   12.1780   -1.2150   22.3840 C   0  0  0  0  0  0  0  0  0  0  0  0
   13.1390   -1.3070   21.4730 O   0  0  0  0  0  0  0  0  0  0  0  0
   13.0570   -2.6970   21.2820 C   0  0  0  0  0  0  0  0  0  0  0  0
   13.3780   -3.2300   22.4850 F   0  0  0  0  0  0  0  0  0  0  0  0
   13.8400   -3.2980   20.3800 F   0  0  0  0  0  0  0  0  0  0  0  0
  1  2  1  0
  2  3  1  0
  3  4  2  0
  4  5  1  0
  5  6  2  0
  6  7  1  0
  7  8  1  0
  8  9  2  0
  8 10  1  0
 10 11  1  0
 11 12  2  0
 12 13  1  0
 13 14  2  0
 14 15  1  0
 11 16  1  0
 15 16  2  0
  6 17  1  0
  3 18  1  0
 17 18  2  0
 18 19  1  0
 19 20  1  0
 20 21  1  0
 20 22  1  0
M  END
