pyridine_urea_2740
     RDKit          3D

 23 24  0  0  0  0  0  0  0  0999 V2000
    8.9400    1.2800   21.1830 O   0  0  0  0  0  0  0  0  0  0  0  0
    8.3750    0.2550   21.5870 C   0  0  0  0  0  0  0  0  0  0  0  0
    8.8190   -0.4460   22.6700 N   0  0  0  0  0  0  0  0  0  0  0  0
   10.2410   -0.5470   22.8140 C   0  0  0  0  0  0  0  0  0  0  0  0
   10.8200   -1.8220   22.1290 C   0  0  0  0  0  0  0  0  0  0  0  0
   11.3170   -2.8150   23.1310 N   0  0  0  0  0  0  0  0  0  0  0  0
   12.7940   -2.4330   23.7930 S   0  0  0  0  0  0  0  0  0  0  0  0
   13.7610   -2.9670   22.8880 O   0  0  0  0  0  0  0  0  0  0  0  0
   12.7520   -2.7410   25.1980 O   0  0  0  0  0  0  0  0  0  0  0  0
   12.6460   -0.6830   23.5130 C   0  0  0  0  0  0  0  0  0  0  0  0
   13.4410   -0.3320   22.2520 C   0  0  0  0  0  0  0  0  0  0  0  0
   14.0090    0.8990   22.3000 C   0  0  0  0  0  0  0  0  0  0  0  0
   14.8900    1.4890   21.2240 C   0  0  0  0  0  0  0  0  0  0  0  0
   15.2950    0.7530   19.7620 C   0  0  0  0  0  0  0  0  0  0  0  0
   14.4990   -0.6200   19.8440 C   0  0  0  0  0  0  0  0  0  0  0  0
   13.6320   -1.1300   21.0950 C   0  0  0  0  0  0  0  0  0  0  0  0
    7.2560   -0.3300   21.0650 N   0  0  0  0  0  0  0  0  0  0  0  0
    6.5530    0.2030   19.9960 C   0  0  0  0  0  0  0  0  0  0  0  0
    5.2500    0.9320   20.2550 C   0  0  0  0  0  0  0  0  0  0  0  0
    4.5840    1.4760   19.1680 C   0  0  0  0  0  0  0  0  0  0  0  0
    5.1520    1.3210   17.9080 C   0  0  0  0  0  0  0  0  0  0  0  0
    6.3000    0.6650   17.6670 N   0  0  0  0  0  0  0  0  0  0  0  0
    6.9700    0.1250   18.7010 C   0  0  0  0  0  0  0  0  0  0  0  0
  1  2  2  0
  2  3  1  0
  3  4  1  0
  4  5  1  0
  5  6  1  0
  7  6  1  0
  7  8  2  0
  7  9  2  0
  7 10  1  0
 10 11  1  0
 11 12  2  0
 12 13  1  0
 13 14  2  0
 14 15  1  0
 11 16  1  0
 15 16  2  0
  2 17  1  0
 17 18  1  0
 18 19  2  0
 19 20  1  0
 20 21  2  0
 21 22  1  0
 18 23  1  0
 22 23  2  0
M  END
