pyridine_urea_6079
     RDKit          3D

 25 27  0  0  0  0  0  0  0  0999 V2000
    5.4050   -4.3230   21.7650 N   0  0  0  0  0  0  0  0  0  0  0  0
    6.7280   -4.4310   22.0390 C   0  0  0  0  0  0  0  0  0  0  0  0
    7.4230   -5.6160   21.6450 O   0  0  0  0  0  0  0  0  0  0  0  0
    7.3490   -3.2630   22.7640 C   0  0  0  0  0  0  0  0  0  0  0  0
    8.2590   -3.6720   23.7090 C   0  0  0  0  0  0  0  0  0  0  0  0
    9.4300   -2.8920   23.8590 C   0  0  0  0  0  0  0  0  0  0  0  0
   10.0380   -2.3130   22.6850 N   0  0  0  0  0  0  0  0  0  0  0  0
   10.7970   -1.1790   22.8800 C   0  0  0  0  0  0  0  0  0  0  0  0
   12.2870   -1.2160   23.0080 C   0  0  0  0  0  0  0  0  0  0  0  0
   12.9930    0.0890   23.2430 C   0  0  0  0  0  0  0  0  0  0  0  0
   12.1540    1.3440   23.3390 C   0  0  0  0  0  0  0  0  0  0  0  0
   10.7830    1.2580   23.1970 C   0  0  0  0  0  0  0  0  0  0  0  0
   10.1480    0.0390   22.9700 C   0  0  0  0  0  0  0  0  0  0  0  0
    8.8260   -0.0420   22.8120 N   0  0  0  0  0  0  0  0  0  0  0  0
    8.4130    0.5510   21.6630 C   0  0  0  0  0  0  0  0  0  0  0  0
    8.9120    1.5460   21.1390 O   0  0  0  0  0  0  0  0  0  0  0  0
    7.2890   -0.1020   21.0970 N   0  0  0  0  0  0  0  0  0  0  0  0
    6.4960    0.4060   20.0800 C   0  0  0  0  0  0  0  0  0  0  0  0
    5.3290    1.1240   20.2760 C   0  0  0  0  0  0  0  0  0  0  0  0
    4.6510    1.5870   19.1660 C   0  0  0  0  0  0  0  0  0  0  0  0
    5.1430    1.3270   17.9050 C   0  0  0  0  0  0  0  0  0  0  0  0
    6.2570    0.6290   17.6680 N   0  0  0  0  0  0  0  0  0  0  0  0
    6.8930    0.1920   18.7660 C   0  0  0  0  0  0  0  0  0  0  0  0
    9.1120   -2.2240   21.5780 C   0  0  0  0  0  0  0  0  0  0  0  0
    7.7490   -2.2060   21.9560 C   0  0  0  0  0  0  0  0  0  0  0  0
  1  2  1  0
  2  3  2  0
  2  4  1  0
  4  5  1  0
  5  6  1  0
  6  7  1  0
  7  8  1  0
  8  9  2  0
  9 10  1  0
 10 11  2  0
 11 12  1  0
  8 13  1  0
 12 13  2  0
 13 14  1  0
 14 15  1  0
 15 16  2  0
 15 17  1  0
 17 18  1  0
 18 19  2  0
 19 20  1  0
 20 21  2  0
 21 22  1  0
 18 23  1  0
 22 23  2  0
  7 24  1  0
  4 25  1  0
 24 25  1  0
M  END
