pyridine_urea_11137
     RDKit          3D

 18 19  0  0  0  0  0  0  0  0999 V2000
    9.7500    2.7510   22.7120 C   0  0  0  0  0  0  0  0  0  0  0  0
   10.7850    1.8210   22.8380 N   0  0  0  0  0  0  0  0  0  0  0  0
   12.3400    2.2440   22.9660 N   0  0  0  0  0  0  0  0  0  0  0  0
   13.0050    1.0000   23.0640 C   0  0  0  0  0  0  0  0  0  0  0  0
   11.7700    0.9300   22.9570 C   0  0  0  0  0  0  0  0  0  0  0  0
   11.4060    2.8220   22.8590 Br  0  0  0  0  0  0  0  0  0  0  0  0
   10.7120    0.2830   22.8820 C   0  0  0  0  0  0  0  0  0  0  0  0
   10.0040   -0.8980   22.8530 C   0  0  0  0  0  0  0  0  0  0  0  0
    8.6830   -0.6220   22.6670 N   0  0  0  0  0  0  0  0  0  0  0  0
    8.3700    0.0570   21.5940 C   0  0  0  0  0  0  0  0  0  0  0  0
    8.9790    1.0710   21.2280 O   0  0  0  0  0  0  0  0  0  0  0  0
    7.2750   -0.5130   20.9800 N   0  0  0  0  0  0  0  0  0  0  0  0
    6.4570    0.1470   20.0590 C   0  0  0  0  0  0  0  0  0  0  0  0
    5.3670    0.8100   20.4850 C   0  0  0  0  0  0  0  0  0  0  0  0
    4.7130    1.4240   19.2760 C   0  0  0  0  0  0  0  0  0  0  0  0
    5.1910    1.2940   17.9900 C   0  0  0  0  0  0  0  0  0  0  0  0
    6.2470    0.6310   17.6330 N   0  0  0  0  0  0  0  0  0  0  0  0
    6.8640    0.0600   18.7420 C   0  0  0  0  0  0  0  0  0  0  0  0
  1  2  1  0
  2  3  1  0
  3  4  2  0
  4  5  1  0
  5  6  1  0
  2  7  1  0
  5  7  2  0
  7  8  1  0
  8  9  1  0
  9 10  1  0
 10 11  2  0
 10 12  1  0
 12 13  1  0
 13 14  2  0
 14 15  1  0
 15 16  2  0
 16 17  1  0
 13 18  1  0
 17 18  2  0
M  END
