pyridine_urea_6425
     RDKit          3D

 23 24  0  0  0  0  0  0  0  0999 V2000
    8.8130    0.6590   21.4060 O   0  0  0  0  0  0  0  0  0  0  0  0
    8.1690   -0.3590   21.6330 C   0  0  0  0  0  0  0  0  0  0  0  0
    8.4970   -1.3270   22.5640 N   0  0  0  0  0  0  0  0  0  0  0  0
    9.7860   -1.3360   23.2270 C   0  0  0  0  0  0  0  0  0  0  0  0
   10.8380   -0.6600   22.3850 C   0  0  0  0  0  0  0  0  0  0  0  0
   11.4440    0.5070   23.0920 C   0  0  0  0  0  0  0  0  0  0  0  0
   11.2680    0.5430   24.4630 N   0  0  0  0  0  0  0  0  0  0  0  0
   12.3180   -0.1260   24.8780 C   0  0  0  0  0  0  0  0  0  0  0  0
   12.8400   -0.2630   25.9370 O   0  0  0  0  0  0  0  0  0  0  0  0
   12.7710   -0.7380   23.6900 C   0  0  0  0  0  0  0  0  0  0  0  0
   12.8130   -2.1480   23.7930 C   0  0  0  0  0  0  0  0  0  0  0  0
   13.1750   -2.8500   22.7890 C   0  0  0  0  0  0  0  0  0  0  0  0
   13.4880   -2.0550   21.6300 C   0  0  0  0  0  0  0  0  0  0  0  0
   13.4690   -0.7720   21.5690 C   0  0  0  0  0  0  0  0  0  0  0  0
   13.1030   -0.0140   22.6110 C   0  0  0  0  0  0  0  0  0  0  0  0
   13.0540    1.3330   22.5950 F   0  0  0  0  0  0  0  0  0  0  0  0
    7.0010   -0.6720   20.9790 N   0  0  0  0  0  0  0  0  0  0  0  0
    6.3270    0.0280   20.0130 C   0  0  0  0  0  0  0  0  0  0  0  0
    5.0360    0.7050   20.5420 C   0  0  0  0  0  0  0  0  0  0  0  0
    4.5980    1.3670   19.2370 C   0  0  0  0  0  0  0  0  0  0  0  0
    5.2730    1.3180   17.9130 C   0  0  0  0  0  0  0  0  0  0  0  0
    6.3780    0.6720   17.6770 N   0  0  0  0  0  0  0  0  0  0  0  0
    6.8570    0.0530   18.7380 C   0  0  0  0  0  0  0  0  0  0  0  0
  1  2  2  0
  2  3  1  0
  3  4  1  0
  4  5  1  0
  5  6  1  0
  6  7  1  0
  7  8  1  0
  8  9  2  0
  8 10  1  0
 10 11  2  0
 11 12  1  0
 12 13  2  0
 13 14  1  0
 10 15  1  0
 14 15  2  0
 15 16  1  0
  2 17  1  0
 17 18  1  0
 18 19  2  0
 19 20  1  0
 20 21  2  0
 21 22  1  0
 18 23  1  0
 22 23  2  0
M  END
