pyridine_urea_1998
     RDKit          3D

 23 25  0  0  0  0  0  0  0  0999 V2000
    9.7720    2.6780   23.0000 C   0  0  0  0  0  0  0  0  0  0  0  0
   11.0760    3.0860   22.8350 N   0  0  0  0  0  0  0  0  0  0  0  0
   11.4860    4.3190   22.3870 C   0  0  0  0  0  0  0  0  0  0  0  0
   12.9550    4.4180   22.3290 N   0  0  0  0  0  0  0  0  0  0  0  0
   13.3570    3.1510   22.7810 N   0  0  0  0  0  0  0  0  0  0  0  0
   12.2650    2.4280   23.0590 C   0  0  0  0  0  0  0  0  0  0  0  0
   12.2570    0.9680   23.6050 C   0  0  2  0  0  0  0  0  0  0  0  0
   12.8420   -0.1190   22.7780 C   0  0  0  0  0  0  0  0  0  0  0  0
   11.8310   -1.0010   22.5530 C   0  0  1  0  0  0  0  0  0  0  0  0
   12.0510   -1.9540   23.2890 O   0  0  0  0  0  0  0  0  0  0  0  0
   10.6590   -0.3570   22.9770 C   0  0  1  0  0  0  0  0  0  0  0  0
    9.6960   -1.2720   23.3410 C   0  0  0  0  0  0  0  0  0  0  0  0
    8.6360   -1.3620   22.4810 N   0  0  0  0  0  0  0  0  0  0  0  0
    8.1820   -0.4020   21.5580 C   0  0  0  0  0  0  0  0  0  0  0  0
    8.7650    0.6490   21.3220 O   0  0  0  0  0  0  0  0  0  0  0  0
    7.0060   -0.7990   20.9890 N   0  0  0  0  0  0  0  0  0  0  0  0
    6.3230   -0.0510   20.0210 C   0  0  0  0  0  0  0  0  0  0  0  0
    5.1250    0.6570   20.2490 C   0  0  0  0  0  0  0  0  0  0  0  0
    4.4790    1.4140   19.2210 C   0  0  0  0  0  0  0  0  0  0  0  0
    5.2240    1.3630   17.8950 C   0  0  0  0  0  0  0  0  0  0  0  0
    6.3570    0.6930   17.6700 N   0  0  0  0  0  0  0  0  0  0  0  0
    6.8910   -0.0210   18.7730 C   0  0  0  0  0  0  0  0  0  0  0  0
   11.0480    0.4780   24.0410 C   0  0  0  0  0  0  0  0  0  0  0  0
  1  2  1  0
  2  3  1  0
  3  4  2  0
  4  5  1  0
  2  6  1  0
  5  6  2  0
  7  6  1  6
  7  8  1  0
  8  9  1  0
  9 10  1  1
  9 11  1  0
 11 12  1  1
 12 13  1  0
 13 14  1  0
 14 15  2  0
 14 16  1  0
 16 17  1  0
 17 18  2  0
 18 19  1  0
 19 20  2  0
 20 21  1  0
 17 22  1  0
 21 22  2  0
  7 23  1  0
 11 23  1  0
M  END
