pyridine_urea_11003
     RDKit          3D

 19 20  0  0  0  0  0  0  0  0999 V2000
    8.7270    1.2670   21.1560 O   0  0  0  0  0  0  0  0  0  0  0  0
    8.4580    0.0700   21.3210 C   0  0  0  0  0  0  0  0  0  0  0  0
    7.1190   -0.4600   21.1200 N   0  0  0  0  0  0  0  0  0  0  0  0
    6.4330    0.1360   20.0760 C   0  0  0  0  0  0  0  0  0  0  0  0
    5.2570    0.8460   20.3110 C   0  0  0  0  0  0  0  0  0  0  0  0
    4.6170    1.4440   19.2250 C   0  0  0  0  0  0  0  0  0  0  0  0
    5.1740    1.3110   17.9530 C   0  0  0  0  0  0  0  0  0  0  0  0
    6.3000    0.6250   17.7170 N   0  0  0  0  0  0  0  0  0  0  0  0
    6.9060    0.0490   18.7840 C   0  0  0  0  0  0  0  0  0  0  0  0
    9.3370   -0.9240   21.6440 N   0  0  0  0  0  0  0  0  0  0  0  0
   10.5270   -0.5370   22.3760 C   0  0  2  0  0  0  0  0  0  0  0  0
   11.6040   -1.5580   22.1000 C   0  0  0  0  0  0  0  0  0  0  0  0
   12.8410   -1.0830   22.4320 C   0  0  0  0  0  0  0  0  0  0  0  0
   12.7860   -0.3260   23.5930 C   0  0  2  0  0  0  0  0  0  0  0  0
   12.4910   -1.0150   24.7710 C   0  0  0  0  0  0  0  0  0  0  0  0
   13.4490   -1.8510   25.1850 F   0  0  0  0  0  0  0  0  0  0  0  0
   11.4590   -1.8780   24.6350 F   0  0  0  0  0  0  0  0  0  0  0  0
   11.6250    0.0980   24.2870 C   0  0  0  0  0  0  0  0  0  0  0  0
   10.3980   -0.1810   23.7030 C   0  0  0  0  0  0  0  0  0  0  0  0
  1  2  2  0
  2  3  1  0
  3  4  1  0
  4  5  2  0
  5  6  1  0
  6  7  2  0
  7  8  1  0
  4  9  1  0
  8  9  2  0
  2 10  1  0
 11 10  1  1
 11 12  1  0
 12 13  1  0
 13 14  1  0
 14 15  1  1
 15 16  1  0
 15 17  1  0
 14 18  1  0
 11 19  1  0
 18 19  1  0
M  END
