pyridine_urea_11847
     RDKit          3D

 24 26  0  0  0  0  0  0  0  0999 V2000
    8.9520    1.1410   21.2420 O   0  0  0  0  0  0  0  0  0  0  0  0
    8.3010    0.1590   21.6410 C   0  0  0  0  0  0  0  0  0  0  0  0
    7.2100   -0.4040   21.0450 N   0  0  0  0  0  0  0  0  0  0  0  0
    6.5160    0.1750   19.9890 C   0  0  0  0  0  0  0  0  0  0  0  0
    5.3480    0.8850   20.2560 C   0  0  0  0  0  0  0  0  0  0  0  0
    4.6550    1.4870   19.2100 C   0  0  0  0  0  0  0  0  0  0  0  0
    5.1660    1.3490   17.9410 C   0  0  0  0  0  0  0  0  0  0  0  0
    6.2800    0.6610   17.6640 N   0  0  0  0  0  0  0  0  0  0  0  0
    6.9290    0.0910   18.6890 C   0  0  0  0  0  0  0  0  0  0  0  0
    8.6060   -0.5050   22.8000 N   0  0  0  0  0  0  0  0  0  0  0  0
    9.9920   -0.7850   23.0980 C   0  0  0  0  0  0  0  0  0  0  0  0
   10.1580   -2.0160   23.9340 C   0  0  0  0  0  0  0  0  0  0  0  0
    9.2230   -2.9600   24.2970 N   0  0  0  0  0  0  0  0  0  0  0  0
    9.7010   -3.9740   25.0300 C   0  0  0  0  0  0  0  0  0  0  0  0
   11.0230   -4.1250   25.4360 C   0  0  0  0  0  0  0  0  0  0  0  0
   11.8740   -3.1210   25.0160 C   0  0  0  0  0  0  0  0  0  0  0  0
   13.2140   -3.0680   25.2740 C   0  0  0  0  0  0  0  0  0  0  0  0
   13.9630   -3.1630   24.1860 F   0  0  0  0  0  0  0  0  0  0  0  0
   13.6070   -3.9750   26.1890 F   0  0  0  0  0  0  0  0  0  0  0  0
   13.5870   -1.8630   25.7380 F   0  0  0  0  0  0  0  0  0  0  0  0
   11.4110   -2.1450   24.3090 N   0  0  0  0  0  0  0  0  0  0  0  0
   11.1090   -1.0680   22.0900 C   0  0  0  0  0  0  0  0  0  0  0  0
   11.7900    0.0510   22.8850 C   0  0  0  0  0  0  0  0  0  0  0  0
   10.7240    0.3440   23.7930 C   0  0  0  0  0  0  0  0  0  0  0  0
  1  2  2  0
  2  3  1  0
  3  4  1  0
  4  5  2  0
  5  6  1  0
  6  7  2  0
  7  8  1  0
  4  9  1  0
  8  9  2  0
  2 10  1  0
 11 10  1  0
 11 12  1  0
 12 13  2  0
 13 14  1  0
 14 15  2  0
 15 16  1  0
 16 17  1  0
 17 18  1  0
 17 19  1  0
 17 20  1  0
 12 21  1  0
 16 21  2  0
 11 22  1  0
 22 23  1  0
 11 24  1  0
 23 24  1  0
M  END
