pyridine_urea_4568
     RDKit          3D

 23 24  0  0  0  0  0  0  0  0999 V2000
    8.7650    1.0880   21.1980 O   0  0  0  0  0  0  0  0  0  0  0  0
    8.0660    0.1240   21.5610 C   0  0  0  0  0  0  0  0  0  0  0  0
    8.1200   -0.4930   22.7740 N   0  0  0  0  0  0  0  0  0  0  0  0
    9.1430   -1.4660   22.9070 C   0  0  0  0  0  0  0  0  0  0  0  0
   10.4470   -0.7340   22.8640 C   0  0  0  0  0  0  0  0  0  0  0  0
   10.5580    0.7880   22.9530 C   0  0  0  0  0  0  0  0  0  0  0  0
   11.9730    1.3540   22.9090 C   0  0  0  0  0  0  0  0  0  0  0  0
   13.0600    0.4980   22.7950 N   0  0  0  0  0  0  0  0  0  0  0  0
   12.9280   -0.8630   22.7040 C   0  0  0  0  0  0  0  0  0  0  0  0
   13.8540   -1.6070   22.6000 O   0  0  0  0  0  0  0  0  0  0  0  0
   13.5480   -2.7240   23.3020 C   0  0  0  0  0  0  0  0  0  0  0  0
   13.0260   -2.5730   24.5810 C   0  0  0  0  0  0  0  0  0  0  0  0
   13.0800   -1.2720   24.9260 F   0  0  0  0  0  0  0  0  0  0  0  0
   11.7240   -2.9510   24.6210 F   0  0  0  0  0  0  0  0  0  0  0  0
   13.7080   -3.2630   25.5150 F   0  0  0  0  0  0  0  0  0  0  0  0
   11.7280   -1.5110   22.7280 C   0  0  0  0  0  0  0  0  0  0  0  0
    7.0980   -0.4860   20.8180 N   0  0  0  0  0  0  0  0  0  0  0  0
    6.3640    0.1600   19.9320 C   0  0  0  0  0  0  0  0  0  0  0  0
    5.1560    0.8110   20.1880 C   0  0  0  0  0  0  0  0  0  0  0  0
    4.5170    1.4630   19.1470 C   0  0  0  0  0  0  0  0  0  0  0  0
    5.1710    1.4250   17.8160 C   0  0  0  0  0  0  0  0  0  0  0  0
    6.3240    0.7860   17.5960 N   0  0  0  0  0  0  0  0  0  0  0  0
    6.8630    0.1860   18.6560 C   0  0  0  0  0  0  0  0  0  0  0  0
  1  2  2  0
  2  3  1  0
  3  4  1  0
  4  5  1  0
  5  6  2  0
  6  7  1  0
  7  8  2  0
  8  9  1  0
  9 10  1  0
 10 11  1  0
 11 12  1  0
 12 13  1  0
 12 14  1  0
 12 15  1  0
  5 16  1  0
  9 16  2  0
  2 17  1  0
 17 18  1  0
 18 19  2  0
 19 20  1  0
 20 21  2  0
 21 22  1  0
 18 23  1  0
 22 23  2  0
M  END
