pyridine_urea_2703
     RDKit          3D

 23 25  0  0  0  0  0  0  0  0999 V2000
    8.4980    1.2690   21.0390 O   0  0  0  0  0  0  0  0  0  0  0  0
    8.0140    0.1380   20.9910 C   0  0  0  0  0  0  0  0  0  0  0  0
    8.7170   -0.9950   20.8640 N   0  0  0  0  0  0  0  0  0  0  0  0
    9.6260   -1.2880   21.8570 C   0  0  0  0  0  0  0  0  0  0  0  0
   10.9810   -0.5200   21.9350 C   0  0  0  0  0  0  0  0  0  0  0  0
    9.8500    0.5170   21.8520 C   0  0  0  0  0  0  0  0  0  0  0  0
    9.8740    2.1730   21.9220 C   0  0  0  0  0  0  0  0  0  0  0  0
   11.1400    2.9540   22.1090 C   0  0  0  0  0  0  0  0  0  0  0  0
   12.5140    2.1540   22.1780 C   0  0  0  0  0  0  0  0  0  0  0  0
   12.4000    0.4970   22.0310 C   0  0  0  0  0  0  0  0  0  0  0  0
   13.2410   -0.5180   21.9750 N   0  0  0  0  0  0  0  0  0  0  0  0
   13.4940   -1.1580   22.9900 C   0  0  0  0  0  0  0  0  0  0  0  0
   13.5040   -2.5930   22.4890 C   0  0  0  0  0  0  0  0  0  0  0  0
   13.3830   -2.5710   21.0180 C   0  0  0  0  0  0  0  0  0  0  0  0
   11.9970   -2.4240   21.3660 C   0  0  0  0  0  0  0  0  0  0  0  0
   11.9070   -1.2520   21.9760 C   0  0  0  0  0  0  0  0  0  0  0  0
    6.7130   -0.1520   20.9650 N   0  0  0  0  0  0  0  0  0  0  0  0
    6.1080    0.3990   19.8970 C   0  0  0  0  0  0  0  0  0  0  0  0
    4.9130    1.0790   20.0320 C   0  0  0  0  0  0  0  0  0  0  0  0
    4.3810    1.6580   18.9040 C   0  0  0  0  0  0  0  0  0  0  0  0
    5.1030    1.5020   17.7160 C   0  0  0  0  0  0  0  0  0  0  0  0
    6.2430    0.8360   17.5650 N   0  0  0  0  0  0  0  0  0  0  0  0
    6.7180    0.2980   18.6720 C   0  0  0  0  0  0  0  0  0  0  0  0
  1  2  2  0
  2  3  1  0
  3  4  1  0
  4  5  1  0
  5  6  2  0
  6  7  1  0
  7  8  2  0
  8  9  1  0
  5 10  1  0
  9 10  2  0
 10 11  1  0
 11 12  1  0
 12 13  1  0
 13 14  1  0
 14 15  1  0
 11 16  1  0
 15 16  1  0
  2 17  1  0
 17 18  1  0
 18 19  2  0
 19 20  1  0
 20 21  2  0
 21 22  1  0
 18 23  1  0
 22 23  2  0
M  END
