pyridine_urea_14162
     RDKit          3D

 22 25  0  0  0  0  0  0  0  0999 V2000
    8.6190    1.3330   20.9510 O   0  0  0  0  0  0  0  0  0  0  0  0
    8.0060    0.4210   21.5130 C   0  0  0  0  0  0  0  0  0  0  0  0
    8.2850    0.0810   22.8440 N   0  0  0  0  0  0  0  0  0  0  0  0
    9.6080    0.1140   23.0340 C   0  0  0  0  0  0  0  0  0  0  0  0
   10.0610   -1.0690   23.4760 C   0  0  0  0  0  0  0  0  0  0  0  0
    9.2820   -2.2040   23.6380 N   0  0  0  0  0  0  0  0  0  0  0  0
   10.1190   -3.1590   24.1030 N   0  0  0  0  0  0  0  0  0  0  0  0
   11.3930   -2.4450   24.1890 C   0  0  0  0  0  0  0  0  0  0  0  0
   12.5040   -3.0500   24.6360 C   0  0  0  0  0  0  0  0  0  0  0  0
   13.6900   -2.7030   23.8030 C   0  0  0  0  0  0  0  0  0  0  0  0
   13.6010   -2.1400   25.2050 C   0  0  0  0  0  0  0  0  0  0  0  0
   11.3020   -1.2440   23.7940 N   0  0  0  0  0  0  0  0  0  0  0  0
   12.3610   -0.3300   23.7350 C   0  0  0  0  0  0  0  0  0  0  0  0
   12.2630    0.6500   22.8960 C   0  0  0  0  0  0  0  0  0  0  0  0
   13.1670   -0.0950   22.3470 C   0  0  0  0  0  0  0  0  0  0  0  0
    7.0490   -0.2690   20.8990 N   0  0  0  0  0  0  0  0  0  0  0  0
    6.3160    0.3010   19.8810 C   0  0  0  0  0  0  0  0  0  0  0  0
    5.1260    0.9470   20.1120 C   0  0  0  0  0  0  0  0  0  0  0  0
    4.5260    1.5030   19.0180 C   0  0  0  0  0  0  0  0  0  0  0  0
    5.1090    1.4020   17.7700 C   0  0  0  0  0  0  0  0  0  0  0  0
    6.2490    0.7600   17.5580 N   0  0  0  0  0  0  0  0  0  0  0  0
    6.8270    0.2230   18.6230 C   0  0  0  0  0  0  0  0  0  0  0  0
  1  2  2  0
  2  3  1  0
  3  4  1  0
  4  5  1  0
  5  6  2  0
  6  7  1  0
  7  8  2  0
  8  9  1  0
  9 10  1  0
  9 11  1  0
 10 11  1  0
  5 12  1  0
  8 12  1  0
 12 13  1  0
 13 14  1  0
 13 15  1  0
 14 15  1  0
  2 16  1  0
 16 17  1  0
 17 18  2  0
 18 19  1  0
 19 20  2  0
 20 21  1  0
 17 22  1  0
 21 22  2  0
M  END
