pyridine_urea_4049
     RDKit          3D

 26 28  0  0  0  0  0  0  0  0999 V2000
   16.0860    2.0860   18.8940 C   0  0  0  0  0  0  0  0  0  0  0  0
   14.9610    1.7580   19.6640 C   0  0  0  0  0  0  0  0  0  0  0  0
   14.6050    0.3880   19.8530 O   0  0  0  0  0  0  0  0  0  0  0  0
   13.7690   -0.2010   20.8810 C   0  0  0  0  0  0  0  0  0  0  0  0
   13.0830    0.0770   22.0460 C   0  0  0  0  0  0  0  0  0  0  0  0
   12.3010   -0.9210   22.5860 C   0  0  0  0  0  0  0  0  0  0  0  0
   12.2540   -2.1810   21.9560 C   0  0  0  0  0  0  0  0  0  0  0  0
   11.4710   -2.8200   22.5590 O   0  0  0  0  0  0  0  0  0  0  0  0
   11.2040   -1.5290   22.9420 C   0  0  0  0  0  0  0  0  0  0  0  0
   12.5520   -0.9460   23.2730 C   0  0  0  0  0  0  0  0  0  0  0  0
   12.6150    0.2940   23.6870 C   0  0  0  0  0  0  0  0  0  0  0  0
   11.4890    1.0210   23.8150 C   0  0  0  0  0  0  0  0  0  0  0  0
   10.2200    0.5240   23.4910 C   0  0  0  0  0  0  0  0  0  0  0  0
   10.0620   -0.7610   23.0330 C   0  0  0  0  0  0  0  0  0  0  0  0
    8.7780   -1.2040   22.6610 N   0  0  0  0  0  0  0  0  0  0  0  0
    8.1360   -0.4340   21.6860 C   0  0  0  0  0  0  0  0  0  0  0  0
    8.5590    0.8680   21.3340 O   0  0  0  0  0  0  0  0  0  0  0  0
    7.0230   -1.0000   21.0520 N   0  0  0  0  0  0  0  0  0  0  0  0
    6.3600   -0.2520   20.0850 C   0  0  0  0  0  0  0  0  0  0  0  0
    5.0760    0.5420   20.2660 C   0  0  0  0  0  0  0  0  0  0  0  0
    4.5330    1.2600   19.2130 C   0  0  0  0  0  0  0  0  0  0  0  0
    5.1960    1.2340   17.9910 C   0  0  0  0  0  0  0  0  0  0  0  0
    6.3410    0.5380   17.7830 N   0  0  0  0  0  0  0  0  0  0  0  0
    6.8850   -0.1760   18.8050 C   0  0  0  0  0  0  0  0  0  0  0  0
   13.0110   -2.4060   20.8940 C   0  0  0  0  0  0  0  0  0  0  0  0
   13.7270   -1.3700   20.4420 C   0  0  0  0  0  0  0  0  0  0  0  0
  1  2  1  0
  2  3  1  0
  3  4  1  0
  4  5  2  0
  5  6  1  0
  6  7  2  0
  7  8  1  0
  8  9  1  0
  9 10  2  0
 10 11  1  0
 11 12  2  0
 12 13  1  0
  9 14  1  0
 13 14  2  0
 14 15  1  0
 15 16  1  0
 16 17  2  0
 16 18  1  0
 18 19  1  0
 19 20  2  0
 20 21  1  0
 21 22  2  0
 22 23  1  0
 19 24  1  0
 23 24  2  0
  7 25  1  0
  4 26  1  0
 25 26  2  0
M  END
