pyridine_urea_7654
     RDKit          3D

 16 17  0  0  0  0  0  0  0  0999 V2000
   12.6840   -2.6230   24.1860 C   0  0  0  0  0  0  0  0  0  0  0  0
   11.3860   -1.8770   23.8810 C   0  0  0  0  0  0  0  0  0  0  0  0
   11.5600   -0.6970   23.1400 C   0  0  0  0  0  0  0  0  0  0  0  0
   10.4660    0.1150   22.8390 C   0  0  0  0  0  0  0  0  0  0  0  0
    9.4310   -0.6720   22.1440 N   0  0  0  0  0  0  0  0  0  0  0  0
    8.5080    0.0200   21.4080 C   0  0  0  0  0  0  0  0  0  0  0  0
    8.7430    1.1960   21.1000 O   0  0  0  0  0  0  0  0  0  0  0  0
    7.3720   -0.6370   21.0540 N   0  0  0  0  0  0  0  0  0  0  0  0
    6.5950    0.0040   20.1390 C   0  0  0  0  0  0  0  0  0  0  0  0
    5.4270    0.7170   20.3800 C   0  0  0  0  0  0  0  0  0  0  0  0
    4.6550    1.4040   19.2750 C   0  0  0  0  0  0  0  0  0  0  0  0
    5.1880    1.2760   17.9930 C   0  0  0  0  0  0  0  0  0  0  0  0
    6.3200    0.5740   17.7660 N   0  0  0  0  0  0  0  0  0  0  0  0
    6.9800   -0.0310   18.7990 C   0  0  0  0  0  0  0  0  0  0  0  0
   12.7410   -0.2610   23.5190 C   0  0  0  0  0  0  0  0  0  0  0  0
   12.9880   -0.8420   22.4220 C   0  0  0  0  0  0  0  0  0  0  0  0
  1  2  3  0
  3  2  1  0
  3  4  1  0
  4  5  1  0
  5  6  1  0
  6  7  2  0
  6  8  1  0
  8  9  1  0
  9 10  2  0
 10 11  1  0
 11 12  2  0
 12 13  1  0
  9 14  1  0
 13 14  2  0
  3 15  1  0
  3 16  1  0
 15 16  1  0
M  END
