pyridine_urea_3134
     RDKit          3D

 21 22  0  0  0  0  0  0  0  0999 V2000
   13.0870   -2.0790   21.0480 C   0  0  0  0  0  0  0  0  0  0  0  0
   12.5640   -1.2120   21.9420 N   0  0  0  0  0  0  0  0  0  0  0  0
   11.2480   -0.8430   22.0240 C   0  0  0  0  0  0  0  0  0  0  0  0
   10.5950   -1.3350   23.1070 C   0  0  0  0  0  0  0  0  0  0  0  0
    9.6830   -0.4710   23.6550 C   0  0  0  0  0  0  0  0  0  0  0  0
    8.4320   -0.5050   22.9120 N   0  0  0  0  0  0  0  0  0  0  0  0
    8.2860    0.1210   21.6940 C   0  0  0  0  0  0  0  0  0  0  0  0
    8.9660    1.0850   21.3070 O   0  0  0  0  0  0  0  0  0  0  0  0
    7.2630   -0.4880   21.0160 N   0  0  0  0  0  0  0  0  0  0  0  0
    6.5400    0.1240   20.0020 C   0  0  0  0  0  0  0  0  0  0  0  0
    5.3820    0.8270   20.3240 C   0  0  0  0  0  0  0  0  0  0  0  0
    4.6190    1.5090   19.1900 C   0  0  0  0  0  0  0  0  0  0  0  0
    5.1460    1.3710   17.9170 C   0  0  0  0  0  0  0  0  0  0  0  0
    6.2610    0.6710   17.6620 N   0  0  0  0  0  0  0  0  0  0  0  0
    6.9180    0.0780   18.6810 C   0  0  0  0  0  0  0  0  0  0  0  0
   12.9060   -1.5670   23.1440 C   0  0  0  0  0  0  0  0  0  0  0  0
   12.7140   -0.6010   24.1060 C   0  0  0  0  0  0  0  0  0  0  0  0
   13.0210   -0.8970   25.3820 C   0  0  0  0  0  0  0  0  0  0  0  0
   13.5100   -2.1350   25.6370 C   0  0  0  0  0  0  0  0  0  0  0  0
   13.6540   -3.0140   24.6520 C   0  0  0  0  0  0  0  0  0  0  0  0
   13.3710   -2.7740   23.3910 N   0  0  0  0  0  0  0  0  0  0  0  0
  1  2  1  0
  2  3  1  0
  3  4  1  0
  4  5  1  0
  5  6  1  0
  6  7  1  0
  7  8  2  0
  7  9  1  0
  9 10  1  0
 10 11  2  0
 11 12  1  0
 12 13  2  0
 13 14  1  0
 10 15  1  0
 14 15  2  0
  2 16  1  0
 16 17  2  0
 17 18  1  0
 18 19  2  0
 19 20  1  0
 16 21  1  0
 20 21  2  0
M  END
