pyridine_urea_9793
     RDKit          3D

 26 29  0  0  0  0  0  0  0  0999 V2000
    8.3890    0.3210   20.9750 O   0  0  0  0  0  0  0  0  0  0  0  0
    7.8400   -0.6440   21.4880 C   0  0  0  0  0  0  0  0  0  0  0  0
    6.6850   -1.1380   20.9790 N   0  0  0  0  0  0  0  0  0  0  0  0
    6.1760   -0.2840   19.9480 C   0  0  0  0  0  0  0  0  0  0  0  0
    4.9230    0.5180   20.2620 C   0  0  0  0  0  0  0  0  0  0  0  0
    4.3840    1.4340   19.1710 C   0  0  0  0  0  0  0  0  0  0  0  0
    5.1800    1.4420   17.8660 C   0  0  0  0  0  0  0  0  0  0  0  0
    6.3200    0.6380   17.7340 N   0  0  0  0  0  0  0  0  0  0  0  0
    6.7930   -0.1790   18.7220 C   0  0  0  0  0  0  0  0  0  0  0  0
    8.3230   -1.2620   22.6150 N   0  0  0  0  0  0  0  0  0  0  0  0
    9.3620   -0.4630   23.0390 C   0  0  0  0  0  0  0  0  0  0  0  0
   10.6480   -0.6930   22.9040 C   0  0  0  0  0  0  0  0  0  0  0  0
   10.9400    0.5710   22.5210 C   0  0  0  0  0  0  0  0  0  0  0  0
   10.5590    1.6510   23.2860 N   0  0  0  0  0  0  0  0  0  0  0  0
   11.6550    2.3990   23.4350 C   0  0  0  0  0  0  0  0  0  0  0  0
   12.2020    1.1680   23.5410 C   0  0  0  0  0  0  0  0  0  0  0  0
   12.4330    0.4390   24.6290 N   0  0  0  0  0  0  0  0  0  0  0  0
   12.8640   -0.6910   24.1730 C   0  0  0  0  0  0  0  0  0  0  0  0
   13.2200   -1.8130   25.0230 C   0  0  0  0  0  0  0  0  0  0  0  0
   13.6070   -2.9020   24.3390 C   0  0  0  0  0  0  0  0  0  0  0  0
   13.6640   -2.9080   22.8500 C   0  0  0  0  0  0  0  0  0  0  0  0
   13.3320   -1.8030   22.1080 C   0  0  0  0  0  0  0  0  0  0  0  0
   12.9440   -0.7440   22.8210 C   0  0  0  0  0  0  0  0  0  0  0  0
   12.5490    0.4530   22.4400 N   0  0  0  0  0  0  0  0  0  0  0  0
    9.7330    1.4260   24.3760 C   0  0  0  0  0  0  0  0  0  0  0  0
    9.3450    0.0830   24.4460 C   0  0  0  0  0  0  0  0  0  0  0  0
  1  2  2  0
  2  3  1  0
  3  4  1  0
  4  5  2  0
  5  6  1  0
  6  7  2  0
  7  8  1  0
  4  9  1  0
  8  9  2  0
  2 10  1  0
 10 11  1  0
 11 12  1  0
 12 13  1  0
 13 14  1  0
 14 15  1  0
 15 16  1  0
 16 17  2  0
 17 18  1  0
 18 19  2  0
 19 20  1  0
 20 21  2  0
 21 22  1  0
 18 23  1  0
 22 23  2  0
 16 24  1  0
 23 24  1  0
 14 25  1  0
 11 26  1  0
 25 26  1  0
M  END
