pyridine_urea_10328
     RDKit          3D

 22 23  0  0  0  0  0  0  0  0999 V2000
    8.9100    1.3470   21.2330 O   0  0  0  0  0  0  0  0  0  0  0  0
    8.6720    0.1410   21.2890 C   0  0  0  0  0  0  0  0  0  0  0  0
    7.4510   -0.4440   21.0350 N   0  0  0  0  0  0  0  0  0  0  0  0
    6.5730    0.1440   20.1170 C   0  0  0  0  0  0  0  0  0  0  0  0
    5.2580    0.8530   20.4770 C   0  0  0  0  0  0  0  0  0  0  0  0
    4.5180    1.4300   19.2750 C   0  0  0  0  0  0  0  0  0  0  0  0
    5.1430    1.2450   17.9300 C   0  0  0  0  0  0  0  0  0  0  0  0
    6.2930    0.5980   17.7300 N   0  0  0  0  0  0  0  0  0  0  0  0
    6.9480    0.0830   18.7860 C   0  0  0  0  0  0  0  0  0  0  0  0
    9.6590   -0.7780   21.5610 N   0  0  0  0  0  0  0  0  0  0  0  0
   10.4950   -0.6080   22.7070 C   0  0  0  0  0  0  0  0  0  0  0  0
    9.8190   -0.3570   23.8570 C   0  0  0  0  0  0  0  0  0  0  0  0
   10.4820   -0.2110   25.0190 C   0  0  0  0  0  0  0  0  0  0  0  0
    9.3170    0.1140   26.5500 Br  0  0  0  0  0  0  0  0  0  0  0  0
   11.8910   -0.3150   25.0210 C   0  0  0  0  0  0  0  0  0  0  0  0
   12.6050   -0.5520   23.8590 C   0  0  0  0  0  0  0  0  0  0  0  0
   11.9030   -0.7060   22.6770 C   0  0  0  0  0  0  0  0  0  0  0  0
   12.7820   -0.9650   21.6460 O   0  0  0  0  0  0  0  0  0  0  0  0
   12.8450   -2.3560   21.7360 C   0  0  0  0  0  0  0  0  0  0  0  0
   11.5850   -2.7690   21.8530 F   0  0  0  0  0  0  0  0  0  0  0  0
   13.4260   -2.9120   20.6680 F   0  0  0  0  0  0  0  0  0  0  0  0
   13.5010   -2.6960   22.8640 F   0  0  0  0  0  0  0  0  0  0  0  0
  1  2  2  0
  2  3  1  0
  3  4  1  0
  4  5  2  0
  5  6  1  0
  6  7  2  0
  7  8  1  0
  4  9  1  0
  8  9  2  0
  2 10  1  0
 10 11  1  0
 11 12  2  0
 12 13  1  0
 13 14  1  0
 13 15  2  0
 15 16  1  0
 11 17  1  0
 16 17  2  0
 17 18  1  0
 18 19  1  0
 19 20  1  0
 19 21  1  0
 19 22  1  0
M  END
