pyridine_urea_4188
     RDKit          3D

 25 27  0  0  0  0  0  0  0  0999 V2000
    9.5690    7.2420   22.8140 C   0  0  0  0  0  0  0  0  0  0  0  0
   10.9160    6.9870   23.2190 O   0  0  0  0  0  0  0  0  0  0  0  0
   11.1610    5.6360   23.1570 C   0  0  0  0  0  0  0  0  0  0  0  0
   12.4230    5.1740   22.7840 C   0  0  0  0  0  0  0  0  0  0  0  0
   12.7400    3.8220   22.6830 C   0  0  0  0  0  0  0  0  0  0  0  0
   11.7070    2.9450   22.9750 C   0  0  0  0  0  0  0  0  0  0  0  0
   11.7870    1.5460   22.9140 C   0  0  0  0  0  0  0  0  0  0  0  0
   12.9970    0.8440   22.9930 C   0  0  0  0  0  0  0  0  0  0  0  0
   12.9630   -0.6920   22.8900 C   0  0  0  0  0  0  0  0  0  0  0  0
   11.7080   -1.1620   22.7140 C   0  0  0  0  0  0  0  0  0  0  0  0
   10.9630   -2.3130   22.5470 C   0  0  0  0  0  0  0  0  0  0  0  0
   10.4230   -0.4420   22.6180 C   0  0  0  0  0  0  0  0  0  0  0  0
    9.1230   -1.0020   22.3900 N   0  0  0  0  0  0  0  0  0  0  0  0
    8.1990   -0.2920   21.5360 C   0  0  0  0  0  0  0  0  0  0  0  0
    8.4480    1.0210   21.2100 O   0  0  0  0  0  0  0  0  0  0  0  0
    7.1010   -0.8800   21.0330 N   0  0  0  0  0  0  0  0  0  0  0  0
    6.3690   -0.1570   20.0820 C   0  0  0  0  0  0  0  0  0  0  0  0
    5.0770    0.5590   20.2950 C   0  0  0  0  0  0  0  0  0  0  0  0
    4.4900    1.2980   19.1160 C   0  0  0  0  0  0  0  0  0  0  0  0
    5.1730    1.2730   17.9170 C   0  0  0  0  0  0  0  0  0  0  0  0
    6.3380    0.6120   17.7480 N   0  0  0  0  0  0  0  0  0  0  0  0
    6.8920   -0.0670   18.7940 C   0  0  0  0  0  0  0  0  0  0  0  0
   10.5560    0.9160   22.7400 C   0  0  0  0  0  0  0  0  0  0  0  0
   10.4620    3.4830   23.3530 C   0  0  0  0  0  0  0  0  0  0  0  0
   10.1660    4.7940   23.4520 N   0  0  0  0  0  0  0  0  0  0  0  0
  1  2  1  0
  2  3  1  0
  3  4  2  0
  4  5  1  0
  5  6  2  0
  6  7  1  0
  7  8  2  0
  8  9  1  0
  9 10  2  0
 10 11  1  0
 10 12  1  0
 12 13  1  0
 13 14  1  0
 14 15  2  0
 14 16  1  0
 16 17  1  0
 17 18  2  0
 18 19  1  0
 19 20  2  0
 20 21  1  0
 17 22  1  0
 21 22  2  0
  7 23  1  0
 12 23  2  0
  6 24  1  0
  3 25  1  0
 24 25  2  0
M  END
