pyridine_urea_4293
     RDKit          3D

 24 26  0  0  0  0  0  0  0  0999 V2000
   10.3520    1.2530   22.8160 C   0  0  0  0  0  0  0  0  0  0  0  0
    8.8660    1.2200   23.2290 C   0  0  0  0  0  0  0  0  0  0  0  0
    8.4860   -0.2270   23.5760 C   0  0  1  0  0  0  0  0  0  0  0  0
    7.8860   -0.9570   22.6750 N   0  0  0  0  0  0  0  0  0  0  0  0
    7.8540   -0.4230   21.4850 C   0  0  0  0  0  0  0  0  0  0  0  0
    8.6340    0.4240   21.0870 O   0  0  0  0  0  0  0  0  0  0  0  0
    6.7450   -0.9950   20.8000 N   0  0  0  0  0  0  0  0  0  0  0  0
    6.1950   -0.1970   19.8780 C   0  0  0  0  0  0  0  0  0  0  0  0
    4.8920    0.5620   20.1090 C   0  0  0  0  0  0  0  0  0  0  0  0
    4.3610    1.4540   18.9910 C   0  0  0  0  0  0  0  0  0  0  0  0
    5.1060    1.5170   17.8200 C   0  0  0  0  0  0  0  0  0  0  0  0
    6.2500    0.8670   17.5840 N   0  0  0  0  0  0  0  0  0  0  0  0
    6.7680    0.0730   18.5180 C   0  0  0  0  0  0  0  0  0  0  0  0
    9.7240   -0.9350   23.5450 C   0  0  0  0  0  0  0  0  0  0  0  0
    9.7240   -2.2030   23.9610 C   0  0  0  0  0  0  0  0  0  0  0  0
   10.9730   -2.7120   23.7890 C   0  0  0  0  0  0  0  0  0  0  0  0
   12.1060   -1.8760   23.2130 C   0  0  0  0  0  0  0  0  0  0  0  0
   12.1650   -0.4330   22.7720 C   0  0  0  0  0  0  0  0  0  0  0  0
   10.8290   -0.3970   23.1020 C   0  0  0  0  0  0  0  0  0  0  0  0
   13.3750   -0.7120   22.5430 C   0  0  0  0  0  0  0  0  0  0  0  0
   13.0530   -1.9060   22.0400 C   0  0  0  0  0  0  0  0  0  0  0  0
   13.3760   -2.3840   20.8220 C   0  0  0  0  0  0  0  0  0  0  0  0
   11.5330   -1.9580   21.8190 C   0  0  0  0  0  0  0  0  0  0  0  0
   13.2350   -2.5360   23.0180 O   0  0  0  0  0  0  0  0  0  0  0  0
  1  2  1  0
  3  2  1  6
  3  4  1  0
  4  5  1  0
  5  6  2  0
  5  7  1  0
  7  8  1  0
  8  9  2  0
  9 10  1  0
 10 11  2  0
 11 12  1  0
  8 13  1  0
 12 13  2  0
  3 14  1  0
 14 15  2  0
 15 16  1  0
 16 17  2  0
 17 18  1  0
 14 19  1  0
 18 19  2  0
 18 20  1  0
 20 21  1  0
 21 22  1  0
 21 23  1  0
 17 24  1  0
 21 24  1  0
M  END
