pyridine_urea_9129
     RDKit          3D

 19 20  0  0  0  0  0  0  0  0999 V2000
    8.8960    0.4180   21.5700 O   0  0  0  0  0  0  0  0  0  0  0  0
    8.1470   -0.5410   21.4310 C   0  0  0  0  0  0  0  0  0  0  0  0
    8.5630   -1.8370   21.4730 N   0  0  0  0  0  0  0  0  0  0  0  0
    9.2090   -2.3830   22.6380 C   0  0  0  0  0  0  0  0  0  0  0  0
   10.6030   -1.9290   22.3980 C   0  0  0  0  0  0  0  0  0  0  0  0
    9.8410   -1.0610   23.2860 C   0  0  0  0  0  0  0  0  0  0  0  0
    9.9210    0.1490   24.0600 C   0  0  0  0  0  0  0  0  0  0  0  0
   11.1900    0.4240   23.7090 C   0  0  0  0  0  0  0  0  0  0  0  0
   11.5850    1.4390   24.1970 O   0  0  0  0  0  0  0  0  0  0  0  0
   11.9920   -0.2160   22.9600 C   0  0  0  0  0  0  0  0  0  0  0  0
   13.5220    0.6140   22.8190 Br  0  0  0  0  0  0  0  0  0  0  0  0
   11.8020   -1.3140   22.3350 C   0  0  0  0  0  0  0  0  0  0  0  0
    6.8160   -0.5070   21.1710 N   0  0  0  0  0  0  0  0  0  0  0  0
    6.2770    0.1200   20.0720 C   0  0  0  0  0  0  0  0  0  0  0  0
    5.0950    0.8410   20.2540 C   0  0  0  0  0  0  0  0  0  0  0  0
    4.5230    1.5030   19.1630 C   0  0  0  0  0  0  0  0  0  0  0  0
    5.2220    1.3950   17.8520 C   0  0  0  0  0  0  0  0  0  0  0  0
    6.3520    0.6910   17.7110 N   0  0  0  0  0  0  0  0  0  0  0  0
    6.8470    0.0760   18.8070 C   0  0  0  0  0  0  0  0  0  0  0  0
  1  2  2  0
  2  3  1  0
  3  4  1  0
  4  5  1  0
  5  6  2  0
  6  7  1  0
  7  8  2  0
  8  9  1  0
  8 10  1  0
 10 11  1  0
  5 12  1  0
 10 12  2  0
  2 13  1  0
 13 14  1  0
 14 15  2  0
 15 16  1  0
 16 17  2  0
 17 18  1  0
 14 19  1  0
 18 19  2  0
M  END
