pyridine_urea_4592
     RDKit          3D

 23 24  0  0  0  0  0  0  0  0999 V2000
   11.9620   -1.4140   21.9140 C   0  0  0  0  0  0  0  0  0  0  0  0
   13.3750   -0.7900   22.0160 C   0  0  0  0  0  0  0  0  0  0  0  0
   13.6240    0.4830   22.9280 C   0  0  0  0  0  0  0  0  0  0  0  0
   12.6000    1.4340   23.2180 N   0  0  0  0  0  0  0  0  0  0  0  0
   12.5730    2.7450   22.6810 C   0  0  0  0  0  0  0  0  0  0  0  0
   11.7690    3.7360   23.2400 C   0  0  0  0  0  0  0  0  0  0  0  0
   12.3860    4.9720   23.4760 C   0  0  0  0  0  0  0  0  0  0  0  0
   11.6050    0.6900   23.0380 C   0  0  0  0  0  0  0  0  0  0  0  0
   10.4460    1.3360   23.0750 C   0  0  0  0  0  0  0  0  0  0  0  0
    9.3130    0.6640   22.8810 C   0  0  0  0  0  0  0  0  0  0  0  0
    9.3380   -0.7100   22.6330 C   0  0  0  0  0  0  0  0  0  0  0  0
    8.1500   -1.2280   22.4090 N   0  0  0  0  0  0  0  0  0  0  0  0
    7.5860   -0.5420   21.3470 C   0  0  0  0  0  0  0  0  0  0  0  0
    8.1530    0.4300   20.8690 O   0  0  0  0  0  0  0  0  0  0  0  0
    6.4280   -1.0100   20.9270 N   0  0  0  0  0  0  0  0  0  0  0  0
    6.0340   -0.2250   19.9190 C   0  0  0  0  0  0  0  0  0  0  0  0
    4.9030    0.5450   20.0830 C   0  0  0  0  0  0  0  0  0  0  0  0
    4.4680    1.3940   19.0380 C   0  0  0  0  0  0  0  0  0  0  0  0
    5.1850    1.4330   17.8810 C   0  0  0  0  0  0  0  0  0  0  0  0
    6.3270    0.6680   17.6870 N   0  0  0  0  0  0  0  0  0  0  0  0
    6.7110   -0.1310   18.7110 C   0  0  0  0  0  0  0  0  0  0  0  0
   10.5040   -1.4280   22.5980 C   0  0  0  0  0  0  0  0  0  0  0  0
   11.7420   -0.6520   22.8240 C   0  0  0  0  0  0  0  0  0  0  0  0
  1  2  1  0
  2  3  1  0
  3  4  1  0
  4  5  1  0
  5  6  1  0
  6  7  1  0
  4  8  1  0
  8  9  2  0
  9 10  1  0
 10 11  2  0
 11 12  1  0
 12 13  1  0
 13 14  2  0
 13 15  1  0
 15 16  1  0
 16 17  2  0
 17 18  1  0
 18 19  2  0
 19 20  1  0
 16 21  1  0
 20 21  2  0
 11 22  1  0
  8 23  1  0
 22 23  2  0
M  END
