pyridine_urea_5583
     RDKit          3D

 16 17  0  0  0  0  0  0  0  0999 V2000
    9.0120    1.1080   21.2780 O   0  0  0  0  0  0  0  0  0  0  0  0
    8.4150    0.0960   21.6790 C   0  0  0  0  0  0  0  0  0  0  0  0
    8.7720   -0.6070   22.8090 N   0  0  0  0  0  0  0  0  0  0  0  0
   10.1230   -1.0890   22.9630 C   0  0  0  0  0  0  0  0  0  0  0  0
   11.0040   -0.2580   23.9570 C   0  0  2  0  0  0  0  0  0  0  0  0
   11.7230    0.8070   23.4150 C   0  0  0  0  0  0  0  0  0  0  0  0
   13.0790    0.2500   23.0030 C   0  0  0  0  0  0  0  0  0  0  0  0
   13.3730   -0.9010   23.6500 O   0  0  0  0  0  0  0  0  0  0  0  0
   12.1660   -1.2150   24.3380 C   0  0  0  0  0  0  0  0  0  0  0  0
    7.3150   -0.4860   21.1100 N   0  0  0  0  0  0  0  0  0  0  0  0
    6.5950    0.1120   19.9880 C   0  0  0  0  0  0  0  0  0  0  0  0
    5.3500    0.8960   20.4220 C   0  0  0  0  0  0  0  0  0  0  0  0
    4.5640    1.5740   19.2930 C   0  0  0  0  0  0  0  0  0  0  0  0
    5.1480    1.3610   17.9090 C   0  0  0  0  0  0  0  0  0  0  0  0
    6.2640    0.6270   17.6620 N   0  0  0  0  0  0  0  0  0  0  0  0
    6.9700    0.0160   18.6760 C   0  0  0  0  0  0  0  0  0  0  0  0
  1  2  2  0
  2  3  1  0
  3  4  1  0
  5  4  1  6
  5  6  1  0
  6  7  1  0
  7  8  1  0
  5  9  1  0
  8  9  1  0
  2 10  1  0
 10 11  1  0
 11 12  2  0
 12 13  1  0
 13 14  2  0
 14 15  1  0
 11 16  1  0
 15 16  2  0
M  END
