pyridine_urea_12041
     RDKit          3D

 23 25  0  0  0  0  0  0  0  0999 V2000
    8.1910    1.0250   21.5970 O   0  0  0  0  0  0  0  0  0  0  0  0
    7.7980   -0.1270   21.6900 C   0  0  0  0  0  0  0  0  0  0  0  0
    6.6890   -0.6330   21.1060 N   0  0  0  0  0  0  0  0  0  0  0  0
    6.1820    0.0190   19.9920 C   0  0  0  0  0  0  0  0  0  0  0  0
    4.9980    0.7390   20.1310 C   0  0  0  0  0  0  0  0  0  0  0  0
    4.4810    1.4220   19.0360 C   0  0  0  0  0  0  0  0  0  0  0  0
    5.1710    1.3550   17.8440 C   0  0  0  0  0  0  0  0  0  0  0  0
    6.3100    0.6590   17.6910 N   0  0  0  0  0  0  0  0  0  0  0  0
    6.7920    0.0040   18.7610 C   0  0  0  0  0  0  0  0  0  0  0  0
    8.5010   -1.0470   22.3730 N   0  0  0  0  0  0  0  0  0  0  0  0
    9.8420   -0.8820   21.9020 C   0  0  1  0  0  0  0  0  0  0  0  0
   10.5330    0.1980   22.6290 C   0  0  0  0  0  0  0  0  0  0  0  0
   11.8660   -0.1340   22.5040 C   0  0  0  0  0  0  0  0  0  0  0  0
   12.0560   -1.4590   22.0670 N   0  0  0  0  0  0  0  0  0  0  0  0
   12.5510   -1.6940   23.1530 C   0  0  0  0  0  0  0  0  0  0  0  0
   12.7410   -2.9450   23.7110 N   0  0  0  0  0  0  0  0  0  0  0  0
   13.2650   -2.8960   24.9750 C   0  0  0  0  0  0  0  0  0  0  0  0
   13.7100   -3.9830   26.1610 Cl  0  0  0  0  0  0  0  0  0  0  0  0
   13.4840   -1.7990   25.4260 N   0  0  0  0  0  0  0  0  0  0  0  0
   13.2590   -0.7430   24.7780 C   0  0  0  0  0  0  0  0  0  0  0  0
   12.8180   -0.3830   23.6510 C   0  0  0  0  0  0  0  0  0  0  0  0
   12.6870    0.9020   23.2130 F   0  0  0  0  0  0  0  0  0  0  0  0
   10.8320   -2.0300   21.8950 C   0  0  0  0  0  0  0  0  0  0  0  0
  1  2  2  0
  2  3  1  0
  3  4  1  0
  4  5  2  0
  5  6  1  0
  6  7  2  0
  7  8  1  0
  4  9  1  0
  8  9  2  0
  2 10  1  0
 11 10  1  1
 11 12  1  0
 12 13  1  0
 13 14  1  0
 14 15  1  0
 15 16  2  0
 16 17  1  0
 17 18  1  0
 17 19  2  0
 19 20  1  0
 15 21  1  0
 20 21  2  0
 21 22  1  0
 11 23  1  0
 14 23  1  0
M  END
