pyridine_urea_13382
     RDKit          3D

 21 22  0  0  0  0  0  0  0  0999 V2000
   11.5380    5.2050   24.2250 C   0  0  0  0  0  0  0  0  0  0  0  0
   11.1310    3.9110   23.7680 O   0  0  0  0  0  0  0  0  0  0  0  0
   11.9450    3.3630   22.8080 C   0  0  0  0  0  0  0  0  0  0  0  0
   12.5120    4.0480   21.9540 O   0  0  0  0  0  0  0  0  0  0  0  0
   12.0570    1.8230   22.9340 C   0  0  0  0  0  0  0  0  0  0  0  0
   10.6760    1.1520   22.7910 C   0  0  0  0  0  0  0  0  0  0  0  0
   10.6320   -0.3430   22.5700 C   0  0  1  0  0  0  0  0  0  0  0  0
    9.6180   -0.9490   21.7130 N   0  0  0  0  0  0  0  0  0  0  0  0
    8.5880   -0.1040   21.2850 C   0  0  0  0  0  0  0  0  0  0  0  0
    8.8100    1.3300   21.0910 O   0  0  0  0  0  0  0  0  0  0  0  0
    7.3090   -0.7390   21.0230 N   0  0  0  0  0  0  0  0  0  0  0  0
    6.5740   -0.1020   20.0480 C   0  0  0  0  0  0  0  0  0  0  0  0
    5.3950    0.5850   20.3750 C   0  0  0  0  0  0  0  0  0  0  0  0
    4.6630    1.2490   19.3970 C   0  0  0  0  0  0  0  0  0  0  0  0
    5.1430    1.2020   18.1050 C   0  0  0  0  0  0  0  0  0  0  0  0
    6.2570    0.5530   17.7420 N   0  0  0  0  0  0  0  0  0  0  0  0
    6.9450   -0.0840   18.7180 C   0  0  0  0  0  0  0  0  0  0  0  0
   11.9020   -1.0210   22.2510 C   0  0  0  0  0  0  0  0  0  0  0  0
   12.4860   -1.2790   23.6020 C   0  0  0  0  0  0  0  0  0  0  0  0
   11.5070   -1.0040   24.4880 O   0  0  0  0  0  0  0  0  0  0  0  0
   10.2680   -0.9180   23.7860 C   0  0  0  0  0  0  0  0  0  0  0  0
  1  2  1  0
  2  3  1  0
  3  4  2  0
  3  5  1  0
  5  6  1  0
  7  6  1  1
  7  8  1  0
  8  9  1  0
  9 10  2  0
  9 11  1  0
 11 12  1  0
 12 13  2  0
 13 14  1  0
 14 15  2  0
 15 16  1  0
 12 17  1  0
 16 17  2  0
  7 18  1  0
 18 19  1  0
 19 20  1  0
  7 21  1  0
 20 21  1  0
M  END
