pyridine_urea_8669
     RDKit          3D

 21 23  0  0  0  0  0  0  0  0999 V2000
    8.9390    1.2360   21.2300 O   0  0  0  0  0  0  0  0  0  0  0  0
    8.2500    0.3130   21.6860 C   0  0  0  0  0  0  0  0  0  0  0  0
    8.1850   -0.1210   22.9910 N   0  0  0  0  0  0  0  0  0  0  0  0
    9.2070   -0.4580   23.8950 C   0  0  0  0  0  0  0  0  0  0  0  0
   10.3570    0.3110   23.9480 C   0  0  0  0  0  0  0  0  0  0  0  0
   11.6570    0.9160   23.8320 C   0  0  0  0  0  0  0  0  0  0  0  0
   12.7720    0.5250   23.1280 C   0  0  0  0  0  0  0  0  0  0  0  0
   12.6690   -0.6950   22.3470 C   0  0  0  0  0  0  0  0  0  0  0  0
   13.5750   -1.2930   21.5960 N   0  0  0  0  0  0  0  0  0  0  0  0
   12.9910   -2.4910   21.1350 C   0  0  0  0  0  0  0  0  0  0  0  0
   13.5940   -3.3520   20.5370 O   0  0  0  0  0  0  0  0  0  0  0  0
   11.6690   -2.4540   21.5100 N   0  0  0  0  0  0  0  0  0  0  0  0
   11.4670   -1.3880   22.3390 C   0  0  0  0  0  0  0  0  0  0  0  0
   10.4550   -0.8620   23.1070 C   0  0  0  0  0  0  0  0  0  0  0  0
    7.3820   -0.4330   20.9300 N   0  0  0  0  0  0  0  0  0  0  0  0
    6.5760    0.1590   20.0300 C   0  0  0  0  0  0  0  0  0  0  0  0
    5.4060    0.8680   20.3210 C   0  0  0  0  0  0  0  0  0  0  0  0
    4.6820    1.4480   19.2770 C   0  0  0  0  0  0  0  0  0  0  0  0
    5.1480    1.3000   17.9800 C   0  0  0  0  0  0  0  0  0  0  0  0
    6.2570    0.6190   17.6780 N   0  0  0  0  0  0  0  0  0  0  0  0
    6.9400    0.0660   18.7050 C   0  0  0  0  0  0  0  0  0  0  0  0
  1  2  2  0
  2  3  1  0
  3  4  1  0
  4  5  1  0
  5  6  2  0
  6  7  1  0
  7  8  2  0
  8  9  1  0
  9 10  1  0
 10 11  2  0
 10 12  1  0
  8 13  1  0
 12 13  1  0
  5 14  1  0
 13 14  2  0
  2 15  1  0
 15 16  1  0
 16 17  2  0
 17 18  1  0
 18 19  2  0
 19 20  1  0
 16 21  1  0
 20 21  2  0
M  END
