pyridine_urea_11496
     RDKit          3D

 22 24  0  0  0  0  0  0  0  0999 V2000
    9.5820    0.9010   23.4220 C   0  0  0  0  0  0  0  0  0  0  0  0
    9.2780   -0.5890   23.1250 C   0  0  1  0  0  0  0  0  0  0  0  0
    7.8960   -0.6080   22.7630 N   0  0  0  0  0  0  0  0  0  0  0  0
    7.6430    0.0260   21.5750 C   0  0  0  0  0  0  0  0  0  0  0  0
    8.2820    1.0220   21.1990 O   0  0  0  0  0  0  0  0  0  0  0  0
    6.6140   -0.5530   20.8840 N   0  0  0  0  0  0  0  0  0  0  0  0
    6.1550    0.0740   19.7720 C   0  0  0  0  0  0  0  0  0  0  0  0
    4.9310    0.7170   19.9230 C   0  0  0  0  0  0  0  0  0  0  0  0
    4.4100    1.3870   18.8310 C   0  0  0  0  0  0  0  0  0  0  0  0
    5.1640    1.3960   17.6220 C   0  0  0  0  0  0  0  0  0  0  0  0
    6.3560    0.7580   17.4840 N   0  0  0  0  0  0  0  0  0  0  0  0
    6.8160    0.1130   18.5720 C   0  0  0  0  0  0  0  0  0  0  0  0
    9.9970   -0.9160   21.9120 C   0  0  0  0  0  0  0  0  0  0  0  0
    9.5280   -1.0360   20.7060 C   0  0  0  0  0  0  0  0  0  0  0  0
   10.7640   -0.9220   21.3790 C   0  0  0  0  0  0  0  0  0  0  0  0
   10.3900   -1.0150   21.6840 C   0  0  0  0  0  0  0  0  0  0  0  0
    9.3430   -1.2740   22.5350 C   0  0  0  0  0  0  0  0  0  0  0  0
   10.9340   -1.7330   22.7920 C   0  0  0  0  0  0  0  0  0  0  0  0
   12.3640   -1.1680   22.5180 N   0  0  0  0  0  0  0  0  0  0  0  0
   13.8610   -1.5170   22.5290 C   0  0  0  0  0  0  0  0  0  0  0  0
   11.6090   -0.8270   22.8380 C   0  0  0  0  0  0  0  0  0  0  0  0
   11.4120   -1.1080   21.7060 C   0  0  0  0  0  0  0  0  0  0  0  0
  2  1  1  6
  2  3  1  0
  3  4  1  0
  4  5  2  0
  4  6  1  0
  6  7  1  0
  7  8  2  0
  8  9  1  0
  9 10  2  0
 10 11  1  0
  7 12  1  0
 11 12  2  0
  2 13  1  0
 13 14  2  0
 14 15  1  0
 15 16  2  0
 16 17  1  0
 17 18  2  0
 18 19  1  0
 19 20  1  0
 16 21  1  0
 19 21  1  0
 13 22  1  0
 21 22  2  0
M  END
