pyridine_urea_860
     RDKit          3D

 23 25  0  0  0  0  0  0  0  0999 V2000
   13.1580   -2.2190   25.0990 C   0  0  0  0  0  0  0  0  0  0  0  0
   13.2830   -2.3280   23.6190 C   0  0  0  0  0  0  0  0  0  0  0  0
   13.2880   -1.2030   23.1230 O   0  0  0  0  0  0  0  0  0  0  0  0
   12.3290   -1.0400   22.1800 C   0  0  0  0  0  0  0  0  0  0  0  0
   12.2720   -1.7420   21.1830 O   0  0  0  0  0  0  0  0  0  0  0  0
   11.4510    0.0010   22.5770 C   0  0  0  0  0  0  0  0  0  0  0  0
   11.7520    1.4080   22.8740 C   0  0  0  0  0  0  0  0  0  0  0  0
   13.0050    2.2070   22.7760 C   0  0  0  0  0  0  0  0  0  0  0  0
   12.5850    3.3650   21.9550 C   0  0  0  0  0  0  0  0  0  0  0  0
   12.9510    3.8530   23.1950 C   0  0  0  0  0  0  0  0  0  0  0  0
   10.8510    2.4000   23.3120 C   0  0  0  0  0  0  0  0  0  0  0  0
    9.4500    1.3590   23.2530 S   0  0  0  0  0  0  0  0  0  0  0  0
   10.0920   -0.1340   22.7030 C   0  0  0  0  0  0  0  0  0  0  0  0
    9.1850   -1.0820   22.4710 N   0  0  0  0  0  0  0  0  0  0  0  0
    8.3270   -0.4730   21.5460 C   0  0  0  0  0  0  0  0  0  0  0  0
    8.5870    0.6380   21.1110 O   0  0  0  0  0  0  0  0  0  0  0  0
    7.1750   -1.0620   21.0990 N   0  0  0  0  0  0  0  0  0  0  0  0
    6.4170   -0.3160   20.1470 C   0  0  0  0  0  0  0  0  0  0  0  0
    5.2060    0.3290   20.3740 C   0  0  0  0  0  0  0  0  0  0  0  0
    4.6070    1.0380   19.3320 C   0  0  0  0  0  0  0  0  0  0  0  0
    5.2010    1.1060   18.0810 C   0  0  0  0  0  0  0  0  0  0  0  0
    6.3660    0.4880   17.8320 N   0  0  0  0  0  0  0  0  0  0  0  0
    6.9350   -0.1990   18.8550 C   0  0  0  0  0  0  0  0  0  0  0  0
  1  2  1  0
  2  3  1  0
  3  4  1  0
  4  5  2  0
  4  6  1  0
  6  7  1  0
  7  8  1  0
  8  9  1  0
  8 10  1  0
  9 10  1  0
  7 11  2  0
 11 12  1  0
  6 13  2  0
 12 13  1  0
 13 14  1  0
 14 15  1  0
 15 16  2  0
 15 17  1  0
 17 18  1  0
 18 19  2  0
 19 20  1  0
 20 21  2  0
 21 22  1  0
 18 23  1  0
 22 23  2  0
M  END
