pyridine_urea_8728
     RDKit          3D

 21 22  0  0  0  0  0  0  0  0999 V2000
    7.5680    2.9260   21.5570 C   0  0  0  0  0  0  0  0  0  0  0  0
    8.8750    2.4900   21.2070 O   0  0  0  0  0  0  0  0  0  0  0  0
    9.8090    2.6320   22.1990 C   0  0  0  0  0  0  0  0  0  0  0  0
   10.4850    1.5390   22.7790 C   0  0  0  0  0  0  0  0  0  0  0  0
   10.5570    0.6180   21.9660 O   0  0  0  0  0  0  0  0  0  0  0  0
   11.0170   -0.6380   22.2640 C   0  0  1  0  0  0  0  0  0  0  0  0
   12.3910   -0.5160   22.5340 C   0  0  0  0  0  0  0  0  0  0  0  0
   12.6100   -0.7820   23.7020 O   0  0  0  0  0  0  0  0  0  0  0  0
   11.8860   -0.1260   24.6440 C   0  0  0  0  0  0  0  0  0  0  0  0
   10.5530   -0.5120   24.5420 C   0  0  0  0  0  0  0  0  0  0  0  0
   10.2470   -1.2110   23.2240 C   0  0  1  0  0  0  0  0  0  0  0  0
    8.7780   -1.1160   22.7820 N   0  0  0  0  0  0  0  0  0  0  0  0
    8.2920   -0.3580   21.7150 C   0  0  0  0  0  0  0  0  0  0  0  0
    8.9260    0.7750   21.3040 O   0  0  0  0  0  0  0  0  0  0  0  0
    7.1300   -0.8390   21.1370 N   0  0  0  0  0  0  0  0  0  0  0  0
    6.4750   -0.1500   20.0870 C   0  0  0  0  0  0  0  0  0  0  0  0
    5.2880    0.5500   20.3550 C   0  0  0  0  0  0  0  0  0  0  0  0
    4.6500    1.2440   19.3100 C   0  0  0  0  0  0  0  0  0  0  0  0
    5.2040    1.2280   18.0360 C   0  0  0  0  0  0  0  0  0  0  0  0
    6.3360    0.5590   17.7640 N   0  0  0  0  0  0  0  0  0  0  0  0
    6.9350   -0.1060   18.7770 C   0  0  0  0  0  0  0  0  0  0  0  0
  1  2  1  0
  2  3  1  0
  3  4  1  0
  4  5  1  0
  6  5  1  1
  6  7  1  0
  7  8  1  0
  8  9  1  0
  9 10  1  0
  6 11  1  0
 10 11  1  0
 11 12  1  6
 12 13  1  0
 13 14  2  0
 13 15  1  0
 15 16  1  0
 16 17  2  0
 17 18  1  0
 18 19  2  0
 19 20  1  0
 16 21  1  0
 20 21  2  0
M  END
