pyridine_urea_7200
     RDKit          3D

 19 20  0  0  0  0  0  0  0  0999 V2000
   12.8640   -2.8700   21.2460 C   0  0  0  0  0  0  0  0  0  0  0  0
   12.3900   -1.6580   22.0050 C   0  0  0  0  0  0  0  0  0  0  0  0
   13.1450   -0.5910   22.1790 C   0  0  0  0  0  0  0  0  0  0  0  0
   12.6820    0.4660   22.8340 C   0  0  0  0  0  0  0  0  0  0  0  0
   11.4150    0.4150   23.3160 C   0  0  0  0  0  0  0  0  0  0  0  0
   11.0040    1.5100   23.9220 C   0  0  0  0  0  0  0  0  0  0  0  0
   10.4320   -0.6020   23.2840 C   0  0  0  0  0  0  0  0  0  0  0  0
    9.6440   -1.6930   23.1410 C   0  0  0  0  0  0  0  0  0  0  0  0
    8.3080   -1.1590   22.8700 N   0  0  0  0  0  0  0  0  0  0  0  0
    8.0870   -0.3500   21.6430 C   0  0  0  0  0  0  0  0  0  0  0  0
    8.7850    0.5940   21.2980 O   0  0  0  0  0  0  0  0  0  0  0  0
    6.9210   -0.8600   20.9610 N   0  0  0  0  0  0  0  0  0  0  0  0
    6.3380   -0.0980   19.9590 C   0  0  0  0  0  0  0  0  0  0  0  0
    5.1740    0.6560   20.1590 C   0  0  0  0  0  0  0  0  0  0  0  0
    4.5480    1.4810   19.0870 C   0  0  0  0  0  0  0  0  0  0  0  0
    5.1860    1.4690   17.8550 C   0  0  0  0  0  0  0  0  0  0  0  0
    6.3440    0.7000   17.6930 N   0  0  0  0  0  0  0  0  0  0  0  0
    6.8810   -0.0380   18.6910 C   0  0  0  0  0  0  0  0  0  0  0  0
   11.0590   -1.5920   22.5900 N   0  0  0  0  0  0  0  0  0  0  0  0
  1  2  1  0
  2  3  2  0
  3  4  1  0
  4  5  2  0
  5  6  1  0
  5  7  1  0
  7  8  1  0
  8  9  1  0
  9 10  1  0
 10 11  2  0
 10 12  1  0
 12 13  1  0
 13 14  2  0
 14 15  1  0
 15 16  2  0
 16 17  1  0
 13 18  1  0
 17 18  2  0
  2 19  1  0
  7 19  2  0
M  END
