pyridine_urea_6644
     RDKit          3D

 22 24  0  0  0  0  0  0  0  0999 V2000
    8.7970    0.7690   21.2730 O   0  0  0  0  0  0  0  0  0  0  0  0
    8.3560   -0.3410   21.5350 C   0  0  0  0  0  0  0  0  0  0  0  0
    7.2110   -0.8660   20.9900 N   0  0  0  0  0  0  0  0  0  0  0  0
    6.4370   -0.1310   20.0800 C   0  0  0  0  0  0  0  0  0  0  0  0
    5.1210    0.5940   20.4200 C   0  0  0  0  0  0  0  0  0  0  0  0
    4.4940    1.3400   19.2420 C   0  0  0  0  0  0  0  0  0  0  0  0
    5.2070    1.2890   17.9290 C   0  0  0  0  0  0  0  0  0  0  0  0
    6.3550    0.6160   17.7470 N   0  0  0  0  0  0  0  0  0  0  0  0
    6.9140   -0.0480   18.7800 C   0  0  0  0  0  0  0  0  0  0  0  0
    9.0160   -1.1540   22.4280 N   0  0  0  0  0  0  0  0  0  0  0  0
   10.3580   -0.7290   22.6900 C   0  0  0  0  0  0  0  0  0  0  0  0
   11.4510   -1.3440   22.0910 C   0  0  0  0  0  0  0  0  0  0  0  0
   12.7330   -0.8700   22.3540 C   0  0  0  0  0  0  0  0  0  0  0  0
   12.9300    0.2150   23.2070 C   0  0  0  0  0  0  0  0  0  0  0  0
   11.8370    0.8440   23.8320 C   0  0  0  0  0  0  0  0  0  0  0  0
   10.5680    0.3330   23.5460 C   0  0  0  0  0  0  0  0  0  0  0  0
    9.3740    0.9980   24.2250 C   0  0  0  0  0  0  0  0  0  0  0  0
    8.6260    1.8870   23.5430 N   0  0  0  0  0  0  0  0  0  0  0  0
    9.1200    2.6860   22.5390 C   0  0  0  0  0  0  0  0  0  0  0  0
    8.1080    3.4450   22.0770 C   0  0  0  0  0  0  0  0  0  0  0  0
    7.0610    3.0650   22.8250 C   0  0  0  0  0  0  0  0  0  0  0  0
    7.2550    2.1100   23.7700 N   0  0  0  0  0  0  0  0  0  0  0  0
  1  2  2  0
  2  3  1  0
  3  4  1  0
  4  5  2  0
  5  6  1  0
  6  7  2  0
  7  8  1  0
  4  9  1  0
  8  9  2  0
  2 10  1  0
 10 11  1  0
 11 12  2  0
 12 13  1  0
 13 14  2  0
 14 15  1  0
 11 16  1  0
 15 16  2  0
 16 17  1  0
 17 18  1  0
 18 19  1  0
 19 20  2  0
 20 21  1  0
 18 22  1  0
 21 22  2  0
M  END
