pyridine_urea_4302
     RDKit          3D

 24 26  0  0  0  0  0  0  0  0999 V2000
   13.8640   -3.2660   25.9030 C   0  0  0  0  0  0  0  0  0  0  0  0
   12.4070   -3.6360   25.8500 C   0  0  0  0  0  0  0  0  0  0  0  0
   11.7890   -2.8020   24.8960 C   0  0  0  0  0  0  0  0  0  0  0  0
   10.3730   -3.0280   24.7280 C   0  0  0  0  0  0  0  0  0  0  0  0
   10.0490   -2.1110   23.7950 N   0  0  0  0  0  0  0  0  0  0  0  0
    9.3720   -1.0600   24.2910 C   0  0  0  0  0  0  0  0  0  0  0  0
    8.9400   -0.3620   23.0610 C   0  0  0  0  0  0  0  0  0  0  0  0
    9.2880   -1.4080   22.0040 C   0  0  0  0  0  0  0  0  0  0  0  0
    8.6630   -0.9830   20.8560 N   0  0  0  0  0  0  0  0  0  0  0  0
    8.0270    0.2240   21.0100 C   0  0  0  0  0  0  0  0  0  0  0  0
    8.6060    1.3180   21.0390 O   0  0  0  0  0  0  0  0  0  0  0  0
    6.7270   -0.0180   21.0890 N   0  0  0  0  0  0  0  0  0  0  0  0
    6.2110    0.4430   19.9700 C   0  0  0  0  0  0  0  0  0  0  0  0
    5.0980    1.2400   20.0990 C   0  0  0  0  0  0  0  0  0  0  0  0
    4.5250    1.7850   18.9890 C   0  0  0  0  0  0  0  0  0  0  0  0
    5.1040    1.5020   17.7880 C   0  0  0  0  0  0  0  0  0  0  0  0
    6.1890    0.7180   17.5820 N   0  0  0  0  0  0  0  0  0  0  0  0
    6.8180    0.1220   18.7490 C   0  0  0  0  0  0  0  0  0  0  0  0
   10.7820   -1.1150   21.9920 C   0  0  0  0  0  0  0  0  0  0  0  0
   11.3260   -1.7940   23.1260 C   0  0  0  0  0  0  0  0  0  0  0  0
    9.6300   -3.8710   25.3230 N   0  0  0  0  0  0  0  0  0  0  0  0
   10.3620   -4.6730   26.2810 C   0  0  0  0  0  0  0  0  0  0  0  0
    9.6580   -5.6200   26.9990 C   0  0  0  0  0  0  0  0  0  0  0  0
   11.7070   -4.5630   26.5360 N   0  0  0  0  0  0  0  0  0  0  0  0
  1  2  1  0
  2  3  2  0
  3  4  1  0
  4  5  1  0
  5  6  1  0
  6  7  1  0
  7  8  1  0
  8  9  1  0
  9 10  1  0
 10 11  2  0
 10 12  1  0
 12 13  1  0
 13 14  2  0
 14 15  1  0
 15 16  2  0
 16 17  1  0
 13 18  1  0
 17 18  2  0
  8 19  1  0
  5 20  1  0
 19 20  1  0
  4 21  2  0
 21 22  1  0
 22 23  1  0
  2 24  1  0
 22 24  2  0
M  END
