pyridine_urea_8862
     RDKit          3D

 20 22  0  0  0  0  0  0  0  0999 V2000
    8.6730    1.1730   20.7860 O   0  0  0  0  0  0  0  0  0  0  0  0
    8.4840    0.0990   21.3550 C   0  0  0  0  0  0  0  0  0  0  0  0
    7.4000   -0.6610   21.0160 N   0  0  0  0  0  0  0  0  0  0  0  0
    6.6740   -0.0900   19.9010 C   0  0  0  0  0  0  0  0  0  0  0  0
    5.3100    0.5540   20.2280 C   0  0  0  0  0  0  0  0  0  0  0  0
    4.5440    1.1420   19.2190 C   0  0  0  0  0  0  0  0  0  0  0  0
    5.0560    1.1280   17.9260 C   0  0  0  0  0  0  0  0  0  0  0  0
    6.2720    0.5390   17.6790 N   0  0  0  0  0  0  0  0  0  0  0  0
    7.0900   -0.0770   18.6270 C   0  0  0  0  0  0  0  0  0  0  0  0
    9.2990   -0.3710   22.3390 N   0  0  0  0  0  0  0  0  0  0  0  0
   10.2410   -0.5090   23.2950 C   0  0  1  0  0  0  0  0  0  0  0  0
   11.2070   -1.4410   23.0320 C   0  0  0  0  0  0  0  0  0  0  0  0
   12.2320   -0.7550   22.6670 C   0  0  0  0  0  0  0  0  0  0  0  0
   11.9170    0.5340   23.0220 C   0  0  0  0  0  0  0  0  0  0  0  0
   13.0630    1.2170   22.8020 C   0  0  0  0  0  0  0  0  0  0  0  0
   14.1080    0.5400   22.3500 F   0  0  0  0  0  0  0  0  0  0  0  0
   13.1190    2.6140   23.0300 C   0  0  0  0  0  0  0  0  0  0  0  0
   12.0560    3.1910   23.5000 C   0  0  0  0  0  0  0  0  0  0  0  0
   10.9210    2.3640   23.7260 C   0  0  0  0  0  0  0  0  0  0  0  0
   10.5970    0.9940   23.5200 C   0  0  0  0  0  0  0  0  0  0  0  0
  1  2  2  0
  2  3  1  0
  3  4  1  0
  4  5  2  0
  5  6  1  0
  6  7  2  0
  7  8  1  0
  4  9  1  0
  8  9  2  0
  2 10  1  0
 11 10  1  6
 11 12  1  0
 12 13  1  0
 13 14  1  0
 14 15  1  0
 15 16  1  0
 15 17  2  0
 17 18  1  0
 18 19  2  0
 11 20  1  0
 14 20  2  0
 19 20  1  0
M  END
