pyridine_urea_8118
     RDKit          3D

 24 26  0  0  0  0  0  0  0  0999 V2000
    9.6930    0.3160   23.5240 C   0  0  0  0  0  0  0  0  0  0  0  0
   10.2670   -0.1810   22.2640 C   0  0  2  0  0  0  0  0  0  0  0  0
    9.4110   -1.2620   21.8410 N   0  0  0  0  0  0  0  0  0  0  0  0
    8.3270   -0.4150   21.3170 C   0  0  0  0  0  0  0  0  0  0  0  0
    8.5060    0.7850   21.1650 O   0  0  0  0  0  0  0  0  0  0  0  0
    7.0400   -1.0960   20.9870 N   0  0  0  0  0  0  0  0  0  0  0  0
    6.3690   -0.2660   19.9820 C   0  0  0  0  0  0  0  0  0  0  0  0
    5.0610    0.4890   20.2870 C   0  0  0  0  0  0  0  0  0  0  0  0
    4.4980    1.2700   19.2830 C   0  0  0  0  0  0  0  0  0  0  0  0
    5.1680    1.3690   17.9240 C   0  0  0  0  0  0  0  0  0  0  0  0
    6.3310    0.6680   17.7110 N   0  0  0  0  0  0  0  0  0  0  0  0
    6.9140   -0.1290   18.7140 C   0  0  0  0  0  0  0  0  0  0  0  0
   11.7420   -0.4780   22.5690 C   0  0  0  0  0  0  0  0  0  0  0  0
   12.4370   -1.7380   22.5240 C   0  0  0  0  0  0  0  0  0  0  0  0
   13.1940   -0.4720   22.9310 C   0  0  0  0  0  0  0  0  0  0  0  0
   11.7410    0.2000   22.6910 C   0  0  0  0  0  0  0  0  0  0  0  0
   11.5920    1.6280   22.8930 C   0  0  0  0  0  0  0  0  0  0  0  0
   12.0440    2.8830   23.2170 N   0  0  0  0  0  0  0  0  0  0  0  0
   12.7380    3.6590   22.3430 C   0  0  0  0  0  0  0  0  0  0  0  0
   12.6150    4.9520   22.8260 C   0  0  0  0  0  0  0  0  0  0  0  0
   11.5190    5.0090   23.6390 C   0  0  0  0  0  0  0  0  0  0  0  0
   11.0190    3.7010   23.6480 C   0  0  0  0  0  0  0  0  0  0  0  0
    9.8680    3.4410   23.9920 O   0  0  0  0  0  0  0  0  0  0  0  0
   12.6290    0.7940   22.9980 C   0  0  0  0  0  0  0  0  0  0  0  0
  2  1  1  1
  2  3  1  0
  3  4  1  0
  4  5  2  0
  4  6  1  0
  6  7  1  0
  7  8  2  0
  8  9  1  0
  9 10  2  0
 10 11  1  0
  7 12  1  0
 11 12  2  0
  2 13  1  0
 13 14  2  0
 14 15  1  0
 15 16  2  0
 16 17  1  0
 17 18  1  0
 18 19  1  0
 19 20  1  0
 20 21  1  0
 18 22  1  0
 21 22  1  0
 22 23  2  0
 13 24  1  0
 17 24  2  0
M  END
