pyridine_urea_10221
     RDKit          3D

 23 25  0  0  0  0  0  0  0  0999 V2000
    9.0110    1.1600   21.2590 O   0  0  0  0  0  0  0  0  0  0  0  0
    8.5240    0.0650   21.5750 C   0  0  0  0  0  0  0  0  0  0  0  0
    9.0680   -0.7810   22.5350 N   0  0  0  0  0  0  0  0  0  0  0  0
    8.5450   -2.0050   23.0190 C   0  0  0  0  0  0  0  0  0  0  0  0
    9.1890   -3.2220   22.8000 C   0  0  0  0  0  0  0  0  0  0  0  0
    8.4360   -4.3720   23.0040 N   0  0  0  0  0  0  0  0  0  0  0  0
    8.0510   -4.8560   24.3310 C   0  0  0  0  0  0  0  0  0  0  0  0
    8.9430   -5.6260   25.0270 C   0  0  0  0  0  0  0  0  0  0  0  0
    8.5870   -6.0620   26.2890 C   0  0  0  0  0  0  0  0  0  0  0  0
    7.2430   -5.7470   26.9770 C   0  0  0  0  0  0  0  0  0  0  0  0
    6.8420   -6.1560   28.2450 C   0  0  0  0  0  0  0  0  0  0  0  0
    5.6030   -5.7980   28.7390 C   0  0  0  0  0  0  0  0  0  0  0  0
    4.7350   -5.0300   27.9920 C   0  0  0  0  0  0  0  0  0  0  0  0
    5.0600   -4.5790   26.7120 C   0  0  0  0  0  0  0  0  0  0  0  0
    6.3950   -4.9390   26.1340 C   0  0  0  0  0  0  0  0  0  0  0  0
    6.7550   -4.5080   24.8850 N   0  0  0  0  0  0  0  0  0  0  0  0
    7.3690   -0.4750   21.0510 N   0  0  0  0  0  0  0  0  0  0  0  0
    6.6090    0.1080   20.0680 C   0  0  0  0  0  0  0  0  0  0  0  0
    5.4790    0.8440   20.4060 C   0  0  0  0  0  0  0  0  0  0  0  0
    4.7400    1.4370   19.3860 C   0  0  0  0  0  0  0  0  0  0  0  0
    5.1390    1.2870   18.0650 C   0  0  0  0  0  0  0  0  0  0  0  0
    6.2110    0.5850   17.6500 N   0  0  0  0  0  0  0  0  0  0  0  0
    6.9510   -0.0180   18.7460 C   0  0  0  0  0  0  0  0  0  0  0  0
  1  2  2  0
  2  3  1  0
  3  4  1  0
  4  5  1  0
  5  6  1  0
  6  7  1  0
  7  8  2  0
  8  9  1  0
  9 10  2  0
 10 11  1  0
 11 12  2  0
 12 13  1  0
 13 14  2  0
 10 15  1  0
 14 15  1  0
  7 16  1  0
 15 16  2  0
  2 17  1  0
 17 18  1  0
 18 19  2  0
 19 20  1  0
 20 21  2  0
 21 22  1  0
 18 23  1  0
 22 23  2  0
M  END
