pyridine_urea_6787
     RDKit          3D

 21 22  0  0  0  0  0  0  0  0999 V2000
    8.8530    0.7190   21.3040 O   0  0  0  0  0  0  0  0  0  0  0  0
    8.1950   -0.2790   21.5650 C   0  0  0  0  0  0  0  0  0  0  0  0
    7.0740   -0.7210   20.9240 N   0  0  0  0  0  0  0  0  0  0  0  0
    6.3470    0.0130   20.0010 C   0  0  0  0  0  0  0  0  0  0  0  0
    5.0370    0.7500   20.3130 C   0  0  0  0  0  0  0  0  0  0  0  0
    4.4490    1.4930   19.1210 C   0  0  0  0  0  0  0  0  0  0  0  0
    5.1940    1.4200   17.8270 C   0  0  0  0  0  0  0  0  0  0  0  0
    6.3380    0.7320   17.6740 N   0  0  0  0  0  0  0  0  0  0  0  0
    6.8600    0.0730   18.7220 C   0  0  0  0  0  0  0  0  0  0  0  0
    8.4770   -1.1310   22.5890 N   0  0  0  0  0  0  0  0  0  0  0  0
    9.8120   -1.4990   22.9010 C   0  0  1  0  0  0  0  0  0  0  0  0
   10.6800   -1.6850   21.8130 C   0  0  0  0  0  0  0  0  0  0  0  0
   12.0720   -1.6640   22.0700 C   0  0  0  0  0  0  0  0  0  0  0  0
   12.3030   -2.5400   22.8990 O   0  0  0  0  0  0  0  0  0  0  0  0
   10.7260   -0.3390   23.1740 C   0  0  0  0  0  0  0  0  0  0  0  0
   11.0840    0.8990   22.9130 C   0  0  0  0  0  0  0  0  0  0  0  0
   12.3030    1.0970   23.8480 C   0  0  0  0  0  0  0  0  0  0  0  0
   12.7060   -0.2410   24.8390 C   0  0  0  0  0  0  0  0  0  0  0  0
   11.8610   -1.1300   24.5340 C   0  0  0  0  0  0  0  0  0  0  0  0
   11.6660   -0.1070   23.8830 C   0  0  0  0  0  0  0  0  0  0  0  0
   12.6800   -0.0560   24.7410 F   0  0  0  0  0  0  0  0  0  0  0  0
  1  2  2  0
  2  3  1  0
  3  4  1  0
  4  5  2  0
  5  6  1  0
  6  7  2  0
  7  8  1  0
  4  9  1  0
  8  9  2  0
  2 10  1  0
 10 11  1  0
 11 12  1  6
 12 13  1  0
 13 14  1  0
 11 15  1  0
 15 16  2  0
 16 17  1  0
 17 18  2  0
 18 19  1  0
 15 20  1  0
 19 20  2  0
 20 21  1  0
M  END
