pyridine_urea_1019
     RDKit          3D

 22 23  0  0  0  0  0  0  0  0999 V2000
   14.1100   -2.6610   25.9450 N   0  0  0  0  0  0  0  0  0  0  0  0
   13.2560   -1.9300   25.1790 C   0  0  0  0  0  0  0  0  0  0  0  0
   12.9230   -0.5940   25.5410 O   0  0  0  0  0  0  0  0  0  0  0  0
   12.6810   -2.5960   23.9940 C   0  0  1  0  0  0  0  0  0  0  0  0
   11.2950   -2.6990   24.1310 C   0  0  0  0  0  0  0  0  0  0  0  0
   10.5500   -2.3920   22.9780 C   0  0  0  0  0  0  0  0  0  0  0  0
   11.2020   -1.6890   21.9650 C   0  0  0  0  0  0  0  0  0  0  0  0
   12.3860   -1.1390   22.2050 N   0  0  0  0  0  0  0  0  0  0  0  0
   12.4100    0.0300   22.8920 C   0  0  0  0  0  0  0  0  0  0  0  0
   11.0500    0.7240   22.9160 C   0  0  0  0  0  0  0  0  0  0  0  0
    9.8850   -0.0270   23.5340 C   0  0  0  0  0  0  0  0  0  0  0  0
    8.8310   -0.4740   22.7540 N   0  0  0  0  0  0  0  0  0  0  0  0
    8.2940    0.1340   21.5880 C   0  0  0  0  0  0  0  0  0  0  0  0
    8.7350    1.2000   21.1290 O   0  0  0  0  0  0  0  0  0  0  0  0
    7.2510   -0.5310   21.0320 N   0  0  0  0  0  0  0  0  0  0  0  0
    6.5590    0.0840   20.0520 C   0  0  0  0  0  0  0  0  0  0  0  0
    5.4260    0.8340   20.3550 C   0  0  0  0  0  0  0  0  0  0  0  0
    4.7250    1.4690   19.3440 C   0  0  0  0  0  0  0  0  0  0  0  0
    5.1940    1.3230   18.0500 C   0  0  0  0  0  0  0  0  0  0  0  0
    6.2810    0.5970   17.7280 N   0  0  0  0  0  0  0  0  0  0  0  0
    6.9390   -0.0070   18.7340 C   0  0  0  0  0  0  0  0  0  0  0  0
   13.1560   -2.0980   22.8040 C   0  0  0  0  0  0  0  0  0  0  0  0
  1  2  1  0
  2  3  2  0
  4  2  1  1
  4  5  1  0
  5  6  1  0
  6  7  1  0
  7  8  1  0
  8  9  1  0
  9 10  1  0
 10 11  1  0
 11 12  1  0
 12 13  1  0
 13 14  2  0
 13 15  1  0
 15 16  1  0
 16 17  2  0
 17 18  1  0
 18 19  2  0
 19 20  1  0
 16 21  1  0
 20 21  2  0
  4 22  1  0
  8 22  1  0
M  END
