pyridine_urea_971
     RDKit          3D

 22 24  0  0  0  0  0  0  0  0999 V2000
   13.8810   -3.2190   25.7090 C   0  0  0  0  0  0  0  0  0  0  0  0
   12.7440   -2.7600   24.9550 C   0  0  0  0  0  0  0  0  0  0  0  0
   11.5740   -3.3110   24.4840 C   0  0  0  0  0  0  0  0  0  0  0  0
   10.8050   -2.4050   23.8100 C   0  0  0  0  0  0  0  0  0  0  0  0
   11.4360   -1.1780   23.8110 C   0  0  0  0  0  0  0  0  0  0  0  0
   11.1170    0.1030   23.3250 C   0  0  0  0  0  0  0  0  0  0  0  0
   12.3900    0.8780   23.3600 C   0  0  0  0  0  0  0  0  0  0  0  0
   12.3450    2.2900   22.9700 C   0  0  0  0  0  0  0  0  0  0  0  0
   11.1110    2.7680   22.6040 C   0  0  0  0  0  0  0  0  0  0  0  0
    9.9430    1.9690   22.5730 C   0  0  0  0  0  0  0  0  0  0  0  0
    9.9320    0.6370   22.9220 C   0  0  0  0  0  0  0  0  0  0  0  0
    8.7480   -0.1330   22.8660 N   0  0  0  0  0  0  0  0  0  0  0  0
    8.2490   -0.5370   21.6550 C   0  0  0  0  0  0  0  0  0  0  0  0
    8.9410   -0.9950   20.8110 O   0  0  0  0  0  0  0  0  0  0  0  0
    6.9060   -0.3430   21.4600 N   0  0  0  0  0  0  0  0  0  0  0  0
    6.3520    0.1800   20.2670 C   0  0  0  0  0  0  0  0  0  0  0  0
    5.1740    0.9190   20.3640 C   0  0  0  0  0  0  0  0  0  0  0  0
    4.6260    1.4480   19.2000 C   0  0  0  0  0  0  0  0  0  0  0  0
    5.2370    1.2440   17.9750 C   0  0  0  0  0  0  0  0  0  0  0  0
    6.3650    0.5340   17.8480 N   0  0  0  0  0  0  0  0  0  0  0  0
    6.8950    0.0150   18.9860 C   0  0  0  0  0  0  0  0  0  0  0  0
   12.9210   -1.0970   24.5770 S   0  0  0  0  0  0  0  0  0  0  0  0
  1  2  1  0
  2  3  2  0
  3  4  1  0
  4  5  2  0
  5  6  1  0
  6  7  2  0
  7  8  1  0
  8  9  2  0
  9 10  1  0
  6 11  1  0
 10 11  2  0
 11 12  1  0
 12 13  1  0
 13 14  2  0
 13 15  1  0
 15 16  1  0
 16 17  2  0
 17 18  1  0
 18 19  2  0
 19 20  1  0
 16 21  1  0
 20 21  2  0
  2 22  1  0
  5 22  1  0
M  END
