pyridine_urea_2014
     RDKit          3D

 20 22  0  0  0  0  0  0  0  0999 V2000
   13.4230   -1.9150   20.8490 C   0  0  0  0  0  0  0  0  0  0  0  0
   13.0420   -1.0530   22.0050 C   0  0  0  0  0  0  0  0  0  0  0  0
   13.7620    0.1280   22.4540 N   0  0  0  0  0  0  0  0  0  0  0  0
   12.9650    0.5250   23.4960 N   0  0  0  0  0  0  0  0  0  0  0  0
   12.0630   -0.4690   23.3700 C   0  0  0  0  0  0  0  0  0  0  0  0
   10.8280   -0.8390   24.0370 C   0  0  1  0  0  0  0  0  0  0  0  0
    9.7070   -0.2240   23.3980 C   0  0  0  0  0  0  0  0  0  0  0  0
    9.1610   -1.3500   22.8600 C   0  0  1  0  0  0  0  0  0  0  0  0
    8.9760   -1.0660   21.4910 N   0  0  0  0  0  0  0  0  0  0  0  0
    8.1410    0.0370   21.2120 C   0  0  0  0  0  0  0  0  0  0  0  0
    8.6070    1.1620   20.9910 O   0  0  0  0  0  0  0  0  0  0  0  0
    6.7790   -0.2990   21.2210 N   0  0  0  0  0  0  0  0  0  0  0  0
    6.2930    0.2580   19.9700 C   0  0  0  0  0  0  0  0  0  0  0  0
    5.1540    1.0090   20.1390 C   0  0  0  0  0  0  0  0  0  0  0  0
    4.5990    1.6130   19.0430 C   0  0  0  0  0  0  0  0  0  0  0  0
    5.1750    1.4740   17.7790 C   0  0  0  0  0  0  0  0  0  0  0  0
    6.2920    0.7270   17.6230 N   0  0  0  0  0  0  0  0  0  0  0  0
    6.8280    0.1330   18.7110 C   0  0  0  0  0  0  0  0  0  0  0  0
   10.4220   -2.1460   23.3920 C   0  0  0  0  0  0  0  0  0  0  0  0
   12.0880   -1.3430   22.5720 O   0  0  0  0  0  0  0  0  0  0  0  0
  1  2  1  0
  2  3  2  0
  3  4  1  0
  4  5  2  0
  6  5  1  6
  6  7  1  0
  7  8  1  0
  8  9  1  6
  9 10  1  0
 10 11  2  0
 10 12  1  0
 12 13  1  0
 13 14  2  0
 14 15  1  0
 15 16  2  0
 16 17  1  0
 13 18  1  0
 17 18  2  0
  6 19  1  0
  8 19  1  0
  2 20  1  0
  5 20  1  0
M  END
