pyridine_urea_11883
     RDKit          3D

 25 27  0  0  0  0  0  0  0  0999 V2000
    8.6570    0.5830   21.1440 O   0  0  0  0  0  0  0  0  0  0  0  0
    8.3380   -0.5400   21.4850 C   0  0  0  0  0  0  0  0  0  0  0  0
    7.1480   -1.0650   21.0640 N   0  0  0  0  0  0  0  0  0  0  0  0
    6.4650   -0.3250   20.0650 C   0  0  0  0  0  0  0  0  0  0  0  0
    5.2590    0.3340   20.3620 C   0  0  0  0  0  0  0  0  0  0  0  0
    4.6040    1.0780   19.3700 C   0  0  0  0  0  0  0  0  0  0  0  0
    5.1740    1.1440   18.1110 C   0  0  0  0  0  0  0  0  0  0  0  0
    6.3230    0.5190   17.8050 N   0  0  0  0  0  0  0  0  0  0  0  0
    6.9360   -0.1950   18.7740 C   0  0  0  0  0  0  0  0  0  0  0  0
    9.1970   -1.2640   22.3110 N   0  0  0  0  0  0  0  0  0  0  0  0
   10.2460   -0.2710   22.5540 C   0  0  0  0  0  0  0  0  0  0  0  0
    9.8140    1.0360   22.7590 C   0  0  0  0  0  0  0  0  0  0  0  0
   10.9100    1.7720   22.8950 N   0  0  0  0  0  0  0  0  0  0  0  0
   12.1860    1.1400   22.8230 N   0  0  0  0  0  0  0  0  0  0  0  0
   12.1970    2.5460   22.9960 C   0  0  0  0  0  0  0  0  0  0  0  0
   13.2820    3.3790   22.7640 C   0  0  0  0  0  0  0  0  0  0  0  0
   13.2290    4.7550   22.9300 C   0  0  0  0  0  0  0  0  0  0  0  0
   12.1260    5.4720   23.3410 C   0  0  0  0  0  0  0  0  0  0  0  0
   10.9570    4.7650   23.6120 C   0  0  0  0  0  0  0  0  0  0  0  0
    9.7320    5.2900   24.0470 C   0  0  0  0  0  0  0  0  0  0  0  0
    8.8670    4.4510   24.6670 F   0  0  0  0  0  0  0  0  0  0  0  0
    9.8240    6.3340   24.9170 F   0  0  0  0  0  0  0  0  0  0  0  0
    9.0320    5.7950   23.0020 F   0  0  0  0  0  0  0  0  0  0  0  0
   11.0140    3.2290   23.4170 C   0  0  0  0  0  0  0  0  0  0  0  0
   11.7300   -0.2310   22.6310 C   0  0  0  0  0  0  0  0  0  0  0  0
  1  2  2  0
  2  3  1  0
  3  4  1  0
  4  5  2  0
  5  6  1  0
  6  7  2  0
  7  8  1  0
  4  9  1  0
  8  9  2  0
  2 10  1  0
 10 11  1  0
 11 12  1  0
 12 13  2  0
 13 14  1  0
 14 15  1  0
 15 16  2  0
 16 17  1  0
 17 18  2  0
 18 19  1  0
 19 20  1  0
 20 21  1  0
 20 22  1  0
 20 23  1  0
 15 24  1  0
 19 24  2  0
 11 25  2  0
 14 25  1  0
M  END
