pyridine_urea_10761
     RDKit          3D

 20 22  0  0  0  0  0  0  0  0999 V2000
    9.0310    0.8220   21.7400 O   0  0  0  0  0  0  0  0  0  0  0  0
    8.4130   -0.1660   21.3700 C   0  0  0  0  0  0  0  0  0  0  0  0
    9.0520   -1.3900   20.9740 N   0  0  0  0  0  0  0  0  0  0  0  0
   10.0380   -2.0420   21.6910 C   0  0  0  0  0  0  0  0  0  0  0  0
   11.3670   -1.6880   21.4990 C   0  0  0  0  0  0  0  0  0  0  0  0
   12.6840   -1.2380   21.7800 C   0  0  0  0  0  0  0  0  0  0  0  0
   13.2740   -0.8260   22.9260 C   0  0  0  0  0  0  0  0  0  0  0  0
   12.6820   -0.7790   24.2070 C   0  0  0  0  0  0  0  0  0  0  0  0
   11.3030   -1.2470   24.0030 C   0  0  0  0  0  0  0  0  0  0  0  0
   10.4270   -1.3430   25.0370 N   0  0  0  0  0  0  0  0  0  0  0  0
    8.9950   -1.8900   24.3260 S   0  0  0  0  0  0  0  0  0  0  0  0
    9.4930   -2.0250   22.7670 N   0  0  0  0  0  0  0  0  0  0  0  0
   10.7920   -1.6370   22.7200 C   0  0  0  0  0  0  0  0  0  0  0  0
    7.0610   -0.3070   21.2050 N   0  0  0  0  0  0  0  0  0  0  0  0
    6.3590    0.2650   20.1410 C   0  0  0  0  0  0  0  0  0  0  0  0
    5.1700    0.9900   20.2750 C   0  0  0  0  0  0  0  0  0  0  0  0
    4.5900    1.5200   19.1310 C   0  0  0  0  0  0  0  0  0  0  0  0
    5.2080    1.3100   17.9310 C   0  0  0  0  0  0  0  0  0  0  0  0
    6.3360    0.6240   17.7470 N   0  0  0  0  0  0  0  0  0  0  0  0
    6.8910    0.1080   18.8600 C   0  0  0  0  0  0  0  0  0  0  0  0
  1  2  2  0
  2  3  1  0
  3  4  1  0
  4  5  1  0
  5  6  2  0
  6  7  1  0
  7  8  2  0
  8  9  1  0
  9 10  2  0
 10 11  1  0
 11 12  1  0
  5 13  1  0
  9 13  1  0
 12 13  2  0
  2 14  1  0
 14 15  1  0
 15 16  2  0
 16 17  1  0
 17 18  2  0
 18 19  1  0
 15 20  1  0
 19 20  2  0
M  END
