pyridine_urea_13036
     RDKit          3D

 21 22  0  0  0  0  0  0  0  0999 V2000
    8.9910    1.2160   21.2400 O   0  0  0  0  0  0  0  0  0  0  0  0
    8.5250    0.1150   21.5750 C   0  0  0  0  0  0  0  0  0  0  0  0
    9.0130   -0.7060   22.5660 N   0  0  0  0  0  0  0  0  0  0  0  0
    8.3650   -1.8320   23.1290 C   0  0  0  0  0  0  0  0  0  0  0  0
    7.1400   -1.5950   23.7650 C   0  0  0  0  0  0  0  0  0  0  0  0
    6.9340   -2.3630   24.9130 C   0  0  0  0  0  0  0  0  0  0  0  0
    5.6030   -2.4360   25.3030 C   0  0  0  0  0  0  0  0  0  0  0  0
    4.9270   -3.5640   24.9880 N   0  0  0  0  0  0  0  0  0  0  0  0
    5.3900   -4.2590   23.9190 C   0  0  0  0  0  0  0  0  0  0  0  0
    4.9260   -4.1780   22.6180 C   0  0  0  0  0  0  0  0  0  0  0  0
    5.5890   -5.0430   21.5470 C   0  0  0  0  0  0  0  0  0  0  0  0
    6.6360   -5.8730   21.9390 C   0  0  0  0  0  0  0  0  0  0  0  0
    7.0400   -5.8930   23.2690 C   0  0  0  0  0  0  0  0  0  0  0  0
    6.4900   -5.1550   24.2660 N   0  0  0  0  0  0  0  0  0  0  0  0
    7.4020   -0.4320   20.9890 N   0  0  0  0  0  0  0  0  0  0  0  0
    6.6260    0.1400   20.0420 C   0  0  0  0  0  0  0  0  0  0  0  0
    5.4800    0.8700   20.3750 C   0  0  0  0  0  0  0  0  0  0  0  0
    4.7250    1.4490   19.3570 C   0  0  0  0  0  0  0  0  0  0  0  0
    5.1540    1.2700   18.0530 C   0  0  0  0  0  0  0  0  0  0  0  0
    6.2490    0.5650   17.7110 N   0  0  0  0  0  0  0  0  0  0  0  0
    6.9650    0.0100   18.7060 C   0  0  0  0  0  0  0  0  0  0  0  0
  1  2  2  0
  2  3  1  0
  3  4  1  0
  4  5  1  0
  5  6  1  0
  6  7  1  0
  7  8  1  0
  8  9  1  0
  9 10  2  0
 10 11  1  0
 11 12  2  0
 12 13  1  0
  9 14  1  0
 13 14  2  0
  2 15  1  0
 15 16  1  0
 16 17  2  0
 17 18  1  0
 18 19  2  0
 19 20  1  0
 16 21  1  0
 20 21  2  0
M  END
