pyridine_urea_6665
     RDKit          3D

 22 23  0  0  0  0  0  0  0  0999 V2000
   10.5990    0.4430   23.7230 C   0  0  0  0  0  0  0  0  0  0  0  0
   10.3300   -0.2290   22.3590 C   0  0  2  0  0  0  0  0  0  0  0  0
    8.9460   -0.6120   22.3270 N   0  0  0  0  0  0  0  0  0  0  0  0
    8.2450    0.1510   21.4580 C   0  0  0  0  0  0  0  0  0  0  0  0
    8.6620    1.2660   21.1040 O   0  0  0  0  0  0  0  0  0  0  0  0
    7.0930   -0.4440   21.0460 N   0  0  0  0  0  0  0  0  0  0  0  0
    6.4540    0.1430   19.9750 C   0  0  0  0  0  0  0  0  0  0  0  0
    5.1870    0.9020   20.1720 C   0  0  0  0  0  0  0  0  0  0  0  0
    4.5620    1.5230   19.1130 C   0  0  0  0  0  0  0  0  0  0  0  0
    5.1010    1.4590   17.8200 C   0  0  0  0  0  0  0  0  0  0  0  0
    6.3200    0.7020   17.6650 N   0  0  0  0  0  0  0  0  0  0  0  0
    6.9300    0.0920   18.7060 C   0  0  0  0  0  0  0  0  0  0  0  0
   11.2260   -1.4270   21.8840 C   0  0  2  0  0  0  0  0  0  0  0  0
   10.5450   -2.4340   21.7630 O   0  0  0  0  0  0  0  0  0  0  0  0
   12.0430   -1.6330   22.8790 C   0  0  0  0  0  0  0  0  0  0  0  0
   12.7180   -2.7270   23.0330 C   0  0  0  0  0  0  0  0  0  0  0  0
   13.4700   -2.8800   24.1590 C   0  0  0  0  0  0  0  0  0  0  0  0
   13.4640   -1.7140   25.1290 C   0  0  0  0  0  0  0  0  0  0  0  0
   14.1860   -2.0280   26.2040 F   0  0  0  0  0  0  0  0  0  0  0  0
   12.8190   -0.4190   25.0220 C   0  0  0  0  0  0  0  0  0  0  0  0
   12.0970    0.6040   24.5600 F   0  0  0  0  0  0  0  0  0  0  0  0
   12.2650   -0.7820   23.8680 C   0  0  0  0  0  0  0  0  0  0  0  0
  2  1  1  1
  2  3  1  0
  3  4  1  0
  4  5  2  0
  4  6  1  0
  6  7  1  0
  7  8  2  0
  8  9  1  0
  9 10  2  0
 10 11  1  0
  7 12  1  0
 11 12  2  0
  2 13  1  0
 13 14  1  1
 13 15  1  0
 15 16  2  0
 16 17  1  0
 17 18  2  0
 18 19  1  0
 18 20  1  0
 20 21  1  0
 15 22  1  0
 20 22  2  0
M  END
