pyridine_urea_681
     RDKit          3D

 24 26  0  0  0  0  0  0  0  0999 V2000
   13.7270   -3.0210   24.8290 C   0  0  0  0  0  0  0  0  0  0  0  0
   12.6930   -2.2670   24.1400 C   0  0  0  0  0  0  0  0  0  0  0  0
   11.4220   -2.7160   24.0220 C   0  0  0  0  0  0  0  0  0  0  0  0
   10.5280   -1.9360   23.3830 C   0  0  0  0  0  0  0  0  0  0  0  0
   10.9650   -0.7210   22.8900 C   0  0  0  0  0  0  0  0  0  0  0  0
   10.0240    0.0300   22.3540 C   0  0  1  0  0  0  0  0  0  0  0  0
    9.1230   -0.7320   21.5660 N   0  0  0  0  0  0  0  0  0  0  0  0
    8.1230    0.0300   21.1230 C   0  0  0  0  0  0  0  0  0  0  0  0
    8.2660    1.2260   20.8350 O   0  0  0  0  0  0  0  0  0  0  0  0
    6.8360   -0.6590   21.0090 N   0  0  0  0  0  0  0  0  0  0  0  0
    6.2530    0.0460   19.9150 C   0  0  0  0  0  0  0  0  0  0  0  0
    5.0560    0.7310   20.1240 C   0  0  0  0  0  0  0  0  0  0  0  0
    4.4920    1.4460   19.0660 C   0  0  0  0  0  0  0  0  0  0  0  0
    5.1320    1.4610   17.8310 C   0  0  0  0  0  0  0  0  0  0  0  0
    6.2760    0.8180   17.5690 N   0  0  0  0  0  0  0  0  0  0  0  0
    6.8310    0.0860   18.6830 C   0  0  0  0  0  0  0  0  0  0  0  0
    9.4110    0.2200   23.6520 C   0  0  0  0  0  0  0  0  0  0  0  0
    8.2760    0.6220   24.2100 C   0  0  0  0  0  0  0  0  0  0  0  0
    8.5210    0.4490   25.6480 C   0  0  0  0  0  0  0  0  0  0  0  0
    9.8230   -0.0700   26.2080 C   0  0  0  0  0  0  0  0  0  0  0  0
   10.9540   -0.4410   25.3600 C   0  0  0  0  0  0  0  0  0  0  0  0
    9.9140   -0.0210   24.8180 C   0  0  0  0  0  0  0  0  0  0  0  0
   12.2640   -0.2770   22.9890 C   0  0  0  0  0  0  0  0  0  0  0  0
   13.1570   -1.0700   23.6350 C   0  0  0  0  0  0  0  0  0  0  0  0
  1  2  1  0
  2  3  2  0
  3  4  1  0
  4  5  2  0
  5  6  1  0
  6  7  1  6
  7  8  1  0
  8  9  2  0
  8 10  1  0
 10 11  1  0
 11 12  2  0
 12 13  1  0
 13 14  2  0
 14 15  1  0
 11 16  1  0
 15 16  2  0
  6 17  1  0
 17 18  2  0
 18 19  1  0
 19 20  2  0
 20 21  1  0
 17 22  1  0
 21 22  2  0
  5 23  1  0
  2 24  1  0
 23 24  2  0
M  END
