pyridine_urea_393
     RDKit          3D

 26 28  0  0  0  0  0  0  0  0999 V2000
    9.9000    4.7140   24.3180 C   0  0  0  0  0  0  0  0  0  0  0  0
    9.9370    3.2270   24.0130 C   0  0  0  0  0  0  0  0  0  0  0  0
    9.0060    2.3740   24.6000 C   0  0  0  0  0  0  0  0  0  0  0  0
    8.9850    0.9960   24.3580 C   0  0  0  0  0  0  0  0  0  0  0  0
    9.9210    0.4170   23.4980 C   0  0  0  0  0  0  0  0  0  0  0  0
    9.8680   -0.9960   23.2620 C   0  0  2  0  0  0  0  0  0  0  0  0
   10.9660   -1.6980   22.3800 C   0  0  0  0  0  0  0  0  0  0  0  0
   12.1830   -1.0690   22.3220 C   0  0  0  0  0  0  0  0  0  0  0  0
   13.3860   -0.2300   22.3630 C   0  0  0  0  0  0  0  0  0  0  0  0
   13.1300    0.9930   22.9900 C   0  0  0  0  0  0  0  0  0  0  0  0
   12.0510    1.5300   23.5640 C   0  0  0  0  0  0  0  0  0  0  0  0
   10.9400    0.7440   23.5550 C   0  0  0  0  0  0  0  0  0  0  0  0
   11.0820   -0.4430   22.9530 C   0  0  0  0  0  0  0  0  0  0  0  0
    8.6300   -1.1840   22.5160 N   0  0  0  0  0  0  0  0  0  0  0  0
    8.2360   -0.2730   21.5680 C   0  0  0  0  0  0  0  0  0  0  0  0
    8.8480    0.7540   21.3170 O   0  0  0  0  0  0  0  0  0  0  0  0
    7.0720   -0.6970   20.9830 N   0  0  0  0  0  0  0  0  0  0  0  0
    6.3720    0.0170   20.0120 C   0  0  0  0  0  0  0  0  0  0  0  0
    5.1830    0.7110   20.2090 C   0  0  0  0  0  0  0  0  0  0  0  0
    4.5910    1.3950   19.1510 C   0  0  0  0  0  0  0  0  0  0  0  0
    5.2180    1.3610   17.9230 C   0  0  0  0  0  0  0  0  0  0  0  0
    6.3640    0.6940   17.7050 N   0  0  0  0  0  0  0  0  0  0  0  0
    6.9060    0.0430   18.7450 C   0  0  0  0  0  0  0  0  0  0  0  0
   10.8770    1.2860   22.9010 C   0  0  0  0  0  0  0  0  0  0  0  0
   10.8970    2.6860   23.1440 C   0  0  0  0  0  0  0  0  0  0  0  0
   11.9330    3.5710   22.4750 C   0  0  0  0  0  0  0  0  0  0  0  0
  1  2  1  0
  2  3  2  0
  3  4  1  0
  4  5  2  0
  5  6  1  0
  6  7  1  6
  7  8  1  0
  8  9  2  0
  9 10  1  0
 10 11  2  0
 11 12  1  0
  8 13  1  0
 12 13  2  0
  6 14  1  0
 14 15  1  0
 15 16  2  0
 15 17  1  0
 17 18  1  0
 18 19  2  0
 19 20  1  0
 20 21  2  0
 21 22  1  0
 18 23  1  0
 22 23  2  0
  5 24  1  0
  2 25  1  0
 24 25  2  0
 25 26  1  0
M  END
