pyridine_urea_9247
     RDKit          3D

 18 19  0  0  0  0  0  0  0  0999 V2000
    8.9180    1.2850   21.2180 O   0  0  0  0  0  0  0  0  0  0  0  0
    8.4200    0.2050   21.5720 C   0  0  0  0  0  0  0  0  0  0  0  0
    8.9320   -0.6740   22.4840 N   0  0  0  0  0  0  0  0  0  0  0  0
    8.9770   -2.0620   22.3090 C   0  0  0  0  0  0  0  0  0  0  0  0
    9.7420   -2.7750   23.2120 C   0  0  0  0  0  0  0  0  0  0  0  0
    8.9150   -3.7240   23.9040 O   0  0  0  0  0  0  0  0  0  0  0  0
   11.0860   -2.5280   23.3190 N   0  0  0  0  0  0  0  0  0  0  0  0
   11.8520   -2.3930   24.4830 C   0  0  0  0  0  0  0  0  0  0  0  0
   13.0660   -1.9330   24.0460 C   0  0  0  0  0  0  0  0  0  0  0  0
   13.0260   -1.7560   22.6620 C   0  0  0  0  0  0  0  0  0  0  0  0
   11.7010   -1.9190   22.2580 C   0  0  0  0  0  0  0  0  0  0  0  0
    7.2280   -0.2650   21.0780 N   0  0  0  0  0  0  0  0  0  0  0  0
    6.5480    0.2420   20.0370 C   0  0  0  0  0  0  0  0  0  0  0  0
    5.4110    0.9870   20.2850 C   0  0  0  0  0  0  0  0  0  0  0  0
    4.7000    1.5460   19.2240 C   0  0  0  0  0  0  0  0  0  0  0  0
    5.1600    1.3370   17.9360 C   0  0  0  0  0  0  0  0  0  0  0  0
    6.2540    0.6080   17.6850 N   0  0  0  0  0  0  0  0  0  0  0  0
    6.9190    0.0780   18.7240 C   0  0  0  0  0  0  0  0  0  0  0  0
  1  2  2  0
  2  3  1  0
  3  4  1  0
  4  5  1  0
  5  6  2  0
  5  7  1  0
  7  8  1  0
  8  9  1  0
  9 10  1  0
  7 11  1  0
 10 11  1  0
  2 12  1  0
 12 13  1  0
 13 14  2  0
 14 15  1  0
 15 16  2  0
 16 17  1  0
 13 18  1  0
 17 18  2  0
M  END
