pyridine_urea_9819
     RDKit          3D

 25 26  0  0  0  0  0  0  0  0999 V2000
    7.0220    0.8680   25.3920 C   0  0  0  0  0  0  0  0  0  0  0  0
    7.7520   -0.4330   25.7380 C   0  0  0  0  0  0  0  0  0  0  0  0
    6.9500   -1.1960   26.7930 C   0  0  0  0  0  0  0  0  0  0  0  0
    9.1910   -0.1330   26.1560 C   0  0  0  0  0  0  0  0  0  0  0  0
    7.8110   -1.0770   24.4820 O   0  0  0  0  0  0  0  0  0  0  0  0
    8.6180   -0.3010   23.6120 C   0  0  0  0  0  0  0  0  0  0  0  0
    8.5210    0.8910   23.3520 O   0  0  0  0  0  0  0  0  0  0  0  0
    9.7140   -1.1160   22.9830 C   0  0  2  0  0  0  0  0  0  0  0  0
   11.0140   -0.3890   23.2550 C   0  0  0  0  0  0  0  0  0  0  0  0
   11.9960   -1.1940   22.7590 C   0  0  0  0  0  0  0  0  0  0  0  0
   12.2740    0.0620   22.9830 C   0  0  0  0  0  0  0  0  0  0  0  0
   11.4360    1.0020   23.4830 C   0  0  0  0  0  0  0  0  0  0  0  0
   12.4060    1.9190   23.3760 N   0  0  0  0  0  0  0  0  0  0  0  0
   13.3970    0.9100   22.8220 C   0  0  0  0  0  0  0  0  0  0  0  0
   13.2430   -0.5390   22.5240 C   0  0  0  0  0  0  0  0  0  0  0  0
    9.4470   -1.2730   21.6460 N   0  0  0  0  0  0  0  0  0  0  0  0
    8.4620   -0.3140   21.2990 C   0  0  0  0  0  0  0  0  0  0  0  0
    8.7560    0.8730   21.2520 O   0  0  0  0  0  0  0  0  0  0  0  0
    7.2230   -0.7950   21.0100 N   0  0  0  0  0  0  0  0  0  0  0  0
    6.5090   -0.0900   20.0860 C   0  0  0  0  0  0  0  0  0  0  0  0
    5.2540    0.6860   20.3350 C   0  0  0  0  0  0  0  0  0  0  0  0
    4.6540    1.3600   19.2700 C   0  0  0  0  0  0  0  0  0  0  0  0
    5.2440    1.2840   18.0240 C   0  0  0  0  0  0  0  0  0  0  0  0
    6.3700    0.5910   17.7710 N   0  0  0  0  0  0  0  0  0  0  0  0
    6.9670   -0.0710   18.7860 C   0  0  0  0  0  0  0  0  0  0  0  0
  1  2  1  0
  2  3  1  0
  2  4  1  0
  2  5  1  0
  5  6  1  0
  6  7  2  0
  6  8  1  0
  8  9  1  6
  9 10  1  0
 10 11  2  0
 11 12  1  0
 12 13  2  0
 13 14  1  0
 10 15  1  0
 14 15  2  0
  8 16  1  0
 16 17  1  0
 17 18  2  0
 17 19  1  0
 19 20  1  0
 20 21  2  0
 21 22  1  0
 22 23  2  0
 23 24  1  0
 20 25  1  0
 24 25  2  0
M  END
