pyridine_urea_13525
     RDKit          3D

 19 19  0  0  0  0  0  0  0  0999 V2000
   13.2400    5.9480   22.5060 C   0  0  0  0  0  0  0  0  0  0  0  0
   11.8320    5.9290   22.2790 O   0  0  0  0  0  0  0  0  0  0  0  0
   11.1600    4.9300   22.9340 C   0  0  0  0  0  0  0  0  0  0  0  0
   11.8410    3.5530   22.7910 C   0  0  0  0  0  0  0  0  0  0  0  0
   12.8420    3.5510   22.0840 O   0  0  0  0  0  0  0  0  0  0  0  0
   11.2130    2.3770   23.5140 N   0  0  0  0  0  0  0  0  0  0  0  0
   11.8040    1.1290   23.5680 C   0  0  0  0  0  0  0  0  0  0  0  0
   10.7000    0.1450   23.8400 C   0  0  0  0  0  0  0  0  0  0  0  0
   10.3530   -0.7910   22.8820 C   0  0  0  0  0  0  0  0  0  0  0  0
    8.9350   -0.7810   22.5630 N   0  0  0  0  0  0  0  0  0  0  0  0
    8.4110    0.0180   21.5700 C   0  0  0  0  0  0  0  0  0  0  0  0
    8.9680    1.2200   21.2000 O   0  0  0  0  0  0  0  0  0  0  0  0
    7.2130   -0.5800   21.0310 N   0  0  0  0  0  0  0  0  0  0  0  0
    6.5290    0.0380   20.0220 C   0  0  0  0  0  0  0  0  0  0  0  0
    5.3750    0.7580   20.3270 C   0  0  0  0  0  0  0  0  0  0  0  0
    4.6790    1.3980   19.3120 C   0  0  0  0  0  0  0  0  0  0  0  0
    5.1630    1.3010   18.0050 C   0  0  0  0  0  0  0  0  0  0  0  0
    6.2670    0.6070   17.6960 N   0  0  0  0  0  0  0  0  0  0  0  0
    6.9210   -0.0050   18.7050 C   0  0  0  0  0  0  0  0  0  0  0  0
  1  2  1  0
  2  3  1  0
  3  4  1  0
  4  5  2  0
  4  6  1  0
  6  7  1  0
  7  8  1  0
  8  9  1  0
  9 10  1  0
 10 11  1  0
 11 12  2  0
 11 13  1  0
 13 14  1  0
 14 15  2  0
 15 16  1  0
 16 17  2  0
 17 18  1  0
 14 19  1  0
 18 19  2  0
M  END
