pyridine_urea_11134
     RDKit          3D

 18 19  0  0  0  0  0  0  0  0999 V2000
    8.8850    1.2620   21.1820 O   0  0  0  0  0  0  0  0  0  0  0  0
    8.4950    0.1640   21.6030 C   0  0  0  0  0  0  0  0  0  0  0  0
    7.3790   -0.5050   21.1220 N   0  0  0  0  0  0  0  0  0  0  0  0
    6.6340    0.0940   20.0350 C   0  0  0  0  0  0  0  0  0  0  0  0
    5.3770    0.8680   20.4220 C   0  0  0  0  0  0  0  0  0  0  0  0
    4.6510    1.4800   19.2740 C   0  0  0  0  0  0  0  0  0  0  0  0
    5.1590    1.3020   18.0040 C   0  0  0  0  0  0  0  0  0  0  0  0
    6.2710    0.6020   17.7140 N   0  0  0  0  0  0  0  0  0  0  0  0
    6.9700    0.0230   18.7110 C   0  0  0  0  0  0  0  0  0  0  0  0
    9.1320   -0.5390   22.6140 N   0  0  0  0  0  0  0  0  0  0  0  0
   10.5990   -0.7820   22.5290 C   0  0  1  0  0  0  0  0  0  0  0  0
   11.2040   -0.0360   23.4410 C   0  0  0  0  0  0  0  0  0  0  0  0
   12.4190   -0.3550   22.9550 C   0  0  0  0  0  0  0  0  0  0  0  0
   12.1850    1.0580   23.1870 C   0  0  0  0  0  0  0  0  0  0  0  0
   11.0360   -2.0760   22.6460 C   0  0  0  0  0  0  0  0  0  0  0  0
   11.9770   -2.3900   21.7330 F   0  0  0  0  0  0  0  0  0  0  0  0
   10.0010   -2.9300   22.5270 F   0  0  0  0  0  0  0  0  0  0  0  0
   11.5770   -2.3240   23.8740 F   0  0  0  0  0  0  0  0  0  0  0  0
  1  2  2  0
  2  3  1  0
  3  4  1  0
  4  5  2  0
  5  6  1  0
  6  7  2  0
  7  8  1  0
  4  9  1  0
  8  9  2  0
  2 10  1  0
 11 10  1  1
 11 12  1  0
 12 13  1  0
 12 14  1  0
 13 14  1  0
 11 15  1  0
 15 16  1  0
 15 17  1  0
 15 18  1  0
M  END
