pyridine_urea_8056
     RDKit          3D

 24 26  0  0  0  0  0  0  0  0999 V2000
    8.5420    0.8380   21.1330 O   0  0  0  0  0  0  0  0  0  0  0  0
    8.2690   -0.2940   21.4990 C   0  0  0  0  0  0  0  0  0  0  0  0
    7.0950   -0.8840   21.0960 N   0  0  0  0  0  0  0  0  0  0  0  0
    6.4220   -0.1420   20.0460 C   0  0  0  0  0  0  0  0  0  0  0  0
    5.0960    0.6230   20.3570 C   0  0  0  0  0  0  0  0  0  0  0  0
    4.5050    1.3300   19.3140 C   0  0  0  0  0  0  0  0  0  0  0  0
    5.2200    1.2880   17.9570 C   0  0  0  0  0  0  0  0  0  0  0  0
    6.3640    0.6050   17.7450 N   0  0  0  0  0  0  0  0  0  0  0  0
    6.9280   -0.0800   18.7640 C   0  0  0  0  0  0  0  0  0  0  0  0
    9.0550   -1.0720   22.3130 N   0  0  0  0  0  0  0  0  0  0  0  0
   10.3410   -0.4330   22.5260 C   0  0  0  0  0  0  0  0  0  0  0  0
   11.6570   -1.1890   22.4830 C   0  0  0  0  0  0  0  0  0  0  0  0
   12.9350   -0.3900   22.6960 C   0  0  0  0  0  0  0  0  0  0  0  0
   12.8650    1.1240   22.9410 C   0  0  0  0  0  0  0  0  0  0  0  0
   11.5240    1.8420   22.9820 C   0  0  0  0  0  0  0  0  0  0  0  0
   11.3960    3.2070   23.1970 N   0  0  0  0  0  0  0  0  0  0  0  0
   10.2500    3.6800   23.7370 C   0  0  0  0  0  0  0  0  0  0  0  0
    9.2520    3.0020   23.9240 O   0  0  0  0  0  0  0  0  0  0  0  0
   10.0890    4.9960   24.1400 C   0  0  0  0  0  0  0  0  0  0  0  0
   11.3030    5.5930   24.5000 C   0  0  0  0  0  0  0  0  0  0  0  0
   12.4030    5.2210   23.7910 N   0  0  0  0  0  0  0  0  0  0  0  0
   12.3500    4.1480   22.9250 C   0  0  0  0  0  0  0  0  0  0  0  0
   13.2820    4.1970   21.8540 O   0  0  0  0  0  0  0  0  0  0  0  0
   10.3790    1.0740   22.7870 C   0  0  0  0  0  0  0  0  0  0  0  0
  1  2  2  0
  2  3  1  0
  3  4  1  0
  4  5  2  0
  5  6  1  0
  6  7  2  0
  7  8  1  0
  4  9  1  0
  8  9  2  0
  2 10  1  0
 10 11  1  0
 11 12  2  0
 12 13  1  0
 13 14  2  0
 14 15  1  0
 15 16  1  0
 16 17  1  0
 17 18  2  0
 17 19  1  0
 19 20  1  0
 20 21  1  0
 16 22  1  0
 21 22  1  0
 22 23  2  0
 11 24  1  0
 15 24  2  0
M  END
