pyridine_urea_14827
     RDKit          3D

 20 21  0  0  0  0  0  0  0  0999 V2000
   13.2300   -0.6610   22.3700 C   0  0  0  0  0  0  0  0  0  0  0  0
   13.1760    0.4260   23.4200 C   0  0  0  0  0  0  0  0  0  0  0  0
   11.8330    0.7490   23.7690 N   0  0  0  0  0  0  0  0  0  0  0  0
   10.3560    0.5640   23.7510 C   0  0  0  0  0  0  0  0  0  0  0  0
    9.8750   -0.4560   23.0320 C   0  0  0  0  0  0  0  0  0  0  0  0
    8.5980   -0.8530   22.8170 N   0  0  0  0  0  0  0  0  0  0  0  0
    8.0440   -0.2050   21.6470 C   0  0  0  0  0  0  0  0  0  0  0  0
    8.5760    0.8380   21.2680 O   0  0  0  0  0  0  0  0  0  0  0  0
    6.9040   -0.8260   21.0060 N   0  0  0  0  0  0  0  0  0  0  0  0
    6.3340   -0.1120   20.0010 C   0  0  0  0  0  0  0  0  0  0  0  0
    5.0600    0.7180   20.1060 C   0  0  0  0  0  0  0  0  0  0  0  0
    4.4980    1.4560   19.0720 C   0  0  0  0  0  0  0  0  0  0  0  0
    5.1150    1.4760   17.8070 C   0  0  0  0  0  0  0  0  0  0  0  0
    6.3240    0.6780   17.7090 N   0  0  0  0  0  0  0  0  0  0  0  0
    6.8930   -0.0740   18.7610 C   0  0  0  0  0  0  0  0  0  0  0  0
   11.0700   -1.0280   22.5240 C   0  0  0  0  0  0  0  0  0  0  0  0
   11.1410   -2.1950   21.6630 C   0  0  0  0  0  0  0  0  0  0  0  0
   12.3060   -2.5700   21.0620 N   0  0  0  0  0  0  0  0  0  0  0  0
   10.1470   -2.8620   21.4730 O   0  0  0  0  0  0  0  0  0  0  0  0
   12.0930   -0.3480   22.9430 N   0  0  0  0  0  0  0  0  0  0  0  0
  1  2  1  0
  2  3  1  0
  3  4  1  0
  4  5  2  0
  5  6  1  0
  6  7  1  0
  7  8  2  0
  7  9  1  0
  9 10  1  0
 10 11  2  0
 11 12  1  0
 12 13  2  0
 13 14  1  0
 10 15  1  0
 14 15  2  0
  5 16  1  0
 16 17  1  0
 17 18  1  0
 17 19  2  0
  3 20  1  0
 16 20  2  0
M  END
