pyridine_urea_13804
     RDKit          3D

 24 27  0  0  0  0  0  0  0  0999 V2000
    8.1110    1.1960   22.3660 O   0  0  0  0  0  0  0  0  0  0  0  0
    8.2100   -0.0150   22.4570 C   0  0  0  0  0  0  0  0  0  0  0  0
    7.4500   -0.8090   21.5500 N   0  0  0  0  0  0  0  0  0  0  0  0
    6.7560   -0.1850   20.3780 C   0  0  0  0  0  0  0  0  0  0  0  0
    5.5110    0.6630   20.6880 C   0  0  0  0  0  0  0  0  0  0  0  0
    4.8350    1.2860   19.5030 C   0  0  0  0  0  0  0  0  0  0  0  0
    5.3500    1.0720   18.2390 C   0  0  0  0  0  0  0  0  0  0  0  0
    6.4400    0.3200   17.9950 N   0  0  0  0  0  0  0  0  0  0  0  0
    7.1040   -0.2820   19.0290 C   0  0  0  0  0  0  0  0  0  0  0  0
    9.0650   -0.6450   23.4600 N   0  0  0  0  0  0  0  0  0  0  0  0
   10.5800   -0.3340   23.5210 C   0  0  2  0  0  0  0  0  0  0  0  0
   10.5200    0.8270   23.0480 C   0  0  0  0  0  0  0  0  0  0  0  0
   11.2470    1.9120   23.6570 C   0  0  0  0  0  0  0  0  0  0  0  0
   10.5210    2.8300   22.7160 C   0  0  0  0  0  0  0  0  0  0  0  0
    9.5140    2.6740   21.6500 C   0  0  0  0  0  0  0  0  0  0  0  0
    9.0620    1.4400   21.2690 C   0  0  0  0  0  0  0  0  0  0  0  0
    9.7680    0.6550   22.1630 C   0  0  0  0  0  0  0  0  0  0  0  0
    9.5640   -0.7770   21.8950 C   0  0  0  0  0  0  0  0  0  0  0  0
   10.9740   -1.3350   22.5070 C   0  0  0  0  0  0  0  0  0  0  0  0
   12.3120   -1.0230   22.2230 C   0  0  0  0  0  0  0  0  0  0  0  0
   13.1150   -1.2610   23.3400 C   0  0  0  0  0  0  0  0  0  0  0  0
   12.4960   -1.6260   24.3210 O   0  0  0  0  0  0  0  0  0  0  0  0
   11.5320   -2.5860   24.1370 C   0  0  0  0  0  0  0  0  0  0  0  0
   10.8510   -2.6000   22.9320 C   0  0  0  0  0  0  0  0  0  0  0  0
  1  2  2  0
  2  3  1  0
  3  4  1  0
  4  5  2  0
  5  6  1  0
  6  7  2  0
  7  8  1  0
  4  9  1  0
  8  9  2  0
  2 10  1  0
 11 10  1  6
 11 12  1  0
 12 13  2  0
 13 14  1  0
 14 15  2  0
 15 16  1  0
 12 17  1  0
 16 17  2  0
 17 18  1  0
 11 19  1  0
 19 18  1  0
 19 20  1  0
 20 21  1  0
 21 22  1  0
 22 23  1  0
 19 24  1  0
 23 24  1  0
M  END
