pyridine_urea_247
     RDKit          3D

 23 24  0  0  0  0  0  0  0  0999 V2000
   13.8560   -3.9250   20.4730 C   0  0  0  0  0  0  0  0  0  0  0  0
   13.6210   -2.5390   20.6670 O   0  0  0  0  0  0  0  0  0  0  0  0
   12.2890   -2.5660   20.9790 C   0  0  0  0  0  0  0  0  0  0  0  0
   11.5600   -3.3220   20.4050 O   0  0  0  0  0  0  0  0  0  0  0  0
   11.8510   -1.7080   22.1260 C   0  0  0  0  0  0  0  0  0  0  0  0
   10.5110   -1.1870   22.1560 C   0  0  0  0  0  0  0  0  0  0  0  0
    9.8120   -0.4390   23.0670 C   0  0  0  0  0  0  0  0  0  0  0  0
    8.4760   -0.1340   22.7330 N   0  0  0  0  0  0  0  0  0  0  0  0
    8.2280    0.3760   21.5050 C   0  0  0  0  0  0  0  0  0  0  0  0
    8.8370    1.3600   21.0710 O   0  0  0  0  0  0  0  0  0  0  0  0
    7.2410   -0.3420   20.8930 N   0  0  0  0  0  0  0  0  0  0  0  0
    6.3900    0.2650   19.9900 C   0  0  0  0  0  0  0  0  0  0  0  0
    5.2420    0.8810   20.3680 C   0  0  0  0  0  0  0  0  0  0  0  0
    4.6200    1.4470   19.1110 C   0  0  0  0  0  0  0  0  0  0  0  0
    5.1420    1.3370   17.8440 C   0  0  0  0  0  0  0  0  0  0  0  0
    6.2630    0.6960   17.5990 N   0  0  0  0  0  0  0  0  0  0  0  0
    6.8200    0.1990   18.6830 C   0  0  0  0  0  0  0  0  0  0  0  0
   10.5110   -0.0040   24.4010 C   0  0  0  0  0  0  0  0  0  0  0  0
    9.8280    0.7470   25.4270 O   0  0  0  0  0  0  0  0  0  0  0  0
   11.9540   -0.5190   24.4370 C   0  0  0  0  0  0  0  0  0  0  0  0
   12.7560   -0.3450   25.4680 O   0  0  0  0  0  0  0  0  0  0  0  0
   13.3660   -1.6440   25.5390 C   0  0  0  0  0  0  0  0  0  0  0  0
   12.6190   -1.3270   23.3450 C   0  0  0  0  0  0  0  0  0  0  0  0
  1  2  1  0
  2  3  1  0
  3  4  2  0
  3  5  1  0
  5  6  2  0
  6  7  1  0
  7  8  1  0
  8  9  1  0
  9 10  2  0
  9 11  1  0
 11 12  1  0
 12 13  2  0
 13 14  1  0
 14 15  2  0
 15 16  1  0
 12 17  1  0
 16 17  2  0
  7 18  2  0
 18 19  1  0
 18 20  1  0
 20 21  1  0
 21 22  1  0
  5 23  1  0
 20 23  2  0
M  END
