pyridine_urea_6605
     RDKit          3D

 22 24  0  0  0  0  0  0  0  0999 V2000
   11.6850    2.8070   23.0090 C   0  0  0  0  0  0  0  0  0  0  0  0
   10.4720    1.8470   22.9860 C   0  0  0  0  0  0  0  0  0  0  0  0
   11.0200    0.4010   22.9670 C   0  0  1  0  0  0  0  0  0  0  0  0
   12.4530    0.1770   22.5710 C   0  0  0  0  0  0  0  0  0  0  0  0
   13.4800   -0.3580   23.1010 C   0  0  0  0  0  0  0  0  0  0  0  0
   12.0370   -0.1130   23.5730 C   0  0  0  0  0  0  0  0  0  0  0  0
   11.4340   -0.4570   24.7940 C   0  0  0  0  0  0  0  0  0  0  0  0
    9.7090   -0.2440   25.5820 Br  0  0  0  0  0  0  0  0  0  0  0  0
   12.5140   -0.9240   25.0600 C   0  0  0  0  0  0  0  0  0  0  0  0
   12.9950   -0.5320   23.8170 C   0  0  0  0  0  0  0  0  0  0  0  0
   10.3970   -0.7080   23.7800 C   0  0  0  0  0  0  0  0  0  0  0  0
   10.0800   -0.8280   22.4580 C   0  0  1  0  0  0  0  0  0  0  0  0
    8.6760   -0.8040   22.2740 N   0  0  0  0  0  0  0  0  0  0  0  0
    8.1470    0.0760   21.4040 C   0  0  0  0  0  0  0  0  0  0  0  0
    8.7060    1.1290   21.0750 O   0  0  0  0  0  0  0  0  0  0  0  0
    6.9480   -0.3860   20.9740 N   0  0  0  0  0  0  0  0  0  0  0  0
    6.3400    0.2040   19.9270 C   0  0  0  0  0  0  0  0  0  0  0  0
    5.1720    0.9040   20.1340 C   0  0  0  0  0  0  0  0  0  0  0  0
    4.5480    1.5360   19.0690 C   0  0  0  0  0  0  0  0  0  0  0  0
    5.1380    1.4340   17.8220 C   0  0  0  0  0  0  0  0  0  0  0  0
    6.2710    0.7450   17.6060 N   0  0  0  0  0  0  0  0  0  0  0  0
    6.8480    0.1440   18.6580 C   0  0  0  0  0  0  0  0  0  0  0  0
  1  2  1  0
  3  2  1  1
  3  4  1  0
  4  5  2  0
  5  6  1  0
  6  7  2  0
  7  8  1  0
  7  9  1  0
  4 10  1  0
  9 10  2  0
  3 11  1  0
  3 12  1  0
 11 12  1  0
 12 13  1  1
 13 14  1  0
 14 15  2  0
 14 16  1  0
 16 17  1  0
 17 18  2  0
 18 19  1  0
 19 20  2  0
 20 21  1  0
 17 22  1  0
 21 22  2  0
M  END
