pyridine_urea_15244
     RDKit          3D

 16 17  0  0  0  0  0  0  0  0999 V2000
   10.4350   -1.7810   24.2830 C   0  0  0  0  0  0  0  0  0  0  0  0
   10.1590   -1.4180   22.8430 C   0  0  1  0  0  0  0  0  0  0  0  0
    8.8750   -0.7150   22.7280 N   0  0  0  0  0  0  0  0  0  0  0  0
    8.4980    0.0390   21.6260 C   0  0  0  0  0  0  0  0  0  0  0  0
    9.0640    1.0850   21.2700 O   0  0  0  0  0  0  0  0  0  0  0  0
    7.3980   -0.5330   21.0220 N   0  0  0  0  0  0  0  0  0  0  0  0
    6.6290    0.0780   20.0320 C   0  0  0  0  0  0  0  0  0  0  0  0
    5.3600    0.8240   20.4250 C   0  0  0  0  0  0  0  0  0  0  0  0
    4.5450    1.5000   19.3380 C   0  0  0  0  0  0  0  0  0  0  0  0
    5.1460    1.3230   17.9510 C   0  0  0  0  0  0  0  0  0  0  0  0
    6.2710    0.6360   17.6970 N   0  0  0  0  0  0  0  0  0  0  0  0
    6.9630    0.0490   18.6980 C   0  0  0  0  0  0  0  0  0  0  0  0
   11.3050   -0.5720   22.3920 C   0  0  0  0  0  0  0  0  0  0  0  0
   12.5470   -1.1840   22.2060 C   0  0  0  0  0  0  0  0  0  0  0  0
   13.2240   -0.2920   22.8930 C   0  0  0  0  0  0  0  0  0  0  0  0
   12.1540    0.4020   23.3290 C   0  0  0  0  0  0  0  0  0  0  0  0
  2  1  1  1
  2  3  1  0
  3  4  1  0
  4  5  2  0
  4  6  1  0
  6  7  1  0
  7  8  2  0
  8  9  1  0
  9 10  2  0
 10 11  1  0
  7 12  1  0
 11 12  2  0
  2 13  1  0
 13 14  1  0
 14 15  1  0
 13 16  1  0
 15 16  1  0
M  END
