pyridine_urea_15044
     RDKit          3D

 19 20  0  0  0  0  0  0  0  0999 V2000
   13.0340   -1.0660   22.1090 C   0  0  0  0  0  0  0  0  0  0  0  0
   11.6250   -1.6910   22.0300 C   0  0  0  0  0  0  0  0  0  0  0  0
   10.5760   -0.8710   22.7780 C   0  0  1  0  0  0  0  0  0  0  0  0
    9.2590   -1.0680   22.4670 N   0  0  0  0  0  0  0  0  0  0  0  0
    8.6060   -0.1870   21.6620 C   0  0  0  0  0  0  0  0  0  0  0  0
    9.0610    0.9110   21.3730 O   0  0  0  0  0  0  0  0  0  0  0  0
    7.3190   -0.7200   21.2200 N   0  0  0  0  0  0  0  0  0  0  0  0
    6.6220   -0.0800   20.2130 C   0  0  0  0  0  0  0  0  0  0  0  0
    5.3360    0.7230   20.4760 C   0  0  0  0  0  0  0  0  0  0  0  0
    4.6230    1.4100   19.2970 C   0  0  0  0  0  0  0  0  0  0  0  0
    5.1860    1.2720   18.0360 C   0  0  0  0  0  0  0  0  0  0  0  0
    6.2930    0.5870   17.7520 N   0  0  0  0  0  0  0  0  0  0  0  0
    6.9690   -0.0450   18.7280 C   0  0  0  0  0  0  0  0  0  0  0  0
   10.6590   -1.2990   24.2360 C   0  0  0  0  0  0  0  0  0  0  0  0
   11.4290   -2.3640   24.5530 N   0  0  0  0  0  0  0  0  0  0  0  0
    9.9560   -0.6480   25.2140 O   0  0  0  0  0  0  0  0  0  0  0  0
   10.9990    0.0620   23.7280 C   0  0  0  0  0  0  0  0  0  0  0  0
   12.0640    0.8320   23.5360 C   0  0  0  0  0  0  0  0  0  0  0  0
   12.4990   -0.1770   24.3830 C   0  0  0  0  0  0  0  0  0  0  0  0
  1  2  1  0
  3  2  1  6
  3  4  1  0
  4  5  1  0
  5  6  2  0
  5  7  1  0
  7  8  1  0
  8  9  2  0
  9 10  1  0
 10 11  2  0
 11 12  1  0
  8 13  1  0
 12 13  2  0
  3 14  1  0
 14 15  1  0
 14 16  2  0
  3 17  1  0
 17 18  1  0
 17 19  1  0
 18 19  1  0
M  END
