pyridine_urea_11413
     RDKit          3D

 19 20  0  0  0  0  0  0  0  0999 V2000
   12.1180    1.4920   23.2390 C   0  0  0  0  0  0  0  0  0  0  0  0
   11.9700    0.4560   23.8330 C   0  0  0  0  0  0  0  0  0  0  0  0
   11.8480   -0.5630   24.9670 C   0  0  0  0  0  0  0  0  0  0  0  0
   13.1910   -0.1770   23.1670 C   0  0  0  0  0  0  0  0  0  0  0  0
   12.6720   -1.0090   22.2170 C   0  0  0  0  0  0  0  0  0  0  0  0
   13.6020   -1.4940   21.2150 O   0  0  0  0  0  0  0  0  0  0  0  0
   11.4990   -1.1920   22.3720 O   0  0  0  0  0  0  0  0  0  0  0  0
   10.9410   -0.0170   23.0200 C   0  0  1  0  0  0  0  0  0  0  0  0
    9.6770   -0.4460   23.6230 C   0  0  0  0  0  0  0  0  0  0  0  0
    8.8310   -0.9100   22.5470 N   0  0  0  0  0  0  0  0  0  0  0  0
    8.3630   -0.0470   21.5730 C   0  0  0  0  0  0  0  0  0  0  0  0
    8.9900    1.2320   21.2390 O   0  0  0  0  0  0  0  0  0  0  0  0
    7.2290   -0.5700   21.0050 N   0  0  0  0  0  0  0  0  0  0  0  0
    6.4550    0.0980   20.0490 C   0  0  0  0  0  0  0  0  0  0  0  0
    5.2800    0.8080   20.2990 C   0  0  0  0  0  0  0  0  0  0  0  0
    4.6690    1.4170   19.2160 C   0  0  0  0  0  0  0  0  0  0  0  0
    5.1870    1.3270   17.9550 C   0  0  0  0  0  0  0  0  0  0  0  0
    6.3050    0.6440   17.6870 N   0  0  0  0  0  0  0  0  0  0  0  0
    6.9050    0.0510   18.7370 C   0  0  0  0  0  0  0  0  0  0  0  0
  2  1  1  0
  2  3  1  0
  2  4  1  0
  4  5  1  0
  5  6  2  0
  5  7  1  0
  2  8  1  0
  7  8  1  0
  8  9  1  1
  9 10  1  0
 10 11  1  0
 11 12  2  0
 11 13  1  0
 13 14  1  0
 14 15  2  0
 15 16  1  0
 16 17  2  0
 17 18  1  0
 14 19  1  0
 18 19  2  0
M  END
