pyridine_urea_7316
     RDKit          3D

 18 19  0  0  0  0  0  0  0  0999 V2000
   13.6570   -2.7850   24.2240 C   0  0  0  0  0  0  0  0  0  0  0  0
   13.2050   -1.5670   23.8500 N   0  0  0  0  0  0  0  0  0  0  0  0
   12.5040   -1.3050   22.6720 C   0  0  0  0  0  0  0  0  0  0  0  0
   11.1480   -1.2210   22.9550 C   0  0  2  0  0  0  0  0  0  0  0  0
   10.3670   -0.4560   22.1410 C   0  0  0  0  0  0  0  0  0  0  0  0
    8.9750   -0.5640   22.5280 N   0  0  0  0  0  0  0  0  0  0  0  0
    8.2700    0.0930   21.5040 C   0  0  0  0  0  0  0  0  0  0  0  0
    8.6630    1.2010   21.1060 O   0  0  0  0  0  0  0  0  0  0  0  0
    7.1830   -0.5600   21.0270 N   0  0  0  0  0  0  0  0  0  0  0  0
    6.4860    0.0740   20.0720 C   0  0  0  0  0  0  0  0  0  0  0  0
    5.3080    0.7800   20.3310 C   0  0  0  0  0  0  0  0  0  0  0  0
    4.6130    1.4730   19.1630 C   0  0  0  0  0  0  0  0  0  0  0  0
    5.1920    1.3640   17.9040 C   0  0  0  0  0  0  0  0  0  0  0  0
    6.3190    0.6720   17.6900 N   0  0  0  0  0  0  0  0  0  0  0  0
    6.8960    0.0740   18.7510 C   0  0  0  0  0  0  0  0  0  0  0  0
   11.1310   -0.7590   24.3060 O   0  0  0  0  0  0  0  0  0  0  0  0
   12.4510   -0.8650   24.6910 C   0  0  0  0  0  0  0  0  0  0  0  0
   12.9530   -0.3360   25.8070 O   0  0  0  0  0  0  0  0  0  0  0  0
  1  2  1  0
  2  3  1  0
  3  4  1  0
  4  5  1  6
  5  6  1  0
  6  7  1  0
  7  8  2  0
  7  9  1  0
  9 10  1  0
 10 11  2  0
 11 12  1  0
 12 13  2  0
 13 14  1  0
 10 15  1  0
 14 15  2  0
  4 16  1  0
  2 17  1  0
 16 17  1  0
 17 18  2  0
M  END
