pyridine_urea_4653
     RDKit          3D

 22 24  0  0  0  0  0  0  0  0999 V2000
    8.9740    1.1940   21.2230 O   0  0  0  0  0  0  0  0  0  0  0  0
    8.4820    0.1140   21.5790 C   0  0  0  0  0  0  0  0  0  0  0  0
    9.0140   -0.6250   22.6190 N   0  0  0  0  0  0  0  0  0  0  0  0
    9.7850   -1.8250   22.3520 C   0  0  0  0  0  0  0  0  0  0  0  0
   11.0930   -1.9300   23.1590 C   0  0  0  0  0  0  0  0  0  0  0  0
   11.9840   -0.9250   22.9690 C   0  0  0  0  0  0  0  0  0  0  0  0
   13.2770   -0.9980   22.5400 C   0  0  0  0  0  0  0  0  0  0  0  0
   13.7130    0.3020   22.5110 N   0  0  0  0  0  0  0  0  0  0  0  0
   12.7200    1.1830   22.9070 C   0  0  0  0  0  0  0  0  0  0  0  0
   12.2600    2.5340   23.1600 C   0  0  0  0  0  0  0  0  0  0  0  0
   10.8280    2.7980   23.6700 C   0  0  0  0  0  0  0  0  0  0  0  0
    9.8840    1.6990   23.9200 C   0  0  0  0  0  0  0  0  0  0  0  0
   11.0070    1.3880   23.5080 C   0  0  0  0  0  0  0  0  0  0  0  0
   11.7150    2.5100   23.3600 F   0  0  0  0  0  0  0  0  0  0  0  0
   11.7520    0.4140   23.1700 C   0  0  0  0  0  0  0  0  0  0  0  0
    7.3600   -0.4790   21.0340 N   0  0  0  0  0  0  0  0  0  0  0  0
    6.6220    0.0860   20.0570 C   0  0  0  0  0  0  0  0  0  0  0  0
    5.4800    0.8070   20.4180 C   0  0  0  0  0  0  0  0  0  0  0  0
    4.7020    1.4250   19.3840 C   0  0  0  0  0  0  0  0  0  0  0  0
    5.1530    1.2530   18.1050 C   0  0  0  0  0  0  0  0  0  0  0  0
    6.2690    0.5400   17.7280 N   0  0  0  0  0  0  0  0  0  0  0  0
    6.9610   -0.0200   18.7280 C   0  0  0  0  0  0  0  0  0  0  0  0
  1  2  2  0
  2  3  1  0
  3  4  1  0
  4  5  1  0
  5  6  1  0
  6  7  2  0
  7  8  1  0
  8  9  1  0
  9 10  1  0
 10 11  2  0
 11 12  1  0
 12 13  2  0
 13 14  1  0
  6 15  1  0
  9 15  2  0
 13 15  1  0
  2 16  1  0
 16 17  1  0
 17 18  2  0
 18 19  1  0
 19 20  2  0
 20 21  1  0
 17 22  1  0
 21 22  2  0
M  END
