pyridine_urea_7030
     RDKit          3D

 20 20  0  0  0  0  0  0  0  0999 V2000
    7.1730   -5.3110   22.9660 C   0  0  0  0  0  0  0  0  0  0  0  0
    7.8280   -4.3830   23.7710 N   0  0  0  0  0  0  0  0  0  0  0  0
    8.6180   -3.3470   23.2100 C   0  0  0  0  0  0  0  0  0  0  0  0
    8.3480   -1.9950   23.3890 C   0  0  0  0  0  0  0  0  0  0  0  0
    9.0480   -1.1100   22.5860 N   0  0  0  0  0  0  0  0  0  0  0  0
    8.4080   -0.1850   21.6550 C   0  0  0  0  0  0  0  0  0  0  0  0
    8.9360    0.8770   21.2780 O   0  0  0  0  0  0  0  0  0  0  0  0
    7.0900   -0.5930   21.2040 N   0  0  0  0  0  0  0  0  0  0  0  0
    6.5210    0.0030   20.1070 C   0  0  0  0  0  0  0  0  0  0  0  0
    5.3590    0.7270   20.3210 C   0  0  0  0  0  0  0  0  0  0  0  0
    4.6290    1.4510   19.1930 C   0  0  0  0  0  0  0  0  0  0  0  0
    5.2060    1.3390   17.9460 C   0  0  0  0  0  0  0  0  0  0  0  0
    6.3430    0.6240   17.7350 N   0  0  0  0  0  0  0  0  0  0  0  0
    6.9600   -0.0120   18.7680 C   0  0  0  0  0  0  0  0  0  0  0  0
    7.8370   -4.5170   25.2390 C   0  0  0  0  0  0  0  0  0  0  0  0
    7.7470   -3.3240   25.9550 C   0  0  0  0  0  0  0  0  0  0  0  0
    7.4560   -3.5740   27.1130 O   0  0  0  0  0  0  0  0  0  0  0  0
    7.6550   -2.6120   28.0640 C   0  0  0  0  0  0  0  0  0  0  0  0
    6.4430   -2.2680   28.6740 C   0  0  0  0  0  0  0  0  0  0  0  0
    6.6070   -1.1220   29.5240 O   0  0  0  0  0  0  0  0  0  0  0  0
  1  2  1  0
  2  3  1  0
  3  4  1  0
  4  5  1  0
  5  6  1  0
  6  7  2  0
  6  8  1  0
  8  9  1  0
  9 10  2  0
 10 11  1  0
 11 12  2  0
 12 13  1  0
  9 14  1  0
 13 14  2  0
  2 15  1  0
 15 16  1  0
 16 17  1  0
 17 18  1  0
 18 19  1  0
 19 20  1  0
M  END
