pyridine_urea_7698
     RDKit          3D

 24 25  0  0  0  0  0  0  0  0999 V2000
    8.9810    1.1400   21.1920 O   0  0  0  0  0  0  0  0  0  0  0  0
    8.5450    0.0550   21.5880 C   0  0  0  0  0  0  0  0  0  0  0  0
    9.1930   -0.8220   22.4170 N   0  0  0  0  0  0  0  0  0  0  0  0
   10.5410   -1.2240   22.2890 C   0  0  0  0  0  0  0  0  0  0  0  0
   11.5410   -0.3860   22.7800 C   0  0  1  0  0  0  0  0  0  0  0  0
   11.1500    0.9550   22.9890 C   0  0  0  0  0  0  0  0  0  0  0  0
   10.4270    1.0570   24.2750 N   0  0  0  0  0  0  0  0  0  0  0  0
    9.2830    1.9000   24.1820 C   0  0  0  0  0  0  0  0  0  0  0  0
    9.5330    3.2040   23.7250 C   0  0  0  0  0  0  0  0  0  0  0  0
   10.8570    3.5310   23.6990 F   0  0  0  0  0  0  0  0  0  0  0  0
    8.9100    4.1480   24.4920 F   0  0  0  0  0  0  0  0  0  0  0  0
    9.0780    3.4160   22.4620 F   0  0  0  0  0  0  0  0  0  0  0  0
   10.3440   -0.0410   25.1110 C   0  0  0  0  0  0  0  0  0  0  0  0
    9.2690   -0.3000   26.0140 O   0  0  0  0  0  0  0  0  0  0  0  0
   11.4170   -0.8930   25.0170 N   0  0  0  0  0  0  0  0  0  0  0  0
   12.2050   -0.9120   23.8680 C   0  0  0  0  0  0  0  0  0  0  0  0
   13.4730   -1.4080   23.8360 O   0  0  0  0  0  0  0  0  0  0  0  0
    7.2930   -0.4250   21.2330 N   0  0  0  0  0  0  0  0  0  0  0  0
    6.6040    0.1280   20.1200 C   0  0  0  0  0  0  0  0  0  0  0  0
    5.4750    0.9150   20.3060 C   0  0  0  0  0  0  0  0  0  0  0  0
    4.7600    1.5210   19.2710 C   0  0  0  0  0  0  0  0  0  0  0  0
    5.1260    1.3840   17.9300 C   0  0  0  0  0  0  0  0  0  0  0  0
    6.2350    0.5950   17.6910 N   0  0  0  0  0  0  0  0  0  0  0  0
    6.9820   -0.0310   18.6790 C   0  0  0  0  0  0  0  0  0  0  0  0
  1  2  2  0
  2  3  1  0
  3  4  1  0
  5  4  1  1
  5  6  1  0
  6  7  1  0
  7  8  1  0
  8  9  1  0
  9 10  1  0
  9 11  1  0
  9 12  1  0
  7 13  1  0
 13 14  2  0
 13 15  1  0
  5 16  1  0
 15 16  1  0
 16 17  2  0
  2 18  1  0
 18 19  1  0
 19 20  2  0
 20 21  1  0
 21 22  2  0
 22 23  1  0
 19 24  1  0
 23 24  2  0
M  END
