pyridine_urea_8213
     RDKit          3D

 23 25  0  0  0  0  0  0  0  0999 V2000
    9.3390   -1.3490   21.3780 O   0  0  0  0  0  0  0  0  0  0  0  0
    8.2090   -1.1640   21.0030 C   0  0  0  0  0  0  0  0  0  0  0  0
    7.9510   -0.8740   22.3050 N   0  0  0  0  0  0  0  0  0  0  0  0
    8.7090    0.1860   22.8780 C   0  0  0  0  0  0  0  0  0  0  0  0
    9.9650    0.5760   22.0500 C   0  0  0  0  0  0  0  0  0  0  0  0
   11.0520   -0.0390   22.5350 C   0  0  0  0  0  0  0  0  0  0  0  0
   12.4510    0.2660   22.3340 N   0  0  0  0  0  0  0  0  0  0  0  0
   13.0060   -0.6140   23.0470 O   0  0  0  0  0  0  0  0  0  0  0  0
   11.9500   -1.3960   23.6570 C   0  0  0  0  0  0  0  0  0  0  0  0
   12.0870   -2.3390   24.5060 C   0  0  0  0  0  0  0  0  0  0  0  0
   13.4530   -2.2410   24.9780 C   0  0  0  0  0  0  0  0  0  0  0  0
   13.9970   -3.0780   25.9950 C   0  0  0  0  0  0  0  0  0  0  0  0
   12.9530   -4.0390   26.4730 C   0  0  0  0  0  0  0  0  0  0  0  0
   11.5360   -4.0740   25.8870 C   0  0  0  0  0  0  0  0  0  0  0  0
   11.1430   -3.2200   24.9160 N   0  0  0  0  0  0  0  0  0  0  0  0
   10.8040   -1.0140   23.3000 N   0  0  0  0  0  0  0  0  0  0  0  0
    6.8870   -0.8720   20.9680 N   0  0  0  0  0  0  0  0  0  0  0  0
    6.3240   -0.0940   19.9370 C   0  0  0  0  0  0  0  0  0  0  0  0
    5.0560    0.6980   20.1810 C   0  0  0  0  0  0  0  0  0  0  0  0
    4.5170    1.4670   19.1570 C   0  0  0  0  0  0  0  0  0  0  0  0
    5.1330    1.5170   17.9010 C   0  0  0  0  0  0  0  0  0  0  0  0
    6.3540    0.7350   17.6990 N   0  0  0  0  0  0  0  0  0  0  0  0
    6.8700   -0.0050   18.6900 C   0  0  0  0  0  0  0  0  0  0  0  0
  1  2  2  0
  2  3  1  0
  3  4  1  0
  4  5  1  0
  5  6  1  0
  6  7  2  0
  7  8  1  0
  8  9  1  0
  9 10  1  0
 10 11  2  0
 11 12  1  0
 12 13  2  0
 13 14  1  0
 10 15  1  0
 14 15  2  0
  6 16  1  0
  9 16  2  0
  2 17  1  0
 17 18  1  0
 18 19  2  0
 19 20  1  0
 20 21  2  0
 21 22  1  0
 18 23  1  0
 22 23  2  0
M  END
