pyridine_urea_527
     RDKit          3D

 25 26  0  0  0  0  0  0  0  0999 V2000
   14.3510    3.2280   18.6050 C   0  0  0  0  0  0  0  0  0  0  0  0
   14.6850    1.7670   18.3950 C   0  0  0  0  0  0  0  0  0  0  0  0
   14.8990    1.0990   19.6860 N   0  0  0  0  0  0  0  0  0  0  0  0
   16.0030    1.7200   19.0740 C   0  0  0  0  0  0  0  0  0  0  0  0
   15.8650    3.0390   19.4390 C   0  0  0  0  0  0  0  0  0  0  0  0
   14.2020   -0.5050   19.9040 S   0  0  0  0  0  0  0  0  0  0  0  0
   14.6720   -1.6990   19.8280 O   0  0  0  0  0  0  0  0  0  0  0  0
   13.7800   -0.1840   18.6070 O   0  0  0  0  0  0  0  0  0  0  0  0
   13.1080   -0.7680   21.5450 C   0  0  0  0  0  0  0  0  0  0  0  0
   13.4360   -0.4960   22.8100 C   0  0  0  0  0  0  0  0  0  0  0  0
   12.5700   -0.6750   24.0190 C   0  0  0  0  0  0  0  0  0  0  0  0
   11.2640   -1.1110   23.9020 C   0  0  0  0  0  0  0  0  0  0  0  0
   10.4320   -1.2850   24.7630 O   0  0  0  0  0  0  0  0  0  0  0  0
   10.8380   -1.3870   22.6410 C   0  0  0  0  0  0  0  0  0  0  0  0
    9.4440   -1.8050   22.3140 N   0  0  0  0  0  0  0  0  0  0  0  0
    8.5170   -0.8040   21.7730 C   0  0  0  0  0  0  0  0  0  0  0  0
    8.6860    0.3920   21.8470 O   0  0  0  0  0  0  0  0  0  0  0  0
    7.3940   -1.2970   21.1690 N   0  0  0  0  0  0  0  0  0  0  0  0
    6.7150   -0.4570   20.1360 C   0  0  0  0  0  0  0  0  0  0  0  0
    5.4940    0.3450   20.5060 C   0  0  0  0  0  0  0  0  0  0  0  0
    4.8160    1.1560   19.5520 C   0  0  0  0  0  0  0  0  0  0  0  0
    5.3200    1.1850   18.2500 C   0  0  0  0  0  0  0  0  0  0  0  0
    6.4210    0.4590   17.9270 N   0  0  0  0  0  0  0  0  0  0  0  0
    7.1280   -0.3570   18.8160 C   0  0  0  0  0  0  0  0  0  0  0  0
   11.7180   -1.2540   21.5740 C   0  0  0  0  0  0  0  0  0  0  0  0
  1  2  1  0
  2  3  1  0
  3  4  1  0
  4  5  1  0
  6  3  1  0
  6  7  2  0
  6  8  2  0
  6  9  1  0
  9 10  2  0
 10 11  1  0
 11 12  2  0
 12 13  1  0
 12 14  1  0
 14 15  1  0
 15 16  1  0
 16 17  2  0
 16 18  1  0
 18 19  1  0
 19 20  2  0
 20 21  1  0
 21 22  2  0
 22 23  1  0
 19 24  1  0
 23 24  2  0
  9 25  1  0
 14 25  2  0
M  END
