pyridine_urea_13200
     RDKit          3D

 17 17  0  0  0  0  0  0  0  0999 V2000
   12.5080    1.2850   23.3010 C   0  0  0  0  0  0  0  0  0  0  0  0
   12.1840   -0.1260   23.6620 C   0  0  0  0  0  0  0  0  0  0  0  0
   12.6070   -0.7770   24.8260 C   0  0  0  0  0  0  0  0  0  0  0  0
   12.8330   -0.9850   22.5630 C   0  0  0  0  0  0  0  0  0  0  0  0
   13.1380   -2.0660   23.0410 O   0  0  0  0  0  0  0  0  0  0  0  0
   10.6760   -0.2780   23.5570 C   0  0  0  0  0  0  0  0  0  0  0  0
   10.0230   -1.3420   22.6960 C   0  0  0  0  0  0  0  0  0  0  0  0
    8.6210   -1.1160   22.5660 N   0  0  0  0  0  0  0  0  0  0  0  0
    8.1910   -0.2410   21.6090 C   0  0  0  0  0  0  0  0  0  0  0  0
    8.7870    0.7910   21.3230 O   0  0  0  0  0  0  0  0  0  0  0  0
    6.9570   -0.7200   21.0360 N   0  0  0  0  0  0  0  0  0  0  0  0
    6.4020   -0.0370   19.9910 C   0  0  0  0  0  0  0  0  0  0  0  0
    5.2300    0.6900   20.1840 C   0  0  0  0  0  0  0  0  0  0  0  0
    4.6120    1.4080   19.1800 C   0  0  0  0  0  0  0  0  0  0  0  0
    5.2200    1.3780   17.9310 C   0  0  0  0  0  0  0  0  0  0  0  0
    6.3560    0.6850   17.6990 N   0  0  0  0  0  0  0  0  0  0  0  0
    6.9190   -0.0030   18.7170 C   0  0  0  0  0  0  0  0  0  0  0  0
  2  1  1  0
  2  3  1  0
  2  4  1  0
  4  5  1  0
  2  6  1  0
  6  7  1  0
  7  8  1  0
  8  9  1  0
  9 10  2  0
  9 11  1  0
 11 12  1  0
 12 13  2  0
 13 14  1  0
 14 15  2  0
 15 16  1  0
 12 17  1  0
 16 17  2  0
M  END
