pyridine_urea_2000
     RDKit          3D

 22 23  0  0  0  0  0  0  0  0999 V2000
   11.7520   -3.3350   24.6020 C   0  0  0  0  0  0  0  0  0  0  0  0
   13.0740   -2.6160   24.6110 C   0  0  0  0  0  0  0  0  0  0  0  0
   13.6360   -2.6820   23.2110 C   0  0  0  0  0  0  0  0  0  0  0  0
   14.0320   -2.8340   25.8010 C   0  0  0  0  0  0  0  0  0  0  0  0
   12.5340   -1.3560   24.7200 N   0  0  0  0  0  0  0  0  0  0  0  0
   11.0510   -1.3550   23.9640 S   0  0  0  0  0  0  0  0  0  0  0  0
    9.9840   -1.2270   24.8880 O   0  0  0  0  0  0  0  0  0  0  0  0
   11.0750   -2.3870   22.9530 O   0  0  0  0  0  0  0  0  0  0  0  0
   11.2180    0.1390   23.0830 C   0  0  0  0  0  0  0  0  0  0  0  0
   10.3080    0.0710   22.1000 C   0  0  0  0  0  0  0  0  0  0  0  0
    8.9830   -0.3800   22.4060 N   0  0  0  0  0  0  0  0  0  0  0  0
    8.1430    0.2110   21.5130 C   0  0  0  0  0  0  0  0  0  0  0  0
    8.4280    1.4690   21.0350 O   0  0  0  0  0  0  0  0  0  0  0  0
    7.0100   -0.5740   21.1110 N   0  0  0  0  0  0  0  0  0  0  0  0
    6.3850    0.0180   20.0530 C   0  0  0  0  0  0  0  0  0  0  0  0
    5.1920    0.7120   20.2690 C   0  0  0  0  0  0  0  0  0  0  0  0
    4.5650    1.3410   19.2030 C   0  0  0  0  0  0  0  0  0  0  0  0
    5.1540    1.2590   17.9380 C   0  0  0  0  0  0  0  0  0  0  0  0
    6.2920    0.5900   17.7140 N   0  0  0  0  0  0  0  0  0  0  0  0
    6.8800   -0.0150   18.7660 C   0  0  0  0  0  0  0  0  0  0  0  0
   12.6910    0.0410   22.7260 C   0  0  0  0  0  0  0  0  0  0  0  0
   12.1850    1.2030   23.2130 C   0  0  0  0  0  0  0  0  0  0  0  0
  1  2  1  0
  2  3  1  0
  2  4  1  0
  2  5  1  0
  6  5  1  0
  6  7  2  0
  6  8  2  0
  6  9  1  0
  9 10  1  0
 10 11  1  0
 11 12  1  0
 12 13  2  0
 12 14  1  0
 14 15  1  0
 15 16  2  0
 16 17  1  0
 17 18  2  0
 18 19  1  0
 15 20  1  0
 19 20  2  0
  9 21  1  0
  9 22  1  0
 21 22  1  0
M  END
