pyridine_urea_3447
     RDKit          3D

 19 20  0  0  0  0  0  0  0  0999 V2000
   13.3090   -3.3810   20.7290 N   0  0  0  0  0  0  0  0  0  0  0  0
   13.2790   -2.0900   21.1100 C   0  0  0  0  0  0  0  0  0  0  0  0
   13.9400   -1.1120   20.3490 O   0  0  0  0  0  0  0  0  0  0  0  0
   12.5830   -1.9030   22.2710 N   0  0  0  0  0  0  0  0  0  0  0  0
   13.1250   -0.9760   23.2680 C   0  0  0  0  0  0  0  0  0  0  0  0
   11.9300   -0.1880   23.7560 C   0  0  0  0  0  0  0  0  0  0  0  0
   10.7700   -0.6950   22.9670 C   0  0  2  0  0  0  0  0  0  0  0  0
    9.4830   -0.7370   23.7690 C   0  0  0  0  0  0  0  0  0  0  0  0
    8.4050   -0.8670   22.9360 N   0  0  0  0  0  0  0  0  0  0  0  0
    8.1950   -0.1690   21.7300 C   0  0  0  0  0  0  0  0  0  0  0  0
    8.9180    0.7420   21.3480 O   0  0  0  0  0  0  0  0  0  0  0  0
    7.0800   -0.6430   21.0840 N   0  0  0  0  0  0  0  0  0  0  0  0
    6.4450    0.0120   20.0250 C   0  0  0  0  0  0  0  0  0  0  0  0
    5.2600    0.7190   20.2630 C   0  0  0  0  0  0  0  0  0  0  0  0
    4.6230    1.3870   19.2140 C   0  0  0  0  0  0  0  0  0  0  0  0
    5.1970    1.3220   17.9640 C   0  0  0  0  0  0  0  0  0  0  0  0
    6.3280    0.6450   17.7140 N   0  0  0  0  0  0  0  0  0  0  0  0
    6.9230    0.0080   18.7370 C   0  0  0  0  0  0  0  0  0  0  0  0
   11.1340   -2.0450   22.3950 C   0  0  0  0  0  0  0  0  0  0  0  0
  1  2  1  0
  2  3  2  0
  2  4  1  0
  4  5  1  0
  5  6  1  0
  6  7  1  0
  7  8  1  1
  8  9  1  0
  9 10  1  0
 10 11  2  0
 10 12  1  0
 12 13  1  0
 13 14  2  0
 14 15  1  0
 15 16  2  0
 16 17  1  0
 13 18  1  0
 17 18  2  0
  4 19  1  0
  7 19  1  0
M  END
