pyridine_urea_15005
     RDKit          3D

 18 19  0  0  0  0  0  0  0  0999 V2000
   12.8310   -2.3070   24.6340 C   0  0  0  0  0  0  0  0  0  0  0  0
   11.4420   -2.9150   24.9110 C   0  0  0  0  0  0  0  0  0  0  0  0
   11.1130   -4.0770   25.7430 C   0  0  0  0  0  0  0  0  0  0  0  0
    9.7940   -4.3470   25.7760 N   0  0  0  0  0  0  0  0  0  0  0  0
    9.3720   -5.4040   26.5130 C   0  0  0  0  0  0  0  0  0  0  0  0
    9.1230   -3.3730   24.9600 N   0  0  0  0  0  0  0  0  0  0  0  0
   10.0800   -2.4750   24.4080 C   0  0  0  0  0  0  0  0  0  0  0  0
    9.8090   -1.2750   23.4910 C   0  0  0  0  0  0  0  0  0  0  0  0
    8.9050   -1.5230   22.4720 N   0  0  0  0  0  0  0  0  0  0  0  0
    8.3920   -0.4940   21.6310 C   0  0  0  0  0  0  0  0  0  0  0  0
    9.0110    0.5450   21.4380 O   0  0  0  0  0  0  0  0  0  0  0  0
    7.1560   -0.7980   21.1010 N   0  0  0  0  0  0  0  0  0  0  0  0
    6.4980   -0.0960   20.0680 C   0  0  0  0  0  0  0  0  0  0  0  0
    5.3330    0.6260   20.3710 C   0  0  0  0  0  0  0  0  0  0  0  0
    4.7150    1.3080   19.3370 C   0  0  0  0  0  0  0  0  0  0  0  0
    5.2350    1.2730   18.0650 C   0  0  0  0  0  0  0  0  0  0  0  0
    6.3370    0.5980   17.7390 N   0  0  0  0  0  0  0  0  0  0  0  0
    6.9410   -0.0730   18.7510 C   0  0  0  0  0  0  0  0  0  0  0  0
  1  2  1  0
  2  3  2  0
  3  4  1  0
  4  5  1  0
  4  6  1  0
  2  7  1  0
  6  7  2  0
  7  8  1  0
  8  9  1  0
  9 10  1  0
 10 11  2  0
 10 12  1  0
 12 13  1  0
 13 14  2  0
 14 15  1  0
 15 16  2  0
 16 17  1  0
 13 18  1  0
 17 18  2  0
M  END
