pyridine_urea_13430
     RDKit          3D

 19 20  0  0  0  0  0  0  0  0999 V2000
   13.3750   -2.3480   23.8480 C   0  0  0  0  0  0  0  0  0  0  0  0
   12.5630   -1.1570   23.2980 C   0  0  0  0  0  0  0  0  0  0  0  0
   13.3210   -0.4160   22.2360 C   0  0  0  0  0  0  0  0  0  0  0  0
   12.3390   -0.1080   24.4050 C   0  0  0  0  0  0  0  0  0  0  0  0
   10.9360    0.2880   24.6760 C   0  0  0  0  0  0  0  0  0  0  0  0
    9.9270   -0.1730   23.9200 C   0  0  1  0  0  0  0  0  0  0  0  0
    9.0700    0.6910   23.8510 O   0  0  0  0  0  0  0  0  0  0  0  0
   10.2770   -0.6420   22.6800 C   0  0  2  0  0  0  0  0  0  0  0  0
    9.0550   -0.9990   22.0410 N   0  0  0  0  0  0  0  0  0  0  0  0
    8.3810    0.0050   21.4150 C   0  0  0  0  0  0  0  0  0  0  0  0
    8.8830    1.1060   21.1490 O   0  0  0  0  0  0  0  0  0  0  0  0
    7.1050   -0.3830   21.1380 N   0  0  0  0  0  0  0  0  0  0  0  0
    6.4290    0.1940   20.0840 C   0  0  0  0  0  0  0  0  0  0  0  0
    5.2500    0.9150   20.2460 C   0  0  0  0  0  0  0  0  0  0  0  0
    4.5930    1.5150   19.1620 C   0  0  0  0  0  0  0  0  0  0  0  0
    5.1320    1.3870   17.8690 C   0  0  0  0  0  0  0  0  0  0  0  0
    6.2420    0.7080   17.6100 N   0  0  0  0  0  0  0  0  0  0  0  0
    6.8680    0.1390   18.6430 C   0  0  0  0  0  0  0  0  0  0  0  0
   11.2650   -1.6060   22.6020 C   0  0  0  0  0  0  0  0  0  0  0  0
  2  1  1  0
  2  3  1  0
  2  4  1  0
  4  5  1  0
  5  6  1  0
  6  7  1  6
  6  8  1  0
  8  9  1  1
  9 10  1  0
 10 11  2  0
 10 12  1  0
 12 13  1  0
 13 14  2  0
 14 15  1  0
 15 16  2  0
 16 17  1  0
 13 18  1  0
 17 18  2  0
  2 19  1  0
  8 19  1  0
M  END
