pyridine_urea_794
     RDKit          3D

 23 24  0  0  0  0  0  0  0  0999 V2000
   12.4780    4.4230   21.7510 C   0  0  0  0  0  0  0  0  0  0  0  0
   12.5260    3.3270   22.6710 O   0  0  0  0  0  0  0  0  0  0  0  0
   11.3130    2.8960   23.1170 C   0  0  0  0  0  0  0  0  0  0  0  0
   11.1920    1.5580   23.5270 C   0  0  0  0  0  0  0  0  0  0  0  0
    9.9460    1.1440   24.0110 C   0  0  0  0  0  0  0  0  0  0  0  0
    9.5380   -0.1870   23.8630 C   0  0  2  0  0  0  0  0  0  0  0  0
   10.5490   -1.1960   24.2750 C   0  0  0  0  0  0  0  0  0  0  0  0
   11.5740   -1.2230   23.2280 C   0  0  0  0  0  0  0  0  0  0  0  0
   11.5180   -2.2630   22.1500 C   0  0  0  0  0  0  0  0  0  0  0  0
   12.5370   -2.1870   21.1950 C   0  0  0  0  0  0  0  0  0  0  0  0
   13.5490   -1.2000   21.2410 C   0  0  0  0  0  0  0  0  0  0  0  0
   13.5850   -0.2240   22.2700 C   0  0  0  0  0  0  0  0  0  0  0  0
   12.5940   -0.4320   23.0530 C   0  0  0  0  0  0  0  0  0  0  0  0
    9.0330   -0.6340   22.5960 N   0  0  0  0  0  0  0  0  0  0  0  0
    8.4220    0.0640   21.5960 C   0  0  0  0  0  0  0  0  0  0  0  0
    8.9710    1.2710   21.2300 O   0  0  0  0  0  0  0  0  0  0  0  0
    7.2990   -0.4960   21.0610 N   0  0  0  0  0  0  0  0  0  0  0  0
    6.5780    0.0940   20.0200 C   0  0  0  0  0  0  0  0  0  0  0  0
    5.4220    0.8180   20.2860 C   0  0  0  0  0  0  0  0  0  0  0  0
    4.6750    1.4440   19.2980 C   0  0  0  0  0  0  0  0  0  0  0  0
    5.1420    1.3150   17.9910 C   0  0  0  0  0  0  0  0  0  0  0  0
    6.2500    0.6140   17.6870 N   0  0  0  0  0  0  0  0  0  0  0  0
    6.9380    0.0240   18.6950 C   0  0  0  0  0  0  0  0  0  0  0  0
  1  2  1  0
  2  3  1  0
  3  4  1  0
  4  5  1  0
  6  5  1  6
  6  7  1  0
  7  8  1  0
  8  9  2  0
  9 10  1  0
 10 11  2  0
 11 12  1  0
  8 13  1  0
 12 13  2  0
  6 14  1  0
 14 15  1  0
 15 16  2  0
 15 17  1  0
 17 18  1  0
 18 19  2  0
 19 20  1  0
 20 21  2  0
 21 22  1  0
 18 23  1  0
 22 23  2  0
M  END
