pyridine_urea_620
     RDKit          3D

 24 26  0  0  0  0  0  0  0  0999 V2000
   12.9870   -1.2560   24.9450 C   0  0  0  0  0  0  0  0  0  0  0  0
   12.6590   -2.5680   24.2910 C   0  0  0  0  0  0  0  0  0  0  0  0
   11.3320   -2.9670   24.3810 C   0  0  0  0  0  0  0  0  0  0  0  0
   12.9910   -2.5250   22.8700 N   0  0  0  0  0  0  0  0  0  0  0  0
   13.5630   -3.4080   22.1200 N   0  0  0  0  0  0  0  0  0  0  0  0
   13.5920   -2.9090   20.8700 N   0  0  0  0  0  0  0  0  0  0  0  0
   13.0770   -1.6770   20.8380 N   0  0  0  0  0  0  0  0  0  0  0  0
   12.6920   -1.4390   22.0470 C   0  0  0  0  0  0  0  0  0  0  0  0
   12.0700   -0.4390   22.6010 C   0  0  0  0  0  0  0  0  0  0  0  0
   12.5130    0.7130   23.1850 C   0  0  0  0  0  0  0  0  0  0  0  0
   11.4630    1.6510   23.7320 C   0  0  0  0  0  0  0  0  0  0  0  0
   10.1210    1.3720   23.6550 C   0  0  0  0  0  0  0  0  0  0  0  0
    9.7470    0.1770   23.0340 C   0  0  0  0  0  0  0  0  0  0  0  0
    8.5230   -0.1790   22.8790 N   0  0  0  0  0  0  0  0  0  0  0  0
    8.1450    0.2010   21.6480 C   0  0  0  0  0  0  0  0  0  0  0  0
    8.7660    1.1540   21.1470 O   0  0  0  0  0  0  0  0  0  0  0  0
    7.1240   -0.4660   21.0610 N   0  0  0  0  0  0  0  0  0  0  0  0
    6.4560    0.1170   19.9990 C   0  0  0  0  0  0  0  0  0  0  0  0
    5.1990    0.8700   20.2600 C   0  0  0  0  0  0  0  0  0  0  0  0
    4.5720    1.4670   19.1670 C   0  0  0  0  0  0  0  0  0  0  0  0
    5.1470    1.3280   17.9110 C   0  0  0  0  0  0  0  0  0  0  0  0
    6.2720    0.6400   17.6630 N   0  0  0  0  0  0  0  0  0  0  0  0
    6.8930    0.0570   18.7010 C   0  0  0  0  0  0  0  0  0  0  0  0
   10.7170   -0.6630   22.5440 C   0  0  0  0  0  0  0  0  0  0  0  0
  1  2  1  0
  2  3  1  0
  2  4  1  0
  4  5  1  0
  5  6  2  0
  6  7  1  0
  4  8  1  0
  7  8  2  0
  8  9  1  0
  9 10  2  0
 10 11  1  0
 11 12  2  0
 12 13  1  0
 13 14  1  0
 14 15  1  0
 15 16  2  0
 15 17  1  0
 17 18  1  0
 18 19  2  0
 19 20  1  0
 20 21  2  0
 21 22  1  0
 18 23  1  0
 22 23  2  0
  9 24  1  0
 13 24  2  0
M  END
