pyridine_urea_8401
     RDKit          3D

 22 23  0  0  0  0  0  0  0  0999 V2000
   11.8140   -1.4750   22.0790 C   0  0  0  0  0  0  0  0  0  0  0  0
   10.7010   -1.9220   23.0390 C   0  0  0  0  0  0  0  0  0  0  0  0
   11.3650   -2.7720   24.1930 C   0  0  0  0  0  0  0  0  0  0  0  0
    9.6210   -2.7320   22.3180 C   0  0  0  0  0  0  0  0  0  0  0  0
    9.1980   -3.6150   23.0560 O   0  0  0  0  0  0  0  0  0  0  0  0
    9.9350   -0.7450   23.6730 C   0  0  2  0  0  0  0  0  0  0  0  0
    8.7230   -0.5730   23.0120 N   0  0  0  0  0  0  0  0  0  0  0  0
    8.4460    0.0970   21.7870 C   0  0  0  0  0  0  0  0  0  0  0  0
    9.0660    1.0760   21.3350 O   0  0  0  0  0  0  0  0  0  0  0  0
    7.3300   -0.5010   21.1600 N   0  0  0  0  0  0  0  0  0  0  0  0
    6.6030    0.1040   20.0350 C   0  0  0  0  0  0  0  0  0  0  0  0
    5.3540    0.8860   20.4810 C   0  0  0  0  0  0  0  0  0  0  0  0
    4.5910    1.5450   19.3360 C   0  0  0  0  0  0  0  0  0  0  0  0
    5.1450    1.3520   17.9500 C   0  0  0  0  0  0  0  0  0  0  0  0
    6.2590    0.6250   17.6790 N   0  0  0  0  0  0  0  0  0  0  0  0
    6.9720    0.0140   18.7040 C   0  0  0  0  0  0  0  0  0  0  0  0
   10.5400    0.4710   23.5910 C   0  0  0  0  0  0  0  0  0  0  0  0
   11.3810    1.6020   23.4370 C   0  0  0  0  0  0  0  0  0  0  0  0
   12.6960    2.0270   23.0990 C   0  0  0  0  0  0  0  0  0  0  0  0
   13.3310    0.8430   22.8630 C   0  0  0  0  0  0  0  0  0  0  0  0
   12.8680   -0.3730   22.9280 C   0  0  0  0  0  0  0  0  0  0  0  0
   11.5870   -0.5790   23.2580 C   0  0  0  0  0  0  0  0  0  0  0  0
  2  1  1  0
  2  3  1  0
  2  4  1  0
  4  5  1  0
  2  6  1  0
  6  7  1  6
  7  8  1  0
  8  9  2  0
  8 10  1  0
 10 11  1  0
 11 12  2  0
 12 13  1  0
 13 14  2  0
 14 15  1  0
 11 16  1  0
 15 16  2  0
  6 17  1  0
 17 18  2  0
 18 19  1  0
 19 20  2  0
 20 21  1  0
 17 22  1  0
 21 22  2  0
M  END
