pyridine_urea_14647
     RDKit          3D

 20 22  0  0  0  0  0  0  0  0999 V2000
    8.8940    0.6740   21.4550 O   0  0  0  0  0  0  0  0  0  0  0  0
    8.2670   -0.3580   21.6770 C   0  0  0  0  0  0  0  0  0  0  0  0
    8.6220   -1.3460   22.5920 N   0  0  0  0  0  0  0  0  0  0  0  0
    9.6360   -1.3370   23.5830 C   0  0  0  0  0  0  0  0  0  0  0  0
   10.9350   -1.6420   23.2390 C   0  0  2  0  0  0  0  0  0  0  0  0
   11.1970   -2.1870   21.9960 C   0  0  0  0  0  0  0  0  0  0  0  0
   12.3380   -2.6360   21.8620 O   0  0  0  0  0  0  0  0  0  0  0  0
   11.3820   -0.7750   22.1310 C   0  0  0  0  0  0  0  0  0  0  0  0
   12.3630   -0.0180   22.7200 C   0  0  1  0  0  0  0  0  0  0  0  0
   11.8400    0.7020   23.9420 C   0  0  0  0  0  0  0  0  0  0  0  0
   11.8040   -0.3240   24.8670 C   0  0  0  0  0  0  0  0  0  0  0  0
   12.0340   -1.4130   24.0540 C   0  0  2  0  0  0  0  0  0  0  0  0
   13.0850   -1.0070   23.2950 C   0  0  0  0  0  0  0  0  0  0  0  0
    7.0930   -0.7240   21.0620 N   0  0  0  0  0  0  0  0  0  0  0  0
    6.3930   -0.0020   20.0770 C   0  0  0  0  0  0  0  0  0  0  0  0
    5.1360    0.7710   20.2870 C   0  0  0  0  0  0  0  0  0  0  0  0
    4.6120    1.4250   19.1670 C   0  0  0  0  0  0  0  0  0  0  0  0
    5.2560    1.3350   17.9440 C   0  0  0  0  0  0  0  0  0  0  0  0
    6.3830    0.6470   17.7210 N   0  0  0  0  0  0  0  0  0  0  0  0
    6.9010    0.0070   18.7880 C   0  0  0  0  0  0  0  0  0  0  0  0
  1  2  2  0
  2  3  1  0
  3  4  1  0
  5  4  1  1
  5  6  1  0
  6  7  1  0
  5  8  1  0
  9  8  1  1
  9 10  1  0
 10 11  1  0
  5 12  1  0
 12 11  1  1
  9 13  1  0
 12 13  1  0
  2 14  1  0
 14 15  1  0
 15 16  2  0
 16 17  1  0
 17 18  2  0
 18 19  1  0
 15 20  1  0
 19 20  2  0
M  END
