pyridine_urea_5017
     RDKit          3D

 20 20  0  0  0  0  0  0  0  0999 V2000
    7.1620   -0.4520   27.1780 C   0  0  0  0  0  0  0  0  0  0  0  0
    8.4450   -1.1260   26.7850 C   0  0  0  0  0  0  0  0  0  0  0  0
    8.6220   -1.8550   25.6040 C   0  0  0  0  0  0  0  0  0  0  0  0
    9.6460   -1.4190   25.0320 O   0  0  0  0  0  0  0  0  0  0  0  0
    9.2980   -1.1850   23.7200 C   0  0  0  0  0  0  0  0  0  0  0  0
   10.0370   -1.6310   22.6210 C   0  0  1  0  0  0  0  0  0  0  0  0
    9.3010   -1.3570   21.4740 N   0  0  0  0  0  0  0  0  0  0  0  0
    8.5030   -0.2480   21.3180 C   0  0  0  0  0  0  0  0  0  0  0  0
    8.9030    0.9080   21.3940 O   0  0  0  0  0  0  0  0  0  0  0  0
    7.1940   -0.5910   21.0380 N   0  0  0  0  0  0  0  0  0  0  0  0
    6.4380    0.0670   20.0650 C   0  0  0  0  0  0  0  0  0  0  0  0
    5.1280    0.8340   20.2900 C   0  0  0  0  0  0  0  0  0  0  0  0
    4.5790    1.4210   19.1650 C   0  0  0  0  0  0  0  0  0  0  0  0
    5.1810    1.3150   17.9390 C   0  0  0  0  0  0  0  0  0  0  0  0
    6.3200    0.6460   17.7060 N   0  0  0  0  0  0  0  0  0  0  0  0
    6.9130    0.0440   18.7620 C   0  0  0  0  0  0  0  0  0  0  0  0
   11.2910   -1.0190   22.4940 C   0  0  0  0  0  0  0  0  0  0  0  0
   12.6350   -0.9700   22.2830 O   0  0  0  0  0  0  0  0  0  0  0  0
   11.5140   -2.3890   22.2530 O   0  0  0  0  0  0  0  0  0  0  0  0
   12.7220   -2.4210   21.4720 C   0  0  0  0  0  0  0  0  0  0  0  0
  1  2  2  3
  2  3  1  0
  3  4  1  0
  4  5  1  0
  6  5  1  1
  6  7  1  0
  7  8  1  0
  8  9  2  0
  8 10  1  0
 10 11  1  0
 11 12  2  0
 12 13  1  0
 13 14  2  0
 14 15  1  0
 11 16  1  0
 15 16  2  0
  6 17  1  0
 17 18  2  0
 17 19  1  0
 19 20  1  0
M  END
