pyridine_urea_11867
     RDKit          3D

 25 27  0  0  0  0  0  0  0  0999 V2000
   12.5530    5.6240   22.2330 C   0  0  0  0  0  0  0  0  0  0  0  0
   11.7290    4.3790   22.5360 C   0  0  0  0  0  0  0  0  0  0  0  0
   12.4460    3.2300   22.7190 C   0  0  0  0  0  0  0  0  0  0  0  0
   11.9020    1.9890   23.0010 C   0  0  0  0  0  0  0  0  0  0  0  0
   10.5040    1.9260   23.0990 C   0  0  0  0  0  0  0  0  0  0  0  0
    9.8150    0.7150   23.3960 C   0  0  0  0  0  0  0  0  0  0  0  0
    9.6860   -0.1960   22.3960 C   0  0  2  0  0  0  0  0  0  0  0  0
    8.3830   -0.8030   22.5610 N   0  0  0  0  0  0  0  0  0  0  0  0
    7.8150   -0.8270   21.3540 C   0  0  0  0  0  0  0  0  0  0  0  0
    8.5020   -0.9990   20.4100 O   0  0  0  0  0  0  0  0  0  0  0  0
    6.4900   -0.6020   21.3000 N   0  0  0  0  0  0  0  0  0  0  0  0
    6.0460    0.0660   20.1620 C   0  0  0  0  0  0  0  0  0  0  0  0
    4.8960    0.8440   20.1420 C   0  0  0  0  0  0  0  0  0  0  0  0
    4.4530    1.5190   19.0180 C   0  0  0  0  0  0  0  0  0  0  0  0
    5.1820    1.4230   17.8530 C   0  0  0  0  0  0  0  0  0  0  0  0
    6.3080    0.7120   17.7040 N   0  0  0  0  0  0  0  0  0  0  0  0
    6.7480    0.0470   18.7960 C   0  0  0  0  0  0  0  0  0  0  0  0
   10.8500   -1.1670   22.5000 C   0  0  0  0  0  0  0  0  0  0  0  0
   12.1300   -1.7300   22.6280 C   0  0  0  0  0  0  0  0  0  0  0  0
   13.3320   -1.1170   22.7730 C   0  0  0  0  0  0  0  0  0  0  0  0
   13.3940    0.2040   22.8020 C   0  0  0  0  0  0  0  0  0  0  0  0
   12.3400    0.8820   22.7070 N   0  0  0  0  0  0  0  0  0  0  0  0
   11.2100    0.1920   22.5720 C   0  0  0  0  0  0  0  0  0  0  0  0
    9.7530    3.1080   22.9120 C   0  0  0  0  0  0  0  0  0  0  0  0
   10.3400    4.3410   22.6340 C   0  0  0  0  0  0  0  0  0  0  0  0
  1  2  1  0
  2  3  2  0
  3  4  1  0
  4  5  2  0
  5  6  1  0
  7  6  1  1
  7  8  1  0
  8  9  1  0
  9 10  2  0
  9 11  1  0
 11 12  1  0
 12 13  2  0
 13 14  1  0
 14 15  2  0
 15 16  1  0
 12 17  1  0
 16 17  2  0
  7 18  1  0
 18 19  2  0
 19 20  1  0
 20 21  2  0
 21 22  1  0
 18 23  1  0
 22 23  2  0
  5 24  1  0
  2 25  1  0
 24 25  2  0
M  END
