pyridine_urea_14941
     RDKit          3D

 19 21  0  0  0  0  0  0  0  0999 V2000
    8.4630    1.3740   21.0410 O   0  0  0  0  0  0  0  0  0  0  0  0
    8.0670    0.2110   21.1730 C   0  0  0  0  0  0  0  0  0  0  0  0
    8.8750   -0.7680   21.5370 N   0  0  0  0  0  0  0  0  0  0  0  0
   10.0130   -0.2540   22.1460 C   0  0  0  0  0  0  0  0  0  0  0  0
   11.0650   -1.2090   21.7730 C   0  0  0  0  0  0  0  0  0  0  0  0
   12.2210   -2.0210   22.0310 C   0  0  0  0  0  0  0  0  0  0  0  0
   12.6150   -1.8420   23.3780 C   0  0  0  0  0  0  0  0  0  0  0  0
   13.7990   -2.5720   24.1880 S   0  0  0  0  0  0  0  0  0  0  0  0
   13.1690   -1.5030   25.4770 C   0  0  0  0  0  0  0  0  0  0  0  0
   11.9040   -0.5140   25.2590 C   0  0  0  0  0  0  0  0  0  0  0  0
   12.3950   -1.2560   24.4160 C   0  0  0  0  0  0  0  0  0  0  0  0
   11.1390   -0.6220   23.4050 S   0  0  0  0  0  0  0  0  0  0  0  0
    6.8250   -0.2740   20.9610 N   0  0  0  0  0  0  0  0  0  0  0  0
    6.1450    0.3200   19.9460 C   0  0  0  0  0  0  0  0  0  0  0  0
    4.9450    0.9730   20.0520 C   0  0  0  0  0  0  0  0  0  0  0  0
    4.4060    1.5590   18.9260 C   0  0  0  0  0  0  0  0  0  0  0  0
    5.1070    1.4560   17.7340 C   0  0  0  0  0  0  0  0  0  0  0  0
    6.2700    0.8070   17.6110 N   0  0  0  0  0  0  0  0  0  0  0  0
    6.7580    0.2580   18.7150 C   0  0  0  0  0  0  0  0  0  0  0  0
  1  2  2  0
  2  3  1  0
  3  4  1  0
  4  5  1  0
  5  6  2  0
  6  7  1  0
  7  8  1  0
  8  9  1  0
  9 10  2  0
  7 11  2  0
 10 11  1  0
  5 12  1  0
 11 12  1  0
  2 13  1  0
 13 14  1  0
 14 15  2  0
 15 16  1  0
 16 17  2  0
 17 18  1  0
 14 19  1  0
 18 19  2  0
M  END
