pyridine_urea_10136
     RDKit          3D

 23 25  0  0  0  0  0  0  0  0999 V2000
    8.9590    0.7500   21.4020 O   0  0  0  0  0  0  0  0  0  0  0  0
    8.3250   -0.2720   21.6370 C   0  0  0  0  0  0  0  0  0  0  0  0
    8.6960   -1.2300   22.5740 N   0  0  0  0  0  0  0  0  0  0  0  0
    8.4930   -2.6360   22.4980 C   0  0  0  0  0  0  0  0  0  0  0  0
    7.2390   -3.2890   22.5760 C   0  0  0  0  0  0  0  0  0  0  0  0
    6.1200   -3.0710   21.7170 N   0  0  0  0  0  0  0  0  0  0  0  0
    4.9950   -3.9810   22.1390 O   0  0  0  0  0  0  0  0  0  0  0  0
    5.5950   -4.6540   23.2460 C   0  0  0  0  0  0  0  0  0  0  0  0
    4.8670   -5.6060   23.9480 C   0  0  0  0  0  0  0  0  0  0  0  0
    4.0810   -6.5510   23.2940 C   0  0  0  0  0  0  0  0  0  0  0  0
    3.3030   -7.5760   24.1380 C   0  0  0  0  0  0  0  0  0  0  0  0
    3.4050   -7.5360   25.5200 C   0  0  0  0  0  0  0  0  0  0  0  0
    4.2120   -6.5640   26.1160 C   0  0  0  0  0  0  0  0  0  0  0  0
    4.3210   -6.5510   28.0120 Br  0  0  0  0  0  0  0  0  0  0  0  0
    4.9220   -5.6260   25.3570 C   0  0  0  0  0  0  0  0  0  0  0  0
    6.9250   -4.2140   23.4660 N   0  0  0  0  0  0  0  0  0  0  0  0
    7.1450   -0.6430   21.0390 N   0  0  0  0  0  0  0  0  0  0  0  0
    6.4830    0.0220   20.0310 C   0  0  0  0  0  0  0  0  0  0  0  0
    5.2460    0.7900   20.3330 C   0  0  0  0  0  0  0  0  0  0  0  0
    4.6330    1.4450   19.2560 C   0  0  0  0  0  0  0  0  0  0  0  0
    5.2120    1.3350   17.9960 C   0  0  0  0  0  0  0  0  0  0  0  0
    6.3280    0.6380   17.7130 N   0  0  0  0  0  0  0  0  0  0  0  0
    6.9360   -0.0020   18.7300 C   0  0  0  0  0  0  0  0  0  0  0  0
  1  2  2  0
  2  3  1  0
  3  4  1  0
  4  5  1  0
  5  6  2  0
  6  7  1  0
  7  8  1  0
  8  9  1  0
  9 10  2  0
 10 11  1  0
 11 12  2  0
 12 13  1  0
 13 14  1  0
  9 15  1  0
 13 15  2  0
  5 16  1  0
  8 16  2  0
  2 17  1  0
 17 18  1  0
 18 19  2  0
 19 20  1  0
 20 21  2  0
 21 22  1  0
 18 23  1  0
 22 23  2  0
M  END
