pyridine_urea_3518
     RDKit          3D

 18 19  0  0  0  0  0  0  0  0999 V2000
    8.9710    1.1130   21.2360 O   0  0  0  0  0  0  0  0  0  0  0  0
    8.5110   -0.0110   21.4810 C   0  0  0  0  0  0  0  0  0  0  0  0
    9.1530   -0.9190   22.3000 N   0  0  0  0  0  0  0  0  0  0  0  0
   10.2180   -0.4310   23.1490 C   0  0  0  0  0  0  0  0  0  0  0  0
   11.5970   -0.9280   22.7300 C   0  0  0  0  0  0  0  0  0  0  0  0
   12.6750    0.0810   23.0890 C   0  0  0  0  0  0  0  0  0  0  0  0
   12.0820    1.2470   23.6930 O   0  0  0  0  0  0  0  0  0  0  0  0
   12.3340    2.4650   22.9610 C   0  0  0  0  0  0  0  0  0  0  0  0
   11.5920    3.7500   23.3280 C   0  0  0  0  0  0  0  0  0  0  0  0
   11.7570    4.8310   22.4020 C   0  0  0  0  0  0  0  0  0  0  0  0
   12.5490    5.0720   23.4520 C   0  0  0  0  0  0  0  0  0  0  0  0
    7.3210   -0.5170   21.0060 N   0  0  0  0  0  0  0  0  0  0  0  0
    6.5190    0.1170   20.0540 C   0  0  0  0  0  0  0  0  0  0  0  0
    5.3490    0.8170   20.3110 C   0  0  0  0  0  0  0  0  0  0  0  0
    4.6500    1.4210   19.2700 C   0  0  0  0  0  0  0  0  0  0  0  0
    5.1600    1.2990   17.9850 C   0  0  0  0  0  0  0  0  0  0  0  0
    6.2790    0.6210   17.7070 N   0  0  0  0  0  0  0  0  0  0  0  0
    6.9240    0.0500   18.7380 C   0  0  0  0  0  0  0  0  0  0  0  0
  1  2  2  0
  2  3  1  0
  3  4  1  0
  4  5  1  0
  5  6  1  0
  6  7  1  0
  7  8  1  0
  8  9  1  0
  9 10  1  0
  9 11  1  0
 10 11  1  0
  2 12  1  0
 12 13  1  0
 13 14  2  0
 14 15  1  0
 15 16  2  0
 16 17  1  0
 13 18  1  0
 17 18  2  0
M  END
