pyridine_urea_12258
     RDKit          3D

 22 24  0  0  0  0  0  0  0  0999 V2000
   12.5240   -1.3710   22.3040 C   0  0  0  0  0  0  0  0  0  0  0  0
   11.6980   -0.1170   22.5610 C   0  0  0  0  0  0  0  0  0  0  0  0
   12.6050    1.0340   22.8050 N   0  0  0  0  0  0  0  0  0  0  0  0
   11.8580    2.2980   23.0190 C   0  0  0  0  0  0  0  0  0  0  0  0
   12.5000    3.6510   23.2160 N   0  0  0  0  0  0  0  0  0  0  0  0
   12.9670    4.3670   22.0130 C   0  0  0  0  0  0  0  0  0  0  0  0
   12.7790    5.8680   22.2280 C   0  0  0  0  0  0  0  0  0  0  0  0
   11.8350    6.0340   23.2220 C   0  0  0  0  0  0  0  0  0  0  0  0
   11.5560    4.6610   23.8290 C   0  0  0  0  0  0  0  0  0  0  0  0
   10.3470    2.4120   23.0520 C   0  0  0  0  0  0  0  0  0  0  0  0
    9.5160    1.2270   22.8200 C   0  0  0  0  0  0  0  0  0  0  0  0
   10.2580   -0.0500   22.5440 C   0  0  0  0  0  0  0  0  0  0  0  0
    9.3460   -1.0410   22.2560 N   0  0  0  0  0  0  0  0  0  0  0  0
    8.3550   -0.4350   21.4060 C   0  0  0  0  0  0  0  0  0  0  0  0
    8.4950    0.7110   21.0040 O   0  0  0  0  0  0  0  0  0  0  0  0
    7.2520   -1.1160   21.0450 N   0  0  0  0  0  0  0  0  0  0  0  0
    6.5090   -0.3650   20.1500 C   0  0  0  0  0  0  0  0  0  0  0  0
    5.3110    0.3080   20.4290 C   0  0  0  0  0  0  0  0  0  0  0  0
    4.6730    1.0500   19.4180 C   0  0  0  0  0  0  0  0  0  0  0  0
    5.2500    1.0980   18.1550 C   0  0  0  0  0  0  0  0  0  0  0  0
    6.3910    0.4650   17.8540 N   0  0  0  0  0  0  0  0  0  0  0  0
    6.9830   -0.2440   18.8440 C   0  0  0  0  0  0  0  0  0  0  0  0
  1  2  1  0
  2  3  2  0
  3  4  1  0
  4  5  1  0
  5  6  1  0
  6  7  1  0
  7  8  1  0
  5  9  1  0
  8  9  1  0
  4 10  2  0
 10 11  1  0
  2 12  1  0
 11 12  2  0
 12 13  1  0
 13 14  1  0
 14 15  2  0
 14 16  1  0
 16 17  1  0
 17 18  2  0
 18 19  1  0
 19 20  2  0
 20 21  1  0
 17 22  1  0
 21 22  2  0
M  END
