pyridine_urea_10375
     RDKit          3D

 23 25  0  0  0  0  0  0  0  0999 V2000
    8.6760    1.1760   21.1300 O   0  0  0  0  0  0  0  0  0  0  0  0
    8.1710    0.1130   21.5340 C   0  0  0  0  0  0  0  0  0  0  0  0
    7.1120   -0.5410   20.9850 N   0  0  0  0  0  0  0  0  0  0  0  0
    6.3460    0.1070   20.0330 C   0  0  0  0  0  0  0  0  0  0  0  0
    5.0100    0.8020   20.3160 C   0  0  0  0  0  0  0  0  0  0  0  0
    4.3990    1.4660   19.0910 C   0  0  0  0  0  0  0  0  0  0  0  0
    5.1520    1.3630   17.8050 C   0  0  0  0  0  0  0  0  0  0  0  0
    6.3170    0.7120   17.6770 N   0  0  0  0  0  0  0  0  0  0  0  0
    6.8600    0.1230   18.7520 C   0  0  0  0  0  0  0  0  0  0  0  0
    8.6780   -0.5210   22.6250 N   0  0  0  0  0  0  0  0  0  0  0  0
   10.0370   -0.1780   22.7730 C   0  0  0  0  0  0  0  0  0  0  0  0
   10.3630    0.9220   23.5530 C   0  0  0  0  0  0  0  0  0  0  0  0
   11.6750    1.3210   23.6990 C   0  0  0  0  0  0  0  0  0  0  0  0
   12.7010    0.6270   23.0710 C   0  0  0  0  0  0  0  0  0  0  0  0
   12.3550   -0.4930   22.2900 C   0  0  0  0  0  0  0  0  0  0  0  0
   13.4280   -1.4620   21.4520 S   0  0  0  0  0  0  0  0  0  0  0  0
   13.2250   -2.5640   22.7700 C   0  0  0  0  0  0  0  0  0  0  0  0
   13.3490   -1.8540   24.0920 C   0  0  0  0  0  0  0  0  0  0  0  0
   12.3440   -0.9630   24.3070 C   0  0  0  0  0  0  0  0  0  0  0  0
   11.2650   -1.7490   24.5870 C   0  0  0  0  0  0  0  0  0  0  0  0
   11.8090   -3.0300   24.5800 C   0  0  0  0  0  0  0  0  0  0  0  0
   13.1210   -2.8330   24.9610 C   0  0  0  0  0  0  0  0  0  0  0  0
   11.0340   -0.8640   22.1630 C   0  0  0  0  0  0  0  0  0  0  0  0
  1  2  2  0
  2  3  1  0
  3  4  1  0
  4  5  2  0
  5  6  1  0
  6  7  2  0
  7  8  1  0
  4  9  1  0
  8  9  2  0
  2 10  1  0
 10 11  1  0
 11 12  2  0
 12 13  1  0
 13 14  2  0
 14 15  1  0
 15 16  1  0
 16 17  1  0
 17 18  1  0
 18 19  1  0
 19 20  1  0
 20 21  1  0
 18 22  1  0
 21 22  1  0
 11 23  1  0
 15 23  2  0
M  END
