pyridine_urea_9754
     RDKit          3D

 27 29  0  0  0  0  0  0  0  0999 V2000
    8.5850    1.7060   20.7890 O   0  0  0  0  0  0  0  0  0  0  0  0
    8.4760    0.7170   21.4700 C   0  0  0  0  0  0  0  0  0  0  0  0
    7.5320   -0.2570   21.1890 N   0  0  0  0  0  0  0  0  0  0  0  0
    6.6980    0.1990   20.1130 C   0  0  0  0  0  0  0  0  0  0  0  0
    5.4610    1.0050   20.4910 C   0  0  0  0  0  0  0  0  0  0  0  0
    4.5900    1.5260   19.3510 C   0  0  0  0  0  0  0  0  0  0  0  0
    5.0830    1.1690   17.9540 C   0  0  0  0  0  0  0  0  0  0  0  0
    6.2350    0.4070   17.7710 N   0  0  0  0  0  0  0  0  0  0  0  0
    7.0010   -0.0560   18.7970 C   0  0  0  0  0  0  0  0  0  0  0  0
    9.2810    0.5330   22.5540 N   0  0  0  0  0  0  0  0  0  0  0  0
    9.1970   -0.5960   23.3190 C   0  0  2  0  0  0  0  0  0  0  0  0
    9.1130   -0.3770   24.6660 C   0  0  0  0  0  0  0  0  0  0  0  0
    7.7870   -0.1890   25.0660 C   0  0  0  0  0  0  0  0  0  0  0  0
    7.4390    0.0440   26.3320 C   0  0  0  0  0  0  0  0  0  0  0  0
    8.4380    0.0900   27.2150 C   0  0  0  0  0  0  0  0  0  0  0  0
    9.7420   -0.1000   26.7880 C   0  0  0  0  0  0  0  0  0  0  0  0
   10.3420   -0.3800   25.3910 C   0  0  0  0  0  0  0  0  0  0  0  0
   10.2230   -1.6310   22.9200 C   0  0  0  0  0  0  0  0  0  0  0  0
   11.3660   -0.7630   23.2840 C   0  0  0  0  0  0  0  0  0  0  0  0
   11.5400    0.4790   23.7990 C   0  0  0  0  0  0  0  0  0  0  0  0
   12.7360   -0.1310   23.5370 C   0  0  0  0  0  0  0  0  0  0  0  0
   12.7600   -1.4530   22.9880 C   0  0  0  0  0  0  0  0  0  0  0  0
   13.6610   -2.1290   22.6340 O   0  0  0  0  0  0  0  0  0  0  0  0
   13.2870   -1.6500   21.3810 C   0  0  0  0  0  0  0  0  0  0  0  0
   14.1300   -1.6600   20.3910 F   0  0  0  0  0  0  0  0  0  0  0  0
   13.2510   -0.3720   21.7320 F   0  0  0  0  0  0  0  0  0  0  0  0
   11.4130   -2.2060   22.6980 C   0  0  0  0  0  0  0  0  0  0  0  0
  1  2  2  0
  2  3  1  0
  3  4  1  0
  4  5  2  0
  5  6  1  0
  6  7  2  0
  7  8  1  0
  4  9  1  0
  8  9  2  0
  2 10  1  0
 11 10  1  6
 11 12  1  0
 12 13  2  0
 13 14  1  0
 14 15  2  0
 15 16  1  0
 12 17  1  0
 16 17  2  0
 11 18  1  0
 18 19  2  0
 19 20  1  0
 20 21  2  0
 21 22  1  0
 22 23  1  0
 23 24  1  0
 24 25  1  0
 24 26  1  0
 18 27  1  0
 22 27  2  0
M  END
