pyridine_urea_10800
     RDKit          3D

 20 21  0  0  0  0  0  0  0  0999 V2000
   13.3870   -2.2450   25.2080 C   0  0  0  0  0  0  0  0  0  0  0  0
   13.5190   -2.4740   23.4270 S   0  0  0  0  0  0  0  0  0  0  0  0
   11.7920   -2.4650   23.1710 C   0  0  0  0  0  0  0  0  0  0  0  0
   11.2460   -1.7510   22.0360 N   0  0  0  0  0  0  0  0  0  0  0  0
    9.8860   -1.7240   21.8330 C   0  0  0  0  0  0  0  0  0  0  0  0
    9.0810   -2.3950   22.7380 C   0  0  0  0  0  0  0  0  0  0  0  0
    7.6970   -2.4050   22.6340 C   0  0  0  0  0  0  0  0  0  0  0  0
    7.2250   -1.1410   23.2810 C   0  0  0  0  0  0  0  0  0  0  0  0
    8.1370   -0.1800   22.8790 N   0  0  0  0  0  0  0  0  0  0  0  0
    8.1520    0.3200   21.5750 C   0  0  0  0  0  0  0  0  0  0  0  0
    8.8010    1.2990   21.1780 O   0  0  0  0  0  0  0  0  0  0  0  0
    7.3310   -0.4640   20.8560 N   0  0  0  0  0  0  0  0  0  0  0  0
    6.5700    0.1780   19.9730 C   0  0  0  0  0  0  0  0  0  0  0  0
    5.4310    0.9330   20.2580 C   0  0  0  0  0  0  0  0  0  0  0  0
    4.7300    1.5700   19.2200 C   0  0  0  0  0  0  0  0  0  0  0  0
    5.1370    1.4770   17.9020 C   0  0  0  0  0  0  0  0  0  0  0  0
    6.2710    0.7080   17.6520 N   0  0  0  0  0  0  0  0  0  0  0  0
    6.9640    0.0780   18.6640 C   0  0  0  0  0  0  0  0  0  0  0  0
    9.6360   -3.0700   23.7960 C   0  0  0  0  0  0  0  0  0  0  0  0
   10.9450   -3.1320   24.0490 N   0  0  0  0  0  0  0  0  0  0  0  0
  1  2  1  0
  2  3  1  0
  3  4  2  0
  4  5  1  0
  5  6  2  0
  6  7  1  0
  7  8  1  0
  8  9  1  0
  9 10  1  0
 10 11  2  0
 10 12  1  0
 12 13  1  0
 13 14  2  0
 14 15  1  0
 15 16  2  0
 16 17  1  0
 13 18  1  0
 17 18  2  0
  6 19  1  0
  3 20  1  0
 19 20  2  0
M  END
