pyridine_urea_6837
     RDKit          3D

 21 23  0  0  0  0  0  0  0  0999 V2000
    9.0530    0.7840   21.4530 O   0  0  0  0  0  0  0  0  0  0  0  0
    8.5810   -0.3350   21.5810 C   0  0  0  0  0  0  0  0  0  0  0  0
    7.3890   -0.7690   21.0250 N   0  0  0  0  0  0  0  0  0  0  0  0
    6.5740   -0.0550   20.1200 C   0  0  0  0  0  0  0  0  0  0  0  0
    5.2830    0.6930   20.4990 C   0  0  0  0  0  0  0  0  0  0  0  0
    4.5910    1.3980   19.3280 C   0  0  0  0  0  0  0  0  0  0  0  0
    5.2320    1.2870   17.9810 C   0  0  0  0  0  0  0  0  0  0  0  0
    6.3620    0.6020   17.7640 N   0  0  0  0  0  0  0  0  0  0  0  0
    6.9770   -0.0290   18.7920 C   0  0  0  0  0  0  0  0  0  0  0  0
    9.1920   -1.3460   22.3110 N   0  0  0  0  0  0  0  0  0  0  0  0
   10.4680   -1.2050   23.0180 C   0  0  0  0  0  0  0  0  0  0  0  0
   10.4660   -2.1540   24.0590 C   0  0  0  0  0  0  0  0  0  0  0  0
   11.3670   -2.8430   24.7890 N   0  0  0  0  0  0  0  0  0  0  0  0
   10.7470   -3.6930   25.6920 C   0  0  0  0  0  0  0  0  0  0  0  0
    9.3500   -3.7150   25.7240 C   0  0  0  0  0  0  0  0  0  0  0  0
    8.7780   -2.4910   24.4310 S   0  0  0  0  0  0  0  0  0  0  0  0
   10.5640    0.1460   23.4170 C   0  0  0  0  0  0  0  0  0  0  0  0
   11.7860    0.3280   24.1220 C   0  0  0  0  0  0  0  0  0  0  0  0
   12.7210    0.3200   22.9360 C   0  0  0  0  0  0  0  0  0  0  0  0
   12.7940   -0.9430   22.4210 C   0  0  0  0  0  0  0  0  0  0  0  0
   11.5450   -1.5200   22.1680 C   0  0  0  0  0  0  0  0  0  0  0  0
  1  2  2  0
  2  3  1  0
  3  4  1  0
  4  5  2  0
  5  6  1  0
  6  7  2  0
  7  8  1  0
  4  9  1  0
  8  9  2  0
  2 10  1  0
 11 10  1  0
 11 12  1  0
 12 13  2  0
 13 14  1  0
 14 15  2  0
 12 16  1  0
 15 16  1  0
 11 17  1  0
 17 18  1  0
 18 19  1  0
 19 20  1  0
 11 21  1  0
 20 21  1  0
M  END
