pyridine_urea_9011
     RDKit          3D

 19 20  0  0  0  0  0  0  0  0999 V2000
    9.7420   -0.1300   24.7490 C   0  0  0  0  0  0  0  0  0  0  0  0
   10.1550    0.2760   23.3070 C   0  0  2  0  0  0  0  0  0  0  0  0
    9.4050   -0.5260   22.2860 N   0  0  0  0  0  0  0  0  0  0  0  0
    8.4790    0.0890   21.4350 C   0  0  0  0  0  0  0  0  0  0  0  0
    8.6330    1.4460   21.0020 O   0  0  0  0  0  0  0  0  0  0  0  0
    7.4380   -0.7480   21.0890 N   0  0  0  0  0  0  0  0  0  0  0  0
    6.6610   -0.0550   20.1620 C   0  0  0  0  0  0  0  0  0  0  0  0
    5.5140    0.7130   20.4040 C   0  0  0  0  0  0  0  0  0  0  0  0
    4.8050    1.3740   19.3950 C   0  0  0  0  0  0  0  0  0  0  0  0
    5.2630    1.2620   18.0990 C   0  0  0  0  0  0  0  0  0  0  0  0
    6.3480    0.5410   17.8000 N   0  0  0  0  0  0  0  0  0  0  0  0
    7.0070   -0.0900   18.8120 C   0  0  0  0  0  0  0  0  0  0  0  0
   11.6970    0.2330   23.1840 C   0  0  0  0  0  0  0  0  0  0  0  0
   12.9990    0.4500   22.9710 C   0  0  0  0  0  0  0  0  0  0  0  0
   13.0230   -0.7250   23.4920 C   0  0  0  0  0  0  0  0  0  0  0  0
   11.4700   -0.8040   23.6920 C   0  0  0  0  0  0  0  0  0  0  0  0
   11.1000   -1.8670   24.2060 O   0  0  0  0  0  0  0  0  0  0  0  0
   10.5640    0.3050   23.2950 N   0  0  0  0  0  0  0  0  0  0  0  0
   11.3000    1.3470   22.7640 C   0  0  0  0  0  0  0  0  0  0  0  0
  2  1  1  1
  2  3  1  0
  3  4  1  0
  4  5  2  0
  4  6  1  0
  6  7  1  0
  7  8  2  0
  8  9  1  0
  9 10  2  0
 10 11  1  0
  7 12  1  0
 11 12  2  0
  2 13  1  0
 13 14  2  0
 14 15  1  0
 15 16  2  0
 16 17  1  0
 16 18  1  0
 13 19  1  0
 18 19  2  0
M  END
