pyridine_urea_13767
     RDKit          3D

 25 27  0  0  0  0  0  0  0  0999 V2000
   12.5380    7.5840   23.5990 C   0  0  0  0  0  0  0  0  0  0  0  0
   11.6720    6.8000   23.8010 C   0  0  0  0  0  0  0  0  0  0  0  0
   11.6320    5.7460   22.7840 N   0  0  0  0  0  0  0  0  0  0  0  0
   12.8980    5.1480   22.3960 C   0  0  0  0  0  0  0  0  0  0  0  0
   12.7070    3.6600   22.4120 C   0  0  0  0  0  0  0  0  0  0  0  0
   11.9810    3.0430   23.3950 N   0  0  0  0  0  0  0  0  0  0  0  0
   11.7060    1.7900   23.0650 C   0  0  0  0  0  0  0  0  0  0  0  0
   10.2330    1.8370   23.0620 C   0  0  0  0  0  0  0  0  0  0  0  0
    9.4750    0.6880   22.7450 C   0  0  0  0  0  0  0  0  0  0  0  0
   10.0130   -0.4790   22.4270 C   0  0  0  0  0  0  0  0  0  0  0  0
    9.1060   -1.3970   22.1140 N   0  0  0  0  0  0  0  0  0  0  0  0
    8.2240   -0.6630   21.3480 C   0  0  0  0  0  0  0  0  0  0  0  0
    8.5660    0.4670   21.0270 O   0  0  0  0  0  0  0  0  0  0  0  0
    7.0390   -1.1900   21.0030 N   0  0  0  0  0  0  0  0  0  0  0  0
    6.3740   -0.3770   20.1220 C   0  0  0  0  0  0  0  0  0  0  0  0
    5.2010    0.3350   20.4110 C   0  0  0  0  0  0  0  0  0  0  0  0
    4.6270    1.1370   19.4390 C   0  0  0  0  0  0  0  0  0  0  0  0
    5.2060    1.2860   18.0670 C   0  0  0  0  0  0  0  0  0  0  0  0
    6.4020    0.5390   17.8140 N   0  0  0  0  0  0  0  0  0  0  0  0
    6.9770   -0.2610   18.7720 C   0  0  0  0  0  0  0  0  0  0  0  0
   11.5830   -0.5650   22.4460 C   0  0  0  0  0  0  0  0  0  0  0  0
   12.3830    0.5780   22.7670 C   0  0  0  0  0  0  0  0  0  0  0  0
   13.7040    0.3880   22.7450 F   0  0  0  0  0  0  0  0  0  0  0  0
   10.8760    3.7980   23.9160 C   0  0  0  0  0  0  0  0  0  0  0  0
   10.6270    4.9420   23.2020 C   0  0  0  0  0  0  0  0  0  0  0  0
  1  2  1  0
  2  3  1  0
  3  4  1  0
  4  5  1  0
  5  6  1  0
  6  7  1  0
  7  8  2  0
  8  9  1  0
  9 10  2  0
 10 11  1  0
 11 12  1  0
 12 13  2  0
 12 14  1  0
 14 15  1  0
 15 16  2  0
 16 17  1  0
 17 18  2  0
 18 19  1  0
 15 20  1  0
 19 20  2  0
 10 21  1  0
  7 22  1  0
 21 22  2  0
 22 23  1  0
  6 24  1  0
  3 25  1  0
 24 25  1  0
M  END
