pyridine_urea_15197
     RDKit          3D

 17 18  0  0  0  0  0  0  0  0999 V2000
    8.9380    0.6850   21.3830 O   0  0  0  0  0  0  0  0  0  0  0  0
    8.3720   -0.3910   21.5200 C   0  0  0  0  0  0  0  0  0  0  0  0
    8.9100   -1.4480   22.2290 N   0  0  0  0  0  0  0  0  0  0  0  0
   10.0300   -1.2310   23.1290 C   0  0  0  0  0  0  0  0  0  0  0  0
   11.3690   -1.5820   22.4820 C   0  0  0  0  0  0  0  0  0  0  0  0
   12.4020   -0.5080   22.7140 C   0  0  0  0  0  0  0  0  0  0  0  0
   12.9460    0.9230   22.9280 C   0  0  0  0  0  0  0  0  0  0  0  0
   12.2900    2.2520   22.9950 C   0  0  0  0  0  0  0  0  0  0  0  0
   10.6050    2.0390   22.7790 S   0  0  0  0  0  0  0  0  0  0  0  0
   10.9560    0.2470   22.6320 C   0  0  0  0  0  0  0  0  0  0  0  0
    7.1370   -0.7230   21.0200 N   0  0  0  0  0  0  0  0  0  0  0  0
    6.4120   -0.0110   20.0510 C   0  0  0  0  0  0  0  0  0  0  0  0
    5.2280    0.6960   20.2800 C   0  0  0  0  0  0  0  0  0  0  0  0
    4.6380    1.3600   19.2150 C   0  0  0  0  0  0  0  0  0  0  0  0
    5.2300    1.3090   17.9650 C   0  0  0  0  0  0  0  0  0  0  0  0
    6.3590    0.6370   17.7250 N   0  0  0  0  0  0  0  0  0  0  0  0
    6.9150   -0.0030   18.7660 C   0  0  0  0  0  0  0  0  0  0  0  0
  1  2  2  0
  2  3  1  0
  3  4  1  0
  4  5  1  0
  5  6  1  0
  6  7  1  0
  7  8  2  0
  8  9  1  0
  6 10  2  0
  9 10  1  0
  2 11  1  0
 11 12  1  0
 12 13  2  0
 13 14  1  0
 14 15  2  0
 15 16  1  0
 12 17  1  0
 16 17  2  0
M  END
