pyridine_urea_12946
     RDKit          3D

 19 21  0  0  0  0  0  0  0  0999 V2000
    8.9690    1.4710   21.1450 O   0  0  0  0  0  0  0  0  0  0  0  0
    8.1800    0.6440   21.6010 C   0  0  0  0  0  0  0  0  0  0  0  0
    8.0110    0.4560   22.9210 N   0  0  0  0  0  0  0  0  0  0  0  0
    7.6670   -0.8510   23.3480 C   0  0  0  0  0  0  0  0  0  0  0  0
    9.0020   -1.5420   23.4330 C   0  0  0  0  0  0  0  0  0  0  0  0
   10.1690   -0.8610   23.1650 N   0  0  0  0  0  0  0  0  0  0  0  0
   11.1360   -1.7920   23.3720 C   0  0  0  0  0  0  0  0  0  0  0  0
   12.5000   -1.6920   23.2510 C   0  0  0  0  0  0  0  0  0  0  0  0
   13.0380   -0.6370   23.5590 C   0  0  0  0  0  0  0  0  0  0  0  0
   13.2810   -1.7660   24.4770 C   0  0  0  0  0  0  0  0  0  0  0  0
   10.7560   -3.0320   23.7640 C   0  0  0  0  0  0  0  0  0  0  0  0
    9.0080   -3.2410   23.8910 S   0  0  0  0  0  0  0  0  0  0  0  0
    7.3410   -0.1880   20.9220 N   0  0  0  0  0  0  0  0  0  0  0  0
    6.5860    0.2970   19.9500 C   0  0  0  0  0  0  0  0  0  0  0  0
    5.4140    0.9770   20.3010 C   0  0  0  0  0  0  0  0  0  0  0  0
    4.6380    1.5180   19.2790 C   0  0  0  0  0  0  0  0  0  0  0  0
    5.1180    1.3280   17.8850 C   0  0  0  0  0  0  0  0  0  0  0  0
    6.2310    0.6610   17.5980 N   0  0  0  0  0  0  0  0  0  0  0  0
    6.9250    0.1680   18.6320 C   0  0  0  0  0  0  0  0  0  0  0  0
  1  2  2  0
  2  3  1  0
  3  4  1  0
  4  5  1  0
  5  6  2  0
  6  7  1  0
  7  8  1  0
  8  9  1  0
  8 10  1  0
  9 10  1  0
  7 11  2  0
  5 12  1  0
 11 12  1  0
  2 13  1  0
 13 14  1  0
 14 15  2  0
 15 16  1  0
 16 17  2  0
 17 18  1  0
 14 19  1  0
 18 19  2  0
M  END
