pyridine_urea_9674
     RDKit          3D

 20 22  0  0  0  0  0  0  0  0999 V2000
    8.8420    0.8380   21.3030 O   0  0  0  0  0  0  0  0  0  0  0  0
    8.3870   -0.2380   21.6660 C   0  0  0  0  0  0  0  0  0  0  0  0
    7.2540   -0.8130   21.1110 N   0  0  0  0  0  0  0  0  0  0  0  0
    6.5590   -0.0910   20.0620 C   0  0  0  0  0  0  0  0  0  0  0  0
    5.2900    0.6790   20.4400 C   0  0  0  0  0  0  0  0  0  0  0  0
    4.5680    1.4480   19.3280 C   0  0  0  0  0  0  0  0  0  0  0  0
    5.2040    1.3630   17.9460 C   0  0  0  0  0  0  0  0  0  0  0  0
    6.3680    0.6100   17.7660 N   0  0  0  0  0  0  0  0  0  0  0  0
    7.0040   -0.0780   18.7630 C   0  0  0  0  0  0  0  0  0  0  0  0
    8.9350   -1.0070   22.6940 N   0  0  0  0  0  0  0  0  0  0  0  0
   10.3470   -1.0900   22.8730 C   0  0  1  0  0  0  0  0  0  0  0  0
   11.0330   -1.7410   21.8150 C   0  0  0  0  0  0  0  0  0  0  0  0
   12.4160   -1.7150   21.9260 C   0  0  0  0  0  0  0  0  0  0  0  0
   12.4150   -0.9100   22.9410 C   0  0  0  0  0  0  0  0  0  0  0  0
   12.1280    0.4040   22.9760 N   0  0  0  0  0  0  0  0  0  0  0  0
   12.2260    0.8070   24.3380 N   0  0  0  0  0  0  0  0  0  0  0  0
   12.5920   -0.2640   25.1370 N   0  0  0  0  0  0  0  0  0  0  0  0
   12.6310   -1.0410   24.1560 N   0  0  0  0  0  0  0  0  0  0  0  0
   12.2120    0.2830   23.7930 C   0  0  0  0  0  0  0  0  0  0  0  0
   10.8780    0.1950   23.2690 C   0  0  0  0  0  0  0  0  0  0  0  0
  1  2  2  0
  2  3  1  0
  3  4  1  0
  4  5  2  0
  5  6  1  0
  6  7  2  0
  7  8  1  0
  4  9  1  0
  8  9  2  0
  2 10  1  0
 11 10  1  6
 11 12  1  0
 12 13  1  0
 13 14  1  0
 14 15  2  0
 15 16  1  0
 16 17  2  0
 14 18  1  0
 17 18  1  0
 18 19  1  0
 11 20  1  0
 19 20  1  0
M  END
