pyridine_urea_2958
     RDKit          3D

 21 22  0  0  0  0  0  0  0  0999 V2000
   12.7570    5.2600   23.1280 C   0  0  0  0  0  0  0  0  0  0  0  0
   12.5310    3.8220   22.6640 C   0  0  0  0  0  0  0  0  0  0  0  0
   11.8580    3.0070   23.6460 O   0  0  0  0  0  0  0  0  0  0  0  0
   11.7430    1.6990   23.2950 C   0  0  0  0  0  0  0  0  0  0  0  0
   10.5340    1.2070   23.1820 C   0  0  0  0  0  0  0  0  0  0  0  0
   10.3770   -0.2190   22.7570 C   0  0  0  0  0  0  0  0  0  0  0  0
   11.3060   -1.2380   22.4290 C   0  0  0  0  0  0  0  0  0  0  0  0
    9.8720   -1.7140   22.2920 C   0  0  0  0  0  0  0  0  0  0  0  0
    8.7200   -1.6390   22.4000 N   0  0  0  0  0  0  0  0  0  0  0  0
    8.2090   -0.5410   21.5600 C   0  0  0  0  0  0  0  0  0  0  0  0
    8.8720    0.7150   21.3550 O   0  0  0  0  0  0  0  0  0  0  0  0
    6.9400   -0.9380   21.0100 N   0  0  0  0  0  0  0  0  0  0  0  0
    6.3950   -0.1890   19.9970 C   0  0  0  0  0  0  0  0  0  0  0  0
    5.1200    0.5820   20.3610 C   0  0  0  0  0  0  0  0  0  0  0  0
    4.4950    1.4330   19.2380 C   0  0  0  0  0  0  0  0  0  0  0  0
    5.2300    1.3990   17.9070 C   0  0  0  0  0  0  0  0  0  0  0  0
    6.3700    0.6520   17.7350 N   0  0  0  0  0  0  0  0  0  0  0  0
    6.9390   -0.1190   18.7380 C   0  0  0  0  0  0  0  0  0  0  0  0
   12.5290   -0.4950   22.6450 C   0  0  0  0  0  0  0  0  0  0  0  0
   13.6310   -1.2370   22.4170 F   0  0  0  0  0  0  0  0  0  0  0  0
   12.7730    0.8370   23.0320 C   0  0  0  0  0  0  0  0  0  0  0  0
  1  2  1  0
  2  3  1  0
  3  4  1  0
  4  5  2  0
  5  6  1  0
  6  7  2  0
  7  8  1  0
  8  9  1  0
  9 10  1  0
 10 11  2  0
 10 12  1  0
 12 13  1  0
 13 14  2  0
 14 15  1  0
 15 16  2  0
 16 17  1  0
 13 18  1  0
 17 18  2  0
  7 19  1  0
 19 20  1  0
  4 21  1  0
 19 21  2  0
M  END
