pyridine_urea_6113
     RDKit          3D

 25 26  0  0  0  0  0  0  0  0999 V2000
    9.2140   -3.2320   23.8880 C   0  0  0  0  0  0  0  0  0  0  0  0
   10.6820   -2.9560   24.0800 C   0  0  0  0  0  0  0  0  0  0  0  0
   11.3300   -2.7870   22.8030 N   0  0  0  0  0  0  0  0  0  0  0  0
   10.6530   -2.2010   21.7760 C   0  0  0  0  0  0  0  0  0  0  0  0
    9.2640   -2.2360   21.8060 C   0  0  0  0  0  0  0  0  0  0  0  0
   12.9350   -2.3850   22.7790 S   0  0  0  0  0  0  0  0  0  0  0  0
   13.5780   -2.9400   23.9460 O   0  0  0  0  0  0  0  0  0  0  0  0
   13.3780   -2.5440   21.4130 O   0  0  0  0  0  0  0  0  0  0  0  0
   12.5630   -0.7120   23.0420 C   0  0  0  0  0  0  0  0  0  0  0  0
   13.2910    0.4440   22.7790 C   0  0  0  0  0  0  0  0  0  0  0  0
   12.5140    1.6250   23.1900 C   0  0  0  0  0  0  0  0  0  0  0  0
   11.0870    1.6000   23.8160 C   0  0  0  0  0  0  0  0  0  0  0  0
    9.9030    1.1020   24.3050 C   0  0  0  0  0  0  0  0  0  0  0  0
    9.5380   -0.1110   23.6860 C   0  0  0  0  0  0  0  0  0  0  0  0
    8.3700    0.1090   22.9770 N   0  0  0  0  0  0  0  0  0  0  0  0
    8.2290    0.4290   21.6390 C   0  0  0  0  0  0  0  0  0  0  0  0
    8.8570    1.3550   21.1190 O   0  0  0  0  0  0  0  0  0  0  0  0
    7.3200   -0.3940   21.0560 N   0  0  0  0  0  0  0  0  0  0  0  0
    6.5820    0.1840   20.0890 C   0  0  0  0  0  0  0  0  0  0  0  0
    5.4470    0.9640   20.2920 C   0  0  0  0  0  0  0  0  0  0  0  0
    4.7520    1.5410   19.2370 C   0  0  0  0  0  0  0  0  0  0  0  0
    5.1750    1.3540   17.9420 C   0  0  0  0  0  0  0  0  0  0  0  0
    6.2580    0.6010   17.6660 N   0  0  0  0  0  0  0  0  0  0  0  0
    6.9680    0.0090   18.7640 C   0  0  0  0  0  0  0  0  0  0  0  0
   11.1210   -0.2340   23.7170 S   0  0  0  0  0  0  0  0  0  0  0  0
  1  2  1  0
  2  3  1  0
  3  4  1  0
  4  5  1  0
  6  3  1  0
  6  7  2  0
  6  8  2  0
  6  9  1  0
  9 10  2  0
 10 11  1  0
 11 12  2  0
 12 13  1  0
 13 14  1  0
 14 15  1  0
 15 16  1  0
 16 17  2  0
 16 18  1  0
 18 19  1  0
 19 20  2  0
 20 21  1  0
 21 22  2  0
 22 23  1  0
 19 24  1  0
 23 24  2  0
  9 25  1  0
 12 25  1  0
M  END
