pyridine_urea_9851
     RDKit          3D

 25 26  0  0  0  0  0  0  0  0999 V2000
    7.9750   -3.3380   22.3360 C   0  0  0  0  0  0  0  0  0  0  0  0
    8.0470   -3.2220   23.7260 O   0  0  0  0  0  0  0  0  0  0  0  0
    9.0090   -2.2470   24.0830 C   0  0  0  0  0  0  0  0  0  0  0  0
   10.3270   -2.0810   23.7720 C   0  0  0  0  0  0  0  0  0  0  0  0
   10.6840   -0.9450   24.4510 C   0  0  0  0  0  0  0  0  0  0  0  0
   11.6910   -0.1480   24.6900 C   0  0  0  0  0  0  0  0  0  0  0  0
   12.5940   -1.0010   23.8270 C   0  0  0  0  0  0  0  0  0  0  0  0
   12.1490   -0.7890   22.4110 C   0  0  2  0  0  0  0  0  0  0  0  0
   12.1320   -1.9790   21.6850 C   0  0  0  0  0  0  0  0  0  0  0  0
   12.9660    0.0050   22.0030 O   0  0  0  0  0  0  0  0  0  0  0  0
   10.7570   -0.0710   22.5440 C   0  0  0  0  0  0  0  0  0  0  0  0
    9.6890   -0.6750   21.7420 N   0  0  0  0  0  0  0  0  0  0  0  0
    8.6750    0.1860   21.3490 C   0  0  0  0  0  0  0  0  0  0  0  0
    8.8810    1.3960   21.2290 O   0  0  0  0  0  0  0  0  0  0  0  0
    7.4770   -0.4350   21.0600 N   0  0  0  0  0  0  0  0  0  0  0  0
    6.5990    0.1370   20.1290 C   0  0  0  0  0  0  0  0  0  0  0  0
    5.4150    0.8120   20.4220 C   0  0  0  0  0  0  0  0  0  0  0  0
    4.6480    1.3710   19.2860 C   0  0  0  0  0  0  0  0  0  0  0  0
    5.1250    1.2040   17.9990 C   0  0  0  0  0  0  0  0  0  0  0  0
    6.2570    0.5420   17.7380 N   0  0  0  0  0  0  0  0  0  0  0  0
    6.9490    0.0340   18.7840 C   0  0  0  0  0  0  0  0  0  0  0  0
   10.2390   -0.0130   25.2390 C   0  0  0  0  0  0  0  0  0  0  0  0
    8.9860   -0.9130   25.0110 C   0  0  0  0  0  0  0  0  0  0  0  0
    7.8270   -0.4210   25.7280 O   0  0  0  0  0  0  0  0  0  0  0  0
    8.0840    0.1720   26.9930 C   0  0  0  0  0  0  0  0  0  0  0  0
  1  2  1  0
  2  3  1  0
  3  4  2  0
  4  5  1  0
  5  6  2  0
  6  7  1  0
  7  8  1  0
  8  9  1  6
  8 10  1  0
  8 11  1  0
 11 12  1  0
 12 13  1  0
 13 14  2  0
 13 15  1  0
 15 16  1  0
 16 17  2  0
 17 18  1  0
 18 19  2  0
 19 20  1  0
 16 21  1  0
 20 21  2  0
  6 22  1  0
  3 23  1  0
 22 23  2  0
 23 24  1  0
 24 25  1  0
M  END
