pyridine_urea_10029
     RDKit          3D

 24 25  0  0  0  0  0  0  0  0999 V2000
   10.5960    6.4630   22.7840 C   0  0  0  0  0  0  0  0  0  0  0  0
    9.7850    5.2000   23.0300 C   0  0  0  0  0  0  0  0  0  0  0  0
    9.6340    4.7390   24.3380 C   0  0  0  0  0  0  0  0  0  0  0  0
    8.7230    3.7010   24.5860 C   0  0  0  0  0  0  0  0  0  0  0  0
    8.5330    2.7630   23.5770 C   0  0  0  0  0  0  0  0  0  0  0  0
    8.8660    1.5790   23.7260 O   0  0  0  0  0  0  0  0  0  0  0  0
   10.1100    1.2040   23.2890 C   0  0  0  0  0  0  0  0  0  0  0  0
   11.1390    2.3470   23.1300 C   0  0  0  0  0  0  0  0  0  0  0  0
   12.3600    2.1650   22.7530 C   0  0  0  0  0  0  0  0  0  0  0  0
   13.3070    3.1700   22.5900 C   0  0  0  0  0  0  0  0  0  0  0  0
   12.3990    0.6970   22.5670 C   0  0  0  0  0  0  0  0  0  0  0  0
   11.6040   -0.3910   22.6550 C   0  0  0  0  0  0  0  0  0  0  0  0
   10.1360   -0.2190   23.0860 C   0  0  0  0  0  0  0  0  0  0  0  0
   10.2930   -1.5550   22.8540 C   0  0  0  0  0  0  0  0  0  0  0  0
    9.1590   -1.8020   21.9730 N   0  0  0  0  0  0  0  0  0  0  0  0
    8.4960   -0.6890   21.4240 C   0  0  0  0  0  0  0  0  0  0  0  0
    9.0170    0.4180   21.3260 O   0  0  0  0  0  0  0  0  0  0  0  0
    7.2080   -0.9710   21.0040 N   0  0  0  0  0  0  0  0  0  0  0  0
    6.4700   -0.1950   20.0750 C   0  0  0  0  0  0  0  0  0  0  0  0
    5.2920    0.5140   20.3360 C   0  0  0  0  0  0  0  0  0  0  0  0
    4.6680    1.2500   19.3240 C   0  0  0  0  0  0  0  0  0  0  0  0
    5.2430    1.2570   18.0700 C   0  0  0  0  0  0  0  0  0  0  0  0
    6.3730    0.5840   17.7830 N   0  0  0  0  0  0  0  0  0  0  0  0
    6.9470   -0.1180   18.7800 C   0  0  0  0  0  0  0  0  0  0  0  0
  1  2  1  0
  2  3  1  0
  3  4  1  0
  4  5  1  0
  5  6  1  0
  6  7  1  0
  7  8  2  0
  8  9  1  0
  9 10  1  0
  9 11  2  0
 11 12  1  0
  7 13  1  0
 12 13  2  0
 13 14  1  0
 14 15  1  0
 15 16  1  0
 16 17  2  0
 16 18  1  0
 18 19  1  0
 19 20  2  0
 20 21  1  0
 21 22  2  0
 22 23  1  0
 19 24  1  0
 23 24  2  0
M  END
