pyridine_urea_8408
     RDKit          3D

 22 23  0  0  0  0  0  0  0  0999 V2000
   12.9020   -2.1760   21.2550 C   0  0  0  0  0  0  0  0  0  0  0  0
   12.1550   -1.2500   22.0200 O   0  0  0  0  0  0  0  0  0  0  0  0
   10.7410   -1.4660   21.9010 C   0  0  0  0  0  0  0  0  0  0  0  0
   10.0930   -0.7830   23.1280 C   0  0  2  0  0  0  0  0  0  0  0  0
    8.7720   -0.2510   22.8490 N   0  0  0  0  0  0  0  0  0  0  0  0
    8.3690    0.2670   21.6480 C   0  0  0  0  0  0  0  0  0  0  0  0
    8.9090    1.4080   21.0890 O   0  0  0  0  0  0  0  0  0  0  0  0
    7.2920   -0.4980   21.0490 N   0  0  0  0  0  0  0  0  0  0  0  0
    6.5490    0.1130   20.0800 C   0  0  0  0  0  0  0  0  0  0  0  0
    5.3820    0.8030   20.4150 C   0  0  0  0  0  0  0  0  0  0  0  0
    4.6240    1.4720   19.2930 C   0  0  0  0  0  0  0  0  0  0  0  0
    5.1860    1.3400   17.9100 C   0  0  0  0  0  0  0  0  0  0  0  0
    6.3140    0.6460   17.6860 N   0  0  0  0  0  0  0  0  0  0  0  0
    6.9440    0.0660   18.7440 C   0  0  0  0  0  0  0  0  0  0  0  0
   11.1110    0.2160   23.6280 C   0  0  0  0  0  0  0  0  0  0  0  0
   11.0990    1.5920   23.5350 C   0  0  0  0  0  0  0  0  0  0  0  0
   12.0630    0.5050   24.1120 C   0  0  0  0  0  0  0  0  0  0  0  0
   11.0450   -0.5580   23.6200 C   0  0  0  0  0  0  0  0  0  0  0  0
   11.9490   -1.4960   24.1790 C   0  0  0  0  0  0  0  0  0  0  0  0
   13.1190   -1.2320   24.8240 C   0  0  0  0  0  0  0  0  0  0  0  0
   13.7640   -2.2410   25.4490 N   0  0  0  0  0  0  0  0  0  0  0  0
   12.2960   -0.2110   24.3010 C   0  0  0  0  0  0  0  0  0  0  0  0
  1  2  1  0
  2  3  1  0
  4  3  1  6
  4  5  1  0
  5  6  1  0
  6  7  2  0
  6  8  1  0
  8  9  1  0
  9 10  2  0
 10 11  1  0
 11 12  2  0
 12 13  1  0
  9 14  1  0
 13 14  2  0
  4 15  1  0
 15 16  2  0
 16 17  1  0
 17 18  2  0
 18 19  1  0
 19 20  1  0
 20 21  3  0
 15 22  1  0
 19 22  2  0
M  END
