pyridine_urea_4433
     RDKit          3D

 23 25  0  0  0  0  0  0  0  0999 V2000
   13.6760   -3.1160   25.5420 C   0  0  0  0  0  0  0  0  0  0  0  0
   13.7820   -2.3650   24.3620 O   0  0  0  0  0  0  0  0  0  0  0  0
   13.3370   -1.0750   24.7200 C   0  0  0  0  0  0  0  0  0  0  0  0
   13.2450   -0.6800   25.8460 O   0  0  0  0  0  0  0  0  0  0  0  0
   12.9240   -0.2130   23.6060 C   0  0  0  0  0  0  0  0  0  0  0  0
   11.6180   -0.2580   23.4730 C   0  0  0  0  0  0  0  0  0  0  0  0
   10.6910    0.6730   24.1320 C   0  0  0  0  0  0  0  0  0  0  0  0
    9.2400    0.5290   23.9140 C   0  0  0  0  0  0  0  0  0  0  0  0
    8.7480   -0.5990   22.9890 C   0  0  0  0  0  0  0  0  0  0  0  0
    7.4230   -0.8280   22.6670 N   0  0  0  0  0  0  0  0  0  0  0  0
    7.4030   -0.4010   21.4000 C   0  0  0  0  0  0  0  0  0  0  0  0
    8.2840    0.3400   20.9710 O   0  0  0  0  0  0  0  0  0  0  0  0
    6.3450   -0.8600   20.7390 N   0  0  0  0  0  0  0  0  0  0  0  0
    5.8580   -0.0330   19.7740 C   0  0  0  0  0  0  0  0  0  0  0  0
    4.7170    0.7190   19.8940 C   0  0  0  0  0  0  0  0  0  0  0  0
    4.3380    1.5370   18.8500 C   0  0  0  0  0  0  0  0  0  0  0  0
    5.1350    1.5650   17.7130 C   0  0  0  0  0  0  0  0  0  0  0  0
    6.2520    0.8300   17.5770 N   0  0  0  0  0  0  0  0  0  0  0  0
    6.5860    0.0520   18.6120 C   0  0  0  0  0  0  0  0  0  0  0  0
    9.7850   -1.5040   22.3530 C   0  0  0  0  0  0  0  0  0  0  0  0
   11.1460   -1.3520   22.5780 C   0  0  0  0  0  0  0  0  0  0  0  0
   13.5210    0.3660   22.5070 C   0  0  0  0  0  0  0  0  0  0  0  0
   13.4230   -0.9000   22.3050 C   0  0  0  0  0  0  0  0  0  0  0  0
  1  2  1  0
  2  3  1  0
  3  4  2  0
  5  3  1  0
  5  6  1  0
  6  7  2  0
  7  8  1  0
  8  9  2  0
  9 10  1  0
 10 11  1  0
 11 12  2  0
 11 13  1  0
 13 14  1  0
 14 15  2  0
 15 16  1  0
 16 17  2  0
 17 18  1  0
 14 19  1  0
 18 19  2  0
  9 20  1  0
  6 21  1  0
 20 21  2  0
  5 22  1  0
  5 23  1  0
 22 23  1  0
M  END
