pyridine_urea_2979
     RDKit          3D

 21 22  0  0  0  0  0  0  0  0999 V2000
   13.0120   -2.9370   20.8830 C   0  0  0  0  0  0  0  0  0  0  0  0
   11.7620   -2.2880   20.8340 O   0  0  0  0  0  0  0  0  0  0  0  0
   11.4780   -1.6750   22.0560 C   0  0  0  0  0  0  0  0  0  0  0  0
   12.5000   -1.8540   23.0730 C   0  0  0  0  0  0  0  0  0  0  0  0
   12.3200   -1.3480   24.2660 C   0  0  0  0  0  0  0  0  0  0  0  0
   13.4290   -1.7410   25.1200 C   0  0  0  0  0  0  0  0  0  0  0  0
   13.3700   -3.0920   25.3340 C   0  0  0  0  0  0  0  0  0  0  0  0
   14.0880   -3.4130   26.2600 O   0  0  0  0  0  0  0  0  0  0  0  0
   11.2630   -0.5950   24.7190 C   0  0  0  0  0  0  0  0  0  0  0  0
   10.0840   -0.2820   23.7880 C   0  0  0  0  0  0  0  0  0  0  0  0
   10.2370   -0.9040   22.3780 C   0  0  0  0  0  0  0  0  0  0  0  0
    9.1960   -0.7480   21.4270 N   0  0  0  0  0  0  0  0  0  0  0  0
    8.3900    0.3190   21.3120 C   0  0  0  0  0  0  0  0  0  0  0  0
    8.8620    1.6670   21.3030 O   0  0  0  0  0  0  0  0  0  0  0  0
    7.0800   -0.1230   21.1390 N   0  0  0  0  0  0  0  0  0  0  0  0
    6.4070    0.3450   20.0340 C   0  0  0  0  0  0  0  0  0  0  0  0
    5.1390    1.1430   20.2310 C   0  0  0  0  0  0  0  0  0  0  0  0
    4.5110    1.6280   19.1030 C   0  0  0  0  0  0  0  0  0  0  0  0
    5.0820    1.3520   17.8680 C   0  0  0  0  0  0  0  0  0  0  0  0
    6.1960    0.6330   17.6730 N   0  0  0  0  0  0  0  0  0  0  0  0
    6.8370    0.1430   18.7460 C   0  0  0  0  0  0  0  0  0  0  0  0
  1  2  1  0
  2  3  1  0
  3  4  2  0
  4  5  1  0
  5  6  1  0
  6  7  1  0
  7  8  1  0
  5  9  2  0
  9 10  1  0
  3 11  1  0
 10 11  2  0
 11 12  1  0
 12 13  1  0
 13 14  2  0
 13 15  1  0
 15 16  1  0
 16 17  2  0
 17 18  1  0
 18 19  2  0
 19 20  1  0
 16 21  1  0
 20 21  2  0
M  END
