pyridine_urea_13653
     RDKit          3D

 26 29  0  0  0  0  0  0  0  0999 V2000
    8.4850    1.3740   21.0420 O   0  0  0  0  0  0  0  0  0  0  0  0
    8.2270    0.1640   21.1340 C   0  0  0  0  0  0  0  0  0  0  0  0
    7.0040   -0.3970   20.9530 N   0  0  0  0  0  0  0  0  0  0  0  0
    6.2390    0.2230   20.0060 C   0  0  0  0  0  0  0  0  0  0  0  0
    4.8970    0.9030   20.2640 C   0  0  0  0  0  0  0  0  0  0  0  0
    4.3160    1.5430   19.0130 C   0  0  0  0  0  0  0  0  0  0  0  0
    5.1010    1.4260   17.7490 C   0  0  0  0  0  0  0  0  0  0  0  0
    6.2710    0.7820   17.6450 N   0  0  0  0  0  0  0  0  0  0  0  0
    6.7870    0.2190   18.7400 C   0  0  0  0  0  0  0  0  0  0  0  0
    9.1720   -0.7790   21.3830 N   0  0  0  0  0  0  0  0  0  0  0  0
   10.1020   -0.5740   22.4510 C   0  0  2  0  0  0  0  0  0  0  0  0
    9.4500   -0.2600   23.6200 C   0  0  0  0  0  0  0  0  0  0  0  0
   10.2380   -1.0820   24.2160 C   0  0  0  0  0  0  0  0  0  0  0  0
   10.8570   -1.0830   23.1360 O   0  0  0  0  0  0  0  0  0  0  0  0
   11.8040   -0.0500   23.1890 C   0  0  0  0  0  0  0  0  0  0  0  0
   11.6520   -1.2510   23.6520 C   0  0  0  0  0  0  0  0  0  0  0  0
   12.4170   -1.9550   24.4440 C   0  0  0  0  0  0  0  0  0  0  0  0
   13.3480   -1.2360   25.2020 C   0  0  0  0  0  0  0  0  0  0  0  0
   14.1130   -1.9830   26.0510 C   0  0  0  0  0  0  0  0  0  0  0  0
   14.0470   -3.1450   26.1450 C   0  0  0  0  0  0  0  0  0  0  0  0
   13.2840   -3.7650   25.5310 C   0  0  0  0  0  0  0  0  0  0  0  0
   12.3470   -3.3490   24.6150 C   0  0  0  0  0  0  0  0  0  0  0  0
   10.3780   -1.7420   23.1320 C   0  0  0  0  0  0  0  0  0  0  0  0
    9.4040   -0.8530   22.1890 C   0  0  0  0  0  0  0  0  0  0  0  0
    9.7950    0.4940   21.8330 C   0  0  0  0  0  0  0  0  0  0  0  0
   10.9660    0.6520   22.4120 C   0  0  0  0  0  0  0  0  0  0  0  0
  1  2  2  0
  2  3  1  0
  3  4  1  0
  4  5  2  0
  5  6  1  0
  6  7  2  0
  7  8  1  0
  4  9  1  0
  8  9  2  0
  2 10  1  0
 11 10  1  6
 11 12  1  0
 12 13  1  0
 13 14  1  0
 14 15  1  0
 15 16  2  0
 16 17  1  0
 17 18  2  0
 18 19  1  0
 19 20  2  0
 20 21  1  0
 17 22  1  0
 21 22  2  0
 16 23  1  0
 23 24  2  0
 24 25  1  0
 11 26  1  0
 15 26  1  0
 25 26  2  0
M  END
