pyridine_urea_2913
     RDKit          3D

 22 24  0  0  0  0  0  0  0  0999 V2000
    8.6430    0.5350   21.1710 O   0  0  0  0  0  0  0  0  0  0  0  0
    8.2760   -0.5930   21.4570 C   0  0  0  0  0  0  0  0  0  0  0  0
    9.0920   -1.4110   22.2340 N   0  0  0  0  0  0  0  0  0  0  0  0
   10.2300   -0.5700   22.4830 C   0  0  0  0  0  0  0  0  0  0  0  0
   11.7600   -0.9940   22.4210 C   0  0  0  0  0  0  0  0  0  0  0  0
   12.7820   -0.0340   22.6340 C   0  0  0  0  0  0  0  0  0  0  0  0
   12.3780    1.4330   22.9200 C   0  0  0  0  0  0  0  0  0  0  0  0
   13.0830    2.5660   23.1240 O   0  0  0  0  0  0  0  0  0  0  0  0
   12.3250    3.8140   23.2080 C   0  0  0  0  0  0  0  0  0  0  0  0
   13.2380    4.9510   23.6140 C   0  0  0  0  0  0  0  0  0  0  0  0
   12.8720    6.2040   22.9130 C   0  0  0  0  0  0  0  0  0  0  0  0
   11.8100    5.6240   22.0250 C   0  0  0  0  0  0  0  0  0  0  0  0
   11.7830    4.0900   21.9850 C   0  0  0  0  0  0  0  0  0  0  0  0
   10.9600    1.8080   22.9990 C   0  0  0  0  0  0  0  0  0  0  0  0
    9.8380    0.8850   22.8060 C   0  0  0  0  0  0  0  0  0  0  0  0
    7.0700   -1.0700   21.0310 N   0  0  0  0  0  0  0  0  0  0  0  0
    6.3260   -0.2530   20.0540 C   0  0  0  0  0  0  0  0  0  0  0  0
    5.1130    0.4200   20.2760 C   0  0  0  0  0  0  0  0  0  0  0  0
    4.5630    1.1620   19.2330 C   0  0  0  0  0  0  0  0  0  0  0  0
    5.2100    1.2220   18.0250 C   0  0  0  0  0  0  0  0  0  0  0  0
    6.3660    0.5930   17.7670 N   0  0  0  0  0  0  0  0  0  0  0  0
    6.8870   -0.1260   18.7880 C   0  0  0  0  0  0  0  0  0  0  0  0
  1  2  2  0
  2  3  1  0
  3  4  1  0
  4  5  2  0
  5  6  1  0
  6  7  2  0
  7  8  1  0
  8  9  1  0
  9 10  1  0
 10 11  1  0
 11 12  1  0
  9 13  1  0
 12 13  1  0
  7 14  1  0
  4 15  1  0
 14 15  2  0
  2 16  1  0
 16 17  1  0
 17 18  2  0
 18 19  1  0
 19 20  2  0
 20 21  1  0
 17 22  1  0
 21 22  2  0
M  END
