pyridine_urea_12505
     RDKit          3D

 21 22  0  0  0  0  0  0  0  0999 V2000
    9.3150   -0.4170   21.2300 O   0  0  0  0  0  0  0  0  0  0  0  0
    8.1620   -0.3860   21.5850 C   0  0  0  0  0  0  0  0  0  0  0  0
    7.8130    0.1730   22.7810 N   0  0  0  0  0  0  0  0  0  0  0  0
    8.5020    1.4110   23.0870 C   0  0  0  0  0  0  0  0  0  0  0  0
   10.0330    1.1300   23.0740 C   0  0  0  0  0  0  0  0  0  0  0  0
   10.8620    2.3760   22.8520 N   0  0  0  0  0  0  0  0  0  0  0  0
   12.3050    2.1180   22.8330 C   0  0  0  0  0  0  0  0  0  0  0  0
   12.8670    0.7110   23.0260 C   0  0  0  0  0  0  0  0  0  0  0  0
   11.9580   -0.3220   23.2300 C   0  0  0  0  0  0  0  0  0  0  0  0
   12.5170   -1.7380   23.4420 C   0  0  0  0  0  0  0  0  0  0  0  0
   11.6130   -2.7090   23.6150 F   0  0  0  0  0  0  0  0  0  0  0  0
   13.1940   -2.0750   22.3280 F   0  0  0  0  0  0  0  0  0  0  0  0
   13.3530   -1.8930   24.4740 F   0  0  0  0  0  0  0  0  0  0  0  0
   10.5950   -0.1370   23.2540 N   0  0  0  0  0  0  0  0  0  0  0  0
    7.0620   -0.8370   20.9120 N   0  0  0  0  0  0  0  0  0  0  0  0
    6.3400   -0.0750   19.9870 C   0  0  0  0  0  0  0  0  0  0  0  0
    5.0500    0.6610   20.3130 C   0  0  0  0  0  0  0  0  0  0  0  0
    4.4480    1.4410   19.1590 C   0  0  0  0  0  0  0  0  0  0  0  0
    5.2300    1.3600   17.8690 C   0  0  0  0  0  0  0  0  0  0  0  0
    6.3640    0.6600   17.7160 N   0  0  0  0  0  0  0  0  0  0  0  0
    6.8720   -0.0080   18.7140 C   0  0  0  0  0  0  0  0  0  0  0  0
  1  2  2  0
  2  3  1  0
  3  4  1  0
  4  5  1  0
  5  6  2  0
  6  7  1  0
  7  8  2  0
  8  9  1  0
  9 10  1  0
 10 11  1  0
 10 12  1  0
 10 13  1  0
  5 14  1  0
  9 14  2  0
  2 15  1  0
 15 16  1  0
 16 17  2  0
 17 18  1  0
 18 19  2  0
 19 20  1  0
 16 21  1  0
 20 21  2  0
M  END
