pyridine_urea_1448
     RDKit          3D

 19 21  0  0  0  0  0  0  0  0999 V2000
    4.1270    0.3960   21.1750 C   0  0  0  0  0  0  0  0  0  0  0  0
    5.6690    0.4560   20.9700 C   0  0  2  0  0  0  0  0  0  0  0  0
    5.9700    1.6830   20.1350 C   0  0  0  0  0  0  0  0  0  0  0  0
    6.4450    1.0590   18.9220 N   0  0  0  0  0  0  0  0  0  0  0  0
    5.5710    1.2170   17.9350 C   0  0  0  0  0  0  0  0  0  0  0  0
    4.5460    0.6280   18.2040 C   0  0  0  0  0  0  0  0  0  0  0  0
    4.4560    2.0980   18.2490 C   0  0  0  0  0  0  0  0  0  0  0  0
    6.7510   -0.2930   19.0360 C   0  0  0  0  0  0  0  0  0  0  0  0
    6.3510   -0.6020   20.3470 C   0  0  1  0  0  0  0  0  0  0  0  0
    7.4280   -1.0980   21.0550 N   0  0  0  0  0  0  0  0  0  0  0  0
    8.4710   -0.3420   21.5830 C   0  0  0  0  0  0  0  0  0  0  0  0
    8.6550    0.8320   21.2750 O   0  0  0  0  0  0  0  0  0  0  0  0
    9.2160   -1.0640   22.4430 N   0  0  0  0  0  0  0  0  0  0  0  0
   10.4790   -0.6120   22.5640 C   0  0  0  0  0  0  0  0  0  0  0  0
   10.6500    0.7330   22.9260 C   0  0  0  0  0  0  0  0  0  0  0  0
   12.0650    1.1900   23.0330 C   0  0  0  0  0  0  0  0  0  0  0  0
   13.0910    0.3500   22.8030 C   0  0  0  0  0  0  0  0  0  0  0  0
   12.9610   -0.9510   22.4550 N   0  0  0  0  0  0  0  0  0  0  0  0
   11.6570   -1.3430   22.3560 C   0  0  0  0  0  0  0  0  0  0  0  0
  2  1  1  6
  2  3  1  0
  3  4  1  0
  4  5  1  0
  5  6  1  0
  5  7  1  0
  6  7  1  0
  4  8  1  0
  2  9  1  0
  8  9  1  0
  9 10  1  1
 10 11  1  0
 11 12  2  0
 11 13  1  0
 13 14  1  0
 14 15  2  0
 15 16  1  0
 16 17  2  0
 17 18  1  0
 14 19  1  0
 18 19  2  0
M  END
