pyridine_urea_8720
     RDKit          3D

 21 22  0  0  0  0  0  0  0  0999 V2000
    7.5550    0.8640   25.6910 C   0  0  0  0  0  0  0  0  0  0  0  0
    8.9920    0.6910   25.3020 C   0  0  0  0  0  0  0  0  0  0  0  0
    9.8010   -0.1280   26.1590 O   0  0  0  0  0  0  0  0  0  0  0  0
    9.5130    1.3430   24.1130 N   0  0  0  0  0  0  0  0  0  0  0  0
   10.5850    0.5320   23.4920 C   0  0  0  0  0  0  0  0  0  0  0  0
   11.8940    0.9050   23.7920 C   0  0  0  0  0  0  0  0  0  0  0  0
   12.9070    0.1830   23.2380 C   0  0  0  0  0  0  0  0  0  0  0  0
   12.5340   -0.9520   22.3630 C   0  0  0  0  0  0  0  0  0  0  0  0
   12.9990   -1.9930   21.5620 C   0  0  0  0  0  0  0  0  0  0  0  0
   11.1810   -1.4050   22.0010 C   0  0  0  0  0  0  0  0  0  0  0  0
   10.2590   -0.5550   22.6390 C   0  0  0  0  0  0  0  0  0  0  0  0
    8.9560   -0.8470   22.3590 N   0  0  0  0  0  0  0  0  0  0  0  0
    8.2450   -0.0620   21.4300 C   0  0  0  0  0  0  0  0  0  0  0  0
    8.6980    1.1970   21.0560 O   0  0  0  0  0  0  0  0  0  0  0  0
    7.1270   -0.6880   21.0010 N   0  0  0  0  0  0  0  0  0  0  0  0
    6.4290   -0.0100   20.0650 C   0  0  0  0  0  0  0  0  0  0  0  0
    5.2440    0.7040   20.2950 C   0  0  0  0  0  0  0  0  0  0  0  0
    4.6250    1.3760   19.2360 C   0  0  0  0  0  0  0  0  0  0  0  0
    5.2180    1.3040   17.9860 C   0  0  0  0  0  0  0  0  0  0  0  0
    6.3510    0.6210   17.7400 N   0  0  0  0  0  0  0  0  0  0  0  0
    6.9280   -0.0180   18.7730 C   0  0  0  0  0  0  0  0  0  0  0  0
  1  2  1  0
  2  3  2  0
  2  4  1  0
  4  5  1  0
  5  6  2  0
  6  7  1  0
  7  8  2  0
  8  9  1  0
  8 10  1  0
  5 11  1  0
 10 11  2  0
 11 12  1  0
 12 13  1  0
 13 14  2  0
 13 15  1  0
 15 16  1  0
 16 17  2  0
 17 18  1  0
 18 19  2  0
 19 20  1  0
 16 21  1  0
 20 21  2  0
M  END
