pyridine_urea_13016
     RDKit          3D

 18 19  0  0  0  0  0  0  0  0999 V2000
   13.2160   -2.3790   24.1340 C   0  0  0  0  0  0  0  0  0  0  0  0
   12.5290   -1.4330   23.1820 C   0  0  0  0  0  0  0  0  0  0  0  0
   12.7910   -1.6130   21.8290 C   0  0  0  0  0  0  0  0  0  0  0  0
   12.9790   -0.0100   23.5570 C   0  0  0  0  0  0  0  0  0  0  0  0
   11.8470    0.6980   23.4830 C   0  0  0  0  0  0  0  0  0  0  0  0
   10.8170   -0.3270   23.0770 C   0  0  2  0  0  0  0  0  0  0  0  0
    9.5600   -0.1050   23.5650 C   0  0  0  0  0  0  0  0  0  0  0  0
    8.7010   -0.7260   22.6030 N   0  0  0  0  0  0  0  0  0  0  0  0
    8.2900    0.0270   21.5330 C   0  0  0  0  0  0  0  0  0  0  0  0
    8.8870    1.0720   21.2150 O   0  0  0  0  0  0  0  0  0  0  0  0
    7.1840   -0.5220   20.9450 N   0  0  0  0  0  0  0  0  0  0  0  0
    6.4250    0.1370   19.9880 C   0  0  0  0  0  0  0  0  0  0  0  0
    5.2600    0.8440   20.2200 C   0  0  0  0  0  0  0  0  0  0  0  0
    4.5980    1.4810   19.1750 C   0  0  0  0  0  0  0  0  0  0  0  0
    5.1580    1.3750   17.9030 C   0  0  0  0  0  0  0  0  0  0  0  0
    6.2810    0.6870   17.6520 N   0  0  0  0  0  0  0  0  0  0  0  0
    6.8790    0.0900   18.6910 C   0  0  0  0  0  0  0  0  0  0  0  0
   11.2930   -1.4660   23.2020 O   0  0  0  0  0  0  0  0  0  0  0  0
  2  1  1  0
  2  3  1  0
  2  4  1  0
  4  5  1  0
  5  6  1  0
  6  7  1  1
  7  8  1  0
  8  9  1  0
  9 10  2  0
  9 11  1  0
 11 12  1  0
 12 13  2  0
 13 14  1  0
 14 15  2  0
 15 16  1  0
 12 17  1  0
 16 17  2  0
  2 18  1  0
  6 18  1  0
M  END
