pyridine_urea_12661
     RDKit          3D

 20 20  0  0  0  0  0  0  0  0999 V2000
   13.3090   -0.7210   23.3880 C   0  0  0  0  0  0  0  0  0  0  0  0
   12.2280   -0.8000   22.3310 C   0  0  0  0  0  0  0  0  0  0  0  0
   11.0760   -1.7270   22.7400 C   0  0  2  0  0  0  0  0  0  0  0  0
   10.3820   -2.3190   21.7280 C   0  0  0  0  0  0  0  0  0  0  0  0
    9.9920   -0.9480   23.4460 C   0  0  1  0  0  0  0  0  0  0  0  0
   10.1170    0.3690   23.8250 C   0  0  0  0  0  0  0  0  0  0  0  0
   11.4070    0.8250   23.9250 C   0  0  0  0  0  0  0  0  0  0  0  0
   12.5370    0.9440   24.3130 O   0  0  0  0  0  0  0  0  0  0  0  0
   11.2250   -0.0460   24.7860 O   0  0  0  0  0  0  0  0  0  0  0  0
   12.3280   -0.9630   24.9890 C   0  0  0  0  0  0  0  0  0  0  0  0
    8.7470   -1.0490   22.6850 N   0  0  0  0  0  0  0  0  0  0  0  0
    8.3450   -0.1820   21.6990 C   0  0  0  0  0  0  0  0  0  0  0  0
    8.9710    0.8240   21.3860 O   0  0  0  0  0  0  0  0  0  0  0  0
    7.1300   -0.6030   21.1230 N   0  0  0  0  0  0  0  0  0  0  0  0
    6.5230    0.0030   20.0530 C   0  0  0  0  0  0  0  0  0  0  0  0
    5.3840    0.7400   20.3950 C   0  0  0  0  0  0  0  0  0  0  0  0
    4.6810    1.4420   19.2810 C   0  0  0  0  0  0  0  0  0  0  0  0
    5.1760    1.3290   18.0050 C   0  0  0  0  0  0  0  0  0  0  0  0
    6.2720    0.6050   17.6860 N   0  0  0  0  0  0  0  0  0  0  0  0
    6.9360   -0.0580   18.7400 C   0  0  0  0  0  0  0  0  0  0  0  0
  1  2  1  0
  2  3  1  0
  3  4  1  6
  3  5  1  0
  5  6  1  6
  6  7  1  0
  7  8  2  0
  7  9  1  0
  9 10  1  0
  5 11  1  0
 11 12  1  0
 12 13  2  0
 12 14  1  0
 14 15  1  0
 15 16  2  0
 16 17  1  0
 17 18  2  0
 18 19  1  0
 15 20  1  0
 19 20  2  0
M  END
