pyridine_urea_12448
     RDKit          3D

 21 22  0  0  0  0  0  0  0  0999 V2000
   12.5480    3.7560   22.5990 C   0  0  0  0  0  0  0  0  0  0  0  0
   11.1470    3.3120   23.0280 C   0  0  0  0  0  0  0  0  0  0  0  0
   10.5280    4.5040   23.8300 C   0  0  0  0  0  0  0  0  0  0  0  0
   11.2680    2.1910   23.9350 O   0  0  0  0  0  0  0  0  0  0  0  0
   10.9210    0.9510   23.4440 C   0  0  0  0  0  0  0  0  0  0  0  0
    9.5400    0.4140   23.4050 C   0  0  0  0  0  0  0  0  0  0  0  0
    9.3880   -0.8410   22.8340 C   0  0  0  0  0  0  0  0  0  0  0  0
    8.0430   -1.3000   22.7570 N   0  0  0  0  0  0  0  0  0  0  0  0
    7.6410   -0.5410   21.5810 C   0  0  0  0  0  0  0  0  0  0  0  0
    8.3300    0.5760   21.1560 O   0  0  0  0  0  0  0  0  0  0  0  0
    6.5030   -1.0970   20.9790 N   0  0  0  0  0  0  0  0  0  0  0  0
    6.0980   -0.2600   19.9600 C   0  0  0  0  0  0  0  0  0  0  0  0
    4.8680    0.5880   20.2190 C   0  0  0  0  0  0  0  0  0  0  0  0
    4.4100    1.5100   19.1040 C   0  0  0  0  0  0  0  0  0  0  0  0
    5.2740    1.4500   17.8600 C   0  0  0  0  0  0  0  0  0  0  0  0
    6.3560    0.6610   17.7230 N   0  0  0  0  0  0  0  0  0  0  0  0
    6.7410   -0.1540   18.7370 C   0  0  0  0  0  0  0  0  0  0  0  0
   10.4320   -1.6100   22.3340 C   0  0  0  0  0  0  0  0  0  0  0  0
   11.6830   -1.1150   22.3850 C   0  0  0  0  0  0  0  0  0  0  0  0
   11.8650    0.1200   22.9180 C   0  0  0  0  0  0  0  0  0  0  0  0
   13.5200    0.6110   22.8540 Br  0  0  0  0  0  0  0  0  0  0  0  0
  1  2  1  0
  2  3  1  0
  2  4  1  0
  4  5  1  0
  5  6  2  0
  6  7  1  0
  7  8  1  0
  8  9  1  0
  9 10  2  0
  9 11  1  0
 11 12  1  0
 12 13  2  0
 13 14  1  0
 14 15  2  0
 15 16  1  0
 12 17  1  0
 16 17  2  0
  7 18  2  0
 18 19  1  0
  5 20  1  0
 19 20  2  0
 20 21  1  0
M  END
