pyridine_urea_6741
     RDKit          3D

 21 23  0  0  0  0  0  0  0  0999 V2000
    8.7520    0.7870   21.2970 O   0  0  0  0  0  0  0  0  0  0  0  0
    8.3830   -0.3720   21.4270 C   0  0  0  0  0  0  0  0  0  0  0  0
    9.1060   -1.4100   21.9710 N   0  0  0  0  0  0  0  0  0  0  0  0
   10.4060   -1.3030   22.4980 C   0  0  0  0  0  0  0  0  0  0  0  0
   11.6340   -1.9200   21.8000 C   0  0  0  0  0  0  0  0  0  0  0  0
   12.3640   -0.9970   22.3590 C   0  0  0  0  0  0  0  0  0  0  0  0
   12.4180    0.0410   23.1360 C   0  0  0  0  0  0  0  0  0  0  0  0
   11.8430    0.9620   23.9510 C   0  0  0  0  0  0  0  0  0  0  0  0
   10.4790    0.8810   24.1790 C   0  0  0  0  0  0  0  0  0  0  0  0
    9.9860    2.0800   23.7020 C   0  0  0  0  0  0  0  0  0  0  0  0
   11.0500    2.8320   23.2060 C   0  0  0  0  0  0  0  0  0  0  0  0
   12.2290    2.0860   23.0270 C   0  0  0  0  0  0  0  0  0  0  0  0
   13.6400   -0.3500   22.6010 O   0  0  0  0  0  0  0  0  0  0  0  0
   13.1310   -1.6070   21.7530 N   0  0  0  0  0  0  0  0  0  0  0  0
    7.1370   -0.7690   21.0050 N   0  0  0  0  0  0  0  0  0  0  0  0
    6.4070   -0.0590   20.1070 C   0  0  0  0  0  0  0  0  0  0  0  0
    5.1970    0.6440   20.4090 C   0  0  0  0  0  0  0  0  0  0  0  0
    4.6210    1.3660   19.1790 C   0  0  0  0  0  0  0  0  0  0  0  0
    5.2180    1.3230   17.9460 C   0  0  0  0  0  0  0  0  0  0  0  0
    6.3360    0.6610   17.6740 N   0  0  0  0  0  0  0  0  0  0  0  0
    6.8890   -0.0200   18.8100 C   0  0  0  0  0  0  0  0  0  0  0  0
  1  2  2  0
  2  3  1  0
  3  4  1  0
  4  5  1  0
  5  6  1  0
  6  7  2  0
  7  8  1  0
  8  9  1  0
  9 10  1  0
 10 11  1  0
  8 12  1  0
 11 12  1  0
  7 13  1  0
  5 14  2  0
 13 14  1  0
  2 15  1  0
 15 16  1  0
 16 17  2  0
 17 18  1  0
 18 19  2  0
 19 20  1  0
 16 21  1  0
 20 21  2  0
M  END
