pyridine_urea_5056
     RDKit          3D

 20 22  0  0  0  0  0  0  0  0999 V2000
   13.4640   -2.6950   20.8820 C   0  0  0  0  0  0  0  0  0  0  0  0
   12.8260   -1.8540   21.6070 N   0  0  0  0  0  0  0  0  0  0  0  0
   13.1550   -0.8660   22.5620 C   0  0  0  0  0  0  0  0  0  0  0  0
   12.0480   -0.2670   22.9990 C   0  0  0  0  0  0  0  0  0  0  0  0
   11.7780    0.7530   23.9170 C   0  0  0  0  0  0  0  0  0  0  0  0
   10.4530    1.0970   24.0620 C   0  0  0  0  0  0  0  0  0  0  0  0
    9.4880    0.3310   23.2080 C   0  0  0  0  0  0  0  0  0  0  0  0
    8.1690    0.4270   23.0540 N   0  0  0  0  0  0  0  0  0  0  0  0
    7.8800    0.5640   21.6790 C   0  0  0  0  0  0  0  0  0  0  0  0
    8.4910    1.4160   21.0170 O   0  0  0  0  0  0  0  0  0  0  0  0
    6.9570   -0.3010   21.2140 N   0  0  0  0  0  0  0  0  0  0  0  0
    6.3100    0.2220   20.1560 C   0  0  0  0  0  0  0  0  0  0  0  0
    5.1090    0.9210   20.2530 C   0  0  0  0  0  0  0  0  0  0  0  0
    4.5420    1.4380   19.1040 C   0  0  0  0  0  0  0  0  0  0  0  0
    5.1870    1.2460   17.8930 C   0  0  0  0  0  0  0  0  0  0  0  0
    6.3370    0.5710   17.7710 N   0  0  0  0  0  0  0  0  0  0  0  0
    6.8680    0.0740   18.9000 C   0  0  0  0  0  0  0  0  0  0  0  0
    9.9590   -0.6900   22.3370 C   0  0  0  0  0  0  0  0  0  0  0  0
   11.1900   -1.0130   22.2060 C   0  0  0  0  0  0  0  0  0  0  0  0
   11.5470   -1.9430   21.3960 N   0  0  0  0  0  0  0  0  0  0  0  0
  1  2  1  0
  2  3  1  0
  3  4  2  0
  4  5  1  0
  5  6  2  0
  6  7  1  0
  7  8  1  0
  8  9  1  0
  9 10  2  0
  9 11  1  0
 11 12  1  0
 12 13  2  0
 13 14  1  0
 14 15  2  0
 15 16  1  0
 12 17  1  0
 16 17  2  0
  7 18  2  0
  4 19  1  0
 18 19  1  0
  2 20  1  0
 19 20  2  0
M  END
