pyridine_urea_6676
     RDKit          3D

 22 24  0  0  0  0  0  0  0  0999 V2000
    8.8220    1.1800   21.0120 O   0  0  0  0  0  0  0  0  0  0  0  0
    8.2240    0.2680   21.5870 C   0  0  0  0  0  0  0  0  0  0  0  0
    8.4130   -0.0230   22.8900 N   0  0  0  0  0  0  0  0  0  0  0  0
    8.6520    1.0140   23.8000 C   0  0  0  0  0  0  0  0  0  0  0  0
    9.8520    1.9250   23.5550 C   0  0  0  0  0  0  0  0  0  0  0  0
    9.8250    0.4490   23.7960 C   0  0  0  0  0  0  0  0  0  0  0  0
   10.8140   -0.5190   23.8780 C   0  0  0  0  0  0  0  0  0  0  0  0
   12.0360   -0.2500   23.7500 C   0  0  0  0  0  0  0  0  0  0  0  0
   12.7770   -1.3520   23.9040 N   0  0  0  0  0  0  0  0  0  0  0  0
   13.4520   -1.9860   22.9450 C   0  0  0  0  0  0  0  0  0  0  0  0
   14.0060   -3.0000   23.5390 C   0  0  0  0  0  0  0  0  0  0  0  0
   13.6660   -2.9900   24.8380 C   0  0  0  0  0  0  0  0  0  0  0  0
   12.8920   -1.9810   25.1610 N   0  0  0  0  0  0  0  0  0  0  0  0
   12.2460    1.1760   23.4900 C   0  0  0  0  0  0  0  0  0  0  0  0
   11.4190    2.3280   23.3620 C   0  0  0  0  0  0  0  0  0  0  0  0
    7.2890   -0.4470   20.9250 N   0  0  0  0  0  0  0  0  0  0  0  0
    6.5320    0.1260   19.9870 C   0  0  0  0  0  0  0  0  0  0  0  0
    5.2440    0.8670   20.3250 C   0  0  0  0  0  0  0  0  0  0  0  0
    4.6100    1.4180   19.2370 C   0  0  0  0  0  0  0  0  0  0  0  0
    5.1390    1.2790   17.9630 C   0  0  0  0  0  0  0  0  0  0  0  0
    6.2610    0.6240   17.6410 N   0  0  0  0  0  0  0  0  0  0  0  0
    6.9170    0.0700   18.6760 C   0  0  0  0  0  0  0  0  0  0  0  0
  1  2  2  0
  2  3  1  0
  3  4  1  0
  4  5  1  0
  5  6  2  0
  6  7  1  0
  7  8  2  0
  8  9  1  0
  9 10  1  0
 10 11  2  0
 11 12  1  0
  9 13  1  0
 12 13  2  0
  8 14  1  0
  5 15  1  0
 14 15  2  0
  2 16  1  0
 16 17  1  0
 17 18  2  0
 18 19  1  0
 19 20  2  0
 20 21  1  0
 17 22  1  0
 21 22  2  0
M  END
