pyridine_urea_9564
     RDKit          3D

 22 24  0  0  0  0  0  0  0  0999 V2000
   11.3160   -2.4680   21.2580 C   0  0  0  0  0  0  0  0  0  0  0  0
   10.7970   -1.5460   22.0840 N   0  0  0  0  0  0  0  0  0  0  0  0
    9.5850   -0.5060   22.1450 N   0  0  0  0  0  0  0  0  0  0  0  0
    9.5820    0.3480   23.5600 C   0  0  0  0  0  0  0  0  0  0  0  0
   10.1780   -0.5480   22.9060 C   0  0  0  0  0  0  0  0  0  0  0  0
    9.5590   -0.7820   21.7060 N   0  0  0  0  0  0  0  0  0  0  0  0
    8.6110    0.1220   21.2930 C   0  0  0  0  0  0  0  0  0  0  0  0
    8.8570    1.3210   21.1110 O   0  0  0  0  0  0  0  0  0  0  0  0
    7.3670   -0.4280   21.0910 N   0  0  0  0  0  0  0  0  0  0  0  0
    6.5210    0.1440   20.1620 C   0  0  0  0  0  0  0  0  0  0  0  0
    5.1860    0.8550   20.3350 C   0  0  0  0  0  0  0  0  0  0  0  0
    4.4610    1.4450   19.1270 C   0  0  0  0  0  0  0  0  0  0  0  0
    5.0850    1.2880   17.8970 C   0  0  0  0  0  0  0  0  0  0  0  0
    6.2410    0.6620   17.6770 N   0  0  0  0  0  0  0  0  0  0  0  0
    6.9100    0.1330   18.6940 C   0  0  0  0  0  0  0  0  0  0  0  0
   11.2260   -1.2790   23.1460 C   0  0  0  0  0  0  0  0  0  0  0  0
   12.1010   -1.4950   24.0350 C   0  0  0  0  0  0  0  0  0  0  0  0
   12.3960   -0.4990   24.8580 C   0  0  0  0  0  0  0  0  0  0  0  0
   13.2390   -0.7120   25.8020 N   0  0  0  0  0  0  0  0  0  0  0  0
   13.7680   -1.9650   25.8470 C   0  0  0  0  0  0  0  0  0  0  0  0
   13.4720   -2.9570   24.9970 C   0  0  0  0  0  0  0  0  0  0  0  0
   12.5940   -2.7430   24.0310 N   0  0  0  0  0  0  0  0  0  0  0  0
  1  2  1  0
  2  3  1  0
  3  4  2  0
  4  5  1  0
  5  6  1  0
  6  7  1  0
  7  8  2  0
  7  9  1  0
  9 10  1  0
 10 11  2  0
 11 12  1  0
 12 13  2  0
 13 14  1  0
 10 15  1  0
 14 15  2  0
  2 16  1  0
  5 16  2  0
 16 17  1  0
 17 18  2  0
 18 19  1  0
 19 20  2  0
 20 21  1  0
 17 22  1  0
 21 22  2  0
M  END
