pyridine_urea_3570
     RDKit          3D

 17 17  0  0  0  0  0  0  0  0999 V2000
   10.1490    0.7980   23.0440 C   0  0  0  0  0  0  0  0  0  0  0  0
   10.8430   -0.5620   23.2300 C   0  0  0  0  0  0  0  0  0  0  0  0
   10.2760   -1.4620   24.3150 C   0  0  0  0  0  0  0  0  0  0  0  0
    9.0630   -1.5440   24.4400 O   0  0  0  0  0  0  0  0  0  0  0  0
   12.3540   -0.3410   23.3800 C   0  0  0  0  0  0  0  0  0  0  0  0
   12.9120   -1.2200   24.3570 O   0  0  0  0  0  0  0  0  0  0  0  0
   10.4190   -1.3900   22.0290 C   0  0  0  0  0  0  0  0  0  0  0  0
    8.9790   -1.4870   21.9240 N   0  0  0  0  0  0  0  0  0  0  0  0
    8.2800   -0.4240   21.3960 C   0  0  0  0  0  0  0  0  0  0  0  0
    8.8010    0.6820   21.2640 O   0  0  0  0  0  0  0  0  0  0  0  0
    7.0000   -0.7270   21.0340 N   0  0  0  0  0  0  0  0  0  0  0  0
    6.3780   -0.0380   19.9960 C   0  0  0  0  0  0  0  0  0  0  0  0
    5.1900    0.6570   20.2340 C   0  0  0  0  0  0  0  0  0  0  0  0
    4.5790    1.3580   19.1910 C   0  0  0  0  0  0  0  0  0  0  0  0
    5.1840    1.3360   17.9520 C   0  0  0  0  0  0  0  0  0  0  0  0
    6.3210    0.6690   17.7070 N   0  0  0  0  0  0  0  0  0  0  0  0
    6.8900    0.0010   18.7230 C   0  0  0  0  0  0  0  0  0  0  0  0
  2  1  1  0
  2  3  1  0
  3  4  1  0
  2  5  1  0
  5  6  1  0
  2  7  1  0
  7  8  1  0
  8  9  1  0
  9 10  2  0
  9 11  1  0
 11 12  1  0
 12 13  2  0
 13 14  1  0
 14 15  2  0
 15 16  1  0
 12 17  1  0
 16 17  2  0
M  END
