pyridine_urea_14237
     RDKit          3D

 22 24  0  0  0  0  0  0  0  0999 V2000
   13.3870   -1.5930   23.1970 C   0  0  0  0  0  0  0  0  0  0  0  0
   12.1150   -0.8440   23.1580 C   0  0  0  0  0  0  0  0  0  0  0  0
   10.9390   -1.6580   23.2830 N   0  0  0  0  0  0  0  0  0  0  0  0
    9.6770   -1.1730   23.2660 C   0  0  0  0  0  0  0  0  0  0  0  0
    8.6830   -2.0860   23.3700 C   0  0  0  0  0  0  0  0  0  0  0  0
    7.5930   -1.3760   22.7720 N   0  0  0  0  0  0  0  0  0  0  0  0
    7.7670   -0.7100   21.5660 C   0  0  0  0  0  0  0  0  0  0  0  0
    8.6800    0.0740   21.3300 O   0  0  0  0  0  0  0  0  0  0  0  0
    6.7630   -1.0550   20.7350 N   0  0  0  0  0  0  0  0  0  0  0  0
    6.1510   -0.1840   19.8600 C   0  0  0  0  0  0  0  0  0  0  0  0
    4.8890    0.6010   20.1520 C   0  0  0  0  0  0  0  0  0  0  0  0
    4.4510    1.4800   19.0030 C   0  0  0  0  0  0  0  0  0  0  0  0
    5.1850    1.5070   17.8420 C   0  0  0  0  0  0  0  0  0  0  0  0
    6.3050    0.7810   17.6460 N   0  0  0  0  0  0  0  0  0  0  0  0
    6.7460   -0.0220   18.6330 C   0  0  0  0  0  0  0  0  0  0  0  0
    9.5030    0.1140   23.1420 N   0  0  0  0  0  0  0  0  0  0  0  0
   10.6010    0.9740   23.0130 C   0  0  0  0  0  0  0  0  0  0  0  0
   10.3190    2.3290   22.8780 C   0  0  0  0  0  0  0  0  0  0  0  0
   11.3500    3.2380   22.7510 C   0  0  0  0  0  0  0  0  0  0  0  0
   12.6680    2.8100   22.7560 C   0  0  0  0  0  0  0  0  0  0  0  0
   12.9550    1.4510   22.8880 C   0  0  0  0  0  0  0  0  0  0  0  0
   11.9310    0.5500   23.0150 C   0  0  0  0  0  0  0  0  0  0  0  0
  1  2  1  0
  2  3  2  0
  3  4  1  0
  4  5  1  0
  5  6  1  0
  6  7  1  0
  7  8  2  0
  7  9  1  0
  9 10  1  0
 10 11  2  0
 11 12  1  0
 12 13  2  0
 13 14  1  0
 10 15  1  0
 14 15  2  0
  4 16  2  0
 16 17  1  0
 17 18  1  0
 18 19  2  0
 19 20  1  0
 20 21  2  0
  2 22  1  0
 17 22  2  0
 21 22  1  0
M  END
