pyridine_urea_7186
     RDKit          3D

 19 21  0  0  0  0  0  0  0  0999 V2000
    8.5350    0.9770   21.1010 O   0  0  0  0  0  0  0  0  0  0  0  0
    8.2830   -0.1570   21.4860 C   0  0  0  0  0  0  0  0  0  0  0  0
    9.1310   -0.9170   22.2780 N   0  0  0  0  0  0  0  0  0  0  0  0
   10.4790   -0.5900   22.4760 C   0  0  0  0  0  0  0  0  0  0  0  0
   11.5680   -1.3790   22.3740 C   0  0  0  0  0  0  0  0  0  0  0  0
   12.8490   -0.8620   22.6020 C   0  0  0  0  0  0  0  0  0  0  0  0
   13.2530    0.4540   22.9460 C   0  0  0  0  0  0  0  0  0  0  0  0
   12.0530    1.1080   23.0060 N   0  0  0  0  0  0  0  0  0  0  0  0
   10.8010    0.6690   22.8070 C   0  0  0  0  0  0  0  0  0  0  0  0
    7.1180   -0.8380   21.1770 N   0  0  0  0  0  0  0  0  0  0  0  0
    5.9380   -0.2920   20.6130 C   0  0  1  0  0  0  0  0  0  0  0  0
    5.2250    0.6110   21.3960 C   0  0  0  0  0  0  0  0  0  0  0  0
    4.3110    1.4670   20.7160 C   0  0  0  0  0  0  0  0  0  0  0  0
    3.9950    1.0120   19.4550 C   0  0  0  0  0  0  0  0  0  0  0  0
    5.1710    0.9810   18.8360 N   0  0  0  0  0  0  0  0  0  0  0  0
    5.5180    1.5350   17.7220 C   0  0  0  0  0  0  0  0  0  0  0  0
    6.8700    1.1520   17.7030 C   0  0  0  0  0  0  0  0  0  0  0  0
    7.3220    0.3980   18.6910 N   0  0  0  0  0  0  0  0  0  0  0  0
    6.2230    0.3030   19.4230 C   0  0  0  0  0  0  0  0  0  0  0  0
  1  2  2  0
  2  3  1  0
  3  4  1  0
  4  5  2  0
  5  6  1  0
  6  7  2  0
  7  8  1  0
  4  9  1  0
  8  9  2  0
  2 10  1  0
 11 10  1  1
 11 12  1  0
 12 13  1  0
 13 14  1  0
 14 15  1  0
 15 16  1  0
 16 17  2  0
 17 18  1  0
 11 19  1  0
 15 19  1  0
 18 19  2  0
M  END
