pyridine_urea_4116
     RDKit          3D

 26 28  0  0  0  0  0  0  0  0999 V2000
    8.6370    1.1480   21.0590 O   0  0  0  0  0  0  0  0  0  0  0  0
    8.1380    0.1150   21.5280 C   0  0  0  0  0  0  0  0  0  0  0  0
    7.0620   -0.5340   21.0170 N   0  0  0  0  0  0  0  0  0  0  0  0
    6.4030    0.0770   19.9660 C   0  0  0  0  0  0  0  0  0  0  0  0
    5.2270    0.7830   20.2170 C   0  0  0  0  0  0  0  0  0  0  0  0
    4.5780    1.4230   19.1670 C   0  0  0  0  0  0  0  0  0  0  0  0
    5.1380    1.3290   17.9100 C   0  0  0  0  0  0  0  0  0  0  0  0
    6.2600    0.6470   17.6540 N   0  0  0  0  0  0  0  0  0  0  0  0
    6.8660    0.0370   18.6820 C   0  0  0  0  0  0  0  0  0  0  0  0
    8.6410   -0.4720   22.6420 N   0  0  0  0  0  0  0  0  0  0  0  0
    9.9220    0.0710   23.0390 C   0  0  0  0  0  0  0  0  0  0  0  0
   10.2380    1.4340   22.4850 C   0  0  0  0  0  0  0  0  0  0  0  0
   11.4390    1.9970   22.7960 C   0  0  0  0  0  0  0  0  0  0  0  0
   12.2960    1.3230   23.5940 C   0  0  0  0  0  0  0  0  0  0  0  0
   12.0200    0.0940   24.1330 C   0  0  0  0  0  0  0  0  0  0  0  0
   12.8880   -0.5270   24.9600 C   0  0  0  0  0  0  0  0  0  0  0  0
   13.3710   -1.4860   25.8050 O   0  0  0  0  0  0  0  0  0  0  0  0
   11.8330   -1.3050   24.9690 N   0  0  0  0  0  0  0  0  0  0  0  0
   12.0450   -1.8490   23.8330 C   0  0  0  0  0  0  0  0  0  0  0  0
   11.2520   -1.8520   22.5750 C   0  0  0  0  0  0  0  0  0  0  0  0
   11.8670   -2.5940   21.4570 C   0  0  0  0  0  0  0  0  0  0  0  0
   13.0530   -3.1650   21.7330 C   0  0  0  0  0  0  0  0  0  0  0  0
   13.8840   -4.1660   20.4390 Br  0  0  0  0  0  0  0  0  0  0  0  0
   13.6380   -3.0420   22.9730 C   0  0  0  0  0  0  0  0  0  0  0  0
   13.1950   -2.4230   24.0100 N   0  0  0  0  0  0  0  0  0  0  0  0
   10.8230   -0.5510   23.8500 C   0  0  0  0  0  0  0  0  0  0  0  0
  1  2  2  0
  2  3  1  0
  3  4  1  0
  4  5  2  0
  5  6  1  0
  6  7  2  0
  7  8  1  0
  4  9  1  0
  8  9  2  0
  2 10  1  0
 10 11  1  0
 11 12  2  0
 12 13  1  0
 13 14  2  0
 14 15  1  0
 15 16  1  0
 16 17  2  0
 16 18  1  0
 18 19  1  0
 19 20  2  0
 20 21  1  0
 21 22  2  0
 22 23  1  0
 22 24  1  0
 19 25  1  0
 24 25  2  0
 11 26  1  0
 15 26  2  0
M  END
