pyridine_urea_5776
     RDKit          3D

 27 29  0  0  0  0  0  0  0  0999 V2000
    8.6380    0.7890   21.1010 O   0  0  0  0  0  0  0  0  0  0  0  0
    8.3500   -0.3770   21.3320 C   0  0  0  0  0  0  0  0  0  0  0  0
    7.0470   -0.9000   20.9720 N   0  0  0  0  0  0  0  0  0  0  0  0
    6.3950   -0.1560   19.9990 C   0  0  0  0  0  0  0  0  0  0  0  0
    5.2100    0.5240   20.2780 C   0  0  0  0  0  0  0  0  0  0  0  0
    4.6080    1.2660   19.2590 C   0  0  0  0  0  0  0  0  0  0  0  0
    5.2120    1.3000   17.9990 C   0  0  0  0  0  0  0  0  0  0  0  0
    6.3480    0.6450   17.7250 N   0  0  0  0  0  0  0  0  0  0  0  0
    6.9130   -0.0680   18.7260 C   0  0  0  0  0  0  0  0  0  0  0  0
    9.1580   -1.2990   21.9500 N   0  0  0  0  0  0  0  0  0  0  0  0
    9.7200   -0.8830   23.2170 C   0  0  1  0  0  0  0  0  0  0  0  0
    9.2410   -1.6820   24.4190 C   0  0  0  0  0  0  0  0  0  0  0  0
    9.2800   -2.8970   24.1900 O   0  0  0  0  0  0  0  0  0  0  0  0
    8.6450   -3.6360   25.1780 C   0  0  0  0  0  0  0  0  0  0  0  0
    9.3020   -4.7750   25.6480 C   0  0  0  0  0  0  0  0  0  0  0  0
    8.7250   -5.5610   26.6360 C   0  0  0  0  0  0  0  0  0  0  0  0
    7.4900   -5.2060   27.1540 C   0  0  0  0  0  0  0  0  0  0  0  0
    6.8350   -4.0680   26.6850 C   0  0  0  0  0  0  0  0  0  0  0  0
    7.4010   -3.2650   25.6900 C   0  0  0  0  0  0  0  0  0  0  0  0
   11.2120   -0.8240   23.2250 C   0  0  0  0  0  0  0  0  0  0  0  0
   12.5260   -0.2520   23.1430 C   0  0  0  0  0  0  0  0  0  0  0  0
   12.9530    1.0450   22.9180 C   0  0  0  0  0  0  0  0  0  0  0  0
   12.0730    2.0460   22.6990 C   0  0  0  0  0  0  0  0  0  0  0  0
   12.4770    3.3060   22.4720 F   0  0  0  0  0  0  0  0  0  0  0  0
   10.7740    1.6870   22.7010 C   0  0  0  0  0  0  0  0  0  0  0  0
    9.5040    2.8230   22.3710 Cl  0  0  0  0  0  0  0  0  0  0  0  0
   10.4500    0.3750   22.9580 C   0  0  0  0  0  0  0  0  0  0  0  0
  1  2  2  0
  2  3  1  0
  3  4  1  0
  4  5  2  0
  5  6  1  0
  6  7  2  0
  7  8  1  0
  4  9  1  0
  8  9  2  0
  2 10  1  0
 10 11  1  0
 11 12  1  1
 12 13  1  0
 13 14  1  0
 14 15  2  0
 15 16  1  0
 16 17  2  0
 17 18  1  0
 14 19  1  0
 18 19  2  0
 11 20  1  0
 20 21  2  0
 21 22  1  0
 22 23  2  0
 23 24  1  0
 23 25  1  0
 25 26  1  0
 20 27  1  0
 25 27  2  0
M  END
