pyridine_urea_6244
     RDKit          3D

 24 25  0  0  0  0  0  0  0  0999 V2000
    5.5600   -1.3590   21.6780 C   0  0  0  0  0  0  0  0  0  0  0  0
    6.2700   -1.2120   20.7240 C   0  0  0  0  0  0  0  0  0  0  0  0
    7.0150   -0.5640   19.5490 C   0  0  0  0  0  0  0  0  0  0  0  0
    7.4780   -1.7560   21.3620 N   0  0  0  0  0  0  0  0  0  0  0  0
    8.5930   -0.8590   21.7140 C   0  0  0  0  0  0  0  0  0  0  0  0
    8.6790    0.4570   21.1590 O   0  0  0  0  0  0  0  0  0  0  0  0
    9.5020   -1.4280   22.6170 N   0  0  0  0  0  0  0  0  0  0  0  0
   10.2120   -0.3510   22.7290 C   0  0  0  0  0  0  0  0  0  0  0  0
   11.7360   -0.4430   22.5930 C   0  0  0  0  0  0  0  0  0  0  0  0
   12.5210    0.8310   22.6520 C   0  0  0  0  0  0  0  0  0  0  0  0
   11.8830    2.0460   22.8120 C   0  0  0  0  0  0  0  0  0  0  0  0
   12.7070    3.3050   22.7790 C   0  0  0  0  0  0  0  0  0  0  0  0
   12.1670    4.3390   23.4660 N   0  0  0  0  0  0  0  0  0  0  0  0
   12.3970    5.6140   23.0530 C   0  0  0  0  0  0  0  0  0  0  0  0
   12.9320    5.9340   21.7780 O   0  0  0  0  0  0  0  0  0  0  0  0
   12.0480    6.4720   24.0390 N   0  0  0  0  0  0  0  0  0  0  0  0
   10.8400    7.0970   23.9590 C   0  0  0  0  0  0  0  0  0  0  0  0
   10.3800    7.9750   24.9220 C   0  0  0  0  0  0  0  0  0  0  0  0
    9.0690    8.7760   25.0150 C   0  0  0  0  0  0  0  0  0  0  0  0
    8.4220    8.2950   23.7110 C   0  0  0  0  0  0  0  0  0  0  0  0
    8.8440    7.4430   22.7620 N   0  0  0  0  0  0  0  0  0  0  0  0
   10.0290    6.8640   22.8920 C   0  0  0  0  0  0  0  0  0  0  0  0
   10.3500    1.9790   22.9740 C   0  0  0  0  0  0  0  0  0  0  0  0
    9.6060    0.8390   22.9330 C   0  0  0  0  0  0  0  0  0  0  0  0
  1  2  1  0
  2  3  1  0
  2  4  1  0
  4  5  1  0
  5  6  2  0
  5  7  1  0
  7  8  1  0
  8  9  2  0
  9 10  1  0
 10 11  2  0
 11 12  1  0
 12 13  1  0
 13 14  1  0
 14 15  2  0
 14 16  1  0
 16 17  1  0
 17 18  2  0
 18 19  1  0
 19 20  2  0
 20 21  1  0
 17 22  1  0
 21 22  2  0
 11 23  1  0
  8 24  1  0
 23 24  2  0
M  END
