pyridine_urea_15184
     RDKit          3D

 18 19  0  0  0  0  0  0  0  0999 V2000
    8.8940    0.9290   21.5790 O   0  0  0  0  0  0  0  0  0  0  0  0
    8.2220   -0.0440   21.2710 C   0  0  0  0  0  0  0  0  0  0  0  0
    8.7360   -1.2350   20.9440 N   0  0  0  0  0  0  0  0  0  0  0  0
    9.4630   -1.9140   21.9100 C   0  0  0  0  0  0  0  0  0  0  0  0
   10.9230   -1.7110   21.7080 C   0  0  0  0  0  0  0  0  0  0  0  0
   10.2300   -1.5010   23.0580 C   0  0  0  0  0  0  0  0  0  0  0  0
   10.6090   -1.1100   24.4750 C   0  0  0  0  0  0  0  0  0  0  0  0
   12.0600   -0.9630   24.2080 C   0  0  0  0  0  0  0  0  0  0  0  0
   12.9130   -0.6180   25.5010 Cl  0  0  0  0  0  0  0  0  0  0  0  0
   12.8730   -1.0930   23.0070 C   0  0  0  0  0  0  0  0  0  0  0  0
   12.2510   -1.4380   21.9170 C   0  0  0  0  0  0  0  0  0  0  0  0
    6.8790   -0.1530   21.1630 N   0  0  0  0  0  0  0  0  0  0  0  0
    6.2230    0.3930   20.0840 C   0  0  0  0  0  0  0  0  0  0  0  0
    5.0470    1.0890   20.1580 C   0  0  0  0  0  0  0  0  0  0  0  0
    4.4940    1.6110   19.0060 C   0  0  0  0  0  0  0  0  0  0  0  0
    5.1590    1.4100   17.8050 C   0  0  0  0  0  0  0  0  0  0  0  0
    6.3060    0.7250   17.7060 N   0  0  0  0  0  0  0  0  0  0  0  0
    6.8080    0.2310   18.8410 C   0  0  0  0  0  0  0  0  0  0  0  0
  1  2  2  0
  2  3  1  0
  3  4  1  0
  4  5  1  0
  5  6  2  0
  6  7  1  0
  7  8  2  0
  8  9  1  0
  8 10  1  0
  5 11  1  0
 10 11  2  0
  2 12  1  0
 12 13  1  0
 13 14  2  0
 14 15  1  0
 15 16  2  0
 16 17  1  0
 13 18  1  0
 17 18  2  0
M  END
