pyridine_urea_1610
     RDKit          3D

 19 20  0  0  0  0  0  0  0  0999 V2000
   11.0880   -1.9390   22.2250 C   0  0  0  0  0  0  0  0  0  0  0  0
   10.3120   -0.7150   22.6030 C   0  0  2  0  0  0  0  0  0  0  0  0
   10.6490    0.0070   23.7420 C   0  0  0  0  0  0  0  0  0  0  0  0
   11.7620    0.7610   23.4550 C   0  0  0  0  0  0  0  0  0  0  0  0
   12.6780    1.7810   23.1090 C   0  0  0  0  0  0  0  0  0  0  0  0
   12.4410    3.1900   22.7500 N   0  0  0  0  0  0  0  0  0  0  0  0
   11.2010    3.6570   22.7250 C   0  0  0  0  0  0  0  0  0  0  0  0
   10.2550    2.7690   23.0420 C   0  0  0  0  0  0  0  0  0  0  0  0
   10.5180    1.4570   23.3730 N   0  0  0  0  0  0  0  0  0  0  0  0
    8.8700   -0.9540   22.5060 N   0  0  0  0  0  0  0  0  0  0  0  0
    8.1850   -0.2520   21.5580 C   0  0  0  0  0  0  0  0  0  0  0  0
    8.6350    0.8420   21.2390 O   0  0  0  0  0  0  0  0  0  0  0  0
    7.0520   -0.8270   21.0560 N   0  0  0  0  0  0  0  0  0  0  0  0
    6.4440   -0.1280   20.0830 C   0  0  0  0  0  0  0  0  0  0  0  0
    5.2620    0.6000   20.3020 C   0  0  0  0  0  0  0  0  0  0  0  0
    4.6680    1.3170   19.2580 C   0  0  0  0  0  0  0  0  0  0  0  0
    5.2630    1.2970   18.0120 C   0  0  0  0  0  0  0  0  0  0  0  0
    6.3870    0.6120   17.7680 N   0  0  0  0  0  0  0  0  0  0  0  0
    6.9360   -0.0710   18.7900 C   0  0  0  0  0  0  0  0  0  0  0  0
  2  1  1  1
  2  3  1  0
  3  4  1  0
  4  5  2  0
  5  6  1  0
  6  7  2  0
  7  8  1  0
  4  9  1  0
  8  9  2  0
  2 10  1  0
 10 11  1  0
 11 12  2  0
 11 13  1  0
 13 14  1  0
 14 15  2  0
 15 16  1  0
 16 17  2  0
 17 18  1  0
 14 19  1  0
 18 19  2  0
M  END
