pyridine_urea_635
     RDKit          3D

 24 26  0  0  0  0  0  0  0  0999 V2000
   12.8190    0.9480   23.2490 C   0  0  0  0  0  0  0  0  0  0  0  0
   13.4020   -0.2100   22.9300 N   0  0  0  0  0  0  0  0  0  0  0  0
   13.1710   -0.6940   21.7150 C   0  0  0  0  0  0  0  0  0  0  0  0
   11.8750   -0.9850   21.5540 C   0  0  0  0  0  0  0  0  0  0  0  0
   11.4930   -2.0220   22.2220 C   0  0  0  0  0  0  0  0  0  0  0  0
   10.0700   -2.0640   22.2380 C   0  0  0  0  0  0  0  0  0  0  0  0
    9.2910   -0.9750   22.5660 N   0  0  0  0  0  0  0  0  0  0  0  0
    8.5950   -0.2240   21.6410 C   0  0  0  0  0  0  0  0  0  0  0  0
    8.9400    0.9120   21.3560 O   0  0  0  0  0  0  0  0  0  0  0  0
    7.3950   -0.8870   21.0970 N   0  0  0  0  0  0  0  0  0  0  0  0
    6.6650   -0.1900   20.0880 C   0  0  0  0  0  0  0  0  0  0  0  0
    5.5630    0.6110   20.4590 C   0  0  0  0  0  0  0  0  0  0  0  0
    4.8150    1.3270   19.4930 C   0  0  0  0  0  0  0  0  0  0  0  0
    5.1730    1.2390   18.1630 C   0  0  0  0  0  0  0  0  0  0  0  0
    6.2460    0.4540   17.7960 N   0  0  0  0  0  0  0  0  0  0  0  0
    6.9610   -0.2370   18.7370 C   0  0  0  0  0  0  0  0  0  0  0  0
   12.0640   -3.1860   21.6200 N   0  0  0  0  0  0  0  0  0  0  0  0
   13.4100   -3.2240   21.6030 C   0  0  0  0  0  0  0  0  0  0  0  0
   14.0280   -4.2140   20.7800 C   0  0  0  0  0  0  0  0  0  0  0  0
   13.2860   -5.0690   20.4370 O   0  0  0  0  0  0  0  0  0  0  0  0
   12.3280   -4.4700   19.6490 C   0  0  0  0  0  0  0  0  0  0  0  0
   11.7830   -3.3690   20.3470 C   0  0  0  0  0  0  0  0  0  0  0  0
   11.9040   -1.9370   23.5820 C   0  0  0  0  0  0  0  0  0  0  0  0
   13.0460   -1.2260   23.9350 C   0  0  0  0  0  0  0  0  0  0  0  0
  1  2  1  0
  2  3  1  0
  3  4  1  0
  4  5  1  0
  5  6  1  0
  6  7  1  0
  7  8  1  0
  8  9  2  0
  8 10  1  0
 10 11  1  0
 11 12  2  0
 12 13  1  0
 13 14  2  0
 14 15  1  0
 11 16  1  0
 15 16  2  0
  5 17  1  0
 17 18  1  0
 18 19  1  0
 19 20  1  0
 20 21  1  0
 17 22  1  0
 21 22  1  0
  5 23  1  0
  2 24  1  0
 23 24  1  0
M  END
