pyridine_urea_6108
     RDKit          3D

 25 27  0  0  0  0  0  0  0  0999 V2000
    8.6170    0.3780   21.3710 O   0  0  0  0  0  0  0  0  0  0  0  0
    8.0640   -0.6900   21.6220 C   0  0  0  0  0  0  0  0  0  0  0  0
    8.6880   -1.6080   22.5980 N   0  0  0  0  0  0  0  0  0  0  0  0
    9.8670   -0.9590   22.7350 C   0  0  0  0  0  0  0  0  0  0  0  0
    9.6990    0.2410   23.4190 C   0  0  0  0  0  0  0  0  0  0  0  0
   10.7330    1.0990   23.5700 C   0  0  0  0  0  0  0  0  0  0  0  0
   11.9390    0.7620   23.0270 C   0  0  0  0  0  0  0  0  0  0  0  0
   13.0790    1.5950   22.9940 C   0  0  0  0  0  0  0  0  0  0  0  0
   14.1290    1.0400   22.7970 O   0  0  0  0  0  0  0  0  0  0  0  0
   12.7100    2.9420   23.1030 N   0  0  0  0  0  0  0  0  0  0  0  0
   13.2260    4.0040   22.3660 C   0  0  0  0  0  0  0  0  0  0  0  0
   13.2650    5.3620   23.0130 C   0  0  0  0  0  0  0  0  0  0  0  0
   12.2060    6.0680   22.5510 C   0  0  0  0  0  0  0  0  0  0  0  0
   11.1110    5.2310   22.5550 C   0  0  0  0  0  0  0  0  0  0  0  0
   11.0720    4.4820   23.7000 C   0  0  0  0  0  0  0  0  0  0  0  0
   11.3340    3.1550   23.3720 C   0  0  0  0  0  0  0  0  0  0  0  0
   12.1480   -0.5860   22.3360 C   0  0  0  0  0  0  0  0  0  0  0  0
   11.0760   -1.4150   22.2090 C   0  0  0  0  0  0  0  0  0  0  0  0
    6.8920   -1.0700   21.0400 N   0  0  0  0  0  0  0  0  0  0  0  0
    6.2910   -0.2910   20.0960 C   0  0  0  0  0  0  0  0  0  0  0  0
    5.0990    0.4540   20.2780 C   0  0  0  0  0  0  0  0  0  0  0  0
    4.5770    1.2380   19.2140 C   0  0  0  0  0  0  0  0  0  0  0  0
    5.2440    1.2720   17.9920 C   0  0  0  0  0  0  0  0  0  0  0  0
    6.3770    0.5710   17.8000 N   0  0  0  0  0  0  0  0  0  0  0  0
    6.8880   -0.2010   18.8450 C   0  0  0  0  0  0  0  0  0  0  0  0
  1  2  2  0
  2  3  1  0
  3  4  1  0
  4  5  2  0
  5  6  1  0
  6  7  2  0
  7  8  1  0
  8  9  2  0
  8 10  1  0
 10 11  1  0
 11 12  1  0
 12 13  1  0
 13 14  1  0
 14 15  1  0
 10 16  1  0
 15 16  1  0
  7 17  1  0
  4 18  1  0
 17 18  2  0
  2 19  1  0
 19 20  1  0
 20 21  2  0
 21 22  1  0
 22 23  2  0
 23 24  1  0
 20 25  1  0
 24 25  2  0
M  END
