pyridine_urea_10081
     RDKit          3D

 23 24  0  0  0  0  0  0  0  0999 V2000
   12.3270   -1.8240   24.8670 C   0  0  0  0  0  0  0  0  0  0  0  0
   11.8470   -0.7010   25.0650 O   0  0  0  0  0  0  0  0  0  0  0  0
   10.5100   -0.5650   25.3880 C   0  0  0  0  0  0  0  0  0  0  0  0
   10.0970   -0.2070   26.4770 O   0  0  0  0  0  0  0  0  0  0  0  0
    9.6050   -0.8720   24.3950 C   0  0  0  0  0  0  0  0  0  0  0  0
    9.9290   -0.2800   23.2330 C   0  0  2  0  0  0  0  0  0  0  0  0
    9.7300    1.0890   23.3430 C   0  0  0  0  0  0  0  0  0  0  0  0
    9.1750   -0.8950   22.1810 N   0  0  0  0  0  0  0  0  0  0  0  0
    8.3690   -0.0280   21.3170 C   0  0  0  0  0  0  0  0  0  0  0  0
    8.7630    1.1110   21.0320 O   0  0  0  0  0  0  0  0  0  0  0  0
    7.2020   -0.5940   20.9240 N   0  0  0  0  0  0  0  0  0  0  0  0
    6.4320    0.0550   20.0170 C   0  0  0  0  0  0  0  0  0  0  0  0
    5.2520    0.7490   20.2720 C   0  0  0  0  0  0  0  0  0  0  0  0
    4.5880    1.3940   19.2220 C   0  0  0  0  0  0  0  0  0  0  0  0
    5.1150    1.3330   17.9380 C   0  0  0  0  0  0  0  0  0  0  0  0
    6.2350    0.6740   17.6250 N   0  0  0  0  0  0  0  0  0  0  0  0
    6.8830    0.0300   18.7270 C   0  0  0  0  0  0  0  0  0  0  0  0
   11.2910   -0.4020   22.9170 C   0  0  0  0  0  0  0  0  0  0  0  0
   12.6620   -0.1140   22.6770 C   0  0  0  0  0  0  0  0  0  0  0  0
   13.3420    1.0650   22.7380 C   0  0  0  0  0  0  0  0  0  0  0  0
   12.8170    2.2570   23.0330 C   0  0  0  0  0  0  0  0  0  0  0  0
   11.5480    2.2010   23.2910 N   0  0  0  0  0  0  0  0  0  0  0  0
   10.8940    0.9530   23.2280 C   0  0  0  0  0  0  0  0  0  0  0  0
  1  2  1  0
  2  3  1  0
  3  4  2  0
  3  5  1  0
  5  6  1  0
  6  7  1  1
  6  8  1  0
  8  9  1  0
  9 10  2  0
  9 11  1  0
 11 12  1  0
 12 13  2  0
 13 14  1  0
 14 15  2  0
 15 16  1  0
 12 17  1  0
 16 17  2  0
  6 18  1  0
 18 19  2  0
 19 20  1  0
 20 21  2  0
 21 22  1  0
 18 23  1  0
 22 23  2  0
M  END
