pyridine_urea_5466
     RDKit          3D

 18 19  0  0  0  0  0  0  0  0999 V2000
   12.7640    1.2950   23.1780 C   0  0  0  0  0  0  0  0  0  0  0  0
   12.4410   -0.0320   22.6090 C   0  0  0  0  0  0  0  0  0  0  0  0
   13.4150   -0.7730   21.8720 N   0  0  0  0  0  0  0  0  0  0  0  0
   12.6880   -1.8740   21.5350 N   0  0  0  0  0  0  0  0  0  0  0  0
   13.4320   -2.7880   20.7520 C   0  0  0  0  0  0  0  0  0  0  0  0
   11.3320   -1.9330   21.9980 C   0  0  0  0  0  0  0  0  0  0  0  0
   11.0800   -0.6900   22.7550 C   0  0  0  0  0  0  0  0  0  0  0  0
    9.9270   -0.3080   23.3700 C   0  0  0  0  0  0  0  0  0  0  0  0
    8.7220   -0.5030   22.7790 N   0  0  0  0  0  0  0  0  0  0  0  0
    8.3050    0.1840   21.5690 C   0  0  0  0  0  0  0  0  0  0  0  0
    8.8320    1.2270   21.1520 O   0  0  0  0  0  0  0  0  0  0  0  0
    7.2490   -0.4750   20.9790 N   0  0  0  0  0  0  0  0  0  0  0  0
    6.4530    0.1530   20.0310 C   0  0  0  0  0  0  0  0  0  0  0  0
    5.1480    0.8670   20.3230 C   0  0  0  0  0  0  0  0  0  0  0  0
    4.4600    1.5070   19.1520 C   0  0  0  0  0  0  0  0  0  0  0  0
    5.1690    1.3490   17.8350 C   0  0  0  0  0  0  0  0  0  0  0  0
    6.3250    0.6820   17.6750 N   0  0  0  0  0  0  0  0  0  0  0  0
    6.9000    0.1310   18.7200 C   0  0  0  0  0  0  0  0  0  0  0  0
  1  2  1  0
  2  3  2  0
  3  4  1  0
  4  5  1  0
  4  6  1  0
  2  7  1  0
  6  7  2  0
  7  8  1  0
  8  9  1  0
  9 10  1  0
 10 11  2  0
 10 12  1  0
 12 13  1  0
 13 14  2  0
 14 15  1  0
 15 16  2  0
 16 17  1  0
 13 18  1  0
 17 18  2  0
M  END
