pyridine_urea_466
     RDKit          3D

 25 28  0  0  0  0  0  0  0  0999 V2000
    8.7750    0.9020   21.3130 O   0  0  0  0  0  0  0  0  0  0  0  0
    8.3080   -0.2250   21.4200 C   0  0  0  0  0  0  0  0  0  0  0  0
    7.0310   -0.5710   21.0470 N   0  0  0  0  0  0  0  0  0  0  0  0
    6.3250    0.0930   20.0470 C   0  0  0  0  0  0  0  0  0  0  0  0
    5.1400    0.7950   20.2200 C   0  0  0  0  0  0  0  0  0  0  0  0
    4.5520    1.4300   19.1280 C   0  0  0  0  0  0  0  0  0  0  0  0
    5.1760    1.3360   17.9010 C   0  0  0  0  0  0  0  0  0  0  0  0
    6.3170    0.6570   17.7090 N   0  0  0  0  0  0  0  0  0  0  0  0
    6.8570    0.0560   18.7740 C   0  0  0  0  0  0  0  0  0  0  0  0
    8.9850   -1.3080   21.9200 N   0  0  0  0  0  0  0  0  0  0  0  0
   10.2600   -1.2210   22.4690 C   0  0  1  0  0  0  0  0  0  0  0  0
   10.3100   -1.4530   23.8710 C   0  0  0  0  0  0  0  0  0  0  0  0
   11.5610   -1.7960   24.4970 C   0  0  2  0  0  0  0  0  0  0  0  0
   12.9500   -1.5730   24.2000 C   0  0  0  0  0  0  0  0  0  0  0  0
   13.0570   -1.4720   22.8710 C   0  0  0  0  0  0  0  0  0  0  0  0
   12.0530   -2.4360   22.5510 C   0  0  2  0  0  0  0  0  0  0  0  0
   11.0720   -2.0260   21.7160 C   0  0  0  0  0  0  0  0  0  0  0  0
   11.3760   -2.9440   23.7200 N   0  0  0  0  0  0  0  0  0  0  0  0
    9.9550   -3.1980   23.5100 C   0  0  0  0  0  0  0  0  0  0  0  0
    8.8130   -2.4650   23.9180 C   0  0  0  0  0  0  0  0  0  0  0  0
    7.5580   -2.9500   23.5310 C   0  0  0  0  0  0  0  0  0  0  0  0
    6.3670   -2.3070   23.8790 C   0  0  0  0  0  0  0  0  0  0  0  0
    6.4100   -1.1480   24.6350 C   0  0  0  0  0  0  0  0  0  0  0  0
    7.6480   -0.6420   25.0360 C   0  0  0  0  0  0  0  0  0  0  0  0
    8.8350   -1.2840   24.6870 C   0  0  0  0  0  0  0  0  0  0  0  0
  1  2  2  0
  2  3  1  0
  3  4  1  0
  4  5  2  0
  5  6  1  0
  6  7  2  0
  7  8  1  0
  4  9  1  0
  8  9  2  0
  2 10  1  0
 11 10  1  6
 11 12  1  0
 13 12  1  6
 13 14  1  0
 14 15  1  0
 16 15  1  1
 11 17  1  0
 16 17  1  0
 13 18  1  0
 16 18  1  0
 18 19  1  0
 19 20  1  0
 20 21  2  0
 21 22  1  0
 22 23  2  0
 23 24  1  0
 20 25  1  0
 24 25  2  0
M  END
