pyridine_urea_8885
     RDKit          3D

 20 21  0  0  0  0  0  0  0  0999 V2000
    8.4180   -0.1460   25.3400 C   0  0  0  0  0  0  0  0  0  0  0  0
    8.8760   -0.1620   23.8580 C   0  0  2  0  0  0  0  0  0  0  0  0
    7.7760   -0.0050   22.9390 N   0  0  0  0  0  0  0  0  0  0  0  0
    7.9660    0.2310   21.5960 C   0  0  0  0  0  0  0  0  0  0  0  0
    8.7440    1.3310   21.0880 O   0  0  0  0  0  0  0  0  0  0  0  0
    7.2920   -0.7240   20.8980 N   0  0  0  0  0  0  0  0  0  0  0  0
    6.5320   -0.0120   20.0120 C   0  0  0  0  0  0  0  0  0  0  0  0
    5.3580    0.7080   20.2500 C   0  0  0  0  0  0  0  0  0  0  0  0
    4.6850    1.4020   19.2400 C   0  0  0  0  0  0  0  0  0  0  0  0
    5.2190    1.3630   17.9700 C   0  0  0  0  0  0  0  0  0  0  0  0
    6.3380    0.6820   17.6960 N   0  0  0  0  0  0  0  0  0  0  0  0
    6.9510    0.0250   18.7000 C   0  0  0  0  0  0  0  0  0  0  0  0
    9.5510   -1.4530   23.5500 C   0  0  0  0  0  0  0  0  0  0  0  0
    8.6170   -2.4830   23.7280 O   0  0  0  0  0  0  0  0  0  0  0  0
   10.9140   -1.5800   23.1560 N   0  0  0  0  0  0  0  0  0  0  0  0
   11.5810   -2.7340   23.5380 C   0  0  0  0  0  0  0  0  0  0  0  0
   12.4200   -2.4700   24.5930 C   0  0  0  0  0  0  0  0  0  0  0  0
   13.1570   -1.2510   24.2490 C   0  0  0  0  0  0  0  0  0  0  0  0
   12.9110   -0.5310   23.1040 C   0  0  0  0  0  0  0  0  0  0  0  0
   11.5020   -0.3410   23.0850 C   0  0  0  0  0  0  0  0  0  0  0  0
  2  1  1  1
  2  3  1  0
  3  4  1  0
  4  5  2  0
  4  6  1  0
  6  7  1  0
  7  8  2  0
  8  9  1  0
  9 10  2  0
 10 11  1  0
  7 12  1  0
 11 12  2  0
  2 13  1  0
 13 14  2  0
 13 15  1  0
 15 16  1  0
 16 17  1  0
 17 18  1  0
 18 19  1  0
 15 20  1  0
 19 20  1  0
M  END
