pyridine_urea_6023
     RDKit          3D

 26 28  0  0  0  0  0  0  0  0999 V2000
    9.3010    0.3510   21.4580 O   0  0  0  0  0  0  0  0  0  0  0  0
    8.6580   -0.5590   21.9600 C   0  0  0  0  0  0  0  0  0  0  0  0
    9.0760   -1.2520   23.2640 N   0  0  0  0  0  0  0  0  0  0  0  0
   10.0990   -2.2960   23.4750 C   0  0  0  0  0  0  0  0  0  0  0  0
   11.4090   -2.0600   24.0990 C   0  0  0  0  0  0  0  0  0  0  0  0
   10.8900   -1.2050   23.0840 C   0  0  0  0  0  0  0  0  0  0  0  0
   11.0560   -0.0560   22.2680 C   0  0  0  0  0  0  0  0  0  0  0  0
   12.3440    0.4450   22.6870 C   0  0  0  0  0  0  0  0  0  0  0  0
   13.0370   -0.2860   23.7000 C   0  0  0  0  0  0  0  0  0  0  0  0
   12.7180   -1.4830   24.4460 C   0  0  0  0  0  0  0  0  0  0  0  0
   13.7620   -2.0110   25.5050 C   0  0  0  0  0  0  0  0  0  0  0  0
   15.1390   -2.1870   25.3200 O   0  0  0  0  0  0  0  0  0  0  0  0
   16.5240   -1.9220   26.1310 C   0  0  0  0  0  0  0  0  0  0  0  0
   18.2520   -1.7450   25.6920 C   0  0  0  0  0  0  0  0  0  0  0  0
   18.9200   -1.3260   24.4230 C   0  0  0  0  0  0  0  0  0  0  0  0
   20.2630   -1.1940   24.1330 C   0  0  0  0  0  0  0  0  0  0  0  0
   21.2390   -1.4470   25.0160 C   0  0  0  0  0  0  0  0  0  0  0  0
   20.8340   -1.8500   26.2260 C   0  0  0  0  0  0  0  0  0  0  0  0
   19.4880   -1.9870   26.5350 C   0  0  0  0  0  0  0  0  0  0  0  0
    7.4370   -0.9760   21.3670 N   0  0  0  0  0  0  0  0  0  0  0  0
    6.6760   -0.2640   20.2670 C   0  0  0  0  0  0  0  0  0  0  0  0
    5.6160    0.5860   20.6200 C   0  0  0  0  0  0  0  0  0  0  0  0
    4.8980    1.2640   19.6120 C   0  0  0  0  0  0  0  0  0  0  0  0
    5.2350    1.0980   18.2760 C   0  0  0  0  0  0  0  0  0  0  0  0
    6.2460    0.2860   17.9030 N   0  0  0  0  0  0  0  0  0  0  0  0
    6.9380   -0.3750   18.8920 C   0  0  0  0  0  0  0  0  0  0  0  0
  1  2  2  0
  2  3  1  0
  3  4  1  0
  4  5  1  0
  5  6  2  0
  6  7  1  0
  7  8  2  0
  8  9  1  0
  5 10  1  0
  9 10  2  0
 10 11  1  0
 11 12  1  0
 12 13  1  0
 13 14  1  0
 14 15  2  0
 15 16  1  0
 16 17  2  0
 17 18  1  0
 14 19  1  0
 18 19  2  0
  2 20  1  0
 20 21  1  0
 21 22  2  0
 22 23  1  0
 23 24  2  0
 24 25  1  0
 21 26  1  0
 25 26  2  0
M  END
