pyridine_urea_11292
     RDKit          3D

 16 16  0  0  0  0  0  0  0  0999 V2000
    7.0610   -5.2910   23.3540 C   0  0  0  0  0  0  0  0  0  0  0  0
    7.5300   -4.2030   22.6440 N   0  0  0  0  0  0  0  0  0  0  0  0
    8.0410   -3.0090   23.3110 C   0  0  0  0  0  0  0  0  0  0  0  0
    7.6270   -2.4680   24.5940 O   0  0  0  0  0  0  0  0  0  0  0  0
    9.1440   -2.2120   22.5920 C   0  0  2  0  0  0  0  0  0  0  0  0
   10.4860   -2.4570   23.1970 C   0  0  0  0  0  0  0  0  0  0  0  0
    8.9360   -0.7750   22.6350 N   0  0  0  0  0  0  0  0  0  0  0  0
    8.2890   -0.2420   21.6010 C   0  0  0  0  0  0  0  0  0  0  0  0
    8.7150    0.8430   21.2130 O   0  0  0  0  0  0  0  0  0  0  0  0
    7.1920   -0.8240   21.0000 N   0  0  0  0  0  0  0  0  0  0  0  0
    6.5620   -0.1430   20.0700 C   0  0  0  0  0  0  0  0  0  0  0  0
    5.3220    0.6450   20.3150 C   0  0  0  0  0  0  0  0  0  0  0  0
    4.5950    1.3850   19.4240 C   0  0  0  0  0  0  0  0  0  0  0  0
    5.2700    1.2830   18.0670 C   0  0  0  0  0  0  0  0  0  0  0  0
    6.3910    0.5770   17.8170 N   0  0  0  0  0  0  0  0  0  0  0  0
    7.0040   -0.1090   18.7850 C   0  0  0  0  0  0  0  0  0  0  0  0
  1  2  1  0
  2  3  1  0
  3  4  2  0
  3  5  1  0
  5  6  1  1
  5  7  1  0
  7  8  1  0
  8  9  2  0
  8 10  1  0
 10 11  1  0
 11 12  2  0
 12 13  1  0
 13 14  2  0
 14 15  1  0
 11 16  1  0
 15 16  2  0
M  END
