pyridine_urea_6236
     RDKit          3D

 24 25  0  0  0  0  0  0  0  0999 V2000
    7.8520   -0.2660   25.9750 C   0  0  0  0  0  0  0  0  0  0  0  0
    8.1910   -0.7630   24.6840 O   0  0  0  0  0  0  0  0  0  0  0  0
    9.6020   -0.8690   24.5160 C   0  0  0  0  0  0  0  0  0  0  0  0
   10.5410   -0.4220   25.5300 C   0  0  0  0  0  0  0  0  0  0  0  0
   11.9580   -0.5930   25.2430 C   0  0  0  0  0  0  0  0  0  0  0  0
   12.5070   -1.1250   24.1320 C   0  0  0  0  0  0  0  0  0  0  0  0
   13.6600   -1.1430   24.2940 O   0  0  0  0  0  0  0  0  0  0  0  0
   13.8550   -2.4730   24.8810 C   0  0  0  0  0  0  0  0  0  0  0  0
   11.9110   -1.6110   23.0050 C   0  0  0  0  0  0  0  0  0  0  0  0
   11.0000   -1.9420   22.1780 C   0  0  2  0  0  0  0  0  0  0  0  0
   11.4470   -1.8400   20.8400 O   0  0  0  0  0  0  0  0  0  0  0  0
   10.2640   -0.7770   22.8120 C   0  0  1  0  0  0  0  0  0  0  0  0
   10.8010    0.5210   22.8030 C   0  0  0  0  0  0  0  0  0  0  0  0
    8.8870   -0.8040   22.3340 N   0  0  0  0  0  0  0  0  0  0  0  0
    8.3230    0.1630   21.3980 C   0  0  0  0  0  0  0  0  0  0  0  0
    8.8310    1.2590   21.1230 O   0  0  0  0  0  0  0  0  0  0  0  0
    7.1510   -0.3550   20.9180 N   0  0  0  0  0  0  0  0  0  0  0  0
    6.3840    0.2640   19.9510 C   0  0  0  0  0  0  0  0  0  0  0  0
    5.1210    0.9530   20.5130 C   0  0  0  0  0  0  0  0  0  0  0  0
    4.6000    1.5050   19.2040 C   0  0  0  0  0  0  0  0  0  0  0  0
    5.1880    1.3680   17.8560 C   0  0  0  0  0  0  0  0  0  0  0  0
    6.2740    0.7230   17.5820 N   0  0  0  0  0  0  0  0  0  0  0  0
    6.8360    0.1930   18.6480 C   0  0  0  0  0  0  0  0  0  0  0  0
   10.3830   -1.4310   23.3180 C   0  0  0  0  0  0  0  0  0  0  0  0
  1  2  1  0
  2  3  1  0
  3  4  2  0
  4  5  1  0
  5  6  2  0
  6  7  1  0
  7  8  1  0
  6  9  1  0
  9 10  1  0
 10 11  1  6
 10 12  1  0
 12 13  1  6
 12 14  1  0
 14 15  1  0
 15 16  2  0
 15 17  1  0
 17 18  1  0
 18 19  2  0
 19 20  1  0
 20 21  2  0
 21 22  1  0
 18 23  1  0
 22 23  2  0
  3 24  1  0
  9 24  2  0
M  END
