pyridine_urea_8934
     RDKit          3D

 20 21  0  0  0  0  0  0  0  0999 V2000
   11.6990   -0.6490   22.8820 C   0  0  0  0  0  0  0  0  0  0  0  0
   10.9950   -1.8920   22.2700 C   0  0  0  0  0  0  0  0  0  0  0  0
    9.4940   -1.9310   22.6560 C   0  0  1  0  0  0  0  0  0  0  0  0
    9.2500   -2.7070   23.7970 C   0  0  0  0  0  0  0  0  0  0  0  0
    7.9940   -3.4300   23.9990 N   0  0  0  0  0  0  0  0  0  0  0  0
    7.3230   -4.0020   22.9360 C   0  0  0  0  0  0  0  0  0  0  0  0
    6.8370   -5.2390   23.3600 C   0  0  0  0  0  0  0  0  0  0  0  0
    6.3180   -5.4290   24.6050 O   0  0  0  0  0  0  0  0  0  0  0  0
    6.8510   -4.6020   25.6460 C   0  0  0  0  0  0  0  0  0  0  0  0
    8.0750   -4.0580   25.2420 C   0  0  0  0  0  0  0  0  0  0  0  0
    8.9550   -0.6710   22.6390 N   0  0  0  0  0  0  0  0  0  0  0  0
    8.4070    0.0420   21.5690 C   0  0  0  0  0  0  0  0  0  0  0  0
    8.9310    1.2890   21.1540 O   0  0  0  0  0  0  0  0  0  0  0  0
    7.3360   -0.6100   21.0470 N   0  0  0  0  0  0  0  0  0  0  0  0
    6.6370    0.0210   20.0730 C   0  0  0  0  0  0  0  0  0  0  0  0
    5.4880    0.7680   20.4200 C   0  0  0  0  0  0  0  0  0  0  0  0
    4.7570    1.4510   19.3080 C   0  0  0  0  0  0  0  0  0  0  0  0
    5.1980    1.3460   18.0210 C   0  0  0  0  0  0  0  0  0  0  0  0
    6.3040    0.6150   17.7170 N   0  0  0  0  0  0  0  0  0  0  0  0
    6.9730   -0.0110   18.7280 C   0  0  0  0  0  0  0  0  0  0  0  0
  1  2  1  0
  3  2  1  1
  3  4  1  0
  4  5  1  0
  5  6  1  0
  6  7  1  0
  7  8  1  0
  8  9  1  0
  5 10  1  0
  9 10  1  0
  3 11  1  0
 11 12  1  0
 12 13  2  0
 12 14  1  0
 14 15  1  0
 15 16  2  0
 16 17  1  0
 17 18  2  0
 18 19  1  0
 15 20  1  0
 19 20  2  0
M  END
