pyridine_urea_7786
     RDKit          3D

 27 30  0  0  0  0  0  0  0  0999 V2000
   12.6810    4.4230   22.0510 C   0  0  0  0  0  0  0  0  0  0  0  0
   11.2650    4.0740   22.4970 C   0  0  0  0  0  0  0  0  0  0  0  0
   11.3240    3.2060   23.6370 O   0  0  0  0  0  0  0  0  0  0  0  0
   10.1490    2.5790   23.9260 C   0  0  0  0  0  0  0  0  0  0  0  0
    8.9120    3.1200   24.4030 O   0  0  0  0  0  0  0  0  0  0  0  0
   10.1220    1.2010   23.7290 C   0  0  1  0  0  0  0  0  0  0  0  0
    9.5830    0.9220   22.5120 C   0  0  0  0  0  0  0  0  0  0  0  0
    8.4590    0.0010   22.5820 N   0  0  0  0  0  0  0  0  0  0  0  0
    8.0450   -0.6120   21.4610 C   0  0  0  0  0  0  0  0  0  0  0  0
    8.8280   -1.0900   20.7180 O   0  0  0  0  0  0  0  0  0  0  0  0
    6.6130   -0.5970   21.2380 N   0  0  0  0  0  0  0  0  0  0  0  0
    6.1090    0.0770   20.1530 C   0  0  0  0  0  0  0  0  0  0  0  0
    4.8530    0.9230   20.1820 C   0  0  0  0  0  0  0  0  0  0  0  0
    4.4600    1.5630   19.0090 C   0  0  0  0  0  0  0  0  0  0  0  0
    5.2280    1.4000   17.8630 C   0  0  0  0  0  0  0  0  0  0  0  0
    6.3500    0.6490   17.7970 N   0  0  0  0  0  0  0  0  0  0  0  0
    6.7640    0.0110   18.9240 C   0  0  0  0  0  0  0  0  0  0  0  0
   11.3080    0.5200   23.9940 C   0  0  1  0  0  0  0  0  0  0  0  0
   11.2610   -0.6650   24.7330 C   0  0  1  0  0  0  0  0  0  0  0  0
   10.3850   -1.5960   24.1470 C   0  0  0  0  0  0  0  0  0  0  0  0
   10.8730   -2.0930   22.9380 C   0  0  2  0  0  0  0  0  0  0  0  0
   12.1930   -2.5530   23.0620 C   0  0  0  0  0  0  0  0  0  0  0  0
   13.1010   -1.6530   23.6430 C   0  0  2  0  0  0  0  0  0  0  0  0
   12.5580   -1.1960   24.8710 C   0  0  0  0  0  0  0  0  0  0  0  0
   13.1200   -0.4200   22.7030 C   0  0  0  0  0  0  0  0  0  0  0  0
   11.8300   -0.3470   22.8810 C   0  0  0  0  0  0  0  0  0  0  0  0
   10.8980   -0.9860   22.1290 C   0  0  0  0  0  0  0  0  0  0  0  0
  1  2  1  0
  2  3  1  0
  3  4  1  0
  4  5  2  0
  4  6  1  0
  6  7  1  6
  7  8  1  0
  8  9  1  0
  9 10  2  0
  9 11  1  0
 11 12  1  0
 12 13  2  0
 13 14  1  0
 14 15  2  0
 15 16  1  0
 12 17  1  0
 16 17  2  0
  6 18  1  0
 18 19  1  0
 19 20  1  6
 21 20  1  1
 21 22  1  0
 23 22  1  6
 19 24  1  0
 23 24  1  0
 23 25  1  0
 18 26  1  6
 25 26  1  0
 21 27  1  0
 26 27  1  0
M  END
