pyridine_urea_2102
     RDKit          3D

 19 20  0  0  0  0  0  0  0  0999 V2000
   12.2040   -2.6080   24.6030 C   0  0  0  0  0  0  0  0  0  0  0  0
   11.0940   -3.3220   24.0520 O   0  0  0  0  0  0  0  0  0  0  0  0
   10.0230   -2.5930   23.5850 C   0  0  0  0  0  0  0  0  0  0  0  0
    8.8670   -2.8370   23.9290 O   0  0  0  0  0  0  0  0  0  0  0  0
   10.4260   -1.4760   22.6030 C   0  0  1  0  0  0  0  0  0  0  0  0
    9.4130   -1.3110   21.4900 N   0  0  0  0  0  0  0  0  0  0  0  0
    8.5770   -0.2160   21.4110 C   0  0  0  0  0  0  0  0  0  0  0  0
    8.9870    0.9220   21.5650 O   0  0  0  0  0  0  0  0  0  0  0  0
    7.2780   -0.5570   21.1050 N   0  0  0  0  0  0  0  0  0  0  0  0
    6.5570    0.0480   20.0620 C   0  0  0  0  0  0  0  0  0  0  0  0
    5.3980    0.7540   20.3570 C   0  0  0  0  0  0  0  0  0  0  0  0
    4.6800    1.3740   19.3350 C   0  0  0  0  0  0  0  0  0  0  0  0
    5.1660    1.2580   18.0320 C   0  0  0  0  0  0  0  0  0  0  0  0
    6.2760    0.5760   17.7260 N   0  0  0  0  0  0  0  0  0  0  0  0
    6.9430   -0.0120   18.7390 C   0  0  0  0  0  0  0  0  0  0  0  0
   10.8150   -0.0940   23.2250 C   0  0  0  0  0  0  0  0  0  0  0  0
   12.1270   -0.4880   22.9780 C   0  0  2  0  0  0  0  0  0  0  0  0
   12.8430    0.5630   22.2730 O   0  0  0  0  0  0  0  0  0  0  0  0
   11.9720   -1.5950   22.1340 C   0  0  0  0  0  0  0  0  0  0  0  0
  1  2  1  0
  2  3  1  0
  3  4  2  0
  5  3  1  0
  5  6  1  6
  6  7  1  0
  7  8  2  0
  7  9  1  0
  9 10  1  0
 10 11  2  0
 11 12  1  0
 12 13  2  0
 13 14  1  0
 10 15  1  0
 14 15  2  0
  5 16  1  0
 16 17  1  0
 17 18  1  6
  5 19  1  0
 17 19  1  0
M  END
