pyridine_urea_295
     RDKit          3D

 31 34  0  0  0  0  0  0  0  0999 V2000
    8.6920    0.7410   21.1740 O   0  0  0  0  0  0  0  0  0  0  0  0
    8.2390   -0.3480   21.5070 C   0  0  0  0  0  0  0  0  0  0  0  0
    7.0130   -0.8070   21.0900 N   0  0  0  0  0  0  0  0  0  0  0  0
    6.4040   -0.0870   20.0020 C   0  0  0  0  0  0  0  0  0  0  0  0
    5.1140    0.6670   20.3160 C   0  0  0  0  0  0  0  0  0  0  0  0
    4.5340    1.4030   19.1620 C   0  0  0  0  0  0  0  0  0  0  0  0
    5.1860    1.3490   17.9420 C   0  0  0  0  0  0  0  0  0  0  0  0
    6.3240    0.6620   17.7220 N   0  0  0  0  0  0  0  0  0  0  0  0
    6.8980   -0.0270   18.7250 C   0  0  0  0  0  0  0  0  0  0  0  0
    8.8950   -1.2260   22.3320 N   0  0  0  0  0  0  0  0  0  0  0  0
   10.0860   -0.7190   23.0340 C   0  0  1  0  0  0  0  0  0  0  0  0
   11.1100   -0.6900   22.1700 C   0  0  0  0  0  0  0  0  0  0  0  0
   11.8790   -1.4370   23.1600 C   0  0  0  0  0  0  0  0  0  0  0  0
   12.3160   -2.5290   23.5330 C   0  0  0  0  0  0  0  0  0  0  0  0
   12.9210   -2.0900   24.7040 C   0  0  0  0  0  0  0  0  0  0  0  0
   12.8510   -0.6300   25.0380 C   0  0  0  0  0  0  0  0  0  0  0  0
   12.2190    0.7100   24.3130 C   0  0  0  0  0  0  0  0  0  0  0  0
   11.5470    0.9420   23.1700 F   0  0  0  0  0  0  0  0  0  0  0  0
   12.3730   -0.6130   24.2010 C   0  0  0  0  0  0  0  0  0  0  0  0
    9.7200    0.6800   23.6870 C   0  0  0  0  0  0  0  0  0  0  0  0
    8.8040    0.5440   24.6650 N   0  0  0  0  0  0  0  0  0  0  0  0
    9.3010    0.0850   25.8430 C   0  0  0  0  0  0  0  0  0  0  0  0
   10.4930   -0.4360   26.1730 O   0  0  0  0  0  0  0  0  0  0  0  0
    8.2690    0.2740   26.7400 C   0  0  0  0  0  0  0  0  0  0  0  0
    8.1790   -0.2280   28.0260 C   0  0  0  0  0  0  0  0  0  0  0  0
    7.0320    0.0850   28.7650 C   0  0  0  0  0  0  0  0  0  0  0  0
    6.0120    0.8890   28.2070 C   0  0  0  0  0  0  0  0  0  0  0  0
    6.1330    1.3830   26.9090 C   0  0  0  0  0  0  0  0  0  0  0  0
    7.2940    1.0520   26.1890 C   0  0  0  0  0  0  0  0  0  0  0  0
    7.7110    1.3820   24.8970 C   0  0  0  0  0  0  0  0  0  0  0  0
    7.1970    2.2270   24.1840 O   0  0  0  0  0  0  0  0  0  0  0  0
  1  2  2  0
  2  3  1  0
  3  4  1  0
  4  5  2  0
  5  6  1  0
  6  7  2  0
  7  8  1  0
  4  9  1  0
  8  9  2  0
  2 10  1  0
 10 11  1  0
 11 12  1  6
 12 13  1  0
 13 14  2  0
 14 15  1  0
 15 16  2  0
 16 17  1  0
 17 18  1  0
 13 19  1  0
 17 19  2  0
 11 20  1  0
 20 21  1  0
 21 22  1  0
 22 23  2  0
 22 24  1  0
 24 25  1  0
 25 26  2  0
 26 27  1  0
 27 28  2  0
 24 29  2  0
 28 29  1  0
 21 30  1  0
 29 30  1  0
 30 31  2  0
M  END
