pyridine_urea_1873
     RDKit          3D

 16 16  0  0  0  0  0  0  0  0999 V2000
   13.0980    0.1190   23.0940 C   0  0  0  0  0  0  0  0  0  0  0  0
   12.1120    0.4290   24.1720 C   0  0  0  0  0  0  0  0  0  0  0  0
   10.8150   -0.0210   24.0650 C   0  0  1  0  0  0  0  0  0  0  0  0
    9.8740    0.7360   23.3950 C   0  0  0  0  0  0  0  0  0  0  0  0
    9.7080    1.7830   24.0110 O   0  0  0  0  0  0  0  0  0  0  0  0
   10.3150   -0.7400   22.8040 C   0  0  0  0  0  0  0  0  0  0  0  0
    8.8770   -0.6550   22.6260 N   0  0  0  0  0  0  0  0  0  0  0  0
    8.3980    0.1050   21.5790 C   0  0  0  0  0  0  0  0  0  0  0  0
    8.8880    1.1790   21.1940 O   0  0  0  0  0  0  0  0  0  0  0  0
    7.2170   -0.4950   20.9930 N   0  0  0  0  0  0  0  0  0  0  0  0
    6.5390    0.0740   19.9880 C   0  0  0  0  0  0  0  0  0  0  0  0
    5.2520    0.8530   20.2450 C   0  0  0  0  0  0  0  0  0  0  0  0
    4.5760    1.4550   19.2180 C   0  0  0  0  0  0  0  0  0  0  0  0
    5.1190    1.3230   17.9440 C   0  0  0  0  0  0  0  0  0  0  0  0
    6.2510    0.6320   17.6730 N   0  0  0  0  0  0  0  0  0  0  0  0
    6.9300    0.0300   18.6730 C   0  0  0  0  0  0  0  0  0  0  0  0
  1  2  1  0
  3  2  1  6
  3  4  1  0
  4  5  1  0
  3  6  1  0
  6  7  1  0
  7  8  1  0
  8  9  2  0
  8 10  1  0
 10 11  1  0
 11 12  2  0
 12 13  1  0
 13 14  2  0
 14 15  1  0
 11 16  1  0
 15 16  2  0
M  END
