pyridine_urea_7944
     RDKit          3D

 25 26  0  0  0  0  0  0  0  0999 V2000
    8.6290    0.6350   21.1510 O   0  0  0  0  0  0  0  0  0  0  0  0
    8.2840   -0.4800   21.4990 C   0  0  0  0  0  0  0  0  0  0  0  0
    7.1040   -1.0120   21.0620 N   0  0  0  0  0  0  0  0  0  0  0  0
    6.4330   -0.2830   20.0540 C   0  0  0  0  0  0  0  0  0  0  0  0
    5.2220    0.3730   20.3290 C   0  0  0  0  0  0  0  0  0  0  0  0
    4.5810    1.1080   19.3240 C   0  0  0  0  0  0  0  0  0  0  0  0
    5.1690    1.1660   18.0770 C   0  0  0  0  0  0  0  0  0  0  0  0
    6.3220    0.5440   17.7910 N   0  0  0  0  0  0  0  0  0  0  0  0
    6.9210   -0.1600   18.7720 C   0  0  0  0  0  0  0  0  0  0  0  0
    9.1090   -1.2030   22.3510 N   0  0  0  0  0  0  0  0  0  0  0  0
   10.2100   -0.2640   22.5810 C   0  0  0  0  0  0  0  0  0  0  0  0
   11.6880   -0.6480   22.4880 C   0  0  0  0  0  0  0  0  0  0  0  0
   12.6920    0.3570   22.6590 C   0  0  0  0  0  0  0  0  0  0  0  0
   12.3790    1.7330   22.9150 C   0  0  0  0  0  0  0  0  0  0  0  0
   13.2520    2.5820   23.0170 O   0  0  0  0  0  0  0  0  0  0  0  0
   12.9430    3.9630   22.9930 C   0  0  0  0  0  0  0  0  0  0  0  0
   13.1120    4.6710   21.8060 C   0  0  0  0  0  0  0  0  0  0  0  0
   12.9050    6.0020   21.9160 F   0  0  0  0  0  0  0  0  0  0  0  0
   12.2270    4.2530   20.8940 F   0  0  0  0  0  0  0  0  0  0  0  0
   10.9310    2.1890   23.0550 C   0  0  0  0  0  0  0  0  0  0  0  0
   10.3910    3.4700   23.3190 C   0  0  0  0  0  0  0  0  0  0  0  0
   10.6210    3.9300   24.5760 F   0  0  0  0  0  0  0  0  0  0  0  0
   10.8100    4.4450   22.4890 F   0  0  0  0  0  0  0  0  0  0  0  0
    9.0290    3.4850   23.2320 F   0  0  0  0  0  0  0  0  0  0  0  0
    9.8300    1.1840   22.8920 C   0  0  0  0  0  0  0  0  0  0  0  0
  1  2  2  0
  2  3  1  0
  3  4  1  0
  4  5  2  0
  5  6  1  0
  6  7  2  0
  7  8  1  0
  4  9  1  0
  8  9  2  0
  2 10  1  0
 10 11  1  0
 11 12  2  0
 12 13  1  0
 13 14  2  0
 14 15  1  0
 15 16  1  0
 16 17  1  0
 17 18  1  0
 17 19  1  0
 14 20  1  0
 20 21  1  0
 21 22  1  0
 21 23  1  0
 21 24  1  0
 11 25  1  0
 20 25  2  0
M  END
