pyridine_urea_7235
     RDKit          3D

 19 19  0  0  0  0  0  0  0  0999 V2000
    9.7480   -3.1730   23.8940 C   0  0  0  0  0  0  0  0  0  0  0  0
   10.7830   -2.1060   24.2050 C   0  0  0  0  0  0  0  0  0  0  0  0
   12.1310   -2.4550   23.7830 N   0  0  0  0  0  0  0  0  0  0  0  0
   13.0940   -2.1440   24.7890 C   0  0  0  0  0  0  0  0  0  0  0  0
   12.8560   -0.8380   25.1750 C   0  0  0  0  0  0  0  0  0  0  0  0
   12.4870   -1.9670   22.5650 C   0  0  0  0  0  0  0  0  0  0  0  0
   11.3310   -1.6640   21.9030 C   0  0  1  0  0  0  0  0  0  0  0  0
   10.6360   -2.6250   21.6860 O   0  0  0  0  0  0  0  0  0  0  0  0
   10.5820   -0.4330   22.4870 C   0  0  0  0  0  0  0  0  0  0  0  0
    9.1190   -0.6000   22.6020 N   0  0  0  0  0  0  0  0  0  0  0  0
    8.4590    0.1690   21.5700 C   0  0  0  0  0  0  0  0  0  0  0  0
    8.8300    1.2870   21.1670 O   0  0  0  0  0  0  0  0  0  0  0  0
    7.3360   -0.3720   21.0150 N   0  0  0  0  0  0  0  0  0  0  0  0
    6.5400    0.2170   20.0430 C   0  0  0  0  0  0  0  0  0  0  0  0
    5.3590    0.9320   20.2590 C   0  0  0  0  0  0  0  0  0  0  0  0
    4.6200    1.5280   19.2440 C   0  0  0  0  0  0  0  0  0  0  0  0
    5.1200    1.3960   17.8650 C   0  0  0  0  0  0  0  0  0  0  0  0
    6.2930    0.6640   17.6870 N   0  0  0  0  0  0  0  0  0  0  0  0
    6.9640    0.1000   18.7310 C   0  0  0  0  0  0  0  0  0  0  0  0
  1  2  1  0
  2  3  1  0
  3  4  1  0
  4  5  1  0
  3  6  1  0
  6  7  1  0
  7  8  1  1
  7  9  1  0
  9 10  1  0
 10 11  1  0
 11 12  2  0
 11 13  1  0
 13 14  1  0
 14 15  2  0
 15 16  1  0
 16 17  2  0
 17 18  1  0
 14 19  1  0
 18 19  2  0
M  END
