pyridine_urea_12417
     RDKit          3D

 21 23  0  0  0  0  0  0  0  0999 V2000
   12.3320    1.8010   22.8610 C   0  0  0  0  0  0  0  0  0  0  0  0
   11.3700    0.7840   22.8020 N   0  0  0  0  0  0  0  0  0  0  0  0
   11.6280   -0.8300   22.7480 C   0  0  0  0  0  0  0  0  0  0  0  0
   10.0260   -1.2760   22.7090 C   0  0  0  0  0  0  0  0  0  0  0  0
    8.6670   -0.6670   22.7180 N   0  0  0  0  0  0  0  0  0  0  0  0
    8.2320    0.0620   21.5300 C   0  0  0  0  0  0  0  0  0  0  0  0
    8.7870    1.1030   21.1430 O   0  0  0  0  0  0  0  0  0  0  0  0
    7.1690   -0.5360   20.9800 N   0  0  0  0  0  0  0  0  0  0  0  0
    6.4170    0.1370   20.0140 C   0  0  0  0  0  0  0  0  0  0  0  0
    5.2330    0.8230   20.3010 C   0  0  0  0  0  0  0  0  0  0  0  0
    4.5230    1.5350   19.1590 C   0  0  0  0  0  0  0  0  0  0  0  0
    5.1880    1.4200   17.8160 C   0  0  0  0  0  0  0  0  0  0  0  0
    6.3250    0.7330   17.6050 N   0  0  0  0  0  0  0  0  0  0  0  0
    6.8940    0.1160   18.7190 C   0  0  0  0  0  0  0  0  0  0  0  0
   10.5650   -0.0700   22.7600 C   0  0  0  0  0  0  0  0  0  0  0  0
   12.1040   -0.1410   22.7990 C   0  0  0  0  0  0  0  0  0  0  0  0
   12.7590    0.2130   24.2180 C   0  0  0  0  0  0  0  0  0  0  0  0
   11.7370    0.1320   23.6860 C   0  0  0  0  0  0  0  0  0  0  0  0
   13.2070   -0.1470   23.0550 C   0  0  0  0  0  0  0  0  0  0  0  0
   12.7860   -0.4080   22.0210 O   0  0  0  0  0  0  0  0  0  0  0  0
   10.1070    1.0840   22.7900 N   0  0  0  0  0  0  0  0  0  0  0  0
  1  2  1  0
  2  3  1  0
  3  4  2  0
  4  5  1  0
  5  6  1  0
  6  7  2  0
  6  8  1  0
  8  9  1  0
  9 10  2  0
 10 11  1  0
 11 12  2  0
 12 13  1  0
  9 14  1  0
 13 14  2  0
  4 15  1  0
 15 16  1  0
 16 17  2  0
 17 18  1  0
 18 19  2  0
 16 20  1  0
 19 20  1  0
  2 21  1  0
 15 21  2  0
M  END
