pyridine_urea_7374
     RDKit          3D

 18 19  0  0  0  0  0  0  0  0999 V2000
    9.0850    1.3010   21.1920 O   0  0  0  0  0  0  0  0  0  0  0  0
    8.7910    0.1430   21.4920 C   0  0  0  0  0  0  0  0  0  0  0  0
    9.5920   -0.7450   22.2120 N   0  0  0  0  0  0  0  0  0  0  0  0
   10.4700   -0.4630   23.3220 C   0  0  0  0  0  0  0  0  0  0  0  0
   11.8560   -0.0800   23.1440 C   0  0  0  0  0  0  0  0  0  0  0  0
   11.4400    1.1740   23.7930 C   0  0  0  0  0  0  0  0  0  0  0  0
   12.3870    0.5600   23.2920 C   0  0  0  0  0  0  0  0  0  0  0  0
   11.4590   -0.5620   23.0380 C   0  0  0  0  0  0  0  0  0  0  0  0
   12.6850   -0.9500   22.5650 F   0  0  0  0  0  0  0  0  0  0  0  0
   11.1570   -1.9170   22.5260 N   0  0  0  0  0  0  0  0  0  0  0  0
   12.2240   -1.3860   22.4850 C   0  0  0  0  0  0  0  0  0  0  0  0
    7.5700   -0.4040   21.1050 N   0  0  0  0  0  0  0  0  0  0  0  0
    6.7410    0.1210   20.0840 C   0  0  0  0  0  0  0  0  0  0  0  0
    5.5580    0.8130   20.4220 C   0  0  0  0  0  0  0  0  0  0  0  0
    4.7490    1.3440   19.4060 C   0  0  0  0  0  0  0  0  0  0  0  0
    5.1410    1.1720   18.0880 C   0  0  0  0  0  0  0  0  0  0  0  0
    6.2480    0.5190   17.7150 N   0  0  0  0  0  0  0  0  0  0  0  0
    6.9900    0.0250   18.7290 C   0  0  0  0  0  0  0  0  0  0  0  0
  1  2  2  0
  2  3  1  0
  3  4  1  0
  4  5  1  0
  5  6  2  0
  6  7  1  0
  7  8  2  0
  8  9  1  0
  8 10  1  0
  5 11  1  0
 10 11  2  0
  2 12  1  0
 12 13  1  0
 13 14  2  0
 14 15  1  0
 15 16  2  0
 16 17  1  0
 13 18  1  0
 17 18  2  0
M  END
