pyridine_urea_14623
     RDKit          3D

 21 22  0  0  0  0  0  0  0  0999 V2000
    7.4070   -0.6470   25.9280 C   0  0  0  0  0  0  0  0  0  0  0  0
    8.8040   -0.0980   25.7260 C   0  0  0  0  0  0  0  0  0  0  0  0
    9.6130   -0.0080   26.8870 O   0  0  0  0  0  0  0  0  0  0  0  0
    9.1500    0.2800   24.3510 N   0  0  0  0  0  0  0  0  0  0  0  0
   10.2520   -0.4770   23.7540 C   0  0  0  0  0  0  0  0  0  0  0  0
   11.2820   -0.7850   24.6550 C   0  0  0  0  0  0  0  0  0  0  0  0
   12.3940   -1.5300   24.2420 C   0  0  0  0  0  0  0  0  0  0  0  0
   13.5700   -1.9870   25.3730 Cl  0  0  0  0  0  0  0  0  0  0  0  0
   12.5670   -1.9520   22.9450 C   0  0  0  0  0  0  0  0  0  0  0  0
   11.4570   -1.6190   22.0070 C   0  0  0  0  0  0  0  0  0  0  0  0
   10.3570   -0.9310   22.4270 C   0  0  0  0  0  0  0  0  0  0  0  0
    9.4050   -0.8000   21.3650 N   0  0  0  0  0  0  0  0  0  0  0  0
    8.5050    0.3340   21.3380 C   0  0  0  0  0  0  0  0  0  0  0  0
    8.8980    1.7150   21.3430 O   0  0  0  0  0  0  0  0  0  0  0  0
    7.2160   -0.1140   21.2090 N   0  0  0  0  0  0  0  0  0  0  0  0
    6.4420    0.3690   20.1610 C   0  0  0  0  0  0  0  0  0  0  0  0
    5.2710    1.0920   20.3230 C   0  0  0  0  0  0  0  0  0  0  0  0
    4.5620    1.5810   19.1270 C   0  0  0  0  0  0  0  0  0  0  0  0
    5.1170    1.2810   17.8920 C   0  0  0  0  0  0  0  0  0  0  0  0
    6.2360    0.5720   17.7290 N   0  0  0  0  0  0  0  0  0  0  0  0
    6.8960    0.1140   18.8720 C   0  0  0  0  0  0  0  0  0  0  0  0
  1  2  1  0
  2  3  2  0
  2  4  1  0
  4  5  1  0
  5  6  2  0
  6  7  1  0
  7  8  1  0
  7  9  2  0
  9 10  1  0
  5 11  1  0
 10 11  2  0
 11 12  1  0
 12 13  1  0
 13 14  2  0
 13 15  1  0
 15 16  1  0
 16 17  2  0
 17 18  1  0
 18 19  2  0
 19 20  1  0
 16 21  1  0
 20 21  2  0
M  END
