pyridine_urea_3207
     RDKit          3D

 20 21  0  0  0  0  0  0  0  0999 V2000
    8.4680   -0.0920   26.0830 C   0  0  0  0  0  0  0  0  0  0  0  0
    9.3700    0.6340   25.2600 O   0  0  0  0  0  0  0  0  0  0  0  0
   10.2040   -0.0890   24.4600 C   0  0  0  0  0  0  0  0  0  0  0  0
   11.3640   -0.6790   24.8600 C   0  0  0  0  0  0  0  0  0  0  0  0
   12.1340   -1.4100   23.9830 C   0  0  0  0  0  0  0  0  0  0  0  0
   13.6070   -2.2540   24.7470 Br  0  0  0  0  0  0  0  0  0  0  0  0
   11.8100   -1.5370   22.6600 C   0  0  0  0  0  0  0  0  0  0  0  0
   12.7610   -2.4060   21.5140 Cl  0  0  0  0  0  0  0  0  0  0  0  0
   10.5320   -0.9050   22.1840 C   0  0  0  0  0  0  0  0  0  0  0  0
    9.7910   -0.2270   23.1440 C   0  0  0  0  0  0  0  0  0  0  0  0
    8.5560    0.3310   22.7650 N   0  0  0  0  0  0  0  0  0  0  0  0
    8.3160    0.6260   21.4910 C   0  0  0  0  0  0  0  0  0  0  0  0
    8.9880    1.7550   20.9070 O   0  0  0  0  0  0  0  0  0  0  0  0
    7.3870   -0.2100   20.9340 N   0  0  0  0  0  0  0  0  0  0  0  0
    6.5370    0.3060   19.9780 C   0  0  0  0  0  0  0  0  0  0  0  0
    5.3570    0.9770   20.2490 C   0  0  0  0  0  0  0  0  0  0  0  0
    4.6180    1.4720   19.1840 C   0  0  0  0  0  0  0  0  0  0  0  0
    5.1040    1.2690   17.9010 C   0  0  0  0  0  0  0  0  0  0  0  0
    6.2290    0.6110   17.6270 N   0  0  0  0  0  0  0  0  0  0  0  0
    6.9160    0.1460   18.6690 C   0  0  0  0  0  0  0  0  0  0  0  0
  1  2  1  0
  2  3  1  0
  3  4  2  0
  4  5  1  0
  5  6  1  0
  5  7  2  0
  7  8  1  0
  7  9  1  0
  3 10  1  0
  9 10  2  0
 10 11  1  0
 11 12  1  0
 12 13  2  0
 12 14  1  0
 14 15  1  0
 15 16  2  0
 16 17  1  0
 17 18  2  0
 18 19  1  0
 15 20  1  0
 19 20  2  0
M  END
