pyridine_urea_10089
     RDKit          3D

 23 25  0  0  0  0  0  0  0  0999 V2000
   13.0990   -2.1790   21.7450 C   0  0  0  0  0  0  0  0  0  0  0  0
   13.4730   -2.5440   23.1850 C   0  0  0  0  0  0  0  0  0  0  0  0
   12.3960   -3.1220   23.8950 O   0  0  0  0  0  0  0  0  0  0  0  0
   11.1970   -2.5330   23.7060 C   0  0  0  0  0  0  0  0  0  0  0  0
   10.1340   -3.1610   23.7910 O   0  0  0  0  0  0  0  0  0  0  0  0
   11.1970   -1.1810   23.4150 C   0  0  0  0  0  0  0  0  0  0  0  0
   10.4300   -0.8520   22.3200 C   0  0  0  0  0  0  0  0  0  0  0  0
    9.0440   -0.7990   22.4890 N   0  0  0  0  0  0  0  0  0  0  0  0
    8.4040    0.0880   21.4920 C   0  0  0  0  0  0  0  0  0  0  0  0
    8.8740    1.1940   21.1930 O   0  0  0  0  0  0  0  0  0  0  0  0
    7.2620   -0.4770   20.9950 N   0  0  0  0  0  0  0  0  0  0  0  0
    6.4930    0.1340   20.0520 C   0  0  0  0  0  0  0  0  0  0  0  0
    5.3220    0.8530   20.2960 C   0  0  0  0  0  0  0  0  0  0  0  0
    4.6400    1.4520   19.2300 C   0  0  0  0  0  0  0  0  0  0  0  0
    5.1350    1.3230   17.9430 C   0  0  0  0  0  0  0  0  0  0  0  0
    6.2420    0.6400   17.6380 N   0  0  0  0  0  0  0  0  0  0  0  0
    6.9190    0.0370   18.7530 C   0  0  0  0  0  0  0  0  0  0  0  0
   12.3350   -0.3620   23.3550 C   0  0  0  0  0  0  0  0  0  0  0  0
   11.8780    0.7060   24.0800 C   0  0  0  0  0  0  0  0  0  0  0  0
   12.1410    1.5500   23.0020 C   0  0  0  0  0  0  0  0  0  0  0  0
   10.9660    2.1690   23.0040 C   0  0  0  0  0  0  0  0  0  0  0  0
   10.6200    1.4380   24.0770 C   0  0  0  0  0  0  0  0  0  0  0  0
   11.0230   -0.3380   24.5510 C   0  0  0  0  0  0  0  0  0  0  0  0
  1  2  1  0
  2  3  1  0
  3  4  1  0
  4  5  2  0
  6  4  1  0
  6  7  1  0
  7  8  1  0
  8  9  1  0
  9 10  2  0
  9 11  1  0
 11 12  1  0
 12 13  2  0
 13 14  1  0
 14 15  2  0
 15 16  1  0
 12 17  1  0
 16 17  2  0
  6 18  1  0
 19 18  1  0
 19 20  1  0
 20 21  1  0
 19 22  1  0
 21 22  1  0
  6 23  1  0
 19 23  1  0
M  END
