pyridine_urea_670
     RDKit          3D

 24 26  0  0  0  0  0  0  0  0999 V2000
   10.0230    6.8390   22.6120 C   0  0  0  0  0  0  0  0  0  0  0  0
   11.2610    5.9690   22.7540 C   0  0  0  0  0  0  0  0  0  0  0  0
   12.5120    6.5430   22.9360 C   0  0  0  0  0  0  0  0  0  0  0  0
   11.0490    5.0190   23.9260 C   0  0  0  0  0  0  0  0  0  0  0  0
   10.8140    3.7120   23.5880 C   0  0  0  0  0  0  0  0  0  0  0  0
    9.5910    3.1980   23.5710 C   0  0  0  0  0  0  0  0  0  0  0  0
    9.4680    1.7700   23.1990 C   0  0  0  0  0  0  0  0  0  0  0  0
   10.6080    1.0160   22.8900 C   0  0  0  0  0  0  0  0  0  0  0  0
   10.4050   -0.3090   22.5540 C   0  0  2  0  0  0  0  0  0  0  0  0
    9.0650   -0.7460   22.6870 N   0  0  0  0  0  0  0  0  0  0  0  0
    8.2180   -0.7300   21.4820 C   0  0  0  0  0  0  0  0  0  0  0  0
    8.6490   -1.1010   20.4650 O   0  0  0  0  0  0  0  0  0  0  0  0
    6.9330   -0.2560   21.5510 N   0  0  0  0  0  0  0  0  0  0  0  0
    6.2970    0.2690   20.3930 C   0  0  0  0  0  0  0  0  0  0  0  0
    5.0530    1.0690   20.3640 C   0  0  0  0  0  0  0  0  0  0  0  0
    4.5370    1.5360   19.1680 C   0  0  0  0  0  0  0  0  0  0  0  0
    5.2130    1.2380   17.9960 C   0  0  0  0  0  0  0  0  0  0  0  0
    6.3470    0.5110   17.9390 N   0  0  0  0  0  0  0  0  0  0  0  0
    6.8590    0.0430   19.1160 C   0  0  0  0  0  0  0  0  0  0  0  0
   11.3940   -1.1340   23.1170 C   0  0  0  0  0  0  0  0  0  0  0  0
   12.6330   -1.1290   22.6730 C   0  0  0  0  0  0  0  0  0  0  0  0
   12.7580   -0.5040   23.7910 C   0  0  0  0  0  0  0  0  0  0  0  0
   11.9910    1.4720   22.8720 C   0  0  0  0  0  0  0  0  0  0  0  0
   11.8760    2.8620   23.2470 C   0  0  0  0  0  0  0  0  0  0  0  0
  1  2  1  0
  2  3  1  0
  2  4  1  0
  4  5  1  0
  5  6  2  0
  6  7  1  0
  7  8  2  0
  8  9  1  0
  9 10  1  1
 10 11  1  0
 11 12  2  0
 11 13  1  0
 13 14  1  0
 14 15  2  0
 15 16  1  0
 16 17  2  0
 17 18  1  0
 14 19  1  0
 18 19  2  0
  9 20  1  0
 20 21  1  0
 20 22  1  0
 21 22  1  0
  8 23  1  0
  5 24  1  0
 23 24  2  0
M  END
