pyridine_urea_3572
     RDKit          3D

 17 18  0  0  0  0  0  0  0  0999 V2000
   10.2090    1.0920   22.8610 C   0  0  0  0  0  0  0  0  0  0  0  0
   10.1530   -0.4370   22.7040 C   0  0  0  0  0  0  0  0  0  0  0  0
    9.4490   -1.0570   23.8690 C   0  0  0  0  0  0  0  0  0  0  0  0
    9.4210   -0.8260   21.5370 N   0  0  0  0  0  0  0  0  0  0  0  0
    8.4540    0.0450   21.2550 C   0  0  0  0  0  0  0  0  0  0  0  0
    8.6740    1.2520   21.0920 O   0  0  0  0  0  0  0  0  0  0  0  0
    7.1590   -0.5750   21.1310 N   0  0  0  0  0  0  0  0  0  0  0  0
    6.4660    0.0250   20.1350 C   0  0  0  0  0  0  0  0  0  0  0  0
    5.1490    0.7710   20.3470 C   0  0  0  0  0  0  0  0  0  0  0  0
    4.4760    1.4370   19.1380 C   0  0  0  0  0  0  0  0  0  0  0  0
    5.1150    1.3190   17.9100 C   0  0  0  0  0  0  0  0  0  0  0  0
    6.2550    0.6680   17.6820 N   0  0  0  0  0  0  0  0  0  0  0  0
    6.8940    0.0660   18.6830 C   0  0  0  0  0  0  0  0  0  0  0  0
   11.5060   -1.0480   22.6710 C   0  0  0  0  0  0  0  0  0  0  0  0
   12.0830   -1.4290   23.8570 C   0  0  0  0  0  0  0  0  0  0  0  0
   13.1750   -0.7240   23.7960 C   0  0  0  0  0  0  0  0  0  0  0  0
   12.8590   -0.1740   22.4760 C   0  0  0  0  0  0  0  0  0  0  0  0
  1  2  1  0
  2  3  1  0
  2  4  1  0
  4  5  1  0
  5  6  2  0
  5  7  1  0
  7  8  1  0
  8  9  2  0
  9 10  1  0
 10 11  2  0
 11 12  1  0
  8 13  1  0
 12 13  2  0
  2 14  1  0
 14 15  1  0
 15 16  1  0
 14 17  1  0
 16 17  1  0
M  END
