pyridine_urea_902
     RDKit          3D

 22 24  0  0  0  0  0  0  0  0999 V2000
    9.2350    0.5670   21.3580 O   0  0  0  0  0  0  0  0  0  0  0  0
    8.7080   -0.5170   21.5490 C   0  0  0  0  0  0  0  0  0  0  0  0
    9.3250   -1.5920   22.3840 N   0  0  0  0  0  0  0  0  0  0  0  0
   10.7130   -1.6840   22.7890 C   0  0  0  0  0  0  0  0  0  0  0  0
   11.5420   -0.5650   22.6560 C   0  0  0  0  0  0  0  0  0  0  0  0
   10.2090   -0.3430   23.0680 C   0  0  0  0  0  0  0  0  0  0  0  0
    9.5100    0.8030   23.3580 C   0  0  0  0  0  0  0  0  0  0  0  0
   10.0740    2.1220   23.2700 C   0  0  0  0  0  0  0  0  0  0  0  0
   11.4820    1.9710   22.8570 C   0  0  0  0  0  0  0  0  0  0  0  0
   12.0520    3.3900   22.7460 C   0  0  0  0  0  0  0  0  0  0  0  0
   13.4360    3.7830   22.7650 N   0  0  0  0  0  0  0  0  0  0  0  0
   13.5030    5.1290   22.6300 C   0  0  0  0  0  0  0  0  0  0  0  0
   12.2120    5.5960   22.5330 C   0  0  0  0  0  0  0  0  0  0  0  0
   11.3320    4.5760   22.6000 N   0  0  0  0  0  0  0  0  0  0  0  0
   12.0960    0.7190   22.6080 C   0  0  0  0  0  0  0  0  0  0  0  0
    7.4620   -0.8760   21.0400 N   0  0  0  0  0  0  0  0  0  0  0  0
    6.6550   -0.1420   20.1280 C   0  0  0  0  0  0  0  0  0  0  0  0
    5.5190    0.6010   20.4310 C   0  0  0  0  0  0  0  0  0  0  0  0
    4.7890    1.2950   19.4690 C   0  0  0  0  0  0  0  0  0  0  0  0
    5.2500    1.2170   18.1660 C   0  0  0  0  0  0  0  0  0  0  0  0
    6.3360    0.5160   17.7980 N   0  0  0  0  0  0  0  0  0  0  0  0
    7.0040   -0.1410   18.7820 C   0  0  0  0  0  0  0  0  0  0  0  0
  1  2  2  0
  2  3  1  0
  3  4  1  0
  4  5  1  0
  5  6  2  0
  6  7  1  0
  7  8  2  0
  8  9  1  0
  9 10  1  0
 10 11  2  0
 11 12  1  0
 12 13  2  0
 10 14  1  0
 13 14  1  0
  5 15  1  0
  9 15  2  0
  2 16  1  0
 16 17  1  0
 17 18  2  0
 18 19  1  0
 19 20  2  0
 20 21  1  0
 17 22  1  0
 21 22  2  0
M  END
