pyridine_urea_2991
     RDKit          3D

 21 23  0  0  0  0  0  0  0  0999 V2000
   13.1790   -1.9210   21.0590 C   0  0  0  0  0  0  0  0  0  0  0  0
   13.9130   -1.5950   22.2080 O   0  0  0  0  0  0  0  0  0  0  0  0
   13.3600   -2.0910   23.3910 C   0  0  1  0  0  0  0  0  0  0  0  0
   13.2650   -0.7410   24.1200 C   0  0  0  0  0  0  0  0  0  0  0  0
   12.0540   -0.3570   23.8520 C   0  0  0  0  0  0  0  0  0  0  0  0
   11.4420    0.9780   23.9880 C   0  0  0  0  0  0  0  0  0  0  0  0
   10.1420    1.0490   23.6240 C   0  0  0  0  0  0  0  0  0  0  0  0
    9.2780   -0.1070   23.0880 C   0  0  0  0  0  0  0  0  0  0  0  0
    8.3680   -0.6310   22.6920 N   0  0  0  0  0  0  0  0  0  0  0  0
    8.0510    0.0610   21.4840 C   0  0  0  0  0  0  0  0  0  0  0  0
    8.7380    1.2530   21.0370 O   0  0  0  0  0  0  0  0  0  0  0  0
    6.9640   -0.6480   20.8860 N   0  0  0  0  0  0  0  0  0  0  0  0
    6.3820    0.0150   19.8830 C   0  0  0  0  0  0  0  0  0  0  0  0
    5.0930    0.7530   20.2050 C   0  0  0  0  0  0  0  0  0  0  0  0
    4.3870    1.5530   19.1160 C   0  0  0  0  0  0  0  0  0  0  0  0
    5.1300    1.4910   17.7870 C   0  0  0  0  0  0  0  0  0  0  0  0
    6.2960    0.7730   17.6240 N   0  0  0  0  0  0  0  0  0  0  0  0
    6.9080    0.0530   18.6310 C   0  0  0  0  0  0  0  0  0  0  0  0
   10.0090   -1.3010   23.0070 C   0  0  0  0  0  0  0  0  0  0  0  0
   11.3030   -1.3650   23.3800 C   0  0  0  0  0  0  0  0  0  0  0  0
   12.0520   -2.5100   23.3280 C   0  0  0  0  0  0  0  0  0  0  0  0
  1  2  1  0
  3  2  1  6
  3  4  1  0
  4  5  1  0
  5  6  2  0
  6  7  1  0
  7  8  2  0
  8  9  1  0
  9 10  1  0
 10 11  2  0
 10 12  1  0
 12 13  1  0
 13 14  2  0
 14 15  1  0
 15 16  2  0
 16 17  1  0
 13 18  1  0
 17 18  2  0
  8 19  1  0
  5 20  1  0
 19 20  2  0
  3 21  1  0
 20 21  1  0
M  END
