pyridine_urea_6476
     RDKit          3D

 23 25  0  0  0  0  0  0  0  0999 V2000
   11.4260   -3.1120   24.5050 C   0  0  0  0  0  0  0  0  0  0  0  0
   10.5110   -2.9760   23.7460 C   0  0  0  0  0  0  0  0  0  0  0  0
    9.1150   -3.4500   23.8220 N   0  0  0  0  0  0  0  0  0  0  0  0
    8.5470   -2.9150   22.5610 C   0  0  0  0  0  0  0  0  0  0  0  0
    9.6490   -2.1780   21.8510 C   0  0  0  0  0  0  0  0  0  0  0  0
   10.7850   -2.2340   22.5600 N   0  0  0  0  0  0  0  0  0  0  0  0
   11.9120   -1.7110   22.2620 C   0  0  0  0  0  0  0  0  0  0  0  0
   12.7260   -0.7360   22.2470 N   0  0  0  0  0  0  0  0  0  0  0  0
   11.9260    0.2120   22.8460 C   0  0  0  0  0  0  0  0  0  0  0  0
   12.4920    1.4820   23.0410 C   0  0  0  0  0  0  0  0  0  0  0  0
   12.9790    0.4040   22.5480 C   0  0  0  0  0  0  0  0  0  0  0  0
   11.6230   -0.4700   22.7090 C   0  0  0  0  0  0  0  0  0  0  0  0
   10.3560   -0.0640   23.2140 C   0  0  0  0  0  0  0  0  0  0  0  0
    9.2290   -0.5100   22.5400 N   0  0  0  0  0  0  0  0  0  0  0  0
    8.5930    0.2340   21.5530 C   0  0  0  0  0  0  0  0  0  0  0  0
    8.9700    1.3620   21.2150 O   0  0  0  0  0  0  0  0  0  0  0  0
    7.5200   -0.4480   21.0500 N   0  0  0  0  0  0  0  0  0  0  0  0
    6.6890    0.1600   20.1470 C   0  0  0  0  0  0  0  0  0  0  0  0
    5.4990    0.9390   20.7830 C   0  0  0  0  0  0  0  0  0  0  0  0
    4.8650    1.4410   19.4890 C   0  0  0  0  0  0  0  0  0  0  0  0
    5.2590    1.2460   18.0770 C   0  0  0  0  0  0  0  0  0  0  0  0
    6.3450    0.5120   17.7590 N   0  0  0  0  0  0  0  0  0  0  0  0
    6.9860    0.0190   18.7900 C   0  0  0  0  0  0  0  0  0  0  0  0
  1  2  1  0
  2  3  2  0
  3  4  1  0
  4  5  2  0
  2  6  1  0
  5  6  1  0
  6  7  1  0
  7  8  2  0
  8  9  1  0
  9 10  2  0
 10 11  1  0
  7 12  1  0
 11 12  2  0
 12 13  1  0
 13 14  1  0
 14 15  1  0
 15 16  2  0
 15 17  1  0
 17 18  1  0
 18 19  2  0
 19 20  1  0
 20 21  2  0
 21 22  1  0
 18 23  1  0
 22 23  2  0
M  END
