pyridine_urea_10055
     RDKit          3D

 24 25  0  0  0  0  0  0  0  0999 V2000
   11.4650   -2.5400   22.0440 C   0  0  0  0  0  0  0  0  0  0  0  0
   11.3380   -1.1100   22.3820 C   0  0  0  0  0  0  0  0  0  0  0  0
   12.4380   -0.3280   22.5490 C   0  0  0  0  0  0  0  0  0  0  0  0
   12.2480    1.0050   22.8360 C   0  0  0  0  0  0  0  0  0  0  0  0
   13.2730    1.8000   22.9560 C   0  0  0  0  0  0  0  0  0  0  0  0
   13.8580    0.7330   22.7910 O   0  0  0  0  0  0  0  0  0  0  0  0
   12.2100    2.6980   23.0880 N   0  0  0  0  0  0  0  0  0  0  0  0
   12.5410    4.0910   22.7270 C   0  0  0  0  0  0  0  0  0  0  0  0
   11.4130    5.0350   23.2000 C   0  0  0  0  0  0  0  0  0  0  0  0
   11.3790    5.2250   24.5790 C   0  0  0  0  0  0  0  0  0  0  0  0
   11.5140    6.3590   22.4920 C   0  0  0  0  0  0  0  0  0  0  0  0
   11.0230    1.6290   23.0000 C   0  0  0  0  0  0  0  0  0  0  0  0
    9.9100    0.8780   22.8520 C   0  0  0  0  0  0  0  0  0  0  0  0
   10.0720   -0.5410   22.5160 C   0  0  0  0  0  0  0  0  0  0  0  0
    8.8990   -1.1940   22.3240 N   0  0  0  0  0  0  0  0  0  0  0  0
    8.0570   -0.3810   21.4570 C   0  0  0  0  0  0  0  0  0  0  0  0
    8.3910    0.7580   21.1460 O   0  0  0  0  0  0  0  0  0  0  0  0
    6.8700   -0.9340   20.9780 N   0  0  0  0  0  0  0  0  0  0  0  0
    6.2720   -0.2040   19.9950 C   0  0  0  0  0  0  0  0  0  0  0  0
    5.0750    0.4440   20.2560 C   0  0  0  0  0  0  0  0  0  0  0  0
    4.5200    1.1940   19.2250 C   0  0  0  0  0  0  0  0  0  0  0  0
    5.1660    1.2700   18.0010 C   0  0  0  0  0  0  0  0  0  0  0  0
    6.3450    0.6390   17.7140 N   0  0  0  0  0  0  0  0  0  0  0  0
    6.8570   -0.0900   18.7510 C   0  0  0  0  0  0  0  0  0  0  0  0
  1  2  1  0
  2  3  2  0
  3  4  1  0
  4  5  1  0
  5  6  2  0
  5  7  1  0
  7  8  1  0
  8  9  1  0
  9 10  1  0
  9 11  1  0
  4 12  2  0
 12 13  1  0
  2 14  1  0
 13 14  2  0
 14 15  1  0
 15 16  1  0
 16 17  2  0
 16 18  1  0
 18 19  1  0
 19 20  2  0
 20 21  1  0
 21 22  2  0
 22 23  1  0
 19 24  1  0
 23 24  2  0
M  END
