pyridine_urea_5774
     RDKit          3D

 21 22  0  0  0  0  0  0  0  0999 V2000
   12.9620   -2.3730   20.9910 C   0  0  0  0  0  0  0  0  0  0  0  0
   13.1610   -1.9010   22.3710 C   0  0  0  0  0  0  0  0  0  0  0  0
   13.6340   -0.7730   22.2650 O   0  0  0  0  0  0  0  0  0  0  0  0
   12.9270    0.2190   22.8440 C   0  0  0  0  0  0  0  0  0  0  0  0
   12.3650    1.1450   22.3180 O   0  0  0  0  0  0  0  0  0  0  0  0
   12.9490    0.0110   24.1780 C   0  0  0  0  0  0  0  0  0  0  0  0
   11.9000   -0.4640   24.3020 C   0  0  0  0  0  0  0  0  0  0  0  0
   10.7890   -0.8660   23.7350 C   0  0  0  0  0  0  0  0  0  0  0  0
   10.0770   -0.9960   22.4340 C   0  0  0  0  0  0  0  0  0  0  0  0
    8.7480   -0.6220   22.4330 N   0  0  0  0  0  0  0  0  0  0  0  0
    8.2170    0.1830   21.4820 C   0  0  0  0  0  0  0  0  0  0  0  0
    8.6460    1.2760   21.0870 O   0  0  0  0  0  0  0  0  0  0  0  0
    7.0230   -0.4020   20.9460 N   0  0  0  0  0  0  0  0  0  0  0  0
    6.3490    0.1980   19.9640 C   0  0  0  0  0  0  0  0  0  0  0  0
    5.1780    0.9140   20.1870 C   0  0  0  0  0  0  0  0  0  0  0  0
    4.5550    1.5300   19.1080 C   0  0  0  0  0  0  0  0  0  0  0  0
    5.1260    1.4050   17.8580 C   0  0  0  0  0  0  0  0  0  0  0  0
    6.2480    0.7110   17.6060 N   0  0  0  0  0  0  0  0  0  0  0  0
    6.8480    0.1090   18.6970 C   0  0  0  0  0  0  0  0  0  0  0  0
   10.7820   -1.0510   25.0220 N   0  0  0  0  0  0  0  0  0  0  0  0
   12.1820   -0.5130   25.3760 N   0  0  0  0  0  0  0  0  0  0  0  0
  1  2  1  0
  2  3  1  0
  3  4  1  0
  4  5  2  0
  4  6  1  0
  6  7  1  0
  7  8  2  0
  8  9  1  0
  9 10  1  0
 10 11  1  0
 11 12  2  0
 11 13  1  0
 13 14  1  0
 14 15  2  0
 15 16  1  0
 16 17  2  0
 17 18  1  0
 14 19  1  0
 18 19  2  0
  8 20  1  0
  6 21  2  0
 20 21  1  0
M  END
