pyridine_urea_9922
     RDKit          3D

 25 26  0  0  0  0  0  0  0  0999 V2000
   13.5670   -3.4700   20.7500 C   0  0  0  0  0  0  0  0  0  0  0  0
   13.3500   -2.5430   21.9360 C   0  0  0  0  0  0  0  0  0  0  0  0
   13.2890   -1.1280   21.4540 C   0  0  0  0  0  0  0  0  0  0  0  0
   12.2620   -2.8480   22.7440 N   0  0  0  0  0  0  0  0  0  0  0  0
   11.1140   -2.3640   22.2020 C   0  0  0  0  0  0  0  0  0  0  0  0
   12.5300   -2.3920   24.1640 S   0  0  0  0  0  0  0  0  0  0  0  0
   13.8480   -2.2370   24.7420 O   0  0  0  0  0  0  0  0  0  0  0  0
   11.5020   -3.0550   24.8910 O   0  0  0  0  0  0  0  0  0  0  0  0
   11.9250   -0.8530   23.6880 C   0  0  0  0  0  0  0  0  0  0  0  0
   12.6420    0.3410   23.3190 C   0  0  0  0  0  0  0  0  0  0  0  0
   11.8520    1.5740   22.9200 C   0  0  0  0  0  0  0  0  0  0  0  0
   10.4010    1.8220   22.8280 C   0  0  0  0  0  0  0  0  0  0  0  0
    9.0290    1.5930   22.8900 C   0  0  0  0  0  0  0  0  0  0  0  0
    8.3440    1.0600   21.8310 N   0  0  0  0  0  0  0  0  0  0  0  0
    8.3930   -0.2460   21.3440 C   0  0  0  0  0  0  0  0  0  0  0  0
    9.4440   -0.8030   21.2080 O   0  0  0  0  0  0  0  0  0  0  0  0
    7.1540   -0.7180   21.0700 N   0  0  0  0  0  0  0  0  0  0  0  0
    6.4420   -0.0270   20.1390 C   0  0  0  0  0  0  0  0  0  0  0  0
    5.2730    0.6990   20.3720 C   0  0  0  0  0  0  0  0  0  0  0  0
    4.6320    1.4010   19.2290 C   0  0  0  0  0  0  0  0  0  0  0  0
    5.2170    1.3100   17.9770 C   0  0  0  0  0  0  0  0  0  0  0  0
    6.3390    0.6100   17.7390 N   0  0  0  0  0  0  0  0  0  0  0  0
    6.8820   -0.0140   18.8170 C   0  0  0  0  0  0  0  0  0  0  0  0
    9.9960    0.3630   23.2810 C   0  0  0  0  0  0  0  0  0  0  0  0
   10.6300   -0.7620   23.6410 C   0  0  0  0  0  0  0  0  0  0  0  0
  1  2  1  0
  2  3  1  0
  2  4  1  0
  4  5  1  0
  6  4  1  0
  6  7  2  0
  6  8  2  0
  6  9  1  0
  9 10  2  0
 10 11  1  0
 11 12  2  0
 12 13  1  0
 13 14  1  0
 14 15  1  0
 15 16  2  0
 15 17  1  0
 17 18  1  0
 18 19  2  0
 19 20  1  0
 20 21  2  0
 21 22  1  0
 18 23  1  0
 22 23  2  0
 12 24  1  0
  9 25  1  0
 24 25  2  0
M  END
