pyridine_urea_8233
     RDKit          3D

 23 25  0  0  0  0  0  0  0  0999 V2000
    8.7600    1.2390   21.0920 O   0  0  0  0  0  0  0  0  0  0  0  0
    8.1180    0.2650   21.5100 C   0  0  0  0  0  0  0  0  0  0  0  0
    8.3610   -0.2910   22.7190 N   0  0  0  0  0  0  0  0  0  0  0  0
    9.7320   -0.2550   23.0880 C   0  0  0  0  0  0  0  0  0  0  0  0
   10.1040    0.6350   24.3280 C   0  0  0  0  0  0  0  0  0  0  0  0
   11.2750    0.1330   24.7720 C   0  0  0  0  0  0  0  0  0  0  0  0
   12.7310   -0.6340   24.3070 C   0  0  0  0  0  0  0  0  0  0  0  0
   12.9710   -0.6210   25.4570 C   0  0  0  0  0  0  0  0  0  0  0  0
   12.2340   -0.3960   24.2070 N   0  0  0  0  0  0  0  0  0  0  0  0
   12.7610   -0.8740   23.1020 C   0  0  0  0  0  0  0  0  0  0  0  0
   12.8020   -2.2460   23.4670 C   0  0  0  0  0  0  0  0  0  0  0  0
   13.2700   -2.9730   22.3860 C   0  0  0  0  0  0  0  0  0  0  0  0
   13.6180   -2.4780   21.0700 C   0  0  0  0  0  0  0  0  0  0  0  0
   13.6210   -1.1030   20.8030 C   0  0  0  0  0  0  0  0  0  0  0  0
   13.1290   -0.2710   21.9820 C   0  0  0  0  0  0  0  0  0  0  0  0
   11.1240    0.1070   23.7080 N   0  0  0  0  0  0  0  0  0  0  0  0
    7.1010   -0.3910   20.8940 N   0  0  0  0  0  0  0  0  0  0  0  0
    6.3920    0.2000   19.9570 C   0  0  0  0  0  0  0  0  0  0  0  0
    5.2130    0.9040   20.1810 C   0  0  0  0  0  0  0  0  0  0  0  0
    4.5780    1.5060   19.1070 C   0  0  0  0  0  0  0  0  0  0  0  0
    5.1510    1.3730   17.8670 C   0  0  0  0  0  0  0  0  0  0  0  0
    6.2780    0.6900   17.6330 N   0  0  0  0  0  0  0  0  0  0  0  0
    6.8780    0.1150   18.6810 C   0  0  0  0  0  0  0  0  0  0  0  0
  1  2  2  0
  2  3  1  0
  3  4  1  0
  4  5  1  0
  5  6  1  0
  6  7  1  0
  7  8  2  0
  8  9  1  0
  9 10  1  0
 10 11  2  0
 11 12  1  0
 12 13  2  0
 13 14  1  0
 10 15  1  0
 14 15  2  0
  6 16  2  0
  9 16  1  0
  2 17  1  0
 17 18  1  0
 18 19  2  0
 19 20  1  0
 20 21  2  0
 21 22  1  0
 18 23  1  0
 22 23  2  0
M  END
