pyridine_urea_6561
     RDKit          3D

 22 23  0  0  0  0  0  0  0  0999 V2000
   10.0760   -0.6720   24.8320 C   0  0  0  0  0  0  0  0  0  0  0  0
    9.9570    0.1090   23.5140 C   0  0  2  0  0  0  0  0  0  0  0  0
    9.3320   -0.6420   22.4240 N   0  0  0  0  0  0  0  0  0  0  0  0
    8.6110    0.1060   21.5160 C   0  0  0  0  0  0  0  0  0  0  0  0
    8.9710    1.2450   21.1820 O   0  0  0  0  0  0  0  0  0  0  0  0
    7.4720   -0.5220   21.0590 N   0  0  0  0  0  0  0  0  0  0  0  0
    6.7120    0.0510   20.0430 C   0  0  0  0  0  0  0  0  0  0  0  0
    5.4830    0.8420   20.3650 C   0  0  0  0  0  0  0  0  0  0  0  0
    4.7310    1.4390   19.3720 C   0  0  0  0  0  0  0  0  0  0  0  0
    5.0920    1.3260   18.0280 C   0  0  0  0  0  0  0  0  0  0  0  0
    6.2750    0.5510   17.7400 N   0  0  0  0  0  0  0  0  0  0  0  0
    7.0120   -0.0380   18.7190 C   0  0  0  0  0  0  0  0  0  0  0  0
   11.2500    0.9160   23.1420 C   0  0  0  0  0  0  0  0  0  0  0  0
   11.3310    2.1250   22.9170 C   0  0  0  0  0  0  0  0  0  0  0  0
   12.5640    1.3390   22.8580 C   0  0  0  0  0  0  0  0  0  0  0  0
   11.7780    0.0360   23.2170 C   0  0  0  0  0  0  0  0  0  0  0  0
   12.0770   -1.4640   23.4090 C   0  0  0  0  0  0  0  0  0  0  0  0
   12.7380   -2.1360   22.3840 C   0  0  0  0  0  0  0  0  0  0  0  0
   12.8030   -1.5940   24.7510 C   0  0  0  0  0  0  0  0  0  0  0  0
   10.8990   -2.5340   23.3400 C   0  0  0  0  0  0  0  0  0  0  0  0
   13.2170   -0.4670   23.0440 C   0  0  0  0  0  0  0  0  0  0  0  0
   12.7870    0.8250   22.8950 C   0  0  0  0  0  0  0  0  0  0  0  0
  2  1  1  1
  2  3  1  0
  3  4  1  0
  4  5  2  0
  4  6  1  0
  6  7  1  0
  7  8  2  0
  8  9  1  0
  9 10  2  0
 10 11  1  0
  7 12  1  0
 11 12  2  0
  2 13  1  0
 13 14  2  0
 14 15  1  0
 15 16  2  0
 16 17  1  0
 17 18  1  0
 17 19  1  0
 17 20  1  0
 16 21  1  0
 13 22  1  0
 21 22  2  0
M  END
