pyridine_urea_952
     RDKit          3D

 22 23  0  0  0  0  0  0  0  0999 V2000
    8.5390   -0.0680   26.3430 C   0  0  0  0  0  0  0  0  0  0  0  0
    9.3630    0.6740   25.4470 O   0  0  0  0  0  0  0  0  0  0  0  0
   10.3640   -0.0540   24.8810 C   0  0  0  0  0  0  0  0  0  0  0  0
   11.0670   -0.8180   25.5110 O   0  0  0  0  0  0  0  0  0  0  0  0
   10.5230    0.1300   23.5180 C   0  0  2  0  0  0  0  0  0  0  0  0
    9.6430   -0.6830   22.8430 C   0  0  0  0  0  0  0  0  0  0  0  0
    8.3730   -0.4040   22.8210 N   0  0  0  0  0  0  0  0  0  0  0  0
    8.1860    0.1300   21.5750 C   0  0  0  0  0  0  0  0  0  0  0  0
    8.7830    1.1400   21.1590 O   0  0  0  0  0  0  0  0  0  0  0  0
    7.2680   -0.6160   20.9420 N   0  0  0  0  0  0  0  0  0  0  0  0
    6.5810    0.0210   19.9750 C   0  0  0  0  0  0  0  0  0  0  0  0
    5.3350    0.7550   20.3940 C   0  0  0  0  0  0  0  0  0  0  0  0
    4.6170    1.4540   19.2650 C   0  0  0  0  0  0  0  0  0  0  0  0
    5.1640    1.3510   18.0020 C   0  0  0  0  0  0  0  0  0  0  0  0
    6.2510    0.7090   17.6030 N   0  0  0  0  0  0  0  0  0  0  0  0
    6.9250    0.0540   18.6520 C   0  0  0  0  0  0  0  0  0  0  0  0
   11.7660   -0.0290   23.0910 C   0  0  0  0  0  0  0  0  0  0  0  0
   12.0740    1.1270   23.5480 C   0  0  0  0  0  0  0  0  0  0  0  0
   12.7570    0.1580   22.8940 C   0  0  0  0  0  0  0  0  0  0  0  0
   11.9980   -1.1030   22.5130 C   0  0  0  0  0  0  0  0  0  0  0  0
   13.1920   -0.9430   22.2450 C   0  0  0  0  0  0  0  0  0  0  0  0
   13.2390    0.2750   22.8130 C   0  0  0  0  0  0  0  0  0  0  0  0
  1  2  1  0
  2  3  1  0
  3  4  2  0
  3  5  1  0
  5  6  1  6
  6  7  1  0
  7  8  1  0
  8  9  2  0
  8 10  1  0
 10 11  1  0
 11 12  2  0
 12 13  1  0
 13 14  2  0
 14 15  1  0
 11 16  1  0
 15 16  2  0
  5 17  1  0
 17 18  2  0
 18 19  1  0
 19 20  2  0
 20 21  1  0
 17 22  1  0
 21 22  2  0
M  END
