pyridine_urea_1946
     RDKit          3D

 19 20  0  0  0  0  0  0  0  0999 V2000
   13.0580   -2.5200   21.0610 C   0  0  0  0  0  0  0  0  0  0  0  0
   13.2280   -1.2530   21.6570 O   0  0  0  0  0  0  0  0  0  0  0  0
   12.8950   -1.3170   22.9680 C   0  0  0  0  0  0  0  0  0  0  0  0
   12.5750   -2.3730   23.5210 O   0  0  0  0  0  0  0  0  0  0  0  0
   12.9630    0.0220   23.6710 C   0  0  0  0  0  0  0  0  0  0  0  0
   11.5880    0.6090   23.8840 C   0  0  1  0  0  0  0  0  0  0  0  0
   10.7210    0.6920   22.7640 C   0  0  0  0  0  0  0  0  0  0  0  0
    9.5550    0.2410   23.3400 C   0  0  1  0  0  0  0  0  0  0  0  0
    9.0900   -0.6980   22.4840 N   0  0  0  0  0  0  0  0  0  0  0  0
    8.4840    0.0290   21.4910 C   0  0  0  0  0  0  0  0  0  0  0  0
    8.9700    1.2600   21.1150 O   0  0  0  0  0  0  0  0  0  0  0  0
    7.3610   -0.5790   20.9820 N   0  0  0  0  0  0  0  0  0  0  0  0
    6.5960    0.0330   19.9800 C   0  0  0  0  0  0  0  0  0  0  0  0
    5.4190    0.7010   20.3170 C   0  0  0  0  0  0  0  0  0  0  0  0
    4.6770    1.3180   19.3190 C   0  0  0  0  0  0  0  0  0  0  0  0
    5.1290    1.2530   18.0030 C   0  0  0  0  0  0  0  0  0  0  0  0
    6.2430    0.5990   17.6660 N   0  0  0  0  0  0  0  0  0  0  0  0
    6.9460    0.0060   18.6530 C   0  0  0  0  0  0  0  0  0  0  0  0
   10.5340   -0.2800   24.5090 C   0  0  0  0  0  0  0  0  0  0  0  0
  1  2  1  0
  2  3  1  0
  3  4  2  0
  3  5  1  0
  6  5  1  6
  6  7  1  0
  7  8  1  0
  8  9  1  6
  9 10  1  0
 10 11  2  0
 10 12  1  0
 12 13  1  0
 13 14  2  0
 14 15  1  0
 15 16  2  0
 16 17  1  0
 13 18  1  0
 17 18  2  0
  6 19  1  0
  8 19  1  0
M  END
