pyridine_urea_7667
     RDKit          3D

 18 18  0  0  0  0  0  0  0  0999 V2000
   12.6990    0.8580   23.1580 C   0  0  0  0  0  0  0  0  0  0  0  0
   12.3680   -0.6110   23.3770 C   0  0  0  0  0  0  0  0  0  0  0  0
   12.9920   -1.2580   24.4470 C   0  0  0  0  0  0  0  0  0  0  0  0
   12.9670   -1.2880   22.1610 C   0  0  0  0  0  0  0  0  0  0  0  0
   10.8450   -0.8980   23.4900 C   0  0  1  0  0  0  0  0  0  0  0  0
   10.5320   -1.7990   24.5060 C   0  0  0  0  0  0  0  0  0  0  0  0
   10.2890    0.1450   23.7850 O   0  0  0  0  0  0  0  0  0  0  0  0
   10.3290   -1.2350   22.2680 C   0  0  0  0  0  0  0  0  0  0  0  0
    8.8830   -1.0890   22.2830 N   0  0  0  0  0  0  0  0  0  0  0  0
    8.3150   -0.0980   21.5410 C   0  0  0  0  0  0  0  0  0  0  0  0
    8.9640    1.1560   21.1830 O   0  0  0  0  0  0  0  0  0  0  0  0
    7.0490   -0.4420   21.1800 N   0  0  0  0  0  0  0  0  0  0  0  0
    6.4190    0.1460   20.0990 C   0  0  0  0  0  0  0  0  0  0  0  0
    5.2550    0.8960   20.2260 C   0  0  0  0  0  0  0  0  0  0  0  0
    4.6040    1.5180   19.1750 C   0  0  0  0  0  0  0  0  0  0  0  0
    5.1450    1.3860   17.9070 C   0  0  0  0  0  0  0  0  0  0  0  0
    6.2590    0.6810   17.6450 N   0  0  0  0  0  0  0  0  0  0  0  0
    6.8890    0.0770   18.6670 C   0  0  0  0  0  0  0  0  0  0  0  0
  2  1  1  0
  2  3  1  0
  2  4  1  0
  2  5  1  0
  5  6  1  1
  5  7  1  0
  5  8  1  0
  8  9  1  0
  9 10  1  0
 10 11  2  0
 10 12  1  0
 12 13  1  0
 13 14  2  0
 14 15  1  0
 15 16  2  0
 16 17  1  0
 13 18  1  0
 17 18  2  0
M  END
