pyridine_urea_4324
     RDKit          3D

 24 26  0  0  0  0  0  0  0  0999 V2000
    8.8560    1.2790   21.1630 O   0  0  0  0  0  0  0  0  0  0  0  0
    8.1680    0.3560   21.6260 C   0  0  0  0  0  0  0  0  0  0  0  0
    8.2790   -0.0790   22.9140 N   0  0  0  0  0  0  0  0  0  0  0  0
    9.5570    0.0600   23.5200 C   0  0  0  0  0  0  0  0  0  0  0  0
   10.3360   -1.1880   23.2540 C   0  0  0  0  0  0  0  0  0  0  0  0
   11.7660   -1.0030   23.6150 C   0  0  0  0  0  0  0  0  0  0  0  0
   12.4970   -2.0550   24.0910 C   0  0  0  0  0  0  0  0  0  0  0  0
   13.4480   -1.0180   24.0860 C   0  0  0  0  0  0  0  0  0  0  0  0
   11.9360   -0.4060   23.5320 C   0  0  0  0  0  0  0  0  0  0  0  0
   11.9090    1.0060   23.1590 C   0  0  0  0  0  0  0  0  0  0  0  0
   12.8320    1.9980   23.1360 F   0  0  0  0  0  0  0  0  0  0  0  0
   12.6780    0.1480   23.5770 C   0  0  0  0  0  0  0  0  0  0  0  0
   10.3110   -1.4090   21.7570 C   0  0  0  0  0  0  0  0  0  0  0  0
   11.5260   -2.0540   21.6430 C   0  0  0  0  0  0  0  0  0  0  0  0
   11.1640   -2.9440   22.3390 O   0  0  0  0  0  0  0  0  0  0  0  0
    9.8230   -2.7360   22.5540 C   0  0  0  0  0  0  0  0  0  0  0  0
    9.7030   -2.4160   23.9820 C   0  0  0  0  0  0  0  0  0  0  0  0
    7.2020   -0.3590   20.9830 N   0  0  0  0  0  0  0  0  0  0  0  0
    6.4980    0.2060   19.9420 C   0  0  0  0  0  0  0  0  0  0  0  0
    5.2560    0.9760   20.2220 C   0  0  0  0  0  0  0  0  0  0  0  0
    4.5990    1.5490   19.1400 C   0  0  0  0  0  0  0  0  0  0  0  0
    5.1390    1.3650   17.8860 C   0  0  0  0  0  0  0  0  0  0  0  0
    6.2440    0.6700   17.5920 N   0  0  0  0  0  0  0  0  0  0  0  0
    6.8750    0.1210   18.6370 C   0  0  0  0  0  0  0  0  0  0  0  0
  1  2  2  0
  2  3  1  0
  3  4  1  0
  5  4  1  0
  5  6  1  0
  6  7  2  0
  7  8  1  0
  8  9  2  0
  9 10  1  0
 10 11  1  0
  6 12  1  0
 10 12  2  0
  5 13  1  0
 13 14  1  0
 14 15  1  0
 15 16  1  0
  5 17  1  0
 16 17  1  0
  2 18  1  0
 18 19  1  0
 19 20  2  0
 20 21  1  0
 21 22  2  0
 22 23  1  0
 19 24  1  0
 23 24  2  0
M  END
