pyridine_urea_9838
     RDKit          3D

 25 27  0  0  0  0  0  0  0  0999 V2000
   12.2760    7.4360   23.9260 C   0  0  0  0  0  0  0  0  0  0  0  0
   11.7600    6.4990   25.0190 C   0  0  0  0  0  0  0  0  0  0  0  0
   10.9800    5.4160   24.3050 C   0  0  0  0  0  0  0  0  0  0  0  0
   10.8550    5.6930   22.8180 C   0  0  0  0  0  0  0  0  0  0  0  0
   12.1520    5.4130   22.0220 C   0  0  0  0  0  0  0  0  0  0  0  0
   13.3900    4.6780   22.9450 S   0  0  0  0  0  0  0  0  0  0  0  0
   12.5860    3.1790   22.8940 C   0  0  0  0  0  0  0  0  0  0  0  0
   13.1450    1.8560   23.1750 N   0  0  0  0  0  0  0  0  0  0  0  0
   12.2160    0.9390   23.0530 C   0  0  0  0  0  0  0  0  0  0  0  0
   12.3760   -0.4180   23.2660 C   0  0  0  0  0  0  0  0  0  0  0  0
   11.2740   -1.2740   23.0580 C   0  0  0  0  0  0  0  0  0  0  0  0
   10.0680   -0.7220   22.6430 C   0  0  0  0  0  0  0  0  0  0  0  0
    8.9210   -1.3880   22.3500 N   0  0  0  0  0  0  0  0  0  0  0  0
    8.0980   -0.6450   21.4510 C   0  0  0  0  0  0  0  0  0  0  0  0
    8.4210    0.4540   21.0200 O   0  0  0  0  0  0  0  0  0  0  0  0
    6.9310   -1.1740   21.0740 N   0  0  0  0  0  0  0  0  0  0  0  0
    6.3210   -0.3660   20.1530 C   0  0  0  0  0  0  0  0  0  0  0  0
    5.0670    0.4200   20.3700 C   0  0  0  0  0  0  0  0  0  0  0  0
    4.5550    1.2150   19.3570 C   0  0  0  0  0  0  0  0  0  0  0  0
    5.2070    1.3240   18.0440 C   0  0  0  0  0  0  0  0  0  0  0  0
    6.4360    0.5840   17.7540 N   0  0  0  0  0  0  0  0  0  0  0  0
    6.9220   -0.2490   18.8910 C   0  0  0  0  0  0  0  0  0  0  0  0
    9.9140    0.6010   22.4640 C   0  0  0  0  0  0  0  0  0  0  0  0
   10.9300    1.4320   22.6580 C   0  0  0  0  0  0  0  0  0  0  0  0
   10.9440    3.1470   22.4880 S   0  0  0  0  0  0  0  0  0  0  0  0
  1  2  1  0
  2  3  1  0
  3  4  1  0
  4  5  1  0
  5  6  1  0
  6  7  1  0
  7  8  2  0
  8  9  1  0
  9 10  2  0
 10 11  1  0
 11 12  2  0
 12 13  1  0
 13 14  1  0
 14 15  2  0
 14 16  1  0
 16 17  1  0
 17 18  2  0
 18 19  1  0
 19 20  2  0
 20 21  1  0
 17 22  1  0
 21 22  2  0
 12 23  1  0
  9 24  1  0
 23 24  2  0
  7 25  1  0
 24 25  1  0
M  END
