pyridine_urea_4745
     RDKit          3D

 22 24  0  0  0  0  0  0  0  0999 V2000
   13.3870    6.4710   22.6260 C   0  0  0  0  0  0  0  0  0  0  0  0
   12.6930    5.3940   22.9970 N   0  0  0  0  0  0  0  0  0  0  0  0
   13.0010    4.1160   22.5240 C   0  0  0  0  0  0  0  0  0  0  0  0
   12.0050    3.1800   23.0970 C   0  0  0  0  0  0  0  0  0  0  0  0
   11.7450    1.8380   22.9490 C   0  0  0  0  0  0  0  0  0  0  0  0
   10.4060    1.8640   22.9210 C   0  0  0  0  0  0  0  0  0  0  0  0
    9.6880    0.7780   22.7260 C   0  0  0  0  0  0  0  0  0  0  0  0
   10.2670   -0.4190   22.5340 C   0  0  0  0  0  0  0  0  0  0  0  0
    9.2940   -1.3140   22.2680 N   0  0  0  0  0  0  0  0  0  0  0  0
    8.3180   -0.7180   21.4470 C   0  0  0  0  0  0  0  0  0  0  0  0
    8.5990    0.4150   21.0650 O   0  0  0  0  0  0  0  0  0  0  0  0
    7.1400   -1.2570   21.0750 N   0  0  0  0  0  0  0  0  0  0  0  0
    6.5070   -0.4680   20.1270 C   0  0  0  0  0  0  0  0  0  0  0  0
    5.3150    0.2040   20.4670 C   0  0  0  0  0  0  0  0  0  0  0  0
    4.6600    1.0160   19.5160 C   0  0  0  0  0  0  0  0  0  0  0  0
    5.2800    1.1280   18.1620 C   0  0  0  0  0  0  0  0  0  0  0  0
    6.4100    0.4820   17.8610 N   0  0  0  0  0  0  0  0  0  0  0  0
    6.9880   -0.2880   18.8290 C   0  0  0  0  0  0  0  0  0  0  0  0
   11.6870   -0.5640   22.5920 C   0  0  0  0  0  0  0  0  0  0  0  0
   12.4490    0.6050   22.8110 C   0  0  0  0  0  0  0  0  0  0  0  0
   11.2360    4.0760   23.8790 C   0  0  0  0  0  0  0  0  0  0  0  0
   11.6300    5.3840   23.8360 N   0  0  0  0  0  0  0  0  0  0  0  0
  1  2  1  0
  2  3  1  0
  3  4  2  0
  4  5  1  0
  5  6  2  0
  6  7  1  0
  7  8  2  0
  8  9  1  0
  9 10  1  0
 10 11  2  0
 10 12  1  0
 12 13  1  0
 13 14  2  0
 14 15  1  0
 15 16  2  0
 16 17  1  0
 13 18  1  0
 17 18  2  0
  8 19  1  0
  5 20  1  0
 19 20  2  0
  4 21  1  0
  2 22  1  0
 21 22  2  0
M  END
