pyridine_urea_4026
     RDKit          3D

 26 27  0  0  0  0  0  0  0  0999 V2000
    6.3010   -2.2620   23.5890 C   0  0  0  0  0  0  0  0  0  0  0  0
    7.4620   -3.0720   23.0750 C   0  0  0  0  0  0  0  0  0  0  0  0
    7.7810   -4.3170   23.6050 C   0  0  0  0  0  0  0  0  0  0  0  0
    8.7140   -2.1720   23.1530 C   0  0  0  0  0  0  0  0  0  0  0  0
    9.3710   -2.0110   24.1810 O   0  0  0  0  0  0  0  0  0  0  0  0
   10.7700   -1.9700   23.8790 C   0  0  0  0  0  0  0  0  0  0  0  0
   11.6200   -2.9330   24.2300 C   0  0  0  0  0  0  0  0  0  0  0  0
   12.8930   -2.8000   23.8900 C   0  0  0  0  0  0  0  0  0  0  0  0
   13.2820   -1.5530   23.1090 C   0  0  0  0  0  0  0  0  0  0  0  0
   12.5490   -0.4480   22.6650 C   0  0  0  0  0  0  0  0  0  0  0  0
   11.2870   -0.8580   23.1690 C   0  0  0  0  0  0  0  0  0  0  0  0
   10.2310   -0.0190   22.9610 C   0  0  1  0  0  0  0  0  0  0  0  0
   10.4470    1.3750   22.8220 C   0  0  0  0  0  0  0  0  0  0  0  0
   11.7050    1.9850   23.0730 C   0  0  0  0  0  0  0  0  0  0  0  0
   12.7750    0.9470   22.9490 C   0  0  0  0  0  0  0  0  0  0  0  0
   11.8100    3.1690   22.3140 C   0  0  0  0  0  0  0  0  0  0  0  0
    9.5510   -0.4410   21.7730 N   0  0  0  0  0  0  0  0  0  0  0  0
    8.4880    0.3460   21.2690 C   0  0  0  0  0  0  0  0  0  0  0  0
    8.6200    1.5390   21.0290 O   0  0  0  0  0  0  0  0  0  0  0  0
    7.3410   -0.3610   21.0450 N   0  0  0  0  0  0  0  0  0  0  0  0
    6.4540    0.2090   20.0360 C   0  0  0  0  0  0  0  0  0  0  0  0
    5.2450    0.8480   20.2590 C   0  0  0  0  0  0  0  0  0  0  0  0
    4.5320    1.3750   19.1960 C   0  0  0  0  0  0  0  0  0  0  0  0
    5.0790    1.2330   17.9260 C   0  0  0  0  0  0  0  0  0  0  0  0
    6.2340    0.6080   17.6790 N   0  0  0  0  0  0  0  0  0  0  0  0
    6.8890    0.1160   18.7350 C   0  0  0  0  0  0  0  0  0  0  0  0
  1  2  1  0
  2  3  1  0
  2  4  1  0
  4  5  1  0
  5  6  1  0
  6  7  2  0
  7  8  1  0
  8  9  2  0
  9 10  1  0
  6 11  1  0
 10 11  2  0
 11 12  1  0
 12 13  1  6
 13 14  1  0
 14 15  1  0
 14 16  1  0
 12 17  1  0
 17 18  1  0
 18 19  2  0
 18 20  1  0
 20 21  1  0
 21 22  2  0
 22 23  1  0
 23 24  2  0
 24 25  1  0
 21 26  1  0
 25 26  2  0
M  END
