pyridine_urea_8089
     RDKit          3D

 24 26  0  0  0  0  0  0  0  0999 V2000
   11.9780   -1.8310   21.9720 C   0  0  0  0  0  0  0  0  0  0  0  0
   11.4630   -0.3870   21.9660 C   0  0  0  0  0  0  0  0  0  0  0  0
   12.6600    0.8790   22.0750 C   0  0  0  0  0  0  0  0  0  0  0  0
   12.4400    2.5460   22.1480 C   0  0  0  0  0  0  0  0  0  0  0  0
   12.1000    3.9440   22.1980 N   0  0  0  0  0  0  0  0  0  0  0  0
   12.8020    5.0050   21.7730 C   0  0  0  0  0  0  0  0  0  0  0  0
   13.0920    5.9030   22.7750 C   0  0  0  0  0  0  0  0  0  0  0  0
   11.9550    6.8600   23.1520 C   0  0  0  0  0  0  0  0  0  0  0  0
   11.1280    6.4400   24.3270 C   0  0  0  0  0  0  0  0  0  0  0  0
   11.5920    5.0230   24.2290 C   0  0  0  0  0  0  0  0  0  0  0  0
   11.0050    4.4220   22.9290 C   0  0  0  0  0  0  0  0  0  0  0  0
   10.7440    2.7690   22.0040 C   0  0  0  0  0  0  0  0  0  0  0  0
    9.6510    1.5080   21.8420 C   0  0  0  0  0  0  0  0  0  0  0  0
   10.0470    0.0470   21.8440 C   0  0  0  0  0  0  0  0  0  0  0  0
    9.0340   -0.8400   21.7260 N   0  0  0  0  0  0  0  0  0  0  0  0
    7.9400   -0.2360   21.1360 C   0  0  0  0  0  0  0  0  0  0  0  0
    7.9400    0.9520   20.8780 O   0  0  0  0  0  0  0  0  0  0  0  0
    6.8980   -0.9900   20.8370 N   0  0  0  0  0  0  0  0  0  0  0  0
    6.2130   -0.2320   19.9600 C   0  0  0  0  0  0  0  0  0  0  0  0
    5.0040    0.4040   20.1920 C   0  0  0  0  0  0  0  0  0  0  0  0
    4.4910    1.1650   19.1350 C   0  0  0  0  0  0  0  0  0  0  0  0
    5.1510    1.2820   17.9230 C   0  0  0  0  0  0  0  0  0  0  0  0
    6.3160    0.6640   17.6980 N   0  0  0  0  0  0  0  0  0  0  0  0
    6.8070   -0.0700   18.7180 C   0  0  0  0  0  0  0  0  0  0  0  0
  1  2  1  0
  2  3  2  0
  3  4  1  0
  4  5  1  0
  5  6  1  0
  6  7  1  0
  7  8  1  0
  8  9  1  0
  9 10  1  0
  5 11  1  0
 10 11  1  0
  4 12  2  0
 12 13  1  0
  2 14  1  0
 13 14  2  0
 14 15  1  0
 15 16  1  0
 16 17  2  0
 16 18  1  0
 18 19  1  0
 19 20  2  0
 20 21  1  0
 21 22  2  0
 22 23  1  0
 19 24  1  0
 23 24  2  0
M  END
