pyridine_urea_8991
     RDKit          3D

 19 20  0  0  0  0  0  0  0  0999 V2000
    9.1780    1.1940   24.6660 C   0  0  0  0  0  0  0  0  0  0  0  0
   10.3270    1.0100   23.9290 N   0  0  0  0  0  0  0  0  0  0  0  0
   11.6180    1.8320   24.1010 N   0  0  0  0  0  0  0  0  0  0  0  0
   12.7050    1.4150   23.1960 C   0  0  0  0  0  0  0  0  0  0  0  0
   11.5120    0.8960   23.2540 C   0  0  0  0  0  0  0  0  0  0  0  0
   10.6480    0.1550   22.9400 C   0  0  0  0  0  0  0  0  0  0  0  0
   10.2270   -0.8670   22.1360 C   0  0  1  0  0  0  0  0  0  0  0  0
   10.9670   -2.0000   22.3970 C   0  0  0  0  0  0  0  0  0  0  0  0
   11.8330   -2.3720   21.4100 O   0  0  0  0  0  0  0  0  0  0  0  0
    8.9230   -1.1260   22.4400 N   0  0  0  0  0  0  0  0  0  0  0  0
    8.3160   -0.2290   21.6060 C   0  0  0  0  0  0  0  0  0  0  0  0
    8.7920    0.8810   21.3980 O   0  0  0  0  0  0  0  0  0  0  0  0
    7.2030   -0.6700   21.0600 N   0  0  0  0  0  0  0  0  0  0  0  0
    6.4420    0.0010   20.0860 C   0  0  0  0  0  0  0  0  0  0  0  0
    5.2560    0.6840   20.3190 C   0  0  0  0  0  0  0  0  0  0  0  0
    4.6120    1.3260   19.2550 C   0  0  0  0  0  0  0  0  0  0  0  0
    5.1920    1.2570   17.9860 C   0  0  0  0  0  0  0  0  0  0  0  0
    6.3290    0.5950   17.7440 N   0  0  0  0  0  0  0  0  0  0  0  0
    6.9240   -0.0140   18.7870 C   0  0  0  0  0  0  0  0  0  0  0  0
  1  2  1  0
  2  3  1  0
  3  4  2  0
  4  5  1  0
  2  6  1  0
  5  6  2  0
  6  7  1  0
  7  8  1  1
  8  9  1  0
  7 10  1  0
 10 11  1  0
 11 12  2  0
 11 13  1  0
 13 14  1  0
 14 15  2  0
 15 16  1  0
 16 17  2  0
 17 18  1  0
 14 19  1  0
 18 19  2  0
M  END
