pyridine_urea_8085
     RDKit          3D

 24 25  0  0  0  0  0  0  0  0999 V2000
   10.6650   -2.9820   24.2220 C   0  0  0  0  0  0  0  0  0  0  0  0
   10.3650   -1.9850   23.2020 C   0  0  1  0  0  0  0  0  0  0  0  0
   11.7100   -2.2210   22.3230 C   0  0  0  0  0  0  0  0  0  0  0  0
   12.7690   -1.8550   22.9390 O   0  0  0  0  0  0  0  0  0  0  0  0
   13.3390   -0.8720   22.1460 C   0  0  0  0  0  0  0  0  0  0  0  0
   13.6520   -1.2210   20.7040 C   0  0  0  0  0  0  0  0  0  0  0  0
   14.1580   -0.2160   19.8420 C   0  0  0  0  0  0  0  0  0  0  0  0
   14.4230    1.2670   20.2860 C   0  0  0  0  0  0  0  0  0  0  0  0
   14.8310    2.3490   19.2110 C   0  0  0  0  0  0  0  0  0  0  0  0
   15.6440    3.2220   19.8140 C   0  0  0  0  0  0  0  0  0  0  0  0
   14.0000    3.2630   18.6200 C   0  0  0  0  0  0  0  0  0  0  0  0
   15.4730    1.9160   18.2250 C   0  0  0  0  0  0  0  0  0  0  0  0
   14.1890    1.5070   21.6840 C   0  0  0  0  0  0  0  0  0  0  0  0
   13.6660    0.4850   22.5310 C   0  0  0  0  0  0  0  0  0  0  0  0
    9.0360   -2.3460   22.5020 N   0  0  0  0  0  0  0  0  0  0  0  0
    8.4230   -1.4430   21.5400 C   0  0  0  0  0  0  0  0  0  0  0  0
    8.9910   -0.9650   20.6510 O   0  0  0  0  0  0  0  0  0  0  0  0
    7.0690   -1.1140   21.5830 N   0  0  0  0  0  0  0  0  0  0  0  0
    6.4580   -0.3380   20.4170 C   0  0  0  0  0  0  0  0  0  0  0  0
    5.3030    0.4130   20.6330 C   0  0  0  0  0  0  0  0  0  0  0  0
    4.7590    1.1220   19.5370 C   0  0  0  0  0  0  0  0  0  0  0  0
    5.3300    1.1000   18.2690 C   0  0  0  0  0  0  0  0  0  0  0  0
    6.4420    0.3860   18.0390 N   0  0  0  0  0  0  0  0  0  0  0  0
    6.9730   -0.3090   19.1000 C   0  0  0  0  0  0  0  0  0  0  0  0
  2  1  1  1
  2  3  1  0
  3  4  1  0
  4  5  1  0
  5  6  2  0
  6  7  1  0
  7  8  2  0
  8  9  1  0
  9 10  1  0
  9 11  1  0
  9 12  1  0
  8 13  1  0
  5 14  1  0
 13 14  2  0
  2 15  1  0
 15 16  1  0
 16 17  2  0
 16 18  1  0
 18 19  1  0
 19 20  2  0
 20 21  1  0
 21 22  2  0
 22 23  1  0
 19 24  1  0
 23 24  2  0
M  END
