pyridine_urea_7411
     RDKit          3D

 17 19  0  0  0  0  0  0  0  0999 V2000
    8.9240    0.9680   21.3810 O   0  0  0  0  0  0  0  0  0  0  0  0
    8.5430   -0.1700   21.6100 C   0  0  0  0  0  0  0  0  0  0  0  0
    7.3810   -0.7180   21.0990 N   0  0  0  0  0  0  0  0  0  0  0  0
    6.6290   -0.0820   20.0870 C   0  0  0  0  0  0  0  0  0  0  0  0
    5.4730    0.6350   20.4270 C   0  0  0  0  0  0  0  0  0  0  0  0
    4.7300    1.2830   19.4340 C   0  0  0  0  0  0  0  0  0  0  0  0
    5.1670    1.1950   18.1270 C   0  0  0  0  0  0  0  0  0  0  0  0
    6.2650    0.5130   17.7700 N   0  0  0  0  0  0  0  0  0  0  0  0
    6.9640   -0.1060   18.7490 C   0  0  0  0  0  0  0  0  0  0  0  0
    9.2940   -1.0040   22.4290 N   0  0  0  0  0  0  0  0  0  0  0  0
   10.7030   -0.5670   22.6050 C   0  0  0  0  0  0  0  0  0  0  0  0
   11.7150   -1.7050   22.6650 C   0  0  0  0  0  0  0  0  0  0  0  0
   12.9170   -1.3760   22.6610 C   0  0  0  0  0  0  0  0  0  0  0  0
   12.5310   -2.2020   21.5280 C   0  0  0  0  0  0  0  0  0  0  0  0
   10.9140    0.3350   23.6270 C   0  0  0  0  0  0  0  0  0  0  0  0
   12.1180    0.2940   23.9130 C   0  0  0  0  0  0  0  0  0  0  0  0
   11.6820    1.5520   23.3500 C   0  0  0  0  0  0  0  0  0  0  0  0
  1  2  2  0
  2  3  1  0
  3  4  1  0
  4  5  2  0
  5  6  1  0
  6  7  2  0
  7  8  1  0
  4  9  1  0
  8  9  2  0
  2 10  1  0
 10 11  1  0
 11 12  1  0
 12 13  1  0
 12 14  1  0
 13 14  1  0
 11 15  1  0
 15 16  1  0
 15 17  1  0
 16 17  1  0
M  END
