pyridine_urea_7868
     RDKit          3D

 24 26  0  0  0  0  0  0  0  0999 V2000
   13.6290    5.4220   22.0640 C   0  0  0  0  0  0  0  0  0  0  0  0
   12.6800    4.2650   21.9050 C   0  0  0  0  0  0  0  0  0  0  0  0
   12.2650    4.0690   20.5660 O   0  0  0  0  0  0  0  0  0  0  0  0
   12.3050    3.5830   23.1230 N   0  0  0  0  0  0  0  0  0  0  0  0
   11.8260    2.2620   22.9860 C   0  0  0  0  0  0  0  0  0  0  0  0
   10.4670    2.2190   22.9550 C   0  0  0  0  0  0  0  0  0  0  0  0
    9.7690    1.0900   22.7860 C   0  0  0  0  0  0  0  0  0  0  0  0
   10.3250   -0.1330   22.6200 C   0  0  0  0  0  0  0  0  0  0  0  0
    9.3000   -1.1390   22.3790 N   0  0  0  0  0  0  0  0  0  0  0  0
    8.3650   -0.5210   21.5310 C   0  0  0  0  0  0  0  0  0  0  0  0
    8.5700    0.8030   21.0420 O   0  0  0  0  0  0  0  0  0  0  0  0
    7.1890   -1.0640   21.0740 N   0  0  0  0  0  0  0  0  0  0  0  0
    6.4900   -0.3200   20.0830 C   0  0  0  0  0  0  0  0  0  0  0  0
    5.2780    0.3430   20.3840 C   0  0  0  0  0  0  0  0  0  0  0  0
    4.6220    1.0870   19.3850 C   0  0  0  0  0  0  0  0  0  0  0  0
    5.1880    1.1500   18.1170 C   0  0  0  0  0  0  0  0  0  0  0  0
    6.3330    0.5340   17.7860 N   0  0  0  0  0  0  0  0  0  0  0  0
    6.9210   -0.1670   18.7810 C   0  0  0  0  0  0  0  0  0  0  0  0
   11.8690   -0.2620   22.6700 C   0  0  0  0  0  0  0  0  0  0  0  0
   12.6520    0.9120   22.8540 C   0  0  0  0  0  0  0  0  0  0  0  0
   11.5940    4.4880   23.9360 C   0  0  1  0  0  0  0  0  0  0  0  0
   10.5730    5.0540   23.4430 C   0  0  0  0  0  0  0  0  0  0  0  0
   10.1390    4.2960   24.5830 C   0  0  2  0  0  0  0  0  0  0  0  0
   10.0700    4.9570   25.8070 C   0  0  0  0  0  0  0  0  0  0  0  0
  1  2  1  0
  2  3  2  0
  2  4  1  0
  4  5  1  0
  5  6  2  0
  6  7  1  0
  7  8  2  0
  8  9  1  0
  9 10  1  0
 10 11  2  0
 10 12  1  0
 12 13  1  0
 13 14  2  0
 14 15  1  0
 15 16  2  0
 16 17  1  0
 13 18  1  0
 17 18  2  0
  8 19  1  0
  5 20  1  0
 19 20  2  0
 21  4  1  6
 21 22  1  0
 21 23  1  0
 22 23  1  0
 23 24  1  1
M  END
