pyridine_urea_12801
     RDKit          3D

 20 21  0  0  0  0  0  0  0  0999 V2000
   13.0180   -1.9670   21.2990 C   0  0  0  0  0  0  0  0  0  0  0  0
   12.0460   -1.4280   22.3580 C   0  0  0  0  0  0  0  0  0  0  0  0
   11.4160   -2.6080   23.1090 C   0  0  0  0  0  0  0  0  0  0  0  0
   12.7790   -0.5470   23.3760 C   0  0  1  0  0  0  0  0  0  0  0  0
   12.4880    0.7890   23.1670 C   0  0  0  0  0  0  0  0  0  0  0  0
   11.2710    1.2460   23.6420 C   0  0  0  0  0  0  0  0  0  0  0  0
   10.3970    0.2720   24.0740 C   0  0  1  0  0  0  0  0  0  0  0  0
    9.9260   -0.5650   23.0730 C   0  0  0  0  0  0  0  0  0  0  0  0
    8.5470   -0.3850   22.7710 N   0  0  0  0  0  0  0  0  0  0  0  0
    8.2280    0.2410   21.6120 C   0  0  0  0  0  0  0  0  0  0  0  0
    8.8470    1.2260   21.1810 O   0  0  0  0  0  0  0  0  0  0  0  0
    7.1220   -0.3800   21.0280 N   0  0  0  0  0  0  0  0  0  0  0  0
    6.4980    0.1720   19.9580 C   0  0  0  0  0  0  0  0  0  0  0  0
    5.3640    0.9090   20.2950 C   0  0  0  0  0  0  0  0  0  0  0  0
    4.6530    1.5590   19.1630 C   0  0  0  0  0  0  0  0  0  0  0  0
    5.1430    1.3990   17.8930 C   0  0  0  0  0  0  0  0  0  0  0  0
    6.2360    0.6700   17.5910 N   0  0  0  0  0  0  0  0  0  0  0  0
    6.9070    0.0570   18.6610 C   0  0  0  0  0  0  0  0  0  0  0  0
   10.9270   -0.6840   25.0520 C   0  0  0  0  0  0  0  0  0  0  0  0
   12.3960   -0.9320   24.8350 C   0  0  0  0  0  0  0  0  0  0  0  0
  1  2  1  0
  2  3  1  0
  4  2  1  6
  4  5  1  0
  5  6  1  0
  6  7  1  0
  7  8  1  6
  8  9  1  0
  9 10  1  0
 10 11  2  0
 10 12  1  0
 12 13  1  0
 13 14  2  0
 14 15  1  0
 15 16  2  0
 16 17  1  0
 13 18  1  0
 17 18  2  0
  7 19  1  0
  4 20  1  0
 19 20  1  0
M  END
