pyridine_urea_1231
     RDKit          3D

 21 22  0  0  0  0  0  0  0  0999 V2000
    9.7070   -0.1560   24.9230 C   0  0  0  0  0  0  0  0  0  0  0  0
   10.9610   -0.7200   24.1980 C   0  0  0  0  0  0  0  0  0  0  0  0
   12.2490    0.0290   24.5780 C   0  0  0  0  0  0  0  0  0  0  0  0
   10.8430   -0.8280   22.6420 C   0  0  2  0  0  0  0  0  0  0  0  0
    9.4350   -0.9710   22.1420 N   0  0  0  0  0  0  0  0  0  0  0  0
    8.6970   -0.0000   21.4390 C   0  0  0  0  0  0  0  0  0  0  0  0
    9.0980    1.1520   21.2330 O   0  0  0  0  0  0  0  0  0  0  0  0
    7.4710   -0.4990   21.0210 N   0  0  0  0  0  0  0  0  0  0  0  0
    6.6190    0.1160   20.0830 C   0  0  0  0  0  0  0  0  0  0  0  0
    5.4570    0.8250   20.3770 C   0  0  0  0  0  0  0  0  0  0  0  0
    4.7130    1.4010   19.3390 C   0  0  0  0  0  0  0  0  0  0  0  0
    5.1650    1.2450   18.0480 C   0  0  0  0  0  0  0  0  0  0  0  0
    6.2720    0.5610   17.7330 N   0  0  0  0  0  0  0  0  0  0  0  0
    6.9640    0.0170   18.7490 C   0  0  0  0  0  0  0  0  0  0  0  0
   11.5910   -1.9560   22.2310 C   0  0  0  0  0  0  0  0  0  0  0  0
   12.6650   -0.9830   22.3080 C   0  0  0  0  0  0  0  0  0  0  0  0
   12.3450    0.2970   22.6470 C   0  0  0  0  0  0  0  0  0  0  0  0
   10.8890    0.4800   22.8760 C   0  0  0  0  0  0  0  0  0  0  0  0
   10.4810    1.6960   23.1770 F   0  0  0  0  0  0  0  0  0  0  0  0
    9.8910   -0.5940   22.7830 C   0  0  0  0  0  0  0  0  0  0  0  0
   10.2990   -2.0300   22.4040 C   0  0  0  0  0  0  0  0  0  0  0  0
  1  2  1  0
  2  3  1  0
  2  4  1  0
  4  5  1  1
  5  6  1  0
  6  7  2  0
  6  8  1  0
  8  9  1  0
  9 10  2  0
 10 11  1  0
 11 12  2  0
 12 13  1  0
  9 14  1  0
 13 14  2  0
  4 15  1  0
 15 16  2  0
 16 17  1  0
 17 18  2  0
 18 19  1  0
 18 20  1  0
 15 21  1  0
 20 21  2  0
M  END
