pyridine_urea_6653
     RDKit          3D

 22 23  0  0  0  0  0  0  0  0999 V2000
   12.0190    1.2490   23.7910 C   0  0  0  0  0  0  0  0  0  0  0  0
   10.9760    0.5910   23.0460 O   0  0  0  0  0  0  0  0  0  0  0  0
   10.7910   -0.7450   23.3740 C   0  0  0  0  0  0  0  0  0  0  0  0
    9.3780   -0.1030   23.6390 C   0  0  0  0  0  0  0  0  0  0  0  0
    9.4760    1.3510   23.2810 C   0  0  0  0  0  0  0  0  0  0  0  0
   10.8680    1.5000   22.8500 C   0  0  0  0  0  0  0  0  0  0  0  0
   10.6180    0.1460   23.2170 C   0  0  1  0  0  0  0  0  0  0  0  0
   10.1920    0.0990   24.5720 C   0  0  0  0  0  0  0  0  0  0  0  0
    9.5480   -0.3810   22.4390 N   0  0  0  0  0  0  0  0  0  0  0  0
    8.7590    0.3620   21.5680 C   0  0  0  0  0  0  0  0  0  0  0  0
    9.0680    1.4810   21.1580 O   0  0  0  0  0  0  0  0  0  0  0  0
    7.5890   -0.2910   21.2230 N   0  0  0  0  0  0  0  0  0  0  0  0
    6.7670    0.1870   20.2020 C   0  0  0  0  0  0  0  0  0  0  0  0
    5.6050    0.9270   20.4350 C   0  0  0  0  0  0  0  0  0  0  0  0
    4.7990    1.4220   19.4160 C   0  0  0  0  0  0  0  0  0  0  0  0
    5.1200    1.1970   18.0830 C   0  0  0  0  0  0  0  0  0  0  0  0
    6.1860    0.5020   17.7030 N   0  0  0  0  0  0  0  0  0  0  0  0
    6.9760    0.0150   18.6940 C   0  0  0  0  0  0  0  0  0  0  0  0
   12.1420    0.9240   22.6220 C   0  0  0  0  0  0  0  0  0  0  0  0
   12.2260   -0.4020   22.8860 C   0  0  0  0  0  0  0  0  0  0  0  0
   13.1780   -1.1450   22.7630 O   0  0  0  0  0  0  0  0  0  0  0  0
   13.0840   -2.0180   21.6460 C   0  0  0  0  0  0  0  0  0  0  0  0
  1  2  1  0
  2  3  1  0
  3  4  2  0
  4  5  1  0
  5  6  2  0
  6  7  1  0
  7  8  1  1
  7  9  1  0
  9 10  1  0
 10 11  2  0
 10 12  1  0
 12 13  1  0
 13 14  2  0
 14 15  1  0
 15 16  2  0
 16 17  1  0
 13 18  1  0
 17 18  2  0
  6 19  1  0
  3 20  1  0
 19 20  2  0
 20 21  1  0
 21 22  1  0
M  END
