pyridine_urea_12825
     RDKit          3D

 19 20  0  0  0  0  0  0  0  0999 V2000
   12.4280   -0.7010   25.0740 C   0  0  0  0  0  0  0  0  0  0  0  0
   12.7720    0.0570   23.7720 C   0  0  0  0  0  0  0  0  0  0  0  0
   11.9580    1.3510   23.6050 C   0  0  0  0  0  0  0  0  0  0  0  0
   12.5250   -0.9050   22.6480 C   0  0  1  0  0  0  0  0  0  0  0  0
   13.2380   -1.8770   22.8430 O   0  0  0  0  0  0  0  0  0  0  0  0
   11.2010   -1.2710   22.6540 C   0  0  0  0  0  0  0  0  0  0  0  0
   10.2910   -0.2900   22.9970 C   0  0  0  0  0  0  0  0  0  0  0  0
    8.9700   -0.6530   22.4640 N   0  0  0  0  0  0  0  0  0  0  0  0
    8.4230    0.1600   21.5030 C   0  0  0  0  0  0  0  0  0  0  0  0
    8.8830    1.2670   21.1820 O   0  0  0  0  0  0  0  0  0  0  0  0
    7.3000   -0.3860   20.9630 N   0  0  0  0  0  0  0  0  0  0  0  0
    6.5150    0.1920   20.0290 C   0  0  0  0  0  0  0  0  0  0  0  0
    5.3420    0.8770   20.2630 C   0  0  0  0  0  0  0  0  0  0  0  0
    4.6230    1.4560   19.2290 C   0  0  0  0  0  0  0  0  0  0  0  0
    5.1390    1.3130   17.9390 C   0  0  0  0  0  0  0  0  0  0  0  0
    6.2680    0.6420   17.6740 N   0  0  0  0  0  0  0  0  0  0  0  0
    6.9220    0.1030   18.7170 C   0  0  0  0  0  0  0  0  0  0  0  0
   11.0870   -2.3240   21.8710 C   0  0  0  0  0  0  0  0  0  0  0  0
   10.9920   -2.6320   23.1970 C   0  0  0  0  0  0  0  0  0  0  0  0
  1  2  1  0
  2  3  1  0
  2  4  1  0
  4  5  1  1
  4  6  1  0
  6  7  1  0
  7  8  1  0
  8  9  1  0
  9 10  2  0
  9 11  1  0
 11 12  1  0
 12 13  2  0
 13 14  1  0
 14 15  2  0
 15 16  1  0
 12 17  1  0
 16 17  2  0
  6 18  1  0
  6 19  1  0
 18 19  1  0
M  END
