pyridine_urea_976
     RDKit          3D

 22 23  0  0  0  0  0  0  0  0999 V2000
    8.8630    0.1490   24.9270 C   0  0  0  0  0  0  0  0  0  0  0  0
    9.5600   -0.5990   23.8200 C   0  0  1  0  0  0  0  0  0  0  0  0
    8.6570   -1.0350   22.7620 N   0  0  0  0  0  0  0  0  0  0  0  0
    8.3360   -0.2210   21.6990 C   0  0  0  0  0  0  0  0  0  0  0  0
    8.9920    0.7560   21.3700 O   0  0  0  0  0  0  0  0  0  0  0  0
    7.1820   -0.6700   21.1040 N   0  0  0  0  0  0  0  0  0  0  0  0
    6.4860    0.0280   20.0030 C   0  0  0  0  0  0  0  0  0  0  0  0
    5.2970    0.6920   20.3040 C   0  0  0  0  0  0  0  0  0  0  0  0
    4.5540    1.4240   19.2430 C   0  0  0  0  0  0  0  0  0  0  0  0
    5.2120    1.3550   17.8870 C   0  0  0  0  0  0  0  0  0  0  0  0
    6.3560    0.6790   17.6580 N   0  0  0  0  0  0  0  0  0  0  0  0
    6.9550    0.0440   18.7000 C   0  0  0  0  0  0  0  0  0  0  0  0
   10.6600    0.2420   23.2130 C   0  0  0  0  0  0  0  0  0  0  0  0
   10.4700    1.4340   23.0050 O   0  0  0  0  0  0  0  0  0  0  0  0
   11.8270   -0.3600   22.9350 N   0  0  0  0  0  0  0  0  0  0  0  0
   12.7410   -0.1220   23.8920 C   0  0  0  0  0  0  0  0  0  0  0  0
   12.5610   -0.9500   24.9940 C   0  0  0  0  0  0  0  0  0  0  0  0
   12.8920   -2.5210   24.4320 S   0  0  0  0  0  0  0  0  0  0  0  0
   11.7060   -3.3270   24.5770 O   0  0  0  0  0  0  0  0  0  0  0  0
   14.1490   -2.9420   24.9910 O   0  0  0  0  0  0  0  0  0  0  0  0
   13.0670   -2.1910   22.7070 C   0  0  0  0  0  0  0  0  0  0  0  0
   11.8870   -1.5870   22.3270 C   0  0  0  0  0  0  0  0  0  0  0  0
  2  1  1  1
  2  3  1  0
  3  4  1  0
  4  5  2  0
  4  6  1  0
  6  7  1  0
  7  8  2  0
  8  9  1  0
  9 10  2  0
 10 11  1  0
  7 12  1  0
 11 12  2  0
  2 13  1  0
 13 14  2  0
 13 15  1  0
 15 16  1  0
 16 17  1  0
 18 17  1  0
 18 19  2  0
 18 20  2  0
 18 21  1  0
 15 22  1  0
 21 22  1  0
M  END
