pyridine_urea_13685
     RDKit          3D

 26 28  0  0  0  0  0  0  0  0999 V2000
    8.9860    0.6180   21.3070 O   0  0  0  0  0  0  0  0  0  0  0  0
    8.4310   -0.4610   21.4800 C   0  0  0  0  0  0  0  0  0  0  0  0
    8.9810   -1.5640   22.0780 N   0  0  0  0  0  0  0  0  0  0  0  0
    9.9390   -1.6000   23.1080 C   0  0  0  0  0  0  0  0  0  0  0  0
   11.4140   -1.3170   22.8350 C   0  0  0  0  0  0  0  0  0  0  0  0
   12.7650   -0.6680   22.6860 C   0  0  0  0  0  0  0  0  0  0  0  0
   13.0660    0.6940   22.9650 C   0  0  0  0  0  0  0  0  0  0  0  0
   12.1570    1.5500   23.3950 C   0  0  0  0  0  0  0  0  0  0  0  0
   10.8190    1.3410   23.6520 C   0  0  0  0  0  0  0  0  0  0  0  0
    9.5030    0.9230   23.8520 C   0  0  0  0  0  0  0  0  0  0  0  0
    8.7720    1.8940   23.6120 O   0  0  0  0  0  0  0  0  0  0  0  0
    9.0640    2.9140   24.5810 C   0  0  0  0  0  0  0  0  0  0  0  0
    9.2450    4.1340   23.9300 C   0  0  0  0  0  0  0  0  0  0  0  0
   10.5390    4.6990   23.8240 C   0  0  0  0  0  0  0  0  0  0  0  0
   10.8210    5.9560   23.1740 C   0  0  0  0  0  0  0  0  0  0  0  0
    9.5530    6.6220   22.6040 C   0  0  0  0  0  0  0  0  0  0  0  0
    8.3150    6.0270   22.7330 C   0  0  0  0  0  0  0  0  0  0  0  0
    8.1620    4.8130   23.3810 C   0  0  0  0  0  0  0  0  0  0  0  0
   10.7170   -0.0940   23.3110 C   0  0  0  0  0  0  0  0  0  0  0  0
    7.1480   -0.7400   21.0870 N   0  0  0  0  0  0  0  0  0  0  0  0
    6.4560   -0.0350   20.0190 C   0  0  0  0  0  0  0  0  0  0  0  0
    5.1770    0.7220   20.3420 C   0  0  0  0  0  0  0  0  0  0  0  0
    4.5390    1.4420   19.1690 C   0  0  0  0  0  0  0  0  0  0  0  0
    5.1790    1.3400   17.9390 C   0  0  0  0  0  0  0  0  0  0  0  0
    6.3190    0.6430   17.7150 N   0  0  0  0  0  0  0  0  0  0  0  0
    6.9200   -0.0170   18.7300 C   0  0  0  0  0  0  0  0  0  0  0  0
  1  2  2  0
  2  3  1  0
  3  4  1  0
  4  5  1  0
  5  6  2  0
  6  7  1  0
  7  8  2  0
  8  9  1  0
  9 10  1  0
 10 11  1  0
 11 12  1  0
 12 13  1  0
 13 14  2  0
 14 15  1  0
 15 16  2  0
 16 17  1  0
 13 18  1  0
 17 18  2  0
  5 19  1  0
  9 19  2  0
  2 20  1  0
 20 21  1  0
 21 22  2  0
 22 23  1  0
 23 24  2  0
 24 25  1  0
 21 26  1  0
 25 26  2  0
M  END
