pyridine_urea_11546
     RDKit          3D

 24 26  0  0  0  0  0  0  0  0999 V2000
   13.7210    4.4520   21.3510 N   0  0  0  0  0  0  0  0  0  0  0  0
   13.4520    3.7680   22.5050 C   0  0  0  0  0  0  0  0  0  0  0  0
   12.0610    3.2130   22.6310 C   0  0  0  0  0  0  0  0  0  0  0  0
   10.9290    4.0200   22.6880 C   0  0  0  0  0  0  0  0  0  0  0  0
    9.6920    3.4030   22.8000 C   0  0  0  0  0  0  0  0  0  0  0  0
    9.6140    2.0280   22.8510 C   0  0  0  0  0  0  0  0  0  0  0  0
   10.7410    1.1980   22.7940 C   0  0  0  0  0  0  0  0  0  0  0  0
   10.4750   -0.1970   22.8580 C   0  0  0  0  0  0  0  0  0  0  0  0
    9.1640   -0.5430   22.5350 N   0  0  0  0  0  0  0  0  0  0  0  0
    8.3890    0.1230   21.4600 C   0  0  0  0  0  0  0  0  0  0  0  0
    8.6700    1.2390   21.0070 O   0  0  0  0  0  0  0  0  0  0  0  0
    7.3340   -0.6110   21.0360 N   0  0  0  0  0  0  0  0  0  0  0  0
    6.5570    0.0210   20.1130 C   0  0  0  0  0  0  0  0  0  0  0  0
    5.3900    0.7410   20.3920 C   0  0  0  0  0  0  0  0  0  0  0  0
    4.6960    1.3530   19.3490 C   0  0  0  0  0  0  0  0  0  0  0  0
    5.1830    1.2290   18.0630 C   0  0  0  0  0  0  0  0  0  0  0  0
    6.2930    0.5410   17.7600 N   0  0  0  0  0  0  0  0  0  0  0  0
    6.9480   -0.0440   18.7850 C   0  0  0  0  0  0  0  0  0  0  0  0
   11.3330   -1.1320   22.2540 C   0  0  0  0  0  0  0  0  0  0  0  0
   12.7780   -0.8410   22.6550 C   0  0  0  0  0  0  0  0  0  0  0  0
   12.9330   -0.0840   23.6130 O   0  0  0  0  0  0  0  0  0  0  0  0
   11.8820    0.0100   24.5750 C   0  0  0  0  0  0  0  0  0  0  0  0
   10.6950   -0.5710   24.1610 C   0  0  0  0  0  0  0  0  0  0  0  0
   12.0170    1.7950   22.6860 C   0  0  0  0  0  0  0  0  0  0  0  0
  1  2  3  0
  2  3  1  0
  3  4  2  0
  4  5  1  0
  5  6  2  0
  6  7  1  0
  7  8  1  0
  8  9  1  0
  9 10  1  0
 10 11  2  0
 10 12  1  0
 12 13  1  0
 13 14  2  0
 14 15  1  0
 15 16  2  0
 16 17  1  0
 13 18  1  0
 17 18  2  0
  8 19  1  0
 19 20  1  0
 20 21  1  0
 21 22  1  0
  8 23  1  0
 22 23  1  0
  3 24  1  0
  7 24  2  0
M  END
