pyridine_urea_4153
     RDKit          3D

 25 27  0  0  0  0  0  0  0  0999 V2000
   12.7010   -2.1190   22.8440 C   0  0  0  0  0  0  0  0  0  0  0  0
   12.4350   -0.6340   22.8240 C   0  0  0  0  0  0  0  0  0  0  0  0
   12.6730    0.1700   23.9130 C   0  0  0  0  0  0  0  0  0  0  0  0
   10.9590   -0.3720   22.4450 C   0  0  0  0  0  0  0  0  0  0  0  0
    9.9650   -0.9750   23.1990 C   0  0  2  0  0  0  0  0  0  0  0  0
    9.1140   -1.4430   22.1330 N   0  0  0  0  0  0  0  0  0  0  0  0
    8.4730   -0.4230   21.4680 C   0  0  0  0  0  0  0  0  0  0  0  0
    8.9910    0.6840   21.3280 O   0  0  0  0  0  0  0  0  0  0  0  0
    7.1510   -0.7720   20.9740 N   0  0  0  0  0  0  0  0  0  0  0  0
    6.5020   -0.1060   19.9930 C   0  0  0  0  0  0  0  0  0  0  0  0
    5.2040    0.6620   20.2570 C   0  0  0  0  0  0  0  0  0  0  0  0
    4.5640    1.3490   19.2510 C   0  0  0  0  0  0  0  0  0  0  0  0
    5.1520    1.3120   17.9890 C   0  0  0  0  0  0  0  0  0  0  0  0
    6.2960    0.6380   17.7150 N   0  0  0  0  0  0  0  0  0  0  0  0
    6.9420   -0.0470   18.6920 C   0  0  0  0  0  0  0  0  0  0  0  0
    9.3730   -0.1770   24.1820 C   0  0  0  0  0  0  0  0  0  0  0  0
    9.2640   -0.5490   25.4380 N   0  0  0  0  0  0  0  0  0  0  0  0
    8.6220    0.4220   26.0890 C   0  0  0  0  0  0  0  0  0  0  0  0
    8.2990    0.3860   27.5620 C   0  0  0  0  0  0  0  0  0  0  0  0
    8.3090   -0.7090   28.3680 N   0  0  0  0  0  0  0  0  0  0  0  0
    7.9670   -0.3190   29.6330 C   0  0  0  0  0  0  0  0  0  0  0  0
    7.7210    1.0080   29.7120 N   0  0  0  0  0  0  0  0  0  0  0  0
    7.9380    1.4080   28.4040 N   0  0  0  0  0  0  0  0  0  0  0  0
    8.2980    1.4460   25.2580 N   0  0  0  0  0  0  0  0  0  0  0  0
    8.8010    1.0530   23.9770 O   0  0  0  0  0  0  0  0  0  0  0  0
  1  2  1  0
  2  3  1  0
  2  4  1  0
  5  4  1  6
  5  6  1  0
  6  7  1  0
  7  8  2  0
  7  9  1  0
  9 10  1  0
 10 11  2  0
 11 12  1  0
 12 13  2  0
 13 14  1  0
 10 15  1  0
 14 15  2  0
  5 16  1  0
 16 17  2  0
 17 18  1  0
 18 19  1  0
 19 20  2  0
 20 21  1  0
 21 22  2  0
 19 23  1  0
 22 23  1  0
 18 24  2  0
 16 25  1  0
 24 25  1  0
M  END
