pyridine_urea_3835
     RDKit          3D

 19 21  0  0  0  0  0  0  0  0999 V2000
    8.9840    1.1930   21.2230 O   0  0  0  0  0  0  0  0  0  0  0  0
    8.4740    0.1090   21.5500 C   0  0  0  0  0  0  0  0  0  0  0  0
    8.9520   -0.7200   22.5410 N   0  0  0  0  0  0  0  0  0  0  0  0
    9.5690   -1.9800   22.3860 C   0  0  0  0  0  0  0  0  0  0  0  0
   10.1010   -2.5720   23.5400 C   0  0  0  0  0  0  0  0  0  0  0  0
   11.3890   -2.3760   24.0100 C   0  0  0  0  0  0  0  0  0  0  0  0
   11.4780   -3.1370   25.1290 N   0  0  0  0  0  0  0  0  0  0  0  0
   10.2690   -3.8060   25.3690 C   0  0  0  0  0  0  0  0  0  0  0  0
    9.4190   -3.4280   24.3550 N   0  0  0  0  0  0  0  0  0  0  0  0
    8.1850   -3.9900   24.4330 C   0  0  0  0  0  0  0  0  0  0  0  0
    8.2780   -4.7770   25.5710 C   0  0  0  0  0  0  0  0  0  0  0  0
    9.6860   -4.7210   26.3010 C   0  0  0  0  0  0  0  0  0  0  0  0
    7.3320   -0.4390   21.0090 N   0  0  0  0  0  0  0  0  0  0  0  0
    6.5890    0.1270   20.0610 C   0  0  0  0  0  0  0  0  0  0  0  0
    5.4300    0.8510   20.3510 C   0  0  0  0  0  0  0  0  0  0  0  0
    4.6970    1.4350   19.3230 C   0  0  0  0  0  0  0  0  0  0  0  0
    5.1380    1.2840   18.0250 C   0  0  0  0  0  0  0  0  0  0  0  0
    6.2350    0.5950   17.7080 N   0  0  0  0  0  0  0  0  0  0  0  0
    6.9200    0.0420   18.7220 C   0  0  0  0  0  0  0  0  0  0  0  0
  1  2  2  0
  2  3  1  0
  3  4  1  0
  4  5  1  0
  5  6  2  0
  6  7  1  0
  7  8  2  0
  5  9  1  0
  8  9  1  0
  9 10  1  0
 10 11  1  0
  8 12  1  0
 11 12  1  0
  2 13  1  0
 13 14  1  0
 14 15  2  0
 15 16  1  0
 16 17  2  0
 17 18  1  0
 14 19  1  0
 18 19  2  0
M  END
