pyridine_urea_1933
     RDKit          3D

 28 30  0  0  0  0  0  0  0  0999 V2000
   13.5000   -0.9790   21.6030 C   0  0  0  0  0  0  0  0  0  0  0  0
   12.7720    0.0090   22.5130 C   0  0  0  0  0  0  0  0  0  0  0  0
   12.5920    1.4620   22.3100 N   0  0  0  0  0  0  0  0  0  0  0  0
   11.8220    2.1780   23.1950 C   0  0  0  0  0  0  0  0  0  0  0  0
   11.5210    3.6920   23.0820 C   0  0  0  0  0  0  0  0  0  0  0  0
   10.4870    4.0440   23.6350 O   0  0  0  0  0  0  0  0  0  0  0  0
   12.3510    4.5450   22.4240 N   0  0  0  0  0  0  0  0  0  0  0  0
   12.1770    5.9310   22.3090 C   0  0  0  0  0  0  0  0  0  0  0  0
   13.6270    4.2260   22.4250 C   0  0  0  0  0  0  0  0  0  0  0  0
   11.2600    1.5940   24.2070 N   0  0  0  0  0  0  0  0  0  0  0  0
   11.5320    0.1970   24.3020 C   0  0  0  0  0  0  0  0  0  0  0  0
   11.0060   -0.5590   25.2120 N   0  0  0  0  0  0  0  0  0  0  0  0
   11.4860   -1.7370   24.4360 C   0  0  0  0  0  0  0  0  0  0  0  0
   10.7220   -1.6450   23.2400 C   0  0  0  0  0  0  0  0  0  0  0  0
    9.8550   -0.5570   23.2510 C   0  0  1  0  0  0  0  0  0  0  0  0
    8.6440   -0.8700   22.5480 N   0  0  0  0  0  0  0  0  0  0  0  0
    8.2030   -0.0670   21.5470 C   0  0  0  0  0  0  0  0  0  0  0  0
    8.8630    1.1570   21.1800 O   0  0  0  0  0  0  0  0  0  0  0  0
    7.0730   -0.5770   20.9900 N   0  0  0  0  0  0  0  0  0  0  0  0
    6.4320    0.0670   19.9550 C   0  0  0  0  0  0  0  0  0  0  0  0
    5.1540    0.8480   20.2140 C   0  0  0  0  0  0  0  0  0  0  0  0
    4.5950    1.4750   19.1390 C   0  0  0  0  0  0  0  0  0  0  0  0
    5.1690    1.3950   17.8870 C   0  0  0  0  0  0  0  0  0  0  0  0
    6.2920    0.7050   17.6250 N   0  0  0  0  0  0  0  0  0  0  0  0
    6.8910    0.0610   18.6570 C   0  0  0  0  0  0  0  0  0  0  0  0
    9.6180   -0.4500   24.7670 C   0  0  0  0  0  0  0  0  0  0  0  0
   12.2690   -0.6000   23.5130 C   0  0  0  0  0  0  0  0  0  0  0  0
   12.5100   -2.1240   23.7070 C   0  0  0  0  0  0  0  0  0  0  0  0
  1  2  1  0
  2  3  2  0
  3  4  1  0
  4  5  1  0
  5  6  2  0
  5  7  1  0
  7  8  1  0
  7  9  1  0
  4 10  2  0
 10 11  1  0
 11 12  1  0
 12 13  1  0
 13 14  1  0
 14 15  1  0
 15 16  1  6
 16 17  1  0
 17 18  2  0
 17 19  1  0
 19 20  1  0
 20 21  2  0
 21 22  1  0
 22 23  2  0
 23 24  1  0
 20 25  1  0
 24 25  2  0
 12 26  1  0
 15 26  1  0
  2 27  1  0
 11 27  2  0
 27 28  1  0
M  END
