pyridine_urea_15248
     RDKit          3D

 15 15  0  0  0  0  0  0  0  0999 V2000
   12.9430   -0.1700   22.7530 C   0  0  0  0  0  0  0  0  0  0  0  0
   11.7450   -1.1280   22.7870 C   0  0  0  0  0  0  0  0  0  0  0  0
   11.8660   -1.9560   23.8670 F   0  0  0  0  0  0  0  0  0  0  0  0
   11.7840   -1.9330   21.6870 F   0  0  0  0  0  0  0  0  0  0  0  0
   10.4420   -0.3450   22.8600 C   0  0  0  0  0  0  0  0  0  0  0  0
    9.3620   -0.8590   22.2260 N   0  0  0  0  0  0  0  0  0  0  0  0
    8.6030    0.0140   21.5210 C   0  0  0  0  0  0  0  0  0  0  0  0
    9.0010    1.1460   21.2080 O   0  0  0  0  0  0  0  0  0  0  0  0
    7.3010   -0.5510   21.2070 N   0  0  0  0  0  0  0  0  0  0  0  0
    6.5940    0.0380   20.1860 C   0  0  0  0  0  0  0  0  0  0  0  0
    5.3070    0.8340   20.4350 C   0  0  0  0  0  0  0  0  0  0  0  0
    4.5900    1.4750   19.2380 C   0  0  0  0  0  0  0  0  0  0  0  0
    5.1490    1.2950   17.9840 C   0  0  0  0  0  0  0  0  0  0  0  0
    6.2560    0.6080   17.7110 N   0  0  0  0  0  0  0  0  0  0  0  0
    6.9370    0.0190   18.7050 C   0  0  0  0  0  0  0  0  0  0  0  0
  1  2  1  0
  2  3  1  0
  2  4  1  0
  2  5  1  0
  5  6  1  0
  6  7  1  0
  7  8  2  0
  7  9  1  0
  9 10  1  0
 10 11  2  0
 11 12  1  0
 12 13  2  0
 13 14  1  0
 10 15  1  0
 14 15  2  0
M  END
