pyridine_urea_14262
     RDKit          3D

 22 24  0  0  0  0  0  0  0  0999 V2000
    8.6760    0.9180   21.2750 O   0  0  0  0  0  0  0  0  0  0  0  0
    8.0370   -0.1260   21.3670 C   0  0  0  0  0  0  0  0  0  0  0  0
    6.6210   -0.2370   21.1730 N   0  0  0  0  0  0  0  0  0  0  0  0
    6.1400    0.3270   20.0320 C   0  0  0  0  0  0  0  0  0  0  0  0
    4.9700    1.0610   20.1040 C   0  0  0  0  0  0  0  0  0  0  0  0
    4.4970    1.6440   18.9450 C   0  0  0  0  0  0  0  0  0  0  0  0
    5.2080    1.4700   17.7600 C   0  0  0  0  0  0  0  0  0  0  0  0
    6.3410    0.7540   17.6730 N   0  0  0  0  0  0  0  0  0  0  0  0
    6.7880    0.1900   18.8180 C   0  0  0  0  0  0  0  0  0  0  0  0
    8.4530   -1.3620   21.6520 N   0  0  0  0  0  0  0  0  0  0  0  0
    9.6180   -1.5440   22.4200 C   0  0  0  0  0  0  0  0  0  0  0  0
    9.4670   -1.1770   23.8580 C   0  0  0  0  0  0  0  0  0  0  0  0
   10.5590   -1.3730   24.6290 C   0  0  0  0  0  0  0  0  0  0  0  0
   11.6830   -1.8370   24.1900 N   0  0  0  0  0  0  0  0  0  0  0  0
   11.7490   -2.1250   22.9070 C   0  0  0  0  0  0  0  0  0  0  0  0
   12.8750   -2.5410   22.5700 N   0  0  0  0  0  0  0  0  0  0  0  0
   13.2120   -1.5060   21.7060 C   0  0  0  0  0  0  0  0  0  0  0  0
   13.2130   -0.3090   22.4170 C   0  0  0  0  0  0  0  0  0  0  0  0
   12.7990   -0.4030   23.7320 C   0  0  0  0  0  0  0  0  0  0  0  0
   13.1360   -1.5690   24.4650 C   0  0  0  0  0  0  0  0  0  0  0  0
   13.5160   -2.6620   23.7150 C   0  0  0  0  0  0  0  0  0  0  0  0
   10.7890   -2.0180   21.9600 C   0  0  0  0  0  0  0  0  0  0  0  0
  1  2  2  0
  2  3  1  0
  3  4  1  0
  4  5  2  0
  5  6  1  0
  6  7  2  0
  7  8  1  0
  4  9  1  0
  8  9  2  0
  2 10  1  0
 10 11  1  0
 11 12  2  0
 12 13  1  0
 13 14  2  0
 14 15  1  0
 15 16  1  0
 16 17  1  0
 17 18  1  0
 18 19  1  0
 19 20  1  0
 16 21  1  0
 20 21  1  0
 11 22  1  0
 15 22  2  0
M  END
