pyridine_urea_12423
     RDKit          3D

 21 23  0  0  0  0  0  0  0  0999 V2000
    8.8990    1.1810   21.2050 O   0  0  0  0  0  0  0  0  0  0  0  0
    8.2200    0.2380   21.6410 C   0  0  0  0  0  0  0  0  0  0  0  0
    8.3460   -0.2750   22.9070 N   0  0  0  0  0  0  0  0  0  0  0  0
    9.5000    0.0870   23.6820 C   0  0  0  0  0  0  0  0  0  0  0  0
   10.6360   -0.9260   23.4390 C   0  0  0  0  0  0  0  0  0  0  0  0
   10.6080   -2.3360   23.4350 C   0  0  0  0  0  0  0  0  0  0  0  0
    9.1400   -3.1940   23.7450 Cl  0  0  0  0  0  0  0  0  0  0  0  0
   11.8930   -2.8640   23.1520 O   0  0  0  0  0  0  0  0  0  0  0  0
   12.5310   -1.5970   23.0260 C   0  0  0  0  0  0  0  0  0  0  0  0
   13.3850   -0.6680   22.8460 C   0  0  0  0  0  0  0  0  0  0  0  0
   11.7570    0.0010   23.2430 C   0  0  0  0  0  0  0  0  0  0  0  0
   12.2300    1.4480   23.1670 C   0  0  0  0  0  0  0  0  0  0  0  0
   13.1370    0.5770   22.9340 C   0  0  0  0  0  0  0  0  0  0  0  0
   12.0230   -0.5820   23.1510 C   0  0  0  0  0  0  0  0  0  0  0  0
    7.2330   -0.4390   20.9860 N   0  0  0  0  0  0  0  0  0  0  0  0
    6.5280    0.1440   19.9510 C   0  0  0  0  0  0  0  0  0  0  0  0
    5.2570    0.9150   20.2510 C   0  0  0  0  0  0  0  0  0  0  0  0
    4.5920    1.5050   19.1890 C   0  0  0  0  0  0  0  0  0  0  0  0
    5.1370    1.3470   17.9190 C   0  0  0  0  0  0  0  0  0  0  0  0
    6.2530    0.6590   17.6380 N   0  0  0  0  0  0  0  0  0  0  0  0
    6.9200    0.0760   18.6480 C   0  0  0  0  0  0  0  0  0  0  0  0
  1  2  2  0
  2  3  1  0
  3  4  1  0
  4  5  1  0
  5  6  2  0
  6  7  1  0
  6  8  1  0
  8  9  1  0
  9 10  1  0
 10 11  2  0
 11 12  1  0
 12 13  2  0
  5 14  1  0
  9 14  2  0
 13 14  1  0
  2 15  1  0
 15 16  1  0
 16 17  2  0
 17 18  1  0
 18 19  2  0
 19 20  1  0
 16 21  1  0
 20 21  2  0
M  END
