pyridine_urea_4678
     RDKit          3D

 22 24  0  0  0  0  0  0  0  0999 V2000
    8.8160    1.2240   21.1570 O   0  0  0  0  0  0  0  0  0  0  0  0
    8.3470    0.1350   21.5130 C   0  0  0  0  0  0  0  0  0  0  0  0
    8.9220   -0.5930   22.5150 N   0  0  0  0  0  0  0  0  0  0  0  0
   10.2320   -0.1650   22.9350 C   0  0  0  0  0  0  0  0  0  0  0  0
   10.3250    1.3850   22.8990 C   0  0  0  0  0  0  0  0  0  0  0  0
   11.4980    1.4250   22.9210 C   0  0  0  0  0  0  0  0  0  0  0  0
   12.4630    0.7750   22.9630 C   0  0  0  0  0  0  0  0  0  0  0  0
   12.8490   -0.5240   23.0230 C   0  0  0  0  0  0  0  0  0  0  0  0
   12.7940   -1.2840   21.8450 C   0  0  0  0  0  0  0  0  0  0  0  0
   13.2500   -2.5040   22.3970 C   0  0  0  0  0  0  0  0  0  0  0  0
   13.6120   -2.8200   23.6890 C   0  0  0  0  0  0  0  0  0  0  0  0
   13.6030   -2.0050   24.6860 C   0  0  0  0  0  0  0  0  0  0  0  0
   13.2130   -0.8230   24.2940 C   0  0  0  0  0  0  0  0  0  0  0  0
   12.7900    1.9090   22.9320 O   0  0  0  0  0  0  0  0  0  0  0  0
   11.3110    2.4990   22.8870 N   0  0  0  0  0  0  0  0  0  0  0  0
    7.2260   -0.4660   21.0060 N   0  0  0  0  0  0  0  0  0  0  0  0
    6.5290    0.1060   20.0150 C   0  0  0  0  0  0  0  0  0  0  0  0
    5.3800    0.8140   20.3500 C   0  0  0  0  0  0  0  0  0  0  0  0
    4.6570    1.4430   19.2870 C   0  0  0  0  0  0  0  0  0  0  0  0
    5.1350    1.3090   18.0140 C   0  0  0  0  0  0  0  0  0  0  0  0
    6.2670    0.5960   17.6830 N   0  0  0  0  0  0  0  0  0  0  0  0
    6.9200    0.0220   18.7010 C   0  0  0  0  0  0  0  0  0  0  0  0
  1  2  2  0
  2  3  1  0
  3  4  1  0
  4  5  1  0
  5  6  1  0
  6  7  2  0
  7  8  1  0
  8  9  2  0
  9 10  1  0
 10 11  2  0
 11 12  1  0
  8 13  1  0
 12 13  2  0
  7 14  1  0
  5 15  2  0
 14 15  1  0
  2 16  1  0
 16 17  1  0
 17 18  2  0
 18 19  1  0
 19 20  2  0
 20 21  1  0
 17 22  1  0
 21 22  2  0
M  END
