pyridine_urea_3834
     RDKit          3D

 18 18  0  0  0  0  0  0  0  0999 V2000
   13.0870   -1.6970   21.5260 C   0  0  0  0  0  0  0  0  0  0  0  0
   12.7250   -0.9870   22.8010 C   0  0  0  0  0  0  0  0  0  0  0  0
   12.9140    0.3790   23.0390 C   0  0  0  0  0  0  0  0  0  0  0  0
   13.4480   -1.6560   23.8490 O   0  0  0  0  0  0  0  0  0  0  0  0
   11.2520   -1.3240   23.0510 C   0  0  0  0  0  0  0  0  0  0  0  0
   10.9110   -2.3500   22.2640 F   0  0  0  0  0  0  0  0  0  0  0  0
   11.1990   -1.8360   24.3150 F   0  0  0  0  0  0  0  0  0  0  0  0
   10.4140   -0.2360   23.0380 C   0  0  0  0  0  0  0  0  0  0  0  0
    9.0920   -0.6020   22.5550 N   0  0  0  0  0  0  0  0  0  0  0  0
    8.5410    0.1920   21.5820 C   0  0  0  0  0  0  0  0  0  0  0  0
    8.9940    1.2900   21.2360 O   0  0  0  0  0  0  0  0  0  0  0  0
    7.3370   -0.4030   21.0150 N   0  0  0  0  0  0  0  0  0  0  0  0
    6.6050    0.1310   20.0180 C   0  0  0  0  0  0  0  0  0  0  0  0
    5.3170    0.9040   20.3410 C   0  0  0  0  0  0  0  0  0  0  0  0
    4.6310    1.4460   19.2760 C   0  0  0  0  0  0  0  0  0  0  0  0
    5.1300    1.2670   17.9890 C   0  0  0  0  0  0  0  0  0  0  0  0
    6.2440    0.5890   17.6890 N   0  0  0  0  0  0  0  0  0  0  0  0
    6.9540    0.0370   18.6890 C   0  0  0  0  0  0  0  0  0  0  0  0
  1  2  1  0
  2  3  1  0
  2  4  1  0
  2  5  1  0
  5  6  1  0
  5  7  1  0
  5  8  1  0
  8  9  1  0
  9 10  1  0
 10 11  2  0
 10 12  1  0
 12 13  1  0
 13 14  2  0
 14 15  1  0
 15 16  2  0
 16 17  1  0
 13 18  1  0
 17 18  2  0
M  END
