pyridine_urea_14158
     RDKit          3D

 22 24  0  0  0  0  0  0  0  0999 V2000
    9.1230    0.7240   21.4230 O   0  0  0  0  0  0  0  0  0  0  0  0
    8.7380   -0.4380   21.4020 C   0  0  0  0  0  0  0  0  0  0  0  0
    9.6370   -1.5920   21.6830 N   0  0  0  0  0  0  0  0  0  0  0  0
   10.6910   -1.5860   22.6660 C   0  0  0  0  0  0  0  0  0  0  0  0
   11.5680   -0.4990   22.6150 C   0  0  0  0  0  0  0  0  0  0  0  0
   10.2220   -0.2830   22.9770 C   0  0  0  0  0  0  0  0  0  0  0  0
    9.5160    0.8460   23.2920 C   0  0  0  0  0  0  0  0  0  0  0  0
   10.0880    2.1620   23.2930 C   0  0  0  0  0  0  0  0  0  0  0  0
   11.5150    2.0270   22.9360 C   0  0  0  0  0  0  0  0  0  0  0  0
   12.0750    3.4580   22.9450 C   0  0  0  0  0  0  0  0  0  0  0  0
   13.3370    3.8420   22.6580 C   0  0  0  0  0  0  0  0  0  0  0  0
   13.4250    5.2130   22.7660 C   0  0  0  0  0  0  0  0  0  0  0  0
   12.1520    5.6090   23.1370 N   0  0  0  0  0  0  0  0  0  0  0  0
   11.2620    4.5390   23.2640 N   0  0  0  0  0  0  0  0  0  0  0  0
   12.1410    0.7850   22.6530 C   0  0  0  0  0  0  0  0  0  0  0  0
    7.4470   -0.8050   21.0670 N   0  0  0  0  0  0  0  0  0  0  0  0
    6.6270   -0.1050   20.1390 C   0  0  0  0  0  0  0  0  0  0  0  0
    5.4790    0.6150   20.4310 C   0  0  0  0  0  0  0  0  0  0  0  0
    4.7400    1.2810   19.4550 C   0  0  0  0  0  0  0  0  0  0  0  0
    5.2090    1.1920   18.1560 C   0  0  0  0  0  0  0  0  0  0  0  0
    6.3070    0.5090   17.7980 N   0  0  0  0  0  0  0  0  0  0  0  0
    6.9850   -0.1220   18.7920 C   0  0  0  0  0  0  0  0  0  0  0  0
  1  2  2  0
  2  3  1  0
  3  4  1  0
  4  5  1  0
  5  6  2  0
  6  7  1  0
  7  8  2  0
  8  9  1  0
  9 10  1  0
 10 11  1  0
 11 12  2  0
 12 13  1  0
 10 14  2  0
 13 14  1  0
  5 15  1  0
  9 15  2  0
  2 16  1  0
 16 17  1  0
 17 18  2  0
 18 19  1  0
 19 20  2  0
 20 21  1  0
 17 22  1  0
 21 22  2  0
M  END
