pyridine_urea_6845
     RDKit          3D

 21 22  0  0  0  0  0  0  0  0999 V2000
   13.5700    4.6820   22.5300 C   0  0  0  0  0  0  0  0  0  0  0  0
   12.5770    3.5130   22.7100 C   0  0  0  0  0  0  0  0  0  0  0  0
   13.2000    2.2360   23.0140 O   0  0  0  0  0  0  0  0  0  0  0  0
   12.3240    1.2180   22.8790 C   0  0  0  0  0  0  0  0  0  0  0  0
   10.9320    1.6870   23.0800 C   0  0  0  0  0  0  0  0  0  0  0  0
    9.7720    0.8530   22.9790 C   0  0  0  0  0  0  0  0  0  0  0  0
    9.8670   -0.4450   22.6720 C   0  0  0  0  0  0  0  0  0  0  0  0
    8.7500   -1.1730   22.5420 N   0  0  0  0  0  0  0  0  0  0  0  0
    8.1360   -0.4200   21.5730 C   0  0  0  0  0  0  0  0  0  0  0  0
    8.5960    0.6260   21.1320 O   0  0  0  0  0  0  0  0  0  0  0  0
    6.9420   -0.8610   21.0810 N   0  0  0  0  0  0  0  0  0  0  0  0
    6.3500   -0.1440   20.0310 C   0  0  0  0  0  0  0  0  0  0  0  0
    5.1480    0.5260   20.2250 C   0  0  0  0  0  0  0  0  0  0  0  0
    4.5800    1.2430   19.1930 C   0  0  0  0  0  0  0  0  0  0  0  0
    5.2050    1.3030   17.9520 C   0  0  0  0  0  0  0  0  0  0  0  0
    6.3650    0.6590   17.7350 N   0  0  0  0  0  0  0  0  0  0  0  0
    6.9080   -0.0450   18.7670 C   0  0  0  0  0  0  0  0  0  0  0  0
   11.3480   -0.8670   22.4830 C   0  0  0  0  0  0  0  0  0  0  0  0
   12.6290   -0.2740   22.5360 C   0  0  0  0  0  0  0  0  0  0  0  0
   13.7510   -1.0410   22.2730 O   0  0  0  0  0  0  0  0  0  0  0  0
   13.3950   -2.0470   21.4210 C   0  0  0  0  0  0  0  0  0  0  0  0
  1  2  1  0
  2  3  1  0
  3  4  1  0
  4  5  2  0
  5  6  1  0
  6  7  2  0
  7  8  1  0
  8  9  1  0
  9 10  2  0
  9 11  1  0
 11 12  1  0
 12 13  2  0
 13 14  1  0
 14 15  2  0
 15 16  1  0
 12 17  1  0
 16 17  2  0
  7 18  1  0
  4 19  1  0
 18 19  2  0
 19 20  1  0
 20 21  1  0
M  END
