pyridine_urea_11335
     RDKit          3D

 19 20  0  0  0  0  0  0  0  0999 V2000
    9.6310    2.3720   22.7150 C   0  0  0  0  0  0  0  0  0  0  0  0
   10.9690    2.0390   22.8070 N   0  0  0  0  0  0  0  0  0  0  0  0
   12.1000    2.8620   22.6490 C   0  0  0  0  0  0  0  0  0  0  0  0
   12.2440    4.7180   22.2510 Br  0  0  0  0  0  0  0  0  0  0  0  0
   13.2650    1.9510   22.8710 N   0  0  0  0  0  0  0  0  0  0  0  0
   12.7550    0.6670   23.1360 N   0  0  0  0  0  0  0  0  0  0  0  0
   11.4210    0.6960   23.1130 C   0  0  0  0  0  0  0  0  0  0  0  0
   10.4020   -0.3500   23.3600 C   0  0  0  0  0  0  0  0  0  0  0  0
   10.2240   -1.2730   22.3660 C   0  0  0  0  0  0  0  0  0  0  0  0
    8.9090   -1.4150   22.2030 N   0  0  0  0  0  0  0  0  0  0  0  0
    8.3130   -0.4500   21.5070 C   0  0  0  0  0  0  0  0  0  0  0  0
    8.8350    0.6290   21.2680 O   0  0  0  0  0  0  0  0  0  0  0  0
    7.0810   -0.6790   21.0460 N   0  0  0  0  0  0  0  0  0  0  0  0
    6.3760    0.0250   20.0630 C   0  0  0  0  0  0  0  0  0  0  0  0
    5.2380    0.6450   20.4780 C   0  0  0  0  0  0  0  0  0  0  0  0
    4.6730    1.3380   19.2690 C   0  0  0  0  0  0  0  0  0  0  0  0
    5.2110    1.3320   18.0160 C   0  0  0  0  0  0  0  0  0  0  0  0
    6.3390    0.6940   17.6590 N   0  0  0  0  0  0  0  0  0  0  0  0
    6.8420    0.0740   18.7440 C   0  0  0  0  0  0  0  0  0  0  0  0
  1  2  1  0
  2  3  1  0
  3  4  1  0
  3  5  2  0
  5  6  1  0
  2  7  1  0
  6  7  2  0
  7  8  1  0
  8  9  1  0
  9 10  1  0
 10 11  1  0
 11 12  2  0
 11 13  1  0
 13 14  1  0
 14 15  2  0
 15 16  1  0
 16 17  2  0
 17 18  1  0
 14 19  1  0
 18 19  2  0
M  END
