pyridine_urea_11069
     RDKit          3D

 18 18  0  0  0  0  0  0  0  0999 V2000
    7.9560   -2.1100   28.4490 C   0  0  0  0  0  0  0  0  0  0  0  0
    7.8360   -1.7340   27.0450 N   0  0  0  0  0  0  0  0  0  0  0  0
    8.6450   -0.3590   26.5200 S   0  0  0  0  0  0  0  0  0  0  0  0
    7.6480    0.6800   26.3740 O   0  0  0  0  0  0  0  0  0  0  0  0
    9.8050   -0.1960   27.3430 O   0  0  0  0  0  0  0  0  0  0  0  0
    9.1610   -0.7990   24.9710 N   0  0  0  0  0  0  0  0  0  0  0  0
   10.0890    0.0200   24.2500 C   0  0  0  0  0  0  0  0  0  0  0  0
   10.2650   -0.3090   22.9040 C   0  0  0  0  0  0  0  0  0  0  0  0
    9.2990   -1.0420   22.2590 N   0  0  0  0  0  0  0  0  0  0  0  0
    8.5350   -0.0360   21.4650 C   0  0  0  0  0  0  0  0  0  0  0  0
    9.0240    1.2900   21.1810 O   0  0  0  0  0  0  0  0  0  0  0  0
    7.3760   -0.5630   21.0950 N   0  0  0  0  0  0  0  0  0  0  0  0
    6.5850    0.0920   20.0920 C   0  0  0  0  0  0  0  0  0  0  0  0
    5.3770    0.8660   20.5070 C   0  0  0  0  0  0  0  0  0  0  0  0
    4.6260    1.5360   19.3950 C   0  0  0  0  0  0  0  0  0  0  0  0
    5.1560    1.3610   17.9930 C   0  0  0  0  0  0  0  0  0  0  0  0
    6.2700    0.6330   17.6050 N   0  0  0  0  0  0  0  0  0  0  0  0
    6.9320    0.0210   18.7560 C   0  0  0  0  0  0  0  0  0  0  0  0
  1  2  1  0
  3  2  1  0
  3  4  2  0
  3  5  2  0
  3  6  1  0
  6  7  1  0
  7  8  1  0
  8  9  1  0
  9 10  1  0
 10 11  2  0
 10 12  1  0
 12 13  1  0
 13 14  2  0
 14 15  1  0
 15 16  2  0
 16 17  1  0
 13 18  1  0
 17 18  2  0
M  END
