pyridine_urea_13650
     RDKit          3D

 26 27  0  0  0  0  0  0  0  0999 V2000
    8.4520    0.8300   21.0840 O   0  0  0  0  0  0  0  0  0  0  0  0
    8.0630   -0.3320   21.0340 C   0  0  0  0  0  0  0  0  0  0  0  0
    6.7930   -0.7040   20.8250 N   0  0  0  0  0  0  0  0  0  0  0  0
    6.0840    0.0310   19.9220 C   0  0  0  0  0  0  0  0  0  0  0  0
    4.7450    0.7110   20.1820 C   0  0  0  0  0  0  0  0  0  0  0  0
    4.2420    1.4910   18.9790 C   0  0  0  0  0  0  0  0  0  0  0  0
    5.0910    1.4850   17.7440 C   0  0  0  0  0  0  0  0  0  0  0  0
    6.2560    0.8290   17.6350 N   0  0  0  0  0  0  0  0  0  0  0  0
    6.7030    0.1470   18.6930 C   0  0  0  0  0  0  0  0  0  0  0  0
    8.9120   -1.3570   21.1610 N   0  0  0  0  0  0  0  0  0  0  0  0
    9.9990   -0.9780   21.9310 C   0  0  0  0  0  0  0  0  0  0  0  0
   11.1720   -1.6870   21.9220 C   0  0  0  0  0  0  0  0  0  0  0  0
   12.2150   -1.3230   22.7050 C   0  0  0  0  0  0  0  0  0  0  0  0
   12.1500   -0.2330   23.5430 C   0  0  0  0  0  0  0  0  0  0  0  0
   13.1540    0.0340   24.3610 O   0  0  0  0  0  0  0  0  0  0  0  0
   12.9260   -0.9360   25.3200 C   0  0  0  0  0  0  0  0  0  0  0  0
   13.1370   -2.2500   24.8050 C   0  0  0  0  0  0  0  0  0  0  0  0
   13.7620   -2.2420   23.6150 F   0  0  0  0  0  0  0  0  0  0  0  0
   13.8920   -2.9550   25.6710 F   0  0  0  0  0  0  0  0  0  0  0  0
   11.9760   -2.9140   24.6350 F   0  0  0  0  0  0  0  0  0  0  0  0
   10.8580    0.6300   23.5470 C   0  0  0  0  0  0  0  0  0  0  0  0
   10.3280    1.7620   24.1370 C   0  0  0  0  0  0  0  0  0  0  0  0
    9.6670    1.5540   25.2990 F   0  0  0  0  0  0  0  0  0  0  0  0
    9.3430    2.2920   23.3500 F   0  0  0  0  0  0  0  0  0  0  0  0
   11.1750    2.8080   24.2160 F   0  0  0  0  0  0  0  0  0  0  0  0
    9.7980    0.1460   22.6810 C   0  0  0  0  0  0  0  0  0  0  0  0
  1  2  2  0
  2  3  1  0
  3  4  1  0
  4  5  2  0
  5  6  1  0
  6  7  2  0
  7  8  1  0
  4  9  1  0
  8  9  2  0
  2 10  1  0
 10 11  1  0
 11 12  2  0
 12 13  1  0
 13 14  2  0
 14 15  1  0
 15 16  1  0
 16 17  1  0
 17 18  1  0
 17 19  1  0
 17 20  1  0
 14 21  1  0
 21 22  1  0
 22 23  1  0
 22 24  1  0
 22 25  1  0
 11 26  1  0
 21 26  2  0
M  END
