pyridine_urea_1308
     RDKit          3D

 20 22  0  0  0  0  0  0  0  0999 V2000
    9.3240   -5.5230   27.3170 C   0  0  0  0  0  0  0  0  0  0  0  0
    9.4820   -4.5310   26.1370 C   0  0  0  0  0  0  0  0  0  0  0  0
   10.7170   -3.8190   25.9740 N   0  0  0  0  0  0  0  0  0  0  0  0
   10.5170   -3.0610   24.8880 C   0  0  0  0  0  0  0  0  0  0  0  0
   11.4630   -2.1940   24.3630 C   0  0  0  0  0  0  0  0  0  0  0  0
   11.1150   -1.4600   23.2250 C   0  0  0  0  0  0  0  0  0  0  0  0
    9.8490   -1.6120   22.6350 C   0  0  0  0  0  0  0  0  0  0  0  0
    9.4160   -0.9760   21.5060 N   0  0  0  0  0  0  0  0  0  0  0  0
    8.4320    0.0090   21.3640 C   0  0  0  0  0  0  0  0  0  0  0  0
    8.7560    1.1870   21.3930 O   0  0  0  0  0  0  0  0  0  0  0  0
    7.1680   -0.4310   21.1680 N   0  0  0  0  0  0  0  0  0  0  0  0
    6.5100    0.1140   20.1130 C   0  0  0  0  0  0  0  0  0  0  0  0
    5.3540    0.8440   20.3660 C   0  0  0  0  0  0  0  0  0  0  0  0
    4.6670    1.4280   19.2980 C   0  0  0  0  0  0  0  0  0  0  0  0
    5.1730    1.2540   18.0110 C   0  0  0  0  0  0  0  0  0  0  0  0
    6.2760    0.5500   17.7420 N   0  0  0  0  0  0  0  0  0  0  0  0
    6.9200   -0.0050   18.7920 C   0  0  0  0  0  0  0  0  0  0  0  0
    8.8530   -2.6150   23.3010 C   0  0  0  0  0  0  0  0  0  0  0  0
    9.2490   -3.2770   24.3930 N   0  0  0  0  0  0  0  0  0  0  0  0
    8.5680   -4.2530   25.2280 N   0  0  0  0  0  0  0  0  0  0  0  0
  1  2  1  0
  2  3  1  0
  3  4  2  0
  4  5  1  0
  5  6  2  0
  6  7  1  0
  7  8  1  0
  8  9  1  0
  9 10  2  0
  9 11  1  0
 11 12  1  0
 12 13  2  0
 13 14  1  0
 14 15  2  0
 15 16  1  0
 12 17  1  0
 16 17  2  0
  7 18  2  0
  4 19  1  0
 18 19  1  0
  2 20  2  0
 19 20  1  0
M  END
