pyridine_urea_8043
     RDKit          3D

 24 25  0  0  0  0  0  0  0  0999 V2000
    7.8220   -2.8000   22.8560 C   0  0  0  0  0  0  0  0  0  0  0  0
    8.4440   -2.7660   24.2540 C   0  0  0  0  0  0  0  0  0  0  0  0
    9.2260   -1.5860   24.5230 O   0  0  0  0  0  0  0  0  0  0  0  0
   10.3980   -1.3830   23.8290 C   0  0  0  0  0  0  0  0  0  0  0  0
   10.7280   -2.6930   24.3010 O   0  0  0  0  0  0  0  0  0  0  0  0
    9.5250   -0.2900   23.7600 C   0  0  1  0  0  0  0  0  0  0  0  0
   10.3150    1.0280   23.8060 C   0  0  0  0  0  0  0  0  0  0  0  0
   11.6170    0.7800   23.4450 C   0  0  0  0  0  0  0  0  0  0  0  0
   12.9200    0.1760   22.8620 C   0  0  0  0  0  0  0  0  0  0  0  0
   13.5410   -0.9980   22.0330 C   0  0  0  0  0  0  0  0  0  0  0  0
   12.2580   -1.7540   21.7650 C   0  0  0  0  0  0  0  0  0  0  0  0
   10.8870   -1.4360   22.1750 C   0  0  0  0  0  0  0  0  0  0  0  0
    9.8930   -2.2550   21.8200 F   0  0  0  0  0  0  0  0  0  0  0  0
   10.6100   -0.2180   22.9740 C   0  0  0  0  0  0  0  0  0  0  0  0
    8.4310   -0.4450   22.8830 N   0  0  0  0  0  0  0  0  0  0  0  0
    8.3040    0.1800   21.6600 C   0  0  0  0  0  0  0  0  0  0  0  0
    8.9670    1.1630   21.2830 O   0  0  0  0  0  0  0  0  0  0  0  0
    7.3100   -0.4590   20.9710 N   0  0  0  0  0  0  0  0  0  0  0  0
    6.4860    0.1950   19.9780 C   0  0  0  0  0  0  0  0  0  0  0  0
    5.3230    0.9130   20.2140 C   0  0  0  0  0  0  0  0  0  0  0  0
    4.6480    1.5050   19.1730 C   0  0  0  0  0  0  0  0  0  0  0  0
    5.1360    1.3810   17.9020 C   0  0  0  0  0  0  0  0  0  0  0  0
    6.2510    0.6860   17.6260 N   0  0  0  0  0  0  0  0  0  0  0  0
    6.8910    0.1140   18.6670 C   0  0  0  0  0  0  0  0  0  0  0  0
  1  2  1  0
  2  3  1  0
  3  4  1  0
  4  5  2  0
  4  6  1  0
  6  7  1  6
  7  8  1  0
  8  9  2  0
  9 10  1  0
 10 11  2  0
 11 12  1  0
 12 13  1  0
  8 14  1  0
 12 14  2  0
  6 15  1  0
 15 16  1  0
 16 17  2  0
 16 18  1  0
 18 19  1  0
 19 20  2  0
 20 21  1  0
 21 22  2  0
 22 23  1  0
 19 24  1  0
 23 24  2  0
M  END
