pyridine_urea_14049
     RDKit          3D

 23 24  0  0  0  0  0  0  0  0999 V2000
   19.2350    5.6370   24.1300 C   0  0  0  0  0  0  0  0  0  0  0  0
   18.3290    4.6640   24.0890 C   0  0  0  0  0  0  0  0  0  0  0  0
   17.8910    3.4270   24.7250 C   0  0  0  0  0  0  0  0  0  0  0  0
   16.5020    4.6630   24.4340 C   0  0  0  0  0  0  0  0  0  0  0  0
   14.6360    4.7140   23.6930 C   0  0  0  0  0  0  0  0  0  0  0  0
   14.1270    3.5800   22.6870 O   0  0  0  0  0  0  0  0  0  0  0  0
   13.0650    2.3860   22.7840 C   0  0  0  0  0  0  0  0  0  0  0  0
   11.6540    2.8000   23.0340 C   0  0  0  0  0  0  0  0  0  0  0  0
   10.5040    2.0280   23.0850 C   0  0  0  0  0  0  0  0  0  0  0  0
   10.8580    0.5730   22.8230 C   0  0  0  0  0  0  0  0  0  0  0  0
    9.5770   -0.1900   22.7770 N   0  0  0  0  0  0  0  0  0  0  0  0
    8.7240    0.3030   21.7440 C   0  0  0  0  0  0  0  0  0  0  0  0
    8.9850    1.5960   21.2060 O   0  0  0  0  0  0  0  0  0  0  0  0
    7.6620   -0.4650   21.2720 N   0  0  0  0  0  0  0  0  0  0  0  0
    6.8350    0.0020   20.1960 C   0  0  0  0  0  0  0  0  0  0  0  0
    5.6960    0.7460   20.4940 C   0  0  0  0  0  0  0  0  0  0  0  0
    4.6290    1.3950   19.5800 C   0  0  0  0  0  0  0  0  0  0  0  0
    5.2080    0.9770   18.2340 C   0  0  0  0  0  0  0  0  0  0  0  0
    6.2960    0.2610   17.9180 N   0  0  0  0  0  0  0  0  0  0  0  0
    7.0820   -0.2140   18.8790 C   0  0  0  0  0  0  0  0  0  0  0  0
   12.1690    0.1130   22.6330 C   0  0  0  0  0  0  0  0  0  0  0  0
   12.3770   -1.2090   22.4340 F   0  0  0  0  0  0  0  0  0  0  0  0
   13.2940    0.9700   22.6110 C   0  0  0  0  0  0  0  0  0  0  0  0
  1  2  1  0
  2  3  1  0
  2  4  1  0
  4  5  1  0
  5  6  1  0
  6  7  1  0
  7  8  2  0
  8  9  1  0
  9 10  2  0
 10 11  1  0
 11 12  1  0
 12 13  2  0
 12 14  1  0
 14 15  1  0
 15 16  2  0
 16 17  1  0
 17 18  2  0
 18 19  1  0
 15 20  1  0
 19 20  2  0
 10 21  1  0
 21 22  1  0
  7 23  1  0
 21 23  2  0
M  END
