pyridine_urea_10741
     RDKit          3D

 20 21  0  0  0  0  0  0  0  0999 V2000
   13.0720    1.3670   22.9310 C   0  0  0  0  0  0  0  0  0  0  0  0
   12.4710    0.1050   23.3830 C   0  0  0  0  0  0  0  0  0  0  0  0
   12.8900   -0.7770   24.3740 C   0  0  0  0  0  0  0  0  0  0  0  0
   10.9610    0.3170   23.2960 C   0  0  0  0  0  0  0  0  0  0  0  0
   12.5360   -0.9100   22.3570 C   0  0  0  0  0  0  0  0  0  0  0  0
   13.5870   -1.1780   21.7730 O   0  0  0  0  0  0  0  0  0  0  0  0
   13.1690   -2.2230   20.9330 C   0  0  0  0  0  0  0  0  0  0  0  0
   11.8060   -2.5540   21.0300 N   0  0  0  0  0  0  0  0  0  0  0  0
   11.3810   -1.7450   21.9280 C   0  0  0  0  0  0  0  0  0  0  0  0
    9.8910   -1.9200   22.2460 C   0  0  0  0  0  0  0  0  0  0  0  0
    9.1480   -1.2190   21.2300 N   0  0  0  0  0  0  0  0  0  0  0  0
    8.2570   -0.1940   21.3370 C   0  0  0  0  0  0  0  0  0  0  0  0
    8.7780    0.9090   21.4210 O   0  0  0  0  0  0  0  0  0  0  0  0
    6.9920   -0.5690   21.3170 N   0  0  0  0  0  0  0  0  0  0  0  0
    6.4330    0.0310   20.1650 C   0  0  0  0  0  0  0  0  0  0  0  0
    5.2670    0.7900   20.3330 C   0  0  0  0  0  0  0  0  0  0  0  0
    4.6810    1.4090   19.2360 C   0  0  0  0  0  0  0  0  0  0  0  0
    5.2640    1.2640   17.9960 C   0  0  0  0  0  0  0  0  0  0  0  0
    6.3780    0.5400   17.8040 N   0  0  0  0  0  0  0  0  0  0  0  0
    6.9370   -0.0620   18.8790 C   0  0  0  0  0  0  0  0  0  0  0  0
  2  1  1  0
  2  3  1  0
  2  4  1  0
  2  5  1  0
  5  6  1  0
  6  7  1  0
  7  8  2  0
  5  9  2  0
  8  9  1  0
  9 10  1  0
 10 11  1  0
 11 12  1  0
 12 13  2  0
 12 14  1  0
 14 15  1  0
 15 16  2  0
 16 17  1  0
 17 18  2  0
 18 19  1  0
 15 20  1  0
 19 20  2  0
M  END
