pyridine_urea_6596
     RDKit          3D

 22 24  0  0  0  0  0  0  0  0999 V2000
   13.8120   -2.8660   23.8930 C   0  0  0  0  0  0  0  0  0  0  0  0
   12.7560   -2.6360   22.8560 C   0  0  0  0  0  0  0  0  0  0  0  0
   13.2000   -2.4950   21.3790 C   0  0  0  0  0  0  0  0  0  0  0  0
   12.2040   -1.3300   23.0760 C   0  0  0  0  0  0  0  0  0  0  0  0
   11.4080   -1.1190   24.1340 N   0  0  0  0  0  0  0  0  0  0  0  0
   11.0500    0.1310   23.9170 C   0  0  0  0  0  0  0  0  0  0  0  0
   11.6140    0.7030   22.7200 N   0  0  0  0  0  0  0  0  0  0  0  0
   12.4070   -0.3210   22.2870 N   0  0  0  0  0  0  0  0  0  0  0  0
   10.8190    1.5120   23.2720 C   0  0  0  0  0  0  0  0  0  0  0  0
    9.4800    1.1250   23.0170 C   0  0  1  0  0  0  0  0  0  0  0  0
    9.2480   -0.0720   22.2960 N   0  0  0  0  0  0  0  0  0  0  0  0
    8.2410    0.3100   21.3180 C   0  0  0  0  0  0  0  0  0  0  0  0
    8.4050    1.3870   20.7560 O   0  0  0  0  0  0  0  0  0  0  0  0
    7.2030   -0.5120   21.1040 N   0  0  0  0  0  0  0  0  0  0  0  0
    6.5120    0.0500   20.1100 C   0  0  0  0  0  0  0  0  0  0  0  0
    5.3210    0.7720   20.3000 C   0  0  0  0  0  0  0  0  0  0  0  0
    4.6280    1.3850   19.2350 C   0  0  0  0  0  0  0  0  0  0  0  0
    5.1200    1.2860   17.9250 C   0  0  0  0  0  0  0  0  0  0  0  0
    6.2090    0.6220   17.6570 N   0  0  0  0  0  0  0  0  0  0  0  0
    6.8940    0.0280   18.6480 C   0  0  0  0  0  0  0  0  0  0  0  0
    8.9560    0.9760   24.2170 C   0  0  0  0  0  0  0  0  0  0  0  0
   10.0760    0.8680   24.8910 C   0  0  0  0  0  0  0  0  0  0  0  0
  1  2  1  0
  2  3  1  0
  2  4  1  0
  4  5  1  0
  5  6  2  0
  6  7  1  0
  4  8  2  0
  7  8  1  0
  7  9  1  0
  9 10  1  0
 10 11  1  1
 11 12  1  0
 12 13  2  0
 12 14  1  0
 14 15  1  0
 15 16  2  0
 16 17  1  0
 17 18  2  0
 18 19  1  0
 15 20  1  0
 19 20  2  0
 10 21  1  0
  6 22  1  0
 21 22  1  0
M  END
