pyridine_urea_4743
     RDKit          3D

 22 23  0  0  0  0  0  0  0  0999 V2000
    8.7340    0.5170   21.2370 O   0  0  0  0  0  0  0  0  0  0  0  0
    8.0890   -0.4970   21.4640 C   0  0  0  0  0  0  0  0  0  0  0  0
    8.5230   -1.4520   22.3200 N   0  0  0  0  0  0  0  0  0  0  0  0
    8.9980   -0.9560   23.5730 C   0  0  0  0  0  0  0  0  0  0  0  0
    9.8510    0.2740   23.2870 C   0  0  0  0  0  0  0  0  0  0  0  0
   10.5760   -0.9510   23.2070 C   0  0  0  0  0  0  0  0  0  0  0  0
   11.8810   -1.2000   22.9220 C   0  0  0  0  0  0  0  0  0  0  0  0
   12.6940   -0.1890   22.6740 C   0  0  0  0  0  0  0  0  0  0  0  0
   13.9180   -0.4360   22.4040 F   0  0  0  0  0  0  0  0  0  0  0  0
   12.2150    1.0540   22.7060 C   0  0  0  0  0  0  0  0  0  0  0  0
   10.8720    1.2600   22.9830 C   0  0  0  0  0  0  0  0  0  0  0  0
   10.4970    2.6170   22.9550 C   0  0  0  0  0  0  0  0  0  0  0  0
    9.7260    2.8540   21.8660 F   0  0  0  0  0  0  0  0  0  0  0  0
   11.5510    3.4770   22.9140 F   0  0  0  0  0  0  0  0  0  0  0  0
    9.7140    3.0360   23.9950 F   0  0  0  0  0  0  0  0  0  0  0  0
    6.8740   -0.8110   20.9450 N   0  0  0  0  0  0  0  0  0  0  0  0
    6.3320   -0.0960   19.9190 C   0  0  0  0  0  0  0  0  0  0  0  0
    5.1420    0.5560   20.2480 C   0  0  0  0  0  0  0  0  0  0  0  0
    4.5400    1.3580   19.1390 C   0  0  0  0  0  0  0  0  0  0  0  0
    5.1520    1.4190   17.9080 C   0  0  0  0  0  0  0  0  0  0  0  0
    6.3060    0.7630   17.6410 N   0  0  0  0  0  0  0  0  0  0  0  0
    6.8790    0.0030   18.6710 C   0  0  0  0  0  0  0  0  0  0  0  0
  1  2  2  0
  2  3  1  0
  3  4  1  0
  4  5  1  0
  5  6  2  0
  6  7  1  0
  7  8  2  0
  8  9  1  0
  8 10  1  0
  5 11  1  0
 10 11  2  0
 11 12  1  0
 12 13  1  0
 12 14  1  0
 12 15  1  0
  2 16  1  0
 16 17  1  0
 17 18  2  0
 18 19  1  0
 19 20  2  0
 20 21  1  0
 17 22  1  0
 21 22  2  0
M  END
