pyridine_urea_12335
     RDKit          3D

 22 24  0  0  0  0  0  0  0  0999 V2000
   12.7920    1.7430   23.0620 C   0  0  0  0  0  0  0  0  0  0  0  0
   11.8830    1.2790   23.9940 N   0  0  0  0  0  0  0  0  0  0  0  0
   10.6320    2.0210   23.9670 C   0  0  0  0  0  0  0  0  0  0  0  0
    9.8980    0.9870   23.0940 C   0  0  0  0  0  0  0  0  0  0  0  0
   10.7550   -0.1240   22.9100 C   0  0  2  0  0  0  0  0  0  0  0  0
    9.9670   -1.4430   22.8830 C   0  0  0  0  0  0  0  0  0  0  0  0
    8.6610   -1.4020   22.5560 N   0  0  0  0  0  0  0  0  0  0  0  0
    8.2730   -0.5130   21.6090 C   0  0  0  0  0  0  0  0  0  0  0  0
    8.9230    0.4630   21.2850 O   0  0  0  0  0  0  0  0  0  0  0  0
    7.0560   -0.8410   21.0790 N   0  0  0  0  0  0  0  0  0  0  0  0
    6.4130   -0.0990   20.0120 C   0  0  0  0  0  0  0  0  0  0  0  0
    5.1200    0.6580   20.3680 C   0  0  0  0  0  0  0  0  0  0  0  0
    4.5050    1.4380   19.2030 C   0  0  0  0  0  0  0  0  0  0  0  0
    5.2120    1.3850   17.8650 C   0  0  0  0  0  0  0  0  0  0  0  0
    6.3590    0.6530   17.7160 N   0  0  0  0  0  0  0  0  0  0  0  0
    6.9510   -0.0700   18.7370 C   0  0  0  0  0  0  0  0  0  0  0  0
   11.7660   -0.1460   23.9140 C   0  0  1  0  0  0  0  0  0  0  0  0
   13.0720   -0.6680   23.6440 C   0  0  0  0  0  0  0  0  0  0  0  0
   12.5580   -0.4120   22.5260 C   0  0  0  0  0  0  0  0  0  0  0  0
   11.2330    0.0200   22.6590 C   0  0  0  0  0  0  0  0  0  0  0  0
   11.2320   -0.0920   24.1660 C   0  0  0  0  0  0  0  0  0  0  0  0
   12.5860   -0.6160   25.1450 S   0  0  0  0  0  0  0  0  0  0  0  0
  1  2  1  0
  2  3  1  0
  3  4  1  0
  4  5  1  0
  5  6  1  1
  6  7  1  0
  7  8  1  0
  8  9  2  0
  8 10  1  0
 10 11  1  0
 11 12  2  0
 12 13  1  0
 13 14  2  0
 14 15  1  0
 11 16  1  0
 15 16  2  0
  2 17  1  0
  5 17  1  0
 17 18  1  6
 18 19  2  0
 19 20  1  0
 20 21  2  0
 18 22  1  0
 21 22  1  0
M  END
