pyridine_urea_8070
     RDKit          3D

 24 25  0  0  0  0  0  0  0  0999 V2000
   12.3610    6.5370   22.5570 C   0  0  0  0  0  0  0  0  0  0  0  0
   11.8140    5.6420   23.6690 C   0  0  0  0  0  0  0  0  0  0  0  0
   11.7800    4.2790   23.2690 O   0  0  0  0  0  0  0  0  0  0  0  0
   12.9300    3.8160   22.6880 C   0  0  0  0  0  0  0  0  0  0  0  0
   13.6800    4.4670   21.6610 O   0  0  0  0  0  0  0  0  0  0  0  0
   13.2460    2.5270   23.2760 N   0  0  0  0  0  0  0  0  0  0  0  0
   12.5080    1.4300   22.9430 C   0  0  0  0  0  0  0  0  0  0  0  0
   11.0660    1.7710   23.2940 C   0  0  0  0  0  0  0  0  0  0  0  0
   10.1240    0.8790   23.0480 C   0  0  0  0  0  0  0  0  0  0  0  0
   10.5540   -0.3710   22.4500 C   0  0  0  0  0  0  0  0  0  0  0  0
    9.3430   -1.1180   22.2480 N   0  0  0  0  0  0  0  0  0  0  0  0
    8.5560   -0.3940   21.3460 C   0  0  0  0  0  0  0  0  0  0  0  0
    8.9810    0.7170   21.0080 O   0  0  0  0  0  0  0  0  0  0  0  0
    7.4040   -0.9570   20.9330 N   0  0  0  0  0  0  0  0  0  0  0  0
    6.6650   -0.1890   20.0630 C   0  0  0  0  0  0  0  0  0  0  0  0
    5.3760    0.5670   20.4310 C   0  0  0  0  0  0  0  0  0  0  0  0
    4.6300    1.3970   19.3860 C   0  0  0  0  0  0  0  0  0  0  0  0
    5.2960    1.3770   17.9890 C   0  0  0  0  0  0  0  0  0  0  0  0
    6.4420    0.6710   17.7480 N   0  0  0  0  0  0  0  0  0  0  0  0
    7.0630   -0.0500   18.7250 C   0  0  0  0  0  0  0  0  0  0  0  0
   11.9210   -0.6220   22.1730 C   0  0  0  0  0  0  0  0  0  0  0  0
   13.0770    0.2710   22.3920 C   0  0  0  0  0  0  0  0  0  0  0  0
   13.6490   -0.8960   21.8370 C   0  0  0  0  0  0  0  0  0  0  0  0
   14.2040   -0.9600   20.5830 N   0  0  0  0  0  0  0  0  0  0  0  0
  1  2  1  0
  2  3  1  0
  3  4  1  0
  4  5  2  0
  4  6  1  0
  6  7  1  0
  7  8  2  0
  8  9  1  0
  9 10  2  0
 10 11  1  0
 11 12  1  0
 12 13  2  0
 12 14  1  0
 14 15  1  0
 15 16  2  0
 16 17  1  0
 17 18  2  0
 18 19  1  0
 15 20  1  0
 19 20  2  0
 10 21  1  0
  7 22  1  0
 21 22  2  0
 22 23  1  0
 23 24  3  0
M  END
