pyridine_urea_5558
     RDKit          3D

 16 17  0  0  0  0  0  0  0  0999 V2000
    8.9080    1.2670   21.2210 O   0  0  0  0  0  0  0  0  0  0  0  0
    8.3770    0.2100   21.5890 C   0  0  0  0  0  0  0  0  0  0  0  0
    8.8230   -0.5160   22.6540 N   0  0  0  0  0  0  0  0  0  0  0  0
    9.4310   -1.7810   22.3480 C   0  0  0  0  0  0  0  0  0  0  0  0
   10.8430   -1.9230   22.9740 C   0  0  0  0  0  0  0  0  0  0  0  0
   11.0130   -1.8120   24.4580 N   0  0  0  0  0  0  0  0  0  0  0  0
   12.4340   -2.0290   24.6860 C   0  0  0  0  0  0  0  0  0  0  0  0
   13.3060   -2.2780   23.4690 C   0  0  0  0  0  0  0  0  0  0  0  0
   12.3340   -2.2310   21.9390 S   0  0  0  0  0  0  0  0  0  0  0  0
    7.2860   -0.4110   21.0400 N   0  0  0  0  0  0  0  0  0  0  0  0
    6.5930    0.1710   20.0000 C   0  0  0  0  0  0  0  0  0  0  0  0
    5.3450    0.9740   20.3070 C   0  0  0  0  0  0  0  0  0  0  0  0
    4.5550    1.6650   19.2190 C   0  0  0  0  0  0  0  0  0  0  0  0
    5.0960    1.5050   17.8030 C   0  0  0  0  0  0  0  0  0  0  0  0
    6.3070    0.6850   17.6590 N   0  0  0  0  0  0  0  0  0  0  0  0
    6.9790    0.0740   18.7010 C   0  0  0  0  0  0  0  0  0  0  0  0
  1  2  2  0
  2  3  1  0
  3  4  1  0
  4  5  1  0
  5  6  2  0
  6  7  1  0
  7  8  2  0
  5  9  1  0
  8  9  1  0
  2 10  1  0
 10 11  1  0
 11 12  2  0
 12 13  1  0
 13 14  2  0
 14 15  1  0
 11 16  1  0
 15 16  2  0
M  END
