pyridine_urea_13342
     RDKit          3D

 17 18  0  0  0  0  0  0  0  0999 V2000
   13.3780   -2.4180   23.5240 C   0  0  0  0  0  0  0  0  0  0  0  0
   13.2430   -1.2660   22.1660 S   0  0  0  0  0  0  0  0  0  0  0  0
   12.7460    0.3120   22.9560 C   0  0  0  0  0  0  0  0  0  0  0  0
   11.7080    0.0350   23.8230 C   0  0  2  0  0  0  0  0  0  0  0  0
   11.0980   -1.1460   23.6320 C   0  0  0  0  0  0  0  0  0  0  0  0
    9.9000   -0.5330   23.5310 C   0  0  2  0  0  0  0  0  0  0  0  0
    9.1230   -0.7930   22.3840 N   0  0  0  0  0  0  0  0  0  0  0  0
    8.5230    0.0900   21.5020 C   0  0  0  0  0  0  0  0  0  0  0  0
    8.9800    1.2130   21.2480 O   0  0  0  0  0  0  0  0  0  0  0  0
    7.3670   -0.4760   20.9940 N   0  0  0  0  0  0  0  0  0  0  0  0
    6.5530    0.1410   20.0380 C   0  0  0  0  0  0  0  0  0  0  0  0
    5.2610    0.9120   20.3090 C   0  0  0  0  0  0  0  0  0  0  0  0
    4.5980    1.4740   19.2240 C   0  0  0  0  0  0  0  0  0  0  0  0
    5.1400    1.3050   17.9660 C   0  0  0  0  0  0  0  0  0  0  0  0
    6.2700    0.6230   17.7000 N   0  0  0  0  0  0  0  0  0  0  0  0
    6.9400    0.0610   18.7230 C   0  0  0  0  0  0  0  0  0  0  0  0
   10.3890    0.8220   23.6830 C   0  0  0  0  0  0  0  0  0  0  0  0
  1  2  1  0
  2  3  1  0
  4  3  1  6
  4  5  1  0
  5  6  1  0
  6  7  1  6
  7  8  1  0
  8  9  2  0
  8 10  1  0
 10 11  1  0
 11 12  2  0
 12 13  1  0
 13 14  2  0
 14 15  1  0
 11 16  1  0
 15 16  2  0
  4 17  1  0
  6 17  1  0
M  END
