pyridine_urea_5140
     RDKit          3D

 20 22  0  0  0  0  0  0  0  0999 V2000
   13.4160   -3.1000   20.8560 C   0  0  0  0  0  0  0  0  0  0  0  0
   12.7690   -2.4470   21.9910 C   0  0  0  0  0  0  0  0  0  0  0  0
   13.1650   -2.1950   23.2980 C   0  0  0  0  0  0  0  0  0  0  0  0
   12.1430   -1.4580   24.0200 N   0  0  0  0  0  0  0  0  0  0  0  0
   11.0550   -1.2120   23.1990 C   0  0  0  0  0  0  0  0  0  0  0  0
    9.9760   -0.5020   23.5620 C   0  0  2  0  0  0  0  0  0  0  0  0
    8.8370   -0.8540   22.9080 N   0  0  0  0  0  0  0  0  0  0  0  0
    8.4290   -0.1280   21.8170 C   0  0  0  0  0  0  0  0  0  0  0  0
    9.0210    0.8590   21.4060 O   0  0  0  0  0  0  0  0  0  0  0  0
    7.1950   -0.6830   21.2430 N   0  0  0  0  0  0  0  0  0  0  0  0
    6.5610   -0.0510   20.0980 C   0  0  0  0  0  0  0  0  0  0  0  0
    5.2860    0.7590   20.3660 C   0  0  0  0  0  0  0  0  0  0  0  0
    4.6390    1.3940   19.3100 C   0  0  0  0  0  0  0  0  0  0  0  0
    5.2010    1.2510   18.0590 C   0  0  0  0  0  0  0  0  0  0  0  0
    6.3170    0.5460   17.7740 N   0  0  0  0  0  0  0  0  0  0  0  0
    6.9730   -0.0890   18.7820 C   0  0  0  0  0  0  0  0  0  0  0  0
   10.4480    0.7960   23.4680 C   0  0  0  0  0  0  0  0  0  0  0  0
   11.4400    1.1000   24.1480 C   0  0  0  0  0  0  0  0  0  0  0  0
   11.8030    0.8840   22.8420 C   0  0  0  0  0  0  0  0  0  0  0  0
   11.1270   -1.8570   21.5600 S   0  0  0  0  0  0  0  0  0  0  0  0
  1  2  1  0
  2  3  2  0
  3  4  1  0
  4  5  2  0
  5  6  1  0
  6  7  1  6
  7  8  1  0
  8  9  2  0
  8 10  1  0
 10 11  1  0
 11 12  2  0
 12 13  1  0
 13 14  2  0
 14 15  1  0
 11 16  1  0
 15 16  2  0
  6 17  1  0
 17 18  1  0
 17 19  1  0
 18 19  1  0
  2 20  1  0
  5 20  1  0
M  END
