pyridine_urea_11162
     RDKit          3D

 18 19  0  0  0  0  0  0  0  0999 V2000
   12.2190    1.5640   23.5140 C   0  0  0  0  0  0  0  0  0  0  0  0
   12.8680    0.7670   22.9820 C   0  0  0  0  0  0  0  0  0  0  0  0
   12.4880   -0.3920   22.4910 C   0  0  0  0  0  0  0  0  0  0  0  0
   11.3770   -1.1700   22.3510 C   0  0  0  0  0  0  0  0  0  0  0  0
   10.0450   -1.4330   22.5240 C   0  0  0  0  0  0  0  0  0  0  0  0
    9.2790   -1.1590   21.3600 N   0  0  0  0  0  0  0  0  0  0  0  0
    8.4260   -0.1000   21.2950 C   0  0  0  0  0  0  0  0  0  0  0  0
    8.8060    1.0510   21.4460 O   0  0  0  0  0  0  0  0  0  0  0  0
    7.1470   -0.5050   21.0180 N   0  0  0  0  0  0  0  0  0  0  0  0
    6.3490    0.1480   20.0720 C   0  0  0  0  0  0  0  0  0  0  0  0
    5.1870    0.7760   20.4030 C   0  0  0  0  0  0  0  0  0  0  0  0
    4.5970    1.3950   19.1490 C   0  0  0  0  0  0  0  0  0  0  0  0
    5.2020    1.2920   17.9180 C   0  0  0  0  0  0  0  0  0  0  0  0
    6.3310    0.6500   17.7020 N   0  0  0  0  0  0  0  0  0  0  0  0
    6.8610    0.1010   18.7830 C   0  0  0  0  0  0  0  0  0  0  0  0
   12.6200   -1.5530   21.8620 N   0  0  0  0  0  0  0  0  0  0  0  0
   13.0900   -2.6240   21.1820 C   0  0  0  0  0  0  0  0  0  0  0  0
   13.5060   -0.4270   22.2520 N   0  0  0  0  0  0  0  0  0  0  0  0
  1  2  1  0
  2  3  1  0
  3  4  2  0
  4  5  1  0
  5  6  1  0
  6  7  1  0
  7  8  2  0
  7  9  1  0
  9 10  1  0
 10 11  2  0
 11 12  1  0
 12 13  2  0
 13 14  1  0
 10 15  1  0
 14 15  2  0
  4 16  1  0
 16 17  1  0
  2 18  2  0
 16 18  1  0
M  END
