pyridine_urea_7228
     RDKit          3D

 19 20  0  0  0  0  0  0  0  0999 V2000
    8.8810    0.7750   21.3480 O   0  0  0  0  0  0  0  0  0  0  0  0
    8.2040   -0.1840   21.6930 C   0  0  0  0  0  0  0  0  0  0  0  0
    8.4820   -0.9890   22.7770 N   0  0  0  0  0  0  0  0  0  0  0  0
    9.3070   -2.1230   22.7520 C   0  0  0  0  0  0  0  0  0  0  0  0
   10.6070   -2.0000   22.3170 C   0  0  0  0  0  0  0  0  0  0  0  0
   11.5040   -1.6400   23.2860 N   0  0  0  0  0  0  0  0  0  0  0  0
   12.0380   -2.5720   24.2620 C   0  0  0  0  0  0  0  0  0  0  0  0
   11.6080   -3.6070   24.7370 O   0  0  0  0  0  0  0  0  0  0  0  0
   13.2680   -2.1570   24.6840 C   0  0  0  0  0  0  0  0  0  0  0  0
   13.3740   -0.8660   23.9880 N   0  0  0  0  0  0  0  0  0  0  0  0
   12.2890   -0.5560   23.2010 C   0  0  0  0  0  0  0  0  0  0  0  0
   12.0820    0.4700   22.5750 O   0  0  0  0  0  0  0  0  0  0  0  0
    7.0600   -0.6190   21.0790 N   0  0  0  0  0  0  0  0  0  0  0  0
    6.4160    0.0350   20.0270 C   0  0  0  0  0  0  0  0  0  0  0  0
    5.2390    0.7450   20.2610 C   0  0  0  0  0  0  0  0  0  0  0  0
    4.6200    1.4010   19.1980 C   0  0  0  0  0  0  0  0  0  0  0  0
    5.1940    1.3280   17.9370 C   0  0  0  0  0  0  0  0  0  0  0  0
    6.3200    0.6430   17.7100 N   0  0  0  0  0  0  0  0  0  0  0  0
    6.9070    0.0110   18.7440 C   0  0  0  0  0  0  0  0  0  0  0  0
  1  2  2  0
  2  3  1  0
  3  4  1  0
  4  5  1  0
  5  6  1  0
  6  7  1  0
  7  8  2  0
  7  9  1  0
  9 10  1  0
  6 11  1  0
 10 11  1  0
 11 12  2  0
  2 13  1  0
 13 14  1  0
 14 15  2  0
 15 16  1  0
 16 17  2  0
 17 18  1  0
 14 19  1  0
 18 19  2  0
M  END
