pyridine_urea_7019
     RDKit          3D

 20 21  0  0  0  0  0  0  0  0999 V2000
   12.9000   -2.5520   21.1310 C   0  0  0  0  0  0  0  0  0  0  0  0
   11.7400   -1.8970   21.8320 C   0  0  0  0  0  0  0  0  0  0  0  0
   10.5620   -2.6700   22.0050 O   0  0  0  0  0  0  0  0  0  0  0  0
   11.9790   -0.5350   22.2670 N   0  0  0  0  0  0  0  0  0  0  0  0
   13.0380   -0.4210   23.2120 C   0  0  0  0  0  0  0  0  0  0  0  0
   12.4490   -0.6160   24.4450 C   0  0  0  0  0  0  0  0  0  0  0  0
   11.3110    0.1480   24.6370 C   0  0  0  0  0  0  0  0  0  0  0  0
   10.2830    0.0790   23.7250 C   0  0  2  0  0  0  0  0  0  0  0  0
    9.4110   -1.1730   23.6550 C   0  0  0  0  0  0  0  0  0  0  0  0
    8.9990   -1.4740   22.2620 N   0  0  0  0  0  0  0  0  0  0  0  0
    8.3020   -0.3870   21.5840 C   0  0  0  0  0  0  0  0  0  0  0  0
    8.6850    0.7760   21.4660 O   0  0  0  0  0  0  0  0  0  0  0  0
    7.0970   -0.6980   21.0220 N   0  0  0  0  0  0  0  0  0  0  0  0
    6.3840    0.0130   20.0510 C   0  0  0  0  0  0  0  0  0  0  0  0
    5.1920    0.7230   20.2710 C   0  0  0  0  0  0  0  0  0  0  0  0
    4.5600    1.4210   19.2270 C   0  0  0  0  0  0  0  0  0  0  0  0
    5.1800    1.3950   17.8830 C   0  0  0  0  0  0  0  0  0  0  0  0
    6.3570    0.6680   17.7230 N   0  0  0  0  0  0  0  0  0  0  0  0
    6.9140    0.0130   18.7710 C   0  0  0  0  0  0  0  0  0  0  0  0
   10.9580    0.3660   22.4300 C   0  0  0  0  0  0  0  0  0  0  0  0
  1  2  1  0
  2  3  2  0
  2  4  1  0
  4  5  1  0
  5  6  1  0
  6  7  1  0
  7  8  1  0
  8  9  1  6
  9 10  1  0
 10 11  1  0
 11 12  2  0
 11 13  1  0
 13 14  1  0
 14 15  2  0
 15 16  1  0
 16 17  2  0
 17 18  1  0
 14 19  1  0
 18 19  2  0
  4 20  1  0
  8 20  1  0
M  END
