pyridine_urea_1501
     RDKit          3D

 19 19  0  0  0  0  0  0  0  0999 V2000
    9.8710   -2.5850   23.5760 C   0  0  0  0  0  0  0  0  0  0  0  0
   10.3840   -1.4640   22.6450 C   0  0  0  0  0  0  0  0  0  0  0  0
   10.2600   -0.2210   23.5130 C   0  0  0  0  0  0  0  0  0  0  0  0
    9.3460   -1.2960   21.6420 N   0  0  0  0  0  0  0  0  0  0  0  0
    8.5510   -0.2010   21.4060 C   0  0  0  0  0  0  0  0  0  0  0  0
    8.9820    0.9460   21.4410 O   0  0  0  0  0  0  0  0  0  0  0  0
    7.2500   -0.5500   21.1090 N   0  0  0  0  0  0  0  0  0  0  0  0
    6.5270    0.0550   20.0720 C   0  0  0  0  0  0  0  0  0  0  0  0
    5.3640    0.7690   20.3700 C   0  0  0  0  0  0  0  0  0  0  0  0
    4.6630    1.3870   19.3410 C   0  0  0  0  0  0  0  0  0  0  0  0
    5.1410    1.2750   18.0480 C   0  0  0  0  0  0  0  0  0  0  0  0
    6.2410    0.5880   17.7360 N   0  0  0  0  0  0  0  0  0  0  0  0
    6.9030   -0.0040   18.7480 C   0  0  0  0  0  0  0  0  0  0  0  0
   11.7000   -1.7880   22.2810 C   0  0  1  0  0  0  0  0  0  0  0  0
   11.7170   -1.9190   20.9210 O   0  0  0  0  0  0  0  0  0  0  0  0
   12.4830   -0.7600   22.8410 C   0  0  0  0  0  0  0  0  0  0  0  0
   12.8330   -0.9370   24.1200 F   0  0  0  0  0  0  0  0  0  0  0  0
   11.8550    0.4400   22.8090 F   0  0  0  0  0  0  0  0  0  0  0  0
   13.6090   -0.5130   22.1740 F   0  0  0  0  0  0  0  0  0  0  0  0
  1  2  1  0
  2  3  1  0
  2  4  1  0
  4  5  1  0
  5  6  2  0
  5  7  1  0
  7  8  1  0
  8  9  2  0
  9 10  1  0
 10 11  2  0
 11 12  1  0
  8 13  1  0
 12 13  2  0
  2 14  1  0
 14 15  1  6
 14 16  1  0
 16 17  1  0
 16 18  1  0
 16 19  1  0
M  END
