pyridine_urea_13392
     RDKit          3D

 21 22  0  0  0  0  0  0  0  0999 V2000
   13.2740   -2.7240   24.3860 C   0  0  0  0  0  0  0  0  0  0  0  0
   13.6310   -2.8300   23.0010 O   0  0  0  0  0  0  0  0  0  0  0  0
   13.2390   -1.8130   22.1650 C   0  0  0  0  0  0  0  0  0  0  0  0
   13.5600   -1.7510   20.9760 O   0  0  0  0  0  0  0  0  0  0  0  0
   12.3530   -0.7850   22.8490 C   0  0  2  0  0  0  0  0  0  0  0  0
   12.5470   -0.7180   24.3650 C   0  0  0  0  0  0  0  0  0  0  0  0
   10.8800   -1.0750   22.4750 C   0  0  0  0  0  0  0  0  0  0  0  0
    9.9850   -0.4980   23.3570 C   0  0  2  0  0  0  0  0  0  0  0  0
    8.7660   -0.8120   22.7890 N   0  0  0  0  0  0  0  0  0  0  0  0
    8.3940   -0.0140   21.7020 C   0  0  0  0  0  0  0  0  0  0  0  0
    9.0210    1.1480   21.2940 O   0  0  0  0  0  0  0  0  0  0  0  0
    7.2770   -0.5490   21.0960 N   0  0  0  0  0  0  0  0  0  0  0  0
    6.5630    0.0610   20.0540 C   0  0  0  0  0  0  0  0  0  0  0  0
    5.4070    0.7820   20.3490 C   0  0  0  0  0  0  0  0  0  0  0  0
    4.7050    1.4020   19.3260 C   0  0  0  0  0  0  0  0  0  0  0  0
    5.1760    1.2870   18.0170 C   0  0  0  0  0  0  0  0  0  0  0  0
    6.2790    0.5930   17.7160 N   0  0  0  0  0  0  0  0  0  0  0  0
    6.9440   -0.0020   18.7290 C   0  0  0  0  0  0  0  0  0  0  0  0
   10.4650    0.9100   22.9300 C   0  0  0  0  0  0  0  0  0  0  0  0
   11.7530    1.3620   23.2080 C   0  0  0  0  0  0  0  0  0  0  0  0
   12.6510    0.5380   22.5100 O   0  0  0  0  0  0  0  0  0  0  0  0
  1  2  1  0
  2  3  1  0
  3  4  2  0
  5  3  1  0
  5  6  1  1
  5  7  1  0
  7  8  1  0
  8  9  1  6
  9 10  1  0
 10 11  2  0
 10 12  1  0
 12 13  1  0
 13 14  2  0
 14 15  1  0
 15 16  2  0
 16 17  1  0
 13 18  1  0
 17 18  2  0
  8 19  1  0
 19 20  1  0
  5 21  1  0
 20 21  1  0
M  END
