pyridine_urea_13965
     RDKit          3D

 24 26  0  0  0  0  0  0  0  0999 V2000
    8.7490    0.8970   21.2260 O   0  0  0  0  0  0  0  0  0  0  0  0
    8.4030   -0.2380   21.5290 C   0  0  0  0  0  0  0  0  0  0  0  0
    7.1910   -0.7700   21.1310 N   0  0  0  0  0  0  0  0  0  0  0  0
    6.5250   -0.0810   20.0410 C   0  0  0  0  0  0  0  0  0  0  0  0
    5.2440    0.6710   20.3850 C   0  0  0  0  0  0  0  0  0  0  0  0
    4.6080    1.3760   19.2330 C   0  0  0  0  0  0  0  0  0  0  0  0
    5.2080    1.2940   17.9910 C   0  0  0  0  0  0  0  0  0  0  0  0
    6.3390    0.6090   17.7410 N   0  0  0  0  0  0  0  0  0  0  0  0
    6.9610   -0.0510   18.7390 C   0  0  0  0  0  0  0  0  0  0  0  0
    9.1750   -1.0970   22.2900 N   0  0  0  0  0  0  0  0  0  0  0  0
   10.5650   -0.6770   22.5990 C   0  0  2  0  0  0  0  0  0  0  0  0
   11.4020   -1.7070   22.8250 C   0  0  0  0  0  0  0  0  0  0  0  0
   12.6530   -0.8780   22.5460 C   0  0  0  0  0  0  0  0  0  0  0  0
   12.6700    0.4090   23.0760 C   0  0  0  0  0  0  0  0  0  0  0  0
   11.7910    0.6900   24.1010 C   0  0  0  0  0  0  0  0  0  0  0  0
   10.5680    0.1360   23.8700 C   0  0  1  0  0  0  0  0  0  0  0  0
    9.6930    1.2510   23.5870 O   0  0  0  0  0  0  0  0  0  0  0  0
    8.6680    1.5680   24.4470 C   0  0  0  0  0  0  0  0  0  0  0  0
    8.1720    2.9540   24.6930 C   0  0  0  0  0  0  0  0  0  0  0  0
    7.0440    3.1950   25.6420 C   0  0  0  0  0  0  0  0  0  0  0  0
    6.4790    2.0860   26.2850 C   0  0  0  0  0  0  0  0  0  0  0  0
    6.9600    0.7860   26.0400 C   0  0  0  0  0  0  0  0  0  0  0  0
    8.0190    0.5380   25.1490 C   0  0  0  0  0  0  0  0  0  0  0  0
    8.3310   -0.7690   25.0440 F   0  0  0  0  0  0  0  0  0  0  0  0
  1  2  2  0
  2  3  1  0
  3  4  1  0
  4  5  2  0
  5  6  1  0
  6  7  2  0
  7  8  1  0
  4  9  1  0
  8  9  2  0
  2 10  1  0
 11 10  1  1
 11 12  1  0
 12 13  1  0
 13 14  1  0
 14 15  1  0
 11 16  1  0
 15 16  1  0
 16 17  1  6
 17 18  1  0
 18 19  2  0
 19 20  1  0
 20 21  2  0
 21 22  1  0
 18 23  1  0
 22 23  2  0
 23 24  1  0
M  END
