pyridine_urea_6531
     RDKit          3D

 22 23  0  0  0  0  0  0  0  0999 V2000
   12.9640   -2.4570   21.0140 C   0  0  0  0  0  0  0  0  0  0  0  0
   13.1040   -1.0970   21.3360 O   0  0  0  0  0  0  0  0  0  0  0  0
   12.8390   -1.0100   22.6320 C   0  0  0  0  0  0  0  0  0  0  0  0
   13.5640   -1.4560   23.5170 C   0  0  0  0  0  0  0  0  0  0  0  0
   12.7680   -1.0770   24.5280 C   0  0  0  0  0  0  0  0  0  0  0  0
   13.1900   -1.3830   25.6100 O   0  0  0  0  0  0  0  0  0  0  0  0
   13.7000   -2.7150   25.4200 C   0  0  0  0  0  0  0  0  0  0  0  0
   11.3580   -0.2850   24.1270 C   0  0  0  0  0  0  0  0  0  0  0  0
   10.5770    0.2020   23.1320 C   0  0  0  0  0  0  0  0  0  0  0  0
   10.1320   -0.8960   22.4020 C   0  0  0  0  0  0  0  0  0  0  0  0
    8.7120   -0.8470   22.3570 N   0  0  0  0  0  0  0  0  0  0  0  0
    8.1700    0.0040   21.4570 C   0  0  0  0  0  0  0  0  0  0  0  0
    8.7630    1.2800   21.1470 O   0  0  0  0  0  0  0  0  0  0  0  0
    7.0290   -0.5290   20.9420 N   0  0  0  0  0  0  0  0  0  0  0  0
    6.3300    0.1370   19.9570 C   0  0  0  0  0  0  0  0  0  0  0  0
    5.1220    0.8500   20.1490 C   0  0  0  0  0  0  0  0  0  0  0  0
    4.4320    1.5550   19.1150 C   0  0  0  0  0  0  0  0  0  0  0  0
    5.1650    1.4390   17.7890 C   0  0  0  0  0  0  0  0  0  0  0  0
    6.3140    0.7380   17.6420 N   0  0  0  0  0  0  0  0  0  0  0  0
    6.8840    0.0950   18.7090 C   0  0  0  0  0  0  0  0  0  0  0  0
   11.4930   -0.4320   25.1920 C   0  0  0  0  0  0  0  0  0  0  0  0
   11.8900   -0.5480   23.6470 N   0  0  0  0  0  0  0  0  0  0  0  0
  1  2  1  0
  2  3  1  0
  3  4  2  0
  4  5  1  0
  5  6  1  0
  6  7  1  0
  5  8  2  0
  8  9  1  0
  9 10  1  0
 10 11  1  0
 11 12  1  0
 12 13  2  0
 12 14  1  0
 14 15  1  0
 15 16  2  0
 16 17  1  0
 17 18  2  0
 18 19  1  0
 15 20  1  0
 19 20  2  0
  8 21  1  0
  3 22  1  0
 21 22  2  0
M  END
