pyridine_urea_15069
     RDKit          3D

 19 20  0  0  0  0  0  0  0  0999 V2000
   12.9960   -1.3810   24.9470 C   0  0  0  0  0  0  0  0  0  0  0  0
   13.0390    0.0380   25.1120 O   0  0  0  0  0  0  0  0  0  0  0  0
   12.5670    0.7510   23.9660 C   0  0  0  0  0  0  0  0  0  0  0  0
   12.8510    1.8460   23.5110 O   0  0  0  0  0  0  0  0  0  0  0  0
   11.6110   -0.1160   23.3910 C   0  0  0  0  0  0  0  0  0  0  0  0
   11.9930   -1.0310   22.3040 C   0  0  0  0  0  0  0  0  0  0  0  0
   10.7160   -1.7770   22.0100 C   0  0  0  0  0  0  0  0  0  0  0  0
    9.7140   -1.4830   23.1390 C   0  0  2  0  0  0  0  0  0  0  0  0
    8.3890   -1.3030   22.5790 N   0  0  0  0  0  0  0  0  0  0  0  0
    8.1230   -0.3990   21.5820 C   0  0  0  0  0  0  0  0  0  0  0  0
    8.8110    0.5820   21.3230 O   0  0  0  0  0  0  0  0  0  0  0  0
    6.8970   -0.8290   20.9340 N   0  0  0  0  0  0  0  0  0  0  0  0
    6.2670   -0.0430   19.9700 C   0  0  0  0  0  0  0  0  0  0  0  0
    5.0940    0.6820   20.1740 C   0  0  0  0  0  0  0  0  0  0  0  0
    4.5870    1.4160   19.1210 C   0  0  0  0  0  0  0  0  0  0  0  0
    5.2460    1.4150   17.9060 C   0  0  0  0  0  0  0  0  0  0  0  0
    6.3750    0.7230   17.6910 N   0  0  0  0  0  0  0  0  0  0  0  0
    6.8530    0.0130   18.7250 C   0  0  0  0  0  0  0  0  0  0  0  0
   10.2060   -0.2260   23.8290 C   0  0  0  0  0  0  0  0  0  0  0  0
  1  2  1  0
  2  3  1  0
  3  4  2  0
  3  5  1  0
  5  6  2  0
  6  7  1  0
  7  8  1  0
  8  9  1  6
  9 10  1  0
 10 11  2  0
 10 12  1  0
 12 13  1  0
 13 14  2  0
 14 15  1  0
 15 16  2  0
 16 17  1  0
 13 18  1  0
 17 18  2  0
  5 19  1  0
  8 19  1  0
M  END
