pyridine_urea_13580
     RDKit          3D

 27 29  0  0  0  0  0  0  0  0999 V2000
    8.6370    1.0610   21.2430 O   0  0  0  0  0  0  0  0  0  0  0  0
    8.4310   -0.1170   21.5020 C   0  0  0  0  0  0  0  0  0  0  0  0
    9.2590   -0.9320   22.2390 N   0  0  0  0  0  0  0  0  0  0  0  0
   10.6150   -0.6690   22.4890 C   0  0  0  0  0  0  0  0  0  0  0  0
   10.9620    0.8180   22.9060 C   0  0  0  0  0  0  0  0  0  0  0  0
   12.4180    1.0550   23.1530 C   0  0  0  0  0  0  0  0  0  0  0  0
   12.9510   -0.2270   22.9070 C   0  0  0  0  0  0  0  0  0  0  0  0
   12.7430   -1.4580   22.5740 N   0  0  0  0  0  0  0  0  0  0  0  0
   11.4490   -1.8740   22.2950 C   0  0  0  0  0  0  0  0  0  0  0  0
    7.2940   -0.7580   21.0510 N   0  0  0  0  0  0  0  0  0  0  0  0
    6.4940   -0.0730   20.0630 C   0  0  0  0  0  0  0  0  0  0  0  0
    6.9660   -0.0580   18.7620 C   0  0  0  0  0  0  0  0  0  0  0  0
    6.3230    0.5660   17.7690 N   0  0  0  0  0  0  0  0  0  0  0  0
    5.1430    1.2100   18.0690 C   0  0  0  0  0  0  0  0  0  0  0  0
    4.6340    1.2040   19.3620 C   0  0  0  0  0  0  0  0  0  0  0  0
    5.2860    0.5500   20.4630 C   0  0  0  0  0  0  0  0  0  0  0  0
    4.6560    0.5500   22.0600 S   0  0  0  0  0  0  0  0  0  0  0  0
    4.7450   -1.1970   22.4210 C   0  0  0  0  0  0  0  0  0  0  0  0
    4.2600   -1.7110   23.7660 C   0  0  0  0  0  0  0  0  0  0  0  0
    4.3460   -3.0690   23.9870 C   0  0  0  0  0  0  0  0  0  0  0  0
    3.9580   -3.7490   25.1480 C   0  0  0  0  0  0  0  0  0  0  0  0
    4.3760   -5.0100   25.3310 F   0  0  0  0  0  0  0  0  0  0  0  0
    4.4080   -3.0540   26.2240 F   0  0  0  0  0  0  0  0  0  0  0  0
    2.6020   -3.8300   25.2790 F   0  0  0  0  0  0  0  0  0  0  0  0
    4.9090   -4.0230   22.9240 C   0  0  0  0  0  0  0  0  0  0  0  0
    5.3110   -3.3890   21.7470 C   0  0  0  0  0  0  0  0  0  0  0  0
    5.2410   -2.0300   21.4860 N   0  0  0  0  0  0  0  0  0  0  0  0
  1  2  2  0
  2  3  1  0
  3  4  1  0
  4  5  2  0
  5  6  1  0
  6  7  2  0
  7  8  1  0
  4  9  1  0
  8  9  2  0
  2 10  1  0
 10 11  1  0
 11 12  2  0
 12 13  1  0
 13 14  2  0
 14 15  1  0
 11 16  1  0
 15 16  2  0
 16 17  1  0
 17 18  1  0
 18 19  2  0
 19 20  1  0
 20 21  1  0
 21 22  1  0
 21 23  1  0
 21 24  1  0
 20 25  2  0
 25 26  1  0
 18 27  1  0
 26 27  2  0
M  END
