pyridine_urea_455
     RDKit          3D

 25 26  0  0  0  0  0  0  0  0999 V2000
   13.1730   -2.9320   25.2020 C   0  0  0  0  0  0  0  0  0  0  0  0
   13.4650   -2.1140   23.9970 C   0  0  0  0  0  0  0  0  0  0  0  0
   12.4990   -1.1310   23.7420 O   0  0  0  0  0  0  0  0  0  0  0  0
   11.3040   -1.6180   23.3810 C   0  0  0  0  0  0  0  0  0  0  0  0
   11.1880   -2.8530   23.2900 O   0  0  0  0  0  0  0  0  0  0  0  0
   10.1920   -0.7980   23.1500 C   0  0  2  0  0  0  0  0  0  0  0  0
    9.8660   -0.4050   21.7470 N   0  0  0  0  0  0  0  0  0  0  0  0
    8.6940    0.3010   21.3840 C   0  0  0  0  0  0  0  0  0  0  0  0
    8.7470    1.7270   21.1960 O   0  0  0  0  0  0  0  0  0  0  0  0
    7.5660   -0.4350   21.1670 N   0  0  0  0  0  0  0  0  0  0  0  0
    6.8010    0.0650   20.1560 C   0  0  0  0  0  0  0  0  0  0  0  0
    5.5480    0.9320   20.4100 C   0  0  0  0  0  0  0  0  0  0  0  0
    4.7550    1.4750   19.3980 C   0  0  0  0  0  0  0  0  0  0  0  0
    5.1480    1.1990   18.0860 C   0  0  0  0  0  0  0  0  0  0  0  0
    6.2520    0.4240   17.8230 N   0  0  0  0  0  0  0  0  0  0  0  0
    7.0670   -0.1400   18.8140 C   0  0  0  0  0  0  0  0  0  0  0  0
    9.9760    0.3240   24.1820 C   0  0  0  0  0  0  0  0  0  0  0  0
   11.2880    0.8580   23.8340 C   0  0  0  0  0  0  0  0  0  0  0  0
   11.8840    0.0870   22.8630 C   0  0  0  0  0  0  0  0  0  0  0  0
   11.1460   -1.0570   22.3820 C   0  0  0  0  0  0  0  0  0  0  0  0
   11.6770   -1.8730   21.4110 O   0  0  0  0  0  0  0  0  0  0  0  0
   13.0970   -1.8870   21.3320 C   0  0  0  0  0  0  0  0  0  0  0  0
    9.7710   -1.4410   22.8910 C   0  0  0  0  0  0  0  0  0  0  0  0
    9.1140   -2.5420   22.4000 F   0  0  0  0  0  0  0  0  0  0  0  0
    9.1180   -0.6600   23.9030 C   0  0  0  0  0  0  0  0  0  0  0  0
  1  2  1  0
  2  3  1  0
  3  4  1  0
  4  5  2  0
  4  6  1  0
  6  7  1  6
  7  8  1  0
  8  9  2  0
  8 10  1  0
 10 11  1  0
 11 12  2  0
 12 13  1  0
 13 14  2  0
 14 15  1  0
 11 16  1  0
 15 16  2  0
  6 17  1  0
 17 18  2  0
 18 19  1  0
 19 20  2  0
 20 21  1  0
 21 22  1  0
 20 23  1  0
 23 24  1  0
 17 25  1  0
 23 25  2  0
M  END
