pyridine_urea_6344
     RDKit          3D

 23 25  0  0  0  0  0  0  0  0999 V2000
    8.5490    1.3600   21.0730 O   0  0  0  0  0  0  0  0  0  0  0  0
    8.0070    0.3720   21.5910 C   0  0  0  0  0  0  0  0  0  0  0  0
    7.0240   -0.3930   21.0350 N   0  0  0  0  0  0  0  0  0  0  0  0
    6.3990    0.2050   19.9160 C   0  0  0  0  0  0  0  0  0  0  0  0
    5.1230    0.9700   20.2150 C   0  0  0  0  0  0  0  0  0  0  0  0
    4.5150    1.6040   19.0220 C   0  0  0  0  0  0  0  0  0  0  0  0
    5.1450    1.4420   17.8050 C   0  0  0  0  0  0  0  0  0  0  0  0
    6.2730    0.7390   17.6070 N   0  0  0  0  0  0  0  0  0  0  0  0
    6.8680    0.1440   18.6440 C   0  0  0  0  0  0  0  0  0  0  0  0
    8.3160   -0.1110   22.8100 N   0  0  0  0  0  0  0  0  0  0  0  0
    9.4790   -0.9510   22.7700 C   0  0  2  0  0  0  0  0  0  0  0  0
    9.2600   -2.1430   22.1830 C   0  0  0  0  0  0  0  0  0  0  0  0
   10.3910   -2.2750   23.0290 C   0  0  0  0  0  0  0  0  0  0  0  0
   10.4010   -2.1620   24.3020 C   0  0  0  0  0  0  0  0  0  0  0  0
   11.6030   -2.3060   24.8220 C   0  0  0  0  0  0  0  0  0  0  0  0
   12.7080   -2.5550   24.1120 C   0  0  0  0  0  0  0  0  0  0  0  0
   13.9410   -2.6570   25.2810 Cl  0  0  0  0  0  0  0  0  0  0  0  0
   12.9560   -2.7330   22.5950 C   0  0  0  0  0  0  0  0  0  0  0  0
   11.5390   -2.5380   22.1450 C   0  0  0  0  0  0  0  0  0  0  0  0
   10.4510   -0.6930   23.9550 C   0  0  0  0  0  0  0  0  0  0  0  0
   11.6560   -0.1020   23.5690 C   0  0  0  0  0  0  0  0  0  0  0  0
   11.8190   -0.3690   22.2910 O   0  0  0  0  0  0  0  0  0  0  0  0
   10.4450   -0.3510   21.8080 C   0  0  0  0  0  0  0  0  0  0  0  0
  1  2  2  0
  2  3  1  0
  3  4  1  0
  4  5  2  0
  5  6  1  0
  6  7  2  0
  7  8  1  0
  4  9  1  0
  8  9  2  0
  2 10  1  0
 11 10  1  0
 11 12  1  6
 12 13  1  0
 13 14  2  0
 14 15  1  0
 15 16  2  0
 16 17  1  0
 16 18  1  0
 13 19  1  0
 18 19  2  0
 11 20  1  0
 20 21  1  0
 21 22  1  0
 11 23  1  0
 22 23  1  0
M  END
