pyridine_urea_1425
     RDKit          3D

 19 20  0  0  0  0  0  0  0  0999 V2000
    8.4020    1.5330   20.8990 O   0  0  0  0  0  0  0  0  0  0  0  0
    8.3490    0.3980   21.3570 C   0  0  0  0  0  0  0  0  0  0  0  0
    7.3040   -0.4340   21.0770 N   0  0  0  0  0  0  0  0  0  0  0  0
    6.6110    0.0870   19.9510 C   0  0  0  0  0  0  0  0  0  0  0  0
    5.3580    0.9140   20.2580 C   0  0  0  0  0  0  0  0  0  0  0  0
    4.6350    1.4930   19.2260 C   0  0  0  0  0  0  0  0  0  0  0  0
    5.1010    1.2860   17.9330 C   0  0  0  0  0  0  0  0  0  0  0  0
    6.2150    0.5290   17.7030 N   0  0  0  0  0  0  0  0  0  0  0  0
    6.9870   -0.0830   18.6860 C   0  0  0  0  0  0  0  0  0  0  0  0
    9.3020   -0.1200   22.1370 N   0  0  0  0  0  0  0  0  0  0  0  0
   10.2990   -0.4900   22.9170 C   0  0  2  0  0  0  0  0  0  0  0  0
   10.2810    0.2940   24.0680 C   0  0  0  0  0  0  0  0  0  0  0  0
    9.9630   -0.4810   25.2270 O   0  0  0  0  0  0  0  0  0  0  0  0
   11.5950   -0.6370   22.4860 C   0  0  0  0  0  0  0  0  0  0  0  0
   12.3640   -1.2450   23.4000 C   0  0  0  0  0  0  0  0  0  0  0  0
   12.5530   -0.7300   24.6540 C   0  0  0  0  0  0  0  0  0  0  0  0
   13.2790   -1.4230   25.4990 N   0  0  0  0  0  0  0  0  0  0  0  0
   13.7030   -2.5360   24.9030 C   0  0  0  0  0  0  0  0  0  0  0  0
   13.2120   -2.7250   23.2700 S   0  0  0  0  0  0  0  0  0  0  0  0
  1  2  2  0
  2  3  1  0
  3  4  1  0
  4  5  2  0
  5  6  1  0
  6  7  2  0
  7  8  1  0
  4  9  1  0
  8  9  2  0
  2 10  1  0
 10 11  1  0
 11 12  1  1
 12 13  1  0
 11 14  1  0
 14 15  1  0
 15 16  2  0
 16 17  1  0
 17 18  2  0
 15 19  1  0
 18 19  1  0
M  END
