pyridine_urea_15241
     RDKit          3D

 17 17  0  0  0  0  0  0  0  0999 V2000
   13.1750   -1.9190   24.7480 C   0  0  0  0  0  0  0  0  0  0  0  0
   13.0990   -1.6290   23.3540 O   0  0  0  0  0  0  0  0  0  0  0  0
   13.0030   -0.2360   23.0130 C   0  0  0  0  0  0  0  0  0  0  0  0
   11.9250    0.5080   23.7530 C   0  0  1  0  0  0  0  0  0  0  0  0
   11.6870    1.7290   23.1950 O   0  0  0  0  0  0  0  0  0  0  0  0
   10.7780   -0.4270   24.0620 C   0  0  0  0  0  0  0  0  0  0  0  0
   10.2270   -1.0110   22.7670 C   0  0  0  0  0  0  0  0  0  0  0  0
    8.8190   -0.7280   22.6190 N   0  0  0  0  0  0  0  0  0  0  0  0
    8.3600    0.0500   21.5720 C   0  0  0  0  0  0  0  0  0  0  0  0
    8.9370    1.1030   21.2410 O   0  0  0  0  0  0  0  0  0  0  0  0
    7.2280   -0.4910   21.0230 N   0  0  0  0  0  0  0  0  0  0  0  0
    6.5220    0.1140   19.9880 C   0  0  0  0  0  0  0  0  0  0  0  0
    5.3620    0.8390   20.2820 C   0  0  0  0  0  0  0  0  0  0  0  0
    4.6610    1.4580   19.2530 C   0  0  0  0  0  0  0  0  0  0  0  0
    5.1460    1.3280   17.9720 C   0  0  0  0  0  0  0  0  0  0  0  0
    6.2500    0.6300   17.6680 N   0  0  0  0  0  0  0  0  0  0  0  0
    6.9100    0.0420   18.6800 C   0  0  0  0  0  0  0  0  0  0  0  0
  1  2  1  0
  2  3  1  0
  3  4  1  0
  4  5  1  6
  4  6  1  0
  6  7  1  0
  7  8  1  0
  8  9  1  0
  9 10  2  0
  9 11  1  0
 11 12  1  0
 12 13  2  0
 13 14  1  0
 14 15  2  0
 15 16  1  0
 12 17  1  0
 16 17  2  0
M  END
