pyridine_urea_10911
     RDKit          3D

 19 20  0  0  0  0  0  0  0  0999 V2000
    8.7270    1.2270   21.0940 O   0  0  0  0  0  0  0  0  0  0  0  0
    8.3700    0.1470   21.5830 C   0  0  0  0  0  0  0  0  0  0  0  0
    7.2540   -0.6130   21.0340 N   0  0  0  0  0  0  0  0  0  0  0  0
    6.5280    0.0280   20.0410 C   0  0  0  0  0  0  0  0  0  0  0  0
    5.3660    0.7420   20.3490 C   0  0  0  0  0  0  0  0  0  0  0  0
    4.6800    1.3840   19.3130 C   0  0  0  0  0  0  0  0  0  0  0  0
    5.1790    1.2880   18.0120 C   0  0  0  0  0  0  0  0  0  0  0  0
    6.2880    0.5980   17.7080 N   0  0  0  0  0  0  0  0  0  0  0  0
    6.9360   -0.0160   18.7270 C   0  0  0  0  0  0  0  0  0  0  0  0
    8.9310   -0.4930   22.6740 N   0  0  0  0  0  0  0  0  0  0  0  0
   10.2770   -0.1140   23.0860 C   0  0  0  0  0  0  0  0  0  0  0  0
   10.4240    1.4050   22.9000 C   0  0  0  0  0  0  0  0  0  0  0  0
    9.8400    2.1240   23.8700 F   0  0  0  0  0  0  0  0  0  0  0  0
   11.7280    1.7710   23.0490 F   0  0  0  0  0  0  0  0  0  0  0  0
   11.2240   -1.0420   22.2530 C   0  0  0  0  0  0  0  0  0  0  0  0
   12.5130   -0.5590   22.4570 C   0  0  0  0  0  0  0  0  0  0  0  0
   12.8400   -0.8180   23.7670 C   0  0  0  0  0  0  0  0  0  0  0  0
   11.9760   -0.1760   24.6210 C   0  0  0  0  0  0  0  0  0  0  0  0
   10.6620   -0.5150   24.3570 C   0  0  0  0  0  0  0  0  0  0  0  0
  1  2  2  0
  2  3  1  0
  3  4  1  0
  4  5  2  0
  5  6  1  0
  6  7  2  0
  7  8  1  0
  4  9  1  0
  8  9  2  0
  2 10  1  0
 11 10  1  0
 11 12  1  0
 12 13  1  0
 12 14  1  0
 11 15  1  0
 15 16  1  0
 16 17  1  0
 17 18  1  0
 11 19  1  0
 18 19  1  0
M  END
