pyridine_urea_13491
     RDKit          3D

 24 25  0  0  0  0  0  0  0  0999 V2000
    9.1990   -3.0860   23.3350 C   0  0  0  0  0  0  0  0  0  0  0  0
   10.6970   -2.8000   23.6250 C   0  0  0  0  0  0  0  0  0  0  0  0
   11.2280   -2.1100   22.5220 O   0  0  0  0  0  0  0  0  0  0  0  0
   10.3930   -1.1010   22.2490 C   0  0  0  0  0  0  0  0  0  0  0  0
   10.2010   -0.6260   21.1730 O   0  0  0  0  0  0  0  0  0  0  0  0
    9.6450   -0.6480   23.4870 C   0  0  1  0  0  0  0  0  0  0  0  0
   10.3540    0.3060   24.4190 C   0  0  0  0  0  0  0  0  0  0  0  0
   10.9600    1.3990   23.8460 C   0  0  0  0  0  0  0  0  0  0  0  0
   12.0810    0.7240   23.4370 C   0  0  0  0  0  0  0  0  0  0  0  0
   12.2780   -0.5930   23.6650 C   0  0  0  0  0  0  0  0  0  0  0  0
   13.2900   -1.9720   23.4850 Cl  0  0  0  0  0  0  0  0  0  0  0  0
   13.3770    0.4980   22.8080 S   0  0  0  0  0  0  0  0  0  0  0  0
   12.1610    1.8780   23.1100 C   0  0  0  0  0  0  0  0  0  0  0  0
   12.4530    3.5010   22.5670 Cl  0  0  0  0  0  0  0  0  0  0  0  0
    8.3480   -0.1770   23.0360 N   0  0  0  0  0  0  0  0  0  0  0  0
    8.1990    0.2740   21.7310 C   0  0  0  0  0  0  0  0  0  0  0  0
    8.9680    1.3810   21.1950 O   0  0  0  0  0  0  0  0  0  0  0  0
    7.2270   -0.4360   21.0610 N   0  0  0  0  0  0  0  0  0  0  0  0
    6.4250    0.1650   20.0860 C   0  0  0  0  0  0  0  0  0  0  0  0
    5.2000    0.8340   20.3890 C   0  0  0  0  0  0  0  0  0  0  0  0
    4.5580    1.4160   19.1280 C   0  0  0  0  0  0  0  0  0  0  0  0
    5.1570    1.2650   17.9020 C   0  0  0  0  0  0  0  0  0  0  0  0
    6.2990    0.6160   17.7110 N   0  0  0  0  0  0  0  0  0  0  0  0
    6.8870    0.0920   18.7850 C   0  0  0  0  0  0  0  0  0  0  0  0
  1  2  1  0
  2  3  1  0
  3  4  1  0
  4  5  2  0
  4  6  1  0
  6  7  1  6
  7  8  1  0
  8  9  1  0
  9 10  2  0
 10 11  1  0
 10 12  1  0
  8 13  2  0
 12 13  1  0
 13 14  1  0
  6 15  1  0
 15 16  1  0
 16 17  2  0
 16 18  1  0
 18 19  1  0
 19 20  2  0
 20 21  1  0
 21 22  2  0
 22 23  1  0
 19 24  1  0
 23 24  2  0
M  END
