pyridine_urea_9163
     RDKit          3D

 18 20  0  0  0  0  0  0  0  0999 V2000
    8.6170    1.4180   21.0440 O   0  0  0  0  0  0  0  0  0  0  0  0
    8.4940    0.2670   21.4660 C   0  0  0  0  0  0  0  0  0  0  0  0
    7.3960   -0.4880   21.1250 N   0  0  0  0  0  0  0  0  0  0  0  0
    6.6860    0.0480   19.9980 C   0  0  0  0  0  0  0  0  0  0  0  0
    5.4420    0.8940   20.3230 C   0  0  0  0  0  0  0  0  0  0  0  0
    4.7030    1.4790   19.3030 C   0  0  0  0  0  0  0  0  0  0  0  0
    5.1310    1.2710   17.9990 C   0  0  0  0  0  0  0  0  0  0  0  0
    6.2380    0.5040   17.7480 N   0  0  0  0  0  0  0  0  0  0  0  0
    7.0270   -0.1180   18.7190 C   0  0  0  0  0  0  0  0  0  0  0  0
    9.3930   -0.3660   22.2760 N   0  0  0  0  0  0  0  0  0  0  0  0
   10.3230   -0.9300   23.0780 C   0  0  0  0  0  0  0  0  0  0  0  0
    9.7130   -1.9660   23.7970 C   0  0  0  0  0  0  0  0  0  0  0  0
   10.2850   -3.0890   23.8400 C   0  0  0  0  0  0  0  0  0  0  0  0
    9.3450   -3.1220   22.7550 C   0  0  0  0  0  0  0  0  0  0  0  0
   11.5380   -1.3360   22.4620 C   0  0  0  0  0  0  0  0  0  0  0  0
   12.5370   -0.3370   22.9370 C   0  0  0  0  0  0  0  0  0  0  0  0
   12.1560    0.3410   24.0380 C   0  0  0  0  0  0  0  0  0  0  0  0
   10.8500   -0.1900   24.1760 C   0  0  0  0  0  0  0  0  0  0  0  0
  1  2  2  0
  2  3  1  0
  3  4  1  0
  4  5  2  0
  5  6  1  0
  6  7  2  0
  7  8  1  0
  4  9  1  0
  8  9  2  0
  2 10  1  0
 11 10  1  0
 11 12  1  0
 12 13  1  0
 12 14  1  0
 13 14  1  0
 11 15  1  0
 15 16  1  0
 16 17  1  0
 11 18  1  0
 17 18  1  0
M  END
