pyridine_urea_10226
     RDKit          3D

 23 24  0  0  0  0  0  0  0  0999 V2000
   13.0000   -1.5230   24.7760 C   0  0  0  0  0  0  0  0  0  0  0  0
   12.7180   -0.1850   25.0440 N   0  0  0  0  0  0  0  0  0  0  0  0
   12.4650    0.9650   23.8320 S   0  0  0  0  0  0  0  0  0  0  0  0
   13.6050    1.1220   22.9720 O   0  0  0  0  0  0  0  0  0  0  0  0
   11.5210    2.0010   24.1730 O   0  0  0  0  0  0  0  0  0  0  0  0
   11.6010   -0.1770   23.0820 C   0  0  0  0  0  0  0  0  0  0  0  0
   10.2750   -0.1640   23.2490 C   0  0  0  0  0  0  0  0  0  0  0  0
    9.4750   -1.0680   22.6730 C   0  0  0  0  0  0  0  0  0  0  0  0
    8.1580   -1.0280   22.8100 N   0  0  0  0  0  0  0  0  0  0  0  0
    7.7150   -0.2750   21.6680 C   0  0  0  0  0  0  0  0  0  0  0  0
    8.3760    0.9300   21.2300 O   0  0  0  0  0  0  0  0  0  0  0  0
    6.5850   -0.8390   20.9750 N   0  0  0  0  0  0  0  0  0  0  0  0
    6.1120   -0.0830   19.9530 C   0  0  0  0  0  0  0  0  0  0  0  0
    4.8560    0.7850   20.0550 C   0  0  0  0  0  0  0  0  0  0  0  0
    4.4580    1.5360   18.9630 C   0  0  0  0  0  0  0  0  0  0  0  0
    5.1450    1.5520   17.7500 C   0  0  0  0  0  0  0  0  0  0  0  0
    6.3220    0.7210   17.6690 N   0  0  0  0  0  0  0  0  0  0  0  0
    6.7770   -0.0640   18.7480 C   0  0  0  0  0  0  0  0  0  0  0  0
   10.1400   -2.1070   21.8400 C   0  0  0  0  0  0  0  0  0  0  0  0
   11.5820   -2.0600   21.7040 C   0  0  0  0  0  0  0  0  0  0  0  0
   12.2730   -1.0920   22.3280 C   0  0  0  0  0  0  0  0  0  0  0  0
   13.4300   -1.1410   22.1330 O   0  0  0  0  0  0  0  0  0  0  0  0
   13.5030   -1.8120   20.8960 C   0  0  0  0  0  0  0  0  0  0  0  0
  1  2  1  0
  3  2  1  0
  3  4  2  0
  3  5  2  0
  3  6  1  0
  6  7  2  0
  7  8  1  0
  8  9  1  0
  9 10  1  0
 10 11  2  0
 10 12  1  0
 12 13  1  0
 13 14  2  0
 14 15  1  0
 15 16  2  0
 16 17  1  0
 13 18  1  0
 17 18  2  0
  8 19  2  0
 19 20  1  0
  6 21  1  0
 20 21  2  0
 21 22  1  0
 22 23  1  0
M  END
