pyridine_urea_8870
     RDKit          3D

 20 21  0  0  0  0  0  0  0  0999 V2000
   12.9200    0.9170   23.4230 C   0  0  0  0  0  0  0  0  0  0  0  0
   12.3110    0.1980   24.4280 N   0  0  0  0  0  0  0  0  0  0  0  0
   12.9360   -0.8620   25.1690 C   0  0  0  0  0  0  0  0  0  0  0  0
   11.5040   -0.3670   23.6430 C   0  0  0  0  0  0  0  0  0  0  0  0
   10.2510    0.0240   23.5950 C   0  0  0  0  0  0  0  0  0  0  0  0
    9.4280   -0.5920   22.7330 C   0  0  0  0  0  0  0  0  0  0  0  0
    8.1960   -0.1790   22.7040 N   0  0  0  0  0  0  0  0  0  0  0  0
    7.8360    0.3740   21.5240 C   0  0  0  0  0  0  0  0  0  0  0  0
    8.5170    1.4550   21.0020 O   0  0  0  0  0  0  0  0  0  0  0  0
    6.8290   -0.2460   20.9740 N   0  0  0  0  0  0  0  0  0  0  0  0
    6.2780    0.2870   19.9070 C   0  0  0  0  0  0  0  0  0  0  0  0
    5.1150    1.0040   20.1120 C   0  0  0  0  0  0  0  0  0  0  0  0
    4.5530    1.5890   19.0130 C   0  0  0  0  0  0  0  0  0  0  0  0
    5.1190    1.4690   17.7560 C   0  0  0  0  0  0  0  0  0  0  0  0
    6.2320    0.7760   17.4890 N   0  0  0  0  0  0  0  0  0  0  0  0
    6.7880    0.1870   18.6470 C   0  0  0  0  0  0  0  0  0  0  0  0
    9.9550   -1.5970   21.9360 C   0  0  0  0  0  0  0  0  0  0  0  0
   11.2380   -2.0120   21.9740 C   0  0  0  0  0  0  0  0  0  0  0  0
   12.0090   -1.3580   22.8810 C   0  0  0  0  0  0  0  0  0  0  0  0
   13.5670   -1.9470   22.9030 Cl  0  0  0  0  0  0  0  0  0  0  0  0
  1  2  1  0
  2  3  1  0
  2  4  1  0
  4  5  2  0
  5  6  1  0
  6  7  1  0
  7  8  1  0
  8  9  2  0
  8 10  1  0
 10 11  1  0
 11 12  2  0
 12 13  1  0
 13 14  2  0
 14 15  1  0
 11 16  1  0
 15 16  2  0
  6 17  2  0
 17 18  1  0
  4 19  1  0
 18 19  2  0
 19 20  1  0
M  END
