pyridine_urea_3818
     RDKit          3D

 22 24  0  0  0  0  0  0  0  0999 V2000
    8.9250    0.6690   21.3870 O   0  0  0  0  0  0  0  0  0  0  0  0
    8.2170   -0.2820   21.7050 C   0  0  0  0  0  0  0  0  0  0  0  0
    8.4410   -1.0670   22.8200 N   0  0  0  0  0  0  0  0  0  0  0  0
    8.5940   -0.4590   24.1410 C   0  0  0  0  0  0  0  0  0  0  0  0
    9.4890    0.7410   24.0690 C   0  0  0  0  0  0  0  0  0  0  0  0
   10.7040    1.6980   23.8530 C   0  0  0  0  0  0  0  0  0  0  0  0
   12.0820    1.3420   23.3530 C   0  0  0  0  0  0  0  0  0  0  0  0
   12.3780   -0.0380   23.0280 C   0  0  0  0  0  0  0  0  0  0  0  0
   11.2700   -0.9540   23.2510 C   0  0  0  0  0  0  0  0  0  0  0  0
   10.0690   -0.5100   23.6990 C   0  0  0  0  0  0  0  0  0  0  0  0
    9.2900   -1.6270   23.7880 F   0  0  0  0  0  0  0  0  0  0  0  0
   11.5840   -2.4520   22.9460 C   0  0  0  0  0  0  0  0  0  0  0  0
   12.9430   -2.5220   22.7030 C   0  0  0  0  0  0  0  0  0  0  0  0
   13.2160   -1.5880   21.7750 C   0  0  0  0  0  0  0  0  0  0  0  0
   13.5960   -0.5380   22.5460 C   0  0  0  0  0  0  0  0  0  0  0  0
    7.1020   -0.7240   21.0340 N   0  0  0  0  0  0  0  0  0  0  0  0
    6.3990   -0.0100   20.0600 C   0  0  0  0  0  0  0  0  0  0  0  0
    5.2200    0.7040   20.2470 C   0  0  0  0  0  0  0  0  0  0  0  0
    4.5680    1.4360   19.1340 C   0  0  0  0  0  0  0  0  0  0  0  0
    5.2020    1.3650   17.9060 C   0  0  0  0  0  0  0  0  0  0  0  0
    6.3470    0.6670   17.7240 N   0  0  0  0  0  0  0  0  0  0  0  0
    6.9040    0.0100   18.7700 C   0  0  0  0  0  0  0  0  0  0  0  0
  1  2  2  0
  2  3  1  0
  3  4  1  0
  4  5  1  0
  5  6  2  0
  6  7  1  0
  7  8  2  0
  8  9  1  0
  5 10  1  0
  9 10  2  0
 10 11  1  0
  9 12  1  0
 12 13  1  0
 13 14  1  0
  8 15  1  0
 14 15  1  0
  2 16  1  0
 16 17  1  0
 17 18  2  0
 18 19  1  0
 19 20  2  0
 20 21  1  0
 17 22  1  0
 21 22  2  0
M  END
