pyridine_urea_1731
     RDKit          3D

 18 19  0  0  0  0  0  0  0  0999 V2000
    9.4700    1.4180   23.0910 C   0  0  0  0  0  0  0  0  0  0  0  0
    9.8620    0.0860   22.5450 C   0  0  2  0  0  0  0  0  0  0  0  0
    8.7810   -0.8490   22.6750 N   0  0  0  0  0  0  0  0  0  0  0  0
    8.1090   -0.8380   21.4870 C   0  0  0  0  0  0  0  0  0  0  0  0
    8.6980   -1.0930   20.5120 O   0  0  0  0  0  0  0  0  0  0  0  0
    6.7930   -0.4820   21.4560 N   0  0  0  0  0  0  0  0  0  0  0  0
    6.2650    0.1040   20.2780 C   0  0  0  0  0  0  0  0  0  0  0  0
    5.0950    0.8370   20.3600 C   0  0  0  0  0  0  0  0  0  0  0  0
    4.5630    1.4320   19.2130 C   0  0  0  0  0  0  0  0  0  0  0  0
    5.2230    1.2750   18.0040 C   0  0  0  0  0  0  0  0  0  0  0  0
    6.3550    0.5690   17.8810 N   0  0  0  0  0  0  0  0  0  0  0  0
    6.8500   -0.0010   19.0110 C   0  0  0  0  0  0  0  0  0  0  0  0
   11.2700   -0.3700   22.8790 C   0  0  0  0  0  0  0  0  0  0  0  0
   11.7600   -1.4700   23.1400 C   0  0  0  0  0  0  0  0  0  0  0  0
   12.5280   -0.2910   23.0900 C   0  0  0  0  0  0  0  0  0  0  0  0
   12.1490    1.1600   22.7970 C   0  0  0  0  0  0  0  0  0  0  0  0
   13.3570    1.3120   22.9760 C   0  0  0  0  0  0  0  0  0  0  0  0
   12.1430    0.6500   22.8720 N   0  0  0  0  0  0  0  0  0  0  0  0
  2  1  1  1
  2  3  1  0
  3  4  1  0
  4  5  2  0
  4  6  1  0
  6  7  1  0
  7  8  2  0
  8  9  1  0
  9 10  2  0
 10 11  1  0
  7 12  1  0
 11 12  2  0
  2 13  1  0
 13 14  2  0
 14 15  1  0
 15 16  2  0
 16 17  1  0
 13 18  1  0
 17 18  2  0
M  END
