pyridine_urea_2327
     RDKit          3D

 25 27  0  0  0  0  0  0  0  0999 V2000
   12.9440   -0.8910   22.3680 C   0  0  0  0  0  0  0  0  0  0  0  0
   13.1200    0.1930   23.4180 C   0  0  0  0  0  0  0  0  0  0  0  0
   11.9360    0.7150   23.8970 C   0  0  0  0  0  0  0  0  0  0  0  0
   10.8910    0.2980   23.1600 C   0  0  0  0  0  0  0  0  0  0  0  0
    9.7940    0.1510   22.3520 C   0  0  0  0  0  0  0  0  0  0  0  0
    9.1470   -1.0720   22.0230 N   0  0  0  0  0  0  0  0  0  0  0  0
    7.8460   -0.7350   21.8390 C   0  0  0  0  0  0  0  0  0  0  0  0
    7.4300    0.1020   22.6100 O   0  0  0  0  0  0  0  0  0  0  0  0
    7.0860   -1.2860   20.7360 N   0  0  0  0  0  0  0  0  0  0  0  0
    6.4070   -0.4100   19.9080 C   0  0  0  0  0  0  0  0  0  0  0  0
    5.0980    0.3180   20.2260 C   0  0  0  0  0  0  0  0  0  0  0  0
    4.5580    1.1740   19.2570 C   0  0  0  0  0  0  0  0  0  0  0  0
    5.2450    1.3140   18.0600 C   0  0  0  0  0  0  0  0  0  0  0  0
    6.3980    0.6900   17.7440 N   0  0  0  0  0  0  0  0  0  0  0  0
    6.9400   -0.1460   18.6670 C   0  0  0  0  0  0  0  0  0  0  0  0
    9.0930    1.2120   21.7080 C   0  0  0  0  0  0  0  0  0  0  0  0
    9.6730    2.2670   22.0520 N   0  0  0  0  0  0  0  0  0  0  0  0
   10.6760    1.7830   22.8620 N   0  0  0  0  0  0  0  0  0  0  0  0
   11.2390    3.0370   23.1900 C   0  0  0  0  0  0  0  0  0  0  0  0
   12.4980    3.4600   22.7620 C   0  0  0  0  0  0  0  0  0  0  0  0
   12.9060    4.7570   23.1180 C   0  0  0  0  0  0  0  0  0  0  0  0
   12.0490    5.5660   23.8770 C   0  0  0  0  0  0  0  0  0  0  0  0
   12.4730    6.8230   24.1860 F   0  0  0  0  0  0  0  0  0  0  0  0
   10.8150    5.1190   24.2980 C   0  0  0  0  0  0  0  0  0  0  0  0
   10.3930    3.8430   23.9590 C   0  0  0  0  0  0  0  0  0  0  0  0
  1  2  1  0
  2  3  1  0
  3  4  1  0
  4  5  2  0
  5  6  1  0
  6  7  1  0
  7  8  2  0
  7  9  1  0
  9 10  1  0
 10 11  2  0
 11 12  1  0
 12 13  2  0
 13 14  1  0
 10 15  1  0
 14 15  2  0
  5 16  1  0
 16 17  2  0
  4 18  1  0
 17 18  1  0
 18 19  1  0
 19 20  2  0
 20 21  1  0
 21 22  2  0
 22 23  1  0
 22 24  1  0
 19 25  1  0
 24 25  2  0
M  END
