pyridine_urea_10482
     RDKit          3D

 22 23  0  0  0  0  0  0  0  0999 V2000
   12.6370    5.6210   22.2610 C   0  0  0  0  0  0  0  0  0  0  0  0
   12.7390    4.3260   22.7290 N   0  0  0  0  0  0  0  0  0  0  0  0
   11.7040    3.5020   23.2280 C   0  0  0  0  0  0  0  0  0  0  0  0
   10.5710    3.9470   23.9900 O   0  0  0  0  0  0  0  0  0  0  0  0
   11.6750    1.9740   23.0020 C   0  0  0  0  0  0  0  0  0  0  0  0
   12.9030    1.1060   22.9500 C   0  0  0  0  0  0  0  0  0  0  0  0
   12.8230   -0.3460   22.7030 C   0  0  0  0  0  0  0  0  0  0  0  0
   11.6620   -1.0520   22.4860 C   0  0  0  0  0  0  0  0  0  0  0  0
   11.7820   -2.2200   22.2750 O   0  0  0  0  0  0  0  0  0  0  0  0
   12.8470   -2.3850   21.3450 C   0  0  0  0  0  0  0  0  0  0  0  0
   10.3250   -0.2880   22.5160 C   0  0  0  0  0  0  0  0  0  0  0  0
    9.0830   -0.8010   22.3000 N   0  0  0  0  0  0  0  0  0  0  0  0
    8.2280   -0.0780   21.4450 C   0  0  0  0  0  0  0  0  0  0  0  0
    8.4830    1.2450   20.9410 O   0  0  0  0  0  0  0  0  0  0  0  0
    7.0920   -0.7010   21.0780 N   0  0  0  0  0  0  0  0  0  0  0  0
    6.4610   -0.0600   20.0620 C   0  0  0  0  0  0  0  0  0  0  0  0
    5.2650    0.6470   20.3440 C   0  0  0  0  0  0  0  0  0  0  0  0
    4.5290    1.3700   19.3510 C   0  0  0  0  0  0  0  0  0  0  0  0
    5.2330    1.2470   18.0050 C   0  0  0  0  0  0  0  0  0  0  0  0
    6.3550    0.5760   17.7510 N   0  0  0  0  0  0  0  0  0  0  0  0
    6.9400   -0.0600   18.7690 C   0  0  0  0  0  0  0  0  0  0  0  0
   10.3420    1.2180   22.7830 C   0  0  0  0  0  0  0  0  0  0  0  0
  1  2  1  0
  2  3  1  0
  3  4  2  0
  3  5  1  0
  5  6  2  0
  6  7  1  0
  7  8  2  0
  8  9  1  0
  9 10  1  0
  8 11  1  0
 11 12  1  0
 12 13  1  0
 13 14  2  0
 13 15  1  0
 15 16  1  0
 16 17  2  0
 17 18  1  0
 18 19  2  0
 19 20  1  0
 16 21  1  0
 20 21  2  0
  5 22  1  0
 11 22  2  0
M  END
