pyridine_urea_4305
     RDKit          3D

 24 26  0  0  0  0  0  0  0  0999 V2000
   13.5180   -2.0070   20.8510 C   0  0  0  0  0  0  0  0  0  0  0  0
   13.2840   -3.4920   21.1400 C   0  0  0  0  0  0  0  0  0  0  0  0
   14.2060   -4.4950   20.5160 C   0  0  0  0  0  0  0  0  0  0  0  0
   11.9580   -3.4630   20.7210 O   0  0  0  0  0  0  0  0  0  0  0  0
   11.7480   -2.3090   21.4710 C   0  0  0  0  0  0  0  0  0  0  0  0
   13.0700   -1.6280   21.5880 C   0  0  0  0  0  0  0  0  0  0  0  0
   13.2700   -0.3820   22.3440 C   0  0  0  0  0  0  0  0  0  0  0  0
   11.9830    0.0380   22.9280 C   0  0  0  0  0  0  0  0  0  0  0  0
   10.7700   -0.6650   22.7590 C   0  0  0  0  0  0  0  0  0  0  0  0
   10.6210   -1.8330   22.0380 C   0  0  0  0  0  0  0  0  0  0  0  0
    9.6910    0.0150   23.4540 C   0  0  2  0  0  0  0  0  0  0  0  0
    8.4950   -0.4920   22.8640 N   0  0  0  0  0  0  0  0  0  0  0  0
    8.1090    0.0910   21.5660 C   0  0  0  0  0  0  0  0  0  0  0  0
    8.6520    1.0990   21.0760 O   0  0  0  0  0  0  0  0  0  0  0  0
    7.0220   -0.6610   21.0070 N   0  0  0  0  0  0  0  0  0  0  0  0
    6.3640    0.0330   19.9500 C   0  0  0  0  0  0  0  0  0  0  0  0
    5.0840    0.7490   20.2230 C   0  0  0  0  0  0  0  0  0  0  0  0
    4.5180    1.4200   19.1580 C   0  0  0  0  0  0  0  0  0  0  0  0
    5.1670    1.4120   17.8280 C   0  0  0  0  0  0  0  0  0  0  0  0
    6.3150    0.7430   17.6320 N   0  0  0  0  0  0  0  0  0  0  0  0
    6.8730    0.0840   18.6710 C   0  0  0  0  0  0  0  0  0  0  0  0
    9.8120    1.3550   23.1860 C   0  0  0  0  0  0  0  0  0  0  0  0
   10.7830    1.8240   24.0130 C   0  0  0  0  0  0  0  0  0  0  0  0
   12.0280    1.3060   23.7530 C   0  0  0  0  0  0  0  0  0  0  0  0
  1  2  1  0
  2  3  1  0
  2  4  1  0
  4  5  1  0
  5  6  2  0
  6  7  1  0
  7  8  2  0
  8  9  1  0
  5 10  1  0
  9 10  2  0
  9 11  1  0
 11 12  1  6
 12 13  1  0
 13 14  2  0
 13 15  1  0
 15 16  1  0
 16 17  2  0
 17 18  1  0
 18 19  2  0
 19 20  1  0
 16 21  1  0
 20 21  2  0
 11 22  1  0
 22 23  1  0
  8 24  1  0
 23 24  1  0
M  END
