pyridine_urea_14044
     RDKit          3D

 23 25  0  0  0  0  0  0  0  0999 V2000
    8.5160    0.4030   21.0590 O   0  0  0  0  0  0  0  0  0  0  0  0
    8.0280   -0.5490   21.6600 C   0  0  0  0  0  0  0  0  0  0  0  0
    6.8710   -1.1020   21.1840 N   0  0  0  0  0  0  0  0  0  0  0  0
    6.3280   -0.3180   20.0790 C   0  0  0  0  0  0  0  0  0  0  0  0
    5.0410    0.4520   20.3590 C   0  0  0  0  0  0  0  0  0  0  0  0
    4.5220    1.2530   19.2100 C   0  0  0  0  0  0  0  0  0  0  0  0
    5.2220    1.2420   18.0170 C   0  0  0  0  0  0  0  0  0  0  0  0
    6.3580    0.5440   17.8130 N   0  0  0  0  0  0  0  0  0  0  0  0
    6.8790   -0.2070   18.8160 C   0  0  0  0  0  0  0  0  0  0  0  0
    8.6250   -1.0220   22.8270 N   0  0  0  0  0  0  0  0  0  0  0  0
    9.6350    0.0110   22.9700 C   0  0  0  0  0  0  0  0  0  0  0  0
    9.0690    1.2060   23.1640 C   0  0  0  0  0  0  0  0  0  0  0  0
   10.1470    2.2390   23.1650 C   0  0  0  0  0  0  0  0  0  0  0  0
   11.4750    2.0610   23.0130 C   0  0  0  0  0  0  0  0  0  0  0  0
   12.4740    3.6740   22.9490 Br  0  0  0  0  0  0  0  0  0  0  0  0
   11.9420    0.7800   22.8870 C   0  0  0  0  0  0  0  0  0  0  0  0
   13.2110    0.5460   22.7650 C   0  0  0  0  0  0  0  0  0  0  0  0
   13.8360    1.7910   22.7280 O   0  0  0  0  0  0  0  0  0  0  0  0
   13.6620   -0.6880   22.6710 N   0  0  0  0  0  0  0  0  0  0  0  0
   13.2300   -1.5150   21.6710 C   0  0  0  0  0  0  0  0  0  0  0  0
   13.2390   -2.8160   21.7660 C   0  0  0  0  0  0  0  0  0  0  0  0
   11.8040   -2.2780   21.8220 C   0  0  0  0  0  0  0  0  0  0  0  0
   11.1250   -0.3180   22.8450 C   0  0  0  0  0  0  0  0  0  0  0  0
  1  2  2  0
  2  3  1  0
  3  4  1  0
  4  5  2  0
  5  6  1  0
  6  7  2  0
  7  8  1  0
  4  9  1  0
  8  9  2  0
  2 10  1  0
 10 11  1  0
 11 12  2  0
 12 13  1  0
 13 14  2  0
 14 15  1  0
 14 16  1  0
 16 17  1  0
 17 18  2  0
 17 19  1  0
 19 20  1  0
 20 21  1  0
 20 22  1  0
 21 22  1  0
 11 23  1  0
 16 23  2  0
M  END
