pyridine_urea_7120
     RDKit          3D

 20 22  0  0  0  0  0  0  0  0999 V2000
    8.9320    1.3580   21.1450 O   0  0  0  0  0  0  0  0  0  0  0  0
    8.2140    0.4990   21.6620 C   0  0  0  0  0  0  0  0  0  0  0  0
    8.1730    0.2190   23.0040 N   0  0  0  0  0  0  0  0  0  0  0  0
    7.8320   -0.9880   23.6100 C   0  0  0  0  0  0  0  0  0  0  0  0
    8.8320   -1.9070   23.7130 C   0  0  0  0  0  0  0  0  0  0  0  0
    8.7730   -3.2950   23.7240 N   0  0  0  0  0  0  0  0  0  0  0  0
   10.0940   -3.6150   23.8400 N   0  0  0  0  0  0  0  0  0  0  0  0
   10.9730   -2.5610   23.9010 C   0  0  0  0  0  0  0  0  0  0  0  0
   12.3530   -2.4860   24.0130 C   0  0  0  0  0  0  0  0  0  0  0  0
   12.9550   -1.2390   24.0380 C   0  0  0  0  0  0  0  0  0  0  0  0
   12.0460   -0.0160   23.9520 C   0  0  0  0  0  0  0  0  0  0  0  0
   10.6870   -0.1410   23.8500 C   0  0  0  0  0  0  0  0  0  0  0  0
   10.1570   -1.3840   23.8210 N   0  0  0  0  0  0  0  0  0  0  0  0
    7.3100   -0.3020   20.9930 N   0  0  0  0  0  0  0  0  0  0  0  0
    6.4850    0.2730   20.0120 C   0  0  0  0  0  0  0  0  0  0  0  0
    5.3060    0.9660   20.2820 C   0  0  0  0  0  0  0  0  0  0  0  0
    4.5890    1.5220   19.2340 C   0  0  0  0  0  0  0  0  0  0  0  0
    5.1050    1.3590   17.8650 C   0  0  0  0  0  0  0  0  0  0  0  0
    6.2480    0.6670   17.6100 N   0  0  0  0  0  0  0  0  0  0  0  0
    6.9090    0.1380   18.7080 C   0  0  0  0  0  0  0  0  0  0  0  0
  1  2  2  0
  2  3  1  0
  3  4  1  0
  4  5  1  0
  5  6  2  0
  6  7  1  0
  7  8  2  0
  8  9  1  0
  9 10  2  0
 10 11  1  0
 11 12  2  0
  5 13  1  0
  8 13  1  0
 12 13  1  0
  2 14  1  0
 14 15  1  0
 15 16  2  0
 16 17  1  0
 17 18  2  0
 18 19  1  0
 15 20  1  0
 19 20  2  0
M  END
