pyridine_urea_8219
     RDKit          3D

 23 24  0  0  0  0  0  0  0  0999 V2000
    9.7160   -5.0440   25.8420 C   0  0  0  0  0  0  0  0  0  0  0  0
    8.7370   -5.7070   26.8100 C   0  0  0  0  0  0  0  0  0  0  0  0
    8.8580   -4.9620   28.1660 C   0  0  0  0  0  0  0  0  0  0  0  0
    7.3750   -5.4620   26.3940 O   0  0  0  0  0  0  0  0  0  0  0  0
    7.0510   -5.1270   25.1040 C   0  0  0  0  0  0  0  0  0  0  0  0
    7.7150   -5.7630   23.9570 C   0  0  0  0  0  0  0  0  0  0  0  0
    7.3050   -5.3500   22.7530 C   0  0  0  0  0  0  0  0  0  0  0  0
    6.2290   -4.2840   22.4930 C   0  0  0  0  0  0  0  0  0  0  0  0
    5.6020   -3.6420   21.7820 N   0  0  0  0  0  0  0  0  0  0  0  0
    6.3770   -2.4010   21.7920 C   0  0  0  0  0  0  0  0  0  0  0  0
    7.7880   -2.4190   22.4230 C   0  0  0  0  0  0  0  0  0  0  0  0
    8.7180   -1.3920   22.1240 N   0  0  0  0  0  0  0  0  0  0  0  0
    8.3730   -0.1860   21.5710 C   0  0  0  0  0  0  0  0  0  0  0  0
    9.1770    0.8990   21.3870 O   0  0  0  0  0  0  0  0  0  0  0  0
    7.0430   -0.2510   21.2210 N   0  0  0  0  0  0  0  0  0  0  0  0
    6.4550    0.2700   20.0700 C   0  0  0  0  0  0  0  0  0  0  0  0
    5.1970    1.0950   20.2140 C   0  0  0  0  0  0  0  0  0  0  0  0
    4.5940    1.6390   19.0990 C   0  0  0  0  0  0  0  0  0  0  0  0
    5.1890    1.3970   17.8670 C   0  0  0  0  0  0  0  0  0  0  0  0
    6.3060    0.6590   17.7010 N   0  0  0  0  0  0  0  0  0  0  0  0
    6.9110    0.1130   18.7830 C   0  0  0  0  0  0  0  0  0  0  0  0
    5.5040   -3.5920   23.7460 C   0  0  0  0  0  0  0  0  0  0  0  0
    6.0840   -4.1780   24.9280 C   0  0  0  0  0  0  0  0  0  0  0  0
  1  2  1  0
  2  3  1  0
  2  4  1  0
  4  5  1  0
  5  6  2  0
  6  7  1  0
  7  8  2  0
  8  9  1  0
  9 10  1  0
 10 11  1  0
 11 12  1  0
 12 13  1  0
 13 14  2  0
 13 15  1  0
 15 16  1  0
 16 17  2  0
 17 18  1  0
 18 19  2  0
 19 20  1  0
 16 21  1  0
 20 21  2  0
  8 22  1  0
  5 23  1  0
 22 23  2  0
M  END
