pyridine_urea_2306
     RDKit          3D

 25 27  0  0  0  0  0  0  0  0999 V2000
    8.6480    0.7590   21.3390 O   0  0  0  0  0  0  0  0  0  0  0  0
    8.2520   -0.3840   21.4970 C   0  0  0  0  0  0  0  0  0  0  0  0
    7.0520   -0.8410   21.0270 N   0  0  0  0  0  0  0  0  0  0  0  0
    6.4110   -0.1330   20.0020 C   0  0  0  0  0  0  0  0  0  0  0  0
    5.2120    0.5410   20.2610 C   0  0  0  0  0  0  0  0  0  0  0  0
    4.5830    1.2580   19.2420 C   0  0  0  0  0  0  0  0  0  0  0  0
    5.1820    1.2760   17.9970 C   0  0  0  0  0  0  0  0  0  0  0  0
    6.3290    0.6310   17.7310 N   0  0  0  0  0  0  0  0  0  0  0  0
    6.9110   -0.0540   18.7270 C   0  0  0  0  0  0  0  0  0  0  0  0
    9.0140   -1.3100   22.1670 N   0  0  0  0  0  0  0  0  0  0  0  0
   10.3290   -0.7450   22.4630 C   0  0  0  0  0  0  0  0  0  0  0  0
   11.5550   -1.6220   22.3080 C   0  0  0  0  0  0  0  0  0  0  0  0
   12.7990   -1.0330   22.5800 C   0  0  0  0  0  0  0  0  0  0  0  0
   12.8590    0.3110   22.9650 C   0  0  0  0  0  0  0  0  0  0  0  0
   11.7010    1.0820   23.0910 C   0  0  0  0  0  0  0  0  0  0  0  0
   11.7850    2.3820   23.4440 C   0  0  0  0  0  0  0  0  0  0  0  0
   11.1540    3.2350   22.5560 C   0  0  0  0  0  0  0  0  0  0  0  0
   12.0470    4.1790   22.0830 C   0  0  0  0  0  0  0  0  0  0  0  0
   11.9640    5.2870   22.9170 C   0  0  0  0  0  0  0  0  0  0  0  0
   11.0860    5.2780   23.9980 C   0  0  0  0  0  0  0  0  0  0  0  0
   10.9980    6.3740   24.8450 C   0  0  0  0  0  0  0  0  0  0  0  0
   11.7910    7.4830   24.6050 C   0  0  0  0  0  0  0  0  0  0  0  0
   12.6700    7.4960   23.5160 C   0  0  0  0  0  0  0  0  0  0  0  0
   12.7560    6.4010   22.6770 C   0  0  0  0  0  0  0  0  0  0  0  0
   10.4490    0.5610   22.8520 C   0  0  0  0  0  0  0  0  0  0  0  0
  1  2  2  0
  2  3  1  0
  3  4  1  0
  4  5  2  0
  5  6  1  0
  6  7  2  0
  7  8  1  0
  4  9  1  0
  8  9  2  0
  2 10  1  0
 10 11  1  0
 11 12  2  0
 12 13  1  0
 13 14  2  0
 14 15  1  0
 15 16  1  0
 16 17  1  0
 17 18  1  0
 18 19  1  0
 19 20  2  0
 20 21  1  0
 21 22  2  0
 22 23  1  0
 19 24  1  0
 23 24  2  0
 11 25  1  0
 15 25  2  0
M  END
