pyridine_urea_7966
     RDKit          3D

 25 27  0  0  0  0  0  0  0  0999 V2000
    8.3490    3.0630   24.1390 N   0  0  0  0  0  0  0  0  0  0  0  0
    9.3830    3.2550   23.2620 C   0  0  0  0  0  0  0  0  0  0  0  0
   10.2980    2.0470   23.0320 C   0  0  0  0  0  0  0  0  0  0  0  0
    9.5830    0.9160   22.8060 C   0  0  0  0  0  0  0  0  0  0  0  0
   10.2350   -0.2390   22.5670 C   0  0  0  0  0  0  0  0  0  0  0  0
    9.2920   -1.3200   22.2880 N   0  0  0  0  0  0  0  0  0  0  0  0
    8.3660   -0.6050   21.4380 C   0  0  0  0  0  0  0  0  0  0  0  0
    8.6600    0.5210   21.0740 O   0  0  0  0  0  0  0  0  0  0  0  0
    7.1770   -1.1260   21.0440 N   0  0  0  0  0  0  0  0  0  0  0  0
    6.4940   -0.3530   20.1380 C   0  0  0  0  0  0  0  0  0  0  0  0
    5.3020    0.3330   20.4840 C   0  0  0  0  0  0  0  0  0  0  0  0
    4.6650    1.1620   19.3560 C   0  0  0  0  0  0  0  0  0  0  0  0
    5.2710    1.1930   18.1090 C   0  0  0  0  0  0  0  0  0  0  0  0
    6.3930    0.5290   17.8340 N   0  0  0  0  0  0  0  0  0  0  0  0
    6.9590   -0.2090   18.8260 C   0  0  0  0  0  0  0  0  0  0  0  0
   11.7420   -0.3280   22.5750 C   0  0  0  0  0  0  0  0  0  0  0  0
   12.4500    0.8750   22.8230 C   0  0  0  0  0  0  0  0  0  0  0  0
   11.6910    2.0860   23.0430 C   0  0  0  0  0  0  0  0  0  0  0  0
   12.1320    3.3570   23.2810 N   0  0  0  0  0  0  0  0  0  0  0  0
   11.2170    4.2570   23.8080 C   0  0  0  0  0  0  0  0  0  0  0  0
   11.0390    5.4860   23.1650 C   0  0  0  0  0  0  0  0  0  0  0  0
   12.2480    6.0020   22.7360 C   0  0  0  0  0  0  0  0  0  0  0  0
   12.4450    7.0350   23.3650 O   0  0  0  0  0  0  0  0  0  0  0  0
   13.2900    5.1530   22.9970 C   0  0  0  0  0  0  0  0  0  0  0  0
   13.0420    3.9070   22.4500 C   0  0  0  0  0  0  0  0  0  0  0  0
  1  2  3  0
  2  3  1  0
  3  4  2  0
  4  5  1  0
  5  6  1  0
  6  7  1  0
  7  8  2  0
  7  9  1  0
  9 10  1  0
 10 11  2  0
 11 12  1  0
 12 13  2  0
 13 14  1  0
 10 15  1  0
 14 15  2  0
  5 16  2  0
 16 17  1  0
  3 18  1  0
 17 18  2  0
 18 19  1  0
 19 20  1  0
 20 21  1  0
 21 22  1  0
 22 23  1  0
 22 24  1  0
 19 25  1  0
 24 25  1  0
M  END
