pyridine_urea_2712
     RDKit          3D

 23 24  0  0  0  0  0  0  0  0999 V2000
    8.0380    1.2480   26.0520 C   0  0  0  0  0  0  0  0  0  0  0  0
    8.7380    0.4960   25.0720 O   0  0  0  0  0  0  0  0  0  0  0  0
    9.1130    1.2850   23.9260 C   0  0  0  0  0  0  0  0  0  0  0  0
    8.4720    2.1900   23.4090 O   0  0  0  0  0  0  0  0  0  0  0  0
   10.4990    0.7660   23.4020 C   0  0  0  0  0  0  0  0  0  0  0  0
   10.4460   -0.4940   22.9530 C   0  0  0  0  0  0  0  0  0  0  0  0
   11.4630   -1.4610   22.3540 C   0  0  0  0  0  0  0  0  0  0  0  0
   10.1620   -1.9680   22.4540 C   0  0  0  0  0  0  0  0  0  0  0  0
    9.2930   -1.6690   21.2890 N   0  0  0  0  0  0  0  0  0  0  0  0
    8.4320   -0.4770   21.3230 C   0  0  0  0  0  0  0  0  0  0  0  0
    8.8640    0.6590   21.4550 O   0  0  0  0  0  0  0  0  0  0  0  0
    7.0560   -0.8450   21.1580 N   0  0  0  0  0  0  0  0  0  0  0  0
    6.4580   -0.1320   20.1190 C   0  0  0  0  0  0  0  0  0  0  0  0
    5.1830    0.6430   20.4330 C   0  0  0  0  0  0  0  0  0  0  0  0
    4.5760    1.4060   19.2720 C   0  0  0  0  0  0  0  0  0  0  0  0
    5.2700    1.3390   17.9330 C   0  0  0  0  0  0  0  0  0  0  0  0
    6.3960    0.6190   17.7680 N   0  0  0  0  0  0  0  0  0  0  0  0
    6.9420   -0.0730   18.8140 C   0  0  0  0  0  0  0  0  0  0  0  0
   12.6180   -0.6070   22.4150 C   0  0  0  0  0  0  0  0  0  0  0  0
   12.7490    0.7100   22.8630 C   0  0  0  0  0  0  0  0  0  0  0  0
   11.6980    1.4200   23.3460 C   0  0  0  0  0  0  0  0  0  0  0  0
   11.8140    2.6920   23.7410 O   0  0  0  0  0  0  0  0  0  0  0  0
   12.3320    3.6340   22.8040 C   0  0  0  0  0  0  0  0  0  0  0  0
  1  2  1  0
  2  3  1  0
  3  4  2  0
  3  5  1  0
  5  6  2  0
  6  7  1  0
  7  8  1  0
  8  9  1  0
  9 10  1  0
 10 11  2  0
 10 12  1  0
 12 13  1  0
 13 14  2  0
 14 15  1  0
 15 16  2  0
 16 17  1  0
 13 18  1  0
 17 18  2  0
  7 19  2  0
 19 20  1  0
  5 21  1  0
 20 21  2  0
 21 22  1  0
 22 23  1  0
M  END
