pyridine_urea_9877
     RDKit          3D

 25 27  0  0  0  0  0  0  0  0999 V2000
    8.7380    0.9110   21.2820 O   0  0  0  0  0  0  0  0  0  0  0  0
    8.4660   -0.2830   21.2780 C   0  0  0  0  0  0  0  0  0  0  0  0
    7.1990   -0.7670   21.0510 N   0  0  0  0  0  0  0  0  0  0  0  0
    6.4920   -0.0550   20.0260 C   0  0  0  0  0  0  0  0  0  0  0  0
    5.2110    0.6830   20.4040 C   0  0  0  0  0  0  0  0  0  0  0  0
    4.4900    1.4520   19.2980 C   0  0  0  0  0  0  0  0  0  0  0  0
    5.1490    1.3910   17.9190 C   0  0  0  0  0  0  0  0  0  0  0  0
    6.3260    0.6580   17.7380 N   0  0  0  0  0  0  0  0  0  0  0  0
    6.9540   -0.0260   18.7350 C   0  0  0  0  0  0  0  0  0  0  0  0
    9.4060   -1.2620   21.4750 N   0  0  0  0  0  0  0  0  0  0  0  0
   10.4100   -1.0080   22.4120 C   0  0  0  0  0  0  0  0  0  0  0  0
   11.8040   -1.0050   22.3570 C   0  0  0  0  0  0  0  0  0  0  0  0
   12.6710   -0.7140   23.3980 C   0  0  0  0  0  0  0  0  0  0  0  0
   12.1370   -0.4010   24.6410 C   0  0  0  0  0  0  0  0  0  0  0  0
   10.7380   -0.3830   24.8190 C   0  0  0  0  0  0  0  0  0  0  0  0
   10.3060   -0.1180   25.9370 O   0  0  0  0  0  0  0  0  0  0  0  0
    9.0620    0.5170   25.9350 C   0  0  0  0  0  0  0  0  0  0  0  0
    7.9600   -0.4100   26.2960 C   0  0  0  0  0  0  0  0  0  0  0  0
    7.8450   -0.4710   27.6860 C   0  0  0  0  0  0  0  0  0  0  0  0
    6.7570   -1.1230   28.4660 C   0  0  0  0  0  0  0  0  0  0  0  0
    6.7510   -1.1180   29.8410 C   0  0  0  0  0  0  0  0  0  0  0  0
    7.7530   -0.5100   30.5580 C   0  0  0  0  0  0  0  0  0  0  0  0
    8.8100    0.1190   29.8830 C   0  0  0  0  0  0  0  0  0  0  0  0
    8.8490    0.1350   28.4840 C   0  0  0  0  0  0  0  0  0  0  0  0
    9.8860   -0.6620   23.7720 C   0  0  0  0  0  0  0  0  0  0  0  0
  1  2  2  0
  2  3  1  0
  3  4  1  0
  4  5  2  0
  5  6  1  0
  6  7  2  0
  7  8  1  0
  4  9  1  0
  8  9  2  0
  2 10  1  0
 10 11  1  0
 11 12  2  0
 12 13  1  0
 13 14  2  0
 14 15  1  0
 15 16  1  0
 16 17  1  0
 17 18  1  0
 18 19  1  0
 19 20  2  0
 20 21  1  0
 21 22  2  0
 22 23  1  0
 19 24  1  0
 23 24  2  0
 11 25  1  0
 15 25  2  0
M  END
