pyridine_urea_10858
     RDKit          3D

 20 21  0  0  0  0  0  0  0  0999 V2000
   13.2180   -2.3010   21.3400 C   0  0  0  0  0  0  0  0  0  0  0  0
   11.4540   -2.4950   21.5170 S   0  0  0  0  0  0  0  0  0  0  0  0
   11.0880   -1.5720   22.9450 C   0  0  0  0  0  0  0  0  0  0  0  0
   10.4620   -0.4080   22.6240 C   0  0  2  0  0  0  0  0  0  0  0  0
   10.6590    0.7650   23.3040 C   0  0  0  0  0  0  0  0  0  0  0  0
   11.6550    1.0000   24.2480 C   0  0  0  0  0  0  0  0  0  0  0  0
   12.3410   -0.2220   24.7080 C   0  0  0  0  0  0  0  0  0  0  0  0
   12.9060   -0.9190   23.5250 C   0  0  0  0  0  0  0  0  0  0  0  0
   13.0240    0.0530   22.3490 C   0  0  0  0  0  0  0  0  0  0  0  0
   12.5850    1.7030   23.0460 S   0  0  0  0  0  0  0  0  0  0  0  0
    9.0010   -0.6050   22.5510 N   0  0  0  0  0  0  0  0  0  0  0  0
    8.3990    0.1460   21.5660 C   0  0  0  0  0  0  0  0  0  0  0  0
    8.8540    1.2410   21.2080 O   0  0  0  0  0  0  0  0  0  0  0  0
    7.2670   -0.4550   21.0710 N   0  0  0  0  0  0  0  0  0  0  0  0
    6.5350    0.1170   20.0290 C   0  0  0  0  0  0  0  0  0  0  0  0
    5.3710    0.8290   20.3310 C   0  0  0  0  0  0  0  0  0  0  0  0
    4.6610    1.4140   19.2940 C   0  0  0  0  0  0  0  0  0  0  0  0
    5.1290    1.2690   18.0100 C   0  0  0  0  0  0  0  0  0  0  0  0
    6.2290    0.5850   17.6950 N   0  0  0  0  0  0  0  0  0  0  0  0
    6.9110    0.0210   18.7080 C   0  0  0  0  0  0  0  0  0  0  0  0
  1  2  1  0
  2  3  1  0
  4  3  1  1
  4  5  1  0
  5  6  1  0
  6  7  2  0
  7  8  1  0
  8  9  2  0
  6 10  1  0
  9 10  1  0
  4 11  1  0
 11 12  1  0
 12 13  2  0
 12 14  1  0
 14 15  1  0
 15 16  2  0
 16 17  1  0
 17 18  2  0
 18 19  1  0
 15 20  1  0
 19 20  2  0
M  END
