pyridine_urea_610
     RDKit          3D

 24 26  0  0  0  0  0  0  0  0999 V2000
    8.6510    1.0960   21.0480 O   0  0  0  0  0  0  0  0  0  0  0  0
    8.1430    0.0100   21.3770 C   0  0  0  0  0  0  0  0  0  0  0  0
    7.0160   -0.5520   20.8450 N   0  0  0  0  0  0  0  0  0  0  0  0
    6.2880    0.1320   19.9060 C   0  0  0  0  0  0  0  0  0  0  0  0
    5.0790    0.7780   20.1120 C   0  0  0  0  0  0  0  0  0  0  0  0
    4.4880    1.4500   19.0450 C   0  0  0  0  0  0  0  0  0  0  0  0
    5.1400    1.4380   17.8300 C   0  0  0  0  0  0  0  0  0  0  0  0
    6.3070    0.8080   17.6180 N   0  0  0  0  0  0  0  0  0  0  0  0
    6.8380    0.1770   18.6580 C   0  0  0  0  0  0  0  0  0  0  0  0
    8.6320   -0.7980   22.3450 N   0  0  0  0  0  0  0  0  0  0  0  0
    9.5910   -0.3510   23.2100 C   0  0  2  0  0  0  0  0  0  0  0  0
   10.8450   -0.4660   22.7550 C   0  0  0  0  0  0  0  0  0  0  0  0
   11.1940   -1.6460   22.1270 C   0  0  0  0  0  0  0  0  0  0  0  0
   12.4650   -1.7410   21.7090 C   0  0  0  0  0  0  0  0  0  0  0  0
   13.1210   -3.0450   20.9120 Cl  0  0  0  0  0  0  0  0  0  0  0  0
   13.3340   -0.7660   21.9010 C   0  0  0  0  0  0  0  0  0  0  0  0
   13.0110    0.4990   22.5540 C   0  0  0  0  0  0  0  0  0  0  0  0
   11.7220    0.5990   22.9570 C   0  0  0  0  0  0  0  0  0  0  0  0
   11.2440    2.0740   23.7050 Cl  0  0  0  0  0  0  0  0  0  0  0  0
    9.8640   -0.9070   24.4330 C   0  0  2  0  0  0  0  0  0  0  0  0
   10.8850   -0.2800   25.1050 C   0  0  0  0  0  0  0  0  0  0  0  0
   12.1260   -0.8690   24.8330 C   0  0  0  0  0  0  0  0  0  0  0  0
   11.8680   -2.0770   24.9000 O   0  0  0  0  0  0  0  0  0  0  0  0
   10.5330   -2.2780   24.3950 C   0  0  0  0  0  0  0  0  0  0  0  0
  1  2  2  0
  2  3  1  0
  3  4  1  0
  4  5  2  0
  5  6  1  0
  6  7  2  0
  7  8  1  0
  4  9  1  0
  8  9  2  0
  2 10  1  0
 11 10  1  6
 11 12  1  0
 12 13  2  0
 13 14  1  0
 14 15  1  0
 14 16  2  0
 16 17  1  0
 12 18  1  0
 17 18  2  0
 18 19  1  0
 11 20  1  0
 20 21  1  6
 21 22  1  0
 22 23  1  0
 20 24  1  0
 23 24  1  0
M  END
