pyridine_urea_10627
     RDKit          3D

 21 22  0  0  0  0  0  0  0  0999 V2000
   14.0460   -2.6310   25.7890 C   0  0  0  0  0  0  0  0  0  0  0  0
   13.3650   -2.3830   24.6370 N   0  0  0  0  0  0  0  0  0  0  0  0
   13.7320   -2.8080   23.3820 C   0  0  0  0  0  0  0  0  0  0  0  0
   12.4470   -1.4200   24.4530 C   0  0  0  0  0  0  0  0  0  0  0  0
   11.3690   -1.3180   24.9810 O   0  0  0  0  0  0  0  0  0  0  0  0
   12.8390   -0.4500   23.3440 C   0  0  2  0  0  0  0  0  0  0  0  0
   12.0050    0.7210   23.0270 C   0  0  0  0  0  0  0  0  0  0  0  0
   10.6600    0.4490   22.9020 C   0  0  0  0  0  0  0  0  0  0  0  0
   10.4180   -0.9070   22.6560 C   0  0  1  0  0  0  0  0  0  0  0  0
    9.2400   -1.1070   21.9790 N   0  0  0  0  0  0  0  0  0  0  0  0
    8.3980   -0.1440   21.4020 C   0  0  0  0  0  0  0  0  0  0  0  0
    8.6230    1.0260   21.1150 O   0  0  0  0  0  0  0  0  0  0  0  0
    7.1750   -0.6590   21.1540 N   0  0  0  0  0  0  0  0  0  0  0  0
    6.4720   -0.0030   20.1980 C   0  0  0  0  0  0  0  0  0  0  0  0
    5.2950    0.7340   20.3050 C   0  0  0  0  0  0  0  0  0  0  0  0
    4.6370    1.3940   19.2560 C   0  0  0  0  0  0  0  0  0  0  0  0
    5.1960    1.3210   17.9660 C   0  0  0  0  0  0  0  0  0  0  0  0
    6.3210    0.6410   17.7160 N   0  0  0  0  0  0  0  0  0  0  0  0
    6.9290    0.0150   18.7430 C   0  0  0  0  0  0  0  0  0  0  0  0
   11.4450   -1.6400   22.0100 C   0  0  0  0  0  0  0  0  0  0  0  0
   12.7640   -1.2060   22.2280 C   0  0  0  0  0  0  0  0  0  0  0  0
  1  2  1  0
  2  3  1  0
  2  4  1  0
  4  5  2  0
  6  4  1  1
  6  7  1  0
  7  8  1  0
  8  9  1  0
  9 10  1  6
 10 11  1  0
 11 12  2  0
 11 13  1  0
 13 14  1  0
 14 15  2  0
 15 16  1  0
 16 17  2  0
 17 18  1  0
 14 19  1  0
 18 19  2  0
  9 20  1  0
  6 21  1  0
 20 21  1  0
M  END
