pyridine_urea_7987
     RDKit          3D

 25 26  0  0  0  0  0  0  0  0999 V2000
   15.0160    1.7580   18.2060 C   0  0  0  0  0  0  0  0  0  0  0  0
   14.3980    0.3030   18.2440 C   0  0  0  0  0  0  0  0  0  0  0  0
   14.4720    0.0020   19.6870 N   0  0  0  0  0  0  0  0  0  0  0  0
   15.0830    1.2560   19.8380 C   0  0  0  0  0  0  0  0  0  0  0  0
   16.0870    1.7980   19.0290 C   0  0  0  0  0  0  0  0  0  0  0  0
   13.5710   -1.1230   20.9870 S   0  0  0  0  0  0  0  0  0  0  0  0
   14.1520   -1.5410   22.1810 O   0  0  0  0  0  0  0  0  0  0  0  0
   12.6700   -2.0380   20.3830 O   0  0  0  0  0  0  0  0  0  0  0  0
   12.5840   -0.4130   22.2130 C   0  0  0  0  0  0  0  0  0  0  0  0
   12.6250    0.5970   23.0770 C   0  0  0  0  0  0  0  0  0  0  0  0
   11.5810    0.8520   23.9100 C   0  0  0  0  0  0  0  0  0  0  0  0
   10.2230    0.1380   24.1030 C   0  0  0  0  0  0  0  0  0  0  0  0
    9.1180   -0.7200   24.0240 C   0  0  0  0  0  0  0  0  0  0  0  0
    8.1100   -0.2710   23.1840 N   0  0  0  0  0  0  0  0  0  0  0  0
    8.0800   -0.0560   21.7810 C   0  0  0  0  0  0  0  0  0  0  0  0
    8.8140    0.7210   21.2190 O   0  0  0  0  0  0  0  0  0  0  0  0
    7.1340   -0.7610   21.1130 N   0  0  0  0  0  0  0  0  0  0  0  0
    6.4790   -0.0710   20.1400 C   0  0  0  0  0  0  0  0  0  0  0  0
    5.3220    0.6810   20.2950 C   0  0  0  0  0  0  0  0  0  0  0  0
    4.6800    1.3820   19.2760 C   0  0  0  0  0  0  0  0  0  0  0  0
    5.2470    1.3220   18.0110 C   0  0  0  0  0  0  0  0  0  0  0  0
    6.3710    0.6110   17.7680 N   0  0  0  0  0  0  0  0  0  0  0  0
    6.9690   -0.0810   18.8430 C   0  0  0  0  0  0  0  0  0  0  0  0
   10.3730   -0.8980   23.1290 C   0  0  0  0  0  0  0  0  0  0  0  0
   11.4390   -1.1300   22.2880 C   0  0  0  0  0  0  0  0  0  0  0  0
  1  2  1  0
  2  3  1  0
  3  4  1  0
  4  5  1  0
  6  3  1  0
  6  7  2  0
  6  8  2  0
  6  9  1  0
  9 10  2  0
 10 11  1  0
 11 12  2  0
 12 13  1  0
 13 14  1  0
 14 15  1  0
 15 16  2  0
 15 17  1  0
 17 18  1  0
 18 19  2  0
 19 20  1  0
 20 21  2  0
 21 22  1  0
 18 23  1  0
 22 23  2  0
 12 24  1  0
  9 25  1  0
 24 25  2  0
M  END
