pyridine_urea_14312
     RDKit          3D

 19 21  0  0  0  0  0  0  0  0999 V2000
    8.9280    1.2500   21.1200 O   0  0  0  0  0  0  0  0  0  0  0  0
    8.3370    0.3100   21.6640 C   0  0  0  0  0  0  0  0  0  0  0  0
    7.3420   -0.5230   20.9970 N   0  0  0  0  0  0  0  0  0  0  0  0
    6.5810    0.0990   20.0240 C   0  0  0  0  0  0  0  0  0  0  0  0
    5.4310    0.8220   20.3590 C   0  0  0  0  0  0  0  0  0  0  0  0
    4.7150    1.4390   19.3310 C   0  0  0  0  0  0  0  0  0  0  0  0
    5.1670    1.3160   18.0170 C   0  0  0  0  0  0  0  0  0  0  0  0
    6.2660    0.6160   17.6900 N   0  0  0  0  0  0  0  0  0  0  0  0
    6.9460    0.0240   18.7010 C   0  0  0  0  0  0  0  0  0  0  0  0
    8.4800   -0.0780   22.9720 N   0  0  0  0  0  0  0  0  0  0  0  0
    9.2160   -1.2530   23.3860 C   0  0  1  0  0  0  0  0  0  0  0  0
    9.8750   -2.0230   22.3640 C   0  0  0  0  0  0  0  0  0  0  0  0
   10.9530   -2.0010   23.1860 C   0  0  1  0  0  0  0  0  0  0  0  0
   11.9800   -1.5290   22.6240 N   0  0  0  0  0  0  0  0  0  0  0  0
   12.5790   -0.4300   23.1040 C   0  0  0  0  0  0  0  0  0  0  0  0
   13.5880   -0.1570   22.3110 C   0  0  0  0  0  0  0  0  0  0  0  0
   13.5620   -1.1350   21.3600 C   0  0  0  0  0  0  0  0  0  0  0  0
   12.5960   -2.0180   21.5000 N   0  0  0  0  0  0  0  0  0  0  0  0
   10.3800   -1.0680   24.1490 C   0  0  0  0  0  0  0  0  0  0  0  0
  1  2  2  0
  2  3  1  0
  3  4  1  0
  4  5  2  0
  5  6  1  0
  6  7  2  0
  7  8  1  0
  4  9  1  0
  8  9  2  0
  2 10  1  0
 11 10  1  6
 11 12  1  0
 12 13  1  0
 13 14  1  6
 14 15  1  0
 15 16  2  0
 16 17  1  0
 14 18  1  0
 17 18  2  0
 11 19  1  0
 13 19  1  0
M  END
