pyridine_urea_4951
     RDKit          3D

 21 23  0  0  0  0  0  0  0  0999 V2000
    8.3920    1.6460   20.8070 O   0  0  0  0  0  0  0  0  0  0  0  0
    8.4860    0.5970   21.4110 C   0  0  0  0  0  0  0  0  0  0  0  0
    7.5580   -0.3850   21.1700 N   0  0  0  0  0  0  0  0  0  0  0  0
    6.7750    0.0410   20.0390 C   0  0  0  0  0  0  0  0  0  0  0  0
    5.5370    0.8910   20.3760 C   0  0  0  0  0  0  0  0  0  0  0  0
    4.7290    1.3880   19.3630 C   0  0  0  0  0  0  0  0  0  0  0  0
    5.0860    1.0860   18.0570 C   0  0  0  0  0  0  0  0  0  0  0  0
    6.1870    0.3180   17.7920 N   0  0  0  0  0  0  0  0  0  0  0  0
    7.0450   -0.2190   18.7540 C   0  0  0  0  0  0  0  0  0  0  0  0
    9.4950    0.3980   22.2970 N   0  0  0  0  0  0  0  0  0  0  0  0
   10.5710    0.4530   23.1190 C   0  0  1  0  0  0  0  0  0  0  0  0
   10.5820   -0.3260   24.1620 C   0  0  0  0  0  0  0  0  0  0  0  0
   10.9000   -1.3920   24.9330 C   0  0  0  0  0  0  0  0  0  0  0  0
   11.7050   -2.5220   24.6970 C   0  0  0  0  0  0  0  0  0  0  0  0
   12.3880   -2.8750   23.6610 N   0  0  0  0  0  0  0  0  0  0  0  0
   12.2070   -1.9270   22.7020 C   0  0  0  0  0  0  0  0  0  0  0  0
   13.0030   -2.1700   21.2100 Cl  0  0  0  0  0  0  0  0  0  0  0  0
   11.3380   -0.7430   23.0120 C   0  0  0  0  0  0  0  0  0  0  0  0
   11.8590    0.1960   22.6720 C   0  0  0  0  0  0  0  0  0  0  0  0
   12.7040    1.1060   23.0730 C   0  0  0  0  0  0  0  0  0  0  0  0
   12.8580   -0.0730   23.8510 C   0  0  0  0  0  0  0  0  0  0  0  0
  1  2  2  0
  2  3  1  0
  3  4  1  0
  4  5  2  0
  5  6  1  0
  6  7  2  0
  7  8  1  0
  4  9  1  0
  8  9  2  0
  2 10  1  0
 11 10  1  6
 11 12  1  0
 12 13  2  0
 13 14  1  0
 14 15  2  0
 15 16  1  0
 16 17  1  0
 12 18  1  0
 16 18  2  0
 11 19  1  0
 19 20  1  0
 19 21  1  0
 20 21  1  0
M  END
