pyridine_urea_8404
     RDKit          3D

 22 24  0  0  0  0  0  0  0  0999 V2000
    9.0940    1.6950   20.9130 O   0  0  0  0  0  0  0  0  0  0  0  0
    8.2940    1.0340   21.5030 C   0  0  0  0  0  0  0  0  0  0  0  0
    8.1250    1.2420   22.8000 N   0  0  0  0  0  0  0  0  0  0  0  0
    7.9550    0.1170   23.5880 C   0  0  0  0  0  0  0  0  0  0  0  0
    9.2020   -0.2040   24.3670 C   0  0  0  0  0  0  0  0  0  0  0  0
    9.4790   -0.7100   23.0540 C   0  0  0  0  0  0  0  0  0  0  0  0
   10.6390   -1.4430   22.3830 C   0  0  0  0  0  0  0  0  0  0  0  0
   11.7030   -1.7600   23.1070 C   0  0  0  0  0  0  0  0  0  0  0  0
   12.8670   -2.5390   22.6070 C   0  0  0  0  0  0  0  0  0  0  0  0
   13.9820   -2.9000   23.5150 C   0  0  0  0  0  0  0  0  0  0  0  0
   13.7980   -2.3570   24.8910 C   0  0  0  0  0  0  0  0  0  0  0  0
   12.7050   -1.6250   25.2420 N   0  0  0  0  0  0  0  0  0  0  0  0
   11.6830   -1.3530   24.3910 C   0  0  0  0  0  0  0  0  0  0  0  0
   10.5460   -0.6170   24.9930 C   0  0  0  0  0  0  0  0  0  0  0  0
   10.5530   -0.2750   26.1320 O   0  0  0  0  0  0  0  0  0  0  0  0
    7.4490    0.0700   21.0310 N   0  0  0  0  0  0  0  0  0  0  0  0
    6.7070    0.3920   19.9920 C   0  0  0  0  0  0  0  0  0  0  0  0
    5.5890    1.1830   20.1970 C   0  0  0  0  0  0  0  0  0  0  0  0
    4.7620    1.6130   19.1770 C   0  0  0  0  0  0  0  0  0  0  0  0
    5.0930    1.2190   17.8970 C   0  0  0  0  0  0  0  0  0  0  0  0
    6.1390    0.4460   17.5980 N   0  0  0  0  0  0  0  0  0  0  0  0
    6.9720    0.0190   18.7100 C   0  0  0  0  0  0  0  0  0  0  0  0
  1  2  2  0
  2  3  1  0
  3  4  1  0
  4  5  1  0
  5  6  2  0
  6  7  1  0
  7  8  2  0
  8  9  1  0
  9 10  2  0
 10 11  1  0
 11 12  2  0
  8 13  1  0
 12 13  1  0
  5 14  1  0
 13 14  2  0
 14 15  1  0
  2 16  1  0
 16 17  1  0
 17 18  2  0
 18 19  1  0
 19 20  2  0
 20 21  1  0
 17 22  1  0
 21 22  2  0
M  END
