pyridine_urea_6788
     RDKit          3D

 21 22  0  0  0  0  0  0  0  0999 V2000
   11.4690   -1.8710   22.1530 C   0  0  0  0  0  0  0  0  0  0  0  0
   10.4410   -1.0890   23.0140 C   0  0  2  0  0  0  0  0  0  0  0  0
    9.0890   -1.3040   22.4510 N   0  0  0  0  0  0  0  0  0  0  0  0
    8.4980   -0.3670   21.6120 C   0  0  0  0  0  0  0  0  0  0  0  0
    8.9970    0.7210   21.3800 O   0  0  0  0  0  0  0  0  0  0  0  0
    7.2910   -0.7950   21.0890 N   0  0  0  0  0  0  0  0  0  0  0  0
    6.6130   -0.1170   20.0610 C   0  0  0  0  0  0  0  0  0  0  0  0
    5.3660    0.6670   20.3500 C   0  0  0  0  0  0  0  0  0  0  0  0
    4.6860    1.3560   19.3550 C   0  0  0  0  0  0  0  0  0  0  0  0
    5.1390    1.3500   18.0290 C   0  0  0  0  0  0  0  0  0  0  0  0
    6.3390    0.5830   17.7740 N   0  0  0  0  0  0  0  0  0  0  0  0
    7.0050   -0.0990   18.7520 C   0  0  0  0  0  0  0  0  0  0  0  0
   10.7280    0.4470   23.1460 C   0  0  0  0  0  0  0  0  0  0  0  0
   10.0550    1.3410   23.2670 C   0  0  0  0  0  0  0  0  0  0  0  0
   11.3400    1.8020   23.2350 C   0  0  0  0  0  0  0  0  0  0  0  0
   11.6900    0.1510   23.0780 C   0  0  0  0  0  0  0  0  0  0  0  0
   12.8450    0.9490   23.0740 C   0  0  0  0  0  0  0  0  0  0  0  0
   11.9170    1.6790   23.1880 C   0  0  0  0  0  0  0  0  0  0  0  0
   11.7940    3.0430   23.3020 N   0  0  0  0  0  0  0  0  0  0  0  0
   12.6380    3.7960   22.4900 O   0  0  0  0  0  0  0  0  0  0  0  0
   10.7300    3.4700   23.7610 O   0  0  0  0  0  0  0  0  0  0  0  0
  2  1  1  6
  2  3  1  0
  3  4  1  0
  4  5  2  0
  4  6  1  0
  6  7  1  0
  7  8  2  0
  8  9  1  0
  9 10  2  0
 10 11  1  0
  7 12  1  0
 11 12  2  0
  2 13  1  0
 13 14  2  0
 14 15  1  0
 15 16  2  0
 16 17  1  0
 13 18  1  0
 17 18  2  0
 18 19  1  0
 19 20  2  0
 19 21  1  0
M  CHG  2  19   1  21  -1
M  END
