pyridine_urea_7823
     RDKit          3D

 26 28  0  0  0  0  0  0  0  0999 V2000
   15.2000    1.0870   19.2530 C   0  0  0  0  0  0  0  0  0  0  0  0
   14.5170    1.2440   20.5600 C   0  0  0  0  0  0  0  0  0  0  0  0
   14.7830    2.1900   21.4510 C   0  0  0  0  0  0  0  0  0  0  0  0
   14.3580    2.6400   19.8140 C   0  0  0  0  0  0  0  0  0  0  0  0
   13.7180   -0.3010   21.0380 C   0  0  0  0  0  0  0  0  0  0  0  0
   13.9130   -1.4860   20.4890 C   0  0  0  0  0  0  0  0  0  0  0  0
   13.0070   -2.8970   20.8870 S   0  0  0  0  0  0  0  0  0  0  0  0
   12.1150   -1.8290   21.9330 C   0  0  0  0  0  0  0  0  0  0  0  0
   10.7870   -2.0830   22.7050 C   0  0  2  0  0  0  0  0  0  0  0  0
    9.6520   -1.9140   21.7140 N   0  0  0  0  0  0  0  0  0  0  0  0
    8.8080   -0.7750   21.5900 C   0  0  0  0  0  0  0  0  0  0  0  0
    9.2160    0.3270   21.9070 O   0  0  0  0  0  0  0  0  0  0  0  0
    7.5290   -1.0300   21.0670 N   0  0  0  0  0  0  0  0  0  0  0  0
    6.7160   -0.2480   20.1730 C   0  0  0  0  0  0  0  0  0  0  0  0
    5.5950    0.5250   20.5410 C   0  0  0  0  0  0  0  0  0  0  0  0
    4.8980    1.2400   19.5590 C   0  0  0  0  0  0  0  0  0  0  0  0
    5.2990    1.1920   18.2390 C   0  0  0  0  0  0  0  0  0  0  0  0
    6.3440    0.4800   17.8140 N   0  0  0  0  0  0  0  0  0  0  0  0
    7.0430   -0.2380   18.8120 C   0  0  0  0  0  0  0  0  0  0  0  0
   10.5990   -0.9920   23.6760 C   0  0  0  0  0  0  0  0  0  0  0  0
    9.6470   -0.3910   24.0750 C   0  0  0  0  0  0  0  0  0  0  0  0
   10.6440    0.1820   24.7710 C   0  0  0  0  0  0  0  0  0  0  0  0
   11.3920   -0.9220   23.8730 C   0  0  0  0  0  0  0  0  0  0  0  0
   12.6440   -0.5600   24.4090 C   0  0  0  0  0  0  0  0  0  0  0  0
   11.4670   -0.2180   24.5290 C   0  0  0  0  0  0  0  0  0  0  0  0
   12.6820   -0.6570   21.9340 N   0  0  0  0  0  0  0  0  0  0  0  0
  2  1  1  0
  2  3  1  0
  2  4  1  0
  2  5  1  0
  5  6  2  0
  6  7  1  0
  7  8  1  0
  8  9  1  0
  9 10  1  6
 10 11  1  0
 11 12  2  0
 11 13  1  0
 13 14  1  0
 14 15  2  0
 15 16  1  0
 16 17  2  0
 17 18  1  0
 14 19  1  0
 18 19  2  0
  9 20  1  0
 20 21  2  0
 21 22  1  0
 22 23  2  0
 23 24  1  0
 20 25  1  0
 24 25  2  0
  5 26  1  0
  8 26  2  0
M  END
