pyridine_urea_11667
     RDKit          3D

 28 30  0  0  0  0  0  0  0  0999 V2000
    8.6840    0.4660   21.1400 O   0  0  0  0  0  0  0  0  0  0  0  0
    8.3200   -0.6750   21.3730 C   0  0  0  0  0  0  0  0  0  0  0  0
    7.0850   -1.1060   20.9800 N   0  0  0  0  0  0  0  0  0  0  0  0
    6.4130   -0.3300   20.0090 C   0  0  0  0  0  0  0  0  0  0  0  0
    5.2040    0.3160   20.3030 C   0  0  0  0  0  0  0  0  0  0  0  0
    4.5690    1.0950   19.3240 C   0  0  0  0  0  0  0  0  0  0  0  0
    5.1680    1.2010   18.0840 C   0  0  0  0  0  0  0  0  0  0  0  0
    6.3230    0.5890   17.7800 N   0  0  0  0  0  0  0  0  0  0  0  0
    6.9130   -0.1580   18.7380 C   0  0  0  0  0  0  0  0  0  0  0  0
    9.1780   -1.5340   22.0540 N   0  0  0  0  0  0  0  0  0  0  0  0
   10.3310   -0.7220   22.3810 C   0  0  0  0  0  0  0  0  0  0  0  0
    9.8530    0.6420   22.7040 C   0  0  0  0  0  0  0  0  0  0  0  0
   10.7290    1.5970   22.9950 C   0  0  0  0  0  0  0  0  0  0  0  0
    9.7190    2.9960   23.2720 S   0  0  0  0  0  0  0  0  0  0  0  0
   10.0990    4.0130   22.3360 O   0  0  0  0  0  0  0  0  0  0  0  0
    8.3440    2.5370   23.2980 O   0  0  0  0  0  0  0  0  0  0  0  0
    9.9690    3.6550   24.8390 N   0  0  0  0  0  0  0  0  0  0  0  0
   10.6140    4.7970   24.7940 C   0  0  0  0  0  0  0  0  0  0  0  0
   10.5510    5.8790   25.6850 C   0  0  0  0  0  0  0  0  0  0  0  0
   11.2880    7.0530   25.5010 C   0  0  0  0  0  0  0  0  0  0  0  0
   12.1390    7.2640   24.4360 C   0  0  0  0  0  0  0  0  0  0  0  0
   12.2830    6.1690   23.4340 C   0  0  0  0  0  0  0  0  0  0  0  0
   13.2710    6.2150   22.0610 Cl  0  0  0  0  0  0  0  0  0  0  0  0
   11.5270    4.9110   23.5930 C   0  0  0  0  0  0  0  0  0  0  0  0
   12.1620    1.3700   23.0270 C   0  0  0  0  0  0  0  0  0  0  0  0
   12.6050    0.0420   22.7340 C   0  0  0  0  0  0  0  0  0  0  0  0
   11.6940   -0.9820   22.4160 C   0  0  0  0  0  0  0  0  0  0  0  0
   12.2720   -2.2440   22.1330 O   0  0  0  0  0  0  0  0  0  0  0  0
  1  2  2  0
  2  3  1  0
  3  4  1  0
  4  5  2  0
  5  6  1  0
  6  7  2  0
  7  8  1  0
  4  9  1  0
  8  9  2  0
  2 10  1  0
 10 11  1  0
 11 12  2  0
 12 13  1  0
 13 14  1  0
 14 15  2  0
 14 16  2  0
 14 17  1  0
 17 18  1  0
 18 19  2  0
 19 20  1  0
 20 21  2  0
 21 22  1  0
 22 23  1  0
 18 24  1  0
 22 24  2  0
 13 25  2  0
 25 26  1  0
 11 27  1  0
 26 27  2  0
 27 28  1  0
M  END
