pyridine_urea_13742
     RDKit          3D

 26 30  0  0  0  0  0  0  0  0999 V2000
    8.6240   -2.0250   20.8000 O   0  0  0  0  0  0  0  0  0  0  0  0
    8.7460   -1.1160   21.4980 C   0  0  0  0  0  0  0  0  0  0  0  0
    9.8220   -0.9630   22.3620 N   0  0  0  0  0  0  0  0  0  0  0  0
   10.2400    0.2850   22.7250 C   0  0  0  0  0  0  0  0  0  0  0  0
    9.1940    1.2370   23.1360 C   0  0  0  0  0  0  0  0  0  0  0  0
    9.6750    2.5890   23.4720 C   0  0  0  0  0  0  0  0  0  0  0  0
   11.0970    3.0130   23.4200 C   0  0  0  0  0  0  0  0  0  0  0  0
   11.0870    4.4030   23.7980 C   0  0  2  0  0  0  0  0  0  0  0  0
    9.7940    4.9040   23.9210 C   0  0  0  0  0  0  0  0  0  0  0  0
    9.7480    6.2740   23.7940 C   0  0  1  0  0  0  0  0  0  0  0  0
   10.5100    6.8640   24.7530 C   0  0  0  0  0  0  0  0  0  0  0  0
   11.8190    6.4780   24.5480 C   0  0  2  0  0  0  0  0  0  0  0  0
   12.3170    6.8510   23.3050 C   0  0  0  0  0  0  0  0  0  0  0  0
   11.6370    6.1630   22.2720 C   0  0  2  0  0  0  0  0  0  0  0  0
   10.1970    6.6850   22.5600 C   0  0  0  0  0  0  0  0  0  0  0  0
   11.6890    4.6520   22.4280 C   0  0  0  0  0  0  0  0  0  0  0  0
   11.9790    5.1060   24.6350 C   0  0  0  0  0  0  0  0  0  0  0  0
   12.1980    1.9800   23.0070 C   0  0  0  0  0  0  0  0  0  0  0  0
   11.7620    0.6630   22.6760 C   0  0  0  0  0  0  0  0  0  0  0  0
    7.7970   -0.1050   21.5090 N   0  0  0  0  0  0  0  0  0  0  0  0
    6.9230    0.3000   20.3670 C   0  0  0  0  0  0  0  0  0  0  0  0
    5.7000    1.1960   20.5170 C   0  0  0  0  0  0  0  0  0  0  0  0
    4.9290    1.5570   19.4340 C   0  0  0  0  0  0  0  0  0  0  0  0
    5.1890    1.1500   18.1430 C   0  0  0  0  0  0  0  0  0  0  0  0
    6.2300    0.3500   17.8570 N   0  0  0  0  0  0  0  0  0  0  0  0
    7.0510   -0.0640   18.8700 C   0  0  0  0  0  0  0  0  0  0  0  0
  1  2  2  0
  2  3  1  0
  3  4  1  0
  4  5  2  0
  5  6  1  0
  6  7  2  0
  8  7  1  1
  8  9  1  0
 10  9  1  6
 10 11  1  0
 12 11  1  6
 12 13  1  0
 14 13  1  1
 10 15  1  0
 14 15  1  0
  8 16  1  0
 14 16  1  0
  8 17  1  0
 12 17  1  0
  7 18  1  0
  4 19  1  0
 18 19  2  0
  2 20  1  0
 20 21  1  0
 21 22  2  0
 22 23  1  0
 23 24  2  0
 24 25  1  0
 21 26  1  0
 25 26  2  0
M  END
