pyridine_urea_7384
     RDKit          3D

 17 18  0  0  0  0  0  0  0  0999 V2000
    8.8400   -3.0690   23.6230 C   0  0  0  0  0  0  0  0  0  0  0  0
    9.3790   -1.6820   23.3070 C   0  0  2  0  0  0  0  0  0  0  0  0
    9.1080   -1.4020   21.9130 N   0  0  0  0  0  0  0  0  0  0  0  0
    8.4490   -0.2670   21.5150 C   0  0  0  0  0  0  0  0  0  0  0  0
    8.9700    0.8390   21.4760 O   0  0  0  0  0  0  0  0  0  0  0  0
    7.1570   -0.5560   21.1550 N   0  0  0  0  0  0  0  0  0  0  0  0
    6.4830    0.0690   20.0420 C   0  0  0  0  0  0  0  0  0  0  0  0
    5.3290    0.8030   20.2590 C   0  0  0  0  0  0  0  0  0  0  0  0
    4.6210    1.4580   19.2490 C   0  0  0  0  0  0  0  0  0  0  0  0
    5.1300    1.3530   17.9540 C   0  0  0  0  0  0  0  0  0  0  0  0
    6.2670    0.6250   17.7170 N   0  0  0  0  0  0  0  0  0  0  0  0
    6.9410   -0.0170   18.7470 C   0  0  0  0  0  0  0  0  0  0  0  0
   10.8750   -1.5390   23.5250 C   0  0  0  0  0  0  0  0  0  0  0  0
   11.6650   -0.4940   23.1220 N   0  0  0  0  0  0  0  0  0  0  0  0
   12.9320   -0.7100   23.4870 C   0  0  0  0  0  0  0  0  0  0  0  0
   13.1850   -1.8630   24.1520 C   0  0  0  0  0  0  0  0  0  0  0  0
   11.7230   -2.8070   24.3640 S   0  0  0  0  0  0  0  0  0  0  0  0
  2  1  1  6
  2  3  1  0
  3  4  1  0
  4  5  2  0
  4  6  1  0
  6  7  1  0
  7  8  2  0
  8  9  1  0
  9 10  2  0
 10 11  1  0
  7 12  1  0
 11 12  2  0
  2 13  1  0
 13 14  2  0
 14 15  1  0
 15 16  2  0
 13 17  1  0
 16 17  1  0
M  END
