pyridine_urea_12508
     RDKit          3D

 21 22  0  0  0  0  0  0  0  0999 V2000
   12.8900   -2.4680   24.5790 C   0  0  0  0  0  0  0  0  0  0  0  0
   11.5950   -1.8900   24.7340 O   0  0  0  0  0  0  0  0  0  0  0  0
   10.6630   -2.3790   23.7650 C   0  0  0  0  0  0  0  0  0  0  0  0
    9.7530   -1.2010   23.3460 C   0  0  2  0  0  0  0  0  0  0  0  0
    9.0160   -1.4440   22.1040 N   0  0  0  0  0  0  0  0  0  0  0  0
    8.2650   -0.4980   21.4330 C   0  0  0  0  0  0  0  0  0  0  0  0
    8.6630    0.7740   21.1360 O   0  0  0  0  0  0  0  0  0  0  0  0
    6.9610   -0.9520   21.0210 N   0  0  0  0  0  0  0  0  0  0  0  0
    6.3420   -0.1920   20.0620 C   0  0  0  0  0  0  0  0  0  0  0  0
    5.1610    0.4900   20.3540 C   0  0  0  0  0  0  0  0  0  0  0  0
    4.5420    1.3170   19.2490 C   0  0  0  0  0  0  0  0  0  0  0  0
    5.2410    1.3410   17.9220 C   0  0  0  0  0  0  0  0  0  0  0  0
    6.3780    0.6430   17.7340 N   0  0  0  0  0  0  0  0  0  0  0  0
    6.8830   -0.0840   18.7770 C   0  0  0  0  0  0  0  0  0  0  0  0
   10.5690    0.0300   23.2670 C   0  0  2  0  0  0  0  0  0  0  0  0
    9.8400    1.1070   22.5100 C   0  0  0  0  0  0  0  0  0  0  0  0
   10.5800    2.3970   22.7100 C   0  0  0  0  0  0  0  0  0  0  0  0
   11.8510    2.2690   23.2500 C   0  0  2  0  0  0  0  0  0  0  0  0
   12.5660    3.3710   22.7710 C   0  0  0  0  0  0  0  0  0  0  0  0
   12.6370    0.9710   23.1150 C   0  0  0  0  0  0  0  0  0  0  0  0
   11.8720   -0.1110   22.8760 C   0  0  0  0  0  0  0  0  0  0  0  0
  1  2  1  0
  2  3  1  0
  4  3  1  6
  4  5  1  0
  5  6  1  0
  6  7  2  0
  6  8  1  0
  8  9  1  0
  9 10  2  0
 10 11  1  0
 11 12  2  0
 12 13  1  0
  9 14  1  0
 13 14  2  0
  4 15  1  0
 15 16  1  6
 16 17  1  0
 17 18  1  0
 18 19  1  6
 18 20  1  0
 15 21  1  0
 20 21  1  0
M  END
