pyridine_urea_1537
     RDKit          3D

 19 20  0  0  0  0  0  0  0  0999 V2000
   13.2430   -0.1400   22.3510 C   0  0  0  0  0  0  0  0  0  0  0  0
   12.5860   -1.0750   23.2900 C   0  0  0  0  0  0  0  0  0  0  0  0
   13.2480   -2.2040   23.7930 C   0  0  0  0  0  0  0  0  0  0  0  0
   12.2760   -0.1670   24.4870 C   0  0  0  0  0  0  0  0  0  0  0  0
   10.9540   -0.1710   24.9550 C   0  0  0  0  0  0  0  0  0  0  0  0
    9.9720   -1.0530   24.5160 C   0  0  0  0  0  0  0  0  0  0  0  0
   10.4550   -2.1490   23.8380 C   0  0  0  0  0  0  0  0  0  0  0  0
   11.2230   -1.5320   22.7070 C   0  0  1  0  0  0  0  0  0  0  0  0
   10.4870   -0.4560   22.3280 C   0  0  0  0  0  0  0  0  0  0  0  0
    9.3690   -0.8380   21.5120 N   0  0  0  0  0  0  0  0  0  0  0  0
    8.4670    0.1570   21.2610 C   0  0  0  0  0  0  0  0  0  0  0  0
    8.8030    1.3430   21.2030 O   0  0  0  0  0  0  0  0  0  0  0  0
    7.2060   -0.3300   21.0390 N   0  0  0  0  0  0  0  0  0  0  0  0
    6.4010    0.2300   20.0580 C   0  0  0  0  0  0  0  0  0  0  0  0
    5.1950    0.8820   20.2960 C   0  0  0  0  0  0  0  0  0  0  0  0
    4.4650    1.4460   19.2570 C   0  0  0  0  0  0  0  0  0  0  0  0
    5.1130    1.2670   17.9150 C   0  0  0  0  0  0  0  0  0  0  0  0
    6.2620    0.6270   17.7020 N   0  0  0  0  0  0  0  0  0  0  0  0
    6.8670    0.1290   18.7700 C   0  0  0  0  0  0  0  0  0  0  0  0
  2  1  1  0
  2  3  1  0
  2  4  1  0
  4  5  1  0
  5  6  1  0
  6  7  1  0
  2  8  1  0
  7  8  1  0
  8  9  1  1
  9 10  1  0
 10 11  1  0
 11 12  2  0
 11 13  1  0
 13 14  1  0
 14 15  2  0
 15 16  1  0
 16 17  2  0
 17 18  1  0
 14 19  1  0
 18 19  2  0
M  END
