pyridine_urea_3549
     RDKit          3D

 18 18  0  0  0  0  0  0  0  0999 V2000
   12.2190   -2.0690   21.5190 C   0  0  0  0  0  0  0  0  0  0  0  0
   12.0610   -0.8040   22.3660 C   0  0  0  0  0  0  0  0  0  0  0  0
   12.9700   -0.9300   23.5630 C   0  0  0  0  0  0  0  0  0  0  0  0
   10.5840   -0.5460   22.7370 C   0  0  1  0  0  0  0  0  0  0  0  0
   10.3870    0.9570   22.9220 C   0  0  0  0  0  0  0  0  0  0  0  0
    9.5900   -0.8650   21.6700 N   0  0  0  0  0  0  0  0  0  0  0  0
    8.6380    0.0840   21.3180 C   0  0  0  0  0  0  0  0  0  0  0  0
    8.9180    1.2810   21.2040 O   0  0  0  0  0  0  0  0  0  0  0  0
    7.3890   -0.4340   21.0710 N   0  0  0  0  0  0  0  0  0  0  0  0
    6.5980    0.1080   20.0500 C   0  0  0  0  0  0  0  0  0  0  0  0
    5.4240    0.7970   20.3630 C   0  0  0  0  0  0  0  0  0  0  0  0
    4.6630    1.3580   19.3380 C   0  0  0  0  0  0  0  0  0  0  0  0
    5.1070    1.2030   18.0430 C   0  0  0  0  0  0  0  0  0  0  0  0
    6.2190    0.5390   17.7170 N   0  0  0  0  0  0  0  0  0  0  0  0
    6.9370    0.0070   18.7210 C   0  0  0  0  0  0  0  0  0  0  0  0
   10.3050   -1.2910   24.0040 C   0  0  0  0  0  0  0  0  0  0  0  0
    9.0050   -1.3720   24.4100 N   0  0  0  0  0  0  0  0  0  0  0  0
   11.1800   -1.8380   24.6690 O   0  0  0  0  0  0  0  0  0  0  0  0
  1  2  1  0
  2  3  1  0
  2  4  1  0
  4  5  1  1
  4  6  1  0
  6  7  1  0
  7  8  2  0
  7  9  1  0
  9 10  1  0
 10 11  2  0
 11 12  1  0
 12 13  2  0
 13 14  1  0
 10 15  1  0
 14 15  2  0
  4 16  1  0
 16 17  1  0
 16 18  2  0
M  END
