pyridine_urea_6449
     RDKit          3D

 23 25  0  0  0  0  0  0  0  0999 V2000
   14.5410   -4.8740   20.5670 C   0  0  0  0  0  0  0  0  0  0  0  0
   13.6730   -4.0040   20.7010 C   0  0  0  0  0  0  0  0  0  0  0  0
   12.3490   -3.2240   20.6850 C   0  0  0  0  0  0  0  0  0  0  0  0
   11.2930   -3.8120   19.9920 O   0  0  0  0  0  0  0  0  0  0  0  0
   12.2890   -1.8650   21.2940 N   0  0  0  0  0  0  0  0  0  0  0  0
   13.5570   -1.7100   21.9510 C   0  0  0  0  0  0  0  0  0  0  0  0
   13.4810   -0.7790   22.9000 C   0  0  0  0  0  0  0  0  0  0  0  0
   12.1180   -0.5320   23.1300 C   0  0  0  0  0  0  0  0  0  0  0  0
   11.6090    0.2660   24.1830 C   0  0  0  0  0  0  0  0  0  0  0  0
   10.3040    0.4650   24.3710 C   0  0  0  0  0  0  0  0  0  0  0  0
    9.4620   -0.2760   23.3050 C   0  0  0  0  0  0  0  0  0  0  0  0
    8.2800   -0.5960   22.7790 N   0  0  0  0  0  0  0  0  0  0  0  0
    7.8750   -0.0300   21.4970 C   0  0  0  0  0  0  0  0  0  0  0  0
    8.5770    1.1430   21.0310 O   0  0  0  0  0  0  0  0  0  0  0  0
    6.8750   -0.6870   20.9050 N   0  0  0  0  0  0  0  0  0  0  0  0
    6.3540   -0.0200   19.8850 C   0  0  0  0  0  0  0  0  0  0  0  0
    5.1870    0.6970   20.0780 C   0  0  0  0  0  0  0  0  0  0  0  0
    4.3250    1.5740   19.1520 C   0  0  0  0  0  0  0  0  0  0  0  0
    5.1880    1.4110   17.9010 C   0  0  0  0  0  0  0  0  0  0  0  0
    6.3210    0.7350   17.6430 N   0  0  0  0  0  0  0  0  0  0  0  0
    6.8930    0.0090   18.6720 C   0  0  0  0  0  0  0  0  0  0  0  0
   10.1280   -1.0350   22.3160 C   0  0  0  0  0  0  0  0  0  0  0  0
   11.4330   -1.1880   22.1920 C   0  0  0  0  0  0  0  0  0  0  0  0
  1  2  1  0
  2  3  1  0
  3  4  2  0
  3  5  1  0
  5  6  1  0
  6  7  1  0
  7  8  1  0
  8  9  2  0
  9 10  1  0
 10 11  2  0
 11 12  1  0
 12 13  1  0
 13 14  2  0
 13 15  1  0
 15 16  1  0
 16 17  2  0
 17 18  1  0
 18 19  2  0
 19 20  1  0
 16 21  1  0
 20 21  2  0
 11 22  1  0
  5 23  1  0
  8 23  1  0
 22 23  2  0
M  END
