pyridine_urea_2778
     RDKit          3D

 22 24  0  0  0  0  0  0  0  0999 V2000
   13.7320   -2.4160   25.6580 C   0  0  0  0  0  0  0  0  0  0  0  0
   12.3310   -1.9610   25.2690 C   0  0  0  0  0  0  0  0  0  0  0  0
   11.5250   -3.0500   24.8090 O   0  0  0  0  0  0  0  0  0  0  0  0
   11.9310   -0.5360   25.2120 N   0  0  0  0  0  0  0  0  0  0  0  0
   10.4420   -0.2720   25.4760 C   0  0  0  0  0  0  0  0  0  0  0  0
    9.6520   -0.7790   24.4730 C   0  0  0  0  0  0  0  0  0  0  0  0
   10.6950   -1.0150   23.4420 C   0  0  0  0  0  0  0  0  0  0  0  0
   10.5420   -1.4100   22.1780 C   0  0  0  0  0  0  0  0  0  0  0  0
    9.2700   -1.6250   21.6450 N   0  0  0  0  0  0  0  0  0  0  0  0
    8.3990   -0.4740   21.3240 C   0  0  0  0  0  0  0  0  0  0  0  0
    8.8680    0.8220   21.3530 O   0  0  0  0  0  0  0  0  0  0  0  0
    7.1130   -0.8280   20.9890 N   0  0  0  0  0  0  0  0  0  0  0  0
    6.4340   -0.1040   20.0080 C   0  0  0  0  0  0  0  0  0  0  0  0
    5.1480    0.6230   20.3520 C   0  0  0  0  0  0  0  0  0  0  0  0
    4.4990    1.3980   19.2310 C   0  0  0  0  0  0  0  0  0  0  0  0
    5.1780    1.3810   17.8830 C   0  0  0  0  0  0  0  0  0  0  0  0
    6.3180    0.6910   17.6910 N   0  0  0  0  0  0  0  0  0  0  0  0
    6.8950   -0.0060   18.7070 C   0  0  0  0  0  0  0  0  0  0  0  0
   11.7390   -1.5910   21.4550 C   0  0  0  0  0  0  0  0  0  0  0  0
   12.9730   -1.3220   21.9920 C   0  0  0  0  0  0  0  0  0  0  0  0
   13.0570   -0.9150   23.2510 C   0  0  0  0  0  0  0  0  0  0  0  0
   11.9230   -0.8020   23.9240 C   0  0  0  0  0  0  0  0  0  0  0  0
  1  2  1  0
  2  3  2  0
  2  4  1  0
  4  5  1  0
  5  6  1  0
  6  7  1  0
  7  8  2  0
  8  9  1  0
  9 10  1  0
 10 11  2  0
 10 12  1  0
 12 13  1  0
 13 14  2  0
 14 15  1  0
 15 16  2  0
 16 17  1  0
 13 18  1  0
 17 18  2  0
  8 19  1  0
 19 20  2  0
 20 21  1  0
  4 22  1  0
  7 22  1  0
 21 22  2  0
M  END
