pyridine_urea_12309
     RDKit          3D

 22 24  0  0  0  0  0  0  0  0999 V2000
    8.9910    1.3960   21.2440 O   0  0  0  0  0  0  0  0  0  0  0  0
    8.4650    0.3060   21.4800 C   0  0  0  0  0  0  0  0  0  0  0  0
    9.0650   -0.6180   22.3220 N   0  0  0  0  0  0  0  0  0  0  0  0
   10.4640   -0.3230   22.5150 C   0  0  0  0  0  0  0  0  0  0  0  0
   11.5520   -1.4270   22.3740 C   0  0  0  0  0  0  0  0  0  0  0  0
   12.8680   -1.0300   22.5610 C   0  0  0  0  0  0  0  0  0  0  0  0
   13.1040    0.4520   22.8800 C   0  0  0  0  0  0  0  0  0  0  0  0
   12.1380    1.3740   22.9950 N   0  0  0  0  0  0  0  0  0  0  0  0
   10.8590    0.9690   22.8180 C   0  0  0  0  0  0  0  0  0  0  0  0
    7.2740   -0.1070   20.9640 N   0  0  0  0  0  0  0  0  0  0  0  0
    6.8390    0.6470   19.7810 C   0  0  2  0  0  0  0  0  0  0  0  0
    5.6330    1.5600   20.2400 C   0  0  0  0  0  0  0  0  0  0  0  0
    4.4380    1.0100   19.6990 O   0  0  0  0  0  0  0  0  0  0  0  0
    5.1970    0.0470   19.0640 C   0  0  0  0  0  0  0  0  0  0  0  0
    4.6050   -0.1780   20.3960 C   0  0  0  0  0  0  0  0  0  0  0  0
    5.0660   -1.3850   20.6940 C   0  0  0  0  0  0  0  0  0  0  0  0
    5.3960   -0.6050   19.2940 C   0  0  0  0  0  0  0  0  0  0  0  0
    4.5690    0.7540   19.4780 C   0  0  0  0  0  0  0  0  0  0  0  0
    5.1970    0.9530   18.2220 C   0  0  0  0  0  0  0  0  0  0  0  0
    6.0130    0.2760   17.5250 N   0  0  0  0  0  0  0  0  0  0  0  0
    6.8570   -0.0880   18.5380 C   0  0  0  0  0  0  0  0  0  0  0  0
    7.7590   -1.1790   18.4810 O   0  0  0  0  0  0  0  0  0  0  0  0
  1  2  2  0
  2  3  1  0
  3  4  1  0
  4  5  2  0
  5  6  1  0
  6  7  2  0
  7  8  1  0
  4  9  1  0
  8  9  2  0
  2 10  1  0
 11 10  1  1
 11 12  1  0
 12 13  1  0
 13 14  1  0
 14 15  1  0
 15 16  2  0
 16 17  1  0
 17 18  2  0
 14 19  2  0
 18 19  1  0
 19 20  1  0
 11 21  1  0
 20 21  1  0
 21 22  2  0
M  END
