pyridine_urea_5979
     RDKit          3D

 26 27  0  0  0  0  0  0  0  0999 V2000
    8.6960   -2.6510   23.5820 C   0  0  0  0  0  0  0  0  0  0  0  0
    8.9660   -1.4130   24.2760 O   0  0  0  0  0  0  0  0  0  0  0  0
    9.9860   -0.5770   23.8530 C   0  0  0  0  0  0  0  0  0  0  0  0
   10.9250   -1.0240   22.9330 C   0  0  0  0  0  0  0  0  0  0  0  0
   12.0670   -0.4170   22.3410 C   0  0  0  0  0  0  0  0  0  0  0  0
   11.8210   -1.7040   21.9160 C   0  0  0  0  0  0  0  0  0  0  0  0
   10.3170   -1.9560   22.0140 C   0  0  0  0  0  0  0  0  0  0  0  0
    9.4120   -0.8050   22.2640 N   0  0  0  0  0  0  0  0  0  0  0  0
    8.5800   -0.0780   21.4420 C   0  0  0  0  0  0  0  0  0  0  0  0
    8.9690    1.2030   21.1080 O   0  0  0  0  0  0  0  0  0  0  0  0
    7.3270   -0.6900   21.0110 N   0  0  0  0  0  0  0  0  0  0  0  0
    6.6050   -0.0370   20.0340 C   0  0  0  0  0  0  0  0  0  0  0  0
    5.4700    0.6830   20.3910 C   0  0  0  0  0  0  0  0  0  0  0  0
    4.7680    1.3460   19.3860 C   0  0  0  0  0  0  0  0  0  0  0  0
    5.1870    1.2880   18.0720 C   0  0  0  0  0  0  0  0  0  0  0  0
    6.2740    0.5910   17.7160 N   0  0  0  0  0  0  0  0  0  0  0  0
    6.9520   -0.0510   18.6980 C   0  0  0  0  0  0  0  0  0  0  0  0
   12.0270    0.8620   22.9600 C   0  0  0  0  0  0  0  0  0  0  0  0
   11.1320    1.4290   23.8510 C   0  0  0  0  0  0  0  0  0  0  0  0
   11.4430    2.7160   24.1250 O   0  0  0  0  0  0  0  0  0  0  0  0
   11.9130    3.5180   23.0400 C   0  0  0  0  0  0  0  0  0  0  0  0
   10.0860    0.6770   24.3160 C   0  0  0  0  0  0  0  0  0  0  0  0
    9.1660    1.1780   25.2170 O   0  0  0  0  0  0  0  0  0  0  0  0
    8.3570    0.1070   25.7180 C   0  0  0  0  0  0  0  0  0  0  0  0
    8.9820   -0.4240   26.8600 C   0  0  0  0  0  0  0  0  0  0  0  0
    6.9690    0.6340   26.0450 C   0  0  0  0  0  0  0  0  0  0  0  0
  1  2  1  0
  2  3  1  0
  3  4  2  0
  4  5  1  0
  5  6  1  0
  6  7  1  0
  7  8  1  0
  8  9  1  0
  9 10  2  0
  9 11  1  0
 11 12  1  0
 12 13  2  0
 13 14  1  0
 14 15  2  0
 15 16  1  0
 12 17  1  0
 16 17  2  0
  5 18  2  0
 18 19  1  0
 19 20  1  0
 20 21  1  0
  3 22  1  0
 19 22  2  0
 22 23  1  0
 23 24  1  0
 24 25  1  0
 24 26  1  0
M  END
