pyridine_urea_4503
     RDKit          3D

 23 24  0  0  0  0  0  0  0  0999 V2000
   13.5230   -3.2330   25.6140 C   0  0  0  0  0  0  0  0  0  0  0  0
   12.4930   -2.3600   25.2440 O   0  0  0  0  0  0  0  0  0  0  0  0
   11.1680   -2.8930   25.3030 C   0  0  0  0  0  0  0  0  0  0  0  0
   10.8410   -4.2430   25.9200 C   0  0  0  0  0  0  0  0  0  0  0  0
    9.3950   -4.7360   25.9580 C   0  0  0  0  0  0  0  0  0  0  0  0
    9.1350   -5.9780   26.5490 O   0  0  0  0  0  0  0  0  0  0  0  0
    8.8180   -5.7560   27.9300 C   0  0  0  0  0  0  0  0  0  0  0  0
    8.2970   -3.8590   25.3660 C   0  0  0  0  0  0  0  0  0  0  0  0
    8.7630   -2.5470   24.7850 C   0  0  0  0  0  0  0  0  0  0  0  0
    7.9840   -1.7880   24.2940 O   0  0  0  0  0  0  0  0  0  0  0  0
    8.7380   -0.8010   23.6000 C   0  0  0  0  0  0  0  0  0  0  0  0
    9.6980   -1.3410   22.7160 C   0  0  0  0  0  0  0  0  0  0  0  0
    9.0930   -1.2510   21.4420 N   0  0  0  0  0  0  0  0  0  0  0  0
    8.3100   -0.1670   21.2320 C   0  0  0  0  0  0  0  0  0  0  0  0
    8.8090    0.9530   21.2730 O   0  0  0  0  0  0  0  0  0  0  0  0
    7.0170   -0.5150   20.9830 N   0  0  0  0  0  0  0  0  0  0  0  0
    6.2940    0.1520   20.0180 C   0  0  0  0  0  0  0  0  0  0  0  0
    5.1000    0.8290   20.2120 C   0  0  0  0  0  0  0  0  0  0  0  0
    4.5030    1.4990   19.0440 C   0  0  0  0  0  0  0  0  0  0  0  0
    5.1530    1.4260   17.8290 C   0  0  0  0  0  0  0  0  0  0  0  0
    6.3020    0.7550   17.6610 N   0  0  0  0  0  0  0  0  0  0  0  0
    6.8310    0.1440   18.7390 C   0  0  0  0  0  0  0  0  0  0  0  0
   10.1930   -2.1180   24.7810 C   0  0  0  0  0  0  0  0  0  0  0  0
  1  2  1  0
  2  3  1  0
  3  4  2  0
  4  5  1  0
  5  6  1  0
  6  7  1  0
  5  8  2  0
  8  9  1  0
  9 10  1  0
 10 11  1  0
 11 12  1  0
 12 13  1  0
 13 14  1  0
 14 15  2  0
 14 16  1  0
 16 17  1  0
 17 18  2  0
 18 19  1  0
 19 20  2  0
 20 21  1  0
 17 22  1  0
 21 22  2  0
  3 23  1  0
  9 23  2  0
M  END
