pyridine_urea_8306
     RDKit          3D

 23 24  0  0  0  0  0  0  0  0999 V2000
    8.4710    1.0420   21.1520 O   0  0  0  0  0  0  0  0  0  0  0  0
    8.2920   -0.1560   21.3280 C   0  0  0  0  0  0  0  0  0  0  0  0
    7.0900   -0.7520   21.0460 N   0  0  0  0  0  0  0  0  0  0  0  0
    6.3860   -0.0410   20.0090 C   0  0  0  0  0  0  0  0  0  0  0  0
    5.0510    0.7050   20.3240 C   0  0  0  0  0  0  0  0  0  0  0  0
    4.4530    1.3820   19.2690 C   0  0  0  0  0  0  0  0  0  0  0  0
    5.1670    1.3250   17.9100 C   0  0  0  0  0  0  0  0  0  0  0  0
    6.3180    0.6540   17.7010 N   0  0  0  0  0  0  0  0  0  0  0  0
    6.8890   -0.0000   18.7290 C   0  0  0  0  0  0  0  0  0  0  0  0
    9.2440   -1.0120   21.7810 N   0  0  0  0  0  0  0  0  0  0  0  0
   10.3400   -0.2370   22.3270 C   0  0  1  0  0  0  0  0  0  0  0  0
   10.0420    0.4350   23.6290 C   0  0  0  0  0  0  0  0  0  0  0  0
    9.4420   -0.5660   24.5890 C   0  0  0  0  0  0  0  0  0  0  0  0
    9.8710   -0.3820   25.8670 F   0  0  0  0  0  0  0  0  0  0  0  0
    9.6540   -1.8750   24.2560 F   0  0  0  0  0  0  0  0  0  0  0  0
    8.0820   -0.4590   24.6780 F   0  0  0  0  0  0  0  0  0  0  0  0
   11.5110   -0.9190   22.2530 C   0  0  0  0  0  0  0  0  0  0  0  0
   12.8350   -1.6910   22.4150 C   0  0  0  0  0  0  0  0  0  0  0  0
   13.7260   -2.2160   23.5650 C   0  0  0  0  0  0  0  0  0  0  0  0
   13.0260   -1.8010   24.6440 C   0  0  0  0  0  0  0  0  0  0  0  0
   13.6370   -2.1650   25.7790 F   0  0  0  0  0  0  0  0  0  0  0  0
   11.8850   -1.1210   24.6960 C   0  0  0  0  0  0  0  0  0  0  0  0
   11.2210   -0.7350   23.5960 C   0  0  0  0  0  0  0  0  0  0  0  0
  1  2  2  0
  2  3  1  0
  3  4  1  0
  4  5  2  0
  5  6  1  0
  6  7  2  0
  7  8  1  0
  4  9  1  0
  8  9  2  0
  2 10  1  0
 10 11  1  0
 11 12  1  1
 12 13  1  0
 13 14  1  0
 13 15  1  0
 13 16  1  0
 11 17  1  0
 17 18  2  0
 18 19  1  0
 19 20  2  0
 20 21  1  0
 20 22  1  0
 17 23  1  0
 22 23  2  0
M  END
