pyridine_urea_11543
     RDKit          3D

 23 25  0  0  0  0  0  0  0  0999 V2000
    8.6920    0.9080   21.4290 O   0  0  0  0  0  0  0  0  0  0  0  0
    8.3190   -0.2500   21.5550 C   0  0  0  0  0  0  0  0  0  0  0  0
    9.0160   -1.2370   22.2100 N   0  0  0  0  0  0  0  0  0  0  0  0
   10.2590   -1.7060   21.7540 C   0  0  0  0  0  0  0  0  0  0  0  0
   11.4050   -1.7010   22.5290 C   0  0  1  0  0  0  0  0  0  0  0  0
   12.0640   -0.4730   22.5790 C   0  0  1  0  0  0  0  0  0  0  0  0
   11.0520    0.4590   22.7940 C   0  0  0  0  0  0  0  0  0  0  0  0
   10.1850   -0.0220   23.7740 C   0  0  0  0  0  0  0  0  0  0  0  0
   10.9970   -0.7180   24.6260 C   0  0  2  0  0  0  0  0  0  0  0  0
   12.3390    0.0060   24.6590 C   0  0  0  0  0  0  0  0  0  0  0  0
   13.0070   -0.2970   23.5320 C   0  0  0  0  0  0  0  0  0  0  0  0
   11.2140   -2.0470   23.8720 C   0  0  2  0  0  0  0  0  0  0  0  0
   12.3090   -2.4390   24.6350 C   0  0  0  0  0  0  0  0  0  0  0  0
   13.0060   -1.5510   25.3400 F   0  0  0  0  0  0  0  0  0  0  0  0
   11.9400   -3.4050   25.5220 F   0  0  0  0  0  0  0  0  0  0  0  0
   13.2230   -2.9920   23.8220 F   0  0  0  0  0  0  0  0  0  0  0  0
    7.1380   -0.7250   21.0340 N   0  0  0  0  0  0  0  0  0  0  0  0
    6.3740   -0.0080   20.0990 C   0  0  0  0  0  0  0  0  0  0  0  0
    5.1760    0.6500   20.4230 C   0  0  0  0  0  0  0  0  0  0  0  0
    4.5760    1.3500   19.2480 C   0  0  0  0  0  0  0  0  0  0  0  0
    5.2480    1.3030   17.9100 C   0  0  0  0  0  0  0  0  0  0  0  0
    6.3800    0.6450   17.7100 N   0  0  0  0  0  0  0  0  0  0  0  0
    6.8940    0.0210   18.7930 C   0  0  0  0  0  0  0  0  0  0  0  0
  1  2  2  0
  2  3  1  0
  3  4  1  0
  5  4  1  6
  5  6  1  0
  6  7  1  1
  7  8  1  0
  9  8  1  6
  9 10  1  0
  6 11  1  0
 10 11  1  0
  5 12  1  0
  9 12  1  0
 12 13  1  1
 13 14  1  0
 13 15  1  0
 13 16  1  0
  2 17  1  0
 17 18  1  0
 18 19  2  0
 19 20  1  0
 20 21  2  0
 21 22  1  0
 18 23  1  0
 22 23  2  0
M  END
