pyridine_urea_14517
     RDKit          3D

 21 22  0  0  0  0  0  0  0  0999 V2000
   12.4660    5.3610   22.1580 C   0  0  0  0  0  0  0  0  0  0  0  0
   11.6090    4.6280   23.0380 O   0  0  0  0  0  0  0  0  0  0  0  0
   11.8820    3.2960   23.0200 C   0  0  0  0  0  0  0  0  0  0  0  0
   12.9880    2.8990   22.7230 O   0  0  0  0  0  0  0  0  0  0  0  0
   10.8360    2.4330   23.3550 C   0  0  0  0  0  0  0  0  0  0  0  0
   11.4350    1.0960   23.6630 N   0  0  0  0  0  0  0  0  0  0  0  0
   12.6040    0.6950   23.0960 C   0  0  0  0  0  0  0  0  0  0  0  0
   12.7370   -0.6720   22.8210 C   0  0  0  0  0  0  0  0  0  0  0  0
   11.4560   -1.4050   22.5300 C   0  0  0  0  0  0  0  0  0  0  0  0
   10.3280   -0.3960   22.6870 C   0  0  1  0  0  0  0  0  0  0  0  0
    9.0270   -0.8950   22.3220 N   0  0  0  0  0  0  0  0  0  0  0  0
    8.3580   -0.0360   21.4760 C   0  0  0  0  0  0  0  0  0  0  0  0
    8.8280    1.0640   21.1460 O   0  0  0  0  0  0  0  0  0  0  0  0
    7.1500   -0.5290   21.0640 N   0  0  0  0  0  0  0  0  0  0  0  0
    6.4610    0.0770   20.0180 C   0  0  0  0  0  0  0  0  0  0  0  0
    5.2760    0.7710   20.2760 C   0  0  0  0  0  0  0  0  0  0  0  0
    4.6090    1.3940   19.2240 C   0  0  0  0  0  0  0  0  0  0  0  0
    5.1490    1.3000   17.9590 C   0  0  0  0  0  0  0  0  0  0  0  0
    6.2770    0.6330   17.6840 N   0  0  0  0  0  0  0  0  0  0  0  0
    6.8930    0.0460   18.7180 C   0  0  0  0  0  0  0  0  0  0  0  0
   10.4840    0.1250   23.9550 C   0  0  0  0  0  0  0  0  0  0  0  0
  1  2  1  0
  2  3  1  0
  3  4  2  0
  3  5  1  0
  5  6  1  0
  6  7  1  0
  7  8  1  0
  8  9  1  0
  9 10  1  0
 10 11  1  1
 11 12  1  0
 12 13  2  0
 12 14  1  0
 14 15  1  0
 15 16  2  0
 16 17  1  0
 17 18  2  0
 18 19  1  0
 15 20  1  0
 19 20  2  0
  6 21  1  0
 10 21  1  0
M  END
