pyridine_urea_8337
     RDKit          3D

 23 24  0  0  0  0  0  0  0  0999 V2000
   10.2480   -2.6910   22.2310 C   0  0  0  0  0  0  0  0  0  0  0  0
    9.0100   -2.8770   23.1090 C   0  0  0  0  0  0  0  0  0  0  0  0
    8.0390   -4.0960   22.8860 C   0  0  0  0  0  0  0  0  0  0  0  0
    6.9010   -4.3230   23.6460 C   0  0  0  0  0  0  0  0  0  0  0  0
    6.0410   -5.5600   23.3320 C   0  0  0  0  0  0  0  0  0  0  0  0
    6.6240   -3.3690   24.6720 C   0  0  0  0  0  0  0  0  0  0  0  0
    5.4350   -3.3990   25.6400 C   0  0  0  0  0  0  0  0  0  0  0  0
    7.5760   -2.1600   24.8930 C   0  0  0  0  0  0  0  0  0  0  0  0
    7.4400   -1.3040   25.7130 O   0  0  0  0  0  0  0  0  0  0  0  0
    8.4790   -0.3730   25.3560 C   0  0  0  0  0  0  0  0  0  0  0  0
    8.4000   -0.1860   23.8280 C   0  0  0  0  0  0  0  0  0  0  0  0
    9.3350   -1.1330   23.0570 C   0  0  0  0  0  0  0  0  0  0  0  0
    9.4590   -0.6080   21.7140 N   0  0  0  0  0  0  0  0  0  0  0  0
    8.5600    0.3280   21.3180 C   0  0  0  0  0  0  0  0  0  0  0  0
    8.8660    1.5060   21.1680 O   0  0  0  0  0  0  0  0  0  0  0  0
    7.3240   -0.2200   21.0890 N   0  0  0  0  0  0  0  0  0  0  0  0
    6.4630    0.3120   20.0540 C   0  0  0  0  0  0  0  0  0  0  0  0
    5.2710    0.9950   20.2710 C   0  0  0  0  0  0  0  0  0  0  0  0
    4.5620    1.4800   19.1810 C   0  0  0  0  0  0  0  0  0  0  0  0
    5.0860    1.2540   17.9290 C   0  0  0  0  0  0  0  0  0  0  0  0
    6.2180    0.5900   17.6900 N   0  0  0  0  0  0  0  0  0  0  0  0
    6.8800    0.1330   18.7540 C   0  0  0  0  0  0  0  0  0  0  0  0
    8.7000   -1.9820   24.1180 C   0  0  0  0  0  0  0  0  0  0  0  0
  1  2  1  0
  2  3  2  0
  3  4  1  0
  4  5  1  0
  4  6  2  0
  6  7  1  0
  6  8  1  0
  8  9  1  0
  9 10  1  0
 10 11  1  0
 11 12  1  0
 12 13  1  0
 13 14  1  0
 14 15  2  0
 14 16  1  0
 16 17  1  0
 17 18  2  0
 18 19  1  0
 19 20  2  0
 20 21  1  0
 17 22  1  0
 21 22  2  0
  2 23  1  0
  8 23  2  0
M  END
