pyridine_urea_12940
     RDKit          3D

 19 19  0  0  0  0  0  0  0  0999 V2000
    9.3420    0.5160   29.3510 C   0  0  0  0  0  0  0  0  0  0  0  0
    8.3290    0.3010   28.1930 C   0  0  0  0  0  0  0  0  0  0  0  0
    8.6700   -1.0190   27.4720 C   0  0  0  0  0  0  0  0  0  0  0  0
    7.8320   -1.4910   26.4670 C   0  0  0  0  0  0  0  0  0  0  0  0
    8.1490   -1.1320   25.0930 N   0  0  0  0  0  0  0  0  0  0  0  0
    9.0560   -0.1030   24.9210 C   0  0  0  0  0  0  0  0  0  0  0  0
    7.4700   -1.5250   23.9500 C   0  0  0  0  0  0  0  0  0  0  0  0
    8.2750   -2.0200   22.9200 C   0  0  2  0  0  0  0  0  0  0  0  0
    8.9510   -3.1900   23.2510 C   0  0  0  0  0  0  0  0  0  0  0  0
    9.0850   -1.1140   22.2830 N   0  0  0  0  0  0  0  0  0  0  0  0
    8.3560   -0.2060   21.5060 C   0  0  0  0  0  0  0  0  0  0  0  0
    8.7890    0.9080   21.2310 O   0  0  0  0  0  0  0  0  0  0  0  0
    7.1560   -0.7080   21.1190 N   0  0  0  0  0  0  0  0  0  0  0  0
    6.5350   -0.0560   20.1090 C   0  0  0  0  0  0  0  0  0  0  0  0
    5.3650    0.6730   20.3680 C   0  0  0  0  0  0  0  0  0  0  0  0
    4.6970    1.3890   19.2490 C   0  0  0  0  0  0  0  0  0  0  0  0
    5.2050    1.3480   17.9870 C   0  0  0  0  0  0  0  0  0  0  0  0
    6.3450    0.6300   17.7450 N   0  0  0  0  0  0  0  0  0  0  0  0
    6.9590   -0.0350   18.7790 C   0  0  0  0  0  0  0  0  0  0  0  0
  1  2  1  0
  2  3  1  0
  3  4  1  0
  4  5  1  0
  5  6  1  0
  5  7  1  0
  7  8  1  0
  8  9  1  1
  8 10  1  0
 10 11  1  0
 11 12  2  0
 11 13  1  0
 13 14  1  0
 14 15  2  0
 15 16  1  0
 16 17  2  0
 17 18  1  0
 14 19  1  0
 18 19  2  0
M  END
