pyridine_urea_4077
     RDKit          3D

 27 29  0  0  0  0  0  0  0  0999 V2000
    8.9610    1.2860   21.1940 O   0  0  0  0  0  0  0  0  0  0  0  0
    8.5490    0.1720   21.5430 C   0  0  0  0  0  0  0  0  0  0  0  0
    9.1060   -0.5950   22.5390 N   0  0  0  0  0  0  0  0  0  0  0  0
    9.4910   -1.9460   22.4520 C   0  0  0  0  0  0  0  0  0  0  0  0
    8.6530   -2.8740   23.0690 C   0  0  0  0  0  0  0  0  0  0  0  0
    7.4470   -2.4260   23.6070 C   0  0  0  0  0  0  0  0  0  0  0  0
    6.8060   -3.2640   24.5000 C   0  0  0  0  0  0  0  0  0  0  0  0
    5.4620   -3.3370   24.5430 N   0  0  0  0  0  0  0  0  0  0  0  0
    4.9440   -4.5550   24.2700 C   0  0  0  0  0  0  0  0  0  0  0  0
    5.1260   -5.4890   25.2800 C   0  0  0  0  0  0  0  0  0  0  0  0
    4.9520   -5.1780   26.5850 N   0  0  0  0  0  0  0  0  0  0  0  0
    5.6950   -5.8980   27.4700 C   0  0  0  0  0  0  0  0  0  0  0  0
    5.0280   -6.5090   28.5070 C   0  0  0  0  0  0  0  0  0  0  0  0
    3.7130   -6.9500   28.5700 C   0  0  0  0  0  0  0  0  0  0  0  0
    3.2210   -7.5480   29.7240 C   0  0  0  0  0  0  0  0  0  0  0  0
    4.0160   -7.7260   30.8520 C   0  0  0  0  0  0  0  0  0  0  0  0
    5.3450   -7.3170   30.8810 C   0  0  0  0  0  0  0  0  0  0  0  0
    5.9520   -6.6630   29.6690 C   0  0  0  0  0  0  0  0  0  0  0  0
    5.1680   -3.8480   26.7900 C   0  0  0  0  0  0  0  0  0  0  0  0
    4.9360   -2.9440   25.7480 C   0  0  0  0  0  0  0  0  0  0  0  0
    7.4530   -0.4860   21.0160 N   0  0  0  0  0  0  0  0  0  0  0  0
    6.6210    0.1370   20.0710 C   0  0  0  0  0  0  0  0  0  0  0  0
    5.4720    0.8690   20.3500 C   0  0  0  0  0  0  0  0  0  0  0  0
    4.7300    1.4550   19.3300 C   0  0  0  0  0  0  0  0  0  0  0  0
    5.1770    1.2850   18.0280 C   0  0  0  0  0  0  0  0  0  0  0  0
    6.2770    0.5790   17.7230 N   0  0  0  0  0  0  0  0  0  0  0  0
    6.9660    0.0250   18.7420 C   0  0  0  0  0  0  0  0  0  0  0  0
  1  2  2  0
  2  3  1  0
  3  4  1  0
  4  5  1  0
  5  6  1  0
  6  7  1  0
  7  8  1  0
  8  9  1  0
  9 10  1  0
 10 11  1  0
 11 12  1  0
 12 13  1  0
 13 14  2  0
 14 15  1  0
 15 16  2  0
 16 17  1  0
 13 18  1  0
 17 18  2  0
 11 19  1  0
  8 20  1  0
 19 20  1  0
  2 21  1  0
 21 22  1  0
 22 23  2  0
 23 24  1  0
 24 25  2  0
 25 26  1  0
 22 27  1  0
 26 27  2  0
M  END
