pyridine_urea_13534
     RDKit          3D

 28 31  0  0  0  0  0  0  0  0999 V2000
   14.0730   -2.7590   25.9080 C   0  0  0  0  0  0  0  0  0  0  0  0
   13.1070   -3.4730   25.2130 O   0  0  0  0  0  0  0  0  0  0  0  0
   12.4750   -2.6980   24.3380 C   0  0  0  0  0  0  0  0  0  0  0  0
   13.1930   -1.6080   23.6760 C   0  0  0  0  0  0  0  0  0  0  0  0
   12.7100   -0.5740   22.6410 C   0  0  0  0  0  0  0  0  0  0  0  0
   11.1820   -0.9150   22.4160 C   0  0  0  0  0  0  0  0  0  0  0  0
    9.9040   -1.3610   22.3630 C   0  0  2  0  0  0  0  0  0  0  0  0
    9.2420   -0.9510   21.2830 N   0  0  0  0  0  0  0  0  0  0  0  0
    8.4170    0.1000   21.3960 C   0  0  0  0  0  0  0  0  0  0  0  0
    8.7520    1.2480   21.6080 O   0  0  0  0  0  0  0  0  0  0  0  0
    7.1150   -0.2550   21.1690 N   0  0  0  0  0  0  0  0  0  0  0  0
    6.4460    0.2600   20.0670 C   0  0  0  0  0  0  0  0  0  0  0  0
    5.2990    1.0110   20.2600 C   0  0  0  0  0  0  0  0  0  0  0  0
    4.6260    1.5570   19.1930 C   0  0  0  0  0  0  0  0  0  0  0  0
    5.1270    1.3350   17.9150 C   0  0  0  0  0  0  0  0  0  0  0  0
    6.2270    0.6030   17.6870 N   0  0  0  0  0  0  0  0  0  0  0  0
    6.8640    0.0800   18.7590 C   0  0  0  0  0  0  0  0  0  0  0  0
    9.7750   -0.7350   23.7900 C   0  0  2  0  0  0  0  0  0  0  0  0
    9.3170    0.3460   24.1790 C   0  0  0  0  0  0  0  0  0  0  0  0
   10.7670    0.4250   24.2590 C   0  0  2  0  0  0  0  0  0  0  0  0
   11.1970    1.5920   23.6280 C   0  0  0  0  0  0  0  0  0  0  0  0
   10.2290    2.5520   23.3880 C   0  0  0  0  0  0  0  0  0  0  0  0
   10.5480    3.8860   22.7280 C   0  0  0  0  0  0  0  0  0  0  0  0
   11.9940    4.1120   22.3500 C   0  0  0  0  0  0  0  0  0  0  0  0
   12.8880    3.0970   22.6310 C   0  0  0  0  0  0  0  0  0  0  0  0
   12.5100    1.8870   23.2360 C   0  0  0  0  0  0  0  0  0  0  0  0
   10.7290   -2.0350   23.1840 C   0  0  0  0  0  0  0  0  0  0  0  0
   11.2560   -2.8840   24.0650 C   0  0  0  0  0  0  0  0  0  0  0  0
  1  2  1  0
  2  3  1  0
  3  4  2  0
  4  5  1  0
  5  6  2  0
  6  7  1  0
  7  8  1  6
  8  9  1  0
  9 10  2  0
  9 11  1  0
 11 12  1  0
 12 13  2  0
 13 14  1  0
 14 15  2  0
 15 16  1  0
 12 17  1  0
 16 17  2  0
  7 18  1  0
 18 19  1  6
 18 20  1  0
 19 20  1  0
 20 21  1  6
 21 22  2  0
 22 23  1  0
 23 24  2  0
 24 25  1  0
 21 26  1  0
 25 26  2  0
  6 27  1  0
  3 28  1  0
 27 28  2  0
M  END
