pyridine_urea_7828
     RDKit          3D

 26 28  0  0  0  0  0  0  0  0999 V2000
   13.8000    5.3080   21.4570 C   0  0  0  0  0  0  0  0  0  0  0  0
   13.0230    6.2240   21.6290 O   0  0  0  0  0  0  0  0  0  0  0  0
   12.2190    5.4380   22.2720 C   0  0  0  0  0  0  0  0  0  0  0  0
   10.9510    5.7340   22.6580 C   0  0  0  0  0  0  0  0  0  0  0  0
   10.1690    4.8060   23.3300 C   0  0  0  0  0  0  0  0  0  0  0  0
   10.7700    3.5530   23.5860 C   0  0  0  0  0  0  0  0  0  0  0  0
   12.1060    3.1990   23.2060 C   0  0  0  0  0  0  0  0  0  0  0  0
   12.6850    2.1100   23.4220 O   0  0  0  0  0  0  0  0  0  0  0  0
   11.9730    1.0540   23.0660 C   0  0  0  0  0  0  0  0  0  0  0  0
   10.5270    1.3570   23.0690 C   0  0  0  0  0  0  0  0  0  0  0  0
    9.6570    0.4170   22.7210 C   0  0  0  0  0  0  0  0  0  0  0  0
   10.0990   -0.8180   22.3510 C   0  0  0  0  0  0  0  0  0  0  0  0
    8.9410   -1.5370   21.9880 N   0  0  0  0  0  0  0  0  0  0  0  0
    8.0900   -0.7260   21.3090 C   0  0  0  0  0  0  0  0  0  0  0  0
    8.4370    0.5620   21.0220 O   0  0  0  0  0  0  0  0  0  0  0  0
    6.8830   -1.1450   20.8890 N   0  0  0  0  0  0  0  0  0  0  0  0
    6.2340   -0.3030   19.9730 C   0  0  0  0  0  0  0  0  0  0  0  0
    5.0560    0.4140   20.1870 C   0  0  0  0  0  0  0  0  0  0  0  0
    4.5170    1.2400   19.1930 C   0  0  0  0  0  0  0  0  0  0  0  0
    5.1240    1.3890   17.9430 C   0  0  0  0  0  0  0  0  0  0  0  0
    6.3340    0.6330   17.7450 N   0  0  0  0  0  0  0  0  0  0  0  0
    6.8260   -0.1580   18.7390 C   0  0  0  0  0  0  0  0  0  0  0  0
   11.4420   -1.2070   22.3300 C   0  0  0  0  0  0  0  0  0  0  0  0
   12.3910   -0.2420   22.7010 C   0  0  0  0  0  0  0  0  0  0  0  0
   13.6480   -0.6550   22.6600 F   0  0  0  0  0  0  0  0  0  0  0  0
   12.8670    4.0990   22.5500 C   0  0  0  0  0  0  0  0  0  0  0  0
  1  2  1  0
  2  3  1  0
  3  4  2  0
  4  5  1  0
  5  6  2  0
  6  7  1  0
  7  8  1  0
  8  9  1  0
  9 10  2  0
 10 11  1  0
 11 12  2  0
 12 13  1  0
 13 14  1  0
 14 15  2  0
 14 16  1  0
 16 17  1  0
 17 18  2  0
 18 19  1  0
 19 20  2  0
 20 21  1  0
 17 22  1  0
 21 22  2  0
 12 23  1  0
  9 24  1  0
 23 24  2  0
 24 25  1  0
  3 26  1  0
  7 26  2  0
M  END
