pyridine_urea_1198
     RDKit          3D

 21 23  0  0  0  0  0  0  0  0999 V2000
    8.3970    1.4190   21.7110 O   0  0  0  0  0  0  0  0  0  0  0  0
    8.6340    0.2180   21.9610 C   0  0  0  0  0  0  0  0  0  0  0  0
    7.7560   -0.6900   21.3650 N   0  0  0  0  0  0  0  0  0  0  0  0
    7.0270   -0.0980   20.2070 C   0  0  0  0  0  0  0  0  0  0  0  0
    5.7730    0.6550   20.5330 C   0  0  0  0  0  0  0  0  0  0  0  0
    5.0130    1.2780   19.5760 C   0  0  0  0  0  0  0  0  0  0  0  0
    5.3880    1.1400   18.2270 C   0  0  0  0  0  0  0  0  0  0  0  0
    6.5610    0.4270   17.9550 N   0  0  0  0  0  0  0  0  0  0  0  0
    7.3590   -0.1710   18.8870 C   0  0  0  0  0  0  0  0  0  0  0  0
    9.7700   -0.1340   22.6750 N   0  0  0  0  0  0  0  0  0  0  0  0
   11.0770   -0.1910   23.2760 C   0  0  1  0  0  0  0  0  0  0  0  0
   11.7050   -0.4540   22.0010 C   0  0  0  0  0  0  0  0  0  0  0  0
   11.8260   -1.1240   23.5200 S   0  0  0  0  0  0  0  0  0  0  0  0
   11.3750   -2.5210   23.6330 O   0  0  0  0  0  0  0  0  0  0  0  0
   13.1160   -0.6200   24.0910 O   0  0  0  0  0  0  0  0  0  0  0  0
   10.5200   -0.0600   24.3710 C   0  0  0  0  0  0  0  0  0  0  0  0
   10.5790   -1.3920   24.2150 C   0  0  0  0  0  0  0  0  0  0  0  0
   11.2170   -1.7170   23.6030 C   0  0  0  0  0  0  0  0  0  0  0  0
   12.0430   -0.3900   22.8260 C   0  0  0  0  0  0  0  0  0  0  0  0
   12.0490    1.0010   22.8910 C   0  0  0  0  0  0  0  0  0  0  0  0
   11.1550    1.0960   23.8290 C   0  0  0  0  0  0  0  0  0  0  0  0
  1  2  2  0
  2  3  1  0
  3  4  1  0
  4  5  2  0
  5  6  1  0
  6  7  2  0
  7  8  1  0
  4  9  1  0
  8  9  2  0
  2 10  1  0
 11 10  1  6
 11 12  1  0
 13 12  1  0
 13 14  2  0
 13 15  2  0
 13 16  1  0
 16 17  1  0
 17 18  2  0
 18 19  1  0
 19 20  2  0
 11 21  1  0
 16 21  2  0
 20 21  1  0
M  END
