pyridine_urea_3686
     RDKit          3D

 19 21  0  0  0  0  0  0  0  0999 V2000
    8.5210    0.7460   21.2010 O   0  0  0  0  0  0  0  0  0  0  0  0
    7.9810   -0.2950   21.5620 C   0  0  0  0  0  0  0  0  0  0  0  0
    6.8910   -0.8520   20.9610 N   0  0  0  0  0  0  0  0  0  0  0  0
    6.3080   -0.0770   19.9250 C   0  0  0  0  0  0  0  0  0  0  0  0
    5.0380    0.6930   20.2620 C   0  0  0  0  0  0  0  0  0  0  0  0
    4.4230    1.5340   19.1480 C   0  0  0  0  0  0  0  0  0  0  0  0
    5.1680    1.4980   17.8150 C   0  0  0  0  0  0  0  0  0  0  0  0
    6.3280    0.7250   17.6780 N   0  0  0  0  0  0  0  0  0  0  0  0
    6.8640   -0.0190   18.6790 C   0  0  0  0  0  0  0  0  0  0  0  0
    8.3660   -1.0580   22.6210 N   0  0  0  0  0  0  0  0  0  0  0  0
    9.7140   -1.1320   22.9280 C   0  0  0  0  0  0  0  0  0  0  0  0
   10.3460   -0.1730   23.5970 C   0  0  0  0  0  0  0  0  0  0  0  0
   11.4010   -0.0050   22.7870 N   0  0  0  0  0  0  0  0  0  0  0  0
   12.3020   -0.8420   23.2650 C   0  0  0  0  0  0  0  0  0  0  0  0
   12.3030   -1.3550   24.4900 N   0  0  0  0  0  0  0  0  0  0  0  0
   13.2740   -2.2680   24.6180 C   0  0  0  0  0  0  0  0  0  0  0  0
   13.4920   -2.7600   23.3180 C   0  0  0  0  0  0  0  0  0  0  0  0
   13.4650   -1.4120   22.2520 S   0  0  0  0  0  0  0  0  0  0  0  0
   10.6130   -0.8100   21.9730 C   0  0  0  0  0  0  0  0  0  0  0  0
  1  2  2  0
  2  3  1  0
  3  4  1  0
  4  5  2  0
  5  6  1  0
  6  7  2  0
  7  8  1  0
  4  9  1  0
  8  9  2  0
  2 10  1  0
 10 11  1  0
 11 12  1  0
 12 13  1  0
 13 14  1  0
 14 15  2  0
 15 16  1  0
 16 17  1  0
 14 18  1  0
 17 18  1  0
 11 19  1  0
 13 19  1  0
M  END
