pyridine_urea_1480
     RDKit          3D

 24 26  0  0  0  0  0  0  0  0999 V2000
    8.8010    0.3230   21.3470 O   0  0  0  0  0  0  0  0  0  0  0  0
    8.1000   -0.6770   21.4630 C   0  0  0  0  0  0  0  0  0  0  0  0
    8.5290   -1.8410   22.0550 N   0  0  0  0  0  0  0  0  0  0  0  0
    9.9360   -1.9650   22.2240 C   0  0  0  0  0  0  0  0  0  0  0  0
   10.3420   -0.5710   22.6190 C   0  0  0  0  0  0  0  0  0  0  0  0
   11.5420   -1.3040   22.3590 C   0  0  0  0  0  0  0  0  0  0  0  0
   12.6880   -0.6700   22.4920 C   0  0  0  0  0  0  0  0  0  0  0  0
   13.2600    0.4630   22.7880 C   0  0  0  0  0  0  0  0  0  0  0  0
   12.2000    1.2570   23.0570 C   0  0  0  0  0  0  0  0  0  0  0  0
   12.2340    2.5780   23.4130 C   0  0  0  0  0  0  0  0  0  0  0  0
   11.6190    3.4770   22.5880 N   0  0  0  0  0  0  0  0  0  0  0  0
   10.6420    4.3490   23.1050 C   0  0  0  0  0  0  0  0  0  0  0  0
   11.1570    5.4390   23.8250 C   0  0  0  0  0  0  0  0  0  0  0  0
   11.9330    6.2430   23.0440 O   0  0  0  0  0  0  0  0  0  0  0  0
   12.8610    5.5750   22.2990 C   0  0  0  0  0  0  0  0  0  0  0  0
   12.6000    4.1680   21.8410 C   0  0  0  0  0  0  0  0  0  0  0  0
   10.9180    0.7050   22.9690 C   0  0  0  0  0  0  0  0  0  0  0  0
    6.8150   -0.7970   21.0370 N   0  0  0  0  0  0  0  0  0  0  0  0
    6.2790   -0.0550   19.9860 C   0  0  0  0  0  0  0  0  0  0  0  0
    5.0970    0.6220   20.1980 C   0  0  0  0  0  0  0  0  0  0  0  0
    4.5450    1.4260   19.0470 C   0  0  0  0  0  0  0  0  0  0  0  0
    5.2530    1.4270   17.8680 C   0  0  0  0  0  0  0  0  0  0  0  0
    6.3990    0.7460   17.7050 N   0  0  0  0  0  0  0  0  0  0  0  0
    6.8770    0.0360   18.7460 C   0  0  0  0  0  0  0  0  0  0  0  0
  1  2  2  0
  2  3  1  0
  3  4  1  0
  4  5  1  0
  5  6  2  0
  6  7  1  0
  7  8  2  0
  8  9  1  0
  9 10  1  0
 10 11  1  0
 11 12  1  0
 12 13  1  0
 13 14  1  0
 14 15  1  0
 11 16  1  0
 15 16  1  0
  5 17  1  0
  9 17  2  0
  2 18  1  0
 18 19  1  0
 19 20  2  0
 20 21  1  0
 21 22  2  0
 22 23  1  0
 19 24  1  0
 23 24  2  0
M  END
