pyridine_urea_2192
     RDKit          3D

 26 28  0  0  0  0  0  0  0  0999 V2000
   13.3220    0.2440   22.5300 C   0  0  0  0  0  0  0  0  0  0  0  0
   12.4830   -0.0690   23.7280 C   0  0  0  0  0  0  0  0  0  0  0  0
   11.1840    0.6800   23.4630 C   0  0  0  0  0  0  0  0  0  0  0  0
   10.2010    0.0020   22.4560 C   0  0  0  0  0  0  0  0  0  0  0  0
    9.4950   -0.9420   21.6060 C   0  0  0  0  0  0  0  0  0  0  0  0
    8.4190   -0.7710   20.7970 N   0  0  0  0  0  0  0  0  0  0  0  0
    7.8210    0.3800   21.0500 C   0  0  0  0  0  0  0  0  0  0  0  0
    8.4160    1.4580   21.1370 O   0  0  0  0  0  0  0  0  0  0  0  0
    6.4380    0.0970   21.1250 N   0  0  0  0  0  0  0  0  0  0  0  0
    5.9710    0.5600   19.9810 C   0  0  0  0  0  0  0  0  0  0  0  0
    4.8030    1.2890   19.9730 C   0  0  0  0  0  0  0  0  0  0  0  0
    4.3490    1.8030   18.7920 C   0  0  0  0  0  0  0  0  0  0  0  0
    5.1010    1.5530   17.6640 C   0  0  0  0  0  0  0  0  0  0  0  0
    6.2300    0.8370   17.6190 N   0  0  0  0  0  0  0  0  0  0  0  0
    6.6470    0.3490   18.7900 C   0  0  0  0  0  0  0  0  0  0  0  0
    9.7600   -2.2480   21.4490 C   0  0  0  0  0  0  0  0  0  0  0  0
   10.6810   -2.4900   22.1250 N   0  0  0  0  0  0  0  0  0  0  0  0
   10.8500   -1.2740   22.6220 N   0  0  0  0  0  0  0  0  0  0  0  0
   11.7110   -1.5810   23.3230 C   0  0  0  0  0  0  0  0  0  0  0  0
   12.8560   -2.2840   23.0730 C   0  0  0  0  0  0  0  0  0  0  0  0
   13.7050   -2.5270   24.1500 C   0  0  0  0  0  0  0  0  0  0  0  0
   13.3600   -2.0380   25.4220 C   0  0  0  0  0  0  0  0  0  0  0  0
   12.1670   -1.3890   25.3430 C   0  0  0  0  0  0  0  0  0  0  0  0
   10.9080   -0.5860   25.8210 C   0  0  0  0  0  0  0  0  0  0  0  0
    9.9020   -0.0690   26.1600 N   0  0  0  0  0  0  0  0  0  0  0  0
   11.3250   -1.1270   24.4070 C   0  0  0  0  0  0  0  0  0  0  0  0
  1  2  1  0
  2  3  1  0
  3  4  1  0
  4  5  2  0
  5  6  1  0
  6  7  1  0
  7  8  2  0
  7  9  1  0
  9 10  1  0
 10 11  2  0
 11 12  1  0
 12 13  2  0
 13 14  1  0
 10 15  1  0
 14 15  2  0
  5 16  1  0
 16 17  2  0
  4 18  1  0
 17 18  1  0
 18 19  1  0
 19 20  2  0
 20 21  1  0
 21 22  2  0
 22 23  1  0
 23 24  1  0
 24 25  3  0
 19 26  1  0
 23 26  2  0
M  END
