pyridine_urea_10603
     RDKit          3D

 21 23  0  0  0  0  0  0  0  0999 V2000
    8.6420    1.5020   20.9100 O   0  0  0  0  0  0  0  0  0  0  0  0
    8.0710    0.5200   21.3730 C   0  0  0  0  0  0  0  0  0  0  0  0
    7.1240   -0.2760   20.8230 N   0  0  0  0  0  0  0  0  0  0  0  0
    6.3340    0.3130   19.8990 C   0  0  0  0  0  0  0  0  0  0  0  0
    4.9990    0.9900   20.2100 C   0  0  0  0  0  0  0  0  0  0  0  0
    4.3630    1.6100   18.9840 C   0  0  0  0  0  0  0  0  0  0  0  0
    5.1030    1.4740   17.6950 C   0  0  0  0  0  0  0  0  0  0  0  0
    6.2700    0.8300   17.5580 N   0  0  0  0  0  0  0  0  0  0  0  0
    6.8290    0.2870   18.6280 C   0  0  0  0  0  0  0  0  0  0  0  0
    8.3410    0.0930   22.5800 N   0  0  0  0  0  0  0  0  0  0  0  0
    9.5870   -0.4780   22.6960 C   0  0  0  0  0  0  0  0  0  0  0  0
   10.2290   -0.9800   21.6090 C   0  0  0  0  0  0  0  0  0  0  0  0
   11.4680   -1.5710   21.6930 C   0  0  0  0  0  0  0  0  0  0  0  0
   11.9910   -1.6320   22.9120 C   0  0  0  0  0  0  0  0  0  0  0  0
   13.1470   -2.2260   23.0230 N   0  0  0  0  0  0  0  0  0  0  0  0
   13.7500   -2.3610   24.3030 C   0  0  0  0  0  0  0  0  0  0  0  0
   13.1120   -1.8220   25.4410 C   0  0  0  0  0  0  0  0  0  0  0  0
   11.7550   -1.1670   25.0880 C   0  0  0  0  0  0  0  0  0  0  0  0
   10.4640   -0.3930   25.9230 Cl  0  0  0  0  0  0  0  0  0  0  0  0
   11.3290   -1.1250   23.9400 C   0  0  0  0  0  0  0  0  0  0  0  0
   10.1370   -0.5350   23.8700 C   0  0  0  0  0  0  0  0  0  0  0  0
  1  2  2  0
  2  3  1  0
  3  4  1  0
  4  5  2  0
  5  6  1  0
  6  7  2  0
  7  8  1  0
  4  9  1  0
  8  9  2  0
  2 10  1  0
 10 11  1  0
 11 12  2  0
 12 13  1  0
 13 14  2  0
 14 15  1  0
 15 16  2  0
 16 17  1  0
 17 18  2  0
 18 19  1  0
 14 20  1  0
 18 20  1  0
 11 21  1  0
 20 21  2  0
M  END
