pyridine_urea_4245
     RDKit          3D

 24 26  0  0  0  0  0  0  0  0999 V2000
    9.4140    3.1750   22.1270 C   0  0  0  0  0  0  0  0  0  0  0  0
    9.3070    1.9850   22.8960 O   0  0  0  0  0  0  0  0  0  0  0  0
   10.4500    1.1290   22.8220 C   0  0  0  0  0  0  0  0  0  0  0  0
   10.3170   -0.3450   22.6060 C   0  0  0  0  0  0  0  0  0  0  0  0
    9.1210   -0.9270   22.4430 N   0  0  0  0  0  0  0  0  0  0  0  0
    8.3890   -0.1800   21.5780 C   0  0  0  0  0  0  0  0  0  0  0  0
    8.8390    1.1020   21.1030 O   0  0  0  0  0  0  0  0  0  0  0  0
    7.1350   -0.7890   21.1920 N   0  0  0  0  0  0  0  0  0  0  0  0
    6.4910   -0.1260   20.1770 C   0  0  0  0  0  0  0  0  0  0  0  0
    5.1870    0.6620   20.3930 C   0  0  0  0  0  0  0  0  0  0  0  0
    4.5520    1.3870   19.1980 C   0  0  0  0  0  0  0  0  0  0  0  0
    5.2070    1.2840   17.9830 C   0  0  0  0  0  0  0  0  0  0  0  0
    6.3300    0.6160   17.7310 N   0  0  0  0  0  0  0  0  0  0  0  0
    6.9400   -0.0430   18.7240 C   0  0  0  0  0  0  0  0  0  0  0  0
   11.5350   -1.2520   22.5380 C   0  0  0  0  0  0  0  0  0  0  0  0
   12.7760   -0.5880   22.6900 C   0  0  0  0  0  0  0  0  0  0  0  0
   12.9580    0.7960   22.8810 C   0  0  0  0  0  0  0  0  0  0  0  0
   11.8170    1.7440   22.9520 C   0  0  0  0  0  0  0  0  0  0  0  0
   12.0120    3.1350   23.1130 C   0  0  0  0  0  0  0  0  0  0  0  0
   13.0260    3.8180   22.5770 N   0  0  0  0  0  0  0  0  0  0  0  0
   12.9270    5.1070   22.9120 C   0  0  0  0  0  0  0  0  0  0  0  0
   11.8290    5.1920   23.6620 N   0  0  0  0  0  0  0  0  0  0  0  0
   11.3030    6.4310   24.2780 C   0  0  0  0  0  0  0  0  0  0  0  0
   11.2120    3.9840   23.8180 N   0  0  0  0  0  0  0  0  0  0  0  0
  1  2  1  0
  2  3  1  0
  3  4  2  0
  4  5  1  0
  5  6  1  0
  6  7  2  0
  6  8  1  0
  8  9  1  0
  9 10  2  0
 10 11  1  0
 11 12  2  0
 12 13  1  0
  9 14  1  0
 13 14  2  0
  4 15  1  0
 15 16  2  0
 16 17  1  0
  3 18  1  0
 17 18  2  0
 18 19  1  0
 19 20  1  0
 20 21  2  0
 21 22  1  0
 22 23  1  0
 19 24  2  0
 22 24  1  0
M  END
