pyridine_urea_14173
     RDKit          3D

 22 24  0  0  0  0  0  0  0  0999 V2000
   13.6440   -2.6350   23.5180 C   0  0  0  0  0  0  0  0  0  0  0  0
   13.6930   -1.6410   22.5040 O   0  0  0  0  0  0  0  0  0  0  0  0
   12.7600   -0.7500   22.7950 C   0  0  0  0  0  0  0  0  0  0  0  0
   12.9150    0.6830   22.9820 C   0  0  0  0  0  0  0  0  0  0  0  0
   11.7150    1.4790   23.3160 C   0  0  0  0  0  0  0  0  0  0  0  0
   10.5590    0.6640   23.3960 C   0  0  0  0  0  0  0  0  0  0  0  0
    9.4120    2.1980   23.8170 Br  0  0  0  0  0  0  0  0  0  0  0  0
   11.9130    0.2830   23.1100 C   0  0  0  0  0  0  0  0  0  0  0  0
   11.4430   -1.0510   22.9830 C   0  0  0  0  0  0  0  0  0  0  0  0
   10.0700   -0.4460   23.3280 C   0  0  2  0  0  0  0  0  0  0  0  0
    9.1600   -0.8920   22.2770 N   0  0  0  0  0  0  0  0  0  0  0  0
    8.5080    0.0340   21.4840 C   0  0  0  0  0  0  0  0  0  0  0  0
    8.9530    1.1490   21.1790 O   0  0  0  0  0  0  0  0  0  0  0  0
    7.2850   -0.4500   21.0720 N   0  0  0  0  0  0  0  0  0  0  0  0
    6.5580    0.1320   20.0310 C   0  0  0  0  0  0  0  0  0  0  0  0
    5.3980    0.8500   20.3150 C   0  0  0  0  0  0  0  0  0  0  0  0
    4.7010    1.4340   19.2790 C   0  0  0  0  0  0  0  0  0  0  0  0
    5.1410    1.3110   17.9870 C   0  0  0  0  0  0  0  0  0  0  0  0
    6.2460    0.6170   17.6830 N   0  0  0  0  0  0  0  0  0  0  0  0
    6.9240    0.0470   18.7040 C   0  0  0  0  0  0  0  0  0  0  0  0
   10.1150    0.9700   23.6650 C   0  0  0  0  0  0  0  0  0  0  0  0
   11.3840    1.6060   23.4160 C   0  0  0  0  0  0  0  0  0  0  0  0
  1  2  1  0
  2  3  1  0
  3  4  2  0
  4  5  1  0
  5  6  2  0
  6  7  1  0
  6  8  1  0
  3  9  1  0
  8  9  2  0
  9 10  1  0
 10 11  1  6
 11 12  1  0
 12 13  2  0
 12 14  1  0
 14 15  1  0
 15 16  2  0
 16 17  1  0
 17 18  2  0
 18 19  1  0
 15 20  1  0
 19 20  2  0
 10 21  1  0
  8 22  1  0
 21 22  1  0
M  END
