pyridine_urea_7071
     RDKit          3D

 20 20  0  0  0  0  0  0  0  0999 V2000
   13.2850   -1.8540   21.2420 C   0  0  0  0  0  0  0  0  0  0  0  0
   13.5270   -0.8060   21.8170 O   0  0  0  0  0  0  0  0  0  0  0  0
   12.5010   -0.3170   22.5550 C   0  0  0  0  0  0  0  0  0  0  0  0
   12.5410    0.7080   23.2260 O   0  0  0  0  0  0  0  0  0  0  0  0
   11.3860   -1.1420   22.4370 C   0  0  0  0  0  0  0  0  0  0  0  0
   10.2210   -0.7860   23.0780 C   0  0  1  0  0  0  0  0  0  0  0  0
    9.0920   -1.0430   22.1800 N   0  0  0  0  0  0  0  0  0  0  0  0
    8.3880   -0.0650   21.4670 C   0  0  0  0  0  0  0  0  0  0  0  0
    8.9330    1.2400   21.1500 O   0  0  0  0  0  0  0  0  0  0  0  0
    7.1580   -0.5170   21.1320 N   0  0  0  0  0  0  0  0  0  0  0  0
    6.5550    0.0640   20.0800 C   0  0  0  0  0  0  0  0  0  0  0  0
    5.2940    0.9220   20.2510 C   0  0  0  0  0  0  0  0  0  0  0  0
    4.6330    1.5480   19.2010 C   0  0  0  0  0  0  0  0  0  0  0  0
    5.1800    1.3660   17.9320 C   0  0  0  0  0  0  0  0  0  0  0  0
    6.3050    0.5990   17.7490 N   0  0  0  0  0  0  0  0  0  0  0  0
    6.9920   -0.0500   18.7800 C   0  0  0  0  0  0  0  0  0  0  0  0
    9.9770   -1.7750   24.1970 C   0  0  0  0  0  0  0  0  0  0  0  0
    9.0130   -1.7370   24.9390 O   0  0  0  0  0  0  0  0  0  0  0  0
   10.9340   -2.7680   24.2270 O   0  0  0  0  0  0  0  0  0  0  0  0
   12.2540   -2.4180   24.6540 C   0  0  0  0  0  0  0  0  0  0  0  0
  1  2  1  0
  2  3  1  0
  3  4  2  0
  3  5  1  0
  6  5  1  6
  6  7  1  0
  7  8  1  0
  8  9  2  0
  8 10  1  0
 10 11  1  0
 11 12  2  0
 12 13  1  0
 13 14  2  0
 14 15  1  0
 11 16  1  0
 15 16  2  0
  6 17  1  0
 17 18  2  0
 17 19  1  0
 19 20  1  0
M  END
