pyridine_urea_2588
     RDKit          3D

 23 24  0  0  0  0  0  0  0  0999 V2000
   13.6940   -2.3610   24.0230 C   0  0  0  0  0  0  0  0  0  0  0  0
   13.3640   -1.0290   23.9990 N   0  0  0  0  0  0  0  0  0  0  0  0
   12.0950   -0.8170   24.0850 C   0  0  0  0  0  0  0  0  0  0  0  0
   11.4880   -1.0060   22.9100 C   0  0  0  0  0  0  0  0  0  0  0  0
   10.2000   -0.9150   22.4970 C   0  0  0  0  0  0  0  0  0  0  0  0
    9.6690   -0.5420   23.7620 C   0  0  0  0  0  0  0  0  0  0  0  0
    8.3480   -0.3700   23.7480 C   0  0  0  0  0  0  0  0  0  0  0  0
    7.9980   -1.1000   22.5730 N   0  0  0  0  0  0  0  0  0  0  0  0
    7.8990   -0.4050   21.4320 C   0  0  0  0  0  0  0  0  0  0  0  0
    8.6680    0.4820   21.1020 O   0  0  0  0  0  0  0  0  0  0  0  0
    6.8040   -0.8300   20.7670 N   0  0  0  0  0  0  0  0  0  0  0  0
    6.2340   -0.0490   19.7960 C   0  0  0  0  0  0  0  0  0  0  0  0
    5.0160    0.5950   20.0430 C   0  0  0  0  0  0  0  0  0  0  0  0
    4.4850    1.3800   19.0470 C   0  0  0  0  0  0  0  0  0  0  0  0
    5.1450    1.5150   17.8540 C   0  0  0  0  0  0  0  0  0  0  0  0
    6.3110    0.9070   17.5890 N   0  0  0  0  0  0  0  0  0  0  0  0
    6.8320    0.1330   18.5700 C   0  0  0  0  0  0  0  0  0  0  0  0
   10.2190   -0.3210   25.0230 C   0  0  0  0  0  0  0  0  0  0  0  0
   11.5040   -0.4720   25.1620 C   0  0  0  0  0  0  0  0  0  0  0  0
   13.4330   -0.1090   22.5850 S   0  0  0  0  0  0  0  0  0  0  0  0
   11.9570    0.8810   22.7730 C   0  0  0  0  0  0  0  0  0  0  0  0
   13.3390   -1.0630   21.5010 O   0  0  0  0  0  0  0  0  0  0  0  0
   14.4180    0.8920   22.6350 O   0  0  0  0  0  0  0  0  0  0  0  0
  1  2  1  0
  2  3  1  0
  3  4  2  0
  4  5  1  0
  5  6  2  0
  6  7  1  0
  7  8  1  0
  8  9  1  0
  9 10  2  0
  9 11  1  0
 11 12  1  0
 12 13  2  0
 13 14  1  0
 14 15  2  0
 15 16  1  0
 12 17  1  0
 16 17  2  0
  6 18  1  0
  3 19  1  0
 18 19  2  0
 20  2  1  0
 20 21  1  0
 20 22  2  0
 20 23  2  0
M  END
