pyridine_urea_6109
     RDKit          3D

 25 27  0  0  0  0  0  0  0  0999 V2000
   13.2400    1.5570   22.9550 C   0  0  0  0  0  0  0  0  0  0  0  0
   12.2920    0.5480   22.7400 C   0  0  0  0  0  0  0  0  0  0  0  0
   12.4500   -0.7850   22.4040 C   0  0  0  0  0  0  0  0  0  0  0  0
   11.3170   -1.5690   22.2180 C   0  0  0  0  0  0  0  0  0  0  0  0
   10.0400   -1.0050   22.3800 C   0  0  0  0  0  0  0  0  0  0  0  0
    8.7590   -1.5420   22.2180 N   0  0  0  0  0  0  0  0  0  0  0  0
    8.0860   -0.6300   21.4260 C   0  0  0  0  0  0  0  0  0  0  0  0
    8.5630    0.4600   21.1410 O   0  0  0  0  0  0  0  0  0  0  0  0
    6.8660   -1.0240   20.9760 N   0  0  0  0  0  0  0  0  0  0  0  0
    6.2400   -0.2300   20.0110 C   0  0  0  0  0  0  0  0  0  0  0  0
    4.9620    0.5660   20.1630 C   0  0  0  0  0  0  0  0  0  0  0  0
    4.4630    1.3200   19.1290 C   0  0  0  0  0  0  0  0  0  0  0  0
    5.1850    1.3240   17.9360 C   0  0  0  0  0  0  0  0  0  0  0  0
    6.3330    0.6260   17.7500 N   0  0  0  0  0  0  0  0  0  0  0  0
    6.8300   -0.1220   18.7650 C   0  0  0  0  0  0  0  0  0  0  0  0
    9.8820    0.4360   22.7720 C   0  0  0  0  0  0  0  0  0  0  0  0
   10.9500    1.1950   22.9410 C   0  0  0  0  0  0  0  0  0  0  0  0
   10.9780    2.5220   23.2710 O   0  0  0  0  0  0  0  0  0  0  0  0
    9.7800    3.2760   23.2920 C   0  0  0  0  0  0  0  0  0  0  0  0
   10.1520    4.6080   23.4990 C   0  0  0  0  0  0  0  0  0  0  0  0
   11.4210    4.8660   22.9750 C   0  0  0  0  0  0  0  0  0  0  0  0
   11.6520    6.2430   22.9470 C   0  0  0  0  0  0  0  0  0  0  0  0
   11.4220    6.8590   24.1870 C   0  0  0  0  0  0  0  0  0  0  0  0
   11.0680    5.9590   25.2150 C   0  0  0  0  0  0  0  0  0  0  0  0
   10.1010    5.0120   24.8470 C   0  0  0  0  0  0  0  0  0  0  0  0
  1  2  1  0
  2  3  2  0
  3  4  1  0
  4  5  2  0
  5  6  1  0
  6  7  1  0
  7  8  2  0
  7  9  1  0
  9 10  1  0
 10 11  2  0
 11 12  1  0
 12 13  2  0
 13 14  1  0
 10 15  1  0
 14 15  2  0
  5 16  1  0
  2 17  1  0
 16 17  2  0
 17 18  1  0
 18 19  1  0
 19 20  1  0
 20 21  1  0
 21 22  1  0
 22 23  1  0
 23 24  1  0
 20 25  1  0
 24 25  1  0
M  END
