pyridine_urea_906
     RDKit          3D

 22 24  0  0  0  0  0  0  0  0999 V2000
    8.7470    0.6470   21.1170 O   0  0  0  0  0  0  0  0  0  0  0  0
    8.4110   -0.4640   21.5010 C   0  0  0  0  0  0  0  0  0  0  0  0
    9.3080   -1.1990   22.4240 N   0  0  0  0  0  0  0  0  0  0  0  0
   10.3160   -0.2660   22.6120 C   0  0  0  0  0  0  0  0  0  0  0  0
   11.7180   -0.5170   22.5820 C   0  0  0  0  0  0  0  0  0  0  0  0
   12.6240    0.5860   22.7180 C   0  0  0  0  0  0  0  0  0  0  0  0
   12.0700    1.8930   22.8700 C   0  0  0  0  0  0  0  0  0  0  0  0
   12.7070    3.2650   22.9700 C   0  0  1  0  0  0  0  0  0  0  0  0
   12.2780    4.0400   21.7270 C   0  0  0  0  0  0  0  0  0  0  0  0
   12.9730    5.2880   21.7620 N   0  0  0  0  0  0  0  0  0  0  0  0
   13.2400    5.6250   23.0340 C   0  0  0  0  0  0  0  0  0  0  0  0
   12.2760    5.1250   23.8890 C   0  0  0  0  0  0  0  0  0  0  0  0
   12.0540    3.8980   23.8190 O   0  0  0  0  0  0  0  0  0  0  0  0
   10.7220    2.0310   22.9250 C   0  0  0  0  0  0  0  0  0  0  0  0
    9.8610    1.0090   22.8080 C   0  0  0  0  0  0  0  0  0  0  0  0
    7.2230   -1.0060   21.0840 N   0  0  0  0  0  0  0  0  0  0  0  0
    6.4980   -0.2950   20.1590 C   0  0  0  0  0  0  0  0  0  0  0  0
    5.2740    0.3630   20.3600 C   0  0  0  0  0  0  0  0  0  0  0  0
    4.6310    1.0840   19.3250 C   0  0  0  0  0  0  0  0  0  0  0  0
    5.2200    1.1510   18.0610 C   0  0  0  0  0  0  0  0  0  0  0  0
    6.3930    0.5270   17.8260 N   0  0  0  0  0  0  0  0  0  0  0  0
    7.0220   -0.1940   18.8810 C   0  0  0  0  0  0  0  0  0  0  0  0
  1  2  2  0
  2  3  1  0
  3  4  1  0
  4  5  2  0
  5  6  1  0
  6  7  2  0
  8  7  1  6
  8  9  1  0
  9 10  1  0
 10 11  1  0
 11 12  1  0
  8 13  1  0
 12 13  1  0
  7 14  1  0
  4 15  1  0
 14 15  2  0
  2 16  1  0
 16 17  1  0
 17 18  2  0
 18 19  1  0
 19 20  2  0
 20 21  1  0
 17 22  1  0
 21 22  2  0
M  END
