pyridine_urea_10467
     RDKit          3D

 22 24  0  0  0  0  0  0  0  0999 V2000
    9.2290    3.0730   22.0850 C   0  0  0  0  0  0  0  0  0  0  0  0
    8.7440    1.6780   22.5160 C   0  0  0  0  0  0  0  0  0  0  0  0
    7.7880    1.8990   23.7000 C   0  0  0  0  0  0  0  0  0  0  0  0
    7.9110    1.1240   21.4780 N   0  0  0  0  0  0  0  0  0  0  0  0
    8.1750   -0.2060   21.2740 C   0  0  0  0  0  0  0  0  0  0  0  0
    9.2720   -0.7040   21.3690 O   0  0  0  0  0  0  0  0  0  0  0  0
    6.9970   -0.7720   20.9030 N   0  0  0  0  0  0  0  0  0  0  0  0
    6.3230   -0.0640   19.9180 C   0  0  0  0  0  0  0  0  0  0  0  0
    5.1180    0.5580   20.2020 C   0  0  0  0  0  0  0  0  0  0  0  0
    4.4990    1.2810   19.1770 C   0  0  0  0  0  0  0  0  0  0  0  0
    5.1190    1.3410   17.9270 C   0  0  0  0  0  0  0  0  0  0  0  0
    6.2780    0.7300   17.6630 N   0  0  0  0  0  0  0  0  0  0  0  0
    6.8440    0.0470   18.6590 C   0  0  0  0  0  0  0  0  0  0  0  0
    9.8830    0.7340   22.9120 C   0  0  0  0  0  0  0  0  0  0  0  0
    9.5910   -0.5000   23.4170 N   0  0  0  0  0  0  0  0  0  0  0  0
   10.8190   -1.0840   23.6690 C   0  0  0  0  0  0  0  0  0  0  0  0
   10.7970   -2.3780   24.2070 C   0  0  0  0  0  0  0  0  0  0  0  0
   12.2170   -2.8120   24.4260 C   0  0  0  0  0  0  0  0  0  0  0  0
   13.2780   -2.0300   24.1060 C   0  0  0  0  0  0  0  0  0  0  0  0
   13.1490   -0.7550   23.5580 C   0  0  0  0  0  0  0  0  0  0  0  0
   11.9460   -0.1520   23.2930 C   0  0  0  0  0  0  0  0  0  0  0  0
   11.3530    0.9780   22.8190 N   0  0  0  0  0  0  0  0  0  0  0  0
  1  2  1  0
  2  3  1  0
  2  4  1  0
  4  5  1  0
  5  6  2  0
  5  7  1  0
  7  8  1  0
  8  9  2  0
  9 10  1  0
 10 11  2  0
 11 12  1  0
  8 13  1  0
 12 13  2  0
  2 14  1  0
 14 15  2  0
 15 16  1  0
 16 17  2  0
 17 18  1  0
 18 19  2  0
 19 20  1  0
 16 21  1  0
 20 21  2  0
 14 22  1  0
 21 22  1  0
M  END
