pyridine_urea_96
     RDKit          3D

 19 21  0  0  0  0  0  0  0  0999 V2000
    8.8270    0.7060   21.3030 O   0  0  0  0  0  0  0  0  0  0  0  0
    8.1870   -0.2680   21.6690 C   0  0  0  0  0  0  0  0  0  0  0  0
    8.5910   -1.0820   22.6960 N   0  0  0  0  0  0  0  0  0  0  0  0
    9.9920   -1.1270   23.0530 C   0  0  0  0  0  0  0  0  0  0  0  0
   10.4060   -0.0800   24.0910 C   0  0  2  0  0  0  0  0  0  0  0  0
    9.9350    1.2970   23.8020 C   0  0  0  0  0  0  0  0  0  0  0  0
   11.1530    1.6590   23.6700 C   0  0  2  0  0  0  0  0  0  0  0  0
   11.2070    2.1180   22.5480 O   0  0  0  0  0  0  0  0  0  0  0  0
   11.9360    0.4030   24.0760 C   0  0  0  0  0  0  0  0  0  0  0  0
   12.8140    0.5010   22.9130 C   0  0  0  0  0  0  0  0  0  0  0  0
   12.8650   -0.7100   22.4350 C   0  0  0  0  0  0  0  0  0  0  0  0
   12.5460   -1.0130   23.8630 C   0  0  0  0  0  0  0  0  0  0  0  0
    6.9920   -0.6850   21.1450 N   0  0  0  0  0  0  0  0  0  0  0  0
    6.3610    0.0130   20.0240 C   0  0  0  0  0  0  0  0  0  0  0  0
    5.1810    0.6860   20.3270 C   0  0  0  0  0  0  0  0  0  0  0  0
    4.5590    1.3750   19.2940 C   0  0  0  0  0  0  0  0  0  0  0  0
    5.1910    1.3550   17.9290 C   0  0  0  0  0  0  0  0  0  0  0  0
    6.3290    0.6920   17.6630 N   0  0  0  0  0  0  0  0  0  0  0  0
    6.9090    0.0310   18.6780 C   0  0  0  0  0  0  0  0  0  0  0  0
  1  2  2  0
  2  3  1  0
  3  4  1  0
  5  4  1  6
  5  6  1  0
  6  7  1  0
  7  8  1  6
  5  9  1  0
  7  9  1  0
  9 10  1  0
 10 11  1  0
  9 12  1  0
 11 12  1  0
  2 13  1  0
 13 14  1  0
 14 15  2  0
 15 16  1  0
 16 17  2  0
 17 18  1  0
 14 19  1  0
 18 19  2  0
M  END
