pyridine_urea_12067
     RDKit          3D

 23 24  0  0  0  0  0  0  0  0999 V2000
    9.2450   -0.3200   25.8780 C   0  0  0  0  0  0  0  0  0  0  0  0
    8.9500   -0.7080   24.7450 O   0  0  0  0  0  0  0  0  0  0  0  0
    9.0410    0.2370   23.7610 C   0  0  0  0  0  0  0  0  0  0  0  0
    8.4030    1.2820   23.7140 O   0  0  0  0  0  0  0  0  0  0  0  0
    9.9680   -0.1680   22.7890 C   0  0  1  0  0  0  0  0  0  0  0  0
   11.1120   -0.6160   23.4160 C   0  0  0  0  0  0  0  0  0  0  0  0
   12.3480   -0.1620   23.0040 C   0  0  0  0  0  0  0  0  0  0  0  0
   11.9960    1.0490   23.1830 C   0  0  0  0  0  0  0  0  0  0  0  0
   10.9290    1.7090   23.6050 C   0  0  0  0  0  0  0  0  0  0  0  0
   11.6350    2.9300   23.3390 C   0  0  0  0  0  0  0  0  0  0  0  0
   11.2240    4.6010   23.4840 Cl  0  0  0  0  0  0  0  0  0  0  0  0
   12.9360    2.3630   22.8650 N   0  0  0  0  0  0  0  0  0  0  0  0
   13.2690    0.9100   22.7220 C   0  0  0  0  0  0  0  0  0  0  0  0
    9.3270   -1.0100   21.9080 N   0  0  0  0  0  0  0  0  0  0  0  0
    8.3630   -0.1890   21.2970 C   0  0  0  0  0  0  0  0  0  0  0  0
    8.5710    0.9950   21.0600 O   0  0  0  0  0  0  0  0  0  0  0  0
    7.1880   -0.7790   20.9830 N   0  0  0  0  0  0  0  0  0  0  0  0
    6.4760   -0.0880   20.0620 C   0  0  0  0  0  0  0  0  0  0  0  0
    5.3080    0.6310   20.3270 C   0  0  0  0  0  0  0  0  0  0  0  0
    4.6580    1.3220   19.2960 C   0  0  0  0  0  0  0  0  0  0  0  0
    5.1940    1.2770   18.0220 C   0  0  0  0  0  0  0  0  0  0  0  0
    6.3080    0.5990   17.7210 N   0  0  0  0  0  0  0  0  0  0  0  0
    6.9520   -0.0930   18.7600 C   0  0  0  0  0  0  0  0  0  0  0  0
  1  2  1  0
  2  3  1  0
  3  4  2  0
  3  5  1  0
  5  6  1  1
  6  7  1  0
  7  8  2  0
  8  9  1  0
  9 10  2  0
 10 11  1  0
 10 12  1  0
  7 13  1  0
 12 13  2  0
  5 14  1  0
 14 15  1  0
 15 16  2  0
 15 17  1  0
 17 18  1  0
 18 19  2  0
 19 20  1  0
 20 21  2  0
 21 22  1  0
 18 23  1  0
 22 23  2  0
M  END
