pyridine_urea_656
     RDKit          3D

 24 26  0  0  0  0  0  0  0  0999 V2000
   13.6970   -2.3040   25.4110 C   0  0  0  0  0  0  0  0  0  0  0  0
   13.2580   -1.1510   25.4370 O   0  0  0  0  0  0  0  0  0  0  0  0
   12.3860   -0.9130   24.4360 C   0  0  0  0  0  0  0  0  0  0  0  0
   12.0670    0.2880   23.7990 C   0  0  0  0  0  0  0  0  0  0  0  0
   11.0800    0.2650   22.7340 C   0  0  0  0  0  0  0  0  0  0  0  0
   10.4130   -0.9670   22.3060 C   0  0  0  0  0  0  0  0  0  0  0  0
   10.6630   -2.2230   22.9030 C   0  0  0  0  0  0  0  0  0  0  0  0
   11.6730   -1.9330   23.9300 C   0  0  0  0  0  0  0  0  0  0  0  0
   11.2670   -0.9140   23.1260 C   0  0  0  0  0  0  0  0  0  0  0  0
   10.1160   -0.1940   23.5360 C   0  0  0  0  0  0  0  0  0  0  0  0
    8.8870   -0.4350   22.8440 N   0  0  0  0  0  0  0  0  0  0  0  0
    8.4040    0.2650   21.6270 C   0  0  0  0  0  0  0  0  0  0  0  0
    8.9220    1.3080   21.2050 O   0  0  0  0  0  0  0  0  0  0  0  0
    7.3240   -0.3970   21.0660 N   0  0  0  0  0  0  0  0  0  0  0  0
    6.5260    0.1810   20.0710 C   0  0  0  0  0  0  0  0  0  0  0  0
    5.2660    0.9240   20.2860 C   0  0  0  0  0  0  0  0  0  0  0  0
    4.5900    1.4660   19.1980 C   0  0  0  0  0  0  0  0  0  0  0  0
    5.1420    1.2800   17.9390 C   0  0  0  0  0  0  0  0  0  0  0  0
    6.2790    0.6020   17.7070 N   0  0  0  0  0  0  0  0  0  0  0  0
    6.9380    0.0700   18.7580 C   0  0  0  0  0  0  0  0  0  0  0  0
   11.1660   -1.5650   21.8700 C   0  0  0  0  0  0  0  0  0  0  0  0
   12.4210   -1.9560   21.4500 C   0  0  0  0  0  0  0  0  0  0  0  0
   13.2710   -1.1080   22.0680 C   0  0  0  0  0  0  0  0  0  0  0  0
   12.4950   -0.2590   22.8540 C   0  0  0  0  0  0  0  0  0  0  0  0
  1  2  1  0
  2  3  1  0
  3  4  2  0
  4  5  1  0
  5  6  2  0
  6  7  1  0
  3  8  1  0
  7  8  2  0
  8  9  1  0
  9 10  1  0
 10 11  1  0
 11 12  1  0
 12 13  2  0
 12 14  1  0
 14 15  1  0
 15 16  2  0
 16 17  1  0
 17 18  2  0
 18 19  1  0
 15 20  1  0
 19 20  2  0
  9 21  1  0
 21 22  1  0
 22 23  1  0
  9 24  1  0
 23 24  1  0
M  END
