pyridine_urea_1918
     RDKit          3D

 23 25  0  0  0  0  0  0  0  0999 V2000
   12.7390    2.9810   22.7510 C   0  0  0  0  0  0  0  0  0  0  0  0
   12.3240    1.5010   22.9830 C   0  0  0  0  0  0  0  0  0  0  0  0
   11.0890    1.3110   23.8350 C   0  0  0  0  0  0  0  0  0  0  0  0
   10.6470   -0.1630   24.0380 C   0  0  0  0  0  0  0  0  0  0  0  0
   11.4720   -1.3070   23.3910 C   0  0  0  0  0  0  0  0  0  0  0  0
   12.6240   -1.0610   22.6270 C   0  0  0  0  0  0  0  0  0  0  0  0
   12.8190    0.2730   22.5740 C   0  0  0  0  0  0  0  0  0  0  0  0
   11.6820   -0.0950   23.2980 C   0  0  0  0  0  0  0  0  0  0  0  0
   10.4390    0.4450   22.8790 C   0  0  0  0  0  0  0  0  0  0  0  0
    9.4760   -0.4310   22.2020 N   0  0  0  0  0  0  0  0  0  0  0  0
    8.5850    0.2540   21.3960 C   0  0  0  0  0  0  0  0  0  0  0  0
    8.7960    1.4320   21.0990 O   0  0  0  0  0  0  0  0  0  0  0  0
    7.4800   -0.4660   20.9800 N   0  0  0  0  0  0  0  0  0  0  0  0
    6.5760    0.1200   20.0840 C   0  0  0  0  0  0  0  0  0  0  0  0
    5.3590    0.7680   20.4830 C   0  0  0  0  0  0  0  0  0  0  0  0
    4.6140    1.3370   19.2670 C   0  0  0  0  0  0  0  0  0  0  0  0
    5.1210    1.1940   18.0030 C   0  0  0  0  0  0  0  0  0  0  0  0
    6.2570    0.5630   17.7230 N   0  0  0  0  0  0  0  0  0  0  0  0
    6.9340    0.0540   18.7540 C   0  0  0  0  0  0  0  0  0  0  0  0
   10.9650   -2.6750   23.6280 C   0  0  0  0  0  0  0  0  0  0  0  0
    9.6040   -2.7040   23.3320 C   0  0  0  0  0  0  0  0  0  0  0  0
    8.7230   -1.7320   24.1620 C   0  0  0  0  0  0  0  0  0  0  0  0
    9.4330   -0.5380   24.8310 C   0  0  0  0  0  0  0  0  0  0  0  0
  1  2  1  0
  2  3  2  0
  3  4  1  0
  4  5  2  0
  5  6  1  0
  2  7  1  0
  6  7  2  0
  7  8  1  0
  8  9  1  0
  9 10  1  0
 10 11  1  0
 11 12  2  0
 11 13  1  0
 13 14  1  0
 14 15  2  0
 15 16  1  0
 16 17  2  0
 17 18  1  0
 14 19  1  0
 18 19  2  0
  5 20  1  0
 20 21  1  0
 21 22  1  0
  4 23  1  0
 22 23  1  0
M  END
