pyridine_urea_3628
     RDKit          3D

 15 15  0  0  0  0  0  0  0  0999 V2000
    8.8660    0.8420   21.3520 O   0  0  0  0  0  0  0  0  0  0  0  0
    8.3430   -0.2500   21.5310 C   0  0  0  0  0  0  0  0  0  0  0  0
    8.8910   -1.2110   22.3440 N   0  0  0  0  0  0  0  0  0  0  0  0
   10.3210   -1.2240   22.4870 C   0  0  0  0  0  0  0  0  0  0  0  0
   10.7740   -0.1810   23.4820 C   0  0  0  0  0  0  0  0  0  0  0  0
   12.1030    0.4350   23.0930 C   0  0  0  0  0  0  0  0  0  0  0  0
   13.0600   -0.6220   22.6230 C   0  0  0  0  0  0  0  0  0  0  0  0
   13.2790   -1.5240   23.6120 F   0  0  0  0  0  0  0  0  0  0  0  0
    7.1630   -0.6890   20.9850 N   0  0  0  0  0  0  0  0  0  0  0  0
    6.4330    0.0020   20.0450 C   0  0  0  0  0  0  0  0  0  0  0  0
    5.1380    0.7710   20.3180 C   0  0  0  0  0  0  0  0  0  0  0  0
    4.5810    1.4080   19.2060 C   0  0  0  0  0  0  0  0  0  0  0  0
    5.1960    1.3240   17.9600 C   0  0  0  0  0  0  0  0  0  0  0  0
    6.3290    0.6440   17.7290 N   0  0  0  0  0  0  0  0  0  0  0  0
    6.9080    0.0100   18.7570 C   0  0  0  0  0  0  0  0  0  0  0  0
  1  2  2  0
  2  3  1  0
  3  4  1  0
  4  5  1  0
  5  6  1  0
  6  7  1  0
  7  8  1  0
  2  9  1  0
  9 10  1  0
 10 11  2  0
 11 12  1  0
 12 13  2  0
 13 14  1  0
 10 15  1  0
 14 15  2  0
M  END
