pyridine_urea_12185
     RDKit          3D

 23 24  0  0  0  0  0  0  0  0999 V2000
    9.0000   -4.0350   23.6870 O   0  0  0  0  0  0  0  0  0  0  0  0
    7.8140   -4.1660   23.4810 C   0  0  0  0  0  0  0  0  0  0  0  0
    7.2260   -5.5030   23.0320 C   0  0  0  0  0  0  0  0  0  0  0  0
    5.9330   -5.7270   23.4960 C   0  0  0  0  0  0  0  0  0  0  0  0
    5.5870   -5.3290   24.8020 C   0  0  0  0  0  0  0  0  0  0  0  0
    4.3040   -5.5420   25.2960 C   0  0  0  0  0  0  0  0  0  0  0  0
    3.3360   -6.1550   24.5060 C   0  0  0  0  0  0  0  0  0  0  0  0
    2.0830   -6.3520   25.0120 F   0  0  0  0  0  0  0  0  0  0  0  0
    3.5780   -6.5800   23.2140 C   0  0  0  0  0  0  0  0  0  0  0  0
    4.9800   -6.3470   22.6740 C   0  0  0  0  0  0  0  0  0  0  0  0
    6.9440   -3.1260   23.6580 N   0  0  0  0  0  0  0  0  0  0  0  0
    7.5010   -2.0320   24.2770 C   0  0  0  0  0  0  0  0  0  0  0  0
    7.4180   -0.7710   23.6820 C   0  0  0  0  0  0  0  0  0  0  0  0
    8.4440   -0.5030   22.7920 N   0  0  0  0  0  0  0  0  0  0  0  0
    8.2450    0.1040   21.5770 C   0  0  0  0  0  0  0  0  0  0  0  0
    8.9490    1.2750   21.1500 O   0  0  0  0  0  0  0  0  0  0  0  0
    7.2880   -0.5880   20.9290 N   0  0  0  0  0  0  0  0  0  0  0  0
    6.5890    0.0500   19.9790 C   0  0  0  0  0  0  0  0  0  0  0  0
    5.4500    0.7820   20.3290 C   0  0  0  0  0  0  0  0  0  0  0  0
    4.7310    1.4490   19.3380 C   0  0  0  0  0  0  0  0  0  0  0  0
    5.1810    1.3570   18.0290 C   0  0  0  0  0  0  0  0  0  0  0  0
    6.2660    0.6540   17.6780 N   0  0  0  0  0  0  0  0  0  0  0  0
    6.9440    0.0190   18.6530 C   0  0  0  0  0  0  0  0  0  0  0  0
  1  2  2  0
  2  3  1  0
  3  4  1  0
  4  5  2  0
  5  6  1  0
  6  7  2  0
  7  8  1  0
  7  9  1  0
  4 10  1  0
  9 10  2  0
  2 11  1  0
 11 12  1  0
 12 13  1  0
 13 14  1  0
 14 15  1  0
 15 16  2  0
 15 17  1  0
 17 18  1  0
 18 19  2  0
 19 20  1  0
 20 21  2  0
 21 22  1  0
 18 23  1  0
 22 23  2  0
M  END
