pyridine_urea_5148
     RDKit          3D

 20 21  0  0  0  0  0  0  0  0999 V2000
    8.9150    1.2920   21.1930 O   0  0  0  0  0  0  0  0  0  0  0  0
    8.7680    0.1290   21.5970 C   0  0  0  0  0  0  0  0  0  0  0  0
    9.3310   -0.4270   22.7150 N   0  0  0  0  0  0  0  0  0  0  0  0
   10.6800   -0.2820   23.0800 C   0  0  0  0  0  0  0  0  0  0  0  0
   11.1270   -1.3300   23.9340 C   0  0  0  0  0  0  0  0  0  0  0  0
   12.4130   -1.3150   24.3500 C   0  0  0  0  0  0  0  0  0  0  0  0
   12.8830   -0.2530   23.7890 C   0  0  0  0  0  0  0  0  0  0  0  0
   12.6750    0.7500   23.0490 N   0  0  0  0  0  0  0  0  0  0  0  0
   11.3970    0.8760   22.5510 C   0  0  0  0  0  0  0  0  0  0  0  0
    7.9940   -0.7890   20.9440 N   0  0  0  0  0  0  0  0  0  0  0  0
    6.9350   -0.2820   20.1270 C   0  0  0  0  0  0  0  0  0  0  0  0
    5.7180    0.1190   20.9100 C   0  0  0  0  0  0  0  0  0  0  0  0
    4.6810    0.6020   20.1940 C   0  0  0  0  0  0  0  0  0  0  0  0
    4.8020    0.6950   18.8430 C   0  0  0  0  0  0  0  0  0  0  0  0
    3.6670    1.1870   18.3490 O   0  0  0  0  0  0  0  0  0  0  0  0
    3.5320    2.5270   18.7790 C   0  0  0  0  0  0  0  0  0  0  0  0
    2.4870    2.6500   19.6930 C   0  0  0  0  0  0  0  0  0  0  0  0
    2.4870    3.9800   19.9930 O   0  0  0  0  0  0  0  0  0  0  0  0
    5.8840    0.3550   18.0570 N   0  0  0  0  0  0  0  0  0  0  0  0
    6.9480   -0.1420   18.7500 C   0  0  0  0  0  0  0  0  0  0  0  0
  1  2  2  0
  2  3  1  0
  3  4  1  0
  4  5  2  0
  5  6  1  0
  6  7  2  0
  7  8  1  0
  4  9  1  0
  8  9  2  0
  2 10  1  0
 10 11  1  0
 11 12  2  0
 12 13  1  0
 13 14  2  0
 14 15  1  0
 15 16  1  0
 16 17  1  0
 17 18  1  0
 14 19  1  0
 11 20  1  0
 19 20  2  0
M  END
