pyridine_urea_11700
     RDKit          3D

 27 29  0  0  0  0  0  0  0  0999 V2000
    8.5620   -1.2720   20.5370 O   0  0  0  0  0  0  0  0  0  0  0  0
    8.0780   -0.5160   21.2950 C   0  0  0  0  0  0  0  0  0  0  0  0
    8.7620    0.1420   22.2320 N   0  0  0  0  0  0  0  0  0  0  0  0
   10.0760   -0.1840   22.5350 C   0  0  0  0  0  0  0  0  0  0  0  0
   10.7750   -1.2010   21.9620 C   0  0  0  0  0  0  0  0  0  0  0  0
   12.0450   -1.4010   22.3960 C   0  0  0  0  0  0  0  0  0  0  0  0
   12.5510   -0.5840   23.3760 C   0  0  0  0  0  0  0  0  0  0  0  0
   13.6240   -0.8970   23.7240 O   0  0  0  0  0  0  0  0  0  0  0  0
   13.0690   -1.9600   24.4900 C   0  0  0  0  0  0  0  0  0  0  0  0
   13.8250   -2.6470   25.4000 C   0  0  0  0  0  0  0  0  0  0  0  0
   13.1300   -3.7590   26.1790 C   0  0  0  0  0  0  0  0  0  0  0  0
   11.7900   -4.0390   25.9580 C   0  0  0  0  0  0  0  0  0  0  0  0
   11.0830   -3.3210   25.0300 C   0  0  0  0  0  0  0  0  0  0  0  0
    9.7410   -3.6610   24.8490 C   0  0  0  0  0  0  0  0  0  0  0  0
    8.8070   -3.0510   25.5900 F   0  0  0  0  0  0  0  0  0  0  0  0
    9.5480   -4.9810   25.1220 F   0  0  0  0  0  0  0  0  0  0  0  0
    9.3710   -3.4790   23.5710 F   0  0  0  0  0  0  0  0  0  0  0  0
   11.6470   -2.3070   24.2950 N   0  0  0  0  0  0  0  0  0  0  0  0
   11.8790    0.4830   23.9620 C   0  0  0  0  0  0  0  0  0  0  0  0
   10.6010    0.6280   23.4840 C   0  0  0  0  0  0  0  0  0  0  0  0
    6.7580   -0.2450   21.2410 N   0  0  0  0  0  0  0  0  0  0  0  0
    6.2480    0.2750   20.1280 C   0  0  0  0  0  0  0  0  0  0  0  0
    4.9680    1.0890   20.2190 C   0  0  0  0  0  0  0  0  0  0  0  0
    4.4710    1.6340   19.0410 C   0  0  0  0  0  0  0  0  0  0  0  0
    5.1470    1.4200   17.8430 C   0  0  0  0  0  0  0  0  0  0  0  0
    6.2760    0.6990   17.7230 N   0  0  0  0  0  0  0  0  0  0  0  0
    6.8150    0.1300   18.8750 C   0  0  0  0  0  0  0  0  0  0  0  0
  1  2  2  0
  2  3  1  0
  3  4  1  0
  4  5  2  0
  5  6  1  0
  6  7  2  0
  7  8  1  0
  8  9  1  0
  9 10  2  0
 10 11  1  0
 11 12  2  0
 12 13  1  0
 13 14  1  0
 14 15  1  0
 14 16  1  0
 14 17  1  0
  9 18  1  0
 13 18  2  0
  7 19  1  0
  4 20  1  0
 19 20  2  0
  2 21  1  0
 21 22  1  0
 22 23  2  0
 23 24  1  0
 24 25  2  0
 25 26  1  0
 22 27  1  0
 26 27  2  0
M  END
