pyridine_urea_14459
     RDKit          3D

 21 22  0  0  0  0  0  0  0  0999 V2000
    8.8970    1.2900   21.1580 O   0  0  0  0  0  0  0  0  0  0  0  0
    8.2990    0.3040   21.6060 C   0  0  0  0  0  0  0  0  0  0  0  0
    8.6070   -0.2770   22.8990 N   0  0  0  0  0  0  0  0  0  0  0  0
    9.9350   -0.2550   23.2700 C   0  0  0  0  0  0  0  0  0  0  0  0
   10.3520    0.6250   24.2690 C   0  0  0  0  0  0  0  0  0  0  0  0
   11.7190    0.8460   24.1210 C   0  0  0  0  0  0  0  0  0  0  0  0
   12.2700    0.0770   23.1500 C   0  0  0  0  0  0  0  0  0  0  0  0
   13.4400   -0.0210   22.4030 C   0  0  0  0  0  0  0  0  0  0  0  0
   13.1520   -1.2650   21.4650 C   0  0  0  0  0  0  0  0  0  0  0  0
   14.0130   -1.6780   20.5530 F   0  0  0  0  0  0  0  0  0  0  0  0
   11.7510   -2.0480   21.5810 C   0  0  0  0  0  0  0  0  0  0  0  0
   10.7660   -1.6540   22.4970 C   0  0  0  0  0  0  0  0  0  0  0  0
   10.0530   -2.6780   22.0050 F   0  0  0  0  0  0  0  0  0  0  0  0
   11.8460   -0.9590   22.4910 C   0  0  0  0  0  0  0  0  0  0  0  0
    7.2620   -0.3760   20.9900 N   0  0  0  0  0  0  0  0  0  0  0  0
    6.4720    0.2030   20.0370 C   0  0  0  0  0  0  0  0  0  0  0  0
    5.3020    0.8960   20.2890 C   0  0  0  0  0  0  0  0  0  0  0  0
    4.6200    1.4500   19.2260 C   0  0  0  0  0  0  0  0  0  0  0  0
    5.1290    1.2930   17.9520 C   0  0  0  0  0  0  0  0  0  0  0  0
    6.2510    0.6180   17.6790 N   0  0  0  0  0  0  0  0  0  0  0  0
    6.8920    0.0890   18.7310 C   0  0  0  0  0  0  0  0  0  0  0  0
  1  2  2  0
  2  3  1  0
  3  4  1  0
  4  5  1  0
  5  6  1  0
  6  7  1  0
  7  8  2  0
  8  9  1  0
  9 10  1  0
  9 11  2  0
 11 12  1  0
 12 13  1  0
  7 14  1  0
 12 14  2  0
  2 15  1  0
 15 16  1  0
 16 17  2  0
 17 18  1  0
 18 19  2  0
 19 20  1  0
 16 21  1  0
 20 21  2  0
M  END
