pyridine_urea_8592
     RDKit          3D

 21 22  0  0  0  0  0  0  0  0999 V2000
   11.8580   -2.8040   24.4740 C   0  0  0  0  0  0  0  0  0  0  0  0
   13.3130   -2.5680   24.3070 C   0  0  0  0  0  0  0  0  0  0  0  0
   13.5170   -2.4560   22.9000 O   0  0  0  0  0  0  0  0  0  0  0  0
   12.7620   -1.5180   22.2670 C   0  0  0  0  0  0  0  0  0  0  0  0
   11.9110   -1.6890   21.4180 O   0  0  0  0  0  0  0  0  0  0  0  0
   12.9850   -0.1910   22.6170 C   0  0  0  0  0  0  0  0  0  0  0  0
   12.8200    1.0370   23.0760 C   0  0  0  0  0  0  0  0  0  0  0  0
   11.5640    1.3470   23.6300 C   0  0  0  0  0  0  0  0  0  0  0  0
   10.6470    0.3850   23.6230 C   0  0  0  0  0  0  0  0  0  0  0  0
    9.9780   -0.9700   23.3910 C   0  0  0  0  0  0  0  0  0  0  0  0
    8.6280   -0.7460   22.7460 N   0  0  0  0  0  0  0  0  0  0  0  0
    8.3330    0.0240   21.6390 C   0  0  0  0  0  0  0  0  0  0  0  0
    8.9840    1.0260   21.2930 O   0  0  0  0  0  0  0  0  0  0  0  0
    7.2170   -0.4940   21.0290 N   0  0  0  0  0  0  0  0  0  0  0  0
    6.5190    0.1170   19.9950 C   0  0  0  0  0  0  0  0  0  0  0  0
    5.3610    0.8400   20.2880 C   0  0  0  0  0  0  0  0  0  0  0  0
    4.6710    1.4670   19.2470 C   0  0  0  0  0  0  0  0  0  0  0  0
    5.1600    1.3500   17.9560 C   0  0  0  0  0  0  0  0  0  0  0  0
    6.2640    0.6520   17.6650 N   0  0  0  0  0  0  0  0  0  0  0  0
    6.9160    0.0540   18.6780 C   0  0  0  0  0  0  0  0  0  0  0  0
   11.5840   -0.3630   23.0480 O   0  0  0  0  0  0  0  0  0  0  0  0
  1  2  1  0
  2  3  1  0
  3  4  1  0
  4  5  2  0
  4  6  1  0
  6  7  2  0
  7  8  1  0
  8  9  2  0
  9 10  1  0
 10 11  1  0
 11 12  1  0
 12 13  2  0
 12 14  1  0
 14 15  1  0
 15 16  2  0
 16 17  1  0
 17 18  2  0
 18 19  1  0
 15 20  1  0
 19 20  2  0
  6 21  1  0
  9 21  1  0
M  END
