pyridine_urea_5277
     RDKit          3D

 19 20  0  0  0  0  0  0  0  0999 V2000
   13.4900   -3.1600   25.3440 C   0  0  0  0  0  0  0  0  0  0  0  0
   12.4600   -2.2400   25.0770 O   0  0  0  0  0  0  0  0  0  0  0  0
   13.0050   -1.0540   24.7650 C   0  0  0  0  0  0  0  0  0  0  0  0
   12.5060   -0.1440   23.8670 C   0  0  2  0  0  0  0  0  0  0  0  0
   11.3110    0.4280   24.3130 C   0  0  0  0  0  0  0  0  0  0  0  0
   10.1240    0.2900   23.6640 C   0  0  0  0  0  0  0  0  0  0  0  0
   10.2290   -0.4680   22.3800 C   0  0  2  0  0  0  0  0  0  0  0  0
    8.9780   -1.0840   22.0980 N   0  0  0  0  0  0  0  0  0  0  0  0
    8.1710   -0.2170   21.4220 C   0  0  0  0  0  0  0  0  0  0  0  0
    8.5260    0.9310   21.1970 O   0  0  0  0  0  0  0  0  0  0  0  0
    6.9170   -0.7810   21.0120 N   0  0  0  0  0  0  0  0  0  0  0  0
    6.3210   -0.0900   19.9910 C   0  0  0  0  0  0  0  0  0  0  0  0
    5.1250    0.5970   20.2260 C   0  0  0  0  0  0  0  0  0  0  0  0
    4.5360    1.3080   19.1930 C   0  0  0  0  0  0  0  0  0  0  0  0
    5.1650    1.3110   17.9520 C   0  0  0  0  0  0  0  0  0  0  0  0
    6.3090    0.6550   17.7070 N   0  0  0  0  0  0  0  0  0  0  0  0
    6.8580   -0.0290   18.7250 C   0  0  0  0  0  0  0  0  0  0  0  0
   11.4560   -1.3090   22.3110 C   0  0  0  0  0  0  0  0  0  0  0  0
   12.6640   -0.7240   22.5990 C   0  0  0  0  0  0  0  0  0  0  0  0
  1  2  1  0
  2  3  1  0
  4  3  1  1
  4  5  1  0
  5  6  1  0
  6  7  1  0
  7  8  1  1
  8  9  1  0
  9 10  2  0
  9 11  1  0
 11 12  1  0
 12 13  2  0
 13 14  1  0
 14 15  2  0
 15 16  1  0
 12 17  1  0
 16 17  2  0
  7 18  1  0
  4 19  1  0
 18 19  1  0
M  END
