pyridine_urea_12135
     RDKit          3D

 23 25  0  0  0  0  0  0  0  0999 V2000
    8.9020    1.1720   21.0700 O   0  0  0  0  0  0  0  0  0  0  0  0
    8.4140    0.1500   21.5480 C   0  0  0  0  0  0  0  0  0  0  0  0
    7.2730   -0.4540   21.0890 N   0  0  0  0  0  0  0  0  0  0  0  0
    6.5370    0.1000   20.0400 C   0  0  0  0  0  0  0  0  0  0  0  0
    5.3600    0.7940   20.3230 C   0  0  0  0  0  0  0  0  0  0  0  0
    4.6330    1.3770   19.2870 C   0  0  0  0  0  0  0  0  0  0  0  0
    5.1190    1.2380   18.0070 C   0  0  0  0  0  0  0  0  0  0  0  0
    6.2360    0.5680   17.7070 N   0  0  0  0  0  0  0  0  0  0  0  0
    6.9190    0.0140   18.7240 C   0  0  0  0  0  0  0  0  0  0  0  0
    8.9820   -0.4950   22.6270 N   0  0  0  0  0  0  0  0  0  0  0  0
   10.4010   -0.2240   22.9410 C   0  0  0  0  0  0  0  0  0  0  0  0
   10.6200    1.2930   22.7670 C   0  0  0  0  0  0  0  0  0  0  0  0
   11.9300    1.8570   22.7780 C   0  0  0  0  0  0  0  0  0  0  0  0
   12.1010    3.2270   22.6220 C   0  0  0  0  0  0  0  0  0  0  0  0
   11.0020    4.0380   22.4640 C   0  0  0  0  0  0  0  0  0  0  0  0
    9.7020    3.5510   22.4530 C   0  0  0  0  0  0  0  0  0  0  0  0
    8.6570    4.4000   22.3090 F   0  0  0  0  0  0  0  0  0  0  0  0
    9.5160    2.1720   22.6040 C   0  0  0  0  0  0  0  0  0  0  0  0
   10.7290   -0.4610   24.4120 C   0  0  0  0  0  0  0  0  0  0  0  0
   12.0750   -0.1940   24.6340 C   0  0  0  0  0  0  0  0  0  0  0  0
   12.9000   -0.9650   23.8220 C   0  0  0  0  0  0  0  0  0  0  0  0
   12.6160   -0.8150   22.4790 C   0  0  0  0  0  0  0  0  0  0  0  0
   11.2710   -1.0930   22.2790 C   0  0  0  0  0  0  0  0  0  0  0  0
  1  2  2  0
  2  3  1  0
  3  4  1  0
  4  5  2  0
  5  6  1  0
  6  7  2  0
  7  8  1  0
  4  9  1  0
  8  9  2  0
  2 10  1  0
 11 10  1  0
 11 12  1  0
 12 13  2  0
 13 14  1  0
 14 15  2  0
 15 16  1  0
 16 17  1  0
 12 18  1  0
 16 18  2  0
 11 19  1  0
 19 20  1  0
 20 21  1  0
 21 22  1  0
 11 23  1  0
 22 23  1  0
M  END
