pyridine_urea_10795
     RDKit          3D

 20 21  0  0  0  0  0  0  0  0999 V2000
   11.6820    0.8200   23.7600 C   0  0  0  0  0  0  0  0  0  0  0  0
   10.2530    0.3250   23.8510 C   0  0  0  0  0  0  0  0  0  0  0  0
    9.9040   -0.8080   23.1410 C   0  0  2  0  0  0  0  0  0  0  0  0
   10.7200   -1.0380   22.0720 C   0  0  0  0  0  0  0  0  0  0  0  0
   11.9980   -0.8690   22.5200 C   0  0  0  0  0  0  0  0  0  0  0  0
   13.2950   -1.0300   23.2850 C   0  0  0  0  0  0  0  0  0  0  0  0
   13.5920   -2.0640   24.3600 C   0  0  0  0  0  0  0  0  0  0  0  0
   12.5600   -2.9950   24.6940 C   0  0  0  0  0  0  0  0  0  0  0  0
   11.4190   -2.8920   24.0650 C   0  0  0  0  0  0  0  0  0  0  0  0
   11.2150   -1.9280   23.1010 C   0  0  0  0  0  0  0  0  0  0  0  0
    8.5400   -0.6780   22.6290 N   0  0  0  0  0  0  0  0  0  0  0  0
    8.2500    0.0750   21.5340 C   0  0  0  0  0  0  0  0  0  0  0  0
    8.8820    1.0910   21.1980 O   0  0  0  0  0  0  0  0  0  0  0  0
    7.1650   -0.4780   20.9240 N   0  0  0  0  0  0  0  0  0  0  0  0
    6.4130    0.1700   19.9630 C   0  0  0  0  0  0  0  0  0  0  0  0
    5.2490    0.8730   20.1860 C   0  0  0  0  0  0  0  0  0  0  0  0
    4.5840    1.5030   19.1470 C   0  0  0  0  0  0  0  0  0  0  0  0
    5.1450    1.3920   17.8860 C   0  0  0  0  0  0  0  0  0  0  0  0
    6.2710    0.7060   17.6350 N   0  0  0  0  0  0  0  0  0  0  0  0
    6.8760    0.1130   18.6730 C   0  0  0  0  0  0  0  0  0  0  0  0
  1  2  1  0
  3  2  1  6
  3  4  1  0
  4  5  1  0
  5  6  2  0
  6  7  1  0
  7  8  2  0
  8  9  1  0
  5 10  1  0
  9 10  2  0
  3 11  1  0
 11 12  1  0
 12 13  2  0
 12 14  1  0
 14 15  1  0
 15 16  2  0
 16 17  1  0
 17 18  2  0
 18 19  1  0
 15 20  1  0
 19 20  2  0
M  END
