pyridine_urea_1073
     RDKit          3D

 22 23  0  0  0  0  0  0  0  0999 V2000
    6.1380   -5.3120   23.4210 C   0  0  0  0  0  0  0  0  0  0  0  0
    7.5880   -4.9490   23.5440 C   0  0  0  0  0  0  0  0  0  0  0  0
    7.8330   -3.8970   24.5290 N   0  0  0  0  0  0  0  0  0  0  0  0
    8.2100   -2.6270   24.1090 C   0  0  0  0  0  0  0  0  0  0  0  0
    8.5740   -2.4830   22.7610 C   0  0  0  0  0  0  0  0  0  0  0  0
    9.1100   -1.1510   22.4840 N   0  0  0  0  0  0  0  0  0  0  0  0
    8.4800   -0.2740   21.6090 C   0  0  0  0  0  0  0  0  0  0  0  0
    8.9920    0.8190   21.4060 O   0  0  0  0  0  0  0  0  0  0  0  0
    7.3010   -0.7580   21.0750 N   0  0  0  0  0  0  0  0  0  0  0  0
    6.5380   -0.0560   20.1190 C   0  0  0  0  0  0  0  0  0  0  0  0
    5.2540    0.7090   20.3750 C   0  0  0  0  0  0  0  0  0  0  0  0
    4.5790    1.4160   19.2120 C   0  0  0  0  0  0  0  0  0  0  0  0
    5.1990    1.3060   17.9850 C   0  0  0  0  0  0  0  0  0  0  0  0
    6.3450    0.6110   17.7760 N   0  0  0  0  0  0  0  0  0  0  0  0
    6.9640   -0.0300   18.8020 C   0  0  0  0  0  0  0  0  0  0  0  0
    7.5580   -4.1510   25.8610 C   0  0  0  0  0  0  0  0  0  0  0  0
    6.5220   -3.4860   26.5170 C   0  0  0  0  0  0  0  0  0  0  0  0
    6.2820   -3.7760   27.8460 C   0  0  0  0  0  0  0  0  0  0  0  0
    7.0490   -4.7030   28.5140 C   0  0  0  0  0  0  0  0  0  0  0  0
    8.0830   -5.3830   27.9090 C   0  0  0  0  0  0  0  0  0  0  0  0
    8.3390   -5.1030   26.5720 C   0  0  0  0  0  0  0  0  0  0  0  0
    9.3770   -5.7810   25.9420 C   0  0  0  0  0  0  0  0  0  0  0  0
  1  2  1  0
  2  3  1  0
  3  4  1  0
  4  5  1  0
  5  6  1  0
  6  7  1  0
  7  8  2  0
  7  9  1  0
  9 10  1  0
 10 11  2  0
 11 12  1  0
 12 13  2  0
 13 14  1  0
 10 15  1  0
 14 15  2  0
  3 16  1  0
 16 17  2  0
 17 18  1  0
 18 19  2  0
 19 20  1  0
 16 21  1  0
 20 21  2  0
 21 22  1  0
M  END
