pyridine_urea_12133
     RDKit          3D

 23 25  0  0  0  0  0  0  0  0999 V2000
   13.1250   -3.0380   20.7320 C   0  0  0  0  0  0  0  0  0  0  0  0
   12.0880   -2.4310   21.6030 C   0  0  0  0  0  0  0  0  0  0  0  0
   10.7130   -2.6670   21.3210 O   0  0  0  0  0  0  0  0  0  0  0  0
   12.6950   -1.7480   22.6650 N   0  0  0  0  0  0  0  0  0  0  0  0
   13.4740   -2.6380   23.2720 C   0  0  0  0  0  0  0  0  0  0  0  0
   13.0870   -2.8870   24.5440 C   0  0  0  0  0  0  0  0  0  0  0  0
   13.2090   -1.4530   25.3770 S   0  0  0  0  0  0  0  0  0  0  0  0
   11.7770   -0.9110   24.6620 C   0  0  0  0  0  0  0  0  0  0  0  0
   10.7370   -0.3190   25.3180 C   0  0  0  0  0  0  0  0  0  0  0  0
    9.5870    0.0770   24.7110 C   0  0  0  0  0  0  0  0  0  0  0  0
    9.3700   -0.1200   23.2430 C   0  0  0  0  0  0  0  0  0  0  0  0
    8.2150    0.2650   22.7400 N   0  0  0  0  0  0  0  0  0  0  0  0
    8.0110    0.4520   21.4170 C   0  0  0  0  0  0  0  0  0  0  0  0
    8.6140    1.5120   20.7970 O   0  0  0  0  0  0  0  0  0  0  0  0
    7.1930   -0.4320   20.8360 N   0  0  0  0  0  0  0  0  0  0  0  0
    6.4560    0.1770   19.9280 C   0  0  0  0  0  0  0  0  0  0  0  0
    5.2670    0.8840   20.1530 C   0  0  0  0  0  0  0  0  0  0  0  0
    4.6200    1.5010   19.0910 C   0  0  0  0  0  0  0  0  0  0  0  0
    5.1180    1.4410   17.8050 C   0  0  0  0  0  0  0  0  0  0  0  0
    6.2560    0.7380   17.6360 N   0  0  0  0  0  0  0  0  0  0  0  0
    6.9140    0.1220   18.6350 C   0  0  0  0  0  0  0  0  0  0  0  0
   10.5340   -0.7510   22.5970 C   0  0  0  0  0  0  0  0  0  0  0  0
   11.6170   -1.0980   23.3130 C   0  0  0  0  0  0  0  0  0  0  0  0
  1  2  1  0
  2  3  2  0
  2  4  1  0
  4  5  1  0
  5  6  1  0
  6  7  1  0
  7  8  1  0
  8  9  1  0
  9 10  2  0
 10 11  1  0
 11 12  1  0
 12 13  1  0
 13 14  2  0
 13 15  1  0
 15 16  1  0
 16 17  2  0
 17 18  1  0
 18 19  2  0
 19 20  1  0
 16 21  1  0
 20 21  2  0
 11 22  2  0
  4 23  1  0
  8 23  2  0
 22 23  1  0
M  END
