pyridine_urea_14207
     RDKit          3D

 22 24  0  0  0  0  0  0  0  0999 V2000
   11.6140    5.5640   24.0780 C   0  0  0  0  0  0  0  0  0  0  0  0
   10.2980    4.9990   23.9770 O   0  0  0  0  0  0  0  0  0  0  0  0
   10.2760    3.6440   23.8040 C   0  0  0  0  0  0  0  0  0  0  0  0
    9.1140    2.9450   23.8800 C   0  0  0  0  0  0  0  0  0  0  0  0
    9.2100    1.6040   23.6940 C   0  0  0  0  0  0  0  0  0  0  0  0
   10.4500    0.9960   23.4400 C   0  0  0  0  0  0  0  0  0  0  0  0
   10.4520   -0.4940   23.2320 C   0  0  1  0  0  0  0  0  0  0  0  0
    9.3440   -0.8540   22.3330 N   0  0  0  0  0  0  0  0  0  0  0  0
    8.5550   -0.0570   21.5280 C   0  0  0  0  0  0  0  0  0  0  0  0
    9.0240    1.1910   21.1800 O   0  0  0  0  0  0  0  0  0  0  0  0
    7.2640   -0.6050   21.1050 N   0  0  0  0  0  0  0  0  0  0  0  0
    6.5780    0.0210   20.0780 C   0  0  0  0  0  0  0  0  0  0  0  0
    5.4330    0.7540   20.3810 C   0  0  0  0  0  0  0  0  0  0  0  0
    4.7360    1.3990   19.3540 C   0  0  0  0  0  0  0  0  0  0  0  0
    5.2090    1.2880   18.0580 C   0  0  0  0  0  0  0  0  0  0  0  0
    6.3030    0.5860   17.7430 N   0  0  0  0  0  0  0  0  0  0  0  0
    6.9620   -0.0320   18.7500 C   0  0  0  0  0  0  0  0  0  0  0  0
   11.7230   -0.8640   22.4530 C   0  0  0  0  0  0  0  0  0  0  0  0
   12.8670   -0.2730   22.6670 C   0  0  0  0  0  0  0  0  0  0  0  0
   12.5920   -0.8590   23.7690 C   0  0  0  0  0  0  0  0  0  0  0  0
   11.7340    1.6030   23.3440 C   0  0  0  0  0  0  0  0  0  0  0  0
   11.4400    2.9390   23.5530 N   0  0  0  0  0  0  0  0  0  0  0  0
  1  2  1  0
  2  3  1  0
  3  4  2  0
  4  5  1  0
  5  6  2  0
  6  7  1  0
  7  8  1  6
  8  9  1  0
  9 10  2  0
  9 11  1  0
 11 12  1  0
 12 13  2  0
 13 14  1  0
 14 15  2  0
 15 16  1  0
 12 17  1  0
 16 17  2  0
  7 18  1  0
 18 19  1  0
 18 20  1  0
 19 20  1  0
  6 21  1  0
  3 22  1  0
 21 22  2  0
M  END
