pyridine_urea_7799
     RDKit          3D

 26 28  0  0  0  0  0  0  0  0999 V2000
   12.4990    0.0890   24.6710 C   0  0  0  0  0  0  0  0  0  0  0  0
   11.4020   -0.7720   24.2310 C   0  0  1  0  0  0  0  0  0  0  0  0
   10.3020    0.1000   24.0130 N   0  0  0  0  0  0  0  0  0  0  0  0
    9.1390   -0.4400   23.5870 C   0  0  0  0  0  0  0  0  0  0  0  0
    8.2120    0.5280   23.8460 C   0  0  0  0  0  0  0  0  0  0  0  0
    7.2260    0.3780   22.8260 N   0  0  0  0  0  0  0  0  0  0  0  0
    7.7830    0.4460   21.5420 C   0  0  0  0  0  0  0  0  0  0  0  0
    8.6480    1.2830   21.2180 O   0  0  0  0  0  0  0  0  0  0  0  0
    7.2340   -0.4570   20.7360 N   0  0  0  0  0  0  0  0  0  0  0  0
    6.4850    0.1530   19.8550 C   0  0  0  0  0  0  0  0  0  0  0  0
    5.2740    0.7590   20.1730 C   0  0  0  0  0  0  0  0  0  0  0  0
    4.5310    1.4590   19.0500 C   0  0  0  0  0  0  0  0  0  0  0  0
    5.1150    1.4420   17.7900 C   0  0  0  0  0  0  0  0  0  0  0  0
    6.2750    0.8310   17.5430 N   0  0  0  0  0  0  0  0  0  0  0  0
    6.8860    0.2310   18.5650 C   0  0  0  0  0  0  0  0  0  0  0  0
    9.3890   -1.1270   22.3570 C   0  0  0  0  0  0  0  0  0  0  0  0
    8.6170   -2.1640   21.8610 C   0  0  0  0  0  0  0  0  0  0  0  0
    8.1120   -2.9900   22.5990 O   0  0  0  0  0  0  0  0  0  0  0  0
    7.8340   -2.4530   23.8750 C   0  0  0  0  0  0  0  0  0  0  0  0
    8.7780   -1.6380   24.4900 C   0  0  0  0  0  0  0  0  0  0  0  0
   11.9300   -1.5710   23.2990 C   0  0  0  0  0  0  0  0  0  0  0  0
   11.4710   -1.7620   21.9890 C   0  0  0  0  0  0  0  0  0  0  0  0
   12.1400   -2.6150   21.1330 C   0  0  0  0  0  0  0  0  0  0  0  0
   13.2350   -3.2410   21.5980 C   0  0  0  0  0  0  0  0  0  0  0  0
   13.6720   -3.0370   22.9000 C   0  0  0  0  0  0  0  0  0  0  0  0
   13.0470   -2.2320   23.7310 C   0  0  0  0  0  0  0  0  0  0  0  0
  2  1  1  6
  2  3  1  0
  4  3  1  0
  4  5  1  0
  5  6  1  0
  6  7  1  0
  7  8  2  0
  7  9  1  0
  9 10  1  0
 10 11  2  0
 11 12  1  0
 12 13  2  0
 13 14  1  0
 10 15  1  0
 14 15  2  0
  4 16  1  0
 16 17  1  0
 17 18  1  0
 18 19  1  0
  4 20  1  0
 19 20  1  0
  2 21  1  0
 21 22  2  0
 22 23  1  0
 23 24  2  0
 24 25  1  0
 21 26  1  0
 25 26  2  0
M  END
