pyridine_urea_2375
     RDKit          3D

 25 27  0  0  0  0  0  0  0  0999 V2000
   10.2030   -4.9780   26.6490 C   0  0  0  0  0  0  0  0  0  0  0  0
   11.3190   -4.3320   26.1450 N   0  0  0  0  0  0  0  0  0  0  0  0
   11.4330   -3.5670   25.0530 C   0  0  0  0  0  0  0  0  0  0  0  0
   12.6900   -3.1060   24.8890 C   0  0  0  0  0  0  0  0  0  0  0  0
   13.1370   -2.1550   23.6230 S   0  0  0  0  0  0  0  0  0  0  0  0
   13.5330   -0.8720   24.1250 O   0  0  0  0  0  0  0  0  0  0  0  0
   13.7990   -3.0000   22.7030 O   0  0  0  0  0  0  0  0  0  0  0  0
   11.5870   -2.0380   23.1610 N   0  0  0  0  0  0  0  0  0  0  0  0
   11.5060   -1.1540   22.0650 C   0  0  0  0  0  0  0  0  0  0  0  0
   10.2100   -0.7650   21.9160 C   0  0  0  0  0  0  0  0  0  0  0  0
    9.1880   -1.2320   22.7210 C   0  0  0  0  0  0  0  0  0  0  0  0
    8.1320   -0.4040   22.8680 N   0  0  0  0  0  0  0  0  0  0  0  0
    8.0420    0.1950   21.5500 C   0  0  0  0  0  0  0  0  0  0  0  0
    8.8370    1.3170   21.1180 O   0  0  0  0  0  0  0  0  0  0  0  0
    7.1020   -0.4640   20.8740 N   0  0  0  0  0  0  0  0  0  0  0  0
    6.3790    0.1830   19.9060 C   0  0  0  0  0  0  0  0  0  0  0  0
    5.1800    0.8970   20.1130 C   0  0  0  0  0  0  0  0  0  0  0  0
    4.5500    1.5440   19.0430 C   0  0  0  0  0  0  0  0  0  0  0  0
    5.1310    1.4650   17.7860 C   0  0  0  0  0  0  0  0  0  0  0  0
    6.2790    0.7650   17.5980 N   0  0  0  0  0  0  0  0  0  0  0  0
    6.8930    0.1310   18.6490 C   0  0  0  0  0  0  0  0  0  0  0  0
    9.5760   -1.4350   24.1750 C   0  0  0  0  0  0  0  0  0  0  0  0
   10.8700   -1.8340   24.3680 C   0  0  0  0  0  0  0  0  0  0  0  0
   13.4280   -3.5830   25.9240 C   0  0  0  0  0  0  0  0  0  0  0  0
   12.5850   -4.3480   26.6910 N   0  0  0  0  0  0  0  0  0  0  0  0
  1  2  1  0
  2  3  1  0
  3  4  2  0
  5  4  1  0
  5  6  2  0
  5  7  2  0
  5  8  1  0
  8  9  1  0
  9 10  1  0
 10 11  1  0
 11 12  1  0
 12 13  1  0
 13 14  2  0
 13 15  1  0
 15 16  1  0
 16 17  2  0
 17 18  1  0
 18 19  2  0
 19 20  1  0
 16 21  1  0
 20 21  2  0
 11 22  1  0
  8 23  1  0
 22 23  1  0
  4 24  1  0
  2 25  1  0
 24 25  2  0
M  END
