pyridine_urea_7394
     RDKit          3D

 18 18  0  0  0  0  0  0  0  0999 V2000
   13.7690   -2.7130   25.4920 C   0  0  0  0  0  0  0  0  0  0  0  0
   12.7010   -2.1460   25.3210 O   0  0  0  0  0  0  0  0  0  0  0  0
   11.9790   -2.6930   24.3250 C   0  0  0  0  0  0  0  0  0  0  0  0
   12.6650   -2.5930   23.1120 C   0  0  0  0  0  0  0  0  0  0  0  0
   13.2230   -1.4330   22.8090 N   0  0  0  0  0  0  0  0  0  0  0  0
   12.6820   -0.2220   23.0510 C   0  0  0  0  0  0  0  0  0  0  0  0
   11.4110   -0.2550   22.5190 C   0  0  0  0  0  0  0  0  0  0  0  0
   10.2860   -0.4940   23.2910 C   0  0  0  0  0  0  0  0  0  0  0  0
    9.1300   -0.8990   22.4830 N   0  0  0  0  0  0  0  0  0  0  0  0
    8.4880   -0.0490   21.6010 C   0  0  0  0  0  0  0  0  0  0  0  0
    8.9790    1.2510   21.2120 O   0  0  0  0  0  0  0  0  0  0  0  0
    7.2890   -0.4940   21.0940 N   0  0  0  0  0  0  0  0  0  0  0  0
    6.5840    0.0960   20.0440 C   0  0  0  0  0  0  0  0  0  0  0  0
    5.4420    0.8530   20.2980 C   0  0  0  0  0  0  0  0  0  0  0  0
    4.7330    1.4600   19.2870 C   0  0  0  0  0  0  0  0  0  0  0  0
    5.1460    1.3330   17.9820 C   0  0  0  0  0  0  0  0  0  0  0  0
    6.2430    0.6010   17.6920 N   0  0  0  0  0  0  0  0  0  0  0  0
    6.9320    0.0030   18.7080 C   0  0  0  0  0  0  0  0  0  0  0  0
  1  2  1  0
  2  3  1  0
  3  4  1  0
  4  5  1  0
  5  6  1  0
  6  7  1  0
  7  8  1  0
  8  9  1  0
  9 10  1  0
 10 11  2  0
 10 12  1  0
 12 13  1  0
 13 14  2  0
 14 15  1  0
 15 16  2  0
 16 17  1  0
 13 18  1  0
 17 18  2  0
M  END
