pyridine_urea_783
     RDKit          3D

 23 25  0  0  0  0  0  0  0  0999 V2000
   12.2980   -2.0640   21.5490 C   0  0  0  0  0  0  0  0  0  0  0  0
   11.1940   -1.5200   22.4180 C   0  0  0  0  0  0  0  0  0  0  0  0
    9.9120   -1.0950   22.0460 C   0  0  0  0  0  0  0  0  0  0  0  0
    9.3060   -1.0790   20.8260 N   0  0  0  0  0  0  0  0  0  0  0  0
    8.2390   -0.2780   20.9140 C   0  0  0  0  0  0  0  0  0  0  0  0
    8.4920    0.9130   21.1000 O   0  0  0  0  0  0  0  0  0  0  0  0
    6.9170   -0.8180   20.7990 N   0  0  0  0  0  0  0  0  0  0  0  0
    6.2720   -0.0710   19.8820 C   0  0  0  0  0  0  0  0  0  0  0  0
    4.9610    0.6000   20.2600 C   0  0  0  0  0  0  0  0  0  0  0  0
    4.3840    1.4280   19.1120 C   0  0  0  0  0  0  0  0  0  0  0  0
    5.1250    1.4940   17.8020 C   0  0  0  0  0  0  0  0  0  0  0  0
    6.2810    0.8340   17.6150 N   0  0  0  0  0  0  0  0  0  0  0  0
    6.8320    0.0750   18.6310 C   0  0  0  0  0  0  0  0  0  0  0  0
    9.2560   -0.6610   23.0500 C   0  0  0  0  0  0  0  0  0  0  0  0
   10.0020   -0.8190   24.0250 N   0  0  0  0  0  0  0  0  0  0  0  0
   11.2250   -1.3490   23.8160 N   0  0  0  0  0  0  0  0  0  0  0  0
   10.4800   -0.9550   24.8790 C   0  0  0  0  0  0  0  0  0  0  0  0
    9.1010   -1.1670   24.6750 C   0  0  0  0  0  0  0  0  0  0  0  0
    8.1420   -0.8130   25.6050 C   0  0  0  0  0  0  0  0  0  0  0  0
    8.4910   -0.2340   26.7920 C   0  0  0  0  0  0  0  0  0  0  0  0
    7.3370    0.2280   27.9830 Cl  0  0  0  0  0  0  0  0  0  0  0  0
    9.8460   -0.0560   26.9620 C   0  0  0  0  0  0  0  0  0  0  0  0
   10.8100   -0.4360   25.9680 C   0  0  0  0  0  0  0  0  0  0  0  0
  1  2  1  0
  2  3  2  0
  3  4  1  0
  4  5  1  0
  5  6  2  0
  5  7  1  0
  7  8  1  0
  8  9  2  0
  9 10  1  0
 10 11  2  0
 11 12  1  0
  8 13  1  0
 12 13  2  0
  3 14  1  0
 14 15  2  0
  2 16  1  0
 15 16  1  0
 16 17  1  0
 17 18  2  0
 18 19  1  0
 19 20  2  0
 20 21  1  0
 20 22  1  0
 17 23  1  0
 22 23  2  0
M  END
