pyridine_urea_13211
     RDKit          3D

 17 17  0  0  0  0  0  0  0  0999 V2000
   12.7520   -0.9840   24.8530 C   0  0  0  0  0  0  0  0  0  0  0  0
   11.3370   -0.9100   25.0110 O   0  0  0  0  0  0  0  0  0  0  0  0
   10.6400   -0.0760   24.1750 C   0  0  0  0  0  0  0  0  0  0  0  0
   10.5820   -0.2850   22.7950 C   0  0  2  0  0  0  0  0  0  0  0  0
    9.2380   -0.6940   22.3690 N   0  0  0  0  0  0  0  0  0  0  0  0
    8.5480    0.1110   21.4770 C   0  0  0  0  0  0  0  0  0  0  0  0
    8.9550    1.2360   21.1600 O   0  0  0  0  0  0  0  0  0  0  0  0
    7.3150   -0.5440   21.0080 N   0  0  0  0  0  0  0  0  0  0  0  0
    6.5810    0.0650   20.0180 C   0  0  0  0  0  0  0  0  0  0  0  0
    5.2940    0.7950   20.3850 C   0  0  0  0  0  0  0  0  0  0  0  0
    4.6000    1.4110   19.3450 C   0  0  0  0  0  0  0  0  0  0  0  0
    5.1880    1.2920   17.9360 C   0  0  0  0  0  0  0  0  0  0  0  0
    6.3260    0.6270   17.6790 N   0  0  0  0  0  0  0  0  0  0  0  0
    6.9820    0.0410   18.7010 C   0  0  0  0  0  0  0  0  0  0  0  0
   11.5180   -1.1600   22.2130 C   0  0  0  0  0  0  0  0  0  0  0  0
   11.0220   -1.7830   23.3010 N   0  0  0  0  0  0  0  0  0  0  0  0
   12.2060   -2.3300   22.1780 O   0  0  0  0  0  0  0  0  0  0  0  0
  1  2  1  0
  2  3  1  0
  4  3  1  1
  4  5  1  0
  5  6  1  0
  6  7  2  0
  6  8  1  0
  8  9  1  0
  9 10  2  0
 10 11  1  0
 11 12  2  0
 12 13  1  0
  9 14  1  0
 13 14  2  0
  4 15  1  0
 15 16  1  0
 15 17  2  0
M  END
