pyridine_urea_12918
     RDKit          3D

 19 20  0  0  0  0  0  0  0  0999 V2000
   13.6940   -1.7180   20.7430 N   0  0  0  0  0  0  0  0  0  0  0  0
   12.9920   -1.5120   21.6010 C   0  0  0  0  0  0  0  0  0  0  0  0
   11.9650   -1.1870   22.6640 C   0  0  1  0  0  0  0  0  0  0  0  0
   12.5560   -0.2340   23.6720 C   0  0  0  0  0  0  0  0  0  0  0  0
   11.5460    0.4600   24.3070 C   0  0  0  0  0  0  0  0  0  0  0  0
   10.2950    0.4380   23.6770 C   0  0  2  0  0  0  0  0  0  0  0  0
    9.5980   -0.7490   23.8710 C   0  0  0  0  0  0  0  0  0  0  0  0
    8.6740   -1.0640   22.8560 N   0  0  0  0  0  0  0  0  0  0  0  0
    8.1690   -0.2890   21.7560 C   0  0  0  0  0  0  0  0  0  0  0  0
    8.6950    0.7490   21.3910 O   0  0  0  0  0  0  0  0  0  0  0  0
    7.0610   -0.8090   21.1670 N   0  0  0  0  0  0  0  0  0  0  0  0
    6.4880   -0.1300   20.1270 C   0  0  0  0  0  0  0  0  0  0  0  0
    5.3310    0.6110   20.3540 C   0  0  0  0  0  0  0  0  0  0  0  0
    4.7010    1.3260   19.3340 C   0  0  0  0  0  0  0  0  0  0  0  0
    5.2790    1.2740   18.0670 C   0  0  0  0  0  0  0  0  0  0  0  0
    6.3950    0.5720   17.8040 N   0  0  0  0  0  0  0  0  0  0  0  0
    6.9730   -0.1130   18.8210 C   0  0  0  0  0  0  0  0  0  0  0  0
   10.6990    0.7320   22.4380 C   0  0  0  0  0  0  0  0  0  0  0  0
   10.7600   -0.6920   22.2170 C   0  0  0  0  0  0  0  0  0  0  0  0
  1  2  3  0
  3  2  1  6
  3  4  1  0
  4  5  1  0
  5  6  1  0
  6  7  1  6
  7  8  1  0
  8  9  1  0
  9 10  2  0
  9 11  1  0
 11 12  1  0
 12 13  2  0
 13 14  1  0
 14 15  2  0
 15 16  1  0
 12 17  1  0
 16 17  2  0
  6 18  1  0
  3 19  1  0
 18 19  1  0
M  END
