pyridine_urea_8121
     RDKit          3D

 23 24  0  0  0  0  0  0  0  0999 V2000
   13.3120   -2.7410   20.9010 C   0  0  0  0  0  0  0  0  0  0  0  0
   12.1800   -2.1780   21.6130 C   0  0  0  0  0  0  0  0  0  0  0  0
   12.6400   -0.8940   21.8480 O   0  0  0  0  0  0  0  0  0  0  0  0
   12.2290   -0.4650   23.0030 C   0  0  0  0  0  0  0  0  0  0  0  0
   11.0070   -0.6410   23.7060 O   0  0  0  0  0  0  0  0  0  0  0  0
   13.1190    0.2620   23.6450 C   0  0  0  0  0  0  0  0  0  0  0  0
   12.4760    0.9130   24.4010 O   0  0  0  0  0  0  0  0  0  0  0  0
   11.3740    1.4400   23.8440 C   0  0  2  0  0  0  0  0  0  0  0  0
   10.1220    1.3020   24.4070 C   0  0  0  0  0  0  0  0  0  0  0  0
    9.7060   -0.1460   24.5620 C   0  0  0  0  0  0  0  0  0  0  0  0
    9.8540   -0.9420   23.2740 C   0  0  1  0  0  0  0  0  0  0  0  0
    8.4890   -0.9770   22.7500 N   0  0  0  0  0  0  0  0  0  0  0  0
    8.1760   -0.2220   21.6470 C   0  0  0  0  0  0  0  0  0  0  0  0
    8.8310    0.7570   21.3080 O   0  0  0  0  0  0  0  0  0  0  0  0
    7.0330   -0.7180   21.0100 N   0  0  0  0  0  0  0  0  0  0  0  0
    6.4340   -0.0450   19.9860 C   0  0  0  0  0  0  0  0  0  0  0  0
    5.1460    0.7360   20.2380 C   0  0  0  0  0  0  0  0  0  0  0  0
    4.5360    1.4830   19.0660 C   0  0  0  0  0  0  0  0  0  0  0  0
    5.1590    1.4320   17.8330 C   0  0  0  0  0  0  0  0  0  0  0  0
    6.3070    0.7040   17.6820 N   0  0  0  0  0  0  0  0  0  0  0  0
    6.9300   -0.0100   18.7020 C   0  0  0  0  0  0  0  0  0  0  0  0
   10.8640   -0.4850   22.4280 C   0  0  0  0  0  0  0  0  0  0  0  0
   11.3260    0.8350   22.6090 C   0  0  0  0  0  0  0  0  0  0  0  0
  1  2  1  0
  2  3  1  0
  3  4  1  0
  4  5  2  0
  4  6  1  0
  6  7  1  0
  8  7  1  1
  8  9  1  0
  9 10  1  0
 10 11  1  0
 11 12  1  6
 12 13  1  0
 13 14  2  0
 13 15  1  0
 15 16  1  0
 16 17  2  0
 17 18  1  0
 18 19  2  0
 19 20  1  0
 16 21  1  0
 20 21  2  0
 11 22  1  0
  8 23  1  0
 22 23  1  0
M  END
