pyridine_urea_243
     RDKit          3D

 27 29  0  0  0  0  0  0  0  0999 V2000
   12.9140   -2.8330   24.0150 C   0  0  0  0  0  0  0  0  0  0  0  0
   13.0570   -1.8660   24.5990 C   0  0  0  0  0  0  0  0  0  0  0  0
   12.8320   -0.4960   25.1130 C   0  0  0  0  0  0  0  0  0  0  0  0
   13.8570   -2.4700   25.7310 C   0  0  0  0  0  0  0  0  0  0  0  0
   14.0930   -1.5690   23.7440 O   0  0  0  0  0  0  0  0  0  0  0  0
   13.8110   -1.5200   22.4810 C   0  0  0  0  0  0  0  0  0  0  0  0
   13.5200   -2.4660   21.7560 O   0  0  0  0  0  0  0  0  0  0  0  0
   13.9120   -0.0830   22.0700 C   0  0  0  0  0  0  0  0  0  0  0  0
   12.8780    0.6770   22.6120 N   0  0  0  0  0  0  0  0  0  0  0  0
   12.7470    1.9270   23.1010 C   0  0  0  0  0  0  0  0  0  0  0  0
   11.5530    2.3080   23.5310 C   0  0  0  0  0  0  0  0  0  0  0  0
   10.9090    0.9830   23.1790 C   0  0  0  0  0  0  0  0  0  0  0  0
    9.6220    0.6130   23.2990 C   0  0  0  0  0  0  0  0  0  0  0  0
    9.1550   -0.6540   22.8770 C   0  0  0  0  0  0  0  0  0  0  0  0
    7.8870   -0.9590   22.9050 N   0  0  0  0  0  0  0  0  0  0  0  0
    7.4730   -0.4220   21.6780 C   0  0  0  0  0  0  0  0  0  0  0  0
    8.1650    0.6790   21.0580 O   0  0  0  0  0  0  0  0  0  0  0  0
    6.4350   -1.0070   21.1100 N   0  0  0  0  0  0  0  0  0  0  0  0
    6.0210   -0.2310   20.0940 C   0  0  0  0  0  0  0  0  0  0  0  0
    4.8160    0.6350   20.1150 C   0  0  0  0  0  0  0  0  0  0  0  0
    4.4580    1.4700   18.9320 C   0  0  0  0  0  0  0  0  0  0  0  0
    5.2880    1.4100   17.8140 C   0  0  0  0  0  0  0  0  0  0  0  0
    6.3950    0.6340   17.7430 N   0  0  0  0  0  0  0  0  0  0  0  0
    6.7550   -0.1920   18.9100 C   0  0  0  0  0  0  0  0  0  0  0  0
   10.2890   -1.5370   22.3420 C   0  0  0  0  0  0  0  0  0  0  0  0
   11.5380   -1.1340   22.2610 C   0  0  0  0  0  0  0  0  0  0  0  0
   11.7880    0.1060   22.6620 C   0  0  0  0  0  0  0  0  0  0  0  0
  1  2  1  0
  2  3  1  0
  2  4  1  0
  2  5  1  0
  5  6  1  0
  6  7  2  0
  6  8  1  0
  8  9  1  0
  9 10  1  0
 10 11  2  0
 11 12  1  0
 12 13  1  0
 13 14  2  0
 14 15  1  0
 15 16  1  0
 16 17  2  0
 16 18  1  0
 18 19  1  0
 19 20  2  0
 20 21  1  0
 21 22  2  0
 22 23  1  0
 19 24  1  0
 23 24  2  0
 14 25  1  0
 25 26  2  0
  9 27  1  0
 12 27  2  0
 26 27  1  0
M  END
