pyridine_urea_2568
     RDKit          3D

 23 25  0  0  0  0  0  0  0  0999 V2000
    8.2450   -0.7600   25.2630 C   0  0  0  0  0  0  0  0  0  0  0  0
    9.1910   -1.0840   24.5350 O   0  0  0  0  0  0  0  0  0  0  0  0
    9.7870   -0.0290   23.8660 C   0  0  0  0  0  0  0  0  0  0  0  0
    8.9120    1.0380   23.5470 C   0  0  0  0  0  0  0  0  0  0  0  0
    9.6290    1.9500   22.9380 C   0  0  0  0  0  0  0  0  0  0  0  0
   10.7090    1.1580   23.0610 C   0  0  0  0  0  0  0  0  0  0  0  0
   11.9070    1.1870   22.7790 C   0  0  0  0  0  0  0  0  0  0  0  0
   11.2700    0.0440   23.4780 C   0  0  0  0  0  0  0  0  0  0  0  0
   12.9550    0.1700   23.0020 C   0  0  0  0  0  0  0  0  0  0  0  0
   12.0810   -0.6860   23.6440 C   0  0  0  0  0  0  0  0  0  0  0  0
   10.7230   -0.1620   23.6490 C   0  0  1  0  0  0  0  0  0  0  0  0
   10.3470    0.0300   24.8240 O   0  0  0  0  0  0  0  0  0  0  0  0
    9.8760   -1.1220   23.0160 C   0  0  0  0  0  0  0  0  0  0  0  0
    9.4760   -0.8120   21.6500 N   0  0  0  0  0  0  0  0  0  0  0  0
    8.5340    0.1210   21.2790 C   0  0  0  0  0  0  0  0  0  0  0  0
    8.8150    1.3110   21.1220 O   0  0  0  0  0  0  0  0  0  0  0  0
    7.2970   -0.4190   21.0590 N   0  0  0  0  0  0  0  0  0  0  0  0
    6.5360    0.1370   20.0340 C   0  0  0  0  0  0  0  0  0  0  0  0
    5.3610    0.8250   20.3400 C   0  0  0  0  0  0  0  0  0  0  0  0
    4.6350    1.4000   19.2960 C   0  0  0  0  0  0  0  0  0  0  0  0
    5.1110    1.2630   18.0040 C   0  0  0  0  0  0  0  0  0  0  0  0
    6.2270    0.5980   17.6910 N   0  0  0  0  0  0  0  0  0  0  0  0
    6.9070    0.0530   18.7130 C   0  0  0  0  0  0  0  0  0  0  0  0
  1  2  1  0
  2  3  1  0
  3  4  2  0
  4  5  1  0
  5  6  2  0
  6  7  1  0
  3  8  1  0
  7  8  2  0
  7  9  1  0
  9 10  1  0
  6 11  1  0
 10 11  1  0
 11 12  1  1
 11 13  1  0
 13 14  1  0
 14 15  1  0
 15 16  2  0
 15 17  1  0
 17 18  1  0
 18 19  2  0
 19 20  1  0
 20 21  2  0
 21 22  1  0
 18 23  1  0
 22 23  2  0
M  END
