pyridine_urea_4099
     RDKit          3D

 25 27  0  0  0  0  0  0  0  0999 V2000
    8.2870    0.3780   26.0870 N   0  0  0  0  0  0  0  0  0  0  0  0
    9.5500    0.7850   25.7470 C   0  0  0  0  0  0  0  0  0  0  0  0
   10.0720    0.2720   24.4410 C   0  0  0  0  0  0  0  0  0  0  0  0
    9.1730   -0.4320   23.7330 C   0  0  0  0  0  0  0  0  0  0  0  0
    9.5680   -0.9590   22.5510 C   0  0  0  0  0  0  0  0  0  0  0  0
    8.6300   -1.6010   21.8770 N   0  0  0  0  0  0  0  0  0  0  0  0
    7.9050   -0.6410   21.2020 C   0  0  0  0  0  0  0  0  0  0  0  0
    8.3720    0.4770   21.0260 O   0  0  0  0  0  0  0  0  0  0  0  0
    6.6870   -1.0190   20.7910 N   0  0  0  0  0  0  0  0  0  0  0  0
    6.1150   -0.1950   19.8470 C   0  0  0  0  0  0  0  0  0  0  0  0
    4.9300    0.4620   20.1210 C   0  0  0  0  0  0  0  0  0  0  0  0
    4.3760    1.3760   19.0270 C   0  0  0  0  0  0  0  0  0  0  0  0
    5.1020    1.4730   17.8620 C   0  0  0  0  0  0  0  0  0  0  0  0
    6.2660    0.7950   17.6490 N   0  0  0  0  0  0  0  0  0  0  0  0
    6.7140    0.0080   18.6270 C   0  0  0  0  0  0  0  0  0  0  0  0
   10.7860   -0.8760   21.9800 C   0  0  0  0  0  0  0  0  0  0  0  0
   11.6940   -0.1590   22.6610 C   0  0  0  0  0  0  0  0  0  0  0  0
   11.3580    0.4110   23.8580 C   0  0  0  0  0  0  0  0  0  0  0  0
   12.4250    0.9930   24.2720 O   0  0  0  0  0  0  0  0  0  0  0  0
   12.8890   -0.2960   24.1390 C   0  0  0  0  0  0  0  0  0  0  0  0
   13.1040   -0.9590   25.4130 C   0  0  0  0  0  0  0  0  0  0  0  0
   13.5210   -2.2460   25.3810 C   0  0  0  0  0  0  0  0  0  0  0  0
   13.6970   -2.8360   24.1690 C   0  0  0  0  0  0  0  0  0  0  0  0
   13.4880   -2.2150   22.9450 C   0  0  0  0  0  0  0  0  0  0  0  0
   13.0830   -0.9130   22.9170 C   0  0  0  0  0  0  0  0  0  0  0  0
  1  2  3  0
  2  3  1  0
  3  4  2  0
  4  5  1  0
  5  6  1  0
  6  7  1  0
  7  8  2  0
  7  9  1  0
  9 10  1  0
 10 11  2  0
 11 12  1  0
 12 13  2  0
 13 14  1  0
 10 15  1  0
 14 15  2  0
  5 16  2  0
 16 17  1  0
  3 18  1  0
 17 18  2  0
 18 19  1  0
 19 20  1  0
 20 21  2  0
 21 22  1  0
 22 23  2  0
 23 24  1  0
 20 25  1  0
 24 25  2  0
M  END
