pyridine_urea_10399
     RDKit          3D

 23 24  0  0  0  0  0  0  0  0999 V2000
   13.8640   -2.6570   25.4980 C   0  0  0  0  0  0  0  0  0  0  0  0
   13.2050   -1.4380   25.8280 O   0  0  0  0  0  0  0  0  0  0  0  0
   12.4910   -0.9690   24.8050 C   0  0  0  0  0  0  0  0  0  0  0  0
   13.1610   -1.0100   23.5770 C   0  0  0  0  0  0  0  0  0  0  0  0
   12.4450   -0.5390   22.4640 C   0  0  0  0  0  0  0  0  0  0  0  0
   11.0700    0.0230   22.2850 C   0  0  0  0  0  0  0  0  0  0  0  0
    9.8220    0.4840   22.3980 C   0  0  0  0  0  0  0  0  0  0  0  0
    9.0260   -0.5470   22.0750 N   0  0  0  0  0  0  0  0  0  0  0  0
    8.1660    0.1000   21.2860 C   0  0  0  0  0  0  0  0  0  0  0  0
    8.3710    1.2360   20.8400 O   0  0  0  0  0  0  0  0  0  0  0  0
    7.0220   -0.5440   20.9750 N   0  0  0  0  0  0  0  0  0  0  0  0
    6.3480    0.0710   19.9460 C   0  0  0  0  0  0  0  0  0  0  0  0
    5.1550    0.7310   20.1770 C   0  0  0  0  0  0  0  0  0  0  0  0
    4.5300    1.3680   19.1350 C   0  0  0  0  0  0  0  0  0  0  0  0
    5.0950    1.3470   17.8670 C   0  0  0  0  0  0  0  0  0  0  0  0
    6.2450    0.7000   17.6240 N   0  0  0  0  0  0  0  0  0  0  0  0
    6.8400    0.0820   18.6630 C   0  0  0  0  0  0  0  0  0  0  0  0
   10.3310    0.0610   23.6870 C   0  0  0  0  0  0  0  0  0  0  0  0
   11.0790   -0.4140   24.7330 C   0  0  0  0  0  0  0  0  0  0  0  0
   10.4070   -0.3700   25.8850 N   0  0  0  0  0  0  0  0  0  0  0  0
    9.1310    0.3300   25.8300 C   0  0  0  0  0  0  0  0  0  0  0  0
    8.0880   -0.2710   26.5190 C   0  0  0  0  0  0  0  0  0  0  0  0
    8.9140    1.3860   25.2440 O   0  0  0  0  0  0  0  0  0  0  0  0
  1  2  1  0
  2  3  1  0
  3  4  2  0
  4  5  1  0
  5  6  2  0
  6  7  1  0
  7  8  1  0
  8  9  1  0
  9 10  2  0
  9 11  1  0
 11 12  1  0
 12 13  2  0
 13 14  1  0
 14 15  2  0
 15 16  1  0
 12 17  1  0
 16 17  2  0
  6 18  1  0
  3 19  1  0
 18 19  2  0
 19 20  1  0
 20 21  1  0
 21 22  1  0
 21 23  2  0
M  END
