pyridine_urea_7220
     RDKit          3D

 19 20  0  0  0  0  0  0  0  0999 V2000
    7.7470   -5.4270   22.8580 C   0  0  0  0  0  0  0  0  0  0  0  0
    8.1340   -5.1390   24.1550 N   0  0  0  0  0  0  0  0  0  0  0  0
    8.9030   -5.8810   24.9630 N   0  0  0  0  0  0  0  0  0  0  0  0
    8.9150   -5.1140   26.0620 C   0  0  0  0  0  0  0  0  0  0  0  0
    8.2180   -3.9150   26.0340 N   0  0  0  0  0  0  0  0  0  0  0  0
    7.7200   -3.9270   24.8120 C   0  0  0  0  0  0  0  0  0  0  0  0
    6.9180   -3.0160   24.1200 C   0  0  0  0  0  0  0  0  0  0  0  0
    7.6410   -1.8590   23.8850 C   0  0  0  0  0  0  0  0  0  0  0  0
    8.5400   -1.8960   22.8100 C   0  0  0  0  0  0  0  0  0  0  0  0
    9.3070   -0.8320   22.3820 N   0  0  0  0  0  0  0  0  0  0  0  0
    8.5170   -0.0270   21.5270 C   0  0  0  0  0  0  0  0  0  0  0  0
    8.9280    1.0900   21.1850 O   0  0  0  0  0  0  0  0  0  0  0  0
    7.3160   -0.4460   21.0830 N   0  0  0  0  0  0  0  0  0  0  0  0
    6.5770    0.1490   20.0560 C   0  0  0  0  0  0  0  0  0  0  0  0
    5.4280    0.8880   20.3720 C   0  0  0  0  0  0  0  0  0  0  0  0
    4.7350    1.4740   19.3250 C   0  0  0  0  0  0  0  0  0  0  0  0
    5.1810    1.3160   18.0290 C   0  0  0  0  0  0  0  0  0  0  0  0
    6.2620    0.6130   17.6880 N   0  0  0  0  0  0  0  0  0  0  0  0
    6.9090    0.0610   18.7160 C   0  0  0  0  0  0  0  0  0  0  0  0
  1  2  1  0
  2  3  1  0
  3  4  2  0
  4  5  1  0
  2  6  1  0
  5  6  2  0
  6  7  1  0
  7  8  1  0
  8  9  1  0
  9 10  1  0
 10 11  1  0
 11 12  2  0
 11 13  1  0
 13 14  1  0
 14 15  2  0
 15 16  1  0
 16 17  2  0
 17 18  1  0
 14 19  1  0
 18 19  2  0
M  END
