pyridine_urea_3007
     RDKit          3D

 21 22  0  0  0  0  0  0  0  0999 V2000
   12.6350    2.6010   22.7920 C   0  0  0  0  0  0  0  0  0  0  0  0
   12.2870    1.1330   23.0530 C   0  0  0  0  0  0  0  0  0  0  0  0
   11.0960    0.8570   24.0230 C   0  0  0  0  0  0  0  0  0  0  0  0
   10.6260   -0.4480   24.3680 C   0  0  0  0  0  0  0  0  0  0  0  0
    9.4290   -0.4990   25.3390 C   0  0  0  0  0  0  0  0  0  0  0  0
    8.7600    0.7170   25.4100 N   0  0  0  0  0  0  0  0  0  0  0  0
   11.2590   -1.6750   23.8140 C   0  0  0  0  0  0  0  0  0  0  0  0
   12.4610   -1.5000   22.8410 C   0  0  0  0  0  0  0  0  0  0  0  0
   12.7950   -0.0750   22.6110 C   0  0  0  0  0  0  0  0  0  0  0  0
   11.6580   -0.5720   23.4690 C   0  0  0  0  0  0  0  0  0  0  0  0
   10.4290    0.1750   22.8910 C   0  0  0  0  0  0  0  0  0  0  0  0
    9.4120   -0.5460   22.2180 N   0  0  0  0  0  0  0  0  0  0  0  0
    8.4740    0.1390   21.4110 C   0  0  0  0  0  0  0  0  0  0  0  0
    8.6440    1.2980   21.0120 O   0  0  0  0  0  0  0  0  0  0  0  0
    7.3700   -0.5800   21.1060 N   0  0  0  0  0  0  0  0  0  0  0  0
    6.6490   -0.0050   20.1100 C   0  0  0  0  0  0  0  0  0  0  0  0
    5.5030    0.7360   20.4260 C   0  0  0  0  0  0  0  0  0  0  0  0
    4.7550    1.3550   19.4100 C   0  0  0  0  0  0  0  0  0  0  0  0
    5.1480    1.2370   18.0820 C   0  0  0  0  0  0  0  0  0  0  0  0
    6.2210    0.5410   17.7000 N   0  0  0  0  0  0  0  0  0  0  0  0
    6.9820   -0.0960   18.7760 C   0  0  0  0  0  0  0  0  0  0  0  0
  1  2  1  0
  2  3  2  0
  3  4  1  0
  4  5  1  0
  5  6  3  0
  4  7  2  0
  7  8  1  0
  2  9  1  0
  8  9  2  0
  9 10  1  0
 10 11  1  0
 11 12  1  0
 12 13  1  0
 13 14  2  0
 13 15  1  0
 15 16  1  0
 16 17  2  0
 17 18  1  0
 18 19  2  0
 19 20  1  0
 16 21  1  0
 20 21  2  0
M  END
