pyridine_urea_12442
     RDKit          3D

 21 22  0  0  0  0  0  0  0  0999 V2000
   10.0600    0.9200   24.3540 C   0  0  0  0  0  0  0  0  0  0  0  0
   10.9030   -0.2640   23.8490 C   0  0  0  0  0  0  0  0  0  0  0  0
   11.0800   -1.2080   25.0850 C   0  0  0  0  0  0  0  0  0  0  0  0
   10.1210   -1.0180   22.7490 C   0  0  0  0  0  0  0  0  0  0  0  0
    8.8480   -0.4920   22.5650 N   0  0  0  0  0  0  0  0  0  0  0  0
    8.2670    0.0800   21.4820 C   0  0  0  0  0  0  0  0  0  0  0  0
    8.7080    1.1770   21.0930 O   0  0  0  0  0  0  0  0  0  0  0  0
    7.2510   -0.6250   20.9490 N   0  0  0  0  0  0  0  0  0  0  0  0
    6.5350    0.0330   20.0340 C   0  0  0  0  0  0  0  0  0  0  0  0
    5.2440    0.8220   20.2930 C   0  0  0  0  0  0  0  0  0  0  0  0
    4.4920    1.5640   19.1960 C   0  0  0  0  0  0  0  0  0  0  0  0
    5.1800    1.4190   17.8500 C   0  0  0  0  0  0  0  0  0  0  0  0
    6.3280    0.6880   17.7060 N   0  0  0  0  0  0  0  0  0  0  0  0
    6.9810    0.0210   18.7350 C   0  0  0  0  0  0  0  0  0  0  0  0
   12.1270    0.0610   23.2140 C   0  0  0  0  0  0  0  0  0  0  0  0
   12.6340    1.4240   23.1840 C   0  0  0  0  0  0  0  0  0  0  0  0
   13.0610    0.2450   22.7140 C   0  0  0  0  0  0  0  0  0  0  0  0
   12.0610   -0.8030   23.0920 C   0  0  0  0  0  0  0  0  0  0  0  0
   10.9590   -0.4490   23.7990 F   0  0  0  0  0  0  0  0  0  0  0  0
   12.3550   -2.0490   22.6890 C   0  0  0  0  0  0  0  0  0  0  0  0
   12.9680   -0.9470   22.5370 N   0  0  0  0  0  0  0  0  0  0  0  0
  2  1  1  0
  2  3  1  0
  2  4  1  0
  4  5  1  0
  5  6  1  0
  6  7  2  0
  6  8  1  0
  8  9  1  0
  9 10  2  0
 10 11  1  0
 11 12  2  0
 12 13  1  0
  9 14  1  0
 13 14  2  0
  2 15  1  0
 15 16  2  0
 16 17  1  0
 17 18  2  0
 18 19  1  0
 18 20  1  0
 15 21  1  0
 20 21  2  0
M  END
