pyridine_urea_14028
     RDKit          3D

 23 25  0  0  0  0  0  0  0  0999 V2000
    9.7400    0.9890   24.7650 C   0  0  0  0  0  0  0  0  0  0  0  0
   10.1600    0.0600   24.1750 C   0  0  1  0  0  0  0  0  0  0  0  0
   10.2450   -1.1540   23.2610 C   0  0  1  0  0  0  0  0  0  0  0  0
    8.9780   -1.4630   22.4940 N   0  0  0  0  0  0  0  0  0  0  0  0
    8.3560   -0.3850   21.6430 C   0  0  0  0  0  0  0  0  0  0  0  0
    8.9700    0.8420   21.2730 O   0  0  0  0  0  0  0  0  0  0  0  0
    7.0720   -0.8030   21.2900 N   0  0  0  0  0  0  0  0  0  0  0  0
    6.6340   -0.1880   20.1880 C   0  0  0  0  0  0  0  0  0  0  0  0
    5.3850    0.6610   20.4600 C   0  0  0  0  0  0  0  0  0  0  0  0
    4.7680    1.4040   19.3370 C   0  0  0  0  0  0  0  0  0  0  0  0
    5.3560    1.2820   18.1340 C   0  0  0  0  0  0  0  0  0  0  0  0
    6.4620    0.5340   17.8750 N   0  0  0  0  0  0  0  0  0  0  0  0
    7.0680   -0.1770   18.8780 C   0  0  0  0  0  0  0  0  0  0  0  0
   11.5250   -1.0910   22.4360 C   0  0  0  0  0  0  0  0  0  0  0  0
   12.2150    0.0660   22.8400 C   0  0  0  0  0  0  0  0  0  0  0  0
   11.2650    0.9050   23.6490 N   0  0  0  0  0  0  0  0  0  0  0  0
   10.5000    1.8960   23.0170 C   0  0  0  0  0  0  0  0  0  0  0  0
   10.8370    3.3670   23.2160 C   0  0  0  0  0  0  0  0  0  0  0  0
   12.1510    3.0690   22.6540 C   0  0  0  0  0  0  0  0  0  0  0  0
   13.0420    4.2650   22.5700 C   0  0  0  0  0  0  0  0  0  0  0  0
   12.5770    5.5280   23.0180 C   0  0  0  0  0  0  0  0  0  0  0  0
   11.2650    5.6730   23.5520 C   0  0  0  0  0  0  0  0  0  0  0  0
   10.3720    4.5930   23.6590 C   0  0  0  0  0  0  0  0  0  0  0  0
  2  1  1  6
  2  3  1  0
  3  4  1  6
  4  5  1  0
  5  6  2  0
  5  7  1  0
  7  8  1  0
  8  9  2  0
  9 10  1  0
 10 11  2  0
 11 12  1  0
  8 13  1  0
 12 13  2  0
  3 14  1  0
 14 15  1  0
  2 16  1  0
 15 16  1  0
 16 17  1  0
 17 18  1  0
 18 19  2  0
 19 20  1  0
 20 21  2  0
 21 22  1  0
 18 23  1  0
 22 23  2  0
M  END
