pyridine_urea_10515
     RDKit          3D

 22 23  0  0  0  0  0  0  0  0999 V2000
   12.2620   -2.9330   24.6490 C   0  0  0  0  0  0  0  0  0  0  0  0
   13.5990   -2.3400   24.2180 C   0  0  0  0  0  0  0  0  0  0  0  0
   13.2860   -1.1780   23.4090 N   0  0  0  0  0  0  0  0  0  0  0  0
   12.0980   -1.1950   23.0490 C   0  0  0  0  0  0  0  0  0  0  0  0
   11.2770   -0.5090   24.0920 C   0  0  0  0  0  0  0  0  0  0  0  0
    9.8820   -0.3600   23.9850 C   0  0  0  0  0  0  0  0  0  0  0  0
    9.3000   -0.8640   22.8990 C   0  0  0  0  0  0  0  0  0  0  0  0
    7.9290   -0.7820   22.6620 N   0  0  0  0  0  0  0  0  0  0  0  0
    7.6740   -0.1650   21.5020 C   0  0  0  0  0  0  0  0  0  0  0  0
    8.3400    0.7790   21.0870 O   0  0  0  0  0  0  0  0  0  0  0  0
    6.5590   -0.7710   20.8760 N   0  0  0  0  0  0  0  0  0  0  0  0
    6.0970   -0.0350   19.8560 C   0  0  0  0  0  0  0  0  0  0  0  0
    4.9250    0.6780   20.0130 C   0  0  0  0  0  0  0  0  0  0  0  0
    4.4570    1.4460   18.9820 C   0  0  0  0  0  0  0  0  0  0  0  0
    5.1560    1.5060   17.7840 C   0  0  0  0  0  0  0  0  0  0  0  0
    6.2990    0.8120   17.6050 N   0  0  0  0  0  0  0  0  0  0  0  0
    6.7410    0.0610   18.6420 C   0  0  0  0  0  0  0  0  0  0  0  0
   10.2970   -1.5470   21.9060 C   0  0  0  0  0  0  0  0  0  0  0  0
   11.6600   -1.8260   21.7550 C   0  0  0  0  0  0  0  0  0  0  0  0
   13.0590    0.0000   23.9810 C   0  0  0  0  0  0  0  0  0  0  0  0
   13.2570    0.9930   23.0360 C   0  0  0  0  0  0  0  0  0  0  0  0
   11.5780    0.1810   24.2830 C   0  0  0  0  0  0  0  0  0  0  0  0
  1  2  1  0
  2  3  1  0
  3  4  1  0
  4  5  2  0
  5  6  1  0
  6  7  2  0
  7  8  1  0
  8  9  1  0
  9 10  2  0
  9 11  1  0
 11 12  1  0
 12 13  2  0
 13 14  1  0
 14 15  2  0
 15 16  1  0
 12 17  1  0
 16 17  2  0
  7 18  1  0
  4 19  1  0
 18 19  2  0
  3 20  1  0
 20 21  1  0
 20 22  1  0
M  END
