pyridine_urea_10169
     RDKit          3D

 23 24  0  0  0  0  0  0  0  0999 V2000
   10.1900   -2.8720   23.7700 C   0  0  0  0  0  0  0  0  0  0  0  0
   11.3820   -3.0830   23.5730 O   0  0  0  0  0  0  0  0  0  0  0  0
   12.2640   -2.9230   24.6070 C   0  0  0  0  0  0  0  0  0  0  0  0
   13.5640   -2.5630   24.2530 C   0  0  0  0  0  0  0  0  0  0  0  0
   13.6970   -1.5720   23.5480 O   0  0  0  0  0  0  0  0  0  0  0  0
   12.4070   -1.1450   23.2450 C   0  0  0  0  0  0  0  0  0  0  0  0
   11.8160   -0.5450   24.2410 C   0  0  0  0  0  0  0  0  0  0  0  0
   12.8220   -0.5350   25.5000 Cl  0  0  0  0  0  0  0  0  0  0  0  0
   10.5620   -0.0790   24.1320 C   0  0  0  0  0  0  0  0  0  0  0  0
    9.8520   -0.2940   22.8350 C   0  0  0  0  0  0  0  0  0  0  0  0
    8.5680    0.1420   22.6960 N   0  0  0  0  0  0  0  0  0  0  0  0
    8.0750    0.4760   21.4810 C   0  0  0  0  0  0  0  0  0  0  0  0
    8.4560    1.4540   20.8490 O   0  0  0  0  0  0  0  0  0  0  0  0
    7.0640   -0.4850   21.0830 N   0  0  0  0  0  0  0  0  0  0  0  0
    6.3760    0.1530   19.9740 C   0  0  0  0  0  0  0  0  0  0  0  0
    5.1970    0.8360   20.2130 C   0  0  0  0  0  0  0  0  0  0  0  0
    4.5230    1.4770   19.2000 C   0  0  0  0  0  0  0  0  0  0  0  0
    5.1490    1.3770   17.8650 C   0  0  0  0  0  0  0  0  0  0  0  0
    6.2950    0.6980   17.6390 N   0  0  0  0  0  0  0  0  0  0  0  0
    6.8850    0.0980   18.6920 C   0  0  0  0  0  0  0  0  0  0  0  0
   10.5540   -0.9470   21.8370 C   0  0  0  0  0  0  0  0  0  0  0  0
   11.8590   -1.3720   22.0610 C   0  0  0  0  0  0  0  0  0  0  0  0
   12.8580   -2.2020   20.9640 Cl  0  0  0  0  0  0  0  0  0  0  0  0
  1  2  1  0
  2  3  1  0
  3  4  1  0
  4  5  1  0
  5  6  1  0
  6  7  2  0
  7  8  1  0
  7  9  1  0
  9 10  2  0
 10 11  1  0
 11 12  1  0
 12 13  2  0
 12 14  1  0
 14 15  1  0
 15 16  2  0
 16 17  1  0
 17 18  2  0
 18 19  1  0
 15 20  1  0
 19 20  2  0
 10 21  1  0
  6 22  1  0
 21 22  2  0
 22 23  1  0
M  END
