pyridine_urea_9293
     RDKit          3D

 17 17  0  0  0  0  0  0  0  0999 V2000
   11.6530    1.4390   23.8500 C   0  0  0  0  0  0  0  0  0  0  0  0
   10.6390    0.3500   23.8760 C   0  0  0  0  0  0  0  0  0  0  0  0
   10.6000   -0.4660   22.7700 C   0  0  2  0  0  0  0  0  0  0  0  0
    9.2880   -0.7870   22.3390 N   0  0  0  0  0  0  0  0  0  0  0  0
    8.5510    0.0560   21.5070 C   0  0  0  0  0  0  0  0  0  0  0  0
    8.9140    1.1980   21.1860 O   0  0  0  0  0  0  0  0  0  0  0  0
    7.3580   -0.5130   21.0750 N   0  0  0  0  0  0  0  0  0  0  0  0
    6.5840    0.0830   20.0620 C   0  0  0  0  0  0  0  0  0  0  0  0
    5.4160    0.7720   20.4240 C   0  0  0  0  0  0  0  0  0  0  0  0
    4.6530    1.3870   19.4340 C   0  0  0  0  0  0  0  0  0  0  0  0
    5.1570    1.2590   17.9970 C   0  0  0  0  0  0  0  0  0  0  0  0
    6.2650    0.5850   17.7040 N   0  0  0  0  0  0  0  0  0  0  0  0
    6.9430    0.0200   18.7260 C   0  0  0  0  0  0  0  0  0  0  0  0
   11.6310   -1.4230   22.7610 C   0  0  0  0  0  0  0  0  0  0  0  0
   11.4840   -2.3510   23.7960 C   0  0  0  0  0  0  0  0  0  0  0  0
   12.9820   -0.8090   22.5400 C   0  0  0  0  0  0  0  0  0  0  0  0
   11.4470   -2.1130   21.6020 O   0  0  0  0  0  0  0  0  0  0  0  0
  1  2  1  0
  3  2  1  1
  3  4  1  0
  4  5  1  0
  5  6  2  0
  5  7  1  0
  7  8  1  0
  8  9  2  0
  9 10  1  0
 10 11  2  0
 11 12  1  0
  8 13  1  0
 12 13  2  0
  3 14  1  0
 14 15  1  0
 14 16  1  0
 14 17  1  0
M  END
