pyridine_urea_12352
     RDKit          3D

 22 24  0  0  0  0  0  0  0  0999 V2000
    8.7690    0.8790   21.3340 O   0  0  0  0  0  0  0  0  0  0  0  0
    8.3290   -0.1790   21.7600 C   0  0  0  0  0  0  0  0  0  0  0  0
    7.2290   -0.7940   21.1710 N   0  0  0  0  0  0  0  0  0  0  0  0
    6.5260   -0.0820   20.1050 C   0  0  0  0  0  0  0  0  0  0  0  0
    5.2110    0.7050   20.4250 C   0  0  0  0  0  0  0  0  0  0  0  0
    4.5840    1.3720   19.3740 C   0  0  0  0  0  0  0  0  0  0  0  0
    5.2490    1.2740   17.9960 C   0  0  0  0  0  0  0  0  0  0  0  0
    6.3820    0.5800   17.7710 N   0  0  0  0  0  0  0  0  0  0  0  0
    6.9810   -0.0710   18.7980 C   0  0  0  0  0  0  0  0  0  0  0  0
    8.8130   -0.9030   22.8480 N   0  0  0  0  0  0  0  0  0  0  0  0
   10.1300   -0.5360   23.4030 C   0  0  1  0  0  0  0  0  0  0  0  0
   10.7300   -1.6210   24.2290 C   0  0  0  0  0  0  0  0  0  0  0  0
   12.1760   -1.2100   24.4930 C   0  0  0  0  0  0  0  0  0  0  0  0
   13.0100   -2.2150   25.2780 C   0  0  0  0  0  0  0  0  0  0  0  0
   12.3220   -3.5030   25.7290 C   0  0  0  0  0  0  0  0  0  0  0  0
   10.8500   -3.7330   25.3870 C   0  0  0  0  0  0  0  0  0  0  0  0
   10.1230   -2.8030   24.6610 C   0  0  0  0  0  0  0  0  0  0  0  0
   11.0430   -0.3290   22.4120 C   0  0  1  0  0  0  0  0  0  0  0  0
   11.9610    0.6210   22.8720 C   0  0  0  0  0  0  0  0  0  0  0  0
   13.2210    0.1010   22.8800 C   0  0  0  0  0  0  0  0  0  0  0  0
   13.2780   -0.8940   22.1570 O   0  0  0  0  0  0  0  0  0  0  0  0
   11.9190   -1.3640   22.0400 C   0  0  0  0  0  0  0  0  0  0  0  0
  1  2  2  0
  2  3  1  0
  3  4  1  0
  4  5  2  0
  5  6  1  0
  6  7  2  0
  7  8  1  0
  4  9  1  0
  8  9  2  0
  2 10  1  0
 11 10  1  6
 11 12  1  0
 12 13  2  0
 13 14  1  0
 14 15  2  0
 15 16  1  0
 12 17  1  0
 16 17  2  0
 11 18  1  0
 18 19  1  1
 19 20  1  0
 20 21  1  0
 18 22  1  0
 21 22  1  0
M  END
