pyridine_urea_14742
     RDKit          3D

 20 21  0  0  0  0  0  0  0  0999 V2000
    8.9940    0.9280   21.5670 O   0  0  0  0  0  0  0  0  0  0  0  0
    8.6910   -0.2450   21.4210 C   0  0  0  0  0  0  0  0  0  0  0  0
    9.6020   -1.2940   21.5490 N   0  0  0  0  0  0  0  0  0  0  0  0
   10.2100   -1.8460   22.7340 C   0  0  0  0  0  0  0  0  0  0  0  0
   11.6080   -1.8850   23.0340 C   0  0  0  0  0  0  0  0  0  0  0  0
   12.2620   -0.6710   22.9930 C   0  0  0  0  0  0  0  0  0  0  0  0
   12.6030    0.7010   23.0290 C   0  0  0  0  0  0  0  0  0  0  0  0
   11.9040    1.8710   23.2590 C   0  0  0  0  0  0  0  0  0  0  0  0
   10.4510    1.8040   23.5570 C   0  0  0  0  0  0  0  0  0  0  0  0
    9.3250    3.2970   23.8410 Br  0  0  0  0  0  0  0  0  0  0  0  0
   10.0330    0.5450   23.5920 C   0  0  0  0  0  0  0  0  0  0  0  0
   10.8460   -0.5670   23.3420 C   0  0  0  0  0  0  0  0  0  0  0  0
    9.9690   -2.0540   23.4910 Cl  0  0  0  0  0  0  0  0  0  0  0  0
    7.4220   -0.6650   21.0630 N   0  0  0  0  0  0  0  0  0  0  0  0
    6.6390   -0.0200   20.0890 C   0  0  0  0  0  0  0  0  0  0  0  0
    5.4670    0.6970   20.3860 C   0  0  0  0  0  0  0  0  0  0  0  0
    4.6840    1.3860   19.3140 C   0  0  0  0  0  0  0  0  0  0  0  0
    5.1400    1.3080   18.0000 C   0  0  0  0  0  0  0  0  0  0  0  0
    6.3030    0.5720   17.7770 N   0  0  0  0  0  0  0  0  0  0  0  0
    7.0030   -0.0520   18.7540 C   0  0  0  0  0  0  0  0  0  0  0  0
  1  2  2  0
  2  3  1  0
  3  4  1  0
  4  5  1  0
  5  6  1  0
  6  7  2  0
  7  8  1  0
  8  9  2  0
  9 10  1  0
  9 11  1  0
  6 12  1  0
 11 12  2  0
 12 13  1  0
  2 14  1  0
 14 15  1  0
 15 16  2  0
 16 17  1  0
 17 18  2  0
 18 19  1  0
 15 20  1  0
 19 20  2  0
M  END
