pyridine_urea_53
     RDKit          3D

 22 23  0  0  0  0  0  0  0  0999 V2000
   13.7580    0.7800   22.4920 C   0  0  0  0  0  0  0  0  0  0  0  0
   12.7500    0.9470   23.0930 C   0  0  0  0  0  0  0  0  0  0  0  0
   11.4680    1.1600   23.8560 C   0  0  0  0  0  0  0  0  0  0  0  0
   10.8060   -0.1280   23.6030 C   0  0  1  0  0  0  0  0  0  0  0  0
   10.3010   -0.3040   22.3060 C   0  0  2  0  0  0  0  0  0  0  0  0
    8.8750   -0.4790   22.3490 N   0  0  0  0  0  0  0  0  0  0  0  0
    8.2460    0.2310   21.3530 C   0  0  0  0  0  0  0  0  0  0  0  0
    8.6880    1.3050   20.9530 O   0  0  0  0  0  0  0  0  0  0  0  0
    7.1130   -0.3880   20.8960 N   0  0  0  0  0  0  0  0  0  0  0  0
    6.3020    0.2190   19.9390 C   0  0  0  0  0  0  0  0  0  0  0  0
    5.1310    0.8260   20.2570 C   0  0  0  0  0  0  0  0  0  0  0  0
    4.5600    1.3870   18.9800 C   0  0  0  0  0  0  0  0  0  0  0  0
    5.1240    1.2940   17.7440 C   0  0  0  0  0  0  0  0  0  0  0  0
    6.2780    0.6830   17.5150 N   0  0  0  0  0  0  0  0  0  0  0  0
    6.8090    0.1680   18.6360 C   0  0  0  0  0  0  0  0  0  0  0  0
   11.0770   -1.6100   22.0500 C   0  0  0  0  0  0  0  0  0  0  0  0
   11.8300   -1.2940   23.2740 C   0  0  2  0  0  0  0  0  0  0  0  0
   11.8720   -2.4230   24.1630 O   0  0  0  0  0  0  0  0  0  0  0  0
   13.1500   -2.4850   24.7330 C   0  0  0  0  0  0  0  0  0  0  0  0
   13.3600   -1.1940   25.4640 C   0  0  0  0  0  0  0  0  0  0  0  0
   14.0090   -2.5800   23.4760 C   0  0  0  0  0  0  0  0  0  0  0  0
   13.4170   -3.6860   25.6370 C   0  0  0  0  0  0  0  0  0  0  0  0
  1  2  2  3
  2  3  1  0
  4  3  1  6
  4  5  1  0
  5  6  1  1
  6  7  1  0
  7  8  2  0
  7  9  1  0
  9 10  1  0
 10 11  2  0
 11 12  1  0
 12 13  2  0
 13 14  1  0
 10 15  1  0
 14 15  2  0
  5 16  1  0
  4 17  1  0
 16 17  1  0
 17 18  1  1
 19 18  1  0
 19 20  1  0
 19 21  1  0
 19 22  1  0
M  END
