pyridine_urea_3413
     RDKit          3D

 19 20  0  0  0  0  0  0  0  0999 V2000
    6.3150    1.9110   24.8600 C   0  0  0  0  0  0  0  0  0  0  0  0
    7.4310    0.9100   24.8580 C   0  0  0  0  0  0  0  0  0  0  0  0
    7.8060    0.1680   25.9310 C   0  0  0  0  0  0  0  0  0  0  0  0
    8.9160   -0.6860   25.5600 N   0  0  0  0  0  0  0  0  0  0  0  0
   10.1120   -0.0400   25.2940 C   0  0  0  0  0  0  0  0  0  0  0  0
   10.2470   -0.3200   26.4650 O   0  0  0  0  0  0  0  0  0  0  0  0
    9.5550    0.0730   24.0150 C   0  0  0  0  0  0  0  0  0  0  0  0
   10.3760   -0.3480   22.8080 C   0  0  0  0  0  0  0  0  0  0  0  0
    9.4470   -0.7630   21.8720 N   0  0  0  0  0  0  0  0  0  0  0  0
    8.4990    0.1040   21.2990 C   0  0  0  0  0  0  0  0  0  0  0  0
    8.7730    1.2870   21.0730 O   0  0  0  0  0  0  0  0  0  0  0  0
    7.3170   -0.4920   21.0260 N   0  0  0  0  0  0  0  0  0  0  0  0
    6.5390    0.1000   20.0910 C   0  0  0  0  0  0  0  0  0  0  0  0
    5.3660    0.8080   20.3200 C   0  0  0  0  0  0  0  0  0  0  0  0
    4.6570    1.3930   19.3000 C   0  0  0  0  0  0  0  0  0  0  0  0
    5.1420    1.2640   18.0100 C   0  0  0  0  0  0  0  0  0  0  0  0
    6.2660    0.5830   17.7260 N   0  0  0  0  0  0  0  0  0  0  0  0
    6.9340    0.0180   18.7650 C   0  0  0  0  0  0  0  0  0  0  0  0
    8.2350    0.5630   23.7820 C   0  0  0  0  0  0  0  0  0  0  0  0
  1  2  1  0
  2  3  2  0
  3  4  1  0
  4  5  1  0
  5  6  2  0
  5  7  1  0
  7  8  1  0
  8  9  1  0
  9 10  1  0
 10 11  2  0
 10 12  1  0
 12 13  1  0
 13 14  2  0
 14 15  1  0
 15 16  2  0
 16 17  1  0
 13 18  1  0
 17 18  2  0
  2 19  1  0
  7 19  2  0
M  END
