pyridine_urea_13647
     RDKit          3D

 26 28  0  0  0  0  0  0  0  0999 V2000
    8.7910    1.2280   21.1510 O   0  0  0  0  0  0  0  0  0  0  0  0
    8.4920    0.0560   21.4220 C   0  0  0  0  0  0  0  0  0  0  0  0
    9.1410   -0.7380   22.3260 N   0  0  0  0  0  0  0  0  0  0  0  0
   10.4960   -0.5320   22.4990 C   0  0  0  0  0  0  0  0  0  0  0  0
   11.5970   -1.5750   22.2950 C   0  0  0  0  0  0  0  0  0  0  0  0
   12.9930   -1.0280   22.5340 C   0  0  0  0  0  0  0  0  0  0  0  0
   13.1190    0.4070   22.9220 C   0  0  0  0  0  0  0  0  0  0  0  0
   12.0890    1.2360   23.0790 N   0  0  0  0  0  0  0  0  0  0  0  0
   10.8460    0.7560   22.8720 C   0  0  0  0  0  0  0  0  0  0  0  0
    7.4540   -0.5870   20.8170 N   0  0  0  0  0  0  0  0  0  0  0  0
    6.3980    0.2300   20.3090 C   0  0  2  0  0  0  0  0  0  0  0  0
    5.2270   -0.4990   20.1880 C   0  0  0  0  0  0  0  0  0  0  0  0
    4.7000   -0.0260   19.0150 C   0  0  0  0  0  0  0  0  0  0  0  0
    5.3390    0.9980   18.4840 N   0  0  0  0  0  0  0  0  0  0  0  0
    4.7950    2.2950   18.5370 C   0  0  0  0  0  0  0  0  0  0  0  0
    3.4940    2.4940   19.0840 C   0  0  0  0  0  0  0  0  0  0  0  0
    2.6100    3.4100   18.4300 C   0  0  0  0  0  0  0  0  0  0  0  0
    1.2370    3.5850   19.0600 C   0  0  0  0  0  0  0  0  0  0  0  0
    0.8410    2.9290   20.1820 C   0  0  0  0  0  0  0  0  0  0  0  0
   -0.3930    3.0220   20.8280 C   0  0  0  0  0  0  0  0  0  0  0  0
   -1.1760    1.9370   20.8820 F   0  0  0  0  0  0  0  0  0  0  0  0
   -0.1740    3.3860   22.1160 F   0  0  0  0  0  0  0  0  0  0  0  0
   -1.1950    3.9810   20.2820 F   0  0  0  0  0  0  0  0  0  0  0  0
    1.8160    1.9760   20.8460 C   0  0  0  0  0  0  0  0  0  0  0  0
    3.0610    1.8280   20.2520 C   0  0  0  0  0  0  0  0  0  0  0  0
    6.5570    0.9040   19.0930 C   0  0  0  0  0  0  0  0  0  0  0  0
  1  2  2  0
  2  3  1  0
  3  4  1  0
  4  5  2  0
  5  6  1  0
  6  7  2  0
  7  8  1  0
  4  9  1  0
  8  9  2  0
  2 10  1  0
 11 10  1  6
 11 12  1  0
 12 13  1  0
 13 14  1  0
 14 15  1  0
 15 16  1  0
 16 17  2  0
 17 18  1  0
 18 19  2  0
 19 20  1  0
 20 21  1  0
 20 22  1  0
 20 23  1  0
 19 24  1  0
 16 25  1  0
 24 25  2  0
 11 26  1  0
 14 26  1  0
M  END
