pyridine_urea_5869
     RDKit          3D

 17 19  0  0  0  0  0  0  0  0999 V2000
    8.8610    0.6960   21.3100 O   0  0  0  0  0  0  0  0  0  0  0  0
    8.3520   -0.3890   21.5590 C   0  0  0  0  0  0  0  0  0  0  0  0
    7.0100   -0.7550   21.1090 N   0  0  0  0  0  0  0  0  0  0  0  0
    6.4110   -0.0500   20.0730 C   0  0  0  0  0  0  0  0  0  0  0  0
    5.2410    0.6830   20.3020 C   0  0  0  0  0  0  0  0  0  0  0  0
    4.6660    1.3800   19.2380 C   0  0  0  0  0  0  0  0  0  0  0  0
    5.2730    1.3290   17.9800 C   0  0  0  0  0  0  0  0  0  0  0  0
    6.3950    0.6260   17.7520 N   0  0  0  0  0  0  0  0  0  0  0  0
    6.9380   -0.0490   18.7950 C   0  0  0  0  0  0  0  0  0  0  0  0
    8.8940   -1.4360   22.2780 N   0  0  0  0  0  0  0  0  0  0  0  0
   10.1180   -1.2950   23.0520 C   0  0  1  0  0  0  0  0  0  0  0  0
   11.2780   -1.0360   22.1410 C   0  0  0  0  0  0  0  0  0  0  0  0
   12.5150   -0.9240   22.7430 C   0  0  0  0  0  0  0  0  0  0  0  0
   12.6030    0.1730   23.6060 C   0  0  0  0  0  0  0  0  0  0  0  0
   11.4230    0.5330   24.2760 C   0  0  2  0  0  0  0  0  0  0  0  0
   10.8780   -0.3790   25.0390 C   0  0  0  0  0  0  0  0  0  0  0  0
   10.0690   -0.3570   24.0470 C   0  0  2  0  0  0  0  0  0  0  0  0
  1  2  2  0
  2  3  1  0
  3  4  1  0
  4  5  2  0
  5  6  1  0
  6  7  2  0
  7  8  1  0
  4  9  1  0
  8  9  2  0
  2 10  1  0
 11 10  1  6
 11 12  1  0
 12 13  1  0
 13 14  1  0
 15 14  1  6
 15 16  1  0
 11 17  1  0
 15 17  1  0
 17 16  1  1
M  END
