pyridine_urea_373
     RDKit          3D

 26 28  0  0  0  0  0  0  0  0999 V2000
    8.9030    0.6660   21.4140 O   0  0  0  0  0  0  0  0  0  0  0  0
    8.4870   -0.4770   21.3110 C   0  0  0  0  0  0  0  0  0  0  0  0
    9.2890   -1.6100   21.4040 N   0  0  0  0  0  0  0  0  0  0  0  0
   10.0890   -2.0080   22.5700 C   0  0  0  0  0  0  0  0  0  0  0  0
   11.4800   -1.3770   22.6300 C   0  0  0  0  0  0  0  0  0  0  0  0
   10.2770   -0.5640   22.8630 C   0  0  0  0  0  0  0  0  0  0  0  0
   10.2990    0.6760   23.0960 C   0  0  0  0  0  0  0  0  0  0  0  0
   11.0770    1.8300   23.2670 C   0  0  0  0  0  0  0  0  0  0  0  0
   10.3690    3.4260   23.5480 S   0  0  0  0  0  0  0  0  0  0  0  0
    9.7630    3.7970   22.2990 O   0  0  0  0  0  0  0  0  0  0  0  0
    9.5370    3.3970   24.7150 O   0  0  0  0  0  0  0  0  0  0  0  0
   11.7620    4.3200   23.7290 N   0  0  0  0  0  0  0  0  0  0  0  0
   12.5560    4.3150   22.5700 C   0  0  0  0  0  0  0  0  0  0  0  0
   13.7170    4.9510   22.5440 C   0  0  0  0  0  0  0  0  0  0  0  0
   12.9430    6.2200   22.3860 C   0  0  0  0  0  0  0  0  0  0  0  0
   12.2120    6.6300   23.4890 C   0  0  0  0  0  0  0  0  0  0  0  0
   11.6790    5.6160   24.2400 C   0  0  0  0  0  0  0  0  0  0  0  0
   12.3730    1.3620   23.1310 C   0  0  0  0  0  0  0  0  0  0  0  0
   12.5890   -0.1640   22.8230 C   0  0  0  0  0  0  0  0  0  0  0  0
    7.1630   -0.7510   21.0310 N   0  0  0  0  0  0  0  0  0  0  0  0
    6.4610   -0.0660   20.0950 C   0  0  0  0  0  0  0  0  0  0  0  0
    5.1690    0.6720   20.2830 C   0  0  0  0  0  0  0  0  0  0  0  0
    4.5810    1.3410   19.2090 C   0  0  0  0  0  0  0  0  0  0  0  0
    5.2410    1.2900   17.9840 C   0  0  0  0  0  0  0  0  0  0  0  0
    6.4000    0.6340   17.7700 N   0  0  0  0  0  0  0  0  0  0  0  0
    6.9710   -0.0170   18.8080 C   0  0  0  0  0  0  0  0  0  0  0  0
  1  2  2  0
  2  3  1  0
  3  4  1  0
  4  5  1  0
  5  6  2  0
  6  7  1  0
  7  8  2  0
  9  8  1  0
  9 10  2  0
  9 11  2  0
  9 12  1  0
 12 13  1  0
 13 14  1  0
 14 15  1  0
 15 16  1  0
 12 17  1  0
 16 17  1  0
  8 18  1  0
  5 19  1  0
 18 19  2  0
  2 20  1  0
 20 21  1  0
 21 22  2  0
 22 23  1  0
 23 24  2  0
 24 25  1  0
 21 26  1  0
 25 26  2  0
M  END
