pyridine_urea_4830
     RDKit          3D

 21 22  0  0  0  0  0  0  0  0999 V2000
    8.2010   -1.2120   24.9060 C   0  0  0  0  0  0  0  0  0  0  0  0
    8.8460   -0.0770   25.7400 C   0  0  0  0  0  0  0  0  0  0  0  0
    8.6670    1.2750   25.0280 C   0  0  0  0  0  0  0  0  0  0  0  0
    8.2500   -0.0540   27.1740 C   0  0  0  0  0  0  0  0  0  0  0  0
   10.2430   -0.3270   25.9050 O   0  0  0  0  0  0  0  0  0  0  0  0
   11.0110   -0.8300   24.8940 C   0  0  0  0  0  0  0  0  0  0  0  0
   11.7040   -1.8280   25.0240 O   0  0  0  0  0  0  0  0  0  0  0  0
   11.0700   -0.2560   23.6270 C   0  0  0  0  0  0  0  0  0  0  0  0
   10.4540   -0.9740   22.6120 C   0  0  0  0  0  0  0  0  0  0  0  0
    9.0650   -0.8110   22.4360 N   0  0  0  0  0  0  0  0  0  0  0  0
    8.4520    0.0420   21.5370 C   0  0  0  0  0  0  0  0  0  0  0  0
    8.9780    1.3370   21.1980 O   0  0  0  0  0  0  0  0  0  0  0  0
    7.2850   -0.5120   21.0410 N   0  0  0  0  0  0  0  0  0  0  0  0
    6.5480    0.0920   20.0450 C   0  0  0  0  0  0  0  0  0  0  0  0
    5.3920    0.8060   20.4060 C   0  0  0  0  0  0  0  0  0  0  0  0
    4.6680    1.4300   19.3850 C   0  0  0  0  0  0  0  0  0  0  0  0
    5.1630    1.2970   17.9980 C   0  0  0  0  0  0  0  0  0  0  0  0
    6.2530    0.6090   17.6750 N   0  0  0  0  0  0  0  0  0  0  0  0
    6.9140    0.0250   18.7040 C   0  0  0  0  0  0  0  0  0  0  0  0
   12.4230    0.2000   23.4700 C   0  0  0  0  0  0  0  0  0  0  0  0
   11.6030    1.2050   23.4830 C   0  0  0  0  0  0  0  0  0  0  0  0
  1  2  1  0
  2  3  1  0
  2  4  1  0
  2  5  1  0
  5  6  1  0
  6  7  2  0
  8  6  1  0
  8  9  1  0
  9 10  1  0
 10 11  1  0
 11 12  2  0
 11 13  1  0
 13 14  1  0
 14 15  2  0
 15 16  1  0
 16 17  2  0
 17 18  1  0
 14 19  1  0
 18 19  2  0
  8 20  1  0
  8 21  1  0
 20 21  1  0
M  END
