pyridine_urea_5604
     RDKit          3D

 16 17  0  0  0  0  0  0  0  0999 V2000
    9.9930   -1.4460   24.1130 C   0  0  0  0  0  0  0  0  0  0  0  0
   10.3300   -0.6450   22.8740 C   0  0  1  0  0  0  0  0  0  0  0  0
   11.5620   -1.3800   22.2660 C   0  0  0  0  0  0  0  0  0  0  0  0
   12.7580   -0.8100   22.6340 C   0  0  0  0  0  0  0  0  0  0  0  0
   12.8090   -0.5680   23.9570 C   0  0  0  0  0  0  0  0  0  0  0  0
   12.8550    0.6150   23.0670 C   0  0  0  0  0  0  0  0  0  0  0  0
    9.2680   -0.8820   21.9340 N   0  0  0  0  0  0  0  0  0  0  0  0
    8.3290    0.0420   21.3300 C   0  0  0  0  0  0  0  0  0  0  0  0
    8.6200    1.2120   21.0430 O   0  0  0  0  0  0  0  0  0  0  0  0
    7.0780   -0.6070   21.1180 N   0  0  0  0  0  0  0  0  0  0  0  0
    6.4430    0.0360   20.0800 C   0  0  0  0  0  0  0  0  0  0  0  0
    5.1600    0.7980   20.3680 C   0  0  0  0  0  0  0  0  0  0  0  0
    4.5120    1.4960   19.1990 C   0  0  0  0  0  0  0  0  0  0  0  0
    5.2240    1.3530   17.8800 C   0  0  0  0  0  0  0  0  0  0  0  0
    6.3550    0.6570   17.7000 N   0  0  0  0  0  0  0  0  0  0  0  0
    6.9180    0.0320   18.7680 C   0  0  0  0  0  0  0  0  0  0  0  0
  2  1  1  1
  2  3  1  0
  3  4  1  0
  4  5  1  0
  4  6  1  0
  5  6  1  0
  2  7  1  0
  7  8  1  0
  8  9  2  0
  8 10  1  0
 10 11  1  0
 11 12  2  0
 12 13  1  0
 13 14  2  0
 14 15  1  0
 11 16  1  0
 15 16  2  0
M  END
