pyridine_urea_9886
     RDKit          3D

 25 26  0  0  0  0  0  0  0  0999 V2000
   11.3670    5.6590   25.1220 C   0  0  0  0  0  0  0  0  0  0  0  0
   11.5770    5.2750   23.6490 C   0  0  0  0  0  0  0  0  0  0  0  0
   12.0940    6.4770   22.8880 C   0  0  0  0  0  0  0  0  0  0  0  0
   10.3710    4.7430   23.0210 N   0  0  0  0  0  0  0  0  0  0  0  0
   10.5210    3.5310   22.0730 S   0  0  0  0  0  0  0  0  0  0  0  0
    9.3790    2.9440   21.3610 O   0  0  0  0  0  0  0  0  0  0  0  0
   11.7840    3.8150   21.4280 O   0  0  0  0  0  0  0  0  0  0  0  0
   10.8570    2.4600   23.2820 C   0  0  0  0  0  0  0  0  0  0  0  0
   11.3020    0.9960   23.0390 C   0  0  0  0  0  0  0  0  0  0  0  0
   12.8050    0.8060   22.7380 C   0  0  0  0  0  0  0  0  0  0  0  0
   13.2880   -0.5680   22.4910 C   0  0  0  0  0  0  0  0  0  0  0  0
   12.1800   -1.2010   22.6400 C   0  0  0  0  0  0  0  0  0  0  0  0
   10.8960   -1.1910   22.8940 C   0  0  0  0  0  0  0  0  0  0  0  0
   10.2070    0.0070   23.1560 C   0  0  0  0  0  0  0  0  0  0  0  0
    9.4460   -1.1380   23.1930 C   0  0  0  0  0  0  0  0  0  0  0  0
    8.1140   -0.7890   22.8730 N   0  0  0  0  0  0  0  0  0  0  0  0
    7.8900   -0.2370   21.5680 C   0  0  0  0  0  0  0  0  0  0  0  0
    8.5820    0.8290   21.0840 O   0  0  0  0  0  0  0  0  0  0  0  0
    6.9310   -0.8660   20.8870 N   0  0  0  0  0  0  0  0  0  0  0  0
    6.2990   -0.1110   19.9830 C   0  0  0  0  0  0  0  0  0  0  0  0
    5.1240    0.6060   20.1550 C   0  0  0  0  0  0  0  0  0  0  0  0
    4.5520    1.4000   19.0630 C   0  0  0  0  0  0  0  0  0  0  0  0
    5.2050    1.4270   17.8550 C   0  0  0  0  0  0  0  0  0  0  0  0
    6.3520    0.7260   17.6800 N   0  0  0  0  0  0  0  0  0  0  0  0
    6.8590   -0.0060   18.7160 C   0  0  0  0  0  0  0  0  0  0  0  0
  1  2  1  0
  2  3  1  0
  2  4  1  0
  5  4  1  0
  5  6  2  0
  5  7  2  0
  5  8  1  0
  8  9  1  0
  9 10  2  0
 10 11  1  0
 11 12  2  0
 12 13  1  0
  9 14  1  0
 13 14  2  0
 14 15  1  0
 15 16  1  0
 16 17  1  0
 17 18  2  0
 17 19  1  0
 19 20  1  0
 20 21  2  0
 21 22  1  0
 22 23  2  0
 23 24  1  0
 20 25  1  0
 24 25  2  0
M  END
