pyridine_urea_6242
     RDKit          3D

 24 25  0  0  0  0  0  0  0  0999 V2000
   12.4320    3.5270   22.5810 C   0  0  0  0  0  0  0  0  0  0  0  0
   11.3890    2.5700   22.4350 O   0  0  0  0  0  0  0  0  0  0  0  0
   11.6020    1.3420   23.1410 C   0  0  0  0  0  0  0  0  0  0  0  0
   12.1740    0.6460   24.1010 C   0  0  0  0  0  0  0  0  0  0  0  0
   11.4310   -0.5900   23.6070 C   0  0  0  0  0  0  0  0  0  0  0  0
   10.5740   -0.7790   22.5210 C   0  0  1  0  0  0  0  0  0  0  0  0
   10.6160   -2.0570   21.6840 C   0  0  0  0  0  0  0  0  0  0  0  0
    9.1680   -0.4150   22.7880 N   0  0  0  0  0  0  0  0  0  0  0  0
    8.5690    0.1830   21.6780 C   0  0  0  0  0  0  0  0  0  0  0  0
    9.0250    1.4480   21.1600 O   0  0  0  0  0  0  0  0  0  0  0  0
    7.4410   -0.5850   21.1600 N   0  0  0  0  0  0  0  0  0  0  0  0
    6.7100    0.0190   20.0400 C   0  0  0  0  0  0  0  0  0  0  0  0
    5.5050    0.8370   20.3900 C   0  0  0  0  0  0  0  0  0  0  0  0
    4.7650    1.4640   19.4080 C   0  0  0  0  0  0  0  0  0  0  0  0
    5.1030    1.3630   18.0700 C   0  0  0  0  0  0  0  0  0  0  0  0
    6.2630    0.5630   17.7070 N   0  0  0  0  0  0  0  0  0  0  0  0
    6.9940   -0.0610   18.6980 C   0  0  0  0  0  0  0  0  0  0  0  0
   11.5380   -1.9260   24.2330 C   0  0  0  0  0  0  0  0  0  0  0  0
   12.2970   -0.8610   24.7660 C   0  0  0  0  0  0  0  0  0  0  0  0
   11.3940   -0.2250   23.5060 C   0  0  0  0  0  0  0  0  0  0  0  0
   10.5100   -1.2120   22.9200 O   0  0  0  0  0  0  0  0  0  0  0  0
    9.2410   -1.4870   23.6060 C   0  0  0  0  0  0  0  0  0  0  0  0
    9.1140   -2.8770   23.6510 C   0  0  0  0  0  0  0  0  0  0  0  0
    9.2600   -0.7790   24.8370 C   0  0  0  0  0  0  0  0  0  0  0  0
  1  2  1  0
  2  3  1  0
  3  4  2  0
  4  5  1  0
  5  6  1  0
  6  7  1  1
  6  8  1  0
  8  9  1  0
  9 10  2  0
  9 11  1  0
 11 12  1  0
 12 13  2  0
 13 14  1  0
 14 15  2  0
 15 16  1  0
 12 17  1  0
 16 17  2  0
  5 18  2  0
 18 19  1  0
  3 20  1  0
 19 20  2  0
 20 21  1  0
 21 22  1  0
 22 23  1  0
 22 24  1  0
M  END
