pyridine_urea_12849
     RDKit          3D

 21 22  0  0  0  0  0  0  0  0999 V2000
   10.1540    0.6740   24.4360 C   0  0  0  0  0  0  0  0  0  0  0  0
   11.2890    1.5750   23.8830 C   0  0  0  0  0  0  0  0  0  0  0  0
   11.5630    1.2920   22.5490 O   0  0  0  0  0  0  0  0  0  0  0  0
   12.5120    0.3200   22.6710 C   0  0  0  0  0  0  0  0  0  0  0  0
   13.7890    0.4440   23.2840 O   0  0  0  0  0  0  0  0  0  0  0  0
   12.3460   -0.9120   22.1600 C   0  0  0  0  0  0  0  0  0  0  0  0
   13.3080   -1.7830   21.5470 N   0  0  0  0  0  0  0  0  0  0  0  0
   12.7460   -2.9510   21.1330 C   0  0  0  0  0  0  0  0  0  0  0  0
   11.4280   -2.8120   21.4820 N   0  0  0  0  0  0  0  0  0  0  0  0
   11.1470   -1.5890   22.1100 C   0  0  0  0  0  0  0  0  0  0  0  0
    9.9620   -1.0700   22.6020 C   0  0  0  0  0  0  0  0  0  0  0  0
    8.8630   -1.4000   21.9140 N   0  0  0  0  0  0  0  0  0  0  0  0
    8.1190   -0.3970   21.3750 C   0  0  0  0  0  0  0  0  0  0  0  0
    8.5740    0.9360   21.1330 O   0  0  0  0  0  0  0  0  0  0  0  0
    6.9100   -0.8440   21.1100 N   0  0  0  0  0  0  0  0  0  0  0  0
    6.3180   -0.0950   20.1030 C   0  0  0  0  0  0  0  0  0  0  0  0
    5.1550    0.6500   20.3290 C   0  0  0  0  0  0  0  0  0  0  0  0
    4.5920    1.3930   19.2770 C   0  0  0  0  0  0  0  0  0  0  0  0
    5.2720    1.3530   17.9490 C   0  0  0  0  0  0  0  0  0  0  0  0
    6.3850    0.6320   17.7540 N   0  0  0  0  0  0  0  0  0  0  0  0
    6.8790   -0.0750   18.8300 C   0  0  0  0  0  0  0  0  0  0  0  0
  1  2  1  0
  2  3  1  0
  3  4  1  0
  4  5  2  0
  4  6  1  0
  6  7  1  0
  7  8  1  0
  8  9  2  0
  6 10  2  0
  9 10  1  0
 10 11  1  0
 11 12  1  0
 12 13  1  0
 13 14  2  0
 13 15  1  0
 15 16  1  0
 16 17  2  0
 17 18  1  0
 18 19  2  0
 19 20  1  0
 16 21  1  0
 20 21  2  0
M  END
