pyridine_urea_8812
     RDKit          3D

 20 21  0  0  0  0  0  0  0  0999 V2000
    5.8890   -1.8420   21.2090 C   0  0  0  0  0  0  0  0  0  0  0  0
    6.3200   -1.3240   22.6100 C   0  0  2  0  0  0  0  0  0  0  0  0
    7.7200   -0.8030   22.6310 N   0  0  0  0  0  0  0  0  0  0  0  0
    8.1540   -0.0940   21.5200 C   0  0  0  0  0  0  0  0  0  0  0  0
    8.8530    1.1670   21.4780 O   0  0  0  0  0  0  0  0  0  0  0  0
    7.7950   -0.8020   20.4560 N   0  0  0  0  0  0  0  0  0  0  0  0
    6.8190   -0.0430   19.8450 C   0  0  0  0  0  0  0  0  0  0  0  0
    5.6570    0.5720   20.3290 C   0  0  0  0  0  0  0  0  0  0  0  0
    4.8020    1.3060   19.4970 C   0  0  0  0  0  0  0  0  0  0  0  0
    5.1420    1.4120   18.1600 C   0  0  0  0  0  0  0  0  0  0  0  0
    6.2420    0.8370   17.6640 N   0  0  0  0  0  0  0  0  0  0  0  0
    7.0190    0.1450   18.5230 C   0  0  0  0  0  0  0  0  0  0  0  0
    5.9830   -2.4530   23.5820 C   0  0  1  0  0  0  0  0  0  0  0  0
    4.8270   -3.1620   23.1700 C   0  0  0  0  0  0  0  0  0  0  0  0
    4.9480   -4.4880   22.8900 N   0  0  0  0  0  0  0  0  0  0  0  0
    5.4300   -4.6950   21.5560 C   0  0  0  0  0  0  0  0  0  0  0  0
    5.6280   -5.1980   23.8070 C   0  0  0  0  0  0  0  0  0  0  0  0
    6.7180   -4.5420   24.3050 C   0  0  0  0  0  0  0  0  0  0  0  0
    6.9940   -3.3190   23.8180 N   0  0  0  0  0  0  0  0  0  0  0  0
    8.3190   -3.0210   23.7400 C   0  0  0  0  0  0  0  0  0  0  0  0
  2  1  1  6
  2  3  1  0
  3  4  1  0
  4  5  2  0
  4  6  1  0
  6  7  1  0
  7  8  2  0
  8  9  1  0
  9 10  2  0
 10 11  1  0
  7 12  1  0
 11 12  2  0
  2 13  1  0
 13 14  1  6
 14 15  1  0
 15 16  1  0
 15 17  1  0
 17 18  1  0
 13 19  1  0
 18 19  1  0
 19 20  1  0
M  END
