pyridine_urea_12385
     RDKit          3D

 22 23  0  0  0  0  0  0  0  0999 V2000
   12.6690   -3.0160   24.7600 C   0  0  0  0  0  0  0  0  0  0  0  0
   13.7090   -2.6300   23.7400 C   0  0  0  0  0  0  0  0  0  0  0  0
   13.0660   -1.9260   22.2750 S   0  0  0  0  0  0  0  0  0  0  0  0
   13.6560   -2.2860   21.0150 O   0  0  0  0  0  0  0  0  0  0  0  0
   11.6490   -2.1100   22.4510 O   0  0  0  0  0  0  0  0  0  0  0  0
   13.5800   -0.3660   22.6870 N   0  0  0  0  0  0  0  0  0  0  0  0
   12.2810   -0.0580   23.0110 C   0  0  0  0  0  0  0  0  0  0  0  0
   11.8140    0.7980   23.9560 C   0  0  0  0  0  0  0  0  0  0  0  0
   10.3080    0.9070   24.0820 C   0  0  0  0  0  0  0  0  0  0  0  0
    9.5770    0.1150   23.2000 C   0  0  0  0  0  0  0  0  0  0  0  0
    8.2360    0.0140   23.0330 N   0  0  0  0  0  0  0  0  0  0  0  0
    7.9230    0.3780   21.6530 C   0  0  0  0  0  0  0  0  0  0  0  0
    8.5200    1.2900   21.0550 O   0  0  0  0  0  0  0  0  0  0  0  0
    6.9370   -0.3850   21.0980 N   0  0  0  0  0  0  0  0  0  0  0  0
    6.3170    0.1800   20.0090 C   0  0  0  0  0  0  0  0  0  0  0  0
    5.0070    0.8890   20.2610 C   0  0  0  0  0  0  0  0  0  0  0  0
    4.3560    1.5430   19.0590 C   0  0  0  0  0  0  0  0  0  0  0  0
    5.1390    1.3770   17.7730 C   0  0  0  0  0  0  0  0  0  0  0  0
    6.2960    0.7110   17.6590 N   0  0  0  0  0  0  0  0  0  0  0  0
    6.8450    0.1400   18.7430 C   0  0  0  0  0  0  0  0  0  0  0  0
   10.1700   -0.7140   22.2900 C   0  0  0  0  0  0  0  0  0  0  0  0
   11.4920   -0.8020   22.1990 C   0  0  0  0  0  0  0  0  0  0  0  0
  1  2  1  0
  2  3  1  0
  3  4  2  0
  3  5  2  0
  3  6  1  0
  6  7  1  0
  7  8  2  0
  8  9  1  0
  9 10  2  0
 10 11  1  0
 11 12  1  0
 12 13  2  0
 12 14  1  0
 14 15  1  0
 15 16  2  0
 16 17  1  0
 17 18  2  0
 18 19  1  0
 15 20  1  0
 19 20  2  0
 10 21  1  0
  7 22  1  0
 21 22  2  0
M  END
