pyridine_urea_5153
     RDKit          3D

 20 21  0  0  0  0  0  0  0  0999 V2000
    6.4120   -2.0420   29.2220 C   0  0  0  0  0  0  0  0  0  0  0  0
    6.5050   -2.1100   27.7340 C   0  0  0  0  0  0  0  0  0  0  0  0
    5.8310   -3.2060   27.0920 N   0  0  0  0  0  0  0  0  0  0  0  0
    6.0730   -3.0480   25.7750 N   0  0  0  0  0  0  0  0  0  0  0  0
    6.8790   -1.8880   25.6040 C   0  0  0  0  0  0  0  0  0  0  0  0
    7.3270   -1.4350   24.3670 C   0  0  0  0  0  0  0  0  0  0  0  0
    7.6970   -2.5180   23.5820 C   0  0  0  0  0  0  0  0  0  0  0  0
    8.8250   -2.2140   22.5940 C   0  0  0  0  0  0  0  0  0  0  0  0
    9.0920   -0.7790   22.5870 N   0  0  0  0  0  0  0  0  0  0  0  0
    8.5280    0.0670   21.5460 C   0  0  0  0  0  0  0  0  0  0  0  0
    9.0370    1.1510   21.2280 O   0  0  0  0  0  0  0  0  0  0  0  0
    7.3840   -0.4890   21.0220 N   0  0  0  0  0  0  0  0  0  0  0  0
    6.6380    0.0940   19.9930 C   0  0  0  0  0  0  0  0  0  0  0  0
    5.4750    0.7950   20.2890 C   0  0  0  0  0  0  0  0  0  0  0  0
    4.7140    1.3960   19.3200 C   0  0  0  0  0  0  0  0  0  0  0  0
    5.1360    1.2960   18.0080 C   0  0  0  0  0  0  0  0  0  0  0  0
    6.2470    0.6160   17.6740 N   0  0  0  0  0  0  0  0  0  0  0  0
    6.9770    0.0280   18.6580 C   0  0  0  0  0  0  0  0  0  0  0  0
    7.1390   -1.3150   26.8310 N   0  0  0  0  0  0  0  0  0  0  0  0
    7.8660   -0.2040   27.1100 C   0  0  0  0  0  0  0  0  0  0  0  0
  1  2  1  0
  2  3  2  0
  3  4  1  0
  4  5  2  0
  5  6  1  0
  6  7  1  0
  7  8  1  0
  8  9  1  0
  9 10  1  0
 10 11  2  0
 10 12  1  0
 12 13  1  0
 13 14  2  0
 14 15  1  0
 15 16  2  0
 16 17  1  0
 13 18  1  0
 17 18  2  0
  2 19  1  0
  5 19  1  0
 19 20  1  0
M  END
