pyridine_urea_8026
     RDKit          3D

 24 25  0  0  0  0  0  0  0  0999 V2000
    8.2660    0.4170   26.2750 C   0  0  0  0  0  0  0  0  0  0  0  0
    8.3130   -0.7100   25.7990 O   0  0  0  0  0  0  0  0  0  0  0  0
    9.4730   -0.9780   25.1520 C   0  0  0  0  0  0  0  0  0  0  0  0
   10.6500   -0.4890   25.4560 C   0  0  0  0  0  0  0  0  0  0  0  0
   11.9510   -0.5130   25.0880 C   0  0  0  0  0  0  0  0  0  0  0  0
   12.3230   -1.2610   24.0010 C   0  0  0  0  0  0  0  0  0  0  0  0
   12.3730   -2.0540   22.9360 C   0  0  0  0  0  0  0  0  0  0  0  0
   11.7030   -1.1650   22.1480 C   0  0  2  0  0  0  0  0  0  0  0  0
   12.3880    0.1590   22.5400 C   0  0  0  0  0  0  0  0  0  0  0  0
   13.7840    0.0380   22.2960 O   0  0  0  0  0  0  0  0  0  0  0  0
   10.3730   -1.2210   22.5130 C   0  0  0  0  0  0  0  0  0  0  0  0
    9.4180   -1.1650   21.4380 N   0  0  0  0  0  0  0  0  0  0  0  0
    8.5500   -0.1100   21.3340 C   0  0  0  0  0  0  0  0  0  0  0  0
    8.8740    1.0610   21.4490 O   0  0  0  0  0  0  0  0  0  0  0  0
    7.2650   -0.5140   21.0420 N   0  0  0  0  0  0  0  0  0  0  0  0
    6.4840    0.0980   20.1000 C   0  0  0  0  0  0  0  0  0  0  0  0
    5.3040    0.7980   20.3440 C   0  0  0  0  0  0  0  0  0  0  0  0
    4.6440    1.3820   19.2640 C   0  0  0  0  0  0  0  0  0  0  0  0
    5.1360    1.2780   17.9770 C   0  0  0  0  0  0  0  0  0  0  0  0
    6.2550    0.6080   17.6910 N   0  0  0  0  0  0  0  0  0  0  0  0
    6.9040    0.0290   18.7830 C   0  0  0  0  0  0  0  0  0  0  0  0
   11.0060   -1.8660   23.6240 C   0  0  0  0  0  0  0  0  0  0  0  0
    9.6540   -1.7770   24.1290 C   0  0  0  0  0  0  0  0  0  0  0  0
    8.2470   -2.7800   23.3200 Br  0  0  0  0  0  0  0  0  0  0  0  0
  1  2  1  0
  2  3  1  0
  3  4  2  0
  4  5  1  0
  5  6  2  0
  6  7  1  0
  8  7  1  1
  8  9  1  0
  9 10  1  0
  8 11  1  0
 11 12  1  0
 12 13  1  0
 13 14  2  0
 13 15  1  0
 15 16  1  0
 16 17  2  0
 17 18  1  0
 18 19  2  0
 19 20  1  0
 16 21  1  0
 20 21  2  0
  6 22  1  0
  3 23  1  0
 22 23  2  0
 23 24  1  0
M  END
