pyridine_urea_8502
     RDKit          3D

 22 23  0  0  0  0  0  0  0  0999 V2000
   12.5000    6.1880   22.6380 C   0  0  0  0  0  0  0  0  0  0  0  0
   11.9210    4.8620   23.0420 C   0  0  0  0  0  0  0  0  0  0  0  0
   12.1460    3.6820   22.3320 C   0  0  0  0  0  0  0  0  0  0  0  0
   13.1190    2.8380   23.0370 N   0  0  0  0  0  0  0  0  0  0  0  0
   13.2560    1.4640   22.8710 C   0  0  0  0  0  0  0  0  0  0  0  0
   14.2760    0.8700   22.7010 O   0  0  0  0  0  0  0  0  0  0  0  0
   12.1550    0.7820   22.8130 C   0  0  0  0  0  0  0  0  0  0  0  0
   10.8340    1.3690   23.0220 C   0  0  0  0  0  0  0  0  0  0  0  0
    9.8210    0.5450   22.8660 C   0  0  0  0  0  0  0  0  0  0  0  0
   10.0180   -0.9120   22.4930 C   0  0  0  0  0  0  0  0  0  0  0  0
    8.7890   -1.4200   22.3490 N   0  0  0  0  0  0  0  0  0  0  0  0
    8.0320   -0.5890   21.4970 C   0  0  0  0  0  0  0  0  0  0  0  0
    8.4900    0.5060   21.1920 O   0  0  0  0  0  0  0  0  0  0  0  0
    6.8440   -0.9760   20.9990 N   0  0  0  0  0  0  0  0  0  0  0  0
    6.1970   -0.1950   20.0360 C   0  0  0  0  0  0  0  0  0  0  0  0
    5.0020    0.5070   20.2040 C   0  0  0  0  0  0  0  0  0  0  0  0
    4.5020    1.2620   19.1320 C   0  0  0  0  0  0  0  0  0  0  0  0
    5.1930    1.3030   17.9250 C   0  0  0  0  0  0  0  0  0  0  0  0
    6.3390    0.6330   17.7380 N   0  0  0  0  0  0  0  0  0  0  0  0
    6.8160   -0.1010   18.7980 C   0  0  0  0  0  0  0  0  0  0  0  0
   11.4300   -1.5880   22.2970 C   0  0  0  0  0  0  0  0  0  0  0  0
   12.3720   -0.5600   22.4990 C   0  0  0  0  0  0  0  0  0  0  0  0
  1  2  2  3
  2  3  1  0
  3  4  1  0
  4  5  1  0
  5  6  2  0
  5  7  1  0
  7  8  2  0
  8  9  1  0
  9 10  2  0
 10 11  1  0
 11 12  1  0
 12 13  2  0
 12 14  1  0
 14 15  1  0
 15 16  2  0
 16 17  1  0
 17 18  2  0
 18 19  1  0
 15 20  1  0
 19 20  2  0
 10 21  1  0
  7 22  1  0
 21 22  2  0
M  END
