pyridine_urea_4626
     RDKit          3D

 22 24  0  0  0  0  0  0  0  0999 V2000
   10.4120   -2.5070   22.2740 C   0  0  0  0  0  0  0  0  0  0  0  0
   11.6660   -2.1410   21.8520 N   0  0  0  0  0  0  0  0  0  0  0  0
   12.4270   -2.9340   21.0590 N   0  0  0  0  0  0  0  0  0  0  0  0
   13.4750   -2.2340   20.8770 C   0  0  0  0  0  0  0  0  0  0  0  0
   13.4210   -0.9770   21.5780 C   0  0  0  0  0  0  0  0  0  0  0  0
   12.2940   -0.9800   22.1260 C   0  0  0  0  0  0  0  0  0  0  0  0
   11.6960   -0.1130   22.7860 C   0  0  0  0  0  0  0  0  0  0  0  0
   12.2140    0.9240   23.4800 C   0  0  0  0  0  0  0  0  0  0  0  0
   11.2480    1.7020   24.0230 C   0  0  0  0  0  0  0  0  0  0  0  0
    9.9050    1.4450   23.8930 C   0  0  0  0  0  0  0  0  0  0  0  0
    9.4280    0.3960   23.1910 C   0  0  0  0  0  0  0  0  0  0  0  0
    8.1860    0.0240   22.9410 N   0  0  0  0  0  0  0  0  0  0  0  0
    7.9560    0.2160   21.6230 C   0  0  0  0  0  0  0  0  0  0  0  0
    8.5570    1.1420   21.0460 O   0  0  0  0  0  0  0  0  0  0  0  0
    7.0700   -0.6480   21.1090 N   0  0  0  0  0  0  0  0  0  0  0  0
    6.4500    0.0080   20.0100 C   0  0  0  0  0  0  0  0  0  0  0  0
    5.2030    0.7840   20.2500 C   0  0  0  0  0  0  0  0  0  0  0  0
    4.5610    1.4530   19.2310 C   0  0  0  0  0  0  0  0  0  0  0  0
    5.2000    1.3270   17.9600 C   0  0  0  0  0  0  0  0  0  0  0  0
    6.3220    0.6290   17.7190 N   0  0  0  0  0  0  0  0  0  0  0  0
    6.9290   -0.0200   18.7360 C   0  0  0  0  0  0  0  0  0  0  0  0
   10.3640   -0.3770   22.6400 C   0  0  0  0  0  0  0  0  0  0  0  0
  1  2  1  0
  2  3  1  0
  3  4  2  0
  4  5  1  0
  2  6  1  0
  5  6  2  0
  6  7  1  0
  7  8  2  0
  8  9  1  0
  9 10  2  0
 10 11  1  0
 11 12  1  0
 12 13  1  0
 13 14  2  0
 13 15  1  0
 15 16  1  0
 16 17  2  0
 17 18  1  0
 18 19  2  0
 19 20  1  0
 16 21  1  0
 20 21  2  0
  7 22  1  0
 11 22  2  0
M  END
