pyridine_urea_2082
     RDKit          3D

 20 22  0  0  0  0  0  0  0  0999 V2000
    8.7290    0.6260   21.4060 O   0  0  0  0  0  0  0  0  0  0  0  0
    8.2630   -0.5040   21.4700 C   0  0  0  0  0  0  0  0  0  0  0  0
    7.0410   -0.8700   20.9900 N   0  0  0  0  0  0  0  0  0  0  0  0
    6.3380   -0.0990   20.0600 C   0  0  0  0  0  0  0  0  0  0  0  0
    5.0160    0.6250   20.3530 C   0  0  0  0  0  0  0  0  0  0  0  0
    4.4620    1.4110   19.1690 C   0  0  0  0  0  0  0  0  0  0  0  0
    5.2450    1.3890   17.8950 C   0  0  0  0  0  0  0  0  0  0  0  0
    6.3980    0.7090   17.7480 N   0  0  0  0  0  0  0  0  0  0  0  0
    6.8940    0.0120   18.7950 C   0  0  0  0  0  0  0  0  0  0  0  0
    8.9590   -1.5450   22.0310 N   0  0  0  0  0  0  0  0  0  0  0  0
   10.3620   -1.3370   21.9800 C   0  0  2  0  0  0  0  0  0  0  0  0
   11.2760   -1.8920   22.6930 C   0  0  0  0  0  0  0  0  0  0  0  0
   10.8940   -0.7690   23.4210 C   0  0  1  0  0  0  0  0  0  0  0  0
   11.0630    0.5480   23.1400 C   0  0  0  0  0  0  0  0  0  0  0  0
   10.2220    1.6470   22.9450 C   0  0  0  0  0  0  0  0  0  0  0  0
   10.9370    2.9800   22.6600 C   0  0  0  0  0  0  0  0  0  0  0  0
   12.5860    2.9880   22.6060 C   0  0  0  0  0  0  0  0  0  0  0  0
   13.5160    4.6010   22.2720 Br  0  0  0  0  0  0  0  0  0  0  0  0
   13.1190    1.7290   22.8290 C   0  0  0  0  0  0  0  0  0  0  0  0
   11.9720    1.3560   22.9430 C   0  0  0  0  0  0  0  0  0  0  0  0
  1  2  2  0
  2  3  1  0
  3  4  1  0
  4  5  2  0
  5  6  1  0
  6  7  2  0
  7  8  1  0
  4  9  1  0
  8  9  2  0
  2 10  1  0
 11 10  1  1
 11 12  1  0
 11 13  1  0
 12 13  1  0
 13 14  1  6
 14 15  2  0
 15 16  1  0
 16 17  2  0
 17 18  1  0
 17 19  1  0
 14 20  1  0
 19 20  2  0
M  END
