pyridine_urea_6406
     RDKit          3D

 23 25  0  0  0  0  0  0  0  0999 V2000
    8.8230    1.4060   21.1980 O   0  0  0  0  0  0  0  0  0  0  0  0
    8.4880    0.2290   21.3550 C   0  0  0  0  0  0  0  0  0  0  0  0
    7.1910   -0.2130   21.2390 N   0  0  0  0  0  0  0  0  0  0  0  0
    6.5030    0.2720   20.0760 C   0  0  0  0  0  0  0  0  0  0  0  0
    5.2370    1.0630   20.3480 C   0  0  0  0  0  0  0  0  0  0  0  0
    4.5680    1.5760   19.1270 C   0  0  0  0  0  0  0  0  0  0  0  0
    5.1350    1.2980   17.9010 C   0  0  0  0  0  0  0  0  0  0  0  0
    6.2530    0.5810   17.7100 N   0  0  0  0  0  0  0  0  0  0  0  0
    6.9070    0.0860   18.7760 C   0  0  0  0  0  0  0  0  0  0  0  0
    9.3650   -0.7830   21.6060 N   0  0  0  0  0  0  0  0  0  0  0  0
   10.2420   -0.8020   22.7880 C   0  0  0  0  0  0  0  0  0  0  0  0
    9.7040   -1.7690   23.5230 C   0  0  0  0  0  0  0  0  0  0  0  0
   11.1260   -2.1170   23.7210 C   0  0  0  0  0  0  0  0  0  0  0  0
   11.8500   -2.2320   24.8140 C   0  0  0  0  0  0  0  0  0  0  0  0
   13.1410   -2.5730   24.6390 C   0  0  0  0  0  0  0  0  0  0  0  0
   13.6430   -2.7700   23.3620 C   0  0  0  0  0  0  0  0  0  0  0  0
   13.0150   -2.6770   21.9390 C   0  0  0  0  0  0  0  0  0  0  0  0
   11.6050   -2.3140   22.3310 C   0  0  0  0  0  0  0  0  0  0  0  0
   10.2040    0.5750   23.5520 C   0  0  0  0  0  0  0  0  0  0  0  0
   11.4310    1.0980   23.9010 C   0  0  0  0  0  0  0  0  0  0  0  0
   12.3690    1.0900   22.9480 O   0  0  0  0  0  0  0  0  0  0  0  0
   12.7260   -0.2740   22.8080 C   0  0  0  0  0  0  0  0  0  0  0  0
   11.6130   -1.0800   22.4430 C   0  0  0  0  0  0  0  0  0  0  0  0
  1  2  2  0
  2  3  1  0
  3  4  1  0
  4  5  2  0
  5  6  1  0
  6  7  2  0
  7  8  1  0
  4  9  1  0
  8  9  2  0
  2 10  1  0
 11 10  1  0
 11 12  1  0
 12 13  1  0
 13 14  2  0
 14 15  1  0
 15 16  2  0
 16 17  1  0
 13 18  1  0
 17 18  2  0
 11 19  1  0
 19 20  1  0
 20 21  1  0
 21 22  1  0
 11 23  1  0
 22 23  1  0
M  END
