pyridine_urea_6840
     RDKit          3D

 21 22  0  0  0  0  0  0  0  0999 V2000
    9.5620   -0.4160   21.2450 O   0  0  0  0  0  0  0  0  0  0  0  0
    8.4730   -0.2690   21.7390 C   0  0  0  0  0  0  0  0  0  0  0  0
    8.2550    0.3270   22.9410 N   0  0  0  0  0  0  0  0  0  0  0  0
    8.1580    1.7250   23.1590 C   0  0  0  0  0  0  0  0  0  0  0  0
    9.1770    2.7200   22.5520 C   0  0  0  0  0  0  0  0  0  0  0  0
    9.7770    3.5700   23.4710 N   0  0  0  0  0  0  0  0  0  0  0  0
    9.1950    4.0510   24.6690 C   0  0  0  0  0  0  0  0  0  0  0  0
    8.6360    5.4540   24.6010 C   0  0  0  0  0  0  0  0  0  0  0  0
    7.4630    5.5740   25.2870 F   0  0  0  0  0  0  0  0  0  0  0  0
    8.3720    5.8590   23.3280 F   0  0  0  0  0  0  0  0  0  0  0  0
    9.4760    6.3770   25.1480 F   0  0  0  0  0  0  0  0  0  0  0  0
   11.1310    3.6840   23.3250 C   0  0  0  0  0  0  0  0  0  0  0  0
   11.8110    3.8320   22.2580 C   0  0  0  0  0  0  0  0  0  0  0  0
   12.0600    2.5050   22.7910 C   0  0  0  0  0  0  0  0  0  0  0  0
    7.2900   -0.6830   21.1510 N   0  0  0  0  0  0  0  0  0  0  0  0
    6.5560   -0.0170   20.2220 C   0  0  0  0  0  0  0  0  0  0  0  0
    5.3950    0.7460   20.3910 C   0  0  0  0  0  0  0  0  0  0  0  0
    4.7150    1.4060   19.3460 C   0  0  0  0  0  0  0  0  0  0  0  0
    5.2230    1.3010   18.0410 C   0  0  0  0  0  0  0  0  0  0  0  0
    6.3150    0.6040   17.7260 N   0  0  0  0  0  0  0  0  0  0  0  0
    6.9400   -0.0140   18.7470 C   0  0  0  0  0  0  0  0  0  0  0  0
  1  2  2  0
  2  3  1  0
  3  4  1  0
  4  5  1  0
  5  6  1  0
  6  7  1  0
  7  8  1  0
  8  9  1  0
  8 10  1  0
  8 11  1  0
  6 12  1  0
 12 13  1  0
 12 14  1  0
 13 14  1  0
  2 15  1  0
 15 16  1  0
 16 17  2  0
 17 18  1  0
 18 19  2  0
 19 20  1  0
 16 21  1  0
 20 21  2  0
M  END
