pyridine_urea_5830
     RDKit          3D

 20 21  0  0  0  0  0  0  0  0999 V2000
   13.6530   -2.5300   23.1960 C   0  0  0  0  0  0  0  0  0  0  0  0
   12.4890   -1.8290   23.6800 C   0  0  0  0  0  0  0  0  0  0  0  0
   11.4990   -2.3770   24.4410 C   0  0  0  0  0  0  0  0  0  0  0  0
   10.4530   -1.4130   24.7440 N   0  0  0  0  0  0  0  0  0  0  0  0
   10.4560   -0.1500   24.3370 C   0  0  0  0  0  0  0  0  0  0  0  0
    9.4080    0.6230   24.6230 C   0  0  0  0  0  0  0  0  0  0  0  0
    8.3140   -0.1820   24.0000 C   0  0  0  0  0  0  0  0  0  0  0  0
    7.7630    0.4900   22.9510 N   0  0  0  0  0  0  0  0  0  0  0  0
    8.1230    0.4810   21.5970 C   0  0  0  0  0  0  0  0  0  0  0  0
    8.9510    1.2530   21.1190 O   0  0  0  0  0  0  0  0  0  0  0  0
    7.3940   -0.4400   20.9360 N   0  0  0  0  0  0  0  0  0  0  0  0
    6.6160    0.1430   20.0160 C   0  0  0  0  0  0  0  0  0  0  0  0
    5.4630    0.8840   20.2900 C   0  0  0  0  0  0  0  0  0  0  0  0
    4.7340    1.4760   19.2470 C   0  0  0  0  0  0  0  0  0  0  0  0
    5.1250    1.3510   17.9290 C   0  0  0  0  0  0  0  0  0  0  0  0
    6.2660    0.5980   17.6850 N   0  0  0  0  0  0  0  0  0  0  0  0
    6.9890    0.0090   18.7030 C   0  0  0  0  0  0  0  0  0  0  0  0
   11.4100    0.4190   23.6120 N   0  0  0  0  0  0  0  0  0  0  0  0
   12.4160   -0.3400   23.2600 C   0  0  0  0  0  0  0  0  0  0  0  0
   13.3260    0.2940   22.5090 C   0  0  0  0  0  0  0  0  0  0  0  0
  1  2  1  0
  2  3  2  0
  3  4  1  0
  4  5  2  0
  5  6  1  0
  6  7  1  0
  7  8  1  0
  8  9  1  0
  9 10  2  0
  9 11  1  0
 11 12  1  0
 12 13  2  0
 13 14  1  0
 14 15  2  0
 15 16  1  0
 12 17  1  0
 16 17  2  0
  5 18  1  0
  2 19  1  0
 18 19  2  0
 19 20  1  0
M  END
