pyridine_urea_6992
     RDKit          3D

 20 22  0  0  0  0  0  0  0  0999 V2000
    8.9160    1.1990   21.1910 O   0  0  0  0  0  0  0  0  0  0  0  0
    8.4060    0.1120   21.5030 C   0  0  0  0  0  0  0  0  0  0  0  0
    9.0230   -0.8360   22.2790 N   0  0  0  0  0  0  0  0  0  0  0  0
   10.3480   -0.7820   22.7180 C   0  0  0  0  0  0  0  0  0  0  0  0
   10.6120   -0.5790   24.0620 C   0  0  0  0  0  0  0  0  0  0  0  0
    9.7350   -0.4390   24.9250 C   0  0  0  0  0  0  0  0  0  0  0  0
   11.1360   -0.4260   25.1450 C   0  0  0  0  0  0  0  0  0  0  0  0
   11.3880   -0.6670   23.6250 C   0  0  0  0  0  0  0  0  0  0  0  0
   12.2070   -0.8830   22.3570 C   0  0  0  0  0  0  0  0  0  0  0  0
   13.1010   -1.7470   22.3800 C   0  0  0  0  0  0  0  0  0  0  0  0
   12.1050   -2.1180   21.3870 C   0  0  0  0  0  0  0  0  0  0  0  0
   12.7490   -0.6160   23.9560 C   0  0  0  0  0  0  0  0  0  0  0  0
   11.8430   -0.4800   24.7880 C   0  0  0  0  0  0  0  0  0  0  0  0
    7.1680   -0.3230   21.1340 N   0  0  0  0  0  0  0  0  0  0  0  0
    6.5400    0.1950   19.9430 C   0  0  0  0  0  0  0  0  0  0  0  0
    5.4080    0.9610   20.2720 C   0  0  0  0  0  0  0  0  0  0  0  0
    4.6830    1.5740   19.2380 C   0  0  0  0  0  0  0  0  0  0  0  0
    5.1150    1.3980   17.9290 C   0  0  0  0  0  0  0  0  0  0  0  0
    6.2060    0.6410   17.6440 N   0  0  0  0  0  0  0  0  0  0  0  0
    6.9310    0.0300   18.6470 C   0  0  0  0  0  0  0  0  0  0  0  0
  1  2  2  0
  2  3  1  0
  3  4  1  0
  4  5  1  0
  5  6  2  0
  6  7  1  0
  7  8  2  0
  8  9  1  0
  9 10  1  0
  9 11  1  0
 10 11  1  0
  8 12  1  0
  5 13  1  0
 12 13  2  0
  2 14  1  0
 14 15  1  0
 15 16  2  0
 16 17  1  0
 17 18  2  0
 18 19  1  0
 15 20  1  0
 19 20  2  0
M  END
