pyridine_urea_11467
     RDKit          3D

 18 20  0  0  0  0  0  0  0  0999 V2000
    8.7620    0.7580   21.3570 O   0  0  0  0  0  0  0  0  0  0  0  0
    8.2060   -0.3090   21.5950 C   0  0  0  0  0  0  0  0  0  0  0  0
    7.0200   -0.7230   21.0550 N   0  0  0  0  0  0  0  0  0  0  0  0
    6.3980   -0.0430   20.0070 C   0  0  0  0  0  0  0  0  0  0  0  0
    5.2080    0.6560   20.2430 C   0  0  0  0  0  0  0  0  0  0  0  0
    4.5920    1.3500   19.1960 C   0  0  0  0  0  0  0  0  0  0  0  0
    5.1900    1.3190   17.9550 C   0  0  0  0  0  0  0  0  0  0  0  0
    6.3270    0.6490   17.7120 N   0  0  0  0  0  0  0  0  0  0  0  0
    6.9020   -0.0130   18.7300 C   0  0  0  0  0  0  0  0  0  0  0  0
    8.7550   -1.2160   22.4560 N   0  0  0  0  0  0  0  0  0  0  0  0
   10.1490   -0.9850   22.7740 C   0  0  1  0  0  0  0  0  0  0  0  0
   10.2370    0.1400   23.7740 C   0  0  0  0  0  0  0  0  0  0  0  0
   11.2990    0.8500   23.3510 C   0  0  0  0  0  0  0  0  0  0  0  0
   12.4740    0.3000   23.7820 C   0  0  2  0  0  0  0  0  0  0  0  0
   13.2520    0.4250   22.8630 C   0  0  0  0  0  0  0  0  0  0  0  0
   13.1000   -0.9980   23.2230 C   0  0  2  0  0  0  0  0  0  0  0  0
   12.3620   -1.7450   22.3350 C   0  0  0  0  0  0  0  0  0  0  0  0
   11.0610   -1.9810   23.0260 C   0  0  0  0  0  0  0  0  0  0  0  0
  1  2  2  0
  2  3  1  0
  3  4  1  0
  4  5  2  0
  5  6  1  0
  6  7  2  0
  7  8  1  0
  4  9  1  0
  8  9  2  0
  2 10  1  0
 11 10  1  1
 11 12  1  0
 12 13  1  0
 14 13  1  6
 14 15  1  0
 14 16  1  0
 16 15  1  6
 16 17  1  0
 11 18  1  0
 17 18  1  0
M  END
