pyridine_urea_3230
     RDKit          3D

 20 22  0  0  0  0  0  0  0  0999 V2000
    8.8520    0.8010   21.3290 O   0  0  0  0  0  0  0  0  0  0  0  0
    8.4640   -0.3600   21.2650 C   0  0  0  0  0  0  0  0  0  0  0  0
    7.1900   -0.7330   20.9580 N   0  0  0  0  0  0  0  0  0  0  0  0
    6.4690   -0.0580   19.9740 C   0  0  0  0  0  0  0  0  0  0  0  0
    5.2850    0.6130   20.2910 C   0  0  0  0  0  0  0  0  0  0  0  0
    4.5960    1.3010   19.2890 C   0  0  0  0  0  0  0  0  0  0  0  0
    5.1200    1.2860   18.0120 C   0  0  0  0  0  0  0  0  0  0  0  0
    6.2490    0.6380   17.6930 N   0  0  0  0  0  0  0  0  0  0  0  0
    6.8930   -0.0140   18.6740 C   0  0  0  0  0  0  0  0  0  0  0  0
    9.3410   -1.3880   21.5000 N   0  0  0  0  0  0  0  0  0  0  0  0
   10.2690   -0.9540   22.4890 C   0  0  0  0  0  0  0  0  0  0  0  0
   11.7620   -0.9380   22.2100 C   0  0  0  0  0  0  0  0  0  0  0  0
   12.5860   -0.4550   23.1960 C   0  0  0  0  0  0  0  0  0  0  0  0
   12.0170   -0.0410   24.3960 C   0  0  0  0  0  0  0  0  0  0  0  0
   10.6130   -0.1010   24.6530 C   0  0  0  0  0  0  0  0  0  0  0  0
    9.7410   -0.5480   23.6850 C   0  0  0  0  0  0  0  0  0  0  0  0
    8.3380   -0.6220   23.8470 C   0  0  0  0  0  0  0  0  0  0  0  0
    7.8840   -0.1990   25.0840 C   0  0  0  0  0  0  0  0  0  0  0  0
    8.8200   -0.3020   26.0810 C   0  0  0  0  0  0  0  0  0  0  0  0
   10.0060    0.2380   25.8040 N   0  0  0  0  0  0  0  0  0  0  0  0
  1  2  2  0
  2  3  1  0
  3  4  1  0
  4  5  2  0
  5  6  1  0
  6  7  2  0
  7  8  1  0
  4  9  1  0
  8  9  2  0
  2 10  1  0
 10 11  1  0
 11 12  2  0
 12 13  1  0
 13 14  2  0
 14 15  1  0
 11 16  1  0
 15 16  2  0
 16 17  1  0
 17 18  1  0
 18 19  1  0
 15 20  1  0
 19 20  1  0
M  END
