pyridine_urea_1720
     RDKit          3D

 18 18  0  0  0  0  0  0  0  0999 V2000
    7.8000   -0.3970   26.9400 C   0  0  0  0  0  0  0  0  0  0  0  0
    8.7540   -0.1840   25.7920 C   0  0  0  0  0  0  0  0  0  0  0  0
    8.5620    0.8550   24.8800 C   0  0  0  0  0  0  0  0  0  0  0  0
    7.3770    0.9500   24.1540 C   0  0  0  0  0  0  0  0  0  0  0  0
    7.6880    2.0850   25.1360 C   0  0  0  0  0  0  0  0  0  0  0  0
    9.5590    1.1240   24.2120 O   0  0  0  0  0  0  0  0  0  0  0  0
   10.6010    0.1500   24.0690 C   0  0  0  0  0  0  0  0  0  0  0  0
   10.4950   -0.5370   22.8590 C   0  0  0  0  0  0  0  0  0  0  0  0
    9.1190   -0.7610   22.4600 N   0  0  0  0  0  0  0  0  0  0  0  0
    8.5530    0.0650   21.5220 C   0  0  0  0  0  0  0  0  0  0  0  0
    9.1110    1.3500   21.1890 O   0  0  0  0  0  0  0  0  0  0  0  0
    7.3440   -0.5060   20.9590 N   0  0  0  0  0  0  0  0  0  0  0  0
    6.6010    0.0640   19.9800 C   0  0  0  0  0  0  0  0  0  0  0  0
    5.4140    0.7250   20.3070 C   0  0  0  0  0  0  0  0  0  0  0  0
    4.6690    1.3230   19.2900 C   0  0  0  0  0  0  0  0  0  0  0  0
    5.1260    1.2350   17.9900 C   0  0  0  0  0  0  0  0  0  0  0  0
    6.2540    0.6000   17.6630 N   0  0  0  0  0  0  0  0  0  0  0  0
    6.9590    0.0320   18.6550 C   0  0  0  0  0  0  0  0  0  0  0  0
  1  2  1  0
  2  3  1  0
  3  4  1  0
  3  5  1  0
  3  6  1  0
  6  7  1  0
  7  8  1  0
  8  9  1  0
  9 10  1  0
 10 11  2  0
 10 12  1  0
 12 13  1  0
 13 14  2  0
 14 15  1  0
 15 16  2  0
 16 17  1  0
 13 18  1  0
 17 18  2  0
M  END
