pyridine_urea_10660
     RDKit          3D

 21 22  0  0  0  0  0  0  0  0999 V2000
   10.6620    4.7310   23.5520 C   0  0  0  0  0  0  0  0  0  0  0  0
   10.0300    3.7610   22.5310 C   0  0  0  0  0  0  0  0  0  0  0  0
    9.7280    2.4460   23.0940 N   0  0  0  0  0  0  0  0  0  0  0  0
   10.6510    1.4200   23.0020 C   0  0  0  0  0  0  0  0  0  0  0  0
   11.8290    1.5620   22.7230 O   0  0  0  0  0  0  0  0  0  0  0  0
   10.1900   -0.0190   23.3190 C   0  0  0  0  0  0  0  0  0  0  0  0
    8.8400   -0.2770   23.0700 N   0  0  0  0  0  0  0  0  0  0  0  0
    8.2840   -0.4840   21.7910 C   0  0  0  0  0  0  0  0  0  0  0  0
    9.0840   -0.9110   20.7640 O   0  0  0  0  0  0  0  0  0  0  0  0
    6.8660   -0.2340   21.6280 N   0  0  0  0  0  0  0  0  0  0  0  0
    6.2740    0.2600   20.4350 C   0  0  0  0  0  0  0  0  0  0  0  0
    5.0950    1.0230   20.4130 C   0  0  0  0  0  0  0  0  0  0  0  0
    4.5870    1.4820   19.1810 C   0  0  0  0  0  0  0  0  0  0  0  0
    5.2480    1.1870   18.0030 C   0  0  0  0  0  0  0  0  0  0  0  0
    6.3750    0.4640   17.9110 N   0  0  0  0  0  0  0  0  0  0  0  0
    6.9200   -0.0250   19.1010 C   0  0  0  0  0  0  0  0  0  0  0  0
   11.0860   -0.8790   22.3690 C   0  0  0  0  0  0  0  0  0  0  0  0
   12.4880   -0.5740   22.4110 C   0  0  0  0  0  0  0  0  0  0  0  0
   12.7850   -0.9580   23.8380 C   0  0  0  0  0  0  0  0  0  0  0  0
   12.0270   -0.2190   24.6970 C   0  0  0  0  0  0  0  0  0  0  0  0
   10.6570   -0.3750   24.5550 C   0  0  0  0  0  0  0  0  0  0  0  0
  1  2  1  0
  2  3  1  0
  3  4  1  0
  4  5  2  0
  6  4  1  0
  6  7  1  0
  7  8  1  0
  8  9  2  0
  8 10  1  0
 10 11  1  0
 11 12  2  0
 12 13  1  0
 13 14  2  0
 14 15  1  0
 11 16  1  0
 15 16  2  0
  6 17  1  0
 17 18  1  0
 18 19  1  0
 19 20  1  0
  6 21  1  0
 20 21  1  0
M  END
