pyridine_urea_5438
     RDKit          3D

 18 19  0  0  0  0  0  0  0  0999 V2000
    3.9240    3.2870   19.7690 C   0  0  0  0  0  0  0  0  0  0  0  0
    4.8420    2.1050   19.4850 C   0  0  0  0  0  0  0  0  0  0  0  0
    5.0660    1.5720   18.0500 C   0  0  0  0  0  0  0  0  0  0  0  0
    5.9370    0.4430   17.8710 N   0  0  0  0  0  0  0  0  0  0  0  0
    6.5800   -0.1810   18.9070 C   0  0  0  0  0  0  0  0  0  0  0  0
    7.5310   -1.5050   18.5500 Cl  0  0  0  0  0  0  0  0  0  0  0  0
    6.4190    0.3200   20.3350 C   0  0  0  0  0  0  0  0  0  0  0  0
    7.0680   -0.2610   21.3650 N   0  0  0  0  0  0  0  0  0  0  0  0
    8.3460    0.1930   21.5570 C   0  0  0  0  0  0  0  0  0  0  0  0
    8.7500    1.2620   21.0920 O   0  0  0  0  0  0  0  0  0  0  0  0
    9.0970   -0.6830   22.3170 N   0  0  0  0  0  0  0  0  0  0  0  0
   10.5450   -0.5900   22.5380 C   0  0  0  0  0  0  0  0  0  0  0  0
   10.8720    0.8960   22.9660 C   0  0  0  0  0  0  0  0  0  0  0  0
   12.3250    1.2140   23.2340 C   0  0  0  0  0  0  0  0  0  0  0  0
   12.9050   -0.0750   22.9810 C   0  0  0  0  0  0  0  0  0  0  0  0
   12.6230   -1.3240   22.6230 N   0  0  0  0  0  0  0  0  0  0  0  0
   11.3330   -1.8200   22.3220 C   0  0  0  0  0  0  0  0  0  0  0  0
    5.5980    1.3960   20.6430 C   0  0  0  0  0  0  0  0  0  0  0  0
  1  2  1  0
  2  3  2  0
  3  4  1  0
  4  5  2  0
  5  6  1  0
  5  7  1  0
  7  8  1  0
  8  9  1  0
  9 10  2  0
  9 11  1  0
 11 12  1  0
 12 13  2  0
 13 14  1  0
 14 15  2  0
 15 16  1  0
 12 17  1  0
 16 17  2  0
  2 18  1  0
  7 18  2  0
M  END
