pyridine_urea_5302
     RDKit          3D

 19 20  0  0  0  0  0  0  0  0999 V2000
   12.5640    2.8470   22.8040 C   0  0  0  0  0  0  0  0  0  0  0  0
   11.9170    1.5630   23.2530 C   0  0  0  0  0  0  0  0  0  0  0  0
   12.8280    0.7910   22.9230 C   0  0  0  0  0  0  0  0  0  0  0  0
   12.2650   -0.4220   23.3070 C   0  0  0  0  0  0  0  0  0  0  0  0
   12.3990   -1.6610   23.3800 N   0  0  0  0  0  0  0  0  0  0  0  0
   13.2620   -0.8650   22.9030 C   0  0  0  0  0  0  0  0  0  0  0  0
   11.9470    0.1190   23.4050 C   0  0  0  0  0  0  0  0  0  0  0  0
   10.8290   -0.4840   23.9840 C   0  0  0  0  0  0  0  0  0  0  0  0
    9.9550   -1.2950   23.0200 C   0  0  0  0  0  0  0  0  0  0  0  0
    8.7830   -0.6240   22.7960 N   0  0  0  0  0  0  0  0  0  0  0  0
    8.3960    0.0750   21.6370 C   0  0  0  0  0  0  0  0  0  0  0  0
    8.9390    1.1200   21.2290 O   0  0  0  0  0  0  0  0  0  0  0  0
    7.3370   -0.4680   20.9730 N   0  0  0  0  0  0  0  0  0  0  0  0
    6.5250    0.1580   20.0310 C   0  0  0  0  0  0  0  0  0  0  0  0
    5.3560    0.8710   20.2940 C   0  0  0  0  0  0  0  0  0  0  0  0
    4.6580    1.4650   19.2370 C   0  0  0  0  0  0  0  0  0  0  0  0
    5.1470    1.3300   17.9450 C   0  0  0  0  0  0  0  0  0  0  0  0
    6.2580    0.6430   17.6590 N   0  0  0  0  0  0  0  0  0  0  0  0
    6.9240    0.0690   18.7120 C   0  0  0  0  0  0  0  0  0  0  0  0
  1  2  1  0
  2  3  2  0
  3  4  1  0
  4  5  2  0
  5  6  1  0
  2  7  1  0
  6  7  2  0
  7  8  1  0
  8  9  1  0
  9 10  1  0
 10 11  1  0
 11 12  2  0
 11 13  1  0
 13 14  1  0
 14 15  2  0
 15 16  1  0
 16 17  2  0
 17 18  1  0
 14 19  1  0
 18 19  2  0
M  END
