pyridine_urea_2957
     RDKit          3D

 22 23  0  0  0  0  0  0  0  0999 V2000
    8.6900    0.6890   21.2100 O   0  0  0  0  0  0  0  0  0  0  0  0
    8.3070   -0.4240   21.5440 C   0  0  0  0  0  0  0  0  0  0  0  0
    7.1080   -0.9340   21.0860 N   0  0  0  0  0  0  0  0  0  0  0  0
    6.4360   -0.1660   20.0470 C   0  0  0  0  0  0  0  0  0  0  0  0
    5.1190    0.6160   20.3750 C   0  0  0  0  0  0  0  0  0  0  0  0
    4.5280    1.3390   19.3410 C   0  0  0  0  0  0  0  0  0  0  0  0
    5.2310    1.2990   17.9780 C   0  0  0  0  0  0  0  0  0  0  0  0
    6.3660    0.6050   17.7500 N   0  0  0  0  0  0  0  0  0  0  0  0
    6.9320   -0.0990   18.7620 C   0  0  0  0  0  0  0  0  0  0  0  0
    8.9840   -1.2800   22.3900 N   0  0  0  0  0  0  0  0  0  0  0  0
   10.3070   -0.7720   22.6990 C   0  0  0  0  0  0  0  0  0  0  0  0
   11.4390   -1.4580   21.9580 C   0  0  0  0  0  0  0  0  0  0  0  0
   12.8430   -0.9290   22.2150 C   0  0  0  0  0  0  0  0  0  0  0  0
   13.0130    0.2380   23.1760 C   0  0  0  0  0  0  0  0  0  0  0  0
   11.8170    0.8440   23.8800 C   0  0  0  0  0  0  0  0  0  0  0  0
   10.4590    0.2810   23.6040 C   0  0  0  0  0  0  0  0  0  0  0  0
    9.0620    1.0110   24.4690 S   0  0  0  0  0  0  0  0  0  0  0  0
    8.9700   -0.2300   25.7970 C   0  0  0  0  0  0  0  0  0  0  0  0
    7.7100   -0.3670   26.3900 C   0  0  0  0  0  0  0  0  0  0  0  0
    7.0240    0.8110   26.4770 F   0  0  0  0  0  0  0  0  0  0  0  0
    6.8920   -1.2140   25.7010 F   0  0  0  0  0  0  0  0  0  0  0  0
    7.7430   -0.8740   27.6500 F   0  0  0  0  0  0  0  0  0  0  0  0
  1  2  2  0
  2  3  1  0
  3  4  1  0
  4  5  2  0
  5  6  1  0
  6  7  2  0
  7  8  1  0
  4  9  1  0
  8  9  2  0
  2 10  1  0
 10 11  1  0
 11 12  2  0
 12 13  1  0
 13 14  2  0
 14 15  1  0
 11 16  1  0
 15 16  2  0
 16 17  1  0
 17 18  1  0
 18 19  1  0
 19 20  1  0
 19 21  1  0
 19 22  1  0
M  END
