pyridine_urea_12126
     RDKit          3D

 23 25  0  0  0  0  0  0  0  0999 V2000
    8.7990    0.8410   21.2840 O   0  0  0  0  0  0  0  0  0  0  0  0
    8.3340   -0.2660   21.5140 C   0  0  0  0  0  0  0  0  0  0  0  0
    7.1310   -0.7140   21.0430 N   0  0  0  0  0  0  0  0  0  0  0  0
    6.4530   -0.0540   20.0110 C   0  0  0  0  0  0  0  0  0  0  0  0
    5.2630    0.6280   20.2840 C   0  0  0  0  0  0  0  0  0  0  0  0
    4.5990    1.3030   19.2540 C   0  0  0  0  0  0  0  0  0  0  0  0
    5.1550    1.2690   17.9940 C   0  0  0  0  0  0  0  0  0  0  0  0
    6.2900    0.6140   17.7140 N   0  0  0  0  0  0  0  0  0  0  0  0
    6.9110   -0.0300   18.7200 C   0  0  0  0  0  0  0  0  0  0  0  0
    9.0260   -1.1670   22.2840 N   0  0  0  0  0  0  0  0  0  0  0  0
   10.3160   -0.6220   22.7030 C   0  0  0  0  0  0  0  0  0  0  0  0
   11.4840   -1.3640   22.0860 C   0  0  0  0  0  0  0  0  0  0  0  0
   12.7630   -0.9110   22.3930 C   0  0  0  0  0  0  0  0  0  0  0  0
   12.9140    0.1850   23.2370 C   0  0  0  0  0  0  0  0  0  0  0  0
   11.8280    0.8530   23.8060 C   0  0  0  0  0  0  0  0  0  0  0  0
   10.5290    0.4550   23.5470 C   0  0  0  0  0  0  0  0  0  0  0  0
    9.5310    0.9970   24.0060 O   0  0  0  0  0  0  0  0  0  0  0  0
    8.8540    0.3620   25.0910 C   0  0  0  0  0  0  0  0  0  0  0  0
    9.4530   -0.3190   26.1640 C   0  0  0  0  0  0  0  0  0  0  0  0
    8.6890   -0.9060   27.1870 C   0  0  0  0  0  0  0  0  0  0  0  0
    7.3050   -0.8350   27.1650 C   0  0  0  0  0  0  0  0  0  0  0  0
    6.7260   -0.1680   26.1100 C   0  0  0  0  0  0  0  0  0  0  0  0
    7.4820    0.3830   25.1550 N   0  0  0  0  0  0  0  0  0  0  0  0
  1  2  2  0
  2  3  1  0
  3  4  1  0
  4  5  2  0
  5  6  1  0
  6  7  2  0
  7  8  1  0
  4  9  1  0
  8  9  2  0
  2 10  1  0
 10 11  1  0
 11 12  2  0
 12 13  1  0
 13 14  2  0
 14 15  1  0
 11 16  1  0
 15 16  2  0
 16 17  1  0
 17 18  1  0
 18 19  2  0
 19 20  1  0
 20 21  2  0
 21 22  1  0
 18 23  1  0
 22 23  2  0
M  END
