pyridine_urea_12696
     RDKit          3D

 20 22  0  0  0  0  0  0  0  0999 V2000
    8.5030    1.5120   20.9100 O   0  0  0  0  0  0  0  0  0  0  0  0
    8.4990    0.3800   21.3740 C   0  0  0  0  0  0  0  0  0  0  0  0
    7.4880   -0.4930   21.0600 N   0  0  0  0  0  0  0  0  0  0  0  0
    6.7160    0.0280   19.9730 C   0  0  0  0  0  0  0  0  0  0  0  0
    5.4690    0.8590   20.3360 C   0  0  0  0  0  0  0  0  0  0  0  0
    4.6940    1.4240   19.3350 C   0  0  0  0  0  0  0  0  0  0  0  0
    5.0950    1.2080   18.0200 C   0  0  0  0  0  0  0  0  0  0  0  0
    6.2010    0.4550   17.7430 N   0  0  0  0  0  0  0  0  0  0  0  0
    7.0220   -0.1450   18.6940 C   0  0  0  0  0  0  0  0  0  0  0  0
    9.4710   -0.0790   22.2000 N   0  0  0  0  0  0  0  0  0  0  0  0
   10.4470   -0.3900   23.0620 C   0  0  1  0  0  0  0  0  0  0  0  0
    9.9840   -0.9440   24.2320 C   0  0  0  0  0  0  0  0  0  0  0  0
    8.6390   -1.0870   24.4990 C   0  0  0  0  0  0  0  0  0  0  0  0
    8.5920   -0.2350   25.5260 C   0  0  0  0  0  0  0  0  0  0  0  0
    9.9690    0.0510   25.4820 C   0  0  0  0  0  0  0  0  0  0  0  0
   11.6900   -0.7960   22.5910 C   0  0  2  0  0  0  0  0  0  0  0  0
   12.3090   -1.8010   23.2850 C   0  0  0  0  0  0  0  0  0  0  0  0
   12.8500   -1.0800   24.3840 C   0  0  0  0  0  0  0  0  0  0  0  0
   13.1800    0.1860   23.8510 O   0  0  0  0  0  0  0  0  0  0  0  0
   12.6560    0.1950   22.5260 C   0  0  0  0  0  0  0  0  0  0  0  0
  1  2  2  0
  2  3  1  0
  3  4  1  0
  4  5  2  0
  5  6  1  0
  6  7  2  0
  7  8  1  0
  4  9  1  0
  8  9  2  0
  2 10  1  0
 11 10  1  6
 11 12  1  0
 12 13  1  0
 13 14  1  0
 12 15  1  0
 14 15  1  0
 11 16  1  0
 16 17  1  1
 17 18  1  0
 18 19  1  0
 16 20  1  0
 19 20  1  0
M  END
