pyridine_urea_3733
     RDKit          3D

 19 21  0  0  0  0  0  0  0  0999 V2000
   13.0720   -1.9430   21.6440 C   0  0  0  0  0  0  0  0  0  0  0  0
   12.1290   -1.3320   22.6700 C   0  0  2  0  0  0  0  0  0  0  0  0
   12.7170    0.0220   23.0220 C   0  0  0  0  0  0  0  0  0  0  0  0
   11.8640    0.7260   24.0220 C   0  0  0  0  0  0  0  0  0  0  0  0
   10.3940    0.4900   23.7450 C   0  0  0  0  0  0  0  0  0  0  0  0
   10.0380   -0.8970   23.2310 C   0  0  2  0  0  0  0  0  0  0  0  0
    8.6230   -0.9520   22.8680 N   0  0  0  0  0  0  0  0  0  0  0  0
    8.2360   -0.2430   21.7330 C   0  0  0  0  0  0  0  0  0  0  0  0
    8.8400    0.7490   21.3420 O   0  0  0  0  0  0  0  0  0  0  0  0
    7.0490   -0.8140   21.1010 N   0  0  0  0  0  0  0  0  0  0  0  0
    6.3730   -0.0760   20.1060 C   0  0  0  0  0  0  0  0  0  0  0  0
    5.1900    0.6540   20.3180 C   0  0  0  0  0  0  0  0  0  0  0  0
    4.6580    1.3270   19.2320 C   0  0  0  0  0  0  0  0  0  0  0  0
    5.2710    1.2760   18.0020 C   0  0  0  0  0  0  0  0  0  0  0  0
    6.3970    0.5930   17.7590 N   0  0  0  0  0  0  0  0  0  0  0  0
    6.9140   -0.0660   18.8210 C   0  0  0  0  0  0  0  0  0  0  0  0
   10.6210   -1.9810   24.1160 C   0  0  0  0  0  0  0  0  0  0  0  0
   11.9560   -2.0030   23.7210 O   0  0  0  0  0  0  0  0  0  0  0  0
   10.8740   -1.3400   22.0680 C   0  0  0  0  0  0  0  0  0  0  0  0
  2  1  1  6
  2  3  1  0
  3  4  1  0
  4  5  1  0
  5  6  1  0
  6  7  1  6
  7  8  1  0
  8  9  2  0
  8 10  1  0
 10 11  1  0
 11 12  2  0
 12 13  1  0
 13 14  2  0
 14 15  1  0
 11 16  1  0
 15 16  2  0
  6 17  1  0
  2 18  1  0
 17 18  1  0
  2 19  1  0
  6 19  1  0
M  END
