pyridine_urea_4809
     RDKit          3D

 21 23  0  0  0  0  0  0  0  0999 V2000
    8.2320    1.5350   20.7920 O   0  0  0  0  0  0  0  0  0  0  0  0
    8.1590    0.4720   21.3900 C   0  0  0  0  0  0  0  0  0  0  0  0
    7.1710   -0.4180   21.1160 N   0  0  0  0  0  0  0  0  0  0  0  0
    6.5270    0.0860   19.9550 C   0  0  0  0  0  0  0  0  0  0  0  0
    5.2640    0.9060   20.2200 C   0  0  0  0  0  0  0  0  0  0  0  0
    4.5810    1.4810   19.1600 C   0  0  0  0  0  0  0  0  0  0  0  0
    5.0980    1.2740   17.8860 C   0  0  0  0  0  0  0  0  0  0  0  0
    6.2250    0.5220   17.6940 N   0  0  0  0  0  0  0  0  0  0  0  0
    6.9590   -0.0880   18.7070 C   0  0  0  0  0  0  0  0  0  0  0  0
    9.0470    0.1240   22.3110 N   0  0  0  0  0  0  0  0  0  0  0  0
   10.0880   -0.0360   23.0900 C   0  0  1  0  0  0  0  0  0  0  0  0
   11.1040    0.7900   22.7630 C   0  0  0  0  0  0  0  0  0  0  0  0
   11.3560    0.9000   24.0490 C   0  0  2  0  0  0  0  0  0  0  0  0
   12.1540   -0.1510   24.0760 C   0  0  0  0  0  0  0  0  0  0  0  0
   12.7040   -0.7330   25.1580 C   0  0  0  0  0  0  0  0  0  0  0  0
   13.4900   -1.9260   24.8680 C   0  0  0  0  0  0  0  0  0  0  0  0
   13.6510   -2.3810   23.5970 C   0  0  0  0  0  0  0  0  0  0  0  0
   14.3300   -3.3940   23.3590 F   0  0  0  0  0  0  0  0  0  0  0  0
   13.0770   -1.7350   22.5070 C   0  0  0  0  0  0  0  0  0  0  0  0
   12.3660   -0.6660   22.8210 C   0  0  0  0  0  0  0  0  0  0  0  0
   10.0660    0.4960   24.5390 C   0  0  0  0  0  0  0  0  0  0  0  0
  1  2  2  0
  2  3  1  0
  3  4  1  0
  4  5  2  0
  5  6  1  0
  6  7  2  0
  7  8  1  0
  4  9  1  0
  8  9  2  0
  2 10  1  0
 11 10  1  6
 11 12  1  0
 12 13  1  0
 13 14  1  1
 14 15  2  0
 15 16  1  0
 16 17  2  0
 17 18  1  0
 17 19  1  0
 14 20  1  0
 19 20  2  0
 11 21  1  0
 13 21  1  0
M  END
