pyridine_urea_109
     RDKit          3D

 17 18  0  0  0  0  0  0  0  0999 V2000
   12.2810   -1.4850   24.6260 C   0  0  0  0  0  0  0  0  0  0  0  0
   11.5010   -1.1390   23.7890 C   0  0  0  0  0  0  0  0  0  0  0  0
   10.1810   -1.2040   22.9750 C   0  0  2  0  0  0  0  0  0  0  0  0
   10.5840   -1.5740   21.6510 C   0  0  0  0  0  0  0  0  0  0  0  0
    9.9090   -2.7720   21.3410 O   0  0  0  0  0  0  0  0  0  0  0  0
    9.3570    0.0400   22.8840 N   0  0  0  0  0  0  0  0  0  0  0  0
    8.6850    0.4560   21.6940 C   0  0  0  0  0  0  0  0  0  0  0  0
    9.0200    1.5040   21.1510 O   0  0  0  0  0  0  0  0  0  0  0  0
    7.6660   -0.3630   21.2450 N   0  0  0  0  0  0  0  0  0  0  0  0
    6.8740    0.1050   20.2000 C   0  0  0  0  0  0  0  0  0  0  0  0
    5.6880    0.9570   20.5190 C   0  0  0  0  0  0  0  0  0  0  0  0
    4.8120    1.5010   19.6130 C   0  0  0  0  0  0  0  0  0  0  0  0
    5.2660    1.0840   18.2280 C   0  0  0  0  0  0  0  0  0  0  0  0
    6.3120    0.3230   17.8950 N   0  0  0  0  0  0  0  0  0  0  0  0
    7.0920   -0.1540   18.8690 C   0  0  0  0  0  0  0  0  0  0  0  0
   12.6830   -0.5950   22.7960 C   0  0  0  0  0  0  0  0  0  0  0  0
   11.7250    0.2110   23.1990 C   0  0  0  0  0  0  0  0  0  0  0  0
  2  1  1  0
  2  3  1  0
  3  4  1  6
  4  5  1  0
  3  6  1  0
  6  7  1  0
  7  8  2  0
  7  9  1  0
  9 10  1  0
 10 11  2  0
 11 12  1  0
 12 13  2  0
 13 14  1  0
 10 15  1  0
 14 15  2  0
  2 16  1  0
  2 17  1  0
 16 17  1  0
M  END
