pyridine_urea_7277
     RDKit          3D

 19 20  0  0  0  0  0  0  0  0999 V2000
   13.0970   -1.5620   21.7320 C   0  0  0  0  0  0  0  0  0  0  0  0
   13.0570   -0.9500   23.1380 C   0  0  0  0  0  0  0  0  0  0  0  0
   12.9740    0.4540   23.2020 C   0  0  0  0  0  0  0  0  0  0  0  0
   13.9240    0.3900   22.4750 O   0  0  0  0  0  0  0  0  0  0  0  0
   11.9740    0.0810   23.9640 N   0  0  0  0  0  0  0  0  0  0  0  0
   11.8800   -1.2430   24.2600 C   0  0  0  0  0  0  0  0  0  0  0  0
   10.9070   -1.6490   23.3620 C   0  0  0  0  0  0  0  0  0  0  0  0
   10.3330   -0.5850   22.7020 C   0  0  1  0  0  0  0  0  0  0  0  0
    8.8900   -0.6770   22.5760 N   0  0  0  0  0  0  0  0  0  0  0  0
    8.2810    0.0410   21.5890 C   0  0  0  0  0  0  0  0  0  0  0  0
    8.7630    1.3160   21.1140 O   0  0  0  0  0  0  0  0  0  0  0  0
    7.1430   -0.4970   21.0500 N   0  0  0  0  0  0  0  0  0  0  0  0
    6.4560    0.1130   20.0090 C   0  0  0  0  0  0  0  0  0  0  0  0
    5.2740    0.8250   20.2760 C   0  0  0  0  0  0  0  0  0  0  0  0
    4.6310    1.4370   19.2100 C   0  0  0  0  0  0  0  0  0  0  0  0
    5.1410    1.3460   17.9340 C   0  0  0  0  0  0  0  0  0  0  0  0
    6.2610    0.6630   17.6600 N   0  0  0  0  0  0  0  0  0  0  0  0
    6.8820    0.0690   18.7010 C   0  0  0  0  0  0  0  0  0  0  0  0
   10.7740    0.6160   23.5520 C   0  0  0  0  0  0  0  0  0  0  0  0
  1  2  1  0
  2  3  1  0
  3  4  2  0
  3  5  1  0
  5  6  1  0
  6  7  1  0
  7  8  1  0
  8  9  1  1
  9 10  1  0
 10 11  2  0
 10 12  1  0
 12 13  1  0
 13 14  2  0
 14 15  1  0
 15 16  2  0
 16 17  1  0
 13 18  1  0
 17 18  2  0
  5 19  1  0
  8 19  1  0
M  END
