pyridine_urea_3270
     RDKit          3D

 20 21  0  0  0  0  0  0  0  0999 V2000
    8.7790    1.2080   21.1420 O   0  0  0  0  0  0  0  0  0  0  0  0
    8.2820    0.1420   21.5380 C   0  0  0  0  0  0  0  0  0  0  0  0
    8.6900   -0.5980   22.6080 N   0  0  0  0  0  0  0  0  0  0  0  0
    9.9780   -0.5470   23.1410 C   0  0  0  0  0  0  0  0  0  0  0  0
   10.3660    0.6540   23.7250 C   0  0  0  0  0  0  0  0  0  0  0  0
   11.7090    0.9170   23.5380 C   0  0  0  0  0  0  0  0  0  0  0  0
   12.4010   -0.3390   23.7960 N   0  0  0  0  0  0  0  0  0  0  0  0
   12.1720   -1.0740   24.9450 C   0  0  0  0  0  0  0  0  0  0  0  0
   12.5570   -2.5230   24.6790 C   0  0  0  0  0  0  0  0  0  0  0  0
   13.3160   -2.5740   23.5350 C   0  0  0  0  0  0  0  0  0  0  0  0
   12.6510   -1.4490   22.4750 S   0  0  0  0  0  0  0  0  0  0  0  0
   13.6430   -0.9310   21.5650 O   0  0  0  0  0  0  0  0  0  0  0  0
   11.4030   -2.0020   22.0310 O   0  0  0  0  0  0  0  0  0  0  0  0
    7.2010   -0.4520   20.9390 N   0  0  0  0  0  0  0  0  0  0  0  0
    6.4540    0.1570   20.0100 C   0  0  0  0  0  0  0  0  0  0  0  0
    5.2750    0.8600   20.2420 C   0  0  0  0  0  0  0  0  0  0  0  0
    4.6240    1.4570   19.1860 C   0  0  0  0  0  0  0  0  0  0  0  0
    5.1530    1.3430   17.9120 C   0  0  0  0  0  0  0  0  0  0  0  0
    6.2800    0.6600   17.6630 N   0  0  0  0  0  0  0  0  0  0  0  0
    6.8980    0.0880   18.7100 C   0  0  0  0  0  0  0  0  0  0  0  0
  1  2  2  0
  2  3  1  0
  3  4  1  0
  4  5  1  0
  5  6  1  0
  6  7  1  0
  7  8  1  0
  8  9  1  0
  9 10  1  0
 11  7  1  0
 10 11  1  0
 11 12  2  0
 11 13  2  0
  2 14  1  0
 14 15  1  0
 15 16  2  0
 16 17  1  0
 17 18  2  0
 18 19  1  0
 15 20  1  0
 19 20  2  0
M  END
