pyridine_urea_8042
     RDKit          3D

 24 25  0  0  0  0  0  0  0  0999 V2000
   11.2620   -2.7940   23.9600 C   0  0  0  0  0  0  0  0  0  0  0  0
   11.7980   -2.1430   22.7970 O   0  0  0  0  0  0  0  0  0  0  0  0
   11.7590   -0.7220   23.0080 C   0  0  0  0  0  0  0  0  0  0  0  0
   10.5370   -1.1440   22.2890 C   0  0  0  0  0  0  0  0  0  0  0  0
   11.2320   -2.0650   22.4570 C   0  0  0  0  0  0  0  0  0  0  0  0
   11.5650   -0.3560   23.0030 C   0  0  0  0  0  0  0  0  0  0  0  0
   10.6190    0.6140   22.7730 C   0  0  2  0  0  0  0  0  0  0  0  0
   11.0420    2.0160   23.2410 C   0  0  0  0  0  0  0  0  0  0  0  0
   10.2780    3.0780   22.8110 O   0  0  0  0  0  0  0  0  0  0  0  0
    9.3900    0.3390   23.6510 C   0  0  0  0  0  0  0  0  0  0  0  0
    8.3470   -0.3330   22.8940 N   0  0  0  0  0  0  0  0  0  0  0  0
    8.1110    0.1600   21.6300 C   0  0  0  0  0  0  0  0  0  0  0  0
    8.7320    1.1290   21.1570 O   0  0  0  0  0  0  0  0  0  0  0  0
    7.0890   -0.5480   20.9970 N   0  0  0  0  0  0  0  0  0  0  0  0
    6.4510    0.0560   19.9660 C   0  0  0  0  0  0  0  0  0  0  0  0
    5.1590    0.8190   20.2450 C   0  0  0  0  0  0  0  0  0  0  0  0
    4.5030    1.5110   19.0550 C   0  0  0  0  0  0  0  0  0  0  0  0
    5.1120    1.4010   17.8210 C   0  0  0  0  0  0  0  0  0  0  0  0
    6.2610    0.6870   17.6530 N   0  0  0  0  0  0  0  0  0  0  0  0
    6.9180    0.0310   18.6780 C   0  0  0  0  0  0  0  0  0  0  0  0
   12.7490    0.1510   23.6980 C   0  0  0  0  0  0  0  0  0  0  0  0
   13.0060   -0.9360   23.6240 C   0  0  0  0  0  0  0  0  0  0  0  0
   13.8500   -1.9680   23.8830 O   0  0  0  0  0  0  0  0  0  0  0  0
   13.6880   -2.5880   25.1520 C   0  0  0  0  0  0  0  0  0  0  0  0
  1  2  1  0
  2  3  1  0
  3  4  2  0
  4  5  1  0
  5  6  2  0
  6  7  1  0
  7  8  1  1
  8  9  1  0
  7 10  1  0
 10 11  1  0
 11 12  1  0
 12 13  2  0
 12 14  1  0
 14 15  1  0
 15 16  2  0
 16 17  1  0
 17 18  2  0
 18 19  1  0
 15 20  1  0
 19 20  2  0
  6 21  1  0
  3 22  1  0
 21 22  2  0
 22 23  1  0
 23 24  1  0
M  END
