pyridine_urea_8616
     RDKit          3D

 21 23  0  0  0  0  0  0  0  0999 V2000
   10.5590   -0.2400   25.2380 C   0  0  0  0  0  0  0  0  0  0  0  0
   10.6270    0.0430   23.7840 C   0  0  0  0  0  0  0  0  0  0  0  0
   10.5940    1.3260   23.2510 C   0  0  0  0  0  0  0  0  0  0  0  0
   10.9530   -0.9340   22.8140 C   0  0  0  0  0  0  0  0  0  0  0  0
    9.5490   -0.9790   23.2120 C   0  0  2  0  0  0  0  0  0  0  0  0
    8.5210   -0.1830   22.7540 N   0  0  0  0  0  0  0  0  0  0  0  0
    8.3110    0.3210   21.5120 C   0  0  0  0  0  0  0  0  0  0  0  0
    8.9200    1.3030   21.0840 O   0  0  0  0  0  0  0  0  0  0  0  0
    7.3250   -0.4100   20.8960 N   0  0  0  0  0  0  0  0  0  0  0  0
    6.5070    0.1960   19.9650 C   0  0  0  0  0  0  0  0  0  0  0  0
    5.2120    0.9600   20.2560 C   0  0  0  0  0  0  0  0  0  0  0  0
    4.5940    1.5030   19.1520 C   0  0  0  0  0  0  0  0  0  0  0  0
    5.1280    1.3500   17.9020 C   0  0  0  0  0  0  0  0  0  0  0  0
    6.2480    0.6750   17.6180 N   0  0  0  0  0  0  0  0  0  0  0  0
    6.9030    0.1200   18.6530 C   0  0  0  0  0  0  0  0  0  0  0  0
    9.0910   -1.9550   24.1140 C   0  0  0  0  0  0  0  0  0  0  0  0
    8.0950   -1.6520   25.0290 C   0  0  0  0  0  0  0  0  0  0  0  0
    7.6560   -2.6160   25.9080 C   0  0  0  0  0  0  0  0  0  0  0  0
    8.1670   -3.9140   25.9350 C   0  0  0  0  0  0  0  0  0  0  0  0
    9.1740   -4.3860   25.0820 C   0  0  0  0  0  0  0  0  0  0  0  0
    9.6270   -3.2640   24.1180 C   0  0  0  0  0  0  0  0  0  0  0  0
  2  1  1  0
  2  3  1  0
  2  4  1  0
  2  5  1  0
  4  5  1  0
  5  6  1  6
  6  7  1  0
  7  8  2  0
  7  9  1  0
  9 10  1  0
 10 11  2  0
 11 12  1  0
 12 13  2  0
 13 14  1  0
 10 15  1  0
 14 15  2  0
  5 16  1  0
 16 17  2  0
 17 18  1  0
 18 19  2  0
 19 20  1  0
 16 21  1  0
 20 21  2  0
M  END
