pyridine_urea_4479
     RDKit          3D

 23 23  0  0  0  0  0  0  0  0999 V2000
   12.0120    5.7510   22.7600 C   0  0  0  0  0  0  0  0  0  0  0  0
   11.4510    4.3250   22.9190 C   0  0  0  0  0  0  0  0  0  0  0  0
   10.6690    4.2940   24.1350 O   0  0  0  0  0  0  0  0  0  0  0  0
    9.3520    3.7410   24.0150 C   0  0  0  0  0  0  0  0  0  0  0  0
    8.2580    4.4230   24.4920 O   0  0  0  0  0  0  0  0  0  0  0  0
    9.2110    2.3750   23.3420 C   0  0  0  0  0  0  0  0  0  0  0  0
   10.7250    1.6900   22.7080 S   0  0  0  0  0  0  0  0  0  0  0  0
   10.9330   -0.0250   23.1920 C   0  0  1  0  0  0  0  0  0  0  0  0
   10.2140   -1.0750   22.3840 C   0  0  0  0  0  0  0  0  0  0  0  0
    8.8000   -0.7500   22.4580 N   0  0  0  0  0  0  0  0  0  0  0  0
    8.2610    0.0310   21.4700 C   0  0  0  0  0  0  0  0  0  0  0  0
    8.7550    1.1150   21.1180 O   0  0  0  0  0  0  0  0  0  0  0  0
    7.0600   -0.6130   20.9550 N   0  0  0  0  0  0  0  0  0  0  0  0
    6.3400    0.0810   19.9860 C   0  0  0  0  0  0  0  0  0  0  0  0
    5.1440    0.7760   20.2050 C   0  0  0  0  0  0  0  0  0  0  0  0
    4.5900    1.4140   19.1180 C   0  0  0  0  0  0  0  0  0  0  0  0
    5.2030    1.3530   17.8870 C   0  0  0  0  0  0  0  0  0  0  0  0
    6.3390    0.6920   17.6530 N   0  0  0  0  0  0  0  0  0  0  0  0
    6.8750    0.0720   18.7130 C   0  0  0  0  0  0  0  0  0  0  0  0
   12.2900   -0.3020   23.3330 C   0  0  0  0  0  0  0  0  0  0  0  0
   13.0220    0.8070   23.3420 F   0  0  0  0  0  0  0  0  0  0  0  0
   12.6020   -1.0470   24.4240 F   0  0  0  0  0  0  0  0  0  0  0  0
   12.7470   -1.0340   22.2830 F   0  0  0  0  0  0  0  0  0  0  0  0
  1  2  1  0
  2  3  1  0
  3  4  1  0
  4  5  2  0
  4  6  1  0
  6  7  1  0
  7  8  1  0
  8  9  1  6
  9 10  1  0
 10 11  1  0
 11 12  2  0
 11 13  1  0
 13 14  1  0
 14 15  2  0
 15 16  1  0
 16 17  2  0
 17 18  1  0
 14 19  1  0
 18 19  2  0
  8 20  1  0
 20 21  1  0
 20 22  1  0
 20 23  1  0
M  END
