pyridine_urea_4110
     RDKit          3D

 25 27  0  0  0  0  0  0  0  0999 V2000
   12.8950    2.8850   22.6370 C   0  0  0  0  0  0  0  0  0  0  0  0
   12.6790    1.5770   23.0170 N   0  0  0  0  0  0  0  0  0  0  0  0
   13.2980    0.3230   22.7550 C   0  0  0  0  0  0  0  0  0  0  0  0
   13.6420   -0.3400   21.5370 O   0  0  0  0  0  0  0  0  0  0  0  0
   13.4760   -0.2880   23.9580 N   0  0  0  0  0  0  0  0  0  0  0  0
   12.2950    0.1210   24.6130 C   0  0  1  0  0  0  0  0  0  0  0  0
   11.3740   -0.7870   25.1250 C   0  0  0  0  0  0  0  0  0  0  0  0
   11.3530   -0.4330   23.7840 C   0  0  0  0  0  0  0  0  0  0  0  0
   10.1670    0.0250   24.0980 C   0  0  0  0  0  0  0  0  0  0  0  0
    9.2300   -0.4000   23.3380 C   0  0  0  0  0  0  0  0  0  0  0  0
    9.5830   -1.3530   22.2010 C   0  0  0  0  0  0  0  0  0  0  0  0
    8.5410   -1.6710   21.5110 N   0  0  0  0  0  0  0  0  0  0  0  0
    7.9060   -0.5430   21.1810 C   0  0  0  0  0  0  0  0  0  0  0  0
    8.4530    0.5560   21.1000 O   0  0  0  0  0  0  0  0  0  0  0  0
    6.5990   -0.7750   20.9720 N   0  0  0  0  0  0  0  0  0  0  0  0
    6.0930   -0.0360   19.9960 C   0  0  0  0  0  0  0  0  0  0  0  0
    4.9580    0.7350   20.0960 C   0  0  0  0  0  0  0  0  0  0  0  0
    4.5270    1.4740   19.0060 C   0  0  0  0  0  0  0  0  0  0  0  0
    5.2210    1.4550   17.8020 C   0  0  0  0  0  0  0  0  0  0  0  0
    6.3220    0.6960   17.7150 N   0  0  0  0  0  0  0  0  0  0  0  0
    6.7330   -0.0170   18.7820 C   0  0  0  0  0  0  0  0  0  0  0  0
   10.9920   -1.9280   21.8140 C   0  0  0  0  0  0  0  0  0  0  0  0
   11.7440   -1.2940   22.7900 C   0  0  0  0  0  0  0  0  0  0  0  0
   11.8420    1.3600   24.1050 C   0  0  0  0  0  0  0  0  0  0  0  0
   10.7980    2.1640   24.4720 O   0  0  0  0  0  0  0  0  0  0  0  0
  1  2  1  0
  2  3  1  0
  3  4  2  0
  3  5  1  0
  5  6  1  0
  6  7  1  1
  6  8  1  0
  8  9  2  0
  9 10  1  0
 10 11  2  0
 11 12  1  0
 12 13  1  0
 13 14  2  0
 13 15  1  0
 15 16  1  0
 16 17  2  0
 17 18  1  0
 18 19  2  0
 19 20  1  0
 16 21  1  0
 20 21  2  0
 11 22  1  0
  8 23  1  0
 22 23  2  0
  2 24  1  0
  6 24  1  0
 24 25  2  0
M  END
