pyridine_urea_4243
     RDKit          3D

 24 26  0  0  0  0  0  0  0  0999 V2000
   11.9970    7.6710   24.6610 C   0  0  0  0  0  0  0  0  0  0  0  0
   12.0910    6.3730   23.8500 C   0  0  0  0  0  0  0  0  0  0  0  0
   13.0920    6.4470   22.7030 C   0  0  0  0  0  0  0  0  0  0  0  0
   13.2910    5.2370   21.8280 C   0  0  0  0  0  0  0  0  0  0  0  0
   12.4580    4.0190   22.1550 C   0  0  0  0  0  0  0  0  0  0  0  0
   11.5150    4.0850   23.3080 C   0  0  0  0  0  0  0  0  0  0  0  0
   10.8680    3.0910   23.5290 O   0  0  0  0  0  0  0  0  0  0  0  0
   11.1740    1.7440   23.1100 C   0  0  0  0  0  0  0  0  0  0  0  0
   12.4700    1.2250   23.0380 C   0  0  0  0  0  0  0  0  0  0  0  0
   12.7890   -0.0810   22.6720 C   0  0  0  0  0  0  0  0  0  0  0  0
   11.7700   -0.9640   22.3380 C   0  0  0  0  0  0  0  0  0  0  0  0
   10.4330   -0.5610   22.3660 C   0  0  0  0  0  0  0  0  0  0  0  0
    9.2500   -1.3240   22.0260 N   0  0  0  0  0  0  0  0  0  0  0  0
    8.3720   -0.4850   21.3850 C   0  0  0  0  0  0  0  0  0  0  0  0
    8.6310    0.6930   21.1540 O   0  0  0  0  0  0  0  0  0  0  0  0
    7.1730   -1.0020   20.9880 N   0  0  0  0  0  0  0  0  0  0  0  0
    6.4190   -0.2460   20.0770 C   0  0  0  0  0  0  0  0  0  0  0  0
    5.2220    0.4230   20.2870 C   0  0  0  0  0  0  0  0  0  0  0  0
    4.5610    1.1970   19.2250 C   0  0  0  0  0  0  0  0  0  0  0  0
    5.1550    1.2610   17.9830 C   0  0  0  0  0  0  0  0  0  0  0  0
    6.3270    0.6060   17.7620 N   0  0  0  0  0  0  0  0  0  0  0  0
    6.9100   -0.1080   18.7770 C   0  0  0  0  0  0  0  0  0  0  0  0
   10.0490    0.8620   22.7770 C   0  0  0  0  0  0  0  0  0  0  0  0
   11.3500    5.2160   24.1110 C   0  0  0  0  0  0  0  0  0  0  0  0
  1  2  1  0
  2  3  2  0
  3  4  1  0
  4  5  2  0
  5  6  1  0
  6  7  1  0
  7  8  1  0
  8  9  2  0
  9 10  1  0
 10 11  2  0
 11 12  1  0
 12 13  1  0
 13 14  1  0
 14 15  2  0
 14 16  1  0
 16 17  1  0
 17 18  2  0
 18 19  1  0
 19 20  2  0
 20 21  1  0
 17 22  1  0
 21 22  2  0
  8 23  1  0
 12 23  2  0
  2 24  1  0
  6 24  2  0
M  END
