pyridine_urea_10780
     RDKit          3D

 20 22  0  0  0  0  0  0  0  0999 V2000
    8.7220    0.7020   21.1610 O   0  0  0  0  0  0  0  0  0  0  0  0
    8.4210   -0.4120   21.5590 C   0  0  0  0  0  0  0  0  0  0  0  0
    9.3190   -1.1160   22.5060 N   0  0  0  0  0  0  0  0  0  0  0  0
   10.3280   -0.1750   22.6620 C   0  0  0  0  0  0  0  0  0  0  0  0
   11.7190   -0.4350   22.6100 C   0  0  0  0  0  0  0  0  0  0  0  0
   12.6260    0.6630   22.6980 C   0  0  0  0  0  0  0  0  0  0  0  0
   12.0940    1.9880   22.8280 C   0  0  0  0  0  0  0  0  0  0  0  0
   12.8020    3.3430   22.8540 C   0  0  0  0  0  0  0  0  0  0  0  0
   12.1940    4.0970   21.6520 C   0  0  0  0  0  0  0  0  0  0  0  0
   12.0620    5.3470   22.4350 C   0  0  0  0  0  0  0  0  0  0  0  0
   12.5180    4.7310   23.5640 C   0  0  0  0  0  0  0  0  0  0  0  0
   10.7440    2.1550   22.9190 C   0  0  0  0  0  0  0  0  0  0  0  0
    9.8840    1.1120   22.8420 C   0  0  0  0  0  0  0  0  0  0  0  0
    7.2420   -0.9900   21.1150 N   0  0  0  0  0  0  0  0  0  0  0  0
    6.4640   -0.2620   20.1660 C   0  0  0  0  0  0  0  0  0  0  0  0
    5.2630    0.4010   20.4100 C   0  0  0  0  0  0  0  0  0  0  0  0
    4.6460    1.0870   19.3630 C   0  0  0  0  0  0  0  0  0  0  0  0
    5.2070    1.1180   18.0990 C   0  0  0  0  0  0  0  0  0  0  0  0
    6.3610    0.4850   17.8340 N   0  0  0  0  0  0  0  0  0  0  0  0
    6.9490   -0.1810   18.8600 C   0  0  0  0  0  0  0  0  0  0  0  0
  1  2  2  0
  2  3  1  0
  3  4  1  0
  4  5  2  0
  5  6  1  0
  6  7  2  0
  7  8  1  0
  8  9  1  0
  9 10  1  0
  8 11  1  0
 10 11  1  0
  7 12  1  0
  4 13  1  0
 12 13  2  0
  2 14  1  0
 14 15  1  0
 15 16  2  0
 16 17  1  0
 17 18  2  0
 18 19  1  0
 15 20  1  0
 19 20  2  0
M  END
