pyridine_urea_7771
     RDKit          3D

 28 32  0  0  0  0  0  0  0  0999 V2000
    7.6000    0.9280   21.8730 O   0  0  0  0  0  0  0  0  0  0  0  0
    7.4700   -0.2770   21.7890 C   0  0  0  0  0  0  0  0  0  0  0  0
    6.5660   -0.8770   20.9850 N   0  0  0  0  0  0  0  0  0  0  0  0
    6.1120   -0.1340   19.9080 C   0  0  0  0  0  0  0  0  0  0  0  0
    4.9260    0.5830   20.0590 C   0  0  0  0  0  0  0  0  0  0  0  0
    4.4520    1.3570   19.0080 C   0  0  0  0  0  0  0  0  0  0  0  0
    5.1840    1.3830   17.8410 C   0  0  0  0  0  0  0  0  0  0  0  0
    6.3260    0.6930   17.6730 N   0  0  0  0  0  0  0  0  0  0  0  0
    6.7670   -0.0470   18.7040 C   0  0  0  0  0  0  0  0  0  0  0  0
    8.2680   -1.1410   22.4680 N   0  0  0  0  0  0  0  0  0  0  0  0
    9.6250   -0.8650   22.0740 C   0  0  1  0  0  0  0  0  0  0  0  0
    9.7000    0.6100   21.9240 C   0  0  0  0  0  0  0  0  0  0  0  0
    9.2070    1.3280   22.9440 N   0  0  0  0  0  0  0  0  0  0  0  0
    9.0550    2.7560   22.7080 C   0  0  0  0  0  0  0  0  0  0  0  0
   10.3430    3.2550   22.4700 C   0  0  0  0  0  0  0  0  0  0  0  0
   11.2320    2.4410   22.5110 O   0  0  0  0  0  0  0  0  0  0  0  0
   11.2500    1.7500   23.6890 C   0  0  0  0  0  0  0  0  0  0  0  0
   10.0480    1.0870   23.9690 C   0  0  0  0  0  0  0  0  0  0  0  0
   10.7480   -1.2180   23.0010 C   0  0  2  0  0  0  0  0  0  0  0  0
   11.4960   -0.0660   23.2730 C   0  0  0  0  0  0  0  0  0  0  0  0
   12.5900   -0.3880   23.9830 C   0  0  1  0  0  0  0  0  0  0  0  0
   12.2360   -0.9750   25.1680 C   0  0  0  0  0  0  0  0  0  0  0  0
   11.5530   -2.1640   24.9690 C   0  0  2  0  0  0  0  0  0  0  0  0
   12.3060   -2.9870   24.1950 C   0  0  0  0  0  0  0  0  0  0  0  0
   12.6810   -2.3920   22.9960 C   0  0  2  0  0  0  0  0  0  0  0  0
   13.3480   -1.2680   23.2860 C   0  0  0  0  0  0  0  0  0  0  0  0
   11.5470   -2.1050   22.2680 C   0  0  0  0  0  0  0  0  0  0  0  0
   10.3480   -1.9070   24.3260 C   0  0  0  0  0  0  0  0  0  0  0  0
  1  2  2  0
  2  3  1  0
  3  4  1  0
  4  5  2  0
  5  6  1  0
  6  7  2  0
  7  8  1  0
  4  9  1  0
  8  9  2  0
  2 10  1  0
 10 11  1  0
 11 12  1  1
 12 13  1  0
 13 14  1  0
 14 15  1  0
 15 16  1  0
 16 17  1  0
 13 18  1  0
 17 18  1  0
 11 19  1  0
 19 20  1  1
 21 20  1  6
 21 22  1  0
 23 22  1  6
 23 24  1  0
 25 24  1  1
 21 26  1  0
 25 26  1  0
 19 27  1  0
 25 27  1  0
 19 28  1  0
 23 28  1  0
M  END
