pyridine_urea_1082
     RDKit          3D

 22 23  0  0  0  0  0  0  0  0999 V2000
   13.1100    0.8270   22.8720 C   0  0  0  0  0  0  0  0  0  0  0  0
   13.5950   -0.4980   23.0260 O   0  0  0  0  0  0  0  0  0  0  0  0
   13.1730   -0.9140   24.2280 C   0  0  0  0  0  0  0  0  0  0  0  0
   13.5860   -2.0900   24.8300 C   0  0  0  0  0  0  0  0  0  0  0  0
   12.6330   -2.6600   25.0600 O   0  0  0  0  0  0  0  0  0  0  0  0
   11.8410   -2.1650   24.1020 C   0  0  0  0  0  0  0  0  0  0  0  0
   12.3530   -2.2620   22.8370 C   0  0  0  0  0  0  0  0  0  0  0  0
   11.5680   -1.8040   21.7020 C   0  0  0  0  0  0  0  0  0  0  0  0
   10.1890   -1.2390   22.0230 C   0  0  0  0  0  0  0  0  0  0  0  0
    9.2730   -0.7970   21.1290 N   0  0  0  0  0  0  0  0  0  0  0  0
    8.4600    0.2850   21.2040 C   0  0  0  0  0  0  0  0  0  0  0  0
    8.7740    1.4700   21.2770 O   0  0  0  0  0  0  0  0  0  0  0  0
    7.0810   -0.1060   21.1150 N   0  0  0  0  0  0  0  0  0  0  0  0
    6.3830    0.3630   20.0780 C   0  0  0  0  0  0  0  0  0  0  0  0
    5.2110    1.0810   20.2220 C   0  0  0  0  0  0  0  0  0  0  0  0
    4.5450    1.5760   19.1150 C   0  0  0  0  0  0  0  0  0  0  0  0
    5.0930    1.3250   17.8780 C   0  0  0  0  0  0  0  0  0  0  0  0
    6.2170    0.6230   17.6740 N   0  0  0  0  0  0  0  0  0  0  0  0
    6.8580    0.1400   18.8080 C   0  0  0  0  0  0  0  0  0  0  0  0
    9.8020   -1.1720   23.3160 C   0  0  0  0  0  0  0  0  0  0  0  0
    8.5470   -0.6730   23.6440 C   0  0  0  0  0  0  0  0  0  0  0  0
   10.6210   -1.6180   24.3430 C   0  0  0  0  0  0  0  0  0  0  0  0
  1  2  1  0
  2  3  1  0
  3  4  1  0
  4  5  1  0
  5  6  1  0
  6  7  2  0
  7  8  1  0
  8  9  2  0
  9 10  1  0
 10 11  1  0
 11 12  2  0
 11 13  1  0
 13 14  1  0
 14 15  2  0
 15 16  1  0
 16 17  2  0
 17 18  1  0
 14 19  1  0
 18 19  2  0
  9 20  1  0
 20 21  1  0
  6 22  1  0
 20 22  2  0
M  END
