pyridine_urea_753
     RDKit          3D

 23 24  0  0  0  0  0  0  0  0999 V2000
    8.6650    1.2470   21.0450 O   0  0  0  0  0  0  0  0  0  0  0  0
    8.3250    0.1080   21.3830 C   0  0  0  0  0  0  0  0  0  0  0  0
    9.0890   -0.7060   22.1630 N   0  0  0  0  0  0  0  0  0  0  0  0
   10.3430   -0.2950   22.6120 C   0  0  0  0  0  0  0  0  0  0  0  0
   10.4990    0.1800   23.8840 C   0  0  0  0  0  0  0  0  0  0  0  0
   10.8600    1.4600   24.1610 C   0  0  0  0  0  0  0  0  0  0  0  0
   10.5150    2.4050   23.2710 C   0  0  0  0  0  0  0  0  0  0  0  0
   11.4680    3.1900   22.8040 N   0  0  0  0  0  0  0  0  0  0  0  0
   12.1820    2.1480   22.1170 O   0  0  0  0  0  0  0  0  0  0  0  0
   12.9310    1.4420   22.9570 C   0  0  0  0  0  0  0  0  0  0  0  0
   13.0950   -0.0920   23.0450 C   0  0  0  0  0  0  0  0  0  0  0  0
   13.2730   -1.0790   22.0870 C   0  0  0  0  0  0  0  0  0  0  0  0
   13.4310   -2.3810   22.5260 C   0  0  0  0  0  0  0  0  0  0  0  0
   13.4440   -2.7250   23.8600 C   0  0  0  0  0  0  0  0  0  0  0  0
   13.2690   -1.7860   24.8130 C   0  0  0  0  0  0  0  0  0  0  0  0
   13.0650   -0.4110   24.3950 C   0  0  0  0  0  0  0  0  0  0  0  0
    7.1390   -0.4740   21.0070 N   0  0  0  0  0  0  0  0  0  0  0  0
    6.4720    0.0970   20.0090 C   0  0  0  0  0  0  0  0  0  0  0  0
    5.3070    0.8130   20.2520 C   0  0  0  0  0  0  0  0  0  0  0  0
    4.6080    1.4430   19.2240 C   0  0  0  0  0  0  0  0  0  0  0  0
    5.1110    1.3380   17.9280 C   0  0  0  0  0  0  0  0  0  0  0  0
    6.2210    0.6520   17.6260 N   0  0  0  0  0  0  0  0  0  0  0  0
    6.8600    0.0540   18.6990 C   0  0  0  0  0  0  0  0  0  0  0  0
  1  2  2  0
  2  3  1  0
  3  4  1  0
  4  5  1  0
  5  6  1  0
  6  7  1  0
  7  8  1  0
  8  9  1  0
  9 10  1  0
 10 11  1  0
 11 12  2  0
 12 13  1  0
 13 14  2  0
 14 15  1  0
 11 16  1  0
 15 16  2  0
  2 17  1  0
 17 18  1  0
 18 19  2  0
 19 20  1  0
 20 21  2  0
 21 22  1  0
 18 23  1  0
 22 23  2  0
M  END
