pyridine_urea_6031
     RDKit          3D

 25 27  0  0  0  0  0  0  0  0999 V2000
    8.8460    1.4980   21.1130 O   0  0  0  0  0  0  0  0  0  0  0  0
    8.4500    0.4090   21.5370 C   0  0  0  0  0  0  0  0  0  0  0  0
    9.1050   -0.2320   22.6620 N   0  0  0  0  0  0  0  0  0  0  0  0
   10.4960   -0.1480   22.6930 C   0  0  0  0  0  0  0  0  0  0  0  0
   11.1430   -0.6870   23.8040 C   0  0  2  0  0  0  0  0  0  0  0  0
   12.4700   -0.2190   23.9430 C   0  0  0  0  0  0  0  0  0  0  0  0
   13.2760   -0.5970   22.9630 C   0  0  0  0  0  0  0  0  0  0  0  0
   12.6550   -0.9680   21.7310 C   0  0  0  0  0  0  0  0  0  0  0  0
   12.1840   -2.3700   21.7780 C   0  0  0  0  0  0  0  0  0  0  0  0
   11.0540   -2.6580   22.6570 N   0  0  0  0  0  0  0  0  0  0  0  0
    9.7520   -2.6060   22.1570 C   0  0  0  0  0  0  0  0  0  0  0  0
    8.6940   -3.0280   22.9750 C   0  0  0  0  0  0  0  0  0  0  0  0
    8.2150   -2.2290   24.0210 C   0  0  0  0  0  0  0  0  0  0  0  0
    7.1450   -2.6640   24.8140 C   0  0  0  0  0  0  0  0  0  0  0  0
    6.5430   -3.8950   24.5790 C   0  0  0  0  0  0  0  0  0  0  0  0
    7.0010   -4.7040   23.5560 C   0  0  0  0  0  0  0  0  0  0  0  0
    8.0590   -4.2630   22.7770 C   0  0  0  0  0  0  0  0  0  0  0  0
   11.1660   -2.0390   23.8840 C   0  0  0  0  0  0  0  0  0  0  0  0
    7.3800   -0.3080   21.0430 N   0  0  0  0  0  0  0  0  0  0  0  0
    6.5910    0.2110   20.0960 C   0  0  0  0  0  0  0  0  0  0  0  0
    5.4380    0.9720   20.3430 C   0  0  0  0  0  0  0  0  0  0  0  0
    4.6990    1.4960   19.2690 C   0  0  0  0  0  0  0  0  0  0  0  0
    5.1220    1.2520   17.9550 C   0  0  0  0  0  0  0  0  0  0  0  0
    6.1980    0.5280   17.6530 N   0  0  0  0  0  0  0  0  0  0  0  0
    6.9390   -0.0010   18.7790 C   0  0  0  0  0  0  0  0  0  0  0  0
  1  2  2  0
  2  3  1  0
  3  4  1  0
  5  4  1  6
  5  6  1  0
  6  7  1  0
  7  8  1  0
  8  9  1  0
  9 10  1  0
 10 11  1  0
 11 12  1  0
 12 13  2  0
 13 14  1  0
 14 15  2  0
 15 16  1  0
 12 17  1  0
 16 17  2  0
  5 18  1  0
 10 18  1  0
  2 19  1  0
 19 20  1  0
 20 21  2  0
 21 22  1  0
 22 23  2  0
 23 24  1  0
 20 25  1  0
 24 25  2  0
M  END
