pyridine_urea_8263
     RDKit          3D

 23 25  0  0  0  0  0  0  0  0999 V2000
    8.8510    0.6150   21.4620 O   0  0  0  0  0  0  0  0  0  0  0  0
    7.8540   -0.0150   21.7960 C   0  0  0  0  0  0  0  0  0  0  0  0
    7.4480   -0.1940   23.0980 N   0  0  0  0  0  0  0  0  0  0  0  0
    8.0420   -1.2880   23.8010 C   0  0  0  0  0  0  0  0  0  0  0  0
    9.3480   -1.5390   23.0970 C   0  0  0  0  0  0  0  0  0  0  0  0
    9.4570   -0.2770   23.7940 C   0  0  0  0  0  0  0  0  0  0  0  0
   10.5230    0.8060   23.9720 C   0  0  0  0  0  0  0  0  0  0  0  0
   11.6900    0.6220   23.3640 C   0  0  0  0  0  0  0  0  0  0  0  0
   11.7140   -0.6620   22.5980 C   0  0  0  0  0  0  0  0  0  0  0  0
   12.8760   -0.8470   22.0290 N   0  0  0  0  0  0  0  0  0  0  0  0
   13.0100   -2.2110   22.1850 C   0  0  0  0  0  0  0  0  0  0  0  0
   13.4530   -2.4650   23.6260 C   0  0  0  0  0  0  0  0  0  0  0  0
   13.8390   -1.3530   23.9980 O   0  0  0  0  0  0  0  0  0  0  0  0
   13.6510   -0.4270   22.9290 C   0  0  0  0  0  0  0  0  0  0  0  0
   14.1860    0.8650   22.8080 O   0  0  0  0  0  0  0  0  0  0  0  0
   10.7540   -1.5450   22.4920 C   0  0  0  0  0  0  0  0  0  0  0  0
    6.9670   -0.6310   20.9730 N   0  0  0  0  0  0  0  0  0  0  0  0
    6.3920    0.0110   19.9580 C   0  0  0  0  0  0  0  0  0  0  0  0
    5.2110    0.7180   20.1910 C   0  0  0  0  0  0  0  0  0  0  0  0
    4.5980    1.4160   19.1410 C   0  0  0  0  0  0  0  0  0  0  0  0
    5.1680    1.4020   17.8760 C   0  0  0  0  0  0  0  0  0  0  0  0
    6.2920    0.7360   17.5900 N   0  0  0  0  0  0  0  0  0  0  0  0
    6.9060    0.0200   18.6960 C   0  0  0  0  0  0  0  0  0  0  0  0
  1  2  2  0
  2  3  1  0
  3  4  1  0
  4  5  1  0
  5  6  2  0
  6  7  1  0
  7  8  2  0
  8  9  1  0
  9 10  1  0
 10 11  1  0
 11 12  1  0
 12 13  1  0
 10 14  1  0
 13 14  1  0
 14 15  2  0
  5 16  1  0
  9 16  2  0
  2 17  1  0
 17 18  1  0
 18 19  2  0
 19 20  1  0
 20 21  2  0
 21 22  1  0
 18 23  1  0
 22 23  2  0
M  END
