pyridine_urea_2871
     RDKit          3D

 22 23  0  0  0  0  0  0  0  0999 V2000
    8.1830   -0.6940   25.2310 C   0  0  0  0  0  0  0  0  0  0  0  0
    8.6910   -1.6950   24.3570 O   0  0  0  0  0  0  0  0  0  0  0  0
   10.1120   -1.5440   24.1560 C   0  0  0  0  0  0  0  0  0  0  0  0
   10.6460   -1.5030   22.7330 C   0  0  0  0  0  0  0  0  0  0  0  0
   11.8930   -1.3670   22.0860 C   0  0  0  0  0  0  0  0  0  0  0  0
   10.5470   -1.5290   21.4970 C   0  0  0  0  0  0  0  0  0  0  0  0
    9.5540   -1.6700   22.4550 C   0  0  0  0  0  0  0  0  0  0  0  0
    8.7920   -0.4310   22.7340 N   0  0  0  0  0  0  0  0  0  0  0  0
    8.2610    0.1760   21.5250 C   0  0  0  0  0  0  0  0  0  0  0  0
    8.7640    1.3680   21.0260 O   0  0  0  0  0  0  0  0  0  0  0  0
    7.1960   -0.6320   21.0150 N   0  0  0  0  0  0  0  0  0  0  0  0
    6.5160    0.0300   20.0150 C   0  0  0  0  0  0  0  0  0  0  0  0
    5.2400    0.7770   20.3790 C   0  0  0  0  0  0  0  0  0  0  0  0
    4.5210    1.5050   19.2510 C   0  0  0  0  0  0  0  0  0  0  0  0
    5.2030    1.3770   17.9020 C   0  0  0  0  0  0  0  0  0  0  0  0
    6.3330    0.6840   17.6900 N   0  0  0  0  0  0  0  0  0  0  0  0
    6.9430    0.0450   18.7080 C   0  0  0  0  0  0  0  0  0  0  0  0
   12.8050   -1.2590   23.1740 C   0  0  0  0  0  0  0  0  0  0  0  0
   12.4190   -1.3030   24.4630 C   0  0  0  0  0  0  0  0  0  0  0  0
   13.3870   -1.2410   25.4470 O   0  0  0  0  0  0  0  0  0  0  0  0
   13.9630   -2.5420   25.4660 C   0  0  0  0  0  0  0  0  0  0  0  0
   11.0720   -1.4300   24.9780 C   0  0  0  0  0  0  0  0  0  0  0  0
  1  2  1  0
  2  3  1  0
  3  4  2  0
  4  5  1  0
  5  6  1  0
  6  7  1  0
  7  8  1  0
  8  9  1  0
  9 10  2  0
  9 11  1  0
 11 12  1  0
 12 13  2  0
 13 14  1  0
 14 15  2  0
 15 16  1  0
 12 17  1  0
 16 17  2  0
  5 18  2  0
 18 19  1  0
 19 20  1  0
 20 21  1  0
  3 22  1  0
 19 22  2  0
M  END
