pyridine_urea_12641
     RDKit          3D

 21 23  0  0  0  0  0  0  0  0999 V2000
    8.8960   -1.0500   19.9770 O   0  0  0  0  0  0  0  0  0  0  0  0
    8.6620   -0.5870   20.9710 C   0  0  0  0  0  0  0  0  0  0  0  0
    7.3450    0.0050   21.1620 N   0  0  0  0  0  0  0  0  0  0  0  0
    6.6760    0.3870   19.9270 C   0  0  0  0  0  0  0  0  0  0  0  0
    5.4790    1.3060   20.1490 C   0  0  0  0  0  0  0  0  0  0  0  0
    4.7250    1.6740   18.9310 C   0  0  0  0  0  0  0  0  0  0  0  0
    5.1420    1.2110   17.6720 C   0  0  0  0  0  0  0  0  0  0  0  0
    6.2670    0.3620   17.5560 N   0  0  0  0  0  0  0  0  0  0  0  0
    7.0390   -0.0210   18.6950 C   0  0  0  0  0  0  0  0  0  0  0  0
    9.5270   -0.4960   21.9710 N   0  0  0  0  0  0  0  0  0  0  0  0
   10.4390   -0.4860   23.0520 C   0  0  1  0  0  0  0  0  0  0  0  0
   10.9810   -1.7460   23.3070 C   0  0  0  0  0  0  0  0  0  0  0  0
   12.2070   -1.3800   23.1690 C   0  0  0  0  0  0  0  0  0  0  0  0
   11.4270   -0.2770   22.8490 O   0  0  0  0  0  0  0  0  0  0  0  0
   10.2970    0.5560   23.6750 C   0  0  0  0  0  0  0  0  0  0  0  0
    9.7440    0.9640   24.0790 C   0  0  0  0  0  0  0  0  0  0  0  0
   10.7890   -0.0110   23.2010 C   0  0  0  0  0  0  0  0  0  0  0  0
   12.1940    0.7710   23.2260 C   0  0  0  0  0  0  0  0  0  0  0  0
   14.1390    1.1880   22.9480 Br  0  0  0  0  0  0  0  0  0  0  0  0
   11.7320    1.8560   24.0710 C   0  0  0  0  0  0  0  0  0  0  0  0
   11.2730    0.7290   23.5110 C   0  0  0  0  0  0  0  0  0  0  0  0
  1  2  2  0
  2  3  1  0
  3  4  1  0
  4  5  2  0
  5  6  1  0
  6  7  2  0
  7  8  1  0
  4  9  1  0
  8  9  2  0
  2 10  1  0
 11 10  1  6
 11 12  1  0
 12 13  1  0
 13 14  1  0
 14 15  1  0
 15 16  2  0
 16 17  1  0
 17 18  2  0
 18 19  1  0
 18 20  1  0
 11 21  1  0
 15 21  1  0
 20 21  2  0
M  END
