pyridine_urea_11211
     RDKit          3D

 17 18  0  0  0  0  0  0  0  0999 V2000
    9.0010    1.1310   21.2720 O   0  0  0  0  0  0  0  0  0  0  0  0
    8.4820    0.0530   21.5950 C   0  0  0  0  0  0  0  0  0  0  0  0
    9.0420   -0.8080   22.5190 N   0  0  0  0  0  0  0  0  0  0  0  0
   10.3310   -1.4310   22.2570 C   0  0  0  0  0  0  0  0  0  0  0  0
   11.3630   -1.1930   23.3550 C   0  0  1  0  0  0  0  0  0  0  0  0
   12.6660   -0.7330   22.7890 C   0  0  0  0  0  0  0  0  0  0  0  0
   12.6040    0.5820   23.0240 C   0  0  0  0  0  0  0  0  0  0  0  0
   11.3870    0.9960   23.8190 C   0  0  1  0  0  0  0  0  0  0  0  0
   10.4590    1.4120   22.9110 F   0  0  0  0  0  0  0  0  0  0  0  0
   10.7940   -0.1940   24.4920 C   0  0  0  0  0  0  0  0  0  0  0  0
    7.2890   -0.4460   21.1260 N   0  0  0  0  0  0  0  0  0  0  0  0
    6.5930    0.1220   19.9860 C   0  0  0  0  0  0  0  0  0  0  0  0
    5.3760    0.9360   20.3360 C   0  0  0  0  0  0  0  0  0  0  0  0
    4.6590    1.5420   19.3080 C   0  0  0  0  0  0  0  0  0  0  0  0
    5.0940    1.3730   18.0030 C   0  0  0  0  0  0  0  0  0  0  0  0
    6.2540    0.5810   17.6710 N   0  0  0  0  0  0  0  0  0  0  0  0
    6.9550   -0.0130   18.6750 C   0  0  0  0  0  0  0  0  0  0  0  0
  1  2  2  0
  2  3  1  0
  3  4  1  0
  5  4  1  6
  5  6  1  0
  6  7  1  0
  7  8  1  0
  8  9  1  6
  5 10  1  0
  8 10  1  0
  2 11  1  0
 11 12  1  0
 12 13  2  0
 13 14  1  0
 14 15  2  0
 15 16  1  0
 12 17  1  0
 16 17  2  0
M  END
