pyridine_urea_4044
     RDKit          3D

 26 28  0  0  0  0  0  0  0  0999 V2000
    6.8280    6.2720   24.7380 N   0  0  0  0  0  0  0  0  0  0  0  0
    7.7450    5.6770   23.9170 C   0  0  0  0  0  0  0  0  0  0  0  0
    9.0330    6.2700   23.7400 O   0  0  0  0  0  0  0  0  0  0  0  0
    7.2810    4.3910   23.2790 C   0  0  1  0  0  0  0  0  0  0  0  0
    6.4950    4.5980   22.1490 C   0  0  0  0  0  0  0  0  0  0  0  0
    5.9170    3.4650   21.6080 C   0  0  0  0  0  0  0  0  0  0  0  0
    6.7590    2.3790   21.5350 C   0  0  0  0  0  0  0  0  0  0  0  0
    8.0530    2.5030   21.9170 N   0  0  0  0  0  0  0  0  0  0  0  0
    8.8620    1.3940   21.7260 C   0  0  0  0  0  0  0  0  0  0  0  0
    9.8940    0.8770   22.5860 C   0  0  0  0  0  0  0  0  0  0  0  0
   11.2900    1.5480   22.7480 C   0  0  0  0  0  0  0  0  0  0  0  0
   12.2250    0.9880   23.5830 C   0  0  0  0  0  0  0  0  0  0  0  0
   11.9460   -0.1690   24.2980 C   0  0  0  0  0  0  0  0  0  0  0  0
   10.6970   -0.7760   24.1550 C   0  0  0  0  0  0  0  0  0  0  0  0
    9.7100   -0.2780   23.3280 C   0  0  0  0  0  0  0  0  0  0  0  0
    8.4650   -0.7510   23.0690 N   0  0  0  0  0  0  0  0  0  0  0  0
    8.2140   -0.8190   21.7330 C   0  0  0  0  0  0  0  0  0  0  0  0
    9.2570   -0.7320   20.9160 O   0  0  0  0  0  0  0  0  0  0  0  0
    6.9040   -0.9670   21.3680 N   0  0  0  0  0  0  0  0  0  0  0  0
    6.4370   -0.2960   20.2560 C   0  0  0  0  0  0  0  0  0  0  0  0
    5.1620    0.5430   20.3750 C   0  0  0  0  0  0  0  0  0  0  0  0
    4.6410    1.2450   19.2820 C   0  0  0  0  0  0  0  0  0  0  0  0
    5.2900    1.1880   18.0470 C   0  0  0  0  0  0  0  0  0  0  0  0
    6.4200    0.4730   17.8440 N   0  0  0  0  0  0  0  0  0  0  0  0
    6.9950   -0.2840   18.9830 C   0  0  0  0  0  0  0  0  0  0  0  0
    8.2570    3.3630   23.1000 C   0  0  0  0  0  0  0  0  0  0  0  0
  1  2  1  0
  2  3  2  0
  4  2  1  6
  4  5  1  0
  5  6  1  0
  6  7  1  0
  7  8  1  0
  8  9  1  0
  9 10  1  0
 10 11  2  0
 11 12  1  0
 12 13  2  0
 13 14  1  0
 10 15  1  0
 14 15  2  0
 15 16  1  0
 16 17  1  0
 17 18  2  0
 17 19  1  0
 19 20  1  0
 20 21  2  0
 21 22  1  0
 22 23  2  0
 23 24  1  0
 20 25  1  0
 24 25  2  0
  4 26  1  0
  8 26  1  0
M  END
