pyridine_urea_2208
     RDKit          3D

 26 29  0  0  0  0  0  0  0  0999 V2000
    8.5740    0.7890   21.0840 O   0  0  0  0  0  0  0  0  0  0  0  0
    8.0400   -0.2580   21.4180 C   0  0  0  0  0  0  0  0  0  0  0  0
    8.5600   -1.1260   22.3090 N   0  0  0  0  0  0  0  0  0  0  0  0
    9.6830   -0.8250   23.0510 C   0  0  0  0  0  0  0  0  0  0  0  0
    9.7590    0.4910   23.8350 C   0  0  2  0  0  0  0  0  0  0  0  0
   10.0250    1.8100   23.0690 C   0  0  0  0  0  0  0  0  0  0  0  0
   11.3730    2.5180   23.2500 C   0  0  0  0  0  0  0  0  0  0  0  0
   12.4630    1.7660   22.9660 C   0  0  0  0  0  0  0  0  0  0  0  0
   11.8930    0.5320   23.1860 N   0  0  0  0  0  0  0  0  0  0  0  0
   12.4840   -0.6060   23.0900 C   0  0  0  0  0  0  0  0  0  0  0  0
   12.4730   -1.1190   21.7880 N   0  0  0  0  0  0  0  0  0  0  0  0
   12.9730   -2.2930   21.5030 C   0  0  0  0  0  0  0  0  0  0  0  0
   13.4200   -2.9330   22.5610 C   0  0  0  0  0  0  0  0  0  0  0  0
   13.4120   -2.5460   23.8440 N   0  0  0  0  0  0  0  0  0  0  0  0
   13.7620   -3.1340   24.9980 C   0  0  0  0  0  0  0  0  0  0  0  0
   13.5730   -2.1490   25.9850 N   0  0  0  0  0  0  0  0  0  0  0  0
   13.0690   -1.0540   25.3990 N   0  0  0  0  0  0  0  0  0  0  0  0
   12.9530   -1.2880   24.1240 C   0  0  0  0  0  0  0  0  0  0  0  0
   11.1790    0.7490   24.3150 C   0  0  0  0  0  0  0  0  0  0  0  0
    6.8440   -0.6840   20.9430 N   0  0  0  0  0  0  0  0  0  0  0  0
    6.2930   -0.0160   19.9350 C   0  0  0  0  0  0  0  0  0  0  0  0
    5.1000    0.6450   20.0870 C   0  0  0  0  0  0  0  0  0  0  0  0
    4.5040    1.3660   19.0760 C   0  0  0  0  0  0  0  0  0  0  0  0
    5.1610    1.4110   17.8560 C   0  0  0  0  0  0  0  0  0  0  0  0
    6.3330    0.7690   17.6590 N   0  0  0  0  0  0  0  0  0  0  0  0
    6.8690    0.0760   18.6920 C   0  0  0  0  0  0  0  0  0  0  0  0
  1  2  2  0
  2  3  1  0
  3  4  1  0
  5  4  1  6
  5  6  1  0
  6  7  1  0
  7  8  1  0
  8  9  1  0
  9 10  1  0
 10 11  2  0
 11 12  1  0
 12 13  2  0
 13 14  1  0
 14 15  1  0
 15 16  2  0
 16 17  1  0
 10 18  1  0
 14 18  1  0
 17 18  2  0
  5 19  1  0
  9 19  1  0
  2 20  1  0
 20 21  1  0
 21 22  2  0
 22 23  1  0
 23 24  2  0
 24 25  1  0
 21 26  1  0
 25 26  2  0
M  END
