pyridine_urea_13680
     RDKit          3D

 26 28  0  0  0  0  0  0  0  0999 V2000
   12.8850    2.7150   22.6370 C   0  0  0  0  0  0  0  0  0  0  0  0
   12.5710    1.3320   22.9680 O   0  0  0  0  0  0  0  0  0  0  0  0
   11.2580    1.3120   23.3030 C   0  0  0  0  0  0  0  0  0  0  0  0
   12.2990    2.2180   23.1390 C   0  0  0  0  0  0  0  0  0  0  0  0
   13.2940    0.9740   22.7820 C   0  0  0  0  0  0  0  0  0  0  0  0
   12.8830   -0.6250   22.7070 C   0  0  0  0  0  0  0  0  0  0  0  0
   11.5620   -1.2020   22.9610 C   0  0  0  0  0  0  0  0  0  0  0  0
   10.1940   -1.0210   23.3150 C   0  0  2  0  0  0  0  0  0  0  0  0
    9.3850   -1.4000   22.1680 N   0  0  0  0  0  0  0  0  0  0  0  0
    8.6400   -0.4090   21.5370 C   0  0  0  0  0  0  0  0  0  0  0  0
    9.0880    0.7090   21.3350 O   0  0  0  0  0  0  0  0  0  0  0  0
    7.3650   -0.7960   21.1760 N   0  0  0  0  0  0  0  0  0  0  0  0
    6.6250   -0.1300   20.1830 C   0  0  0  0  0  0  0  0  0  0  0  0
    5.4610    0.6070   20.4390 C   0  0  0  0  0  0  0  0  0  0  0  0
    4.7260    1.2860   19.4480 C   0  0  0  0  0  0  0  0  0  0  0  0
    5.1610    1.2400   18.1100 C   0  0  0  0  0  0  0  0  0  0  0  0
    6.2500    0.5650   17.7440 N   0  0  0  0  0  0  0  0  0  0  0  0
    6.9510   -0.0840   18.6980 C   0  0  0  0  0  0  0  0  0  0  0  0
    9.7500    0.2540   23.6830 C   0  0  0  0  0  0  0  0  0  0  0  0
   10.5890    1.3320   23.9040 C   0  0  0  0  0  0  0  0  0  0  0  0
   10.1580    2.6110   24.2340 C   0  0  0  0  0  0  0  0  0  0  0  0
    8.8360    2.9760   24.3990 C   0  0  0  0  0  0  0  0  0  0  0  0
    8.3590    4.5820   24.8040 Cl  0  0  0  0  0  0  0  0  0  0  0  0
    7.8100    1.8570   24.1970 C   0  0  0  0  0  0  0  0  0  0  0  0
    8.3500    0.4690   23.8250 C   0  0  0  0  0  0  0  0  0  0  0  0
   11.8520    0.0290   23.0210 C   0  0  0  0  0  0  0  0  0  0  0  0
  1  2  1  0
  2  3  1  0
  3  4  2  0
  4  5  1  0
  5  6  2  0
  6  7  1  0
  7  8  1  0
  8  9  1  6
  9 10  1  0
 10 11  2  0
 10 12  1  0
 12 13  1  0
 13 14  2  0
 14 15  1  0
 15 16  2  0
 16 17  1  0
 13 18  1  0
 17 18  2  0
  8 19  1  0
 19 20  2  0
 20 21  1  0
 21 22  2  0
 22 23  1  0
 22 24  1  0
 19 25  1  0
 24 25  2  0
  3 26  1  0
  7 26  2  0
M  END
