pyridine_urea_11824
     RDKit          3D

 25 27  0  0  0  0  0  0  0  0999 V2000
   13.3800   -2.9200   20.7250 O   0  0  0  0  0  0  0  0  0  0  0  0
   12.7160   -2.4450   21.6210 C   0  0  0  0  0  0  0  0  0  0  0  0
   13.0590   -2.4530   23.0700 C   0  0  0  0  0  0  0  0  0  0  0  0
   12.0930   -1.8720   23.8430 C   0  0  0  0  0  0  0  0  0  0  0  0
   10.7310   -2.1850   23.7220 C   0  0  0  0  0  0  0  0  0  0  0  0
    9.9540   -1.4550   24.5650 C   0  0  0  0  0  0  0  0  0  0  0  0
   10.7260   -0.6100   25.3190 C   0  0  0  0  0  0  0  0  0  0  0  0
   12.4190   -0.6740   25.0290 S   0  0  0  0  0  0  0  0  0  0  0  0
   11.5340   -1.7700   21.5490 N   0  0  0  0  0  0  0  0  0  0  0  0
   11.3650   -0.6220   22.2840 C   0  0  0  0  0  0  0  0  0  0  0  0
   12.6410    0.1630   22.5680 C   0  0  0  0  0  0  0  0  0  0  0  0
   12.4910    1.3080   23.2840 C   0  0  0  0  0  0  0  0  0  0  0  0
   11.2310    1.7040   23.7300 C   0  0  0  0  0  0  0  0  0  0  0  0
   10.0640    0.9880   23.4790 C   0  0  0  0  0  0  0  0  0  0  0  0
   10.1150   -0.1810   22.7470 C   0  0  0  0  0  0  0  0  0  0  0  0
    8.8980   -0.7780   22.5590 N   0  0  0  0  0  0  0  0  0  0  0  0
    8.0980   -0.6820   21.4100 C   0  0  0  0  0  0  0  0  0  0  0  0
    8.4780   -1.0990   20.2390 O   0  0  0  0  0  0  0  0  0  0  0  0
    6.8880   -0.1420   21.5540 N   0  0  0  0  0  0  0  0  0  0  0  0
    6.3760    0.2940   20.3600 C   0  0  0  0  0  0  0  0  0  0  0  0
    5.1060    1.1230   20.3680 C   0  0  0  0  0  0  0  0  0  0  0  0
    4.5680    1.5900   19.1730 C   0  0  0  0  0  0  0  0  0  0  0  0
    5.2080    1.2870   17.9780 C   0  0  0  0  0  0  0  0  0  0  0  0
    6.3310    0.5520   17.8910 N   0  0  0  0  0  0  0  0  0  0  0  0
    6.9020    0.0590   19.0840 C   0  0  0  0  0  0  0  0  0  0  0  0
  1  2  2  0
  2  3  1  0
  3  4  1  0
  4  5  2  0
  5  6  1  0
  6  7  2  0
  4  8  1  0
  7  8  1  0
  2  9  1  0
  9 10  1  0
 10 11  2  0
 11 12  1  0
 12 13  2  0
 13 14  1  0
 10 15  1  0
 14 15  2  0
 15 16  1  0
 16 17  1  0
 17 18  2  0
 17 19  1  0
 19 20  1  0
 20 21  2  0
 21 22  1  0
 22 23  2  0
 23 24  1  0
 20 25  1  0
 24 25  2  0
M  END
