pyridine_urea_693
     RDKit          3D

 23 24  0  0  0  0  0  0  0  0999 V2000
    9.1690   -3.1540   23.6600 C   0  0  0  0  0  0  0  0  0  0  0  0
   10.5060   -2.8770   23.4220 N   0  0  0  0  0  0  0  0  0  0  0  0
   11.6180   -3.0360   24.2810 C   0  0  0  0  0  0  0  0  0  0  0  0
   10.6310   -1.8540   22.4020 C   0  0  0  0  0  0  0  0  0  0  0  0
   10.1110   -0.6460   22.8930 C   0  0  1  0  0  0  0  0  0  0  0  0
    8.7470   -0.5780   22.7240 N   0  0  0  0  0  0  0  0  0  0  0  0
    8.2360    0.0740   21.5390 C   0  0  0  0  0  0  0  0  0  0  0  0
    8.7750    1.1330   21.1520 O   0  0  0  0  0  0  0  0  0  0  0  0
    7.0930   -0.6080   20.9340 N   0  0  0  0  0  0  0  0  0  0  0  0
    6.4390    0.0650   19.9590 C   0  0  0  0  0  0  0  0  0  0  0  0
    5.1570    0.8780   20.1480 C   0  0  0  0  0  0  0  0  0  0  0  0
    4.5540    1.5610   19.0960 C   0  0  0  0  0  0  0  0  0  0  0  0
    5.1070    1.5300   17.8050 C   0  0  0  0  0  0  0  0  0  0  0  0
    6.3140    0.7420   17.6560 N   0  0  0  0  0  0  0  0  0  0  0  0
    6.9360    0.0470   18.6960 C   0  0  0  0  0  0  0  0  0  0  0  0
   10.5190   -0.4810   24.3650 C   0  0  0  0  0  0  0  0  0  0  0  0
    9.6490   -0.4150   25.3880 C   0  0  0  0  0  0  0  0  0  0  0  0
   11.0330   -0.3750   25.2830 C   0  0  0  0  0  0  0  0  0  0  0  0
   10.8070   -0.5650   23.7390 C   0  0  0  0  0  0  0  0  0  0  0  0
   11.1460   -0.7460   22.1130 Cl  0  0  0  0  0  0  0  0  0  0  0  0
   12.1720   -0.4770   23.6810 C   0  0  0  0  0  0  0  0  0  0  0  0
   13.4320   -0.5260   22.5490 Cl  0  0  0  0  0  0  0  0  0  0  0  0
   11.9390   -0.3680   24.8100 C   0  0  0  0  0  0  0  0  0  0  0  0
  1  2  1  0
  2  3  1  0
  2  4  1  0
  5  4  1  1
  5  6  1  0
  6  7  1  0
  7  8  2  0
  7  9  1  0
  9 10  1  0
 10 11  2  0
 11 12  1  0
 12 13  2  0
 13 14  1  0
 10 15  1  0
 14 15  2  0
  5 16  1  0
 16 17  2  0
 17 18  1  0
 18 19  2  0
 19 20  1  0
 19 21  1  0
 21 22  1  0
 16 23  1  0
 21 23  2  0
M  END
