pyridine_urea_11536
     RDKit          3D

 22 24  0  0  0  0  0  0  0  0999 V2000
   13.0480   -1.5320   24.6890 C   0  0  0  0  0  0  0  0  0  0  0  0
   12.8140   -2.9130   24.2330 C   0  0  0  0  0  0  0  0  0  0  0  0
   11.9930   -2.8810   23.0470 O   0  0  0  0  0  0  0  0  0  0  0  0
   10.6650   -2.6390   23.2560 C   0  0  0  0  0  0  0  0  0  0  0  0
    9.6850   -3.5100   23.8530 O   0  0  0  0  0  0  0  0  0  0  0  0
   10.0920   -1.4370   22.8930 C   0  0  0  0  0  0  0  0  0  0  0  0
    8.7250   -1.3550   22.5350 N   0  0  0  0  0  0  0  0  0  0  0  0
    8.1900   -0.4490   21.6130 C   0  0  0  0  0  0  0  0  0  0  0  0
    8.7250    0.6140   21.3450 O   0  0  0  0  0  0  0  0  0  0  0  0
    7.0260   -0.9090   21.1010 N   0  0  0  0  0  0  0  0  0  0  0  0
    6.4560   -0.1870   20.0940 C   0  0  0  0  0  0  0  0  0  0  0  0
    5.2990    0.5390   20.3570 C   0  0  0  0  0  0  0  0  0  0  0  0
    4.6530    1.3550   19.2290 C   0  0  0  0  0  0  0  0  0  0  0  0
    5.2570    1.3310   17.9980 C   0  0  0  0  0  0  0  0  0  0  0  0
    6.3800    0.6140   17.7810 N   0  0  0  0  0  0  0  0  0  0  0  0
    6.9420   -0.1120   18.7950 C   0  0  0  0  0  0  0  0  0  0  0  0
   10.4780   -0.4160   23.7080 C   0  0  0  0  0  0  0  0  0  0  0  0
   11.2200    0.1220   22.8420 C   0  0  0  0  0  0  0  0  0  0  0  0
   10.7120    1.4300   22.6990 C   0  0  0  0  0  0  0  0  0  0  0  0
   12.0450    1.9640   22.9140 C   0  0  0  0  0  0  0  0  0  0  0  0
   12.6600    0.6170   23.1700 C   0  0  0  0  0  0  0  0  0  0  0  0
   11.0160   -0.8960   21.9260 C   0  0  0  0  0  0  0  0  0  0  0  0
  1  2  1  0
  2  3  1  0
  3  4  1  0
  4  5  2  0
  6  4  1  0
  6  7  1  0
  7  8  1  0
  8  9  2  0
  8 10  1  0
 10 11  1  0
 11 12  2  0
 12 13  1  0
 13 14  2  0
 14 15  1  0
 11 16  1  0
 15 16  2  0
  6 17  1  0
 18 17  1  0
 18 19  1  0
 19 20  1  0
 18 21  1  0
 20 21  1  0
  6 22  1  0
 18 22  1  0
M  END
