pyridine_urea_4969
     RDKit          3D

 21 22  0  0  0  0  0  0  0  0999 V2000
    2.3920    4.6040   15.7630 C   0  0  0  0  0  0  0  0  0  0  0  0
    3.8480    4.5970   16.2980 C   0  0  0  0  0  0  0  0  0  0  0  0
    4.8190    4.3690   15.1220 C   0  0  0  0  0  0  0  0  0  0  0  0
    4.0730    3.5530   17.4580 C   0  0  0  0  0  0  0  0  0  0  0  0
    4.7270    2.5880   17.0450 O   0  0  0  0  0  0  0  0  0  0  0  0
    5.2910    1.7550   17.9740 C   0  0  0  0  0  0  0  0  0  0  0  0
    4.8330    1.6240   19.2970 C   0  0  0  0  0  0  0  0  0  0  0  0
    5.4590    0.8010   20.2320 C   0  0  0  0  0  0  0  0  0  0  0  0
    6.5720    0.0830   19.8410 C   0  0  0  0  0  0  0  0  0  0  0  0
    7.2610   -0.7310   20.8130 N   0  0  0  0  0  0  0  0  0  0  0  0
    8.3450   -0.1020   21.3940 C   0  0  0  0  0  0  0  0  0  0  0  0
    8.7170    1.2270   21.0770 O   0  0  0  0  0  0  0  0  0  0  0  0
    9.0540   -0.9080   22.2930 N   0  0  0  0  0  0  0  0  0  0  0  0
   10.4000   -0.7100   22.5080 C   0  0  0  0  0  0  0  0  0  0  0  0
   10.7170    0.5470   22.8730 C   0  0  0  0  0  0  0  0  0  0  0  0
   12.1570    0.8140   23.1000 C   0  0  0  0  0  0  0  0  0  0  0  0
   13.3300    0.0680   23.0420 C   0  0  0  0  0  0  0  0  0  0  0  0
   12.7960   -1.1630   22.6630 N   0  0  0  0  0  0  0  0  0  0  0  0
   11.4540   -1.5530   22.4060 C   0  0  0  0  0  0  0  0  0  0  0  0
    7.0200    0.1730   18.5380 C   0  0  0  0  0  0  0  0  0  0  0  0
    6.4070    0.9890   17.6050 N   0  0  0  0  0  0  0  0  0  0  0  0
  1  2  1  0
  2  3  1  0
  2  4  1  0
  4  5  1  0
  5  6  1  0
  6  7  2  0
  7  8  1  0
  8  9  2  0
  9 10  1  0
 10 11  1  0
 11 12  2  0
 11 13  1  0
 13 14  1  0
 14 15  2  0
 15 16  1  0
 16 17  2  0
 17 18  1  0
 14 19  1  0
 18 19  2  0
  9 20  1  0
  6 21  1  0
 20 21  2  0
M  END
