pyridine_urea_4394
     RDKit          3D

 24 25  0  0  0  0  0  0  0  0999 V2000
   12.6990    4.6640   22.2310 C   0  0  0  0  0  0  0  0  0  0  0  0
   11.9140    5.0360   23.3630 O   0  0  0  0  0  0  0  0  0  0  0  0
   10.6210    5.5540   23.0320 C   0  0  0  0  0  0  0  0  0  0  0  0
   10.3390    6.7480   23.0140 O   0  0  0  0  0  0  0  0  0  0  0  0
    9.6230    4.4360   22.7010 C   0  0  0  0  0  0  0  0  0  0  0  0
    8.1580    4.6850   23.0460 C   0  0  0  0  0  0  0  0  0  0  0  0
    7.1480    3.5680   22.7140 C   0  0  0  0  0  0  0  0  0  0  0  0
    7.5590    2.2410   22.0610 C   0  0  0  0  0  0  0  0  0  0  0  0
    9.0480    2.1070   21.7630 C   0  0  0  0  0  0  0  0  0  0  0  0
    9.3730    1.0090   21.2180 O   0  0  0  0  0  0  0  0  0  0  0  0
   10.0560   -0.1080   21.8900 C   0  0  0  0  0  0  0  0  0  0  0  0
    9.9850   -1.4540   21.6860 C   0  0  0  0  0  0  0  0  0  0  0  0
    9.6100   -2.0020   22.8680 C   0  0  0  0  0  0  0  0  0  0  0  0
    8.2350   -1.5760   22.8370 N   0  0  0  0  0  0  0  0  0  0  0  0
    7.8160   -0.7190   21.6790 C   0  0  0  0  0  0  0  0  0  0  0  0
    8.4720    0.1990   21.2590 O   0  0  0  0  0  0  0  0  0  0  0  0
    6.5590   -1.1000   21.1100 N   0  0  0  0  0  0  0  0  0  0  0  0
    6.1090   -0.2530   20.0140 C   0  0  0  0  0  0  0  0  0  0  0  0
    4.8880    0.5740   20.2380 C   0  0  0  0  0  0  0  0  0  0  0  0
    4.5010    1.3700   19.1670 C   0  0  0  0  0  0  0  0  0  0  0  0
    5.2530    1.3890   17.9000 C   0  0  0  0  0  0  0  0  0  0  0  0
    6.3450    0.6320   17.7330 N   0  0  0  0  0  0  0  0  0  0  0  0
    6.7460   -0.1590   18.7740 C   0  0  0  0  0  0  0  0  0  0  0  0
   10.0600    3.2450   22.1020 C   0  0  0  0  0  0  0  0  0  0  0  0
  1  2  1  0
  2  3  1  0
  3  4  2  0
  3  5  1  0
  5  6  2  0
  6  7  1  0
  7  8  2  0
  8  9  1  0
  9 10  1  0
 10 11  1  0
 11 12  1  0
 12 13  1  0
 13 14  1  0
 14 15  1  0
 15 16  2  0
 15 17  1  0
 17 18  1  0
 18 19  2  0
 19 20  1  0
 20 21  2  0
 21 22  1  0
 18 23  1  0
 22 23  2  0
  5 24  1  0
  9 24  2  0
M  END
