pyridine_urea_11363
     RDKit          3D

 28 31  0  0  0  0  0  0  0  0999 V2000
    8.5970    0.8940   21.1280 O   0  0  0  0  0  0  0  0  0  0  0  0
    8.2730   -0.2700   21.2210 C   0  0  0  0  0  0  0  0  0  0  0  0
    9.1630   -1.2320   21.5860 N   0  0  0  0  0  0  0  0  0  0  0  0
   10.2800   -0.8390   22.4260 C   0  0  0  0  0  0  0  0  0  0  0  0
   10.1930    0.5500   23.0800 C   0  0  1  0  0  0  0  0  0  0  0  0
   11.5430    1.1120   23.2530 C   0  0  0  0  0  0  0  0  0  0  0  0
   12.2980    1.5490   22.3020 N   0  0  0  0  0  0  0  0  0  0  0  0
   13.3470    1.2150   22.9240 C   0  0  0  0  0  0  0  0  0  0  0  0
   13.2890   -0.2920   23.0010 C   0  0  0  0  0  0  0  0  0  0  0  0
   13.2830   -1.1630   21.8140 C   0  0  0  0  0  0  0  0  0  0  0  0
   13.1770   -2.4800   21.8890 C   0  0  0  0  0  0  0  0  0  0  0  0
   13.1010   -2.8200   23.3450 C   0  0  0  0  0  0  0  0  0  0  0  0
   13.1370   -2.0670   24.4110 C   0  0  0  0  0  0  0  0  0  0  0  0
   13.2380   -0.8010   24.2400 C   0  0  0  0  0  0  0  0  0  0  0  0
   12.1300    2.9720   22.4220 C   0  0  0  0  0  0  0  0  0  0  0  0
   10.8660    3.4920   23.0930 C   0  0  0  0  0  0  0  0  0  0  0  0
   10.8210    4.7080   23.7790 N   0  0  0  0  0  0  0  0  0  0  0  0
    9.5720    4.8520   24.2410 C   0  0  0  0  0  0  0  0  0  0  0  0
    8.8190    3.6870   23.8270 C   0  0  0  0  0  0  0  0  0  0  0  0
    9.6060    2.8730   23.1340 N   0  0  0  0  0  0  0  0  0  0  0  0
    9.2460    1.6790   22.5880 C   0  0  0  0  0  0  0  0  0  0  0  0
    7.0260   -0.7400   20.9360 N   0  0  0  0  0  0  0  0  0  0  0  0
    6.3370   -0.0490   20.0220 C   0  0  0  0  0  0  0  0  0  0  0  0
    5.1460    0.6410   20.2270 C   0  0  0  0  0  0  0  0  0  0  0  0
    4.5400    1.3560   19.1860 C   0  0  0  0  0  0  0  0  0  0  0  0
    5.0870    1.4190   17.9000 C   0  0  0  0  0  0  0  0  0  0  0  0
    6.3260    0.6930   17.6640 N   0  0  0  0  0  0  0  0  0  0  0  0
    6.8870   -0.0170   18.7720 C   0  0  0  0  0  0  0  0  0  0  0  0
  1  2  2  0
  2  3  1  0
  3  4  1  0
  5  4  1  6
  5  6  1  0
  6  7  1  0
  7  8  1  0
  8  9  1  0
  9 10  2  0
 10 11  1  0
 11 12  2  0
 12 13  1  0
  9 14  1  0
 13 14  2  0
  7 15  1  0
 15 16  1  0
 16 17  2  0
 17 18  1  0
 18 19  2  0
 16 20  1  0
 19 20  1  0
  5 21  1  0
 20 21  1  0
  2 22  1  0
 22 23  1  0
 23 24  2  0
 24 25  1  0
 25 26  2  0
 26 27  1  0
 23 28  1  0
 27 28  2  0
M  END
