pyridine_urea_14924
     RDKit          3D

 19 20  0  0  0  0  0  0  0  0999 V2000
    5.0430    2.1510   17.2410 C   0  0  0  0  0  0  0  0  0  0  0  0
    4.3810    1.0010   17.5800 O   0  0  0  0  0  0  0  0  0  0  0  0
    5.1680    0.5270   18.5540 C   0  0  0  0  0  0  0  0  0  0  0  0
    6.3090   -0.1230   18.0650 N   0  0  0  0  0  0  0  0  0  0  0  0
    7.0400   -0.5630   19.0430 C   0  0  0  0  0  0  0  0  0  0  0  0
    6.5980   -0.3330   20.4570 C   0  0  0  0  0  0  0  0  0  0  0  0
    7.5220   -0.8820   21.3870 N   0  0  0  0  0  0  0  0  0  0  0  0
    8.6750   -0.2110   21.6710 C   0  0  0  0  0  0  0  0  0  0  0  0
    8.8640    0.9380   21.2870 O   0  0  0  0  0  0  0  0  0  0  0  0
    9.5160   -0.9820   22.4070 N   0  0  0  0  0  0  0  0  0  0  0  0
   10.8650   -0.7060   22.5960 C   0  0  0  0  0  0  0  0  0  0  0  0
   11.0490    0.8170   22.9050 C   0  0  0  0  0  0  0  0  0  0  0  0
   12.3460    1.1390   23.0940 C   0  0  0  0  0  0  0  0  0  0  0  0
   13.0720    0.0720   22.9670 C   0  0  0  0  0  0  0  0  0  0  0  0
   13.0530   -1.1950   22.7240 N   0  0  0  0  0  0  0  0  0  0  0  0
   11.8310   -1.8110   22.4800 C   0  0  0  0  0  0  0  0  0  0  0  0
    5.3800    0.3640   21.1070 C   0  0  0  0  0  0  0  0  0  0  0  0
    4.6830    0.7900   19.9490 C   0  0  0  0  0  0  0  0  0  0  0  0
    3.0730    1.7340   20.2480 Br  0  0  0  0  0  0  0  0  0  0  0  0
  1  2  1  0
  2  3  1  0
  3  4  2  0
  4  5  1  0
  5  6  2  0
  6  7  1  0
  7  8  1  0
  8  9  2  0
  8 10  1  0
 10 11  1  0
 11 12  2  0
 12 13  1  0
 13 14  2  0
 14 15  1  0
 11 16  1  0
 15 16  2  0
  6 17  1  0
  3 18  1  0
 17 18  2  0
 18 19  1  0
M  END
