pyridine_urea_10458
     RDKit          3D

 22 24  0  0  0  0  0  0  0  0999 V2000
    7.9690    1.1110   23.0760 C   0  0  0  0  0  0  0  0  0  0  0  0
    9.4960    0.8970   22.9160 C   0  0  0  0  0  0  0  0  0  0  0  0
   10.3560    2.0770   23.0680 C   0  0  0  0  0  0  0  0  0  0  0  0
   11.8350    1.9690   22.9240 C   0  0  0  0  0  0  0  0  0  0  0  0
   12.3500    3.3730   23.0680 C   0  0  0  0  0  0  0  0  0  0  0  0
   11.7220    4.5480   23.7330 N   0  0  0  0  0  0  0  0  0  0  0  0
   12.5390    5.6150   23.5740 C   0  0  0  0  0  0  0  0  0  0  0  0
   13.6130    5.2060   22.8710 C   0  0  0  0  0  0  0  0  0  0  0  0
   13.5190    3.8710   22.5640 N   0  0  0  0  0  0  0  0  0  0  0  0
   12.4160    0.6890   22.6780 C   0  0  0  0  0  0  0  0  0  0  0  0
   11.5880   -0.4740   22.5100 C   0  0  0  0  0  0  0  0  0  0  0  0
   10.1760   -0.4300   22.5860 C   0  0  0  0  0  0  0  0  0  0  0  0
    9.2280   -1.3540   22.3890 N   0  0  0  0  0  0  0  0  0  0  0  0
    8.4030   -0.6620   21.5000 C   0  0  0  0  0  0  0  0  0  0  0  0
    8.7660    0.4320   21.1020 O   0  0  0  0  0  0  0  0  0  0  0  0
    7.2190   -1.1950   21.1170 N   0  0  0  0  0  0  0  0  0  0  0  0
    6.5510   -0.4160   20.1820 C   0  0  0  0  0  0  0  0  0  0  0  0
    5.2630    0.3570   20.5060 C   0  0  0  0  0  0  0  0  0  0  0  0
    4.7260    1.0920   19.4620 C   0  0  0  0  0  0  0  0  0  0  0  0
    5.3230    1.1220   18.2070 C   0  0  0  0  0  0  0  0  0  0  0  0
    6.4490    0.4630   17.8820 N   0  0  0  0  0  0  0  0  0  0  0  0
    7.0160   -0.2790   18.8740 C   0  0  0  0  0  0  0  0  0  0  0  0
  1  2  1  0
  2  3  2  0
  3  4  1  0
  4  5  1  0
  5  6  2  0
  6  7  1  0
  7  8  2  0
  5  9  1  0
  8  9  1  0
  4 10  2  0
 10 11  1  0
  2 12  1  0
 11 12  2  0
 12 13  1  0
 13 14  1  0
 14 15  2  0
 14 16  1  0
 16 17  1  0
 17 18  2  0
 18 19  1  0
 19 20  2  0
 20 21  1  0
 17 22  1  0
 21 22  2  0
M  END
