pyridine_urea_12597
     RDKit          3D

 21 22  0  0  0  0  0  0  0  0999 V2000
   13.7270   -2.7700   23.7500 C   0  0  0  0  0  0  0  0  0  0  0  0
   13.1020   -1.8230   22.7570 C   0  0  0  0  0  0  0  0  0  0  0  0
   13.2440   -2.1970   21.2330 C   0  0  0  0  0  0  0  0  0  0  0  0
   13.6300   -0.5110   22.9210 O   0  0  0  0  0  0  0  0  0  0  0  0
   12.4490    0.0030   23.0950 C   0  0  0  0  0  0  0  0  0  0  0  0
   11.9430    1.2910   23.5890 C   0  0  0  0  0  0  0  0  0  0  0  0
   10.5650    1.3820   23.6140 C   0  0  0  0  0  0  0  0  0  0  0  0
    9.5740    0.2670   23.1670 C   0  0  0  0  0  0  0  0  0  0  0  0
    8.5540   -0.2200   22.9620 N   0  0  0  0  0  0  0  0  0  0  0  0
    8.2030    0.2600   21.6370 C   0  0  0  0  0  0  0  0  0  0  0  0
    8.8450    1.4190   21.0630 O   0  0  0  0  0  0  0  0  0  0  0  0
    7.1650   -0.5560   21.0560 N   0  0  0  0  0  0  0  0  0  0  0  0
    6.5120    0.0430   20.0220 C   0  0  0  0  0  0  0  0  0  0  0  0
    5.2300    0.7920   20.4050 C   0  0  0  0  0  0  0  0  0  0  0  0
    4.4960    1.4980   19.2530 C   0  0  0  0  0  0  0  0  0  0  0  0
    5.1490    1.3570   17.8860 C   0  0  0  0  0  0  0  0  0  0  0  0
    6.3010    0.6390   17.7060 N   0  0  0  0  0  0  0  0  0  0  0  0
    6.9640   -0.0030   18.7320 C   0  0  0  0  0  0  0  0  0  0  0  0
   10.2340   -0.8910   22.7210 C   0  0  0  0  0  0  0  0  0  0  0  0
    9.3390   -2.2570   22.1870 Cl  0  0  0  0  0  0  0  0  0  0  0  0
   11.5850   -0.9580   22.7090 C   0  0  0  0  0  0  0  0  0  0  0  0
  1  2  1  0
  2  3  1  0
  2  4  1  0
  4  5  1  0
  5  6  2  0
  6  7  1  0
  7  8  2  0
  8  9  1  0
  9 10  1  0
 10 11  2  0
 10 12  1  0
 12 13  1  0
 13 14  2  0
 14 15  1  0
 15 16  2  0
 16 17  1  0
 13 18  1  0
 17 18  2  0
  8 19  1  0
 19 20  1  0
  5 21  1  0
 19 21  2  0
M  END
