pyridine_urea_11529
     RDKit          3D

 22 23  0  0  0  0  0  0  0  0999 V2000
   13.1110   -2.4170   21.0830 C   0  0  0  0  0  0  0  0  0  0  0  0
   12.9560   -2.4070   22.5860 C   0  0  0  0  0  0  0  0  0  0  0  0
   11.5630   -2.1450   22.9160 O   0  0  0  0  0  0  0  0  0  0  0  0
   11.0260   -1.2940   22.0120 C   0  0  0  0  0  0  0  0  0  0  0  0
   12.1300   -1.8480   21.2900 O   0  0  0  0  0  0  0  0  0  0  0  0
   10.1400   -1.0810   23.0670 C   0  0  2  0  0  0  0  0  0  0  0  0
    8.7780   -0.9830   22.6650 N   0  0  0  0  0  0  0  0  0  0  0  0
    8.2550   -0.2020   21.6290 C   0  0  0  0  0  0  0  0  0  0  0  0
    8.7480    0.8590   21.2880 O   0  0  0  0  0  0  0  0  0  0  0  0
    7.1480   -0.7810   21.0970 N   0  0  0  0  0  0  0  0  0  0  0  0
    6.5200   -0.1050   20.0890 C   0  0  0  0  0  0  0  0  0  0  0  0
    5.3550    0.6100   20.3890 C   0  0  0  0  0  0  0  0  0  0  0  0
    4.6560    1.3750   19.2470 C   0  0  0  0  0  0  0  0  0  0  0  0
    5.2360    1.2980   18.0080 C   0  0  0  0  0  0  0  0  0  0  0  0
    6.3550    0.5960   17.7620 N   0  0  0  0  0  0  0  0  0  0  0  0
    6.9590   -0.0770   18.7750 C   0  0  0  0  0  0  0  0  0  0  0  0
   10.4540    0.0010   23.9120 C   0  0  2  0  0  0  0  0  0  0  0  0
   10.9060    1.1450   23.2300 C   0  0  0  0  0  0  0  0  0  0  0  0
   12.2760    1.3110   23.1580 C   0  0  0  0  0  0  0  0  0  0  0  0
   12.7680   -0.0750   23.2700 C   0  0  0  0  0  0  0  0  0  0  0  0
   12.3060   -0.7490   24.5490 C   0  0  0  0  0  0  0  0  0  0  0  0
   11.1970   -0.3560   24.8370 O   0  0  0  0  0  0  0  0  0  0  0  0
  1  2  1  0
  2  3  1  0
  3  4  1  0
  4  5  2  0
  4  6  1  0
  6  7  1  6
  7  8  1  0
  8  9  2  0
  8 10  1  0
 10 11  1  0
 11 12  2  0
 12 13  1  0
 13 14  2  0
 14 15  1  0
 11 16  1  0
 15 16  2  0
  6 17  1  0
 17 18  1  6
 18 19  1  0
 19 20  1  0
 20 21  1  0
 17 22  1  0
 21 22  1  0
M  END
