pyridine_urea_11024
     RDKit          3D

 19 20  0  0  0  0  0  0  0  0999 V2000
   12.2740    2.5850   22.7490 C   0  0  0  0  0  0  0  0  0  0  0  0
   12.0670    1.1710   22.5850 O   0  0  0  0  0  0  0  0  0  0  0  0
   10.7770    0.7770   22.7920 C   0  0  0  0  0  0  0  0  0  0  0  0
    9.8940    1.6070   22.9350 O   0  0  0  0  0  0  0  0  0  0  0  0
   10.4990   -0.6020   22.8520 C   0  0  2  0  0  0  0  0  0  0  0  0
    9.0840   -0.8240   22.4610 N   0  0  0  0  0  0  0  0  0  0  0  0
    8.3900   -0.0850   21.5580 C   0  0  0  0  0  0  0  0  0  0  0  0
    8.9680    1.1850   21.1760 O   0  0  0  0  0  0  0  0  0  0  0  0
    7.1300   -0.6300   21.0900 N   0  0  0  0  0  0  0  0  0  0  0  0
    6.4810    0.0090   20.0700 C   0  0  0  0  0  0  0  0  0  0  0  0
    5.2040    0.7680   20.4310 C   0  0  0  0  0  0  0  0  0  0  0  0
    4.5650    1.4660   19.2350 C   0  0  0  0  0  0  0  0  0  0  0  0
    5.2100    1.3540   17.8800 C   0  0  0  0  0  0  0  0  0  0  0  0
    6.3390    0.6430   17.7050 N   0  0  0  0  0  0  0  0  0  0  0  0
    6.9520   -0.0130   18.7640 C   0  0  0  0  0  0  0  0  0  0  0  0
   11.2040   -1.0590   23.9770 C   0  0  0  0  0  0  0  0  0  0  0  0
   12.5470   -0.6340   23.9780 C   0  0  0  0  0  0  0  0  0  0  0  0
   13.0470   -1.1420   22.4550 S   0  0  0  0  0  0  0  0  0  0  0  0
   11.4000   -1.5910   22.0340 C   0  0  0  0  0  0  0  0  0  0  0  0
  1  2  1  0
  2  3  1  0
  3  4  2  0
  5  3  1  0
  5  6  1  1
  6  7  1  0
  7  8  2  0
  7  9  1  0
  9 10  1  0
 10 11  2  0
 11 12  1  0
 12 13  2  0
 13 14  1  0
 10 15  1  0
 14 15  2  0
  5 16  1  0
 16 17  1  0
 17 18  1  0
  5 19  1  0
 18 19  1  0
M  END
