pyridine_urea_3446
     RDKit          3D

 19 20  0  0  0  0  0  0  0  0999 V2000
    8.9570    1.0670   21.2950 O   0  0  0  0  0  0  0  0  0  0  0  0
    8.2190    0.1490   21.6910 C   0  0  0  0  0  0  0  0  0  0  0  0
    8.2020   -0.3610   22.9790 N   0  0  0  0  0  0  0  0  0  0  0  0
    9.3450   -0.9640   23.6180 C   0  0  0  0  0  0  0  0  0  0  0  0
   10.4900   -0.0080   23.7650 C   0  0  0  0  0  0  0  0  0  0  0  0
   11.8900    0.7500   23.6770 C   0  0  0  0  0  0  0  0  0  0  0  0
   13.1890    0.3770   22.8940 C   0  0  0  0  0  0  0  0  0  0  0  0
   13.2420   -0.8620   22.0710 C   0  0  0  0  0  0  0  0  0  0  0  0
   11.9250   -1.3670   22.2900 C   0  0  0  0  0  0  0  0  0  0  0  0
   12.1660    0.2330   23.2480 Br  0  0  0  0  0  0  0  0  0  0  0  0
   10.7750   -1.1360   22.9160 C   0  0  0  0  0  0  0  0  0  0  0  0
    9.7730   -2.0560   22.7290 O   0  0  0  0  0  0  0  0  0  0  0  0
    7.2650   -0.5020   20.9530 N   0  0  0  0  0  0  0  0  0  0  0  0
    6.4780    0.1360   20.0000 C   0  0  0  0  0  0  0  0  0  0  0  0
    5.3080    0.8290   20.2510 C   0  0  0  0  0  0  0  0  0  0  0  0
    4.6280    1.4410   19.2080 C   0  0  0  0  0  0  0  0  0  0  0  0
    5.1550    1.3320   17.9290 C   0  0  0  0  0  0  0  0  0  0  0  0
    6.2780    0.6570   17.6640 N   0  0  0  0  0  0  0  0  0  0  0  0
    6.9070    0.0800   18.6960 C   0  0  0  0  0  0  0  0  0  0  0  0
  1  2  2  0
  2  3  1  0
  3  4  1  0
  4  5  1  0
  5  6  2  0
  6  7  1  0
  7  8  2  0
  8  9  1  0
  9 10  1  0
  5 11  1  0
  9 11  2  0
 11 12  1  0
  2 13  1  0
 13 14  1  0
 14 15  2  0
 15 16  1  0
 16 17  2  0
 17 18  1  0
 14 19  1  0
 18 19  2  0
M  END
