pyridine_urea_14491
     RDKit          3D

 21 23  0  0  0  0  0  0  0  0999 V2000
    8.4200    0.9450   21.0250 O   0  0  0  0  0  0  0  0  0  0  0  0
    8.1320   -0.2040   21.3340 C   0  0  0  0  0  0  0  0  0  0  0  0
    6.8620   -0.7810   20.9640 N   0  0  0  0  0  0  0  0  0  0  0  0
    6.2620   -0.0590   19.9630 C   0  0  0  0  0  0  0  0  0  0  0  0
    5.0650    0.6190   20.1840 C   0  0  0  0  0  0  0  0  0  0  0  0
    4.5160    1.3490   19.1310 C   0  0  0  0  0  0  0  0  0  0  0  0
    5.1830    1.3720   17.9010 C   0  0  0  0  0  0  0  0  0  0  0  0
    6.3330    0.7130   17.6860 N   0  0  0  0  0  0  0  0  0  0  0  0
    6.8460    0.0130   18.7180 C   0  0  0  0  0  0  0  0  0  0  0  0
    8.9130   -1.0540   22.0370 N   0  0  0  0  0  0  0  0  0  0  0  0
   10.0510   -0.4140   22.6200 C   0  0  1  0  0  0  0  0  0  0  0  0
    9.5120    0.4400   23.7270 C   0  0  0  0  0  0  0  0  0  0  0  0
   10.5230    0.8750   24.4930 C   0  0  0  0  0  0  0  0  0  0  0  0
   11.5680    0.8860   23.8980 O   0  0  0  0  0  0  0  0  0  0  0  0
   12.0910   -0.3500   23.6550 C   0  0  0  0  0  0  0  0  0  0  0  0
   13.0690   -0.2460   22.7350 C   0  0  0  0  0  0  0  0  0  0  0  0
   13.1560   -1.4680   22.0910 C   0  0  0  0  0  0  0  0  0  0  0  0
   13.1830   -2.5290   23.0140 C   0  0  0  0  0  0  0  0  0  0  0  0
   13.1300   -2.2520   24.3810 C   0  0  0  0  0  0  0  0  0  0  0  0
   12.4310   -1.1260   24.7570 C   0  0  0  0  0  0  0  0  0  0  0  0
   11.1290   -1.1590   22.9920 C   0  0  0  0  0  0  0  0  0  0  0  0
  1  2  2  0
  2  3  1  0
  3  4  1  0
  4  5  2  0
  5  6  1  0
  6  7  2  0
  7  8  1  0
  4  9  1  0
  8  9  2  0
  2 10  1  0
 11 10  1  1
 11 12  1  0
 12 13  1  0
 13 14  1  0
 15 14  1  0
 15 16  1  0
 16 17  1  0
 17 18  1  0
 18 19  1  0
 15 20  1  0
 19 20  1  0
 11 21  1  0
 15 21  1  0
M  END
