pyridine_urea_7363
     RDKit          3D

 18 18  0  0  0  0  0  0  0  0999 V2000
   12.8700   -1.1850   25.0590 C   0  0  0  0  0  0  0  0  0  0  0  0
   12.7020    0.0270   24.8970 O   0  0  0  0  0  0  0  0  0  0  0  0
   12.2650    0.3190   23.6560 C   0  0  0  0  0  0  0  0  0  0  0  0
   12.3310    1.6440   23.2470 C   0  0  0  0  0  0  0  0  0  0  0  0
   13.1700   -0.4220   22.6890 C   0  0  0  0  0  0  0  0  0  0  0  0
   10.7900   -0.1370   23.6090 C   0  0  0  0  0  0  0  0  0  0  0  0
   10.4390   -0.7620   22.4360 C   0  0  1  0  0  0  0  0  0  0  0  0
   11.1230   -1.9220   22.0770 C   0  0  0  0  0  0  0  0  0  0  0  0
    9.0220   -0.9880   22.4650 N   0  0  0  0  0  0  0  0  0  0  0  0
    8.4150   -0.0820   21.6250 C   0  0  0  0  0  0  0  0  0  0  0  0
    9.0040    1.1850   21.2190 O   0  0  0  0  0  0  0  0  0  0  0  0
    7.1820   -0.5050   21.2150 N   0  0  0  0  0  0  0  0  0  0  0  0
    6.5100    0.0810   20.1430 C   0  0  0  0  0  0  0  0  0  0  0  0
    5.3420    0.8230   20.3030 C   0  0  0  0  0  0  0  0  0  0  0  0
    4.6460    1.4390   19.2720 C   0  0  0  0  0  0  0  0  0  0  0  0
    5.1430    1.3130   17.9850 C   0  0  0  0  0  0  0  0  0  0  0  0
    6.2520    0.6180   17.6860 N   0  0  0  0  0  0  0  0  0  0  0  0
    6.9260    0.0190   18.6890 C   0  0  0  0  0  0  0  0  0  0  0  0
  1  2  1  0
  3  2  1  0
  3  4  1  0
  3  5  1  0
  3  6  1  0
  6  7  1  0
  7  8  1  1
  7  9  1  0
  9 10  1  0
 10 11  2  0
 10 12  1  0
 12 13  1  0
 13 14  2  0
 14 15  1  0
 15 16  2  0
 16 17  1  0
 13 18  1  0
 17 18  2  0
M  END
