pyridine_urea_14205
     RDKit          3D

 22 22  0  0  0  0  0  0  0  0999 V2000
    9.3380    0.2100   26.5730 C   0  0  0  0  0  0  0  0  0  0  0  0
   10.3820   -0.0590   25.6360 O   0  0  0  0  0  0  0  0  0  0  0  0
   10.1160    0.3740   24.3710 C   0  0  0  0  0  0  0  0  0  0  0  0
   10.0660    1.5620   24.0850 O   0  0  0  0  0  0  0  0  0  0  0  0
    9.8980   -0.6300   23.4380 C   0  0  1  0  0  0  0  0  0  0  0  0
    8.5420   -0.3640   22.9230 N   0  0  0  0  0  0  0  0  0  0  0  0
    8.2300    0.0570   21.6760 C   0  0  0  0  0  0  0  0  0  0  0  0
    8.9430    1.2180   21.1920 O   0  0  0  0  0  0  0  0  0  0  0  0
    7.1880   -0.6920   20.9940 N   0  0  0  0  0  0  0  0  0  0  0  0
    6.5410   -0.0300   19.9920 C   0  0  0  0  0  0  0  0  0  0  0  0
    5.2740    0.7350   20.3210 C   0  0  0  0  0  0  0  0  0  0  0  0
    4.5230    1.5050   19.2360 C   0  0  0  0  0  0  0  0  0  0  0  0
    5.1910    1.3940   17.8800 C   0  0  0  0  0  0  0  0  0  0  0  0
    6.3270    0.6750   17.6820 N   0  0  0  0  0  0  0  0  0  0  0  0
    6.9840   -0.0180   18.6920 C   0  0  0  0  0  0  0  0  0  0  0  0
   11.0510   -0.5230   22.6920 C   0  0  1  0  0  0  0  0  0  0  0  0
   12.1420    0.1520   23.2750 C   0  0  0  0  0  0  0  0  0  0  0  0
   11.4190   -1.6600   22.5670 O   0  0  0  0  0  0  0  0  0  0  0  0
   12.8080   -1.8560   22.4070 C   0  0  0  0  0  0  0  0  0  0  0  0
   13.3080   -0.5910   22.2480 C   0  0  0  0  0  0  0  0  0  0  0  0
   13.4430   -2.5040   23.6650 C   0  0  0  0  0  0  0  0  0  0  0  0
   13.1240   -2.6350   21.1370 C   0  0  0  0  0  0  0  0  0  0  0  0
  1  2  1  0
  2  3  1  0
  3  4  2  0
  3  5  1  0
  5  6  1  6
  6  7  1  0
  7  8  2  0
  7  9  1  0
  9 10  1  0
 10 11  2  0
 11 12  1  0
 12 13  2  0
 13 14  1  0
 10 15  1  0
 14 15  2  0
  5 16  1  0
 16 17  1  1
 16 18  1  0
 19 18  1  0
 19 20  1  0
 19 21  1  0
 19 22  1  0
M  END
