pyridine_urea_15215
     RDKit          3D

 18 19  0  0  0  0  0  0  0  0999 V2000
   11.9870    2.1960   23.1230 C   0  0  0  0  0  0  0  0  0  0  0  0
   10.9110    1.3360   23.1370 N   0  0  0  0  0  0  0  0  0  0  0  0
    9.7270    1.7920   23.8350 C   0  0  0  0  0  0  0  0  0  0  0  0
   11.2970    0.0100   23.2410 C   0  0  0  0  0  0  0  0  0  0  0  0
   10.2770   -0.9470   22.6520 C   0  0  0  0  0  0  0  0  0  0  0  0
    8.9050   -0.4970   22.6650 N   0  0  0  0  0  0  0  0  0  0  0  0
    8.4130    0.2010   21.5820 C   0  0  0  0  0  0  0  0  0  0  0  0
    8.9180    1.2610   21.1930 O   0  0  0  0  0  0  0  0  0  0  0  0
    7.3190   -0.4300   21.0450 N   0  0  0  0  0  0  0  0  0  0  0  0
    6.5650    0.1390   20.0180 C   0  0  0  0  0  0  0  0  0  0  0  0
    5.2830    0.8990   20.3610 C   0  0  0  0  0  0  0  0  0  0  0  0
    4.6190    1.4460   19.2560 C   0  0  0  0  0  0  0  0  0  0  0  0
    5.1320    1.2820   17.9750 C   0  0  0  0  0  0  0  0  0  0  0  0
    6.2480    0.6100   17.6810 N   0  0  0  0  0  0  0  0  0  0  0  0
    6.9230    0.0630   18.7020 C   0  0  0  0  0  0  0  0  0  0  0  0
   11.8380   -0.3640   24.4130 C   0  0  0  0  0  0  0  0  0  0  0  0
   12.8300   -0.9580   23.8790 C   0  0  0  0  0  0  0  0  0  0  0  0
   12.7720   -0.2360   22.5750 C   0  0  0  0  0  0  0  0  0  0  0  0
  1  2  1  0
  2  3  1  0
  4  2  1  0
  4  5  1  0
  5  6  1  0
  6  7  1  0
  7  8  2  0
  7  9  1  0
  9 10  1  0
 10 11  2  0
 11 12  1  0
 12 13  2  0
 13 14  1  0
 10 15  1  0
 14 15  2  0
  4 16  1  0
 16 17  1  0
  4 18  1  0
 17 18  1  0
M  END
