pyridine_urea_6817
     RDKit          3D

 21 22  0  0  0  0  0  0  0  0999 V2000
    8.2990   -0.5110   24.9010 C   0  0  0  0  0  0  0  0  0  0  0  0
    7.9130   -1.4560   23.7560 C   0  0  1  0  0  0  0  0  0  0  0  0
    8.7940   -1.2320   22.5990 N   0  0  0  0  0  0  0  0  0  0  0  0
    8.4170   -0.2980   21.6570 C   0  0  0  0  0  0  0  0  0  0  0  0
    9.0650    0.7090   21.4140 O   0  0  0  0  0  0  0  0  0  0  0  0
    7.2260   -0.6720   21.0690 N   0  0  0  0  0  0  0  0  0  0  0  0
    6.5780   -0.0070   20.0190 C   0  0  0  0  0  0  0  0  0  0  0  0
    5.3350    0.7820   20.2790 C   0  0  0  0  0  0  0  0  0  0  0  0
    4.6740    1.4600   19.2630 C   0  0  0  0  0  0  0  0  0  0  0  0
    5.1560    1.4290   17.9470 C   0  0  0  0  0  0  0  0  0  0  0  0
    6.3530    0.6550   17.7270 N   0  0  0  0  0  0  0  0  0  0  0  0
    6.9980   -0.0130   18.7230 C   0  0  0  0  0  0  0  0  0  0  0  0
    7.8790   -2.9380   24.2200 C   0  0  0  0  0  0  0  0  0  0  0  0
    8.0610   -3.2930   25.5180 N   0  0  0  0  0  0  0  0  0  0  0  0
    7.9800   -4.6640   25.6920 C   0  0  0  0  0  0  0  0  0  0  0  0
    8.1080   -5.3860   26.8790 C   0  0  0  0  0  0  0  0  0  0  0  0
    8.2020   -4.5360   27.9310 F   0  0  0  0  0  0  0  0  0  0  0  0
    6.9990   -6.1380   27.0690 F   0  0  0  0  0  0  0  0  0  0  0  0
    9.1940   -6.1980   26.9020 F   0  0  0  0  0  0  0  0  0  0  0  0
    7.7070   -5.1910   24.2710 C   0  0  0  0  0  0  0  0  0  0  0  0
    7.6670   -4.0900   23.4800 N   0  0  0  0  0  0  0  0  0  0  0  0
  2  1  1  1
  2  3  1  0
  3  4  1  0
  4  5  2  0
  4  6  1  0
  6  7  1  0
  7  8  2  0
  8  9  1  0
  9 10  2  0
 10 11  1  0
  7 12  1  0
 11 12  2  0
  2 13  1  0
 13 14  2  0
 14 15  1  0
 15 16  1  0
 16 17  1  0
 16 18  1  0
 16 19  1  0
 15 20  2  0
 13 21  1  0
 20 21  1  0
M  END
