pyridine_urea_10108
     RDKit          3D

 24 25  0  0  0  0  0  0  0  0999 V2000
    8.4780    0.6560   21.4750 O   0  0  0  0  0  0  0  0  0  0  0  0
    7.7190   -0.2970   21.6330 C   0  0  0  0  0  0  0  0  0  0  0  0
    7.9920   -1.4020   22.3510 N   0  0  0  0  0  0  0  0  0  0  0  0
    9.2800   -1.7980   22.4290 C   0  0  0  0  0  0  0  0  0  0  0  0
   10.1460   -0.8530   22.8200 C   0  0  0  0  0  0  0  0  0  0  0  0
   10.7290   -1.8580   21.9590 C   0  0  0  0  0  0  0  0  0  0  0  0
   12.0010   -2.0470   21.4600 C   0  0  0  0  0  0  0  0  0  0  0  0
   12.9720   -1.1960   21.7640 C   0  0  0  0  0  0  0  0  0  0  0  0
   12.4990   -0.1150   22.6410 C   0  0  0  0  0  0  0  0  0  0  0  0
   13.2810    0.8070   23.0890 C   0  0  0  0  0  0  0  0  0  0  0  0
   13.5900    0.0580   23.9750 O   0  0  0  0  0  0  0  0  0  0  0  0
   13.4130   -1.2860   23.5090 C   0  0  0  0  0  0  0  0  0  0  0  0
   13.3420   -2.1470   24.5510 C   0  0  0  0  0  0  0  0  0  0  0  0
   12.7650   -1.6640   25.5660 F   0  0  0  0  0  0  0  0  0  0  0  0
   12.7090   -3.2630   24.2050 F   0  0  0  0  0  0  0  0  0  0  0  0
   14.4490   -2.5530   25.1520 F   0  0  0  0  0  0  0  0  0  0  0  0
   11.2340   -0.0320   23.0620 C   0  0  0  0  0  0  0  0  0  0  0  0
    6.4880   -0.4440   21.1190 N   0  0  0  0  0  0  0  0  0  0  0  0
    6.1540    0.1600   19.8730 C   0  0  0  0  0  0  0  0  0  0  0  0
    4.9900    0.9180   20.0330 C   0  0  0  0  0  0  0  0  0  0  0  0
    4.4850    1.6200   18.9380 C   0  0  0  0  0  0  0  0  0  0  0  0
    5.1640    1.5380   17.7250 C   0  0  0  0  0  0  0  0  0  0  0  0
    6.2950    0.7820   17.6040 N   0  0  0  0  0  0  0  0  0  0  0  0
    6.8010    0.0840   18.6750 C   0  0  0  0  0  0  0  0  0  0  0  0
  1  2  2  0
  2  3  1  0
  3  4  1  0
  4  5  1  0
  5  6  2  0
  6  7  1  0
  7  8  2  0
  8  9  1  0
  9 10  1  0
 10 11  1  0
 11 12  1  0
 12 13  1  0
 13 14  1  0
 13 15  1  0
 13 16  1  0
  5 17  1  0
  9 17  2  0
  2 18  1  0
 18 19  1  0
 19 20  2  0
 20 21  1  0
 21 22  2  0
 22 23  1  0
 19 24  1  0
 23 24  2  0
M  END
