pyridine_urea_2219
     RDKit          3D

 27 29  0  0  0  0  0  0  0  0999 V2000
   13.6320    5.0390   22.0530 C   0  0  0  0  0  0  0  0  0  0  0  0
   12.5960    3.9490   22.3910 C   0  0  0  0  0  0  0  0  0  0  0  0
   13.1960    2.8640   23.1270 O   0  0  0  0  0  0  0  0  0  0  0  0
   12.6320    1.6400   22.9560 C   0  0  0  0  0  0  0  0  0  0  0  0
   13.5440    0.4340   22.6230 C   0  0  0  0  0  0  0  0  0  0  0  0
   12.9990   -0.9760   22.3760 C   0  0  0  0  0  0  0  0  0  0  0  0
   11.6320   -1.0640   22.4700 C   0  0  0  0  0  0  0  0  0  0  0  0
   10.4140   -0.4420   22.7000 C   0  0  1  0  0  0  0  0  0  0  0  0
    9.3120   -0.9760   21.9540 N   0  0  0  0  0  0  0  0  0  0  0  0
    8.4980   -0.0140   21.4170 C   0  0  0  0  0  0  0  0  0  0  0  0
    8.8970    1.1290   21.1580 O   0  0  0  0  0  0  0  0  0  0  0  0
    7.2230   -0.4440   21.1880 N   0  0  0  0  0  0  0  0  0  0  0  0
    6.5150    0.1170   20.1420 C   0  0  0  0  0  0  0  0  0  0  0  0
    5.2990    0.7830   20.2740 C   0  0  0  0  0  0  0  0  0  0  0  0
    4.5900    1.3780   19.2260 C   0  0  0  0  0  0  0  0  0  0  0  0
    5.1360    1.3070   17.9320 C   0  0  0  0  0  0  0  0  0  0  0  0
    6.2890    0.6840   17.6730 N   0  0  0  0  0  0  0  0  0  0  0  0
    6.9520    0.1200   18.6960 C   0  0  0  0  0  0  0  0  0  0  0  0
   10.1300   -0.1330   24.0020 C   0  0  0  0  0  0  0  0  0  0  0  0
    9.7350    0.0120   25.3460 C   0  0  0  0  0  0  0  0  0  0  0  0
    8.9820   -0.7290   26.2540 C   0  0  0  0  0  0  0  0  0  0  0  0
    8.4070   -1.8870   25.9680 C   0  0  0  0  0  0  0  0  0  0  0  0
    8.6250   -2.3540   24.5810 C   0  0  0  0  0  0  0  0  0  0  0  0
    7.9700   -3.8420   23.9940 Cl  0  0  0  0  0  0  0  0  0  0  0  0
    9.4800   -1.4270   23.6960 C   0  0  0  0  0  0  0  0  0  0  0  0
   12.0960    0.2090   22.7170 C   0  0  0  0  0  0  0  0  0  0  0  0
   11.3260    1.3010   23.0300 C   0  0  0  0  0  0  0  0  0  0  0  0
  1  2  1  0
  2  3  1  0
  3  4  1  0
  4  5  2  0
  5  6  1  0
  6  7  2  0
  7  8  1  0
  8  9  1  1
  9 10  1  0
 10 11  2  0
 10 12  1  0
 12 13  1  0
 13 14  2  0
 14 15  1  0
 15 16  2  0
 16 17  1  0
 13 18  1  0
 17 18  2  0
  8 19  1  0
 19 20  2  0
 20 21  1  0
 21 22  2  0
 22 23  1  0
 23 24  1  0
 19 25  1  0
 23 25  2  0
  7 26  1  0
  4 27  1  0
 26 27  2  0
M  END
