pyridine_urea_8103
     RDKit          3D

 24 25  0  0  0  0  0  0  0  0999 V2000
    8.3920    0.7690   21.1350 O   0  0  0  0  0  0  0  0  0  0  0  0
    7.9500   -0.3740   21.1890 C   0  0  0  0  0  0  0  0  0  0  0  0
    6.6520   -0.6880   20.9780 N   0  0  0  0  0  0  0  0  0  0  0  0
    6.1070    0.0600   19.9050 C   0  0  0  0  0  0  0  0  0  0  0  0
    4.7880    0.8450   20.1200 C   0  0  0  0  0  0  0  0  0  0  0  0
    4.3220    1.5680   19.0400 C   0  0  0  0  0  0  0  0  0  0  0  0
    5.1590    1.5100   17.7560 C   0  0  0  0  0  0  0  0  0  0  0  0
    6.3000    0.7970   17.6300 N   0  0  0  0  0  0  0  0  0  0  0  0
    6.7410    0.1010   18.6870 C   0  0  0  0  0  0  0  0  0  0  0  0
    8.6500   -1.4800   21.4530 N   0  0  0  0  0  0  0  0  0  0  0  0
    9.7250   -1.1430   22.2800 C   0  0  0  0  0  0  0  0  0  0  0  0
    9.2790   -0.6950   23.6090 C   0  0  0  0  0  0  0  0  0  0  0  0
   10.3650   -0.3310   24.5280 C   0  0  0  0  0  0  0  0  0  0  0  0
    9.7490    0.1100   26.0540 Cl  0  0  0  0  0  0  0  0  0  0  0  0
   11.8010   -0.4490   23.9460 C   0  0  0  0  0  0  0  0  0  0  0  0
   12.9420   -0.2180   24.5440 O   0  0  0  0  0  0  0  0  0  0  0  0
   13.0570   -1.3430   25.3450 C   0  0  0  0  0  0  0  0  0  0  0  0
   13.1530   -2.6910   24.6860 C   0  0  0  0  0  0  0  0  0  0  0  0
   13.7410   -3.5260   25.5680 F   0  0  0  0  0  0  0  0  0  0  0  0
   11.9190   -3.1790   24.4480 F   0  0  0  0  0  0  0  0  0  0  0  0
   13.8450   -2.7070   23.5410 F   0  0  0  0  0  0  0  0  0  0  0  0
   11.9910   -0.8910   22.6620 C   0  0  0  0  0  0  0  0  0  0  0  0
   13.4950   -1.0750   21.9490 Cl  0  0  0  0  0  0  0  0  0  0  0  0
   10.9910   -1.2350   21.8570 C   0  0  0  0  0  0  0  0  0  0  0  0
  1  2  2  0
  2  3  1  0
  3  4  1  0
  4  5  2  0
  5  6  1  0
  6  7  2  0
  7  8  1  0
  4  9  1  0
  8  9  2  0
  2 10  1  0
 10 11  1  0
 11 12  2  0
 12 13  1  0
 13 14  1  0
 13 15  2  0
 15 16  1  0
 16 17  1  0
 17 18  1  0
 18 19  1  0
 18 20  1  0
 18 21  1  0
 15 22  1  0
 22 23  1  0
 11 24  1  0
 22 24  2  0
M  END
