pyridine_urea_3296
     RDKit          3D

 20 21  0  0  0  0  0  0  0  0999 V2000
   13.6300   -1.5200   20.9100 N   0  0  0  0  0  0  0  0  0  0  0  0
   13.3290   -0.7370   21.9660 C   0  0  0  0  0  0  0  0  0  0  0  0
   14.0770    0.3610   22.4260 O   0  0  0  0  0  0  0  0  0  0  0  0
   12.1140   -1.0020   22.6450 C   0  0  0  0  0  0  0  0  0  0  0  0
   12.1690   -1.0880   24.0090 C   0  0  0  0  0  0  0  0  0  0  0  0
   11.0230   -1.3340   24.7340 C   0  0  0  0  0  0  0  0  0  0  0  0
    9.8090   -1.4830   24.1390 C   0  0  0  0  0  0  0  0  0  0  0  0
    8.6520   -1.7150   24.7740 F   0  0  0  0  0  0  0  0  0  0  0  0
    9.7630   -1.3860   22.6940 C   0  0  0  0  0  0  0  0  0  0  0  0
    8.6070   -1.5090   22.0060 N   0  0  0  0  0  0  0  0  0  0  0  0
    8.0000   -0.4450   21.3350 C   0  0  0  0  0  0  0  0  0  0  0  0
    8.5570    0.6310   21.1510 O   0  0  0  0  0  0  0  0  0  0  0  0
    6.7700   -0.8000   20.9580 N   0  0  0  0  0  0  0  0  0  0  0  0
    6.2050   -0.0510   19.9950 C   0  0  0  0  0  0  0  0  0  0  0  0
    5.0350    0.6880   20.1480 C   0  0  0  0  0  0  0  0  0  0  0  0
    4.5470    1.4240   19.0860 C   0  0  0  0  0  0  0  0  0  0  0  0
    5.2510    1.4000   17.8870 C   0  0  0  0  0  0  0  0  0  0  0  0
    6.3810    0.6930   17.7110 N   0  0  0  0  0  0  0  0  0  0  0  0
    6.8270   -0.0120   18.7650 C   0  0  0  0  0  0  0  0  0  0  0  0
   10.9510   -1.1520   21.9190 C   0  0  0  0  0  0  0  0  0  0  0  0
  1  2  1  0
  2  3  2  0
  2  4  1  0
  4  5  2  0
  5  6  1  0
  6  7  2  0
  7  8  1  0
  7  9  1  0
  9 10  1  0
 10 11  1  0
 11 12  2  0
 11 13  1  0
 13 14  1  0
 14 15  2  0
 15 16  1  0
 16 17  2  0
 17 18  1  0
 14 19  1  0
 18 19  2  0
  4 20  1  0
  9 20  2  0
M  END
