pyridine_urea_13084
     RDKit          3D

 18 18  0  0  0  0  0  0  0  0999 V2000
    7.8610   -2.4200   24.0270 C   0  0  0  0  0  0  0  0  0  0  0  0
    8.5360   -2.7000   22.7180 C   0  0  0  0  0  0  0  0  0  0  0  0
    9.6560   -1.9390   22.3950 C   0  0  1  0  0  0  0  0  0  0  0  0
    9.2960   -0.5340   22.5540 N   0  0  0  0  0  0  0  0  0  0  0  0
    8.6240    0.1790   21.5620 C   0  0  0  0  0  0  0  0  0  0  0  0
    8.9840    1.3010   21.1900 O   0  0  0  0  0  0  0  0  0  0  0  0
    7.4460   -0.5520   21.0510 N   0  0  0  0  0  0  0  0  0  0  0  0
    6.6730    0.0490   20.0780 C   0  0  0  0  0  0  0  0  0  0  0  0
    5.4330    0.8310   20.4920 C   0  0  0  0  0  0  0  0  0  0  0  0
    4.6960    1.4300   19.4730 C   0  0  0  0  0  0  0  0  0  0  0  0
    5.1960    1.2510   18.0390 C   0  0  0  0  0  0  0  0  0  0  0  0
    6.2930    0.5430   17.7310 N   0  0  0  0  0  0  0  0  0  0  0  0
    6.9930   -0.0340   18.7360 C   0  0  0  0  0  0  0  0  0  0  0  0
   10.8440   -2.2030   23.1180 C   0  0  0  0  0  0  0  0  0  0  0  0
   10.9300   -3.1060   24.1420 O   0  0  0  0  0  0  0  0  0  0  0  0
   11.9480   -1.5060   22.7570 N   0  0  0  0  0  0  0  0  0  0  0  0
   12.6160   -1.9730   21.6720 C   0  0  0  0  0  0  0  0  0  0  0  0
   12.7730   -1.0080   23.7140 C   0  0  0  0  0  0  0  0  0  0  0  0
  1  2  1  0
  3  2  1  1
  3  4  1  0
  4  5  1  0
  5  6  2  0
  5  7  1  0
  7  8  1  0
  8  9  2  0
  9 10  1  0
 10 11  2  0
 11 12  1  0
  8 13  1  0
 12 13  2  0
  3 14  1  0
 14 15  2  0
 14 16  1  0
 16 17  1  0
 16 18  1  0
M  END
