pyridine_urea_11732
     RDKit          3D

 26 29  0  0  0  0  0  0  0  0999 V2000
    8.8600   -0.7610   20.9100 O   0  0  0  0  0  0  0  0  0  0  0  0
    7.9030   -0.3850   21.5320 C   0  0  0  0  0  0  0  0  0  0  0  0
    6.6160   -0.5490   21.1730 N   0  0  0  0  0  0  0  0  0  0  0  0
    6.1350    0.0900   20.0370 C   0  0  0  0  0  0  0  0  0  0  0  0
    4.9610    0.8240   20.1400 C   0  0  0  0  0  0  0  0  0  0  0  0
    4.4690    1.4870   19.0240 C   0  0  0  0  0  0  0  0  0  0  0  0
    5.1750    1.3880   17.8450 C   0  0  0  0  0  0  0  0  0  0  0  0
    6.3080    0.6800   17.7170 N   0  0  0  0  0  0  0  0  0  0  0  0
    6.7650    0.0450   18.8090 C   0  0  0  0  0  0  0  0  0  0  0  0
    8.0870    0.3020   22.6830 N   0  0  0  0  0  0  0  0  0  0  0  0
    9.4730    0.6440   22.7750 C   0  0  0  0  0  0  0  0  0  0  0  0
    9.9630    2.0540   23.1000 C   0  0  0  0  0  0  0  0  0  0  0  0
   11.3430    2.2560   23.1380 C   0  0  0  0  0  0  0  0  0  0  0  0
   12.1820    1.1820   22.8880 C   0  0  0  0  0  0  0  0  0  0  0  0
   11.6440   -0.0570   22.5990 C   0  0  0  0  0  0  0  0  0  0  0  0
   12.3490   -1.0710   22.3550 C   0  0  0  0  0  0  0  0  0  0  0  0
   13.0000   -1.6140   23.2840 N   0  0  0  0  0  0  0  0  0  0  0  0
   13.5540   -2.5390   22.6390 C   0  0  0  0  0  0  0  0  0  0  0  0
   14.3930   -3.4020   23.2330 C   0  0  0  0  0  0  0  0  0  0  0  0
   15.1590   -4.6420   22.2490 C   0  0  0  0  0  0  0  0  0  0  0  0
   14.8210   -4.6890   20.9120 C   0  0  0  0  0  0  0  0  0  0  0  0
   15.5140   -5.9000   20.0690 Cl  0  0  0  0  0  0  0  0  0  0  0  0
   13.8970   -3.6720   20.4670 C   0  0  0  0  0  0  0  0  0  0  0  0
   13.3290   -2.6840   21.3150 C   0  0  0  0  0  0  0  0  0  0  0  0
   12.5170   -1.7170   21.1740 N   0  0  0  0  0  0  0  0  0  0  0  0
   10.3430   -0.3330   22.5430 C   0  0  0  0  0  0  0  0  0  0  0  0
  1  2  2  0
  2  3  1  0
  3  4  1  0
  4  5  2  0
  5  6  1  0
  6  7  2  0
  7  8  1  0
  4  9  1  0
  8  9  2  0
  2 10  1  0
 10 11  1  0
 11 12  2  0
 12 13  1  0
 13 14  2  0
 14 15  1  0
 15 16  1  0
 16 17  2  0
 17 18  1  0
 18 19  2  0
 19 20  1  0
 20 21  2  0
 21 22  1  0
 21 23  1  0
 18 24  1  0
 23 24  2  0
 16 25  1  0
 24 25  1  0
 11 26  1  0
 15 26  2  0
M  END
