pyridine_urea_9657
     RDKit          3D

 18 20  0  0  0  0  0  0  0  0999 V2000
    8.8720    0.4860   21.3640 O   0  0  0  0  0  0  0  0  0  0  0  0
    8.2060   -0.5020   21.6110 C   0  0  0  0  0  0  0  0  0  0  0  0
    8.5120   -1.4280   22.6000 N   0  0  0  0  0  0  0  0  0  0  0  0
    9.8720   -1.7280   22.9930 C   0  0  0  0  0  0  0  0  0  0  0  0
   10.8720   -0.9940   22.1460 C   0  0  2  0  0  0  0  0  0  0  0  0
   12.3420   -1.4600   22.2480 C   0  0  0  0  0  0  0  0  0  0  0  0
   13.2470   -0.6170   23.1750 C   0  0  0  0  0  0  0  0  0  0  0  0
   12.4890    0.3880   23.9970 C   0  0  1  0  0  0  0  0  0  0  0  0
   12.4340    1.7200   23.4810 C   0  0  0  0  0  0  0  0  0  0  0  0
   12.0270    0.9290   22.5930 C   0  0  2  0  0  0  0  0  0  0  0  0
   10.7900    0.4420   22.5860 C   0  0  0  0  0  0  0  0  0  0  0  0
    7.0410   -0.8590   20.9810 N   0  0  0  0  0  0  0  0  0  0  0  0
    6.3470   -0.0880   20.0330 C   0  0  0  0  0  0  0  0  0  0  0  0
    5.1650    0.6130   20.2580 C   0  0  0  0  0  0  0  0  0  0  0  0
    4.5770    1.3470   19.2360 C   0  0  0  0  0  0  0  0  0  0  0  0
    5.2410    1.3610   17.9150 C   0  0  0  0  0  0  0  0  0  0  0  0
    6.3780    0.6800   17.7010 N   0  0  0  0  0  0  0  0  0  0  0  0
    6.8780   -0.0090   18.7530 C   0  0  0  0  0  0  0  0  0  0  0  0
  1  2  2  0
  2  3  1  0
  3  4  1  0
  5  4  1  1
  5  6  1  0
  6  7  1  0
  8  7  1  6
  8  9  1  0
  8 10  1  0
 10  9  1  1
  5 11  1  0
 10 11  1  0
  2 12  1  0
 12 13  1  0
 13 14  2  0
 14 15  1  0
 15 16  2  0
 16 17  1  0
 13 18  1  0
 17 18  2  0
M  END
