pyridine_urea_15231
     RDKit          3D

 16 17  0  0  0  0  0  0  0  0999 V2000
    8.9370    1.2290   21.2310 O   0  0  0  0  0  0  0  0  0  0  0  0
    8.3840    0.1770   21.5830 C   0  0  0  0  0  0  0  0  0  0  0  0
    8.8350   -0.5960   22.6210 N   0  0  0  0  0  0  0  0  0  0  0  0
   10.1270   -1.2000   22.4820 C   0  0  0  0  0  0  0  0  0  0  0  0
   11.0120   -0.8610   23.6500 C   0  0  2  0  0  0  0  0  0  0  0  0
   12.0440    0.1310   23.1800 C   0  0  0  0  0  0  0  0  0  0  0  0
   13.1400   -0.6720   22.5800 C   0  0  0  0  0  0  0  0  0  0  0  0
   13.3060   -2.1100   23.5060 S   0  0  0  0  0  0  0  0  0  0  0  0
   11.7850   -1.8990   24.2600 C   0  0  0  0  0  0  0  0  0  0  0  0
    7.2540   -0.3810   21.0440 N   0  0  0  0  0  0  0  0  0  0  0  0
    6.5380    0.1770   19.9950 C   0  0  0  0  0  0  0  0  0  0  0  0
    5.3680    0.8870   20.2740 C   0  0  0  0  0  0  0  0  0  0  0  0
    4.6520    1.4720   19.2330 C   0  0  0  0  0  0  0  0  0  0  0  0
    5.1400    1.3180   17.9550 C   0  0  0  0  0  0  0  0  0  0  0  0
    6.2540    0.6310   17.6630 N   0  0  0  0  0  0  0  0  0  0  0  0
    6.9240    0.0770   18.6860 C   0  0  0  0  0  0  0  0  0  0  0  0
  1  2  2  0
  2  3  1  0
  3  4  1  0
  5  4  1  6
  5  6  1  0
  6  7  1  0
  7  8  1  0
  5  9  1  0
  8  9  1  0
  2 10  1  0
 10 11  1  0
 11 12  2  0
 12 13  1  0
 13 14  2  0
 14 15  1  0
 11 16  1  0
 15 16  2  0
M  END
