pyridine_urea_6439
     RDKit          3D

 18 18  0  0  0  0  0  0  0  0999 V2000
   12.3720    2.2010   22.5890 C   0  0  0  0  0  0  0  0  0  0  0  0
   12.5210    0.7950   22.2740 O   0  0  0  0  0  0  0  0  0  0  0  0
   12.8830    0.1440   23.4580 C   0  0  0  0  0  0  0  0  0  0  0  0
   12.9060    1.2780   23.8110 O   0  0  0  0  0  0  0  0  0  0  0  0
   12.7360   -1.1010   22.5960 C   0  0  1  0  0  0  0  0  0  0  0  0
   13.2430   -2.2360   23.4220 C   0  0  0  0  0  0  0  0  0  0  0  0
   11.3050   -1.5540   22.1570 C   0  0  0  0  0  0  0  0  0  0  0  0
   10.5190   -0.5180   22.9890 C   0  0  0  0  0  0  0  0  0  0  0  0
    9.0670   -0.6550   22.6930 N   0  0  0  0  0  0  0  0  0  0  0  0
    8.4840    0.0680   21.6690 C   0  0  0  0  0  0  0  0  0  0  0  0
    9.0090    1.3310   21.2180 O   0  0  0  0  0  0  0  0  0  0  0  0
    7.2950   -0.5970   21.1560 N   0  0  0  0  0  0  0  0  0  0  0  0
    6.6240    0.0240   20.0170 C   0  0  0  0  0  0  0  0  0  0  0  0
    5.3870    0.8120   20.3310 C   0  0  0  0  0  0  0  0  0  0  0  0
    4.6700    1.4670   19.3280 C   0  0  0  0  0  0  0  0  0  0  0  0
    5.1220    1.3820   18.0090 C   0  0  0  0  0  0  0  0  0  0  0  0
    6.3170    0.6080   17.7190 N   0  0  0  0  0  0  0  0  0  0  0  0
    7.0060   -0.0300   18.7100 C   0  0  0  0  0  0  0  0  0  0  0  0
  1  2  1  0
  2  3  1  0
  3  4  2  0
  3  5  1  0
  5  6  1  1
  5  7  1  0
  7  8  1  0
  8  9  1  0
  9 10  1  0
 10 11  2  0
 10 12  1  0
 12 13  1  0
 13 14  2  0
 14 15  1  0
 15 16  2  0
 16 17  1  0
 13 18  1  0
 17 18  2  0
M  END
