pyridine_urea_13326
     RDKit          3D

 24 24  0  0  0  0  0  0  0  0999 V2000
   14.0170   -2.6610   25.5720 C   0  0  0  0  0  0  0  0  0  0  0  0
   13.4820   -1.5470   24.9000 O   0  0  0  0  0  0  0  0  0  0  0  0
   13.2910   -1.7800   23.5850 C   0  0  0  0  0  0  0  0  0  0  0  0
   13.8020   -2.7560   23.0740 O   0  0  0  0  0  0  0  0  0  0  0  0
   12.4920   -0.9670   22.8110 C   0  0  2  0  0  0  0  0  0  0  0  0
   12.6280    0.3940   23.0310 C   0  0  0  0  0  0  0  0  0  0  0  0
   11.8790    0.8060   24.1040 C   0  0  0  0  0  0  0  0  0  0  0  0
   10.3730    0.5390   24.0480 C   0  0  0  0  0  0  0  0  0  0  0  0
   10.0590   -0.2640   22.9630 C   0  0  0  0  0  0  0  0  0  0  0  0
    8.6330   -0.2910   22.7740 N   0  0  0  0  0  0  0  0  0  0  0  0
    8.2090    0.2960   21.6160 C   0  0  0  0  0  0  0  0  0  0  0  0
    8.8380    1.4820   21.1050 O   0  0  0  0  0  0  0  0  0  0  0  0
    7.1470   -0.3670   21.0500 N   0  0  0  0  0  0  0  0  0  0  0  0
    6.3900    0.2180   20.0420 C   0  0  0  0  0  0  0  0  0  0  0  0
    5.2050    0.9140   20.2500 C   0  0  0  0  0  0  0  0  0  0  0  0
    4.5650    1.4740   19.1480 C   0  0  0  0  0  0  0  0  0  0  0  0
    5.1600    1.2980   17.9080 C   0  0  0  0  0  0  0  0  0  0  0  0
    6.2840    0.6310   17.6680 N   0  0  0  0  0  0  0  0  0  0  0  0
    6.8760    0.1020   18.7480 C   0  0  0  0  0  0  0  0  0  0  0  0
   11.2420   -1.4530   23.1520 C   0  0  0  0  0  0  0  0  0  0  0  0
   10.6830   -1.9740   22.0180 C   0  0  0  0  0  0  0  0  0  0  0  0
   11.5810   -2.4610   21.1610 F   0  0  0  0  0  0  0  0  0  0  0  0
    9.7470   -2.9140   22.2080 F   0  0  0  0  0  0  0  0  0  0  0  0
   10.0230   -1.0230   21.3160 F   0  0  0  0  0  0  0  0  0  0  0  0
  1  2  1  0
  2  3  1  0
  3  4  2  0
  3  5  1  0
  5  6  1  1
  6  7  1  0
  7  8  1  0
  8  9  1  0
  9 10  1  0
 10 11  1  0
 11 12  2  0
 11 13  1  0
 13 14  1  0
 14 15  2  0
 15 16  1  0
 16 17  2  0
 17 18  1  0
 14 19  1  0
 18 19  2  0
  5 20  1  0
 20 21  1  0
 21 22  1  0
 21 23  1  0
 21 24  1  0
M  END
