pyridine_urea_14310
     RDKit          3D

 22 24  0  0  0  0  0  0  0  0999 V2000
    8.5090    1.4750   20.9760 O   0  0  0  0  0  0  0  0  0  0  0  0
    8.1310    0.3860   21.4170 C   0  0  0  0  0  0  0  0  0  0  0  0
    8.8800   -0.2350   22.4440 N   0  0  0  0  0  0  0  0  0  0  0  0
   10.1810    0.1060   22.2330 C   0  0  0  0  0  0  0  0  0  0  0  0
   11.0750   -0.3190   23.1230 C   0  0  0  0  0  0  0  0  0  0  0  0
   10.7080   -1.5340   23.5390 N   0  0  0  0  0  0  0  0  0  0  0  0
   11.1570   -2.3010   24.7180 C   0  0  0  0  0  0  0  0  0  0  0  0
   10.7990   -3.6260   24.4750 C   0  0  0  0  0  0  0  0  0  0  0  0
    9.1290   -3.8620   24.1270 S   0  0  0  0  0  0  0  0  0  0  0  0
    9.1810   -2.9950   22.5980 C   0  0  0  0  0  0  0  0  0  0  0  0
   10.5690   -2.3990   22.4440 C   0  0  0  0  0  0  0  0  0  0  0  0
   12.3290   -0.2950   22.5430 C   0  0  0  0  0  0  0  0  0  0  0  0
   13.0990   -0.3870   23.5520 C   0  0  0  0  0  0  0  0  0  0  0  0
   12.1470   -0.3320   24.5310 C   0  0  0  0  0  0  0  0  0  0  0  0
   11.0910    0.5530   24.2030 C   0  0  0  0  0  0  0  0  0  0  0  0
    7.0390   -0.3200   21.0130 N   0  0  0  0  0  0  0  0  0  0  0  0
    6.3480    0.2340   20.0270 C   0  0  0  0  0  0  0  0  0  0  0  0
    5.1530    0.9370   20.1740 C   0  0  0  0  0  0  0  0  0  0  0  0
    4.5560    1.5030   19.0500 C   0  0  0  0  0  0  0  0  0  0  0  0
    5.1490    1.3620   17.8100 C   0  0  0  0  0  0  0  0  0  0  0  0
    6.2870    0.6820   17.6240 N   0  0  0  0  0  0  0  0  0  0  0  0
    6.8910    0.1080   18.7620 C   0  0  0  0  0  0  0  0  0  0  0  0
  1  2  2  0
  2  3  1  0
  3  4  1  0
  5  4  1  0
  5  6  1  0
  6  7  1  0
  7  8  1  0
  8  9  1  0
  9 10  1  0
  6 11  1  0
 10 11  1  0
  5 12  1  0
 12 13  1  0
 13 14  1  0
  5 15  1  0
 14 15  1  0
  2 16  1  0
 16 17  1  0
 17 18  2  0
 18 19  1  0
 19 20  2  0
 20 21  1  0
 17 22  1  0
 21 22  2  0
M  END
