pyridine_urea_4999
     RDKit          3D

 21 23  0  0  0  0  0  0  0  0999 V2000
    8.9310    0.9330   21.3280 O   0  0  0  0  0  0  0  0  0  0  0  0
    8.4720   -0.1630   21.6080 C   0  0  0  0  0  0  0  0  0  0  0  0
    8.9890   -1.0340   22.5450 N   0  0  0  0  0  0  0  0  0  0  0  0
    8.6600   -2.3950   22.7480 C   0  0  0  0  0  0  0  0  0  0  0  0
    7.4880   -2.6640   23.4600 C   0  0  0  0  0  0  0  0  0  0  0  0
    6.3170   -3.1880   22.8880 C   0  0  0  0  0  0  0  0  0  0  0  0
    5.3600   -3.3120   23.9630 N   0  0  0  0  0  0  0  0  0  0  0  0
    4.0530   -3.7760   23.9340 C   0  0  0  0  0  0  0  0  0  0  0  0
    3.2330   -3.8090   25.2210 C   0  0  0  0  0  0  0  0  0  0  0  0
    1.6080   -4.3700   25.2570 Cl  0  0  0  0  0  0  0  0  0  0  0  0
    3.8840   -3.3580   26.3540 C   0  0  0  0  0  0  0  0  0  0  0  0
    5.3290   -2.8560   26.3320 C   0  0  0  0  0  0  0  0  0  0  0  0
    6.0150   -2.8540   25.1110 C   0  0  0  0  0  0  0  0  0  0  0  0
    7.3010   -2.4560   24.8340 N   0  0  0  0  0  0  0  0  0  0  0  0
    7.3330   -0.6580   21.0010 N   0  0  0  0  0  0  0  0  0  0  0  0
    6.5660   -0.0020   20.0900 C   0  0  0  0  0  0  0  0  0  0  0  0
    5.4100    0.7360   20.3900 C   0  0  0  0  0  0  0  0  0  0  0  0
    4.7200    1.3720   19.3500 C   0  0  0  0  0  0  0  0  0  0  0  0
    5.1870    1.2610   18.0520 C   0  0  0  0  0  0  0  0  0  0  0  0
    6.2840    0.5530   17.7430 N   0  0  0  0  0  0  0  0  0  0  0  0
    6.9520   -0.0650   18.7580 C   0  0  0  0  0  0  0  0  0  0  0  0
  1  2  2  0
  2  3  1  0
  3  4  1  0
  4  5  1  0
  5  6  2  0
  6  7  1  0
  7  8  1  0
  8  9  2  0
  9 10  1  0
  9 11  1  0
 11 12  2  0
  7 13  1  0
 12 13  1  0
  5 14  1  0
 13 14  2  0
  2 15  1  0
 15 16  1  0
 16 17  2  0
 17 18  1  0
 18 19  2  0
 19 20  1  0
 16 21  1  0
 20 21  2  0
M  END
