pyridine_urea_13341
     RDKit          3D

 24 26  0  0  0  0  0  0  0  0999 V2000
   12.7890   -2.1010   21.4860 C   0  0  0  0  0  0  0  0  0  0  0  0
   13.7710   -1.2660   22.0970 O   0  0  0  0  0  0  0  0  0  0  0  0
   13.4960    0.0110   22.5330 C   0  0  0  0  0  0  0  0  0  0  0  0
   14.3510    0.8380   22.6120 O   0  0  0  0  0  0  0  0  0  0  0  0
   12.2900    0.4300   22.8980 C   0  0  0  0  0  0  0  0  0  0  0  0
   11.3770   -0.3800   23.1890 C   0  0  0  0  0  0  0  0  0  0  0  0
   10.0670   -0.0900   23.5290 C   0  0  0  0  0  0  0  0  0  0  0  0
    9.0710   -0.5350   22.5770 N   0  0  0  0  0  0  0  0  0  0  0  0
    8.4930    0.2060   21.5540 C   0  0  0  0  0  0  0  0  0  0  0  0
    8.8400    1.3220   21.1400 O   0  0  0  0  0  0  0  0  0  0  0  0
    7.3930   -0.4330   20.9920 N   0  0  0  0  0  0  0  0  0  0  0  0
    6.5740    0.1640   20.0340 C   0  0  0  0  0  0  0  0  0  0  0  0
    5.2870    0.9410   20.2910 C   0  0  0  0  0  0  0  0  0  0  0  0
    4.5960    1.4960   19.2260 C   0  0  0  0  0  0  0  0  0  0  0  0
    5.1240    1.3080   17.9630 C   0  0  0  0  0  0  0  0  0  0  0  0
    6.2510    0.6180   17.6950 N   0  0  0  0  0  0  0  0  0  0  0  0
    6.9380    0.0690   18.7140 C   0  0  0  0  0  0  0  0  0  0  0  0
   12.1110   -1.8170   22.9930 N   0  0  0  0  0  0  0  0  0  0  0  0
   11.0970   -1.8690   23.2870 N   0  0  0  0  0  0  0  0  0  0  0  0
   11.2430   -0.6950   23.2350 C   0  0  0  0  0  0  0  0  0  0  0  0
   10.4400    0.3400   23.5230 C   0  0  0  0  0  0  0  0  0  0  0  0
    9.4900   -0.3090   24.3970 C   0  0  0  0  0  0  0  0  0  0  0  0
    9.0660   -1.6880   24.0190 C   0  0  0  0  0  0  0  0  0  0  0  0
   10.0930   -2.6230   23.5990 C   0  0  0  0  0  0  0  0  0  0  0  0
  1  2  1  0
  2  3  1  0
  3  4  2  0
  3  5  1  0
  5  6  1  0
  6  7  1  0
  7  8  1  0
  8  9  1  0
  9 10  2  0
  9 11  1  0
 11 12  1  0
 12 13  2  0
 13 14  1  0
 14 15  2  0
 15 16  1  0
 12 17  1  0
 16 17  2  0
  6 18  2  0
 18 19  1  0
  5 20  2  0
 19 20  1  0
 20 21  1  0
 21 22  1  0
 22 23  1  0
 19 24  1  0
 23 24  1  0
M  END
