pyridine_urea_14072
     RDKit          3D

 23 25  0  0  0  0  0  0  0  0999 V2000
    8.8290    1.4570   21.0610 O   0  0  0  0  0  0  0  0  0  0  0  0
    8.5390    0.3200   21.4210 C   0  0  0  0  0  0  0  0  0  0  0  0
    9.3110   -0.3580   22.3250 N   0  0  0  0  0  0  0  0  0  0  0  0
   10.0060    0.4270   23.3410 C   0  0  0  0  0  0  0  0  0  0  0  0
   11.0450    1.4860   22.8750 C   0  0  0  0  0  0  0  0  0  0  0  0
   12.1560    1.0310   22.6120 O   0  0  0  0  0  0  0  0  0  0  0  0
   10.6570    2.9040   22.8280 N   0  0  0  0  0  0  0  0  0  0  0  0
   11.2570    3.9650   22.1870 C   0  0  0  0  0  0  0  0  0  0  0  0
   12.4460    4.1730   22.8470 C   0  0  0  0  0  0  0  0  0  0  0  0
   12.1300    4.9680   23.9800 O   0  0  0  0  0  0  0  0  0  0  0  0
   10.8800    4.5390   24.4990 C   0  0  0  0  0  0  0  0  0  0  0  0
   10.4700    5.3000   25.6980 C   0  0  0  0  0  0  0  0  0  0  0  0
    9.3300    5.1160   26.4150 C   0  0  0  0  0  0  0  0  0  0  0  0
    8.5270    3.9830   25.7770 C   0  0  0  0  0  0  0  0  0  0  0  0
    8.9240    3.2730   24.6450 C   0  0  0  0  0  0  0  0  0  0  0  0
   10.0990    3.5250   23.9810 C   0  0  0  0  0  0  0  0  0  0  0  0
    7.4120   -0.3350   20.9570 N   0  0  0  0  0  0  0  0  0  0  0  0
    6.5420    0.1920   20.0410 C   0  0  0  0  0  0  0  0  0  0  0  0
    5.2770    0.8260   20.6810 C   0  0  0  0  0  0  0  0  0  0  0  0
    4.6490    1.2960   19.3810 C   0  0  0  0  0  0  0  0  0  0  0  0
    5.1340    1.1590   17.9890 C   0  0  0  0  0  0  0  0  0  0  0  0
    6.2340    0.5690   17.6630 N   0  0  0  0  0  0  0  0  0  0  0  0
    6.8970    0.1080   18.7030 C   0  0  0  0  0  0  0  0  0  0  0  0
  1  2  2  0
  2  3  1  0
  3  4  1  0
  4  5  1  0
  5  6  2  0
  5  7  1  0
  7  8  1  0
  8  9  1  0
  9 10  1  0
 10 11  1  0
 11 12  2  0
 12 13  1  0
 13 14  2  0
 14 15  1  0
  7 16  1  0
 11 16  1  0
 15 16  2  0
  2 17  1  0
 17 18  1  0
 18 19  2  0
 19 20  1  0
 20 21  2  0
 21 22  1  0
 18 23  1  0
 22 23  2  0
M  END
