pyridine_urea_395
     RDKit          3D

 26 28  0  0  0  0  0  0  0  0999 V2000
    2.8320    2.2260   23.5840 N   0  0  0  0  0  0  0  0  0  0  0  0
    3.6170    3.0970   22.8850 C   0  0  0  0  0  0  0  0  0  0  0  0
    4.1290    4.0660   23.4360 O   0  0  0  0  0  0  0  0  0  0  0  0
    3.8260    2.8260   21.3990 C   0  0  0  0  0  0  0  0  0  0  0  0
    5.0620    2.6010   20.8390 C   0  0  0  0  0  0  0  0  0  0  0  0
    5.1380    2.3520   19.4310 C   0  0  0  0  0  0  0  0  0  0  0  0
    4.0100    2.3290   18.5400 C   0  0  0  0  0  0  0  0  0  0  0  0
    2.6910    2.5640   19.0110 C   0  0  0  0  0  0  0  0  0  0  0  0
    2.8770    2.7690   20.4270 C   0  0  0  0  0  0  0  0  0  0  0  0
    3.9270    2.5140   19.5170 O   0  0  0  0  0  0  0  0  0  0  0  0
    4.8930    1.5200   19.6310 C   0  0  0  0  0  0  0  0  0  0  0  0
    4.8850    0.9420   20.8630 C   0  0  0  0  0  0  0  0  0  0  0  0
    5.8240    0.0270   21.1440 C   0  0  0  0  0  0  0  0  0  0  0  0
    6.7590   -0.3090   20.2000 C   0  0  0  0  0  0  0  0  0  0  0  0
    7.6790   -1.2010   20.6960 N   0  0  0  0  0  0  0  0  0  0  0  0
    8.7200   -0.5480   21.4850 C   0  0  0  0  0  0  0  0  0  0  0  0
    8.9700    0.6440   21.3530 O   0  0  0  0  0  0  0  0  0  0  0  0
    9.3640   -1.3290   22.3560 N   0  0  0  0  0  0  0  0  0  0  0  0
   10.6190   -0.8770   22.5150 C   0  0  0  0  0  0  0  0  0  0  0  0
   10.7710    0.4590   22.8930 C   0  0  0  0  0  0  0  0  0  0  0  0
   12.0440    0.9930   23.0520 C   0  0  0  0  0  0  0  0  0  0  0  0
   13.1400    0.1920   22.8440 C   0  0  0  0  0  0  0  0  0  0  0  0
   13.0660   -1.0990   22.4870 N   0  0  0  0  0  0  0  0  0  0  0  0
   11.7770   -1.6170   22.3230 C   0  0  0  0  0  0  0  0  0  0  0  0
    6.7060    0.2680   18.9360 C   0  0  0  0  0  0  0  0  0  0  0  0
    5.7790    1.1890   18.6180 N   0  0  0  0  0  0  0  0  0  0  0  0
  1  2  1  0
  2  3  2  0
  2  4  1  0
  4  5  2  0
  5  6  1  0
  6  7  2  0
  7  8  1  0
  4  9  1  0
  8  9  2  0
  9 10  1  0
 10 11  1  0
 11 12  2  0
 12 13  1  0
 13 14  2  0
 14 15  1  0
 15 16  1  0
 16 17  2  0
 16 18  1  0
 18 19  1  0
 19 20  2  0
 20 21  1  0
 21 22  2  0
 22 23  1  0
 19 24  1  0
 23 24  2  0
 14 25  1  0
 11 26  1  0
 25 26  2  0
M  END
