pyridine_urea_5137
     RDKit          3D

 20 22  0  0  0  0  0  0  0  0999 V2000
    8.9850    0.7630   21.4770 O   0  0  0  0  0  0  0  0  0  0  0  0
    8.4020   -0.3040   21.5840 C   0  0  0  0  0  0  0  0  0  0  0  0
    7.1330   -0.5950   21.1340 N   0  0  0  0  0  0  0  0  0  0  0  0
    6.4930    0.0430   20.0620 C   0  0  0  0  0  0  0  0  0  0  0  0
    5.3300    0.7780   20.3120 C   0  0  0  0  0  0  0  0  0  0  0  0
    4.6770    1.4330   19.2610 C   0  0  0  0  0  0  0  0  0  0  0  0
    5.2180    1.3260   17.9990 C   0  0  0  0  0  0  0  0  0  0  0  0
    6.3290    0.6210   17.7370 N   0  0  0  0  0  0  0  0  0  0  0  0
    6.9400   -0.0050   18.7640 C   0  0  0  0  0  0  0  0  0  0  0  0
    8.9530   -1.4130   22.1830 N   0  0  0  0  0  0  0  0  0  0  0  0
    9.9590   -1.3300   23.2300 C   0  0  1  0  0  0  0  0  0  0  0  0
   11.1130   -2.3770   22.9920 C   0  0  0  0  0  0  0  0  0  0  0  0
   12.4530   -1.7850   23.1410 O   0  0  0  0  0  0  0  0  0  0  0  0
   12.0240   -0.5250   23.0730 C   0  0  0  0  0  0  0  0  0  0  0  0
   12.2060    0.7400   22.9690 C   0  0  0  0  0  0  0  0  0  0  0  0
   13.4470    0.7860   22.8880 C   0  0  0  0  0  0  0  0  0  0  0  0
   12.4040    1.7920   22.8750 C   0  0  0  0  0  0  0  0  0  0  0  0
   12.6490    3.5020   22.7220 Cl  0  0  0  0  0  0  0  0  0  0  0  0
   11.0040    1.2290   22.9950 C   0  0  0  0  0  0  0  0  0  0  0  0
   10.8350   -0.1900   23.1080 C   0  0  0  0  0  0  0  0  0  0  0  0
  1  2  2  0
  2  3  1  0
  3  4  1  0
  4  5  2  0
  5  6  1  0
  6  7  2  0
  7  8  1  0
  4  9  1  0
  8  9  2  0
  2 10  1  0
 11 10  1  6
 11 12  1  0
 12 13  1  0
 13 14  1  0
 14 15  1  0
 15 16  2  0
 16 17  1  0
 17 18  1  0
 17 19  2  0
 11 20  1  0
 14 20  2  0
 19 20  1  0
M  END
