pyridine_urea_254
     RDKit          3D

 29 31  0  0  0  0  0  0  0  0999 V2000
   12.9030    1.1170   23.0560 C   0  0  0  0  0  0  0  0  0  0  0  0
   12.3580    0.0720   23.1040 C   0  0  0  0  0  0  0  0  0  0  0  0
   11.1940   -0.8970   23.1270 C   0  0  2  0  0  0  0  0  0  0  0  0
   11.5240   -2.0280   22.2060 C   0  0  0  0  0  0  0  0  0  0  0  0
    9.9260   -0.1790   22.5570 C   0  0  1  0  0  0  0  0  0  0  0  0
    8.6540   -0.8530   22.5980 N   0  0  0  0  0  0  0  0  0  0  0  0
    8.0140   -0.8080   21.3940 C   0  0  0  0  0  0  0  0  0  0  0  0
    8.6290   -1.0250   20.4300 O   0  0  0  0  0  0  0  0  0  0  0  0
    6.6890   -0.4920   21.3720 N   0  0  0  0  0  0  0  0  0  0  0  0
    6.0750    0.1650   20.2760 C   0  0  0  0  0  0  0  0  0  0  0  0
    4.9130    0.8550   20.4550 C   0  0  0  0  0  0  0  0  0  0  0  0
    4.5380    1.4380   19.1100 C   0  0  0  0  0  0  0  0  0  0  0  0
    5.2500    1.2830   17.9540 C   0  0  0  0  0  0  0  0  0  0  0  0
    6.3660    0.5930   17.8650 N   0  0  0  0  0  0  0  0  0  0  0  0
    6.7460    0.0520   19.0330 C   0  0  0  0  0  0  0  0  0  0  0  0
    9.6640    1.2300   23.1960 C   0  0  0  0  0  0  0  0  0  0  0  0
    8.8400    1.3410   24.3660 O   0  0  0  0  0  0  0  0  0  0  0  0
   10.2290    2.2390   22.4410 N   0  0  0  0  0  0  0  0  0  0  0  0
   10.8660    3.4240   22.8870 C   0  0  0  0  0  0  0  0  0  0  0  0
   12.0310    4.0700   22.2220 C   0  0  0  0  0  0  0  0  0  0  0  0
   12.5960    5.3160   22.7970 C   0  0  0  0  0  0  0  0  0  0  0  0
   12.0370    5.8750   23.9490 C   0  0  0  0  0  0  0  0  0  0  0  0
   10.9290    5.2760   24.5920 C   0  0  0  0  0  0  0  0  0  0  0  0
   10.4030    5.8350   25.7040 N   0  0  0  0  0  0  0  0  0  0  0  0
    9.4240    5.1520   26.3650 C   0  0  0  0  0  0  0  0  0  0  0  0
    9.5190    5.4620   27.7140 C   0  0  0  0  0  0  0  0  0  0  0  0
   10.5940    6.3260   27.8770 C   0  0  0  0  0  0  0  0  0  0  0  0
   11.1760    6.6430   26.6600 C   0  0  0  0  0  0  0  0  0  0  0  0
   10.3800    4.0760   24.0440 C   0  0  0  0  0  0  0  0  0  0  0  0
  1  2  1  0
  2  3  1  0
  3  4  1  6
  3  5  1  0
  5  6  1  1
  6  7  1  0
  7  8  2  0
  7  9  1  0
  9 10  1  0
 10 11  2  0
 11 12  1  0
 12 13  2  0
 13 14  1  0
 10 15  1  0
 14 15  2  0
  5 16  1  0
 16 17  2  0
 16 18  1  0
 18 19  1  0
 19 20  2  0
 20 21  1  0
 21 22  2  0
 22 23  1  0
 23 24  1  0
 24 25  1  0
 25 26  1  0
 26 27  1  0
 24 28  1  0
 27 28  1  0
 19 29  1  0
 23 29  2  0
M  END
