pyridine_urea_8035
     RDKit          3D

 24 26  0  0  0  0  0  0  0  0999 V2000
    8.4420    0.6320   21.1600 O   0  0  0  0  0  0  0  0  0  0  0  0
    8.2030   -0.5560   21.3370 C   0  0  0  0  0  0  0  0  0  0  0  0
    6.9810   -1.0590   20.9810 N   0  0  0  0  0  0  0  0  0  0  0  0
    6.3320   -0.2370   19.9780 C   0  0  0  0  0  0  0  0  0  0  0  0
    5.0010    0.5170   20.2960 C   0  0  0  0  0  0  0  0  0  0  0  0
    4.4530    1.2960   19.2810 C   0  0  0  0  0  0  0  0  0  0  0  0
    5.2170    1.3370   17.9480 C   0  0  0  0  0  0  0  0  0  0  0  0
    6.3650    0.6600   17.7310 N   0  0  0  0  0  0  0  0  0  0  0  0
    6.8840   -0.0930   18.7250 C   0  0  0  0  0  0  0  0  0  0  0  0
    9.1000   -1.4520   21.8720 N   0  0  0  0  0  0  0  0  0  0  0  0
   10.2560   -0.6640   22.2140 C   0  0  1  0  0  0  0  0  0  0  0  0
   10.2350   -0.2430   23.6290 C   0  0  0  0  0  0  0  0  0  0  0  0
   11.6510   -0.1090   23.3130 C   0  0  2  0  0  0  0  0  0  0  0  0
   11.5870    1.2740   22.7480 N   0  0  0  0  0  0  0  0  0  0  0  0
   10.3170    1.9360   22.8300 C   0  0  0  0  0  0  0  0  0  0  0  0
   10.2480    3.3340   23.4270 C   0  0  0  0  0  0  0  0  0  0  0  0
   11.2820    4.0710   22.6410 C   0  0  0  0  0  0  0  0  0  0  0  0
   11.5160    5.3660   23.1190 C   0  0  0  0  0  0  0  0  0  0  0  0
   10.4380    6.1850   22.9680 F   0  0  0  0  0  0  0  0  0  0  0  0
   12.5480    5.9840   22.4790 F   0  0  0  0  0  0  0  0  0  0  0  0
   11.8110    5.4270   24.4470 F   0  0  0  0  0  0  0  0  0  0  0  0
   12.6410    3.3950   22.7110 C   0  0  0  0  0  0  0  0  0  0  0  0
   12.7000    1.9940   23.0120 C   0  0  0  0  0  0  0  0  0  0  0  0
   11.7320   -1.1860   22.3830 C   0  0  0  0  0  0  0  0  0  0  0  0
  1  2  2  0
  2  3  1  0
  3  4  1  0
  4  5  2  0
  5  6  1  0
  6  7  2  0
  7  8  1  0
  4  9  1  0
  8  9  2  0
  2 10  1  0
 11 10  1  1
 11 12  1  0
 12 13  1  0
 13 14  1  6
 14 15  1  0
 15 16  1  0
 16 17  1  0
 17 18  1  0
 18 19  1  0
 18 20  1  0
 18 21  1  0
 17 22  1  0
 14 23  1  0
 22 23  1  0
 11 24  1  0
 13 24  1  0
M  END
