pyridine_urea_738
     RDKit          3D

 23 25  0  0  0  0  0  0  0  0999 V2000
    8.9940    0.8630   21.4640 O   0  0  0  0  0  0  0  0  0  0  0  0
    8.6160   -0.2860   21.6470 C   0  0  0  0  0  0  0  0  0  0  0  0
    7.4400   -0.7850   21.0670 N   0  0  0  0  0  0  0  0  0  0  0  0
    6.6160   -0.0920   20.1350 C   0  0  0  0  0  0  0  0  0  0  0  0
    5.4500    0.6240   20.4380 C   0  0  0  0  0  0  0  0  0  0  0  0
    4.7370    1.2740   19.4200 C   0  0  0  0  0  0  0  0  0  0  0  0
    5.2090    1.1910   18.1270 C   0  0  0  0  0  0  0  0  0  0  0  0
    6.3150    0.5100   17.7980 N   0  0  0  0  0  0  0  0  0  0  0  0
    6.9830   -0.1080   18.7970 C   0  0  0  0  0  0  0  0  0  0  0  0
    9.3180   -1.2210   22.4540 N   0  0  0  0  0  0  0  0  0  0  0  0
   10.5550   -0.9310   23.1640 C   0  0  1  0  0  0  0  0  0  0  0  0
   11.3770   -0.3720   22.4040 C   0  0  0  0  0  0  0  0  0  0  0  0
   12.0350    0.2140   23.2970 C   0  0  0  0  0  0  0  0  0  0  0  0
   11.2540    1.0200   24.1280 C   0  0  0  0  0  0  0  0  0  0  0  0
   12.4240    1.0240   23.5800 C   0  0  0  0  0  0  0  0  0  0  0  0
   12.3710   -0.3120   22.7970 C   0  0  0  0  0  0  0  0  0  0  0  0
   11.1360   -1.2460   22.7900 C   0  0  0  0  0  0  0  0  0  0  0  0
   11.2910   -2.2710   22.1040 O   0  0  0  0  0  0  0  0  0  0  0  0
   12.6630   -2.4420   21.6900 C   0  0  0  0  0  0  0  0  0  0  0  0
   13.3870   -2.9070   22.7390 F   0  0  0  0  0  0  0  0  0  0  0  0
   12.7620   -3.3340   20.6860 F   0  0  0  0  0  0  0  0  0  0  0  0
    9.8240   -0.9940   23.5390 C   0  0  0  0  0  0  0  0  0  0  0  0
   10.0930    0.1580   24.1370 C   0  0  0  0  0  0  0  0  0  0  0  0
  1  2  2  0
  2  3  1  0
  3  4  1  0
  4  5  2  0
  5  6  1  0
  6  7  2  0
  7  8  1  0
  4  9  1  0
  8  9  2  0
  2 10  1  0
 11 10  1  6
 11 12  1  0
 12 13  1  0
 13 14  1  0
 14 15  1  0
 15 16  2  0
 16 17  1  0
 17 18  1  0
 18 19  1  0
 19 20  1  0
 19 21  1  0
 17 22  2  0
 11 23  1  0
 14 23  2  0
 22 23  1  0
M  END
