pyridine_urea_6184
     RDKit          3D

 24 26  0  0  0  0  0  0  0  0999 V2000
   10.0460   -3.1110   23.6810 C   0  0  0  0  0  0  0  0  0  0  0  0
   11.4190   -3.5030   23.8400 O   0  0  0  0  0  0  0  0  0  0  0  0
   12.0880   -2.4550   23.2350 C   0  0  0  0  0  0  0  0  0  0  0  0
   12.9370   -2.4370   21.9960 C   0  0  0  0  0  0  0  0  0  0  0  0
   13.4390   -1.1780   21.6310 C   0  0  0  0  0  0  0  0  0  0  0  0
   13.1030   -0.1460   22.4270 C   0  0  0  0  0  0  0  0  0  0  0  0
   12.3000    0.1360   23.6830 C   0  0  0  0  0  0  0  0  0  0  0  0
   12.8160    1.3970   23.2670 C   0  0  0  0  0  0  0  0  0  0  0  0
   11.8230    1.7710   22.9150 C   0  0  0  0  0  0  0  0  0  0  0  0
   10.6940    1.0730   22.9300 C   0  0  0  0  0  0  0  0  0  0  0  0
   10.1460   -0.1830   23.2710 C   0  0  0  0  0  0  0  0  0  0  0  0
    8.7970   -0.4230   22.7390 N   0  0  0  0  0  0  0  0  0  0  0  0
    8.3240    0.2680   21.5420 C   0  0  0  0  0  0  0  0  0  0  0  0
    8.8740    1.4290   21.0910 O   0  0  0  0  0  0  0  0  0  0  0  0
    7.2620   -0.3930   20.9720 N   0  0  0  0  0  0  0  0  0  0  0  0
    6.4590    0.2050   20.0040 C   0  0  0  0  0  0  0  0  0  0  0  0
    5.1930    0.8860   20.5740 C   0  0  0  0  0  0  0  0  0  0  0  0
    4.6310    1.4210   19.2760 C   0  0  0  0  0  0  0  0  0  0  0  0
    5.1790    1.2900   17.9100 C   0  0  0  0  0  0  0  0  0  0  0  0
    6.2730    0.6540   17.6290 N   0  0  0  0  0  0  0  0  0  0  0  0
    6.8770    0.1340   18.6840 C   0  0  0  0  0  0  0  0  0  0  0  0
   10.4470    2.1390   22.4870 O   0  0  0  0  0  0  0  0  0  0  0  0
   11.9920    2.5580   22.6450 N   0  0  0  0  0  0  0  0  0  0  0  0
   11.8870   -1.1610   23.9290 C   0  0  0  0  0  0  0  0  0  0  0  0
  1  2  1  0
  2  3  1  0
  3  4  2  0
  4  5  1  0
  5  6  2  0
  6  7  1  0
  7  8  1  0
  8  9  1  0
  9 10  2  0
 10 11  1  0
 11 12  1  0
 12 13  1  0
 13 14  2  0
 13 15  1  0
 15 16  1  0
 16 17  2  0
 17 18  1  0
 18 19  2  0
 19 20  1  0
 16 21  1  0
 20 21  2  0
 10 22  1  0
  8 23  2  0
 22 23  1  0
  3 24  1  0
  7 24  2  0
M  END
