pyridine_urea_1746
     RDKit          3D

 18 19  0  0  0  0  0  0  0  0999 V2000
    8.9850    1.2140   21.2140 O   0  0  0  0  0  0  0  0  0  0  0  0
    8.5260    0.1150   21.5560 C   0  0  0  0  0  0  0  0  0  0  0  0
    9.0880   -0.7700   22.4510 N   0  0  0  0  0  0  0  0  0  0  0  0
    9.1240   -2.1720   22.3140 C   0  0  0  0  0  0  0  0  0  0  0  0
    8.0350   -2.9070   22.8080 C   0  0  0  0  0  0  0  0  0  0  0  0
    6.7500   -2.7360   22.3090 C   0  0  0  0  0  0  0  0  0  0  0  0
    5.7290   -3.4840   22.8400 C   0  0  0  0  0  0  0  0  0  0  0  0
    5.8640   -4.3890   23.8220 N   0  0  0  0  0  0  0  0  0  0  0  0
    7.1220   -4.5750   24.3270 C   0  0  0  0  0  0  0  0  0  0  0  0
    7.2880   -5.4750   25.3160 F   0  0  0  0  0  0  0  0  0  0  0  0
    8.2210   -3.8500   23.8380 C   0  0  0  0  0  0  0  0  0  0  0  0
    7.3370   -0.3710   21.0730 N   0  0  0  0  0  0  0  0  0  0  0  0
    6.6220    0.1640   20.0640 C   0  0  0  0  0  0  0  0  0  0  0  0
    5.4840    0.8980   20.3750 C   0  0  0  0  0  0  0  0  0  0  0  0
    4.7510    1.4660   19.3380 C   0  0  0  0  0  0  0  0  0  0  0  0
    5.1700    1.2860   18.0380 C   0  0  0  0  0  0  0  0  0  0  0  0
    6.2560    0.5770   17.7130 N   0  0  0  0  0  0  0  0  0  0  0  0
    6.9530    0.0320   18.7310 C   0  0  0  0  0  0  0  0  0  0  0  0
  1  2  2  0
  2  3  1  0
  3  4  1  0
  4  5  1  0
  5  6  2  0
  6  7  1  0
  7  8  2  0
  8  9  1  0
  9 10  1  0
  5 11  1  0
  9 11  2  0
  2 12  1  0
 12 13  1  0
 13 14  2  0
 14 15  1  0
 15 16  2  0
 16 17  1  0
 13 18  1  0
 17 18  2  0
M  END
