pyridine_urea_1615
     RDKit          3D

 19 20  0  0  0  0  0  0  0  0999 V2000
   12.5280   -2.1710   21.4980 C   0  0  0  0  0  0  0  0  0  0  0  0
   11.7690   -1.5780   22.6500 C   0  0  2  0  0  0  0  0  0  0  0  0
   10.3480   -1.6070   22.7100 C   0  0  0  0  0  0  0  0  0  0  0  0
    9.5480   -1.2580   21.5750 N   0  0  0  0  0  0  0  0  0  0  0  0
    8.6660   -0.1940   21.4360 C   0  0  0  0  0  0  0  0  0  0  0  0
    8.9790    0.9770   21.5620 O   0  0  0  0  0  0  0  0  0  0  0  0
    7.3800   -0.5990   21.0910 N   0  0  0  0  0  0  0  0  0  0  0  0
    6.6120    0.0170   20.0810 C   0  0  0  0  0  0  0  0  0  0  0  0
    5.4540    0.7160   20.4610 C   0  0  0  0  0  0  0  0  0  0  0  0
    4.6860    1.3520   19.4860 C   0  0  0  0  0  0  0  0  0  0  0  0
    5.1670    1.2390   18.0420 C   0  0  0  0  0  0  0  0  0  0  0  0
    6.2690    0.5590   17.7260 N   0  0  0  0  0  0  0  0  0  0  0  0
    6.9540   -0.0290   18.7340 C   0  0  0  0  0  0  0  0  0  0  0  0
   12.4080   -0.1920   22.8220 C   0  0  0  0  0  0  0  0  0  0  0  0
   12.6680    1.1480   23.0970 C   0  0  0  0  0  0  0  0  0  0  0  0
   11.7450    1.9470   23.5870 C   0  0  0  0  0  0  0  0  0  0  0  0
   10.5840    2.1980   24.0070 N   0  0  0  0  0  0  0  0  0  0  0  0
   10.1550    0.9670   23.8300 C   0  0  0  0  0  0  0  0  0  0  0  0
   10.9960   -0.2100   23.2630 C   0  0  0  0  0  0  0  0  0  0  0  0
  2  1  1  6
  2  3  1  0
  3  4  1  0
  4  5  1  0
  5  6  2  0
  5  7  1  0
  7  8  1  0
  8  9  2  0
  9 10  1  0
 10 11  2  0
 11 12  1  0
  8 13  1  0
 12 13  2  0
  2 14  1  0
 14 15  2  0
 15 16  1  0
 16 17  2  0
 17 18  1  0
 14 19  1  0
 18 19  2  0
M  END
