pyridine_urea_11015
     RDKit          3D

 19 21  0  0  0  0  0  0  0  0999 V2000
    8.8110    1.2630   21.0500 O   0  0  0  0  0  0  0  0  0  0  0  0
    8.4340    0.1930   21.5390 C   0  0  0  0  0  0  0  0  0  0  0  0
    7.1620   -0.4140   21.1600 N   0  0  0  0  0  0  0  0  0  0  0  0
    6.4770    0.1430   20.0970 C   0  0  0  0  0  0  0  0  0  0  0  0
    5.2980    0.8570   20.3260 C   0  0  0  0  0  0  0  0  0  0  0  0
    4.6390    1.4270   19.2410 C   0  0  0  0  0  0  0  0  0  0  0  0
    5.1770    1.2650   17.9650 C   0  0  0  0  0  0  0  0  0  0  0  0
    6.3010    0.5760   17.7290 N   0  0  0  0  0  0  0  0  0  0  0  0
    6.9270    0.0260   18.7950 C   0  0  0  0  0  0  0  0  0  0  0  0
    9.1140   -0.5500   22.4680 N   0  0  0  0  0  0  0  0  0  0  0  0
   10.4900   -0.1780   22.7820 C   0  0  0  0  0  0  0  0  0  0  0  0
   10.8040    1.3190   22.7520 C   0  0  0  0  0  0  0  0  0  0  0  0
    9.8840    2.3180   22.6980 N   0  0  0  0  0  0  0  0  0  0  0  0
   10.1850    3.6660   22.6660 C   0  0  0  0  0  0  0  0  0  0  0  0
   11.5050    4.0730   22.6910 C   0  0  0  0  0  0  0  0  0  0  0  0
   12.4850    3.0790   22.7490 C   0  0  0  0  0  0  0  0  0  0  0  0
   12.1290    1.7650   22.7780 N   0  0  0  0  0  0  0  0  0  0  0  0
   11.2380   -1.0350   23.7060 C   0  0  0  0  0  0  0  0  0  0  0  0
   11.5320   -1.1770   22.5260 C   0  0  0  0  0  0  0  0  0  0  0  0
  1  2  2  0
  2  3  1  0
  3  4  1  0
  4  5  2  0
  5  6  1  0
  6  7  2  0
  7  8  1  0
  4  9  1  0
  8  9  2  0
  2 10  1  0
 11 10  1  0
 11 12  1  0
 12 13  2  0
 13 14  1  0
 14 15  2  0
 15 16  1  0
 12 17  1  0
 16 17  2  0
 11 18  1  0
 11 19  1  0
 18 19  1  0
M  END
