pyridine_urea_3685
     RDKit          3D

 18 19  0  0  0  0  0  0  0  0999 V2000
   12.8880   -2.4250   24.6310 C   0  0  0  0  0  0  0  0  0  0  0  0
   11.6300   -1.8040   24.9000 O   0  0  0  0  0  0  0  0  0  0  0  0
   10.5670   -2.2250   24.0350 C   0  0  0  0  0  0  0  0  0  0  0  0
   10.0160   -3.3160   24.0680 O   0  0  0  0  0  0  0  0  0  0  0  0
   10.1990   -1.1510   23.0360 C   0  0  1  0  0  0  0  0  0  0  0  0
    8.9240   -0.6590   22.9510 N   0  0  0  0  0  0  0  0  0  0  0  0
    8.5020   -0.0390   21.7980 C   0  0  0  0  0  0  0  0  0  0  0  0
    9.0990    1.1780   21.3030 O   0  0  0  0  0  0  0  0  0  0  0  0
    7.3780   -0.7390   21.1870 N   0  0  0  0  0  0  0  0  0  0  0  0
    6.6610   -0.0940   20.1930 C   0  0  0  0  0  0  0  0  0  0  0  0
    5.3830    0.7220   20.4750 C   0  0  0  0  0  0  0  0  0  0  0  0
    4.6600    1.4160   19.3070 C   0  0  0  0  0  0  0  0  0  0  0  0
    5.2140    1.2590   18.0500 C   0  0  0  0  0  0  0  0  0  0  0  0
    6.3030    0.5670   17.7320 N   0  0  0  0  0  0  0  0  0  0  0  0
    6.9860   -0.0670   18.7020 C   0  0  0  0  0  0  0  0  0  0  0  0
   11.0860   -0.0480   22.9990 C   0  0  0  0  0  0  0  0  0  0  0  0
   11.2270   -0.8930   21.9680 C   0  0  1  0  0  0  0  0  0  0  0  0
   12.3960   -1.6630   21.9340 C   0  0  0  0  0  0  0  0  0  0  0  0
  1  2  1  0
  2  3  1  0
  3  4  2  0
  5  3  1  0
  5  6  1  6
  6  7  1  0
  7  8  2  0
  7  9  1  0
  9 10  1  0
 10 11  2  0
 11 12  1  0
 12 13  2  0
 13 14  1  0
 10 15  1  0
 14 15  2  0
  5 16  1  0
  5 17  1  0
 16 17  1  0
 17 18  1  1
M  END
