pyridine_urea_11472
     RDKit          3D

 22 23  0  0  0  0  0  0  0  0999 V2000
   13.4560   -1.7070   20.7750 C   0  0  0  0  0  0  0  0  0  0  0  0
   13.8390   -1.1280   21.9800 O   0  0  0  0  0  0  0  0  0  0  0  0
   13.2220   -1.7570   22.9670 C   0  0  0  0  0  0  0  0  0  0  0  0
   13.7150   -2.6270   23.6680 O   0  0  0  0  0  0  0  0  0  0  0  0
   11.9480   -1.3320   23.1110 C   0  0  0  0  0  0  0  0  0  0  0  0
   11.0000   -1.3140   22.1990 C   0  0  0  0  0  0  0  0  0  0  0  0
    9.7700   -0.8810   22.5010 C   0  0  0  0  0  0  0  0  0  0  0  0
    9.0140   -0.9850   21.3450 N   0  0  0  0  0  0  0  0  0  0  0  0
    8.2640    0.0950   21.1420 C   0  0  0  0  0  0  0  0  0  0  0  0
    8.7230    1.2450   21.1280 O   0  0  0  0  0  0  0  0  0  0  0  0
    6.9040   -0.2900   20.9290 N   0  0  0  0  0  0  0  0  0  0  0  0
    6.2860    0.2660   19.9130 C   0  0  0  0  0  0  0  0  0  0  0  0
    4.9790    1.0190   20.1220 C   0  0  0  0  0  0  0  0  0  0  0  0
    4.4320    1.5990   19.0060 C   0  0  0  0  0  0  0  0  0  0  0  0
    5.0920    1.4600   17.7860 C   0  0  0  0  0  0  0  0  0  0  0  0
    6.2340    0.7840   17.5990 N   0  0  0  0  0  0  0  0  0  0  0  0
    6.8060    0.2040   18.6530 C   0  0  0  0  0  0  0  0  0  0  0  0
    9.3370   -0.4270   23.7220 C   0  0  0  0  0  0  0  0  0  0  0  0
   10.2080   -0.3990   24.7610 C   0  0  0  0  0  0  0  0  0  0  0  0
    9.1510    0.2890   26.4720 I   0  0  0  0  0  0  0  0  0  0  0  0
   11.6330   -0.8610   24.4710 C   0  0  0  0  0  0  0  0  0  0  0  0
   12.9670   -0.9720   25.4360 Cl  0  0  0  0  0  0  0  0  0  0  0  0
  1  2  1  0
  2  3  1  0
  3  4  2  0
  3  5  1  0
  5  6  2  0
  6  7  1  0
  7  8  1  0
  8  9  1  0
  9 10  2  0
  9 11  1  0
 11 12  1  0
 12 13  2  0
 13 14  1  0
 14 15  2  0
 15 16  1  0
 12 17  1  0
 16 17  2  0
  7 18  2  0
 18 19  1  0
 19 20  1  0
  5 21  1  0
 19 21  2  0
 21 22  1  0
M  END
