pyridine_urea_9828
     RDKit          3D

 26 28  0  0  0  0  0  0  0  0999 V2000
    8.6080    0.9550   21.1280 O   0  0  0  0  0  0  0  0  0  0  0  0
    8.3260   -0.2240   21.2760 C   0  0  0  0  0  0  0  0  0  0  0  0
    7.0850   -0.7420   21.0250 N   0  0  0  0  0  0  0  0  0  0  0  0
    6.4200   -0.0260   19.9840 C   0  0  0  0  0  0  0  0  0  0  0  0
    5.1170    0.6850   20.3200 C   0  0  0  0  0  0  0  0  0  0  0  0
    4.4420    1.4580   19.1910 C   0  0  0  0  0  0  0  0  0  0  0  0
    5.1670    1.4260   17.8450 C   0  0  0  0  0  0  0  0  0  0  0  0
    6.3600    0.7090   17.7100 N   0  0  0  0  0  0  0  0  0  0  0  0
    6.9500    0.0230   18.7250 C   0  0  0  0  0  0  0  0  0  0  0  0
    9.2160   -1.1590   21.6970 N   0  0  0  0  0  0  0  0  0  0  0  0
   10.1320   -0.6710   22.6090 C   0  0  0  0  0  0  0  0  0  0  0  0
   10.0950    0.5070   23.3210 C   0  0  0  0  0  0  0  0  0  0  0  0
   11.0230    0.9380   24.2200 C   0  0  0  0  0  0  0  0  0  0  0  0
   12.1110    0.1470   24.4770 C   0  0  0  0  0  0  0  0  0  0  0  0
   12.2860   -1.0440   23.8770 C   0  0  0  0  0  0  0  0  0  0  0  0
   13.3560   -1.8250   24.2460 C   0  0  0  0  0  0  0  0  0  0  0  0
   13.6090   -1.7000   25.4290 O   0  0  0  0  0  0  0  0  0  0  0  0
   13.8860   -2.6190   23.3730 N   0  0  0  0  0  0  0  0  0  0  0  0
   13.0870   -2.2260   22.2680 C   0  0  0  0  0  0  0  0  0  0  0  0
   13.6640   -1.0900   21.7590 C   0  0  0  0  0  0  0  0  0  0  0  0
   14.1310    0.2120   22.2650 C   0  0  0  0  0  0  0  0  0  0  0  0
   14.7790    1.2820   21.4030 C   0  0  0  0  0  0  0  0  0  0  0  0
   14.8990    1.0040   20.0350 C   0  0  0  0  0  0  0  0  0  0  0  0
   14.4310   -0.2800   19.6040 C   0  0  0  0  0  0  0  0  0  0  0  0
   13.8540   -1.2410   20.4750 C   0  0  0  0  0  0  0  0  0  0  0  0
   11.3530   -1.5130   22.9200 C   0  0  0  0  0  0  0  0  0  0  0  0
  1  2  2  0
  2  3  1  0
  3  4  1  0
  4  5  2  0
  5  6  1  0
  6  7  2  0
  7  8  1  0
  4  9  1  0
  8  9  2  0
  2 10  1  0
 10 11  1  0
 11 12  2  0
 12 13  1  0
 13 14  2  0
 14 15  1  0
 15 16  1  0
 16 17  2  0
 16 18  1  0
 18 19  1  0
 19 20  1  0
 20 21  2  0
 21 22  1  0
 22 23  2  0
 23 24  1  0
 20 25  1  0
 24 25  2  0
 11 26  1  0
 15 26  2  0
M  END
