pyridine_urea_9216
     RDKit          3D

 18 18  0  0  0  0  0  0  0  0999 V2000
   13.3490   -2.6240   24.9030 C   0  0  0  0  0  0  0  0  0  0  0  0
   12.3150   -2.4300   24.0240 N   0  0  0  0  0  0  0  0  0  0  0  0
   12.4370   -2.1110   22.6550 C   0  0  0  0  0  0  0  0  0  0  0  0
   12.6490   -0.7780   22.3610 C   0  0  0  0  0  0  0  0  0  0  0  0
   12.9310    0.0950   23.3770 C   0  0  0  0  0  0  0  0  0  0  0  0
   11.8590    0.5330   24.1020 C   0  0  0  0  0  0  0  0  0  0  0  0
   10.5600    0.4010   23.6180 C   0  0  0  0  0  0  0  0  0  0  0  0
   10.1680   -0.7160   22.9030 C   0  0  0  0  0  0  0  0  0  0  0  0
    8.8730   -0.8340   22.4440 N   0  0  0  0  0  0  0  0  0  0  0  0
    8.2670    0.0400   21.4340 C   0  0  0  0  0  0  0  0  0  0  0  0
    8.7020    1.1550   21.1010 O   0  0  0  0  0  0  0  0  0  0  0  0
    7.1620   -0.5710   20.9580 N   0  0  0  0  0  0  0  0  0  0  0  0
    6.4480    0.0900   20.0230 C   0  0  0  0  0  0  0  0  0  0  0  0
    5.2730    0.8070   20.2610 C   0  0  0  0  0  0  0  0  0  0  0  0
    4.6440    1.4490   19.1970 C   0  0  0  0  0  0  0  0  0  0  0  0
    5.2040    1.3550   17.9390 C   0  0  0  0  0  0  0  0  0  0  0  0
    6.3270    0.6660   17.6920 N   0  0  0  0  0  0  0  0  0  0  0  0
    6.9170    0.0540   18.7300 C   0  0  0  0  0  0  0  0  0  0  0  0
  1  2  1  0
  2  3  1  0
  3  4  1  0
  4  5  1  0
  5  6  1  0
  6  7  1  0
  7  8  1  0
  8  9  1  0
  9 10  1  0
 10 11  2  0
 10 12  1  0
 12 13  1  0
 13 14  2  0
 14 15  1  0
 15 16  2  0
 16 17  1  0
 13 18  1  0
 17 18  2  0
M  END
