pyridine_urea_10288
     RDKit          3D

 22 24  0  0  0  0  0  0  0  0999 V2000
    8.8710    1.0280   21.3710 O   0  0  0  0  0  0  0  0  0  0  0  0
    8.5420   -0.1370   21.5170 C   0  0  0  0  0  0  0  0  0  0  0  0
    9.3530   -1.1270   22.0440 N   0  0  0  0  0  0  0  0  0  0  0  0
   10.1240   -1.0250   23.2260 C   0  0  0  0  0  0  0  0  0  0  0  0
   11.5200   -1.1440   23.2610 C   0  0  0  0  0  0  0  0  0  0  0  0
   12.2800   -0.0070   23.0430 C   0  0  0  0  0  0  0  0  0  0  0  0
   13.4830   -0.0090   22.9050 N   0  0  0  0  0  0  0  0  0  0  0  0
   12.8510    1.2900   22.8580 C   0  0  0  0  0  0  0  0  0  0  0  0
   11.6190    0.3410   23.0780 C   0  0  0  0  0  0  0  0  0  0  0  0
   10.8040    1.6470   23.0300 C   0  0  0  0  0  0  0  0  0  0  0  0
   12.0340    1.4320   22.9230 C   0  0  0  0  0  0  0  0  0  0  0  0
   12.8720    2.4840   22.7290 F   0  0  0  0  0  0  0  0  0  0  0  0
   12.0930   -2.3510   22.7930 C   0  0  0  0  0  0  0  0  0  0  0  0
   12.4230   -2.8620   24.0020 C   0  0  0  0  0  0  0  0  0  0  0  0
   11.9910   -1.7130   24.4840 C   0  0  0  0  0  0  0  0  0  0  0  0
    7.2960   -0.6050   21.1450 N   0  0  0  0  0  0  0  0  0  0  0  0
    6.5810    0.0160   20.0290 C   0  0  0  0  0  0  0  0  0  0  0  0
    5.4240    0.7570   20.3600 C   0  0  0  0  0  0  0  0  0  0  0  0
    4.6900    1.4070   19.3480 C   0  0  0  0  0  0  0  0  0  0  0  0
    5.1200    1.3080   18.0320 C   0  0  0  0  0  0  0  0  0  0  0  0
    6.2350    0.5810   17.7210 N   0  0  0  0  0  0  0  0  0  0  0  0
    6.9620   -0.0630   18.7120 C   0  0  0  0  0  0  0  0  0  0  0  0
  1  2  2  0
  2  3  1  0
  3  4  1  0
  5  4  1  0
  5  6  1  0
  6  7  2  0
  7  8  1  0
  8  9  2  0
  9 10  1  0
  6 11  1  0
 10 11  2  0
 11 12  1  0
  5 13  1  0
 13 14  1  0
  5 15  1  0
 14 15  1  0
  2 16  1  0
 16 17  1  0
 17 18  2  0
 18 19  1  0
 19 20  2  0
 20 21  1  0
 17 22  1  0
 21 22  2  0
M  END
