pyridine_urea_8848
     RDKit          3D

 20 21  0  0  0  0  0  0  0  0999 V2000
    8.9360    1.4150   21.1410 O   0  0  0  0  0  0  0  0  0  0  0  0
    8.2750    0.4970   21.6340 C   0  0  0  0  0  0  0  0  0  0  0  0
    8.4380    0.1110   22.9210 N   0  0  0  0  0  0  0  0  0  0  0  0
    8.7290   -1.2490   23.2280 C   0  0  0  0  0  0  0  0  0  0  0  0
   10.0670   -1.3120   23.9190 C   0  0  0  0  0  0  0  0  0  0  0  0
   11.4570   -1.3540   24.3430 C   0  0  0  0  0  0  0  0  0  0  0  0
   12.6960   -1.3130   23.6690 C   0  0  0  0  0  0  0  0  0  0  0  0
   13.7930   -1.3910   24.3550 F   0  0  0  0  0  0  0  0  0  0  0  0
   12.7070   -1.2080   22.3360 C   0  0  0  0  0  0  0  0  0  0  0  0
   13.7280   -1.1670   21.7020 O   0  0  0  0  0  0  0  0  0  0  0  0
   11.4810   -1.1820   22.0050 C   0  0  0  0  0  0  0  0  0  0  0  0
   11.6930   -1.2790   23.3400 F   0  0  0  0  0  0  0  0  0  0  0  0
   10.2650   -1.2140   22.4950 C   0  0  0  0  0  0  0  0  0  0  0  0
    7.3000   -0.2490   21.0320 N   0  0  0  0  0  0  0  0  0  0  0  0
    6.5580    0.2600   20.0060 C   0  0  0  0  0  0  0  0  0  0  0  0
    5.3870    0.9590   20.3250 C   0  0  0  0  0  0  0  0  0  0  0  0
    4.6330    1.5110   19.2850 C   0  0  0  0  0  0  0  0  0  0  0  0
    5.1340    1.3130   17.9000 C   0  0  0  0  0  0  0  0  0  0  0  0
    6.2460    0.6310   17.6370 N   0  0  0  0  0  0  0  0  0  0  0  0
    6.9220    0.1260   18.6840 C   0  0  0  0  0  0  0  0  0  0  0  0
  1  2  2  0
  2  3  1  0
  3  4  1  0
  4  5  1  0
  5  6  2  0
  6  7  1  0
  7  8  1  0
  7  9  2  0
  9 10  1  0
  9 11  1  0
 11 12  1  0
  5 13  1  0
 11 13  2  0
  2 14  1  0
 14 15  1  0
 15 16  2  0
 16 17  1  0
 17 18  2  0
 18 19  1  0
 15 20  1  0
 19 20  2  0
M  END
