pyridine_urea_1447
     RDKit          3D

 20 20  0  0  0  0  0  0  0  0999 V2000
    8.8820    0.8780   21.3570 O   0  0  0  0  0  0  0  0  0  0  0  0
    8.4760   -0.2490   21.5820 C   0  0  0  0  0  0  0  0  0  0  0  0
    9.1970   -1.1410   22.3460 N   0  0  0  0  0  0  0  0  0  0  0  0
   10.5440   -0.7880   22.7670 C   0  0  0  0  0  0  0  0  0  0  0  0
   10.6580    0.7430   22.9170 C   0  0  0  0  0  0  0  0  0  0  0  0
   11.9090    1.3730   23.0100 C   0  0  0  0  0  0  0  0  0  0  0  0
   11.6100    2.7160   23.2380 N   0  0  0  0  0  0  0  0  0  0  0  0
   12.4070    4.0450   22.5500 S   0  0  0  0  0  0  0  0  0  0  0  0
   11.9090    4.1180   21.2080 O   0  0  0  0  0  0  0  0  0  0  0  0
   13.8100    3.9360   22.8140 O   0  0  0  0  0  0  0  0  0  0  0  0
   11.7870    5.3690   23.4620 C   0  0  0  0  0  0  0  0  0  0  0  0
   10.7160    5.0400   24.2000 F   0  0  0  0  0  0  0  0  0  0  0  0
   11.3900    6.4180   22.6920 F   0  0  0  0  0  0  0  0  0  0  0  0
    7.2830   -0.7380   21.1150 N   0  0  0  0  0  0  0  0  0  0  0  0
    6.6050   -0.0790   20.0230 C   0  0  0  0  0  0  0  0  0  0  0  0
    5.4600    0.6420   20.3630 C   0  0  0  0  0  0  0  0  0  0  0  0
    4.7240    1.3480   19.3840 C   0  0  0  0  0  0  0  0  0  0  0  0
    5.1130    1.3500   18.0480 C   0  0  0  0  0  0  0  0  0  0  0  0
    6.2900    0.5890   17.7360 N   0  0  0  0  0  0  0  0  0  0  0  0
    6.9890   -0.0920   18.7150 C   0  0  0  0  0  0  0  0  0  0  0  0
  1  2  2  0
  2  3  1  0
  3  4  1  0
  4  5  1  0
  5  6  1  0
  6  7  1  0
  8  7  1  0
  8  9  2  0
  8 10  2  0
  8 11  1  0
 11 12  1  0
 11 13  1  0
  2 14  1  0
 14 15  1  0
 15 16  2  0
 16 17  1  0
 17 18  2  0
 18 19  1  0
 15 20  1  0
 19 20  2  0
M  END
