pyridine_urea_13125
     RDKit          3D

 21 23  0  0  0  0  0  0  0  0999 V2000
    8.6280    0.3030   21.3460 O   0  0  0  0  0  0  0  0  0  0  0  0
    7.8760   -0.6130   21.6700 C   0  0  0  0  0  0  0  0  0  0  0  0
    6.6960   -0.8990   21.0580 N   0  0  0  0  0  0  0  0  0  0  0  0
    6.2140   -0.1400   19.9890 C   0  0  0  0  0  0  0  0  0  0  0  0
    5.0420    0.5970   20.1630 C   0  0  0  0  0  0  0  0  0  0  0  0
    4.5440    1.3670   19.1120 C   0  0  0  0  0  0  0  0  0  0  0  0
    5.2400    1.3720   17.9230 C   0  0  0  0  0  0  0  0  0  0  0  0
    6.3690    0.6690   17.7330 N   0  0  0  0  0  0  0  0  0  0  0  0
    6.8320   -0.0690   18.7620 C   0  0  0  0  0  0  0  0  0  0  0  0
    8.1620   -1.4630   22.7240 N   0  0  0  0  0  0  0  0  0  0  0  0
    9.5120   -1.2860   23.1080 C   0  0  0  0  0  0  0  0  0  0  0  0
   10.2990   -2.4560   23.5230 C   0  0  0  0  0  0  0  0  0  0  0  0
   11.4170   -1.8650   23.7520 N   0  0  0  0  0  0  0  0  0  0  0  0
   11.2960   -0.5370   23.4920 N   0  0  0  0  0  0  0  0  0  0  0  0
   10.0770    0.0510   23.0430 C   0  0  0  0  0  0  0  0  0  0  0  0
   10.9760    0.9770   23.1220 C   0  0  0  0  0  0  0  0  0  0  0  0
   12.1530    0.8460   22.9360 C   0  0  0  0  0  0  0  0  0  0  0  0
   13.0560    0.0680   22.6610 C   0  0  0  0  0  0  0  0  0  0  0  0
   13.6750    1.2500   22.7620 C   0  0  0  0  0  0  0  0  0  0  0  0
   12.7270    2.3900   23.1150 C   0  0  0  0  0  0  0  0  0  0  0  0
   11.2560    2.2710   23.3330 C   0  0  0  0  0  0  0  0  0  0  0  0
  1  2  2  0
  2  3  1  0
  3  4  1  0
  4  5  2  0
  5  6  1  0
  6  7  2  0
  7  8  1  0
  4  9  1  0
  8  9  2  0
  2 10  1  0
 10 11  1  0
 11 12  2  0
 12 13  1  0
 13 14  1  0
 11 15  1  0
 14 15  2  0
 15 16  1  0
 16 17  2  0
 17 18  1  0
 18 19  2  0
 19 20  1  0
 16 21  1  0
 20 21  2  0
M  END
