pyridine_urea_7407
     RDKit          3D

 17 18  0  0  0  0  0  0  0  0999 V2000
    8.8340    1.8480   23.2340 C   0  0  0  0  0  0  0  0  0  0  0  0
   10.2040    1.7580   23.1140 N   0  0  0  0  0  0  0  0  0  0  0  0
   11.0580    2.8370   23.1020 N   0  0  0  0  0  0  0  0  0  0  0  0
   12.3570    2.3540   22.9890 N   0  0  0  0  0  0  0  0  0  0  0  0
   12.1840    1.0100   22.9370 C   0  0  0  0  0  0  0  0  0  0  0  0
   10.8970    0.5600   22.9990 C   0  0  0  0  0  0  0  0  0  0  0  0
   10.3680   -0.7290   22.9650 C   0  0  0  0  0  0  0  0  0  0  0  0
    9.0890   -0.8970   22.5130 N   0  0  0  0  0  0  0  0  0  0  0  0
    8.4790   -0.0460   21.5110 C   0  0  0  0  0  0  0  0  0  0  0  0
    8.9860    1.0280   21.1670 O   0  0  0  0  0  0  0  0  0  0  0  0
    7.3210   -0.5630   21.0490 N   0  0  0  0  0  0  0  0  0  0  0  0
    6.5910    0.0550   20.0350 C   0  0  0  0  0  0  0  0  0  0  0  0
    5.4220    0.7720   20.3550 C   0  0  0  0  0  0  0  0  0  0  0  0
    4.6510    1.4590   19.2250 C   0  0  0  0  0  0  0  0  0  0  0  0
    5.1430    1.3450   17.9250 C   0  0  0  0  0  0  0  0  0  0  0  0
    6.2460    0.6450   17.6980 N   0  0  0  0  0  0  0  0  0  0  0  0
    6.9610    0.0100   18.7090 C   0  0  0  0  0  0  0  0  0  0  0  0
  1  2  1  0
  2  3  1  0
  3  4  2  0
  4  5  1  0
  2  6  1  0
  5  6  2  0
  6  7  1  0
  7  8  1  0
  8  9  1  0
  9 10  2  0
  9 11  1  0
 11 12  1  0
 12 13  2  0
 13 14  1  0
 14 15  2  0
 15 16  1  0
 12 17  1  0
 16 17  2  0
M  END
