pyridine_urea_11984
     RDKit          3D

 24 26  0  0  0  0  0  0  0  0999 V2000
    8.9810    1.2460   21.2330 O   0  0  0  0  0  0  0  0  0  0  0  0
    8.4990    0.1550   21.5720 C   0  0  0  0  0  0  0  0  0  0  0  0
    8.9560   -0.6620   22.5790 N   0  0  0  0  0  0  0  0  0  0  0  0
    9.1850   -2.0510   22.4880 C   0  0  0  0  0  0  0  0  0  0  0  0
    8.2430   -2.9210   23.0510 C   0  0  0  0  0  0  0  0  0  0  0  0
    8.4400   -4.2110   23.5280 N   0  0  0  0  0  0  0  0  0  0  0  0
    7.1800   -4.6760   23.9940 O   0  0  0  0  0  0  0  0  0  0  0  0
    6.3320   -3.6180   23.7650 C   0  0  0  0  0  0  0  0  0  0  0  0
    4.9990   -3.7250   24.1210 C   0  0  0  0  0  0  0  0  0  0  0  0
    4.4670   -2.8500   25.0790 C   0  0  0  0  0  0  0  0  0  0  0  0
    3.1320   -2.9380   25.4730 C   0  0  0  0  0  0  0  0  0  0  0  0
    2.2670   -4.0140   24.8340 C   0  0  0  0  0  0  0  0  0  0  0  0
    0.6110   -4.1860   25.2780 Cl  0  0  0  0  0  0  0  0  0  0  0  0
    2.8390   -4.8620   23.8790 C   0  0  0  0  0  0  0  0  0  0  0  0
    4.1840   -4.7180   23.5280 C   0  0  0  0  0  0  0  0  0  0  0  0
    4.7010   -5.5470   22.6110 F   0  0  0  0  0  0  0  0  0  0  0  0
    6.9480   -2.5520   23.1950 N   0  0  0  0  0  0  0  0  0  0  0  0
    7.3780   -0.4180   20.9890 N   0  0  0  0  0  0  0  0  0  0  0  0
    6.5690    0.1730   20.0620 C   0  0  0  0  0  0  0  0  0  0  0  0
    5.4060    0.8900   20.3440 C   0  0  0  0  0  0  0  0  0  0  0  0
    4.6860    1.4540   19.2990 C   0  0  0  0  0  0  0  0  0  0  0  0
    5.1430    1.2900   18.0100 C   0  0  0  0  0  0  0  0  0  0  0  0
    6.2500    0.6030   17.7000 N   0  0  0  0  0  0  0  0  0  0  0  0
    6.9310    0.0610   18.7280 C   0  0  0  0  0  0  0  0  0  0  0  0
  1  2  2  0
  2  3  1  0
  3  4  1  0
  4  5  1  0
  5  6  2  0
  6  7  1  0
  7  8  1  0
  8  9  1  0
  9 10  2  0
 10 11  1  0
 11 12  2  0
 12 13  1  0
 12 14  1  0
  9 15  1  0
 14 15  2  0
 15 16  1  0
  5 17  1  0
  8 17  2  0
  2 18  1  0
 18 19  1  0
 19 20  2  0
 20 21  1  0
 21 22  2  0
 22 23  1  0
 19 24  1  0
 23 24  2  0
M  END
