pyridine_urea_14378
     RDKit          3D

 22 23  0  0  0  0  0  0  0  0999 V2000
   11.7420    3.5500   22.5000 C   0  0  0  0  0  0  0  0  0  0  0  0
   12.1600    2.4340   23.2910 O   0  0  0  0  0  0  0  0  0  0  0  0
   11.5360    1.2510   23.0380 C   0  0  0  0  0  0  0  0  0  0  0  0
   10.1600    1.0390   23.0960 C   0  0  0  0  0  0  0  0  0  0  0  0
    9.6110   -0.2170   22.8150 C   0  0  0  0  0  0  0  0  0  0  0  0
    8.3810   -0.6240   22.8040 N   0  0  0  0  0  0  0  0  0  0  0  0
    7.9870   -0.0890   21.6170 C   0  0  0  0  0  0  0  0  0  0  0  0
    8.5030    0.9000   21.1150 O   0  0  0  0  0  0  0  0  0  0  0  0
    6.9640   -0.7550   21.0680 N   0  0  0  0  0  0  0  0  0  0  0  0
    6.4110   -0.0880   20.0400 C   0  0  0  0  0  0  0  0  0  0  0  0
    5.1450    0.6610   20.3220 C   0  0  0  0  0  0  0  0  0  0  0  0
    4.5710    1.3980   19.1540 C   0  0  0  0  0  0  0  0  0  0  0  0
    5.2000    1.3570   17.9340 C   0  0  0  0  0  0  0  0  0  0  0  0
    6.3250    0.6960   17.6480 N   0  0  0  0  0  0  0  0  0  0  0  0
    6.8900   -0.0150   18.7450 C   0  0  0  0  0  0  0  0  0  0  0  0
   10.3960   -1.2720   22.4780 C   0  0  0  0  0  0  0  0  0  0  0  0
   11.7180   -1.1720   22.4010 C   0  0  0  0  0  0  0  0  0  0  0  0
   12.3130    0.0060   22.6590 C   0  0  0  0  0  0  0  0  0  0  0  0
   13.5600   -0.0970   22.5280 N   0  0  0  0  0  0  0  0  0  0  0  0
   13.6990   -1.3970   22.2200 C   0  0  0  0  0  0  0  0  0  0  0  0
   13.3190   -1.7240   20.9390 C   0  0  0  0  0  0  0  0  0  0  0  0
   14.1480   -2.3990   22.9590 O   0  0  0  0  0  0  0  0  0  0  0  0
  1  2  1  0
  2  3  1  0
  3  4  2  0
  4  5  1  0
  5  6  1  0
  6  7  1  0
  7  8  2  0
  7  9  1  0
  9 10  1  0
 10 11  2  0
 11 12  1  0
 12 13  2  0
 13 14  1  0
 10 15  1  0
 14 15  2  0
  5 16  2  0
 16 17  1  0
  3 18  1  0
 17 18  2  0
 18 19  1  0
 19 20  1  0
 20 21  1  0
 20 22  2  0
M  END
