pyridine_urea_6818
     RDKit          3D

 21 23  0  0  0  0  0  0  0  0999 V2000
    9.2980    1.4640   21.3300 O   0  0  0  0  0  0  0  0  0  0  0  0
    9.0240    0.2980   21.6060 C   0  0  0  0  0  0  0  0  0  0  0  0
    7.9300   -0.4000   21.0660 N   0  0  0  0  0  0  0  0  0  0  0  0
    6.9410    0.1510   20.1920 C   0  0  0  0  0  0  0  0  0  0  0  0
    5.7300    0.9840   20.6480 C   0  0  0  0  0  0  0  0  0  0  0  0
    4.8170    1.4800   19.5180 C   0  0  0  0  0  0  0  0  0  0  0  0
    5.1900    1.1110   18.1160 C   0  0  0  0  0  0  0  0  0  0  0  0
    6.2650    0.3700   17.8220 N   0  0  0  0  0  0  0  0  0  0  0  0
    7.0780   -0.0730   18.8160 C   0  0  0  0  0  0  0  0  0  0  0  0
    9.7780   -0.5060   22.5070 N   0  0  0  0  0  0  0  0  0  0  0  0
   11.2120   -0.4410   23.0330 C   0  0  1  0  0  0  0  0  0  0  0  0
   11.2520    0.1860   24.1540 C   0  0  0  0  0  0  0  0  0  0  0  0
   10.1940   -0.2390   24.1540 O   0  0  0  0  0  0  0  0  0  0  0  0
   10.3580   -1.6620   24.3420 C   0  0  0  0  0  0  0  0  0  0  0  0
    9.6420   -0.6170   24.7370 C   0  0  0  0  0  0  0  0  0  0  0  0
   10.1400    0.5680   23.9780 C   0  0  0  0  0  0  0  0  0  0  0  0
    9.4360    1.6780   24.3500 F   0  0  0  0  0  0  0  0  0  0  0  0
   11.2650    0.6540   22.9030 C   0  0  0  0  0  0  0  0  0  0  0  0
   11.9830   -0.7370   22.5800 C   0  0  0  0  0  0  0  0  0  0  0  0
   13.0190   -0.9300   21.7210 F   0  0  0  0  0  0  0  0  0  0  0  0
   11.5230   -1.7460   23.2780 C   0  0  0  0  0  0  0  0  0  0  0  0
  1  2  2  0
  2  3  1  0
  3  4  1  0
  4  5  2  0
  5  6  1  0
  6  7  2  0
  7  8  1  0
  4  9  1  0
  8  9  2  0
  2 10  1  0
 11 10  1  1
 11 12  1  0
 12 13  1  0
 13 14  1  0
 14 15  1  0
 15 16  2  0
 16 17  1  0
 16 18  1  0
 18 19  2  0
 19 20  1  0
 11 21  1  0
 14 21  2  0
 19 21  1  0
M  END
