pyridine_urea_8986
     RDKit          3D

 20 21  0  0  0  0  0  0  0  0999 V2000
   13.5120    0.1900   22.7060 C   0  0  0  0  0  0  0  0  0  0  0  0
   13.6030   -1.3200   22.3760 C   0  0  0  0  0  0  0  0  0  0  0  0
   12.3480   -1.7370   22.6110 N   0  0  0  0  0  0  0  0  0  0  0  0
   11.7630   -2.3310   21.5730 C   0  0  0  0  0  0  0  0  0  0  0  0
   11.5960   -0.7880   23.0350 C   0  0  0  0  0  0  0  0  0  0  0  0
   12.1000    0.2830   23.7190 C   0  0  0  0  0  0  0  0  0  0  0  0
   11.2470    1.2800   24.1110 C   0  0  0  0  0  0  0  0  0  0  0  0
    9.9070    1.1560   23.8090 C   0  0  0  0  0  0  0  0  0  0  0  0
    9.4860    0.0280   23.1090 C   0  0  0  0  0  0  0  0  0  0  0  0
    8.1950   -0.0880   22.7860 N   0  0  0  0  0  0  0  0  0  0  0  0
    7.8800    0.2540   21.5050 C   0  0  0  0  0  0  0  0  0  0  0  0
    8.4660    1.1960   20.9420 O   0  0  0  0  0  0  0  0  0  0  0  0
    6.9180   -0.5280   21.0080 N   0  0  0  0  0  0  0  0  0  0  0  0
    6.3360    0.0860   19.9900 C   0  0  0  0  0  0  0  0  0  0  0  0
    5.1350    0.7720   20.1930 C   0  0  0  0  0  0  0  0  0  0  0  0
    4.5610    1.4540   19.0170 C   0  0  0  0  0  0  0  0  0  0  0  0
    5.1510    1.4260   17.8010 C   0  0  0  0  0  0  0  0  0  0  0  0
    6.3150    0.7420   17.6260 N   0  0  0  0  0  0  0  0  0  0  0  0
    6.8600    0.1050   18.7030 C   0  0  0  0  0  0  0  0  0  0  0  0
   10.3150   -0.9560   22.7130 C   0  0  0  0  0  0  0  0  0  0  0  0
  1  2  1  0
  2  3  1  0
  3  4  1  0
  3  5  1  0
  5  6  2  0
  6  7  1  0
  7  8  2  0
  8  9  1  0
  9 10  1  0
 10 11  1  0
 11 12  2  0
 11 13  1  0
 13 14  1  0
 14 15  2  0
 15 16  1  0
 16 17  2  0
 17 18  1  0
 14 19  1  0
 18 19  2  0
  5 20  1  0
  9 20  2  0
M  END
