pyridine_urea_3054
     RDKit          3D

 21 21  0  0  0  0  0  0  0  0999 V2000
    7.1130   -1.8960   25.4050 C   0  0  0  0  0  0  0  0  0  0  0  0
    7.9730   -1.4880   24.2080 C   0  0  0  0  0  0  0  0  0  0  0  0
    9.1770   -2.3200   24.0740 N   0  0  0  0  0  0  0  0  0  0  0  0
    9.0450   -3.0110   22.8250 C   0  0  0  0  0  0  0  0  0  0  0  0
    8.6880   -2.1800   21.7980 C   0  0  0  0  0  0  0  0  0  0  0  0
    8.9290   -0.8230   22.2110 N   0  0  0  0  0  0  0  0  0  0  0  0
    8.3680    0.1420   21.4550 C   0  0  0  0  0  0  0  0  0  0  0  0
    8.9130    1.2180   21.1730 O   0  0  0  0  0  0  0  0  0  0  0  0
    7.1310   -0.2900   21.0720 N   0  0  0  0  0  0  0  0  0  0  0  0
    6.4900    0.2760   19.9980 C   0  0  0  0  0  0  0  0  0  0  0  0
    5.2340    1.0890   20.2590 C   0  0  0  0  0  0  0  0  0  0  0  0
    4.5060    1.7610   19.1150 C   0  0  0  0  0  0  0  0  0  0  0  0
    5.1240    1.5560   17.7440 C   0  0  0  0  0  0  0  0  0  0  0  0
    6.3280    0.7340   17.6330 N   0  0  0  0  0  0  0  0  0  0  0  0
    6.9360    0.1480   18.7220 C   0  0  0  0  0  0  0  0  0  0  0  0
   10.4760   -1.8610   24.3050 C   0  0  0  0  0  0  0  0  0  0  0  0
   11.1550   -1.3420   23.0360 C   0  0  0  0  0  0  0  0  0  0  0  0
   12.5380   -1.3800   23.1790 C   0  0  0  0  0  0  0  0  0  0  0  0
   12.9370   -1.9830   24.3340 F   0  0  0  0  0  0  0  0  0  0  0  0
   13.0840   -0.1310   23.1880 F   0  0  0  0  0  0  0  0  0  0  0  0
   13.1700   -2.0470   22.1710 F   0  0  0  0  0  0  0  0  0  0  0  0
  1  2  1  0
  2  3  1  0
  3  4  1  0
  4  5  1  0
  5  6  1  0
  6  7  1  0
  7  8  2  0
  7  9  1  0
  9 10  1  0
 10 11  2  0
 11 12  1  0
 12 13  2  0
 13 14  1  0
 10 15  1  0
 14 15  2  0
  3 16  1  0
 16 17  1  0
 17 18  1  0
 18 19  1  0
 18 20  1  0
 18 21  1  0
M  END
