pyridine_urea_4818
     RDKit          3D

 21 22  0  0  0  0  0  0  0  0999 V2000
   10.8340   -1.5850   22.5000 C   0  0  0  0  0  0  0  0  0  0  0  0
   10.1140   -0.2130   22.5620 C   0  0  1  0  0  0  0  0  0  0  0  0
    8.6920   -0.4170   22.5460 N   0  0  0  0  0  0  0  0  0  0  0  0
    8.0530    0.0870   21.4480 C   0  0  0  0  0  0  0  0  0  0  0  0
    8.4390    1.3500   20.8850 O   0  0  0  0  0  0  0  0  0  0  0  0
    7.0700   -0.7620   21.0260 N   0  0  0  0  0  0  0  0  0  0  0  0
    6.4020   -0.0430   20.0650 C   0  0  0  0  0  0  0  0  0  0  0  0
    5.2260    0.6900   20.2200 C   0  0  0  0  0  0  0  0  0  0  0  0
    4.6290    1.3910   19.1700 C   0  0  0  0  0  0  0  0  0  0  0  0
    5.2420    1.3460   17.9390 C   0  0  0  0  0  0  0  0  0  0  0  0
    6.3700    0.6540   17.7360 N   0  0  0  0  0  0  0  0  0  0  0  0
    6.9140   -0.0140   18.7800 C   0  0  0  0  0  0  0  0  0  0  0  0
   10.5470    0.6990   23.6960 C   0  0  2  0  0  0  0  0  0  0  0  0
    9.7580    1.8410   23.5440 O   0  0  0  0  0  0  0  0  0  0  0  0
   11.8970    1.0080   23.6320 C   0  0  0  0  0  0  0  0  0  0  0  0
   12.5280   -0.2130   23.5740 C   0  0  0  0  0  0  0  0  0  0  0  0
   12.8790   -0.8440   24.8510 C   0  0  0  0  0  0  0  0  0  0  0  0
   13.4410   -2.0080   25.0890 C   0  0  0  0  0  0  0  0  0  0  0  0
   13.6970   -2.6570   23.9060 C   0  0  0  0  0  0  0  0  0  0  0  0
   13.3770   -2.0690   22.6900 C   0  0  0  0  0  0  0  0  0  0  0  0
   12.7360   -0.7250   22.2840 C   0  0  0  0  0  0  0  0  0  0  0  0
  2  1  1  1
  2  3  1  0
  3  4  1  0
  4  5  2  0
  4  6  1  0
  6  7  1  0
  7  8  2  0
  8  9  1  0
  9 10  2  0
 10 11  1  0
  7 12  1  0
 11 12  2  0
  2 13  1  0
 13 14  1  6
 13 15  1  0
 15 16  1  0
 16 17  2  0
 17 18  1  0
 18 19  2  0
 19 20  1  0
 16 21  1  0
 20 21  2  0
M  END
