pyridine_urea_8950
     RDKit          3D

 20 21  0  0  0  0  0  0  0  0999 V2000
   13.4980   -2.0870   25.0740 C   0  0  0  0  0  0  0  0  0  0  0  0
   12.9220   -1.5870   23.7370 C   0  0  0  0  0  0  0  0  0  0  0  0
   13.2010   -2.5640   22.6090 C   0  0  0  0  0  0  0  0  0  0  0  0
   13.2460   -0.1490   23.2540 C   0  0  0  0  0  0  0  0  0  0  0  0
   11.5540   -1.4760   23.9350 N   0  0  0  0  0  0  0  0  0  0  0  0
   11.1740   -0.4040   24.7380 C   0  0  0  0  0  0  0  0  0  0  0  0
    9.8860   -0.0170   24.4430 C   0  0  0  0  0  0  0  0  0  0  0  0
    9.6180    0.2600   23.1320 C   0  0  0  0  0  0  0  0  0  0  0  0
    8.4570   -0.1690   22.6520 N   0  0  0  0  0  0  0  0  0  0  0  0
    7.9640    0.1880   21.4580 C   0  0  0  0  0  0  0  0  0  0  0  0
    8.4760    1.1950   20.9360 O   0  0  0  0  0  0  0  0  0  0  0  0
    6.9690   -0.5600   20.9690 N   0  0  0  0  0  0  0  0  0  0  0  0
    6.3530    0.0770   19.9740 C   0  0  0  0  0  0  0  0  0  0  0  0
    5.1560    0.7510   20.2450 C   0  0  0  0  0  0  0  0  0  0  0  0
    4.5410    1.4280   19.1900 C   0  0  0  0  0  0  0  0  0  0  0  0
    5.1760    1.4060   17.8420 C   0  0  0  0  0  0  0  0  0  0  0  0
    6.3170    0.7380   17.6400 N   0  0  0  0  0  0  0  0  0  0  0  0
    6.8630    0.1020   18.6930 C   0  0  0  0  0  0  0  0  0  0  0  0
   10.5910   -0.1530   22.2720 C   0  0  0  0  0  0  0  0  0  0  0  0
   11.1560   -1.2870   22.6440 C   0  0  0  0  0  0  0  0  0  0  0  0
  2  1  1  0
  2  3  1  0
  2  4  1  0
  2  5  1  0
  5  6  1  0
  6  7  1  0
  7  8  1  0
  8  9  1  0
  9 10  1  0
 10 11  2  0
 10 12  1  0
 12 13  1  0
 13 14  2  0
 14 15  1  0
 15 16  2  0
 16 17  1  0
 13 18  1  0
 17 18  2  0
  8 19  1  0
  5 20  1  0
 19 20  1  0
M  END
