pyridine_urea_11760
     RDKit          3D

 31 34  0  0  0  0  0  0  0  0999 V2000
    8.6020    1.6030   20.9240 O   0  0  0  0  0  0  0  0  0  0  0  0
    8.0910    0.6110   21.4420 C   0  0  0  0  0  0  0  0  0  0  0  0
    7.0650   -0.1360   20.9720 N   0  0  0  0  0  0  0  0  0  0  0  0
    6.3940    0.3600   19.9010 C   0  0  0  0  0  0  0  0  0  0  0  0
    5.2250    1.0720   20.1300 C   0  0  0  0  0  0  0  0  0  0  0  0
    4.5550    1.6170   19.0510 C   0  0  0  0  0  0  0  0  0  0  0  0
    5.0960    1.4150   17.8040 C   0  0  0  0  0  0  0  0  0  0  0  0
    6.2110    0.7170   17.5690 N   0  0  0  0  0  0  0  0  0  0  0  0
    6.8350    0.2030   18.6260 C   0  0  0  0  0  0  0  0  0  0  0  0
    8.5670    0.1680   22.5990 N   0  0  0  0  0  0  0  0  0  0  0  0
    9.9800    0.1880   22.5930 C   0  0  0  0  0  0  0  0  0  0  0  0
   10.5760    1.5430   22.7670 C   0  0  0  0  0  0  0  0  0  0  0  0
   11.9200    1.6340   22.7460 C   0  0  0  0  0  0  0  0  0  0  0  0
   12.5560    3.4130   22.8660 Br  0  0  0  0  0  0  0  0  0  0  0  0
   12.7210    0.4690   22.6050 C   0  0  0  0  0  0  0  0  0  0  0  0
   12.1090   -0.8230   22.4360 C   0  0  0  0  0  0  0  0  0  0  0  0
   10.6890   -0.9400   22.4180 C   0  0  0  0  0  0  0  0  0  0  0  0
    9.9370   -2.1290   22.2260 C   0  0  0  0  0  0  0  0  0  0  0  0
    8.5130   -2.0840   22.2410 N   0  0  0  0  0  0  0  0  0  0  0  0
    7.8620   -1.2640   23.1460 C   0  0  0  0  0  0  0  0  0  0  0  0
    7.7320   -1.9820   24.4600 C   0  0  0  0  0  0  0  0  0  0  0  0
    8.5260   -3.0170   24.4370 N   0  0  0  0  0  0  0  0  0  0  0  0
    9.6690   -2.7000   23.7620 C   0  0  0  0  0  0  0  0  0  0  0  0
   10.9810   -2.4230   24.1530 C   0  0  0  0  0  0  0  0  0  0  0  0
   11.7250   -3.4170   24.6650 C   0  0  0  0  0  0  0  0  0  0  0  0
   13.0160   -3.2440   25.0760 C   0  0  0  0  0  0  0  0  0  0  0  0
   13.5830   -2.0740   24.9540 C   0  0  0  0  0  0  0  0  0  0  0  0
   12.8900   -1.0080   24.4300 C   0  0  0  0  0  0  0  0  0  0  0  0
   11.5710   -1.1770   24.0310 C   0  0  0  0  0  0  0  0  0  0  0  0
    7.7740   -3.9550   23.6490 C   0  0  0  0  0  0  0  0  0  0  0  0
    7.7670   -3.3660   22.2640 C   0  0  0  0  0  0  0  0  0  0  0  0
  1  2  2  0
  2  3  1  0
  3  4  1  0
  4  5  2  0
  5  6  1  0
  6  7  2  0
  7  8  1  0
  4  9  1  0
  8  9  2  0
  2 10  1  0
 10 11  1  0
 11 12  2  0
 12 13  1  0
 13 14  1  0
 13 15  2  0
 15 16  1  0
 11 17  1  0
 16 17  2  0
 17 18  1  0
 18 19  1  0
 19 20  1  0
 20 21  1  0
 21 22  1  0
 22 23  1  0
 23 24  1  0
 24 25  2  0
 25 26  1  0
 26 27  2  0
 27 28  1  0
 24 29  1  0
 28 29  2  0
 22 30  1  0
 19 31  1  0
 30 31  1  0
M  END
