pyridine_urea_3118
     RDKit          3D

 21 22  0  0  0  0  0  0  0  0999 V2000
   12.6690    0.1280   23.2210 C   0  0  0  0  0  0  0  0  0  0  0  0
   11.2500    0.3100   23.7190 C   0  0  1  0  0  0  0  0  0  0  0  0
   10.2010    0.6220   22.8530 C   0  0  0  0  0  0  0  0  0  0  0  0
    9.1920   -0.3710   22.4880 N   0  0  0  0  0  0  0  0  0  0  0  0
    8.4030    0.1600   21.4870 C   0  0  0  0  0  0  0  0  0  0  0  0
    8.6370    1.2810   21.0410 O   0  0  0  0  0  0  0  0  0  0  0  0
    7.2830   -0.6700   21.0340 N   0  0  0  0  0  0  0  0  0  0  0  0
    6.5450   -0.0530   20.0590 C   0  0  0  0  0  0  0  0  0  0  0  0
    5.2680    0.6840   20.4520 C   0  0  0  0  0  0  0  0  0  0  0  0
    4.5710    1.3140   19.4310 C   0  0  0  0  0  0  0  0  0  0  0  0
    5.1460    1.2120   18.0140 C   0  0  0  0  0  0  0  0  0  0  0  0
    6.2730    0.5410   17.7250 N   0  0  0  0  0  0  0  0  0  0  0  0
    6.9350   -0.0670   18.7350 C   0  0  0  0  0  0  0  0  0  0  0  0
   10.8250   -1.1360   24.7120 S   0  0  0  0  0  0  0  0  0  0  0  0
   11.8260   -1.8500   23.4890 C   0  0  0  0  0  0  0  0  0  0  0  0
   11.4510   -1.7360   22.1520 C   0  0  0  0  0  0  0  0  0  0  0  0
   12.2340   -2.3000   21.1670 C   0  0  0  0  0  0  0  0  0  0  0  0
   13.3580   -2.9740   21.4660 C   0  0  0  0  0  0  0  0  0  0  0  0
   14.3780   -3.9030   20.0220 Br  0  0  0  0  0  0  0  0  0  0  0  0
   13.7110   -3.0370   22.8340 C   0  0  0  0  0  0  0  0  0  0  0  0
   12.9730   -2.4930   23.8310 C   0  0  0  0  0  0  0  0  0  0  0  0
  2  1  1  6
  2  3  1  0
  3  4  1  0
  4  5  1  0
  5  6  2  0
  5  7  1  0
  7  8  1  0
  8  9  2  0
  9 10  1  0
 10 11  2  0
 11 12  1  0
  8 13  1  0
 12 13  2  0
  2 14  1  0
 14 15  1  0
 15 16  2  0
 16 17  1  0
 17 18  2  0
 18 19  1  0
 18 20  1  0
 15 21  1  0
 20 21  2  0
M  END
