pyridine_urea_2091
     RDKit          3D

 21 23  0  0  0  0  0  0  0  0999 V2000
    8.8140    1.6560   21.1670 O   0  0  0  0  0  0  0  0  0  0  0  0
    8.4410    0.5440   21.5240 C   0  0  0  0  0  0  0  0  0  0  0  0
    7.3480   -0.1590   21.0730 N   0  0  0  0  0  0  0  0  0  0  0  0
    6.5140    0.3610   20.1000 C   0  0  0  0  0  0  0  0  0  0  0  0
    5.2170    1.1180   20.4040 C   0  0  0  0  0  0  0  0  0  0  0  0
    4.5010    1.6220   19.1660 C   0  0  0  0  0  0  0  0  0  0  0  0
    5.1320    1.3250   17.8460 C   0  0  0  0  0  0  0  0  0  0  0  0
    6.2660    0.6380   17.6940 N   0  0  0  0  0  0  0  0  0  0  0  0
    6.9040    0.1880   18.7800 C   0  0  0  0  0  0  0  0  0  0  0  0
    9.1250   -0.1880   22.4240 N   0  0  0  0  0  0  0  0  0  0  0  0
    9.6050   -1.3890   21.8790 C   0  0  2  0  0  0  0  0  0  0  0  0
    9.9130   -2.2990   22.7030 C   0  0  0  0  0  0  0  0  0  0  0  0
   11.1360   -1.9460   22.1200 C   0  0  2  0  0  0  0  0  0  0  0  0
   11.8450   -1.4730   23.1260 C   0  0  0  0  0  0  0  0  0  0  0  0
   12.5170   -2.3760   24.0170 C   0  0  0  0  0  0  0  0  0  0  0  0
   13.1630   -1.7120   25.0480 C   0  0  0  0  0  0  0  0  0  0  0  0
   12.7050   -0.4010   24.5020 C   0  0  0  0  0  0  0  0  0  0  0  0
   12.3750    0.8770   24.1450 C   0  0  0  0  0  0  0  0  0  0  0  0
   11.7610    1.7920   23.3240 F   0  0  0  0  0  0  0  0  0  0  0  0
   11.9020   -0.0980   23.3470 C   0  0  0  0  0  0  0  0  0  0  0  0
   12.6380   -0.5840   24.3700 F   0  0  0  0  0  0  0  0  0  0  0  0
  1  2  2  0
  2  3  1  0
  3  4  1  0
  4  5  2  0
  5  6  1  0
  6  7  2  0
  7  8  1  0
  4  9  1  0
  8  9  2  0
  2 10  1  0
 11 10  1  1
 11 12  1  0
 11 13  1  0
 12 13  1  0
 13 14  1  1
 14 15  2  0
 15 16  1  0
 16 17  2  0
 17 18  1  0
 18 19  1  0
 14 20  1  0
 18 20  2  0
 20 21  1  0
M  END
