pyridine_urea_14330
     RDKit          3D

 23 25  0  0  0  0  0  0  0  0999 V2000
   13.1080   -1.3460   24.8660 C   0  0  0  0  0  0  0  0  0  0  0  0
   12.6570   -0.8650   23.5210 C   0  0  0  0  0  0  0  0  0  0  0  0
   13.3990   -1.2170   22.4360 C   0  0  0  0  0  0  0  0  0  0  0  0
   11.6180   -1.9430   23.3400 C   0  0  0  0  0  0  0  0  0  0  0  0
   10.6750   -1.7100   22.3950 C   0  0  0  0  0  0  0  0  0  0  0  0
    9.7820   -0.5950   22.7230 C   0  0  1  0  0  0  0  0  0  0  0  0
    8.4170   -0.8380   22.5060 N   0  0  0  0  0  0  0  0  0  0  0  0
    7.8340   -0.1900   21.4970 C   0  0  0  0  0  0  0  0  0  0  0  0
    8.3160    0.8610   21.0890 O   0  0  0  0  0  0  0  0  0  0  0  0
    6.6610   -0.8000   20.9560 N   0  0  0  0  0  0  0  0  0  0  0  0
    6.1660   -0.0790   19.9170 C   0  0  0  0  0  0  0  0  0  0  0  0
    4.9850    0.6120   20.0950 C   0  0  0  0  0  0  0  0  0  0  0  0
    4.4770    1.3680   19.0420 C   0  0  0  0  0  0  0  0  0  0  0  0
    5.1850    1.3940   17.8510 C   0  0  0  0  0  0  0  0  0  0  0  0
    6.3290    0.7250   17.6630 N   0  0  0  0  0  0  0  0  0  0  0  0
    6.7950    0.0030   18.6960 C   0  0  0  0  0  0  0  0  0  0  0  0
   10.0380    0.0030   24.0860 C   0  0  0  0  0  0  0  0  0  0  0  0
   10.9450    0.9180   23.7270 C   0  0  0  0  0  0  0  0  0  0  0  0
   10.5970    2.2560   23.6150 C   0  0  0  0  0  0  0  0  0  0  0  0
   11.4610    3.2440   23.1980 C   0  0  0  0  0  0  0  0  0  0  0  0
   12.7470    2.8360   22.8770 C   0  0  0  0  0  0  0  0  0  0  0  0
   13.1110    1.4730   22.9940 C   0  0  0  0  0  0  0  0  0  0  0  0
   12.2220    0.4860   23.4280 C   0  0  0  0  0  0  0  0  0  0  0  0
  2  1  1  0
  2  3  1  0
  2  4  1  0
  4  5  1  0
  5  6  1  0
  6  7  1  1
  7  8  1  0
  8  9  2  0
  8 10  1  0
 10 11  1  0
 11 12  2  0
 12 13  1  0
 13 14  2  0
 14 15  1  0
 11 16  1  0
 15 16  2  0
  6 17  1  0
 17 18  1  0
 18 19  2  0
 19 20  1  0
 20 21  2  0
 21 22  1  0
  2 23  1  0
 18 23  1  0
 22 23  2  0
M  END
