pyridine_urea_3228
     RDKit          3D

 20 20  0  0  0  0  0  0  0  0999 V2000
   11.9820    1.1710   23.4290 C   0  0  0  0  0  0  0  0  0  0  0  0
   10.5110    0.8710   23.3740 C   0  0  0  0  0  0  0  0  0  0  0  0
   10.0740   -0.4560   23.3420 C   0  0  1  0  0  0  0  0  0  0  0  0
    8.7910   -0.6210   22.6690 N   0  0  0  0  0  0  0  0  0  0  0  0
    8.3780    0.1210   21.5780 C   0  0  0  0  0  0  0  0  0  0  0  0
    8.8950    1.1790   21.1930 O   0  0  0  0  0  0  0  0  0  0  0  0
    7.2190   -0.5560   20.9890 N   0  0  0  0  0  0  0  0  0  0  0  0
    6.5130    0.0810   20.0080 C   0  0  0  0  0  0  0  0  0  0  0  0
    5.2410    0.8340   20.3760 C   0  0  0  0  0  0  0  0  0  0  0  0
    4.5770    1.4700   19.3330 C   0  0  0  0  0  0  0  0  0  0  0  0
    5.1840    1.3530   17.9310 C   0  0  0  0  0  0  0  0  0  0  0  0
    6.3090    0.6620   17.6780 N   0  0  0  0  0  0  0  0  0  0  0  0
    6.9330    0.0530   18.7020 C   0  0  0  0  0  0  0  0  0  0  0  0
   10.9020   -1.4660   22.8560 C   0  0  0  0  0  0  0  0  0  0  0  0
   11.2550   -1.6280   21.5470 O   0  0  0  0  0  0  0  0  0  0  0  0
   11.2880   -2.2380   23.8970 O   0  0  0  0  0  0  0  0  0  0  0  0
   12.5740   -1.9110   24.4250 C   0  0  0  0  0  0  0  0  0  0  0  0
   13.3560   -2.9430   24.8910 C   0  0  0  0  0  0  0  0  0  0  0  0
   12.6260   -0.6480   24.9890 C   0  0  0  0  0  0  0  0  0  0  0  0
   13.4220   -1.9930   23.1420 C   0  0  0  0  0  0  0  0  0  0  0  0
  1  2  1  0
  3  2  1  6
  3  4  1  0
  4  5  1  0
  5  6  2  0
  5  7  1  0
  7  8  1  0
  8  9  2  0
  9 10  1  0
 10 11  2  0
 11 12  1  0
  8 13  1  0
 12 13  2  0
  3 14  1  0
 14 15  2  0
 14 16  1  0
 17 16  1  0
 17 18  1  0
 17 19  1  0
 17 20  1  0
M  END
