pyridine_urea_676
     RDKit          3D

 22 24  0  0  0  0  0  0  0  0999 V2000
    8.8350    1.3900   21.1010 O   0  0  0  0  0  0  0  0  0  0  0  0
    8.3730    0.3310   21.5350 C   0  0  0  0  0  0  0  0  0  0  0  0
    7.3120   -0.3650   20.9900 N   0  0  0  0  0  0  0  0  0  0  0  0
    6.4930    0.2140   20.0210 C   0  0  0  0  0  0  0  0  0  0  0  0
    5.3090    0.8970   20.2690 C   0  0  0  0  0  0  0  0  0  0  0  0
    4.6070    1.4500   19.1980 C   0  0  0  0  0  0  0  0  0  0  0  0
    5.1220    1.2920   17.9350 C   0  0  0  0  0  0  0  0  0  0  0  0
    6.2520    0.6280   17.6710 N   0  0  0  0  0  0  0  0  0  0  0  0
    6.9040    0.1090   18.7160 C   0  0  0  0  0  0  0  0  0  0  0  0
    8.8670   -0.3000   22.6450 N   0  0  0  0  0  0  0  0  0  0  0  0
   10.1530   -0.0620   23.1430 C   0  0  2  0  0  0  0  0  0  0  0  0
   11.1150   -0.5590   22.2830 C   0  0  0  0  0  0  0  0  0  0  0  0
   11.7330   -1.5410   22.9810 C   0  0  2  0  0  0  0  0  0  0  0  0
   10.7350   -1.9050   23.8620 C   0  0  0  0  0  0  0  0  0  0  0  0
   10.5410   -0.6290   24.3490 C   0  0  1  0  0  0  0  0  0  0  0  0
   11.9420   -0.1550   24.5790 C   0  0  0  0  0  0  0  0  0  0  0  0
   12.7040   -1.0440   23.8010 C   0  0  2  0  0  0  0  0  0  0  0  0
   13.5250   -0.5080   23.0770 O   0  0  0  0  0  0  0  0  0  0  0  0
   13.1360   -2.2160   24.4320 C   0  0  0  0  0  0  0  0  0  0  0  0
   13.9640   -2.8920   23.6150 F   0  0  0  0  0  0  0  0  0  0  0  0
   13.7570   -2.0010   25.6040 F   0  0  0  0  0  0  0  0  0  0  0  0
   12.1450   -3.1010   24.7260 F   0  0  0  0  0  0  0  0  0  0  0  0
  1  2  2  0
  2  3  1  0
  3  4  1  0
  4  5  2  0
  5  6  1  0
  6  7  2  0
  7  8  1  0
  4  9  1  0
  8  9  2  0
  2 10  1  0
 11 10  1  6
 11 12  1  0
 13 12  1  6
 13 14  1  0
 11 15  1  0
 14 15  1  0
 15 16  1  6
 13 17  1  0
 16 17  1  0
 17 18  1  6
 17 19  1  0
 19 20  1  0
 19 21  1  0
 19 22  1  0
M  END
