pyridine_urea_14254
     RDKit          3D

 22 24  0  0  0  0  0  0  0  0999 V2000
    9.3000    0.2790   21.7090 C   0  0  0  0  0  0  0  0  0  0  0  0
   10.5390   -0.1990   22.4190 C   0  0  2  0  0  0  0  0  0  0  0  0
   10.1950   -1.0990   23.3870 C   0  0  0  0  0  0  0  0  0  0  0  0
    8.7790   -1.4120   22.9680 N   0  0  0  0  0  0  0  0  0  0  0  0
    8.2840   -1.0000   21.7420 C   0  0  0  0  0  0  0  0  0  0  0  0
    9.1090   -0.6700   20.9370 O   0  0  0  0  0  0  0  0  0  0  0  0
    6.8510   -0.9540   21.4380 N   0  0  0  0  0  0  0  0  0  0  0  0
    6.3920   -0.2540   20.3080 C   0  0  0  0  0  0  0  0  0  0  0  0
    5.1520    0.6040   20.5010 C   0  0  0  0  0  0  0  0  0  0  0  0
    4.5870    1.3970   19.3190 C   0  0  0  0  0  0  0  0  0  0  0  0
    5.3280    1.2640   18.0080 C   0  0  0  0  0  0  0  0  0  0  0  0
    6.4320    0.4690   17.9300 N   0  0  0  0  0  0  0  0  0  0  0  0
    6.9540   -0.2650   19.0220 C   0  0  0  0  0  0  0  0  0  0  0  0
   11.0300    1.2370   22.6810 C   0  0  0  0  0  0  0  0  0  0  0  0
   12.2390    1.8550   22.6190 N   0  0  0  0  0  0  0  0  0  0  0  0
   12.0800    3.2810   22.8400 C   0  0  0  0  0  0  0  0  0  0  0  0
   13.2500    3.9910   22.7390 C   0  0  0  0  0  0  0  0  0  0  0  0
   13.1950    5.3630   22.9260 C   0  0  0  0  0  0  0  0  0  0  0  0
   11.9810    5.9810   23.2180 C   0  0  0  0  0  0  0  0  0  0  0  0
   10.7950    5.2550   23.3210 C   0  0  0  0  0  0  0  0  0  0  0  0
   10.8560    3.8770   23.1180 C   0  0  0  0  0  0  0  0  0  0  0  0
    9.8140    2.4990   23.0810 S   0  0  0  0  0  0  0  0  0  0  0  0
  2  1  1  6
  2  3  1  0
  3  4  1  0
  4  5  1  0
  5  6  2  0
  5  7  1  0
  7  8  1  0
  8  9  2  0
  9 10  1  0
 10 11  2  0
 11 12  1  0
  8 13  1  0
 12 13  2  0
  2 14  1  0
 14 15  2  0
 15 16  1  0
 16 17  2  0
 17 18  1  0
 18 19  2  0
 19 20  1  0
 16 21  1  0
 20 21  2  0
 14 22  1  0
 21 22  1  0
M  END
