pyridine_urea_9246
     RDKit          3D

 17 18  0  0  0  0  0  0  0  0999 V2000
    8.9040    1.1440   21.1970 O   0  0  0  0  0  0  0  0  0  0  0  0
    8.4200    0.0610   21.5560 C   0  0  0  0  0  0  0  0  0  0  0  0
    8.8940   -0.7460   22.5650 N   0  0  0  0  0  0  0  0  0  0  0  0
   10.2390   -0.9460   22.9310 C   0  0  0  0  0  0  0  0  0  0  0  0
   10.8370    0.0250   23.7330 C   0  0  1  0  0  0  0  0  0  0  0  0
   10.0250    0.2580   24.7720 F   0  0  0  0  0  0  0  0  0  0  0  0
   12.1270   -0.2950   24.0760 C   0  0  0  0  0  0  0  0  0  0  0  0
   12.8820    0.2740   23.0740 C   0  0  0  0  0  0  0  0  0  0  0  0
   12.3320    1.2160   22.5280 O   0  0  0  0  0  0  0  0  0  0  0  0
   10.9930    1.3370   22.9900 C   0  0  0  0  0  0  0  0  0  0  0  0
    7.2930   -0.5040   21.0050 N   0  0  0  0  0  0  0  0  0  0  0  0
    6.5870    0.0750   20.0120 C   0  0  0  0  0  0  0  0  0  0  0  0
    5.2990    0.8520   20.3400 C   0  0  0  0  0  0  0  0  0  0  0  0
    4.6340    1.4360   19.2800 C   0  0  0  0  0  0  0  0  0  0  0  0
    5.1470    1.2960   17.9940 C   0  0  0  0  0  0  0  0  0  0  0  0
    6.2650    0.6120   17.6930 N   0  0  0  0  0  0  0  0  0  0  0  0
    6.9560    0.0210   18.6880 C   0  0  0  0  0  0  0  0  0  0  0  0
  1  2  2  0
  2  3  1  0
  3  4  1  0
  4  5  1  0
  5  6  1  1
  5  7  1  0
  7  8  1  0
  8  9  1  0
  5 10  1  0
  9 10  1  0
  2 11  1  0
 11 12  1  0
 12 13  2  0
 13 14  1  0
 14 15  2  0
 15 16  1  0
 12 17  1  0
 16 17  2  0
M  END
