pyridine_urea_15145
     RDKit          3D

 18 19  0  0  0  0  0  0  0  0999 V2000
    6.4490   -1.8150   23.1640 O   0  0  0  0  0  0  0  0  0  0  0  0
    7.5180   -2.3610   23.4070 C   0  0  0  0  0  0  0  0  0  0  0  0
    8.8440   -1.5930   23.4680 C   0  0  0  0  0  0  0  0  0  0  0  0
    9.2490   -1.0720   22.1560 N   0  0  0  0  0  0  0  0  0  0  0  0
    8.5010   -0.1230   21.4720 C   0  0  0  0  0  0  0  0  0  0  0  0
    9.0810    1.1120   21.2430 O   0  0  0  0  0  0  0  0  0  0  0  0
    7.2530   -0.5730   21.1010 N   0  0  0  0  0  0  0  0  0  0  0  0
    6.5460    0.0520   20.0680 C   0  0  0  0  0  0  0  0  0  0  0  0
    5.2660    0.8150   20.4100 C   0  0  0  0  0  0  0  0  0  0  0  0
    4.5080    1.5050   19.2920 C   0  0  0  0  0  0  0  0  0  0  0  0
    5.1800    1.3190   17.9460 C   0  0  0  0  0  0  0  0  0  0  0  0
    6.3040    0.6290   17.7170 N   0  0  0  0  0  0  0  0  0  0  0  0
    6.9470    0.0230   18.7440 C   0  0  0  0  0  0  0  0  0  0  0  0
    7.7110   -3.7010   23.6630 N   0  0  0  0  0  0  0  0  0  0  0  0
    6.6220   -4.5110   23.9080 C   0  0  0  0  0  0  0  0  0  0  0  0
    6.8450   -5.7600   23.3670 C   0  0  0  0  0  0  0  0  0  0  0  0
    5.8670   -6.4760   23.0100 C   0  0  0  0  0  0  0  0  0  0  0  0
    6.3540   -5.7640   21.8580 C   0  0  0  0  0  0  0  0  0  0  0  0
  1  2  2  0
  2  3  1  0
  3  4  1  0
  4  5  1  0
  5  6  2  0
  5  7  1  0
  7  8  1  0
  8  9  2  0
  9 10  1  0
 10 11  2  0
 11 12  1  0
  8 13  1  0
 12 13  2  0
  2 14  1  0
 14 15  1  0
 15 16  1  0
 16 17  1  0
 16 18  1  0
 17 18  1  0
M  END
