pyridine_urea_14394
     RDKit          3D

 21 22  0  0  0  0  0  0  0  0999 V2000
   11.7850   -2.9880   23.9150 C   0  0  0  0  0  0  0  0  0  0  0  0
   11.6180   -2.5170   22.4850 C   0  0  0  0  0  0  0  0  0  0  0  0
   10.3580   -2.3670   21.9340 C   0  0  0  0  0  0  0  0  0  0  0  0
   12.2110   -1.2680   22.5390 N   0  0  0  0  0  0  0  0  0  0  0  0
   13.0980   -0.6320   21.9840 C   0  0  0  0  0  0  0  0  0  0  0  0
   13.7480   -1.5840   20.6870 S   0  0  0  0  0  0  0  0  0  0  0  0
   13.2820    0.6270   22.5280 N   0  0  0  0  0  0  0  0  0  0  0  0
   12.3460    0.7300   23.4730 N   0  0  0  0  0  0  0  0  0  0  0  0
   11.7390   -0.4620   23.4010 C   0  0  0  0  0  0  0  0  0  0  0  0
   10.5950   -1.0200   24.1290 C   0  0  0  0  0  0  0  0  0  0  0  0
    9.3350   -0.4470   23.5020 C   0  0  0  0  0  0  0  0  0  0  0  0
    8.9130   -0.7820   22.3050 N   0  0  0  0  0  0  0  0  0  0  0  0
    8.0630   -0.0490   21.4730 C   0  0  0  0  0  0  0  0  0  0  0  0
    8.3880    1.0360   21.0050 O   0  0  0  0  0  0  0  0  0  0  0  0
    6.8570   -0.6920   21.2640 N   0  0  0  0  0  0  0  0  0  0  0  0
    6.3690   -0.0300   20.0800 C   0  0  0  0  0  0  0  0  0  0  0  0
    5.2040    0.7220   20.2690 C   0  0  0  0  0  0  0  0  0  0  0  0
    4.6290    1.4230   19.1930 C   0  0  0  0  0  0  0  0  0  0  0  0
    5.2280    1.3630   17.9460 C   0  0  0  0  0  0  0  0  0  0  0  0
    6.3520    0.6590   17.6780 N   0  0  0  0  0  0  0  0  0  0  0  0
    6.9180   -0.0620   18.8250 C   0  0  0  0  0  0  0  0  0  0  0  0
  1  2  1  0
  2  3  1  0
  2  4  1  0
  4  5  1  0
  5  6  1  0
  5  7  2  0
  7  8  1  0
  4  9  1  0
  8  9  2  0
  9 10  1  0
 10 11  1  0
 11 12  1  0
 12 13  1  0
 13 14  2  0
 13 15  1  0
 15 16  1  0
 16 17  2  0
 17 18  1  0
 18 19  2  0
 19 20  1  0
 16 21  1  0
 20 21  2  0
M  END
