pyridine_urea_5196
     RDKit          3D

 19 20  0  0  0  0  0  0  0  0999 V2000
   13.0920   -2.1410   21.1810 C   0  0  0  0  0  0  0  0  0  0  0  0
   12.6330   -1.2040   22.0460 N   0  0  0  0  0  0  0  0  0  0  0  0
   11.3460   -1.0000   22.3530 C   0  0  0  0  0  0  0  0  0  0  0  0
   11.4230   -0.6730   23.7040 C   0  0  2  0  0  0  0  0  0  0  0  0
   10.2790   -0.0740   24.1220 C   0  0  0  0  0  0  0  0  0  0  0  0
    9.1740   -0.6520   23.5610 C   0  0  0  0  0  0  0  0  0  0  0  0
    8.2230    0.1170   23.0490 N   0  0  0  0  0  0  0  0  0  0  0  0
    8.2180    0.3710   21.7180 C   0  0  0  0  0  0  0  0  0  0  0  0
    8.8960    1.2600   21.1880 O   0  0  0  0  0  0  0  0  0  0  0  0
    7.2830   -0.5280   21.0610 N   0  0  0  0  0  0  0  0  0  0  0  0
    6.5730    0.0700   19.9750 C   0  0  0  0  0  0  0  0  0  0  0  0
    5.2980    0.8480   20.3110 C   0  0  0  0  0  0  0  0  0  0  0  0
    4.6180    1.4490   19.2570 C   0  0  0  0  0  0  0  0  0  0  0  0
    5.1350    1.3050   17.9810 C   0  0  0  0  0  0  0  0  0  0  0  0
    6.2490    0.6150   17.6730 N   0  0  0  0  0  0  0  0  0  0  0  0
    6.9380    0.0170   18.6600 C   0  0  0  0  0  0  0  0  0  0  0  0
   12.7160    0.0460   24.1260 C   0  0  0  0  0  0  0  0  0  0  0  0
   13.0840   -1.1060   23.4070 C   0  0  0  0  0  0  0  0  0  0  0  0
   13.8040   -2.0390   24.2010 O   0  0  0  0  0  0  0  0  0  0  0  0
  1  2  1  0
  2  3  1  0
  3  4  1  0
  4  5  1  6
  5  6  1  0
  6  7  1  0
  7  8  1  0
  8  9  2  0
  8 10  1  0
 10 11  1  0
 11 12  2  0
 12 13  1  0
 13 14  2  0
 14 15  1  0
 11 16  1  0
 15 16  2  0
  4 17  1  0
  2 18  1  0
 17 18  1  0
 18 19  2  0
M  END
