pyridine_urea_9627
     RDKit          3D

 20 22  0  0  0  0  0  0  0  0999 V2000
    8.6930    0.8680   21.2580 O   0  0  0  0  0  0  0  0  0  0  0  0
    8.4470   -0.3120   21.4560 C   0  0  0  0  0  0  0  0  0  0  0  0
    9.1480   -1.0780   22.3510 N   0  0  0  0  0  0  0  0  0  0  0  0
   10.4950   -0.6340   22.5070 C   0  0  0  0  0  0  0  0  0  0  0  0
   10.6400    0.8340   22.8610 C   0  0  0  0  0  0  0  0  0  0  0  0
   12.0500    1.3770   23.0140 C   0  0  0  0  0  0  0  0  0  0  0  0
   13.1620    0.3710   22.8020 C   0  0  0  0  0  0  0  0  0  0  0  0
   12.8800   -0.9600   22.4850 N   0  0  0  0  0  0  0  0  0  0  0  0
   11.6040   -1.4390   22.3430 C   0  0  0  0  0  0  0  0  0  0  0  0
    7.4640   -1.0010   20.7960 N   0  0  0  0  0  0  0  0  0  0  0  0
    6.4110   -0.2620   20.2370 C   0  0  0  0  0  0  0  0  0  0  0  0
    6.5430    0.9880   19.8170 C   0  0  0  0  0  0  0  0  0  0  0  0
    6.0020    0.9010   18.6250 N   0  0  0  0  0  0  0  0  0  0  0  0
    4.7890    1.4660   18.9200 C   0  0  0  0  0  0  0  0  0  0  0  0
    4.3660    2.5790   18.2370 C   0  0  0  0  0  0  0  0  0  0  0  0
    3.1470    3.2070   18.5350 C   0  0  0  0  0  0  0  0  0  0  0  0
    2.3170    2.7180   19.5330 C   0  0  0  0  0  0  0  0  0  0  0  0
    2.7640    1.5140   20.2670 C   0  0  0  0  0  0  0  0  0  0  0  0
    3.9840    0.9350   19.9310 C   0  0  0  0  0  0  0  0  0  0  0  0
    6.1300   -0.5080   18.7370 C   0  0  0  0  0  0  0  0  0  0  0  0
  1  2  2  0
  2  3  1  0
  3  4  1  0
  4  5  2  0
  5  6  1  0
  6  7  2  0
  7  8  1  0
  4  9  1  0
  8  9  2  0
  2 10  1  0
 10 11  1  0
 11 12  1  0
 12 13  1  0
 13 14  1  0
 14 15  2  0
 15 16  1  0
 16 17  2  0
 17 18  1  0
 14 19  1  0
 18 19  2  0
 11 20  1  0
 13 20  1  0
M  END
