pyridine_urea_6528
     RDKit          3D

 22 23  0  0  0  0  0  0  0  0999 V2000
    0.9940    1.6170   20.8890 C   0  0  0  0  0  0  0  0  0  0  0  0
    2.1950    0.8690   20.6910 O   0  0  0  0  0  0  0  0  0  0  0  0
    3.1950    1.6090   20.1170 C   0  0  0  0  0  0  0  0  0  0  0  0
    3.0390    2.7990   19.8550 O   0  0  0  0  0  0  0  0  0  0  0  0
    4.5010    0.8200   19.8610 C   0  0  0  0  0  0  0  0  0  0  0  0
    5.2900    0.2560   20.9750 C   0  0  0  0  0  0  0  0  0  0  0  0
    6.5250   -0.4590   20.5510 C   0  0  0  0  0  0  0  0  0  0  0  0
    7.5400   -1.1290   21.2920 N   0  0  0  0  0  0  0  0  0  0  0  0
    8.5720   -0.3530   21.7040 C   0  0  0  0  0  0  0  0  0  0  0  0
    8.7300    1.0190   21.2550 O   0  0  0  0  0  0  0  0  0  0  0  0
    9.4350   -1.0630   22.6010 N   0  0  0  0  0  0  0  0  0  0  0  0
   10.6720   -0.5340   22.6870 C   0  0  0  0  0  0  0  0  0  0  0  0
   11.7890   -1.3440   22.5420 C   0  0  0  0  0  0  0  0  0  0  0  0
   13.0420   -0.8040   22.6170 C   0  0  0  0  0  0  0  0  0  0  0  0
   13.1740    0.5480   22.8350 C   0  0  0  0  0  0  0  0  0  0  0  0
   12.1360    1.3770   22.9810 N   0  0  0  0  0  0  0  0  0  0  0  0
   10.9000    0.8110   22.9070 C   0  0  0  0  0  0  0  0  0  0  0  0
    6.9770   -0.6230   19.1800 C   0  0  0  0  0  0  0  0  0  0  0  0
    6.2410   -0.1030   18.1830 N   0  0  0  0  0  0  0  0  0  0  0  0
    5.1030    0.5550   18.4710 C   0  0  0  0  0  0  0  0  0  0  0  0
    4.4670    1.0220   17.4660 O   0  0  0  0  0  0  0  0  0  0  0  0
    5.0430    2.2200   17.1300 C   0  0  0  0  0  0  0  0  0  0  0  0
  1  2  1  0
  2  3  1  0
  3  4  2  0
  3  5  1  0
  5  6  2  0
  6  7  1  0
  7  8  1  0
  8  9  1  0
  9 10  2  0
  9 11  1  0
 11 12  1  0
 12 13  2  0
 13 14  1  0
 14 15  2  0
 15 16  1  0
 12 17  1  0
 16 17  2  0
  7 18  2  0
 18 19  1  0
  5 20  1  0
 19 20  2  0
 20 21  1  0
 21 22  1  0
M  END
