pyridine_urea_14989
     RDKit          3D

 18 19  0  0  0  0  0  0  0  0999 V2000
    8.7610    1.3590   21.1440 O   0  0  0  0  0  0  0  0  0  0  0  0
    8.5500    0.1700   21.4020 C   0  0  0  0  0  0  0  0  0  0  0  0
    7.3410   -0.4610   21.1530 N   0  0  0  0  0  0  0  0  0  0  0  0
    6.5900    0.1270   20.0790 C   0  0  0  0  0  0  0  0  0  0  0  0
    5.3290    0.9030   20.4420 C   0  0  0  0  0  0  0  0  0  0  0  0
    4.5520    1.5460   19.2950 C   0  0  0  0  0  0  0  0  0  0  0  0
    5.1410    1.3330   17.9050 C   0  0  0  0  0  0  0  0  0  0  0  0
    6.3060    0.5810   17.7410 N   0  0  0  0  0  0  0  0  0  0  0  0
    6.9870    0.0090   18.7720 C   0  0  0  0  0  0  0  0  0  0  0  0
    9.4890   -0.6780   21.9450 N   0  0  0  0  0  0  0  0  0  0  0  0
   10.1150   -0.4090   23.1850 C   0  0  1  0  0  0  0  0  0  0  0  0
   10.1150   -1.4380   24.1000 C   0  0  0  0  0  0  0  0  0  0  0  0
   11.3250   -1.7790   24.6450 O   0  0  0  0  0  0  0  0  0  0  0  0
   11.6190   -0.1350   22.9460 C   0  0  0  0  0  0  0  0  0  0  0  0
   12.9310   -0.3610   22.4290 C   0  0  0  0  0  0  0  0  0  0  0  0
   13.2600   -1.7180   21.4170 S   0  0  0  0  0  0  0  0  0  0  0  0
   11.6000   -2.0740   21.6280 C   0  0  0  0  0  0  0  0  0  0  0  0
   11.0100   -1.2060   22.3850 N   0  0  0  0  0  0  0  0  0  0  0  0
  1  2  2  0
  2  3  1  0
  3  4  1  0
  4  5  2  0
  5  6  1  0
  6  7  2  0
  7  8  1  0
  4  9  1  0
  8  9  2  0
  2 10  1  0
 10 11  1  0
 11 12  1  1
 12 13  1  0
 11 14  1  0
 14 15  2  0
 15 16  1  0
 16 17  1  0
 14 18  1  0
 17 18  2  0
M  END
