pyridine_urea_14654
     RDKit          3D

 21 22  0  0  0  0  0  0  0  0999 V2000
    9.9180    1.1640   24.9870 N   0  0  0  0  0  0  0  0  0  0  0  0
    9.5370    0.3010   24.0380 C   0  0  0  0  0  0  0  0  0  0  0  0
    8.4630   -0.2840   24.1530 O   0  0  0  0  0  0  0  0  0  0  0  0
   10.4080    0.0840   22.7960 C   0  0  2  0  0  0  0  0  0  0  0  0
    9.5130   -0.6530   21.8780 N   0  0  0  0  0  0  0  0  0  0  0  0
    8.4470    0.1670   21.3130 C   0  0  0  0  0  0  0  0  0  0  0  0
    8.7410    1.3620   21.1110 O   0  0  0  0  0  0  0  0  0  0  0  0
    7.2950   -0.4470   21.0510 N   0  0  0  0  0  0  0  0  0  0  0  0
    6.5760    0.1150   20.0320 C   0  0  0  0  0  0  0  0  0  0  0  0
    5.4150    0.8030   20.3100 C   0  0  0  0  0  0  0  0  0  0  0  0
    4.6500    1.4240   19.3450 C   0  0  0  0  0  0  0  0  0  0  0  0
    5.1210    1.3410   17.9000 C   0  0  0  0  0  0  0  0  0  0  0  0
    6.2410    0.6540   17.6680 N   0  0  0  0  0  0  0  0  0  0  0  0
    6.9170    0.0800   18.6830 C   0  0  0  0  0  0  0  0  0  0  0  0
   11.7050   -0.7100   22.8730 C   0  0  0  0  0  0  0  0  0  0  0  0
   11.6250   -1.9740   22.6720 C   0  0  0  0  0  0  0  0  0  0  0  0
   12.6720   -1.1500   22.9490 C   0  0  0  0  0  0  0  0  0  0  0  0
   11.5120    0.0660   22.9630 C   0  0  0  0  0  0  0  0  0  0  0  0
   11.0390    1.7440   23.1350 Cl  0  0  0  0  0  0  0  0  0  0  0  0
   12.6210    0.6550   23.2040 C   0  0  0  0  0  0  0  0  0  0  0  0
   13.2200   -0.4110   23.1330 C   0  0  0  0  0  0  0  0  0  0  0  0
  1  2  1  0
  2  3  2  0
  2  4  1  0
  4  5  1  6
  5  6  1  0
  6  7  2  0
  6  8  1  0
  8  9  1  0
  9 10  2  0
 10 11  1  0
 11 12  2  0
 12 13  1  0
  9 14  1  0
 13 14  2  0
  4 15  1  0
 15 16  2  0
 16 17  1  0
 17 18  2  0
 18 19  1  0
 18 20  1  0
 15 21  1  0
 20 21  2  0
M  END
