pyridine_urea_3527
     RDKit          3D

 17 18  0  0  0  0  0  0  0  0999 V2000
   13.2470    0.8030   22.6750 C   0  0  0  0  0  0  0  0  0  0  0  0
   12.4420    0.1500   23.7370 C   0  0  1  0  0  0  0  0  0  0  0  0
   11.0900    0.4270   23.2730 C   0  0  0  0  0  0  0  0  0  0  0  0
   11.0270   -1.0390   23.0990 C   0  0  2  0  0  0  0  0  0  0  0  0
   10.9120   -1.5030   21.6710 C   0  0  0  0  0  0  0  0  0  0  0  0
    9.6910   -1.4270   23.6760 C   0  0  0  0  0  0  0  0  0  0  0  0
    8.7410   -1.5390   22.5420 N   0  0  0  0  0  0  0  0  0  0  0  0
    8.3380   -0.4940   21.7090 C   0  0  0  0  0  0  0  0  0  0  0  0
    8.9730    0.5400   21.5220 O   0  0  0  0  0  0  0  0  0  0  0  0
    7.0430   -0.8430   21.1120 N   0  0  0  0  0  0  0  0  0  0  0  0
    6.4000   -0.0810   20.1120 C   0  0  0  0  0  0  0  0  0  0  0  0
    5.2350    0.6710   20.3150 C   0  0  0  0  0  0  0  0  0  0  0  0
    4.6930    1.3740   19.2470 C   0  0  0  0  0  0  0  0  0  0  0  0
    5.3110    1.3230   18.0100 C   0  0  0  0  0  0  0  0  0  0  0  0
    6.4280    0.6110   17.7900 N   0  0  0  0  0  0  0  0  0  0  0  0
    6.9410   -0.0710   18.8370 C   0  0  0  0  0  0  0  0  0  0  0  0
   12.2420   -1.3950   23.7770 C   0  0  0  0  0  0  0  0  0  0  0  0
  2  1  1  6
  2  3  1  0
  3  4  1  0
  4  5  1  6
  4  6  1  0
  6  7  1  0
  7  8  1  0
  8  9  2  0
  8 10  1  0
 10 11  1  0
 11 12  2  0
 12 13  1  0
 13 14  2  0
 14 15  1  0
 11 16  1  0
 15 16  2  0
  2 17  1  0
  4 17  1  0
M  END
