pyridine_urea_4438
     RDKit          3D

 23 25  0  0  0  0  0  0  0  0999 V2000
    8.9390    0.6470   21.4360 O   0  0  0  0  0  0  0  0  0  0  0  0
    8.3780   -0.4390   21.4130 C   0  0  0  0  0  0  0  0  0  0  0  0
    9.0300   -1.6170   21.6510 N   0  0  0  0  0  0  0  0  0  0  0  0
   10.3080   -1.5170   22.2800 C   0  0  0  0  0  0  0  0  0  0  0  0
   10.2000   -0.5660   23.4340 C   0  0  0  0  0  0  0  0  0  0  0  0
   10.8050    0.7840   23.1820 C   0  0  0  0  0  0  0  0  0  0  0  0
   11.8860   -0.1840   23.1330 C   0  0  0  0  0  0  0  0  0  0  0  0
   13.2500   -0.2140   22.9370 C   0  0  0  0  0  0  0  0  0  0  0  0
   13.3620    1.1020   22.7890 N   0  0  0  0  0  0  0  0  0  0  0  0
   12.0530    1.6810   22.9090 N   0  0  0  0  0  0  0  0  0  0  0  0
   11.9770    3.0920   22.8010 C   0  0  0  0  0  0  0  0  0  0  0  0
   10.7930    3.8080   22.9190 C   0  0  0  0  0  0  0  0  0  0  0  0
   10.7580    5.1890   22.8340 C   0  0  0  0  0  0  0  0  0  0  0  0
   11.8960    5.9300   22.6260 C   0  0  0  0  0  0  0  0  0  0  0  0
   13.1090    5.2630   22.4950 C   0  0  0  0  0  0  0  0  0  0  0  0
   13.1340    3.8640   22.5850 C   0  0  0  0  0  0  0  0  0  0  0  0
    7.0550   -0.6520   21.1390 N   0  0  0  0  0  0  0  0  0  0  0  0
    6.4160    0.0230   20.0290 C   0  0  0  0  0  0  0  0  0  0  0  0
    5.2450    0.7360   20.2780 C   0  0  0  0  0  0  0  0  0  0  0  0
    4.5680    1.4560   19.1760 C   0  0  0  0  0  0  0  0  0  0  0  0
    5.1740    1.3620   17.9420 C   0  0  0  0  0  0  0  0  0  0  0  0
    6.2990    0.6720   17.6880 N   0  0  0  0  0  0  0  0  0  0  0  0
    6.8910    0.0220   18.7260 C   0  0  0  0  0  0  0  0  0  0  0  0
  1  2  2  0
  2  3  1  0
  3  4  1  0
  4  5  1  0
  5  6  1  0
  6  7  2  0
  7  8  1  0
  8  9  2  0
  6 10  1  0
  9 10  1  0
 10 11  1  0
 11 12  2  0
 12 13  1  0
 13 14  2  0
 14 15  1  0
 11 16  1  0
 15 16  2  0
  2 17  1  0
 17 18  1  0
 18 19  2  0
 19 20  1  0
 20 21  2  0
 21 22  1  0
 18 23  1  0
 22 23  2  0
M  END
