pyridine_urea_387
     RDKit          3D

 26 28  0  0  0  0  0  0  0  0999 V2000
   13.5680    4.0180   22.5350 C   0  0  0  0  0  0  0  0  0  0  0  0
   12.6160    3.1250   22.8450 N   0  0  0  0  0  0  0  0  0  0  0  0
   12.7670    1.6750   22.7970 C   0  0  0  0  0  0  0  0  0  0  0  0
   13.9250    0.8640   22.7550 O   0  0  0  0  0  0  0  0  0  0  0  0
   11.6260    1.0040   22.7760 C   0  0  0  0  0  0  0  0  0  0  0  0
   10.7190    1.9120   23.1760 C   0  0  0  0  0  0  0  0  0  0  0  0
    9.4180    1.6470   23.3130 C   0  0  0  0  0  0  0  0  0  0  0  0
    8.9830    0.4250   23.0030 C   0  0  0  0  0  0  0  0  0  0  0  0
    9.9660   -0.6110   22.5150 C   0  0  0  0  0  0  0  0  0  0  0  0
    9.2210   -1.7920   22.1700 N   0  0  0  0  0  0  0  0  0  0  0  0
    8.3270   -0.9270   21.3670 C   0  0  0  0  0  0  0  0  0  0  0  0
    8.6410    0.2220   21.0640 O   0  0  0  0  0  0  0  0  0  0  0  0
    7.0880   -1.2480   20.9060 N   0  0  0  0  0  0  0  0  0  0  0  0
    6.3680   -0.4030   20.0290 C   0  0  0  0  0  0  0  0  0  0  0  0
    5.1680    0.2840   20.3200 C   0  0  0  0  0  0  0  0  0  0  0  0
    4.5460    1.1170   19.3620 C   0  0  0  0  0  0  0  0  0  0  0  0
    5.1720    1.2690   18.0320 C   0  0  0  0  0  0  0  0  0  0  0  0
    6.3540    0.5640   17.8040 N   0  0  0  0  0  0  0  0  0  0  0  0
    6.9160   -0.2320   18.7620 C   0  0  0  0  0  0  0  0  0  0  0  0
   11.3260   -0.3270   22.4220 C   0  0  0  0  0  0  0  0  0  0  0  0
   11.3710    3.8260   23.1390 C   0  0  0  0  0  0  0  0  0  0  0  0
   10.1770    3.5800   22.4510 C   0  0  0  0  0  0  0  0  0  0  0  0
    8.9950    4.2620   22.7400 C   0  0  0  0  0  0  0  0  0  0  0  0
    8.9780    5.2210   23.7360 C   0  0  0  0  0  0  0  0  0  0  0  0
   10.1460    5.5020   24.4450 C   0  0  0  0  0  0  0  0  0  0  0  0
   11.3190    4.8150   24.1450 C   0  0  0  0  0  0  0  0  0  0  0  0
  1  2  1  0
  2  3  1  0
  3  4  2  0
  3  5  1  0
  5  6  2  0
  6  7  1  0
  7  8  2  0
  8  9  1  0
  9 10  1  0
 10 11  1  0
 11 12  2  0
 11 13  1  0
 13 14  1  0
 14 15  2  0
 15 16  1  0
 16 17  2  0
 17 18  1  0
 14 19  1  0
 18 19  2  0
  5 20  1  0
  9 20  2  0
  2 21  1  0
 21 22  2  0
 22 23  1  0
 23 24  2  0
 24 25  1  0
 21 26  1  0
 25 26  2  0
M  END
