pyridine_urea_3457
     RDKit          3D

 19 21  0  0  0  0  0  0  0  0999 V2000
    8.6810    1.2840   21.0780 O   0  0  0  0  0  0  0  0  0  0  0  0
    8.3280    0.1930   21.5450 C   0  0  0  0  0  0  0  0  0  0  0  0
    7.2640   -0.5520   21.0770 N   0  0  0  0  0  0  0  0  0  0  0  0
    6.5410    0.0830   20.0170 C   0  0  0  0  0  0  0  0  0  0  0  0
    5.2610    0.8280   20.3840 C   0  0  0  0  0  0  0  0  0  0  0  0
    4.5130    1.5220   19.2510 C   0  0  0  0  0  0  0  0  0  0  0  0
    5.1460    1.3890   17.8690 C   0  0  0  0  0  0  0  0  0  0  0  0
    6.3240    0.6570   17.7060 N   0  0  0  0  0  0  0  0  0  0  0  0
    6.9790    0.0380   18.7230 C   0  0  0  0  0  0  0  0  0  0  0  0
    8.9830   -0.4020   22.5910 N   0  0  0  0  0  0  0  0  0  0  0  0
   10.3590   -0.1460   22.6420 C   0  0  0  0  0  0  0  0  0  0  0  0
   10.9830    0.1690   23.8250 C   0  0  0  0  0  0  0  0  0  0  0  0
   11.9060   -0.7890   24.0890 C   0  0  0  0  0  0  0  0  0  0  0  0
   12.8010   -0.9450   25.2830 C   0  0  0  0  0  0  0  0  0  0  0  0
   13.7500   -2.0920   25.3940 C   0  0  0  0  0  0  0  0  0  0  0  0
   13.4980   -2.6630   24.2740 C   0  0  0  0  0  0  0  0  0  0  0  0
   12.6420   -1.5740   24.2590 C   0  0  0  0  0  0  0  0  0  0  0  0
   12.0930   -1.8210   23.1460 C   0  0  0  0  0  0  0  0  0  0  0  0
   11.0820   -1.4270   22.1360 C   0  0  0  0  0  0  0  0  0  0  0  0
  1  2  2  0
  2  3  1  0
  3  4  1  0
  4  5  2  0
  5  6  1  0
  6  7  2  0
  7  8  1  0
  4  9  1  0
  8  9  2  0
  2 10  1  0
 10 11  1  0
 11 12  1  0
 12 13  1  0
 13 14  1  0
 14 15  2  0
 15 16  1  0
 16 17  2  0
 13 18  2  0
 17 18  1  0
 11 19  1  0
 18 19  1  0
M  END
