pyridine_urea_5230
     RDKit          3D

 19 20  0  0  0  0  0  0  0  0999 V2000
    9.3800    1.3600   24.4410 C   0  0  0  0  0  0  0  0  0  0  0  0
   10.2530    0.1510   24.2770 C   0  0  1  0  0  0  0  0  0  0  0  0
   10.4110   -0.3540   25.6150 O   0  0  0  0  0  0  0  0  0  0  0  0
    9.8610   -0.7340   23.2580 C   0  0  0  0  0  0  0  0  0  0  0  0
    8.5040   -0.5110   22.8170 N   0  0  0  0  0  0  0  0  0  0  0  0
    8.2670    0.1050   21.6100 C   0  0  0  0  0  0  0  0  0  0  0  0
    8.8980    1.0990   21.2060 O   0  0  0  0  0  0  0  0  0  0  0  0
    7.1670   -0.5950   20.9520 N   0  0  0  0  0  0  0  0  0  0  0  0
    6.4800    0.0590   19.9810 C   0  0  0  0  0  0  0  0  0  0  0  0
    5.1990    0.8040   20.3380 C   0  0  0  0  0  0  0  0  0  0  0  0
    4.5590    1.4620   19.2950 C   0  0  0  0  0  0  0  0  0  0  0  0
    5.1970    1.3760   17.9040 C   0  0  0  0  0  0  0  0  0  0  0  0
    6.3320    0.6900   17.6630 N   0  0  0  0  0  0  0  0  0  0  0  0
    6.9310    0.0600   18.6860 C   0  0  0  0  0  0  0  0  0  0  0  0
   11.6110    0.5860   23.7890 C   0  0  0  0  0  0  0  0  0  0  0  0
   12.8650    0.5370   23.0860 C   0  0  0  0  0  0  0  0  0  0  0  0
   13.1460   -0.5580   22.3230 C   0  0  0  0  0  0  0  0  0  0  0  0
   12.1250   -1.3380   22.4450 C   0  0  0  0  0  0  0  0  0  0  0  0
   11.2780   -0.6960   23.2640 O   0  0  0  0  0  0  0  0  0  0  0  0
  2  1  1  1
  2  3  1  0
  2  4  1  0
  4  5  1  0
  5  6  1  0
  6  7  2  0
  6  8  1  0
  8  9  1  0
  9 10  2  0
 10 11  1  0
 11 12  2  0
 12 13  1  0
  9 14  1  0
 13 14  2  0
  2 15  1  0
 15 16  2  0
 16 17  1  0
 17 18  2  0
 15 19  1  0
 18 19  1  0
M  END
