pyridine_urea_8445
     RDKit          3D

 22 23  0  0  0  0  0  0  0  0999 V2000
   13.4290   -2.7020   21.1600 C   0  0  0  0  0  0  0  0  0  0  0  0
   12.2330   -2.3790   20.5080 C   0  0  0  0  0  0  0  0  0  0  0  0
   11.3390   -2.0100   21.3610 C   0  0  0  0  0  0  0  0  0  0  0  0
   12.1470   -1.6510   22.1930 C   0  0  0  0  0  0  0  0  0  0  0  0
   11.6200   -1.2910   23.1580 C   0  0  0  0  0  0  0  0  0  0  0  0
   10.0880   -1.2390   23.5330 C   0  0  0  0  0  0  0  0  0  0  0  0
    9.2870   -0.9140   24.6620 C   0  0  0  0  0  0  0  0  0  0  0  0
    8.3450   -0.2110   24.3260 O   0  0  0  0  0  0  0  0  0  0  0  0
    9.5050   -1.2980   25.8040 O   0  0  0  0  0  0  0  0  0  0  0  0
    8.4400   -0.9460   26.6830 C   0  0  0  0  0  0  0  0  0  0  0  0
    9.3170   -1.5410   22.6500 C   0  0  0  0  0  0  0  0  0  0  0  0
    9.9170   -1.9100   21.5610 C   0  0  0  0  0  0  0  0  0  0  0  0
    8.8000   -2.1150   20.8140 N   0  0  0  0  0  0  0  0  0  0  0  0
    8.1130   -0.9250   20.9160 C   0  0  0  0  0  0  0  0  0  0  0  0
    8.7350    0.3550   21.2300 O   0  0  0  0  0  0  0  0  0  0  0  0
    6.7820   -1.0480   20.6940 N   0  0  0  0  0  0  0  0  0  0  0  0
    6.1890   -0.1910   19.7870 C   0  0  0  0  0  0  0  0  0  0  0  0
    4.9740    0.4250   20.0830 C   0  0  0  0  0  0  0  0  0  0  0  0
    4.4340    1.2800   19.1360 C   0  0  0  0  0  0  0  0  0  0  0  0
    5.1160    1.4850   17.9470 C   0  0  0  0  0  0  0  0  0  0  0  0
    6.2840    0.8970   17.6520 N   0  0  0  0  0  0  0  0  0  0  0  0
    6.7850    0.0740   18.5840 C   0  0  0  0  0  0  0  0  0  0  0  0
  1  2  1  0
  2  3  1  0
  3  4  2  0
  4  5  1  0
  5  6  2  0
  6  7  1  0
  7  8  2  0
  7  9  1  0
  9 10  1  0
  6 11  1  0
  3 12  1  0
 11 12  2  0
 12 13  1  0
 13 14  1  0
 14 15  2  0
 14 16  1  0
 16 17  1  0
 17 18  2  0
 18 19  1  0
 19 20  2  0
 20 21  1  0
 17 22  1  0
 21 22  2  0
M  END
