pyridine_urea_9802
     RDKit          3D

 26 28  0  0  0  0  0  0  0  0999 V2000
    8.7370    0.7200   21.3190 O   0  0  0  0  0  0  0  0  0  0  0  0
    8.2090   -0.3260   21.6740 C   0  0  0  0  0  0  0  0  0  0  0  0
    7.0960   -0.8690   21.0660 N   0  0  0  0  0  0  0  0  0  0  0  0
    6.4580   -0.1130   20.0220 C   0  0  0  0  0  0  0  0  0  0  0  0
    5.1870    0.6540   20.3830 C   0  0  0  0  0  0  0  0  0  0  0  0
    4.5140    1.4620   19.2750 C   0  0  0  0  0  0  0  0  0  0  0  0
    5.2010    1.4110   17.9100 C   0  0  0  0  0  0  0  0  0  0  0  0
    6.3660    0.6510   17.7450 N   0  0  0  0  0  0  0  0  0  0  0  0
    6.9570   -0.0700   18.7450 C   0  0  0  0  0  0  0  0  0  0  0  0
    8.6200   -1.1060   22.7440 N   0  0  0  0  0  0  0  0  0  0  0  0
    9.9750   -1.4910   22.8850 C   0  0  0  0  0  0  0  0  0  0  0  0
   10.7330   -1.6970   21.7560 C   0  0  0  0  0  0  0  0  0  0  0  0
   12.0960   -1.9740   21.9540 C   0  0  0  0  0  0  0  0  0  0  0  0
   12.6630   -1.3080   22.9580 N   0  0  0  0  0  0  0  0  0  0  0  0
   13.0140   -1.9490   24.1140 C   0  0  0  0  0  0  0  0  0  0  0  0
   13.2830   -2.9210   24.9600 C   0  0  0  0  0  0  0  0  0  0  0  0
   13.2690   -1.5640   25.0440 C   0  0  0  0  0  0  0  0  0  0  0  0
   12.9010   -0.9500   23.6050 C   0  0  0  0  0  0  0  0  0  0  0  0
   12.7920    0.3740   23.1510 C   0  0  0  0  0  0  0  0  0  0  0  0
   12.7580    1.4120   23.9300 F   0  0  0  0  0  0  0  0  0  0  0  0
   11.7320    0.6120   22.3620 F   0  0  0  0  0  0  0  0  0  0  0  0
   13.8890    0.5930   22.4370 F   0  0  0  0  0  0  0  0  0  0  0  0
   12.5860   -1.8550   22.3070 C   0  0  0  0  0  0  0  0  0  0  0  0
   12.8010   -2.7390   23.1610 N   0  0  0  0  0  0  0  0  0  0  0  0
   11.8640   -0.0610   23.1540 C   0  0  0  0  0  0  0  0  0  0  0  0
   10.6210   -0.3570   23.6780 C   0  0  0  0  0  0  0  0  0  0  0  0
  1  2  2  0
  2  3  1  0
  3  4  1  0
  4  5  2  0
  5  6  1  0
  6  7  2  0
  7  8  1  0
  4  9  1  0
  8  9  2  0
  2 10  1  0
 10 11  1  0
 11 12  1  0
 12 13  1  0
 13 14  1  0
 14 15  1  0
 15 16  2  0
 16 17  1  0
 17 18  2  0
 18 19  1  0
 19 20  1  0
 19 21  1  0
 19 22  1  0
 18 23  1  0
 15 24  1  0
 23 24  2  0
 14 25  1  0
 11 26  1  0
 25 26  1  0
M  END
