pyridine_urea_6976
     RDKit          3D

 21 23  0  0  0  0  0  0  0  0999 V2000
    8.7600    1.1990   21.1360 O   0  0  0  0  0  0  0  0  0  0  0  0
    8.4720    0.0270   21.4230 C   0  0  0  0  0  0  0  0  0  0  0  0
    9.1680   -0.7250   22.3410 N   0  0  0  0  0  0  0  0  0  0  0  0
   10.5020   -0.3990   22.5300 C   0  0  0  0  0  0  0  0  0  0  0  0
   10.8780    0.8690   22.9090 C   0  0  0  0  0  0  0  0  0  0  0  0
   12.2180    1.1700   23.0660 C   0  0  0  0  0  0  0  0  0  0  0  0
   13.1310    0.1850   22.8420 C   0  0  0  0  0  0  0  0  0  0  0  0
   12.8140   -1.0690   22.4790 N   0  0  0  0  0  0  0  0  0  0  0  0
   11.5040   -1.3350   22.3270 C   0  0  0  0  0  0  0  0  0  0  0  0
    7.4290   -0.6790   20.8780 N   0  0  0  0  0  0  0  0  0  0  0  0
    6.3060   -0.0520   20.3410 C   0  0  2  0  0  0  0  0  0  0  0  0
    5.3900   -0.7870   19.6210 C   0  0  0  0  0  0  0  0  0  0  0  0
    5.2650   -0.3120   18.3150 C   0  0  0  0  0  0  0  0  0  0  0  0
    5.6000    1.0360   18.5520 N   0  0  0  0  0  0  0  0  0  0  0  0
    4.4860    1.7400   19.0410 C   0  0  0  0  0  0  0  0  0  0  0  0
    4.0140    2.7990   18.3130 C   0  0  0  0  0  0  0  0  0  0  0  0
    2.8300    3.5800   18.7580 C   0  0  0  0  0  0  0  0  0  0  0  0
    2.2010    3.2140   19.9430 C   0  0  0  0  0  0  0  0  0  0  0  0
    2.6910    2.1340   20.6780 C   0  0  0  0  0  0  0  0  0  0  0  0
    3.8040    1.4090   20.2470 C   0  0  0  0  0  0  0  0  0  0  0  0
    6.7860    0.8980   19.2670 C   0  0  0  0  0  0  0  0  0  0  0  0
  1  2  2  0
  2  3  1  0
  3  4  1  0
  4  5  2  0
  5  6  1  0
  6  7  2  0
  7  8  1  0
  4  9  1  0
  8  9  2  0
  2 10  1  0
 11 10  1  6
 11 12  1  0
 12 13  1  0
 13 14  1  0
 14 15  1  0
 15 16  2  0
 16 17  1  0
 17 18  2  0
 18 19  1  0
 15 20  1  0
 19 20  2  0
 11 21  1  0
 14 21  1  0
M  END
