pyridine_urea_11822
     RDKit          3D

 25 26  0  0  0  0  0  0  0  0999 V2000
   13.0730   -2.4480   20.9270 C   0  0  0  0  0  0  0  0  0  0  0  0
   12.1820   -1.5050   21.4190 O   0  0  0  0  0  0  0  0  0  0  0  0
   12.8040   -0.7690   22.3610 C   0  0  0  0  0  0  0  0  0  0  0  0
   13.8500   -1.1090   22.8330 O   0  0  0  0  0  0  0  0  0  0  0  0
   12.1790    0.3710   22.7810 C   0  0  0  0  0  0  0  0  0  0  0  0
   12.2990    0.6120   24.1150 C   0  0  0  0  0  0  0  0  0  0  0  0
   13.0190   -0.2790   24.9990 N   0  0  0  0  0  0  0  0  0  0  0  0
   12.9280   -1.6170   24.9360 C   0  0  0  0  0  0  0  0  0  0  0  0
   13.5990   -2.5370   25.3810 O   0  0  0  0  0  0  0  0  0  0  0  0
   11.8380   -1.5010   24.2160 C   0  0  0  0  0  0  0  0  0  0  0  0
   11.7030   -2.1300   23.0160 C   0  0  0  0  0  0  0  0  0  0  0  0
   10.3990   -1.8750   22.2820 C   0  0  0  0  0  0  0  0  0  0  0  0
    9.4950   -1.0480   22.8970 C   0  0  0  0  0  0  0  0  0  0  0  0
    8.3040   -0.7020   22.4480 N   0  0  0  0  0  0  0  0  0  0  0  0
    8.0170    0.0540   21.3370 C   0  0  0  0  0  0  0  0  0  0  0  0
    8.5630    1.1180   20.9880 O   0  0  0  0  0  0  0  0  0  0  0  0
    7.0180   -0.5820   20.7230 N   0  0  0  0  0  0  0  0  0  0  0  0
    6.3150    0.1270   19.8520 C   0  0  0  0  0  0  0  0  0  0  0  0
    5.1140    0.7730   20.1260 C   0  0  0  0  0  0  0  0  0  0  0  0
    4.4590    1.4970   19.1360 C   0  0  0  0  0  0  0  0  0  0  0  0
    5.1780    1.4890   17.8180 C   0  0  0  0  0  0  0  0  0  0  0  0
    6.3320    0.8520   17.5860 N   0  0  0  0  0  0  0  0  0  0  0  0
    6.8520    0.1960   18.6090 C   0  0  0  0  0  0  0  0  0  0  0  0
    9.6960   -0.4350   24.1260 C   0  0  0  0  0  0  0  0  0  0  0  0
   10.8660   -0.6680   24.7760 C   0  0  0  0  0  0  0  0  0  0  0  0
  1  2  1  0
  2  3  1  0
  3  4  2  0
  3  5  1  0
  5  6  1  0
  6  7  1  0
  7  8  1  0
  8  9  2  0
  8 10  1  0
 10 11  2  0
 11 12  1  0
 12 13  2  0
 13 14  1  0
 14 15  1  0
 15 16  2  0
 15 17  1  0
 17 18  1  0
 18 19  2  0
 19 20  1  0
 20 21  2  0
 21 22  1  0
 18 23  1  0
 22 23  2  0
 13 24  1  0
 10 25  1  0
 24 25  2  0
M  END
