pyridine_urea_1654
     RDKit          3D

 18 19  0  0  0  0  0  0  0  0999 V2000
    8.9220    1.1210   21.1800 O   0  0  0  0  0  0  0  0  0  0  0  0
    8.5210   -0.0020   21.5360 C   0  0  0  0  0  0  0  0  0  0  0  0
    9.1870   -0.8940   22.3570 N   0  0  0  0  0  0  0  0  0  0  0  0
    8.6260   -1.7400   23.3470 C   0  0  0  0  0  0  0  0  0  0  0  0
    7.6840   -2.6800   22.9080 C   0  0  2  0  0  0  0  0  0  0  0  0
    6.7020   -1.9820   22.1280 O   0  0  0  0  0  0  0  0  0  0  0  0
    6.9980   -3.4860   23.8230 C   0  0  0  0  0  0  0  0  0  0  0  0
    6.3680   -3.0670   24.9390 C   0  0  0  0  0  0  0  0  0  0  0  0
    5.7550   -3.9800   25.6850 N   0  0  0  0  0  0  0  0  0  0  0  0
    5.9350   -5.2070   25.0800 C   0  0  0  0  0  0  0  0  0  0  0  0
    6.8760   -5.1820   23.5940 S   0  0  0  0  0  0  0  0  0  0  0  0
    7.3060   -0.5120   21.1410 N   0  0  0  0  0  0  0  0  0  0  0  0
    6.5760    0.1090   20.0450 C   0  0  0  0  0  0  0  0  0  0  0  0
    5.3200    0.9200   20.3560 C   0  0  0  0  0  0  0  0  0  0  0  0
    4.6540    1.5080   19.2990 C   0  0  0  0  0  0  0  0  0  0  0  0
    5.1730    1.3220   18.0140 C   0  0  0  0  0  0  0  0  0  0  0  0
    6.2800    0.5980   17.7210 N   0  0  0  0  0  0  0  0  0  0  0  0
    6.9650    0.0030   18.7290 C   0  0  0  0  0  0  0  0  0  0  0  0
  1  2  2  0
  2  3  1  0
  3  4  1  0
  4  5  1  0
  5  6  1  1
  5  7  1  0
  7  8  2  0
  8  9  1  0
  9 10  2  0
  7 11  1  0
 10 11  1  0
  2 12  1  0
 12 13  1  0
 13 14  2  0
 14 15  1  0
 15 16  2  0
 16 17  1  0
 13 18  1  0
 17 18  2  0
M  END
