pyridine_urea_13694
     RDKit          3D

 25 27  0  0  0  0  0  0  0  0999 V2000
    6.6810    3.4530   25.5900 C   0  0  0  0  0  0  0  0  0  0  0  0
    5.5420    2.5880   26.1710 C   0  0  0  0  0  0  0  0  0  0  0  0
    5.2390    1.4580   25.1710 C   0  0  0  0  0  0  0  0  0  0  0  0
    6.2320    0.2930   25.3140 C   0  0  0  0  0  0  0  0  0  0  0  0
    7.3280    0.5370   26.2490 N   0  0  0  0  0  0  0  0  0  0  0  0
    8.3740   -0.3660   26.2870 C   0  0  0  0  0  0  0  0  0  0  0  0
    9.7110    0.0100   26.1500 C   0  0  0  0  0  0  0  0  0  0  0  0
   10.4300   -0.2830   24.9490 C   0  0  0  0  0  0  0  0  0  0  0  0
   11.8540   -0.3670   24.7730 C   0  0  0  0  0  0  0  0  0  0  0  0
   12.4310   -0.6830   23.5450 C   0  0  0  0  0  0  0  0  0  0  0  0
   11.6010   -0.9240   22.4790 C   0  0  0  0  0  0  0  0  0  0  0  0
   10.2070   -0.8390   22.6280 C   0  0  0  0  0  0  0  0  0  0  0  0
    9.4280   -1.0730   21.5520 N   0  0  0  0  0  0  0  0  0  0  0  0
    8.4090   -0.1760   21.2100 C   0  0  0  0  0  0  0  0  0  0  0  0
    8.6310    1.0250   21.1320 O   0  0  0  0  0  0  0  0  0  0  0  0
    7.2200   -0.7610   20.9800 N   0  0  0  0  0  0  0  0  0  0  0  0
    6.4880   -0.0700   20.0820 C   0  0  0  0  0  0  0  0  0  0  0  0
    5.3300    0.6590   20.3060 C   0  0  0  0  0  0  0  0  0  0  0  0
    4.6740    1.3480   19.2940 C   0  0  0  0  0  0  0  0  0  0  0  0
    5.1540    1.3350   18.0010 C   0  0  0  0  0  0  0  0  0  0  0  0
    6.2590    0.6570   17.6520 N   0  0  0  0  0  0  0  0  0  0  0  0
    6.9190   -0.0590   18.7710 C   0  0  0  0  0  0  0  0  0  0  0  0
    9.6490   -0.5190   23.8530 C   0  0  0  0  0  0  0  0  0  0  0  0
    6.8360    0.9290   27.5820 C   0  0  0  0  0  0  0  0  0  0  0  0
    5.9700    2.0180   27.5480 C   0  0  0  0  0  0  0  0  0  0  0  0
  1  2  1  0
  2  3  1  0
  3  4  1  0
  4  5  1  0
  5  6  1  0
  6  7  1  0
  7  8  1  0
  8  9  2  0
  9 10  1  0
 10 11  2  0
 11 12  1  0
 12 13  1  0
 13 14  1  0
 14 15  2  0
 14 16  1  0
 16 17  1  0
 17 18  2  0
 18 19  1  0
 19 20  2  0
 20 21  1  0
 17 22  1  0
 21 22  2  0
  8 23  1  0
 12 23  2  0
  5 24  1  0
  2 25  1  0
 24 25  1  0
M  END
