pyridine_urea_10805
     RDKit          3D

 20 22  0  0  0  0  0  0  0  0999 V2000
    9.0220    1.1010   21.2820 O   0  0  0  0  0  0  0  0  0  0  0  0
    8.5320   -0.0150   21.5200 C   0  0  0  0  0  0  0  0  0  0  0  0
    9.2120   -0.9890   22.3870 N   0  0  0  0  0  0  0  0  0  0  0  0
    8.4820   -1.8580   23.2110 C   0  0  0  0  0  0  0  0  0  0  0  0
    8.9700   -3.1710   23.3470 C   0  0  0  0  0  0  0  0  0  0  0  0
    8.7390   -3.9170   24.5000 N   0  0  0  0  0  0  0  0  0  0  0  0
    9.5810   -4.9650   25.1750 C   0  0  0  0  0  0  0  0  0  0  0  0
    8.8040   -5.2970   26.2290 C   0  0  0  0  0  0  0  0  0  0  0  0
    7.5690   -4.4860   26.1770 C   0  0  0  0  0  0  0  0  0  0  0  0
    6.4760   -4.6150   27.2300 C   0  0  0  0  0  0  0  0  0  0  0  0
    6.8100   -4.0310   28.4330 C   0  0  0  0  0  0  0  0  0  0  0  0
    6.7190   -5.4860   28.5820 C   0  0  0  0  0  0  0  0  0  0  0  0
    7.4930   -3.6140   25.1110 N   0  0  0  0  0  0  0  0  0  0  0  0
    7.3320   -0.4870   21.0360 N   0  0  0  0  0  0  0  0  0  0  0  0
    6.5960    0.0900   20.0570 C   0  0  0  0  0  0  0  0  0  0  0  0
    5.4490    0.8090   20.3860 C   0  0  0  0  0  0  0  0  0  0  0  0
    4.7330    1.4020   19.3540 C   0  0  0  0  0  0  0  0  0  0  0  0
    5.1850    1.2550   18.0570 C   0  0  0  0  0  0  0  0  0  0  0  0
    6.2840    0.5600   17.7290 N   0  0  0  0  0  0  0  0  0  0  0  0
    6.9650   -0.0100   18.7370 C   0  0  0  0  0  0  0  0  0  0  0  0
  1  2  2  0
  2  3  1  0
  3  4  1  0
  4  5  1  0
  5  6  1  0
  6  7  1  0
  7  8  2  0
  8  9  1  0
  9 10  1  0
 10 11  1  0
 10 12  1  0
 11 12  1  0
  6 13  1  0
  9 13  2  0
  2 14  1  0
 14 15  1  0
 15 16  2  0
 16 17  1  0
 17 18  2  0
 18 19  1  0
 15 20  1  0
 19 20  2  0
M  END
