pyridine_urea_8788
     RDKit          3D

 20 22  0  0  0  0  0  0  0  0999 V2000
    8.6830    0.9300   21.2800 O   0  0  0  0  0  0  0  0  0  0  0  0
    8.2700   -0.1930   21.5400 C   0  0  0  0  0  0  0  0  0  0  0  0
    7.1090   -0.7250   21.0510 N   0  0  0  0  0  0  0  0  0  0  0  0
    6.4400   -0.0630   20.0160 C   0  0  0  0  0  0  0  0  0  0  0  0
    5.2580    0.6330   20.2790 C   0  0  0  0  0  0  0  0  0  0  0  0
    4.6000    1.3120   19.2480 C   0  0  0  0  0  0  0  0  0  0  0  0
    5.1620    1.2650   17.9880 C   0  0  0  0  0  0  0  0  0  0  0  0
    6.2900    0.5990   17.7150 N   0  0  0  0  0  0  0  0  0  0  0  0
    6.9010   -0.0470   18.7210 C   0  0  0  0  0  0  0  0  0  0  0  0
    8.9920   -1.0160   22.3660 N   0  0  0  0  0  0  0  0  0  0  0  0
   10.3110   -0.4610   22.5740 C   0  0  2  0  0  0  0  0  0  0  0  0
   11.4820   -1.3990   22.6050 C   0  0  0  0  0  0  0  0  0  0  0  0
   11.9310   -0.5220   23.5790 C   0  0  1  0  0  0  0  0  0  0  0  0
   12.8490    0.3720   23.0980 C   0  0  0  0  0  0  0  0  0  0  0  0
   13.3730   -0.7150   22.4120 C   0  0  0  0  0  0  0  0  0  0  0  0
   12.4200   -1.5840   23.0770 C   0  0  0  0  0  0  0  0  0  0  0  0
   11.3940   -1.2740   24.0410 C   0  0  0  0  0  0  0  0  0  0  0  0
   11.1050   -0.0440   24.5280 N   0  0  0  0  0  0  0  0  0  0  0  0
   11.9470    0.8590   23.9700 C   0  0  0  0  0  0  0  0  0  0  0  0
   10.6170    0.2870   23.7660 C   0  0  0  0  0  0  0  0  0  0  0  0
  1  2  2  0
  2  3  1  0
  3  4  1  0
  4  5  2  0
  5  6  1  0
  6  7  2  0
  7  8  1  0
  4  9  1  0
  8  9  2  0
  2 10  1  0
 11 10  1  1
 11 12  1  0
 12 13  1  0
 13 14  1  6
 14 15  2  0
 15 16  1  0
 16 17  2  0
 17 18  1  0
 14 19  1  0
 18 19  2  0
 11 20  1  0
 13 20  1  0
M  END
