pyridine_urea_11079
     RDKit          3D

 18 18  0  0  0  0  0  0  0  0999 V2000
   12.9980   -0.9160   22.4880 C   0  0  0  0  0  0  0  0  0  0  0  0
   12.8880   -0.1080   23.7350 C   0  0  0  0  0  0  0  0  0  0  0  0
   11.7250   -0.0470   24.5020 C   0  0  0  0  0  0  0  0  0  0  0  0
   10.6200   -0.8590   24.2710 C   0  0  0  0  0  0  0  0  0  0  0  0
   10.1380   -0.8330   22.9880 C   0  0  1  0  0  0  0  0  0  0  0  0
   10.5210    0.4480   22.3520 C   0  0  0  0  0  0  0  0  0  0  0  0
   10.7770   -1.9850   22.1790 C   0  0  0  0  0  0  0  0  0  0  0  0
   11.5480   -1.6240   21.3240 O   0  0  0  0  0  0  0  0  0  0  0  0
    8.7420   -0.9310   22.6960 N   0  0  0  0  0  0  0  0  0  0  0  0
    8.2050   -0.1380   21.6820 C   0  0  0  0  0  0  0  0  0  0  0  0
    8.6640    0.9420   21.3330 O   0  0  0  0  0  0  0  0  0  0  0  0
    7.0320   -0.7190   21.0730 N   0  0  0  0  0  0  0  0  0  0  0  0
    6.3940   -0.0620   20.0690 C   0  0  0  0  0  0  0  0  0  0  0  0
    5.2200    0.6620   20.2330 C   0  0  0  0  0  0  0  0  0  0  0  0
    4.5800    1.3500   19.2110 C   0  0  0  0  0  0  0  0  0  0  0  0
    5.1730    1.2920   17.9620 C   0  0  0  0  0  0  0  0  0  0  0  0
    6.3100    0.6040   17.7230 N   0  0  0  0  0  0  0  0  0  0  0  0
    6.9100   -0.0750   18.7960 C   0  0  0  0  0  0  0  0  0  0  0  0
  1  2  1  0
  2  3  1  0
  3  4  1  0
  4  5  1  0
  5  6  1  6
  5  7  1  0
  7  8  1  0
  5  9  1  0
  9 10  1  0
 10 11  2  0
 10 12  1  0
 12 13  1  0
 13 14  2  0
 14 15  1  0
 15 16  2  0
 16 17  1  0
 13 18  1  0
 17 18  2  0
M  END
