pyridine_urea_5440
     RDKit          3D

 18 18  0  0  0  0  0  0  0  0999 V2000
   12.4990   -2.4370   21.3870 C   0  0  0  0  0  0  0  0  0  0  0  0
   12.0930   -1.3460   22.3710 C   0  0  0  0  0  0  0  0  0  0  0  0
   12.4990   -0.5280   23.6160 C   0  0  0  0  0  0  0  0  0  0  0  0
   13.1890   -1.2310   24.5900 C   0  0  0  0  0  0  0  0  0  0  0  0
   13.1870    0.7010   23.0240 C   0  0  0  0  0  0  0  0  0  0  0  0
   11.3080    0.0240   24.3490 C   0  0  0  0  0  0  0  0  0  0  0  0
   10.0000   -0.1010   23.6340 C   0  0  0  0  0  0  0  0  0  0  0  0
    9.9710   -1.3640   22.8090 C   0  0  0  0  0  0  0  0  0  0  0  0
    8.6280   -1.4380   22.3010 N   0  0  0  0  0  0  0  0  0  0  0  0
    8.1990   -0.3820   21.5520 C   0  0  0  0  0  0  0  0  0  0  0  0
    8.8620    0.6300   21.3660 O   0  0  0  0  0  0  0  0  0  0  0  0
    6.9230   -0.6330   21.0590 N   0  0  0  0  0  0  0  0  0  0  0  0
    6.3680    0.0160   20.0040 C   0  0  0  0  0  0  0  0  0  0  0  0
    5.0860    0.8110   20.2080 C   0  0  0  0  0  0  0  0  0  0  0  0
    4.4860    1.5510   19.0240 C   0  0  0  0  0  0  0  0  0  0  0  0
    5.1570    1.4550   17.8150 C   0  0  0  0  0  0  0  0  0  0  0  0
    6.3030    0.7180   17.6940 N   0  0  0  0  0  0  0  0  0  0  0  0
    6.8980    0.0180   18.7330 C   0  0  0  0  0  0  0  0  0  0  0  0
  1  2  2  3
  3  2  1  0
  3  4  1  0
  3  5  1  0
  3  6  1  0
  6  7  1  0
  7  8  1  0
  8  9  1  0
  9 10  1  0
 10 11  2  0
 10 12  1  0
 12 13  1  0
 13 14  2  0
 14 15  1  0
 15 16  2  0
 16 17  1  0
 13 18  1  0
 17 18  2  0
M  END
