pyridine_urea_1389
     RDKit          3D

 20 21  0  0  0  0  0  0  0  0999 V2000
    8.7360    1.1940   21.1200 O   0  0  0  0  0  0  0  0  0  0  0  0
    8.1490    0.1480   21.4460 C   0  0  0  0  0  0  0  0  0  0  0  0
    8.6900   -0.7620   22.2670 N   0  0  0  0  0  0  0  0  0  0  0  0
   10.0970   -0.8060   22.2590 C   0  0  0  0  0  0  0  0  0  0  0  0
   10.5690   -0.5540   23.6610 C   0  0  1  0  0  0  0  0  0  0  0  0
   10.4150   -1.6380   24.4690 C   0  0  0  0  0  0  0  0  0  0  0  0
    9.2980   -2.1320   24.3800 O   0  0  0  0  0  0  0  0  0  0  0  0
   12.0340   -0.3900   23.5520 C   0  0  0  0  0  0  0  0  0  0  0  0
   12.4430   -1.1250   22.5250 C   0  0  0  0  0  0  0  0  0  0  0  0
   13.3250   -0.6770   21.9320 C   0  0  0  0  0  0  0  0  0  0  0  0
   12.4090   -1.9220   21.8940 C   0  0  0  0  0  0  0  0  0  0  0  0
   13.1340   -2.1910   20.8910 O   0  0  0  0  0  0  0  0  0  0  0  0
   13.6050   -1.1070   21.2750 C   0  0  0  0  0  0  0  0  0  0  0  0
    6.9250   -0.2690   21.0580 N   0  0  0  0  0  0  0  0  0  0  0  0
    6.3620    0.2620   19.9600 C   0  0  0  0  0  0  0  0  0  0  0  0
    5.2250    1.0040   20.2310 C   0  0  0  0  0  0  0  0  0  0  0  0
    4.6130    1.6210   19.0480 C   0  0  0  0  0  0  0  0  0  0  0  0
    5.1120    1.4790   17.7850 C   0  0  0  0  0  0  0  0  0  0  0  0
    6.2190    0.7310   17.5600 N   0  0  0  0  0  0  0  0  0  0  0  0
    6.8330    0.1280   18.6730 C   0  0  0  0  0  0  0  0  0  0  0  0
  1  2  2  0
  2  3  1  0
  3  4  1  0
  5  4  1  6
  5  6  1  0
  6  7  1  0
  5  8  1  0
  8  9  1  0
  9 10  1  0
 10 11  2  0
 11 12  1  0
  9 13  2  0
 12 13  1  0
  2 14  1  0
 14 15  1  0
 15 16  2  0
 16 17  1  0
 17 18  2  0
 18 19  1  0
 15 20  1  0
 19 20  2  0
M  END
