pyridine_urea_4198
     RDKit          3D

 24 26  0  0  0  0  0  0  0  0999 V2000
   16.2560    4.6910   24.4370 C   0  0  0  0  0  0  0  0  0  0  0  0
   14.4450    4.7590   23.5370 C   0  0  0  0  0  0  0  0  0  0  0  0
   13.5080    3.8400   23.1790 C   0  0  0  0  0  0  0  0  0  0  0  0
   12.4770    4.2430   22.5550 C   0  0  0  0  0  0  0  0  0  0  0  0
   11.6180    3.2980   22.2390 C   0  0  0  0  0  0  0  0  0  0  0  0
   12.2390    2.2230   22.0970 O   0  0  0  0  0  0  0  0  0  0  0  0
   11.8980    1.2190   23.0040 C   0  0  1  0  0  0  0  0  0  0  0  0
   10.5410    1.4480   23.0690 C   0  0  0  0  0  0  0  0  0  0  0  0
    9.9000    0.1640   23.4380 C   0  0  0  0  0  0  0  0  0  0  0  0
   10.0890   -0.5200   22.3380 C   0  0  2  0  0  0  0  0  0  0  0  0
    8.9140   -1.3630   22.2190 N   0  0  0  0  0  0  0  0  0  0  0  0
    8.0590   -0.9870   21.1880 C   0  0  0  0  0  0  0  0  0  0  0  0
    8.3480   -1.1850   19.9330 O   0  0  0  0  0  0  0  0  0  0  0  0
    6.8790   -0.3750   21.4470 N   0  0  0  0  0  0  0  0  0  0  0  0
    6.2050    0.2310   20.3470 C   0  0  0  0  0  0  0  0  0  0  0  0
    5.0060    0.9300   20.4300 C   0  0  0  0  0  0  0  0  0  0  0  0
    4.4040    1.5030   19.3120 C   0  0  0  0  0  0  0  0  0  0  0  0
    5.1670    1.2950   18.0300 C   0  0  0  0  0  0  0  0  0  0  0  0
    6.3130    0.6240   17.9320 N   0  0  0  0  0  0  0  0  0  0  0  0
    6.7950    0.1140   19.0760 C   0  0  0  0  0  0  0  0  0  0  0  0
   11.3680   -1.1260   22.3440 C   0  0  0  0  0  0  0  0  0  0  0  0
   12.3520   -0.1210   22.6750 C   0  0  0  0  0  0  0  0  0  0  0  0
   12.5710    5.5700   22.3740 O   0  0  0  0  0  0  0  0  0  0  0  0
   13.8280    5.9250   22.9700 N   0  0  0  0  0  0  0  0  0  0  0  0
  1  2  1  0
  2  3  1  0
  3  4  2  0
  4  5  1  0
  5  6  1  0
  7  6  1  6
  7  8  1  0
  8  9  1  0
  9 10  1  0
 10 11  1  1
 11 12  1  0
 12 13  2  0
 12 14  1  0
 14 15  1  0
 15 16  2  0
 16 17  1  0
 17 18  2  0
 18 19  1  0
 15 20  1  0
 19 20  2  0
 10 21  1  0
  7 22  1  0
 21 22  1  0
  4 23  1  0
  2 24  2  0
 23 24  1  0
M  END
