pyridine_urea_13682
     RDKit          3D

 26 28  0  0  0  0  0  0  0  0999 V2000
   10.1030   -2.3900   23.8800 C   0  0  0  0  0  0  0  0  0  0  0  0
    9.7440   -1.0970   23.1890 C   0  0  2  0  0  0  0  0  0  0  0  0
    9.1030   -1.3300   21.9180 N   0  0  0  0  0  0  0  0  0  0  0  0
    8.3690   -0.3010   21.4050 C   0  0  0  0  0  0  0  0  0  0  0  0
    8.8000    0.8390   21.3040 O   0  0  0  0  0  0  0  0  0  0  0  0
    7.1220   -0.7010   21.0220 N   0  0  0  0  0  0  0  0  0  0  0  0
    6.4780   -0.0320   19.9890 C   0  0  0  0  0  0  0  0  0  0  0  0
    5.2200    0.7370   20.2360 C   0  0  0  0  0  0  0  0  0  0  0  0
    4.5880    1.4250   19.2120 C   0  0  0  0  0  0  0  0  0  0  0  0
    5.1080    1.4250   17.9110 C   0  0  0  0  0  0  0  0  0  0  0  0
    6.3220    0.6640   17.7070 N   0  0  0  0  0  0  0  0  0  0  0  0
    6.9380   -0.0130   18.7110 C   0  0  0  0  0  0  0  0  0  0  0  0
   10.9570   -0.1750   23.0880 C   0  0  0  0  0  0  0  0  0  0  0  0
   11.6770   -1.0700   22.8670 C   0  0  0  0  0  0  0  0  0  0  0  0
   12.3260    0.0910   22.8980 C   0  0  0  0  0  0  0  0  0  0  0  0
   12.4380    1.5410   23.0510 C   0  0  0  0  0  0  0  0  0  0  0  0
   11.6300    2.6860   23.3190 O   0  0  0  0  0  0  0  0  0  0  0  0
   12.1820    3.9360   22.8300 C   0  0  0  0  0  0  0  0  0  0  0  0
   11.2460    4.8410   23.3060 C   0  0  0  0  0  0  0  0  0  0  0  0
   10.5420    4.6440   24.5030 C   0  0  0  0  0  0  0  0  0  0  0  0
    9.5950    5.5090   25.0200 C   0  0  0  0  0  0  0  0  0  0  0  0
    9.2470    6.6700   24.3810 C   0  0  0  0  0  0  0  0  0  0  0  0
    9.9390    7.0070   23.0620 C   0  0  0  0  0  0  0  0  0  0  0  0
   10.9860    6.0120   22.5450 C   0  0  0  0  0  0  0  0  0  0  0  0
   13.4310    1.0520   22.8270 C   0  0  0  0  0  0  0  0  0  0  0  0
   12.5630   -0.1100   22.8320 C   0  0  0  0  0  0  0  0  0  0  0  0
  2  1  1  6
  2  3  1  0
  3  4  1  0
  4  5  2  0
  4  6  1  0
  6  7  1  0
  7  8  2  0
  8  9  1  0
  9 10  2  0
 10 11  1  0
  7 12  1  0
 11 12  2  0
  2 13  1  0
 13 14  2  0
 14 15  1  0
 15 16  2  0
 16 17  1  0
 17 18  1  0
 18 19  1  0
 19 20  2  0
 20 21  1  0
 21 22  2  0
 22 23  1  0
 19 24  1  0
 23 24  2  0
 16 25  1  0
 13 26  1  0
 25 26  2  0
M  END
