pyridine_urea_4040
     RDKit          3D

 26 28  0  0  0  0  0  0  0  0999 V2000
    9.0660    0.6950   21.3700 O   0  0  0  0  0  0  0  0  0  0  0  0
    8.5370   -0.3980   21.5300 C   0  0  0  0  0  0  0  0  0  0  0  0
    9.0500   -1.4260   22.3080 N   0  0  0  0  0  0  0  0  0  0  0  0
   10.2050   -2.2400   22.1010 C   0  0  0  0  0  0  0  0  0  0  0  0
   11.4610   -1.6420   22.0140 C   0  0  0  0  0  0  0  0  0  0  0  0
   12.5650   -0.7700   22.2790 C   0  0  0  0  0  0  0  0  0  0  0  0
   12.7000    0.2330   23.1830 C   0  0  0  0  0  0  0  0  0  0  0  0
   11.7800    0.6220   24.0710 C   0  0  0  0  0  0  0  0  0  0  0  0
   10.6160   -0.0800   24.0530 C   0  0  0  0  0  0  0  0  0  0  0  0
    9.4000    0.1610   25.0030 C   0  0  0  0  0  0  0  0  0  0  0  0
    8.1840    0.5220   24.3330 O   0  0  0  0  0  0  0  0  0  0  0  0
    9.6360   -0.0130   26.4200 N   0  0  0  0  0  0  0  0  0  0  0  0
    8.8460    0.3520   27.4720 C   0  0  0  0  0  0  0  0  0  0  0  0
    7.5070    0.6220   27.2060 C   0  0  0  0  0  0  0  0  0  0  0  0
    6.6730    0.9980   28.2560 C   0  0  0  0  0  0  0  0  0  0  0  0
    7.0800    1.1230   29.5350 N   0  0  0  0  0  0  0  0  0  0  0  0
    8.3860    0.8580   29.7820 C   0  0  0  0  0  0  0  0  0  0  0  0
    9.2740    0.4790   28.7920 C   0  0  0  0  0  0  0  0  0  0  0  0
   10.5060   -1.0780   23.1220 C   0  0  0  0  0  0  0  0  0  0  0  0
    7.3230   -0.7740   20.9750 N   0  0  0  0  0  0  0  0  0  0  0  0
    6.5700   -0.0750   20.0790 C   0  0  0  0  0  0  0  0  0  0  0  0
    5.4080    0.6530   20.3680 C   0  0  0  0  0  0  0  0  0  0  0  0
    4.7270    1.3350   19.3580 C   0  0  0  0  0  0  0  0  0  0  0  0
    5.2250    1.2760   18.0670 C   0  0  0  0  0  0  0  0  0  0  0  0
    6.3340    0.5830   17.7580 N   0  0  0  0  0  0  0  0  0  0  0  0
    6.9740   -0.0710   18.7550 C   0  0  0  0  0  0  0  0  0  0  0  0
  1  2  2  0
  2  3  1  0
  3  4  1  0
  4  5  1  0
  5  6  2  0
  6  7  1  0
  7  8  2  0
  8  9  1  0
  9 10  1  0
 10 11  2  0
 10 12  1  0
 12 13  1  0
 13 14  2  0
 14 15  1  0
 15 16  2  0
 16 17  1  0
 13 18  1  0
 17 18  2  0
  5 19  1  0
  9 19  2  0
  2 20  1  0
 20 21  1  0
 21 22  2  0
 22 23  1  0
 23 24  2  0
 24 25  1  0
 21 26  1  0
 25 26  2  0
M  END
