pyridine_urea_14743
     RDKit          3D

 20 22  0  0  0  0  0  0  0  0999 V2000
    8.7290    1.2120   21.0370 O   0  0  0  0  0  0  0  0  0  0  0  0
    8.1350    0.2460   21.5340 C   0  0  0  0  0  0  0  0  0  0  0  0
    8.4140   -0.2250   22.7680 N   0  0  0  0  0  0  0  0  0  0  0  0
    9.5780    0.1670   23.4000 C   0  0  0  0  0  0  0  0  0  0  0  0
   10.7250   -0.4690   23.0230 C   0  0  0  0  0  0  0  0  0  0  0  0
   11.0610    0.7220   23.6410 N   0  0  0  0  0  0  0  0  0  0  0  0
   12.0840    1.3290   23.9060 N   0  0  0  0  0  0  0  0  0  0  0  0
   12.4500    0.2310   23.3140 C   0  0  0  0  0  0  0  0  0  0  0  0
   12.2350   -1.0160   22.6890 C   0  0  0  0  0  0  0  0  0  0  0  0
   13.4670   -0.8520   22.8030 C   0  0  0  0  0  0  0  0  0  0  0  0
   13.0000   -1.1510   24.2800 C   0  0  0  0  0  0  0  0  0  0  0  0
   11.5320   -1.0750   24.3260 C   0  0  0  0  0  0  0  0  0  0  0  0
   11.1760   -0.0740   23.3860 C   0  0  0  0  0  0  0  0  0  0  0  0
    7.1220   -0.4630   20.9720 N   0  0  0  0  0  0  0  0  0  0  0  0
    6.4210    0.1630   19.9530 C   0  0  0  0  0  0  0  0  0  0  0  0
    5.2480    0.8620   20.1770 C   0  0  0  0  0  0  0  0  0  0  0  0
    4.5830    1.5400   19.0430 C   0  0  0  0  0  0  0  0  0  0  0  0
    5.1080    1.4930   17.7550 C   0  0  0  0  0  0  0  0  0  0  0  0
    6.2760    0.7560   17.6170 N   0  0  0  0  0  0  0  0  0  0  0  0
    6.9130    0.1090   18.6790 C   0  0  0  0  0  0  0  0  0  0  0  0
  1  2  2  0
  2  3  1  0
  3  4  1  0
  4  5  1  0
  5  6  1  0
  6  7  1  0
  7  8  2  0
  5  9  2  0
  8  9  1  0
  9 10  1  0
 10 11  1  0
 11 12  1  0
  8 13  1  0
 12 13  1  0
  2 14  1  0
 14 15  1  0
 15 16  2  0
 16 17  1  0
 17 18  2  0
 18 19  1  0
 15 20  1  0
 19 20  2  0
M  END
