pyridine_urea_4720
     RDKit          3D

 22 23  0  0  0  0  0  0  0  0999 V2000
   13.0690    1.8810   22.9140 C   0  0  0  0  0  0  0  0  0  0  0  0
   12.0510    0.8230   23.0840 C   0  0  0  0  0  0  0  0  0  0  0  0
   10.8430    1.3730   22.5250 C   0  0  0  0  0  0  0  0  0  0  0  0
    9.7500    0.6500   22.4760 C   0  0  0  0  0  0  0  0  0  0  0  0
    9.6890   -0.6130   22.9470 C   0  0  0  0  0  0  0  0  0  0  0  0
    8.3910   -1.1450   22.7140 N   0  0  0  0  0  0  0  0  0  0  0  0
    7.9090   -0.4550   21.6200 C   0  0  0  0  0  0  0  0  0  0  0  0
    8.5370    0.6700   21.1610 O   0  0  0  0  0  0  0  0  0  0  0  0
    6.7860   -0.9540   21.0540 N   0  0  0  0  0  0  0  0  0  0  0  0
    6.2030   -0.1910   20.0410 C   0  0  0  0  0  0  0  0  0  0  0  0
    5.0310    0.5660   20.1390 C   0  0  0  0  0  0  0  0  0  0  0  0
    4.5200    1.3170   19.1020 C   0  0  0  0  0  0  0  0  0  0  0  0
    5.1560    1.3650   17.8770 C   0  0  0  0  0  0  0  0  0  0  0  0
    6.3120    0.6280   17.7360 N   0  0  0  0  0  0  0  0  0  0  0  0
    6.8310   -0.1380   18.7930 C   0  0  0  0  0  0  0  0  0  0  0  0
   10.8150   -1.1640   23.5290 C   0  0  0  0  0  0  0  0  0  0  0  0
   11.9950   -0.4380   23.5920 C   0  0  0  0  0  0  0  0  0  0  0  0
   12.9760   -1.1820   24.1800 C   0  0  0  0  0  0  0  0  0  0  0  0
   13.3600   -0.8580   25.4840 O   0  0  0  0  0  0  0  0  0  0  0  0
   13.4320   -2.2130   23.6260 N   0  0  0  0  0  0  0  0  0  0  0  0
   13.1360   -3.0890   24.5790 C   0  0  0  0  0  0  0  0  0  0  0  0
   13.0910   -2.5060   22.3490 C   0  0  0  0  0  0  0  0  0  0  0  0
  1  2  1  0
  2  3  2  0
  3  4  1  0
  4  5  2  0
  5  6  1  0
  6  7  1  0
  7  8  2  0
  7  9  1  0
  9 10  1  0
 10 11  2  0
 11 12  1  0
 12 13  2  0
 13 14  1  0
 10 15  1  0
 14 15  2  0
  5 16  1  0
  2 17  1  0
 16 17  2  0
 17 18  1  0
 18 19  2  0
 18 20  1  0
 20 21  1  0
 20 22  1  0
M  END
