pyridine_urea_13377
     RDKit          3D

 20 22  0  0  0  0  0  0  0  0999 V2000
    8.8110    1.1740   21.1300 O   0  0  0  0  0  0  0  0  0  0  0  0
    8.4010    0.0530   21.4640 C   0  0  0  0  0  0  0  0  0  0  0  0
    7.2430   -0.5350   21.0320 N   0  0  0  0  0  0  0  0  0  0  0  0
    6.5140    0.0640   20.0040 C   0  0  0  0  0  0  0  0  0  0  0  0
    5.3490    0.7710   20.3110 C   0  0  0  0  0  0  0  0  0  0  0  0
    4.6320    1.3910   19.2860 C   0  0  0  0  0  0  0  0  0  0  0  0
    5.1130    1.2750   18.0010 C   0  0  0  0  0  0  0  0  0  0  0  0
    6.2210    0.5930   17.6850 N   0  0  0  0  0  0  0  0  0  0  0  0
    6.8950    0.0040   18.6890 C   0  0  0  0  0  0  0  0  0  0  0  0
    9.1360   -0.7280   22.3260 N   0  0  0  0  0  0  0  0  0  0  0  0
   10.4070   -0.1190   22.6410 C   0  0  2  0  0  0  0  0  0  0  0  0
   11.5680   -1.0590   22.4050 C   0  0  0  0  0  0  0  0  0  0  0  0
   12.5760   -0.3650   22.9800 C   0  0  0  0  0  0  0  0  0  0  0  0
   12.0060    0.5290   23.8810 C   0  0  0  0  0  0  0  0  0  0  0  0
   10.5780    0.7200   23.7710 C   0  0  2  0  0  0  0  0  0  0  0  0
    9.7780    0.4440   24.8330 N   0  0  0  0  0  0  0  0  0  0  0  0
    8.5510    1.0410   25.0500 C   0  0  0  0  0  0  0  0  0  0  0  0
    8.1950    0.3970   26.2420 C   0  0  0  0  0  0  0  0  0  0  0  0
    9.1790   -0.4620   26.5970 C   0  0  0  0  0  0  0  0  0  0  0  0
   10.1920   -0.4640   25.7390 N   0  0  0  0  0  0  0  0  0  0  0  0
  1  2  2  0
  2  3  1  0
  3  4  1  0
  4  5  2  0
  5  6  1  0
  6  7  2  0
  7  8  1  0
  4  9  1  0
  8  9  2  0
  2 10  1  0
 11 10  1  1
 11 12  1  0
 12 13  1  0
 13 14  1  0
 11 15  1  0
 14 15  1  0
 15 16  1  1
 16 17  1  0
 17 18  2  0
 18 19  1  0
 16 20  1  0
 19 20  2  0
M  END
