pyridine_urea_11334
     RDKit          3D

 15 16  0  0  0  0  0  0  0  0999 V2000
    8.7930    0.9220   21.2490 O   0  0  0  0  0  0  0  0  0  0  0  0
    8.4230   -0.2130   21.5250 C   0  0  0  0  0  0  0  0  0  0  0  0
    7.1870   -0.7050   21.1550 N   0  0  0  0  0  0  0  0  0  0  0  0
    6.5180   -0.0350   20.0560 C   0  0  0  0  0  0  0  0  0  0  0  0
    5.2380    0.7270   20.3910 C   0  0  0  0  0  0  0  0  0  0  0  0
    4.5960    1.4090   19.2300 C   0  0  0  0  0  0  0  0  0  0  0  0
    5.1900    1.3010   17.9880 C   0  0  0  0  0  0  0  0  0  0  0  0
    6.3200    0.6110   17.7450 N   0  0  0  0  0  0  0  0  0  0  0  0
    6.9480   -0.0290   18.7520 C   0  0  0  0  0  0  0  0  0  0  0  0
    9.1900   -1.1130   22.2320 N   0  0  0  0  0  0  0  0  0  0  0  0
   10.4830   -0.6380   22.7790 C   0  0  0  0  0  0  0  0  0  0  0  0
   11.7110   -0.6900   22.8340 C   0  0  0  0  0  0  0  0  0  0  0  0
   12.7470   -1.2130   22.4360 N   0  0  0  0  0  0  0  0  0  0  0  0
   12.9340   -0.2970   23.3010 O   0  0  0  0  0  0  0  0  0  0  0  0
   11.4930    0.1890   23.6290 C   0  0  0  0  0  0  0  0  0  0  0  0
  1  2  2  0
  2  3  1  0
  3  4  1  0
  4  5  2  0
  5  6  1  0
  6  7  2  0
  7  8  1  0
  4  9  1  0
  8  9  2  0
  2 10  1  0
 10 11  1  0
 11 12  1  0
 12 13  2  0
 13 14  1  0
 11 15  2  0
 14 15  1  0
M  END
