pyridine_urea_1339
     RDKit          3D

 20 20  0  0  0  0  0  0  0  0999 V2000
    8.7360    0.7490   21.3140 O   0  0  0  0  0  0  0  0  0  0  0  0
    8.1470   -0.2930   21.5700 C   0  0  0  0  0  0  0  0  0  0  0  0
    8.6030   -1.1760   22.5030 N   0  0  0  0  0  0  0  0  0  0  0  0
   10.0000   -1.1370   22.8180 C   0  0  0  0  0  0  0  0  0  0  0  0
   10.3900    0.2680   23.3060 C   0  0  0  0  0  0  0  0  0  0  0  0
   11.5750    0.3880   23.9880 C   0  0  0  0  0  0  0  0  0  0  0  0
   12.6740   -0.3680   23.6220 C   0  0  0  0  0  0  0  0  0  0  0  0
   13.3080   -0.8950   24.6650 F   0  0  0  0  0  0  0  0  0  0  0  0
   13.5280    0.5470   23.1070 F   0  0  0  0  0  0  0  0  0  0  0  0
   12.5240   -1.3140   22.6110 C   0  0  0  0  0  0  0  0  0  0  0  0
   11.3240   -1.2710   21.9980 F   0  0  0  0  0  0  0  0  0  0  0  0
   12.6530   -2.5680   23.1100 F   0  0  0  0  0  0  0  0  0  0  0  0
   13.4650   -1.1900   21.6520 F   0  0  0  0  0  0  0  0  0  0  0  0
    6.9810   -0.7320   21.0100 N   0  0  0  0  0  0  0  0  0  0  0  0
    6.3220   -0.0100   20.0160 C   0  0  0  0  0  0  0  0  0  0  0  0
    5.1240    0.7100   20.1970 C   0  0  0  0  0  0  0  0  0  0  0  0
    4.5610    1.4090   19.1300 C   0  0  0  0  0  0  0  0  0  0  0  0
    5.1760    1.4010   17.8810 C   0  0  0  0  0  0  0  0  0  0  0  0
    6.3340    0.6970   17.7100 N   0  0  0  0  0  0  0  0  0  0  0  0
    6.8980   -0.0020   18.7630 C   0  0  0  0  0  0  0  0  0  0  0  0
  1  2  2  0
  2  3  1  0
  3  4  1  0
  4  5  1  0
  5  6  1  0
  6  7  1  0
  7  8  1  0
  7  9  1  0
  7 10  1  0
 10 11  1  0
 10 12  1  0
 10 13  1  0
  2 14  1  0
 14 15  1  0
 15 16  2  0
 16 17  1  0
 17 18  2  0
 18 19  1  0
 15 20  1  0
 19 20  2  0
M  END
