pyridine_urea_13417
     RDKit          3D

 19 20  0  0  0  0  0  0  0  0999 V2000
    9.0790    1.1460   21.2470 O   0  0  0  0  0  0  0  0  0  0  0  0
    8.4930    0.1150   21.6010 C   0  0  0  0  0  0  0  0  0  0  0  0
    7.4370   -0.5000   20.9630 N   0  0  0  0  0  0  0  0  0  0  0  0
    6.5790    0.1320   20.0640 C   0  0  0  0  0  0  0  0  0  0  0  0
    5.2830    0.8590   20.4520 C   0  0  0  0  0  0  0  0  0  0  0  0
    4.5450    1.4850   19.2710 C   0  0  0  0  0  0  0  0  0  0  0  0
    5.1570    1.3180   17.9180 C   0  0  0  0  0  0  0  0  0  0  0  0
    6.2920    0.6510   17.6970 N   0  0  0  0  0  0  0  0  0  0  0  0
    6.9470    0.0950   18.7320 C   0  0  0  0  0  0  0  0  0  0  0  0
    8.8000   -0.5830   22.7490 N   0  0  0  0  0  0  0  0  0  0  0  0
   10.1310   -0.8020   23.2790 C   0  0  2  0  0  0  0  0  0  0  0  0
   10.5090    0.2450   24.1770 C   0  0  0  0  0  0  0  0  0  0  0  0
   11.6300    1.1640   23.1330 S   0  0  0  0  0  0  0  0  0  0  0  0
   12.2910   -0.4810   22.7940 C   0  0  1  0  0  0  0  0  0  0  0  0
   12.6470   -1.1950   23.9220 C   0  0  0  0  0  0  0  0  0  0  0  0
   11.6990   -2.0600   24.3670 F   0  0  0  0  0  0  0  0  0  0  0  0
   12.9350   -0.4250   24.9910 F   0  0  0  0  0  0  0  0  0  0  0  0
   13.7140   -1.9920   23.6900 F   0  0  0  0  0  0  0  0  0  0  0  0
   11.0290   -1.1490   22.2800 C   0  0  0  0  0  0  0  0  0  0  0  0
  1  2  2  0
  2  3  1  0
  3  4  1  0
  4  5  2  0
  5  6  1  0
  6  7  2  0
  7  8  1  0
  4  9  1  0
  8  9  2  0
  2 10  1  0
 11 10  1  6
 11 12  1  0
 12 13  1  0
 13 14  1  0
 14 15  1  1
 15 16  1  0
 15 17  1  0
 15 18  1  0
 11 19  1  0
 14 19  1  0
M  END
