pyridine_urea_4475
     RDKit          3D

 23 26  0  0  0  0  0  0  0  0999 V2000
    8.9860    1.3150   21.2270 O   0  0  0  0  0  0  0  0  0  0  0  0
    8.5190    0.2270   21.5830 C   0  0  0  0  0  0  0  0  0  0  0  0
    9.0860   -0.5310   22.5850 N   0  0  0  0  0  0  0  0  0  0  0  0
    9.0060   -0.0600   23.9490 C   0  0  0  0  0  0  0  0  0  0  0  0
   10.2800    0.5560   24.5180 C   0  0  1  0  0  0  0  0  0  0  0  0
   11.3670   -0.3830   25.0470 C   0  0  0  0  0  0  0  0  0  0  0  0
   11.5150    0.2590   23.6930 C   0  0  2  0  0  0  0  0  0  0  0  0
   12.5340    1.0830   23.1980 C   0  0  0  0  0  0  0  0  0  0  0  0
   13.2360   -0.2350   22.5570 C   0  0  0  0  0  0  0  0  0  0  0  0
   12.4890   -1.1790   21.9240 O   0  0  0  0  0  0  0  0  0  0  0  0
   11.1490   -1.4310   22.4040 C   0  0  0  0  0  0  0  0  0  0  0  0
   11.2460   -2.3850   21.5070 C   0  0  0  0  0  0  0  0  0  0  0  0
   12.4420   -2.4260   20.8560 C   0  0  0  0  0  0  0  0  0  0  0  0
   13.4050   -1.5070   21.1680 C   0  0  0  0  0  0  0  0  0  0  0  0
   13.1360   -0.5550   22.1590 C   0  0  0  0  0  0  0  0  0  0  0  0
   11.8210   -0.5400   22.8460 C   0  0  0  0  0  0  0  0  0  0  0  0
    7.3870   -0.3730   21.0790 N   0  0  0  0  0  0  0  0  0  0  0  0
    6.6270    0.1530   20.0340 C   0  0  0  0  0  0  0  0  0  0  0  0
    5.3820    0.9110   20.3440 C   0  0  0  0  0  0  0  0  0  0  0  0
    4.6490    1.4490   19.2910 C   0  0  0  0  0  0  0  0  0  0  0  0
    5.1210    1.2470   18.0120 C   0  0  0  0  0  0  0  0  0  0  0  0
    6.2340    0.5590   17.7090 N   0  0  0  0  0  0  0  0  0  0  0  0
    6.9560    0.0290   18.7130 C   0  0  0  0  0  0  0  0  0  0  0  0
  1  2  2  0
  2  3  1  0
  3  4  1  0
  5  4  1  6
  5  6  1  0
  5  7  1  0
  7  6  1  1
  7  8  1  0
  8  9  1  0
  9 10  1  0
 10 11  1  0
 11 12  2  0
 12 13  1  0
 13 14  2  0
 14 15  1  0
  7 16  1  0
 11 16  1  0
 15 16  2  0
  2 17  1  0
 17 18  1  0
 18 19  2  0
 19 20  1  0
 20 21  2  0
 21 22  1  0
 18 23  1  0
 22 23  2  0
M  END
