pyridine_urea_13114
     RDKit          3D

 21 22  0  0  0  0  0  0  0  0999 V2000
   13.1040   -2.5260   24.2650 C   0  0  0  0  0  0  0  0  0  0  0  0
   11.7150   -2.5690   23.9270 O   0  0  0  0  0  0  0  0  0  0  0  0
   11.2400   -1.6800   22.9790 C   0  0  0  0  0  0  0  0  0  0  0  0
   11.7390   -1.6770   21.8550 O   0  0  0  0  0  0  0  0  0  0  0  0
   10.1800   -0.8030   23.3060 C   0  0  2  0  0  0  0  0  0  0  0  0
    9.0120   -1.1840   22.4920 N   0  0  0  0  0  0  0  0  0  0  0  0
    8.3990   -0.2810   21.6190 C   0  0  0  0  0  0  0  0  0  0  0  0
    8.8790    0.8100   21.3520 O   0  0  0  0  0  0  0  0  0  0  0  0
    7.1280   -0.7910   21.0920 N   0  0  0  0  0  0  0  0  0  0  0  0
    6.4780   -0.1050   20.0880 C   0  0  0  0  0  0  0  0  0  0  0  0
    5.1970    0.6620   20.3960 C   0  0  0  0  0  0  0  0  0  0  0  0
    4.5990    1.3390   19.3570 C   0  0  0  0  0  0  0  0  0  0  0  0
    5.2350    1.2900   17.9810 C   0  0  0  0  0  0  0  0  0  0  0  0
    6.3680    0.5990   17.7350 N   0  0  0  0  0  0  0  0  0  0  0  0
    6.9520   -0.0740   18.7770 C   0  0  0  0  0  0  0  0  0  0  0  0
   10.3400    0.5640   23.0480 C   0  0  0  0  0  0  0  0  0  0  0  0
   11.4850    0.0790   23.6120 C   0  0  0  0  0  0  0  0  0  0  0  0
   12.4320    1.0140   23.2790 C   0  0  0  0  0  0  0  0  0  0  0  0
   11.9220    2.2760   23.7810 O   0  0  0  0  0  0  0  0  0  0  0  0
   10.5390    2.5610   23.4420 C   0  0  0  0  0  0  0  0  0  0  0  0
    9.6990    1.5150   23.8140 C   0  0  0  0  0  0  0  0  0  0  0  0
  1  2  1  0
  2  3  1  0
  3  4  2  0
  3  5  1  0
  5  6  1  6
  6  7  1  0
  7  8  2  0
  7  9  1  0
  9 10  1  0
 10 11  2  0
 11 12  1  0
 12 13  2  0
 13 14  1  0
 10 15  1  0
 14 15  2  0
  5 16  1  0
 16 17  1  0
 17 18  1  0
 18 19  1  0
 19 20  1  0
 16 21  1  0
 20 21  1  0
M  END
