pyridine_urea_568
     RDKit          3D

 24 26  0  0  0  0  0  0  0  0999 V2000
    8.4260    0.7930   21.0140 O   0  0  0  0  0  0  0  0  0  0  0  0
    7.8710   -0.2420   21.3380 C   0  0  0  0  0  0  0  0  0  0  0  0
    8.3020   -1.0900   22.2990 N   0  0  0  0  0  0  0  0  0  0  0  0
    8.8960   -0.6400   23.4520 C   0  0  0  0  0  0  0  0  0  0  0  0
    9.5350    0.5890   23.5210 C   0  0  0  0  0  0  0  0  0  0  0  0
   10.2110    1.0720   22.4980 C   0  0  0  0  0  0  0  0  0  0  0  0
   10.8340    0.0130   21.9990 N   0  0  0  0  0  0  0  0  0  0  0  0
   10.0800   -1.2070   21.7650 C   0  0  0  0  0  0  0  0  0  0  0  0
   10.3560   -2.3580   22.4430 C   0  0  0  0  0  0  0  0  0  0  0  0
   11.5000   -2.3950   23.4430 C   0  0  0  0  0  0  0  0  0  0  0  0
   11.8130   -3.3750   24.3100 C   0  0  0  0  0  0  0  0  0  0  0  0
   12.9310   -3.2700   25.1300 C   0  0  0  0  0  0  0  0  0  0  0  0
   13.7130   -2.1950   25.1250 C   0  0  0  0  0  0  0  0  0  0  0  0
   13.3850   -1.1890   24.2590 C   0  0  0  0  0  0  0  0  0  0  0  0
   12.2730   -1.2550   23.3820 C   0  0  0  0  0  0  0  0  0  0  0  0
   12.1310   -0.1610   22.5930 C   0  0  0  0  0  0  0  0  0  0  0  0
   13.0860    0.5860   22.4700 O   0  0  0  0  0  0  0  0  0  0  0  0
    6.7080   -0.6900   20.7910 N   0  0  0  0  0  0  0  0  0  0  0  0
    6.1510    0.0300   19.8200 C   0  0  0  0  0  0  0  0  0  0  0  0
    4.9440    0.6460   20.0540 C   0  0  0  0  0  0  0  0  0  0  0  0
    4.4170    1.3960   19.0250 C   0  0  0  0  0  0  0  0  0  0  0  0
    5.1180    1.4900   17.8290 C   0  0  0  0  0  0  0  0  0  0  0  0
    6.3140    0.8840   17.5650 N   0  0  0  0  0  0  0  0  0  0  0  0
    6.7830    0.1580   18.6140 C   0  0  0  0  0  0  0  0  0  0  0  0
  1  2  2  0
  2  3  1  0
  3  4  1  0
  4  5  1  0
  5  6  1  0
  6  7  1  0
  7  8  1  0
  8  9  2  0
  9 10  1  0
 10 11  2  0
 11 12  1  0
 12 13  2  0
 13 14  1  0
 10 15  1  0
 14 15  2  0
  7 16  1  0
 15 16  1  0
 16 17  2  0
  2 18  1  0
 18 19  1  0
 19 20  2  0
 20 21  1  0
 21 22  2  0
 22 23  1  0
 19 24  1  0
 23 24  2  0
M  END
