pyridine_urea_10087
     RDKit          3D

 23 25  0  0  0  0  0  0  0  0999 V2000
    8.9610    0.4680   21.3830 O   0  0  0  0  0  0  0  0  0  0  0  0
    8.3580   -0.5970   21.3260 C   0  0  0  0  0  0  0  0  0  0  0  0
    8.9350   -1.8480   21.5050 N   0  0  0  0  0  0  0  0  0  0  0  0
    9.8980   -2.1490   22.4690 C   0  0  0  0  0  0  0  0  0  0  0  0
   10.1860   -1.1200   23.2640 C   0  0  0  0  0  0  0  0  0  0  0  0
   11.3160   -1.3730   22.3950 C   0  0  0  0  0  0  0  0  0  0  0  0
   11.2550   -2.3770   21.5220 F   0  0  0  0  0  0  0  0  0  0  0  0
   12.4140   -0.6340   22.4410 C   0  0  0  0  0  0  0  0  0  0  0  0
   12.9990    0.3750   23.0210 C   0  0  0  0  0  0  0  0  0  0  0  0
   11.9050    0.7250   23.9730 C   0  0  0  0  0  0  0  0  0  0  0  0
   10.6790   -0.0130   24.0110 C   0  0  0  0  0  0  0  0  0  0  0  0
    9.5690    0.2910   24.9390 N   0  0  0  0  0  0  0  0  0  0  0  0
    9.6370   -0.0010   26.3790 C   0  0  0  0  0  0  0  0  0  0  0  0
    8.4560    0.3750   26.9220 C   0  0  0  0  0  0  0  0  0  0  0  0
    7.7110    0.8630   25.8710 C   0  0  0  0  0  0  0  0  0  0  0  0
    8.3270    0.8380   24.6420 N   0  0  0  0  0  0  0  0  0  0  0  0
    7.0150   -0.7180   21.0560 N   0  0  0  0  0  0  0  0  0  0  0  0
    6.4600   -0.0610   20.0150 C   0  0  0  0  0  0  0  0  0  0  0  0
    5.3160    0.6770   20.3200 C   0  0  0  0  0  0  0  0  0  0  0  0
    4.6410    1.4170   19.3420 C   0  0  0  0  0  0  0  0  0  0  0  0
    5.1100    1.4300   18.0220 C   0  0  0  0  0  0  0  0  0  0  0  0
    6.3100    0.6560   17.6710 N   0  0  0  0  0  0  0  0  0  0  0  0
    6.9380   -0.0810   18.7430 C   0  0  0  0  0  0  0  0  0  0  0  0
  1  2  2  0
  2  3  1  0
  3  4  1  0
  4  5  1  0
  5  6  2  0
  6  7  1  0
  6  8  1  0
  8  9  2  0
  9 10  1  0
  5 11  1  0
 10 11  2  0
 11 12  1  0
 12 13  1  0
 13 14  2  0
 14 15  1  0
 12 16  1  0
 15 16  2  0
  2 17  1  0
 17 18  1  0
 18 19  2  0
 19 20  1  0
 20 21  2  0
 21 22  1  0
 18 23  1  0
 22 23  2  0
M  END
