pyridine_urea_12684
     RDKit          3D

 20 21  0  0  0  0  0  0  0  0999 V2000
   13.2210   -2.1470   25.1040 C   0  0  0  0  0  0  0  0  0  0  0  0
   12.5590   -1.2090   24.3670 N   0  0  0  0  0  0  0  0  0  0  0  0
   11.4100   -0.4980   24.8630 C   0  0  0  0  0  0  0  0  0  0  0  0
   10.2280   -0.7990   23.9550 C   0  0  0  0  0  0  0  0  0  0  0  0
   10.4100   -0.2600   22.7210 C   0  0  0  0  0  0  0  0  0  0  0  0
   10.4530    1.1390   22.8220 C   0  0  0  0  0  0  0  0  0  0  0  0
   11.7070    1.7140   23.0780 C   0  0  0  0  0  0  0  0  0  0  0  0
   11.8480    3.0740   22.9830 O   0  0  0  0  0  0  0  0  0  0  0  0
    9.4410   -0.8440   21.8930 N   0  0  0  0  0  0  0  0  0  0  0  0
    8.4700    0.0640   21.3860 C   0  0  0  0  0  0  0  0  0  0  0  0
    8.7180    1.2470   21.1260 O   0  0  0  0  0  0  0  0  0  0  0  0
    7.2450   -0.4730   21.1600 N   0  0  0  0  0  0  0  0  0  0  0  0
    6.5670    0.0880   20.1230 C   0  0  0  0  0  0  0  0  0  0  0  0
    5.4120    0.8150   20.3850 C   0  0  0  0  0  0  0  0  0  0  0  0
    4.7110    1.4110   19.3340 C   0  0  0  0  0  0  0  0  0  0  0  0
    5.1960    1.2580   18.0320 C   0  0  0  0  0  0  0  0  0  0  0  0
    6.3000    0.5560   17.7560 N   0  0  0  0  0  0  0  0  0  0  0  0
    6.9510   -0.0080   18.7930 C   0  0  0  0  0  0  0  0  0  0  0  0
   11.7980   -0.7930   22.2370 C   0  0  0  0  0  0  0  0  0  0  0  0
   12.5920   -1.6060   23.0650 C   0  0  0  0  0  0  0  0  0  0  0  0
  1  2  1  0
  2  3  1  0
  3  4  1  0
  4  5  1  0
  5  6  1  0
  6  7  1  0
  7  8  1  0
  5  9  1  0
  9 10  1  0
 10 11  2  0
 10 12  1  0
 12 13  1  0
 13 14  2  0
 14 15  1  0
 15 16  2  0
 16 17  1  0
 13 18  1  0
 17 18  2  0
  5 19  1  0
  2 20  1  0
 19 20  1  0
M  END
