pyridine_urea_309
     RDKit          3D

 28 30  0  0  0  0  0  0  0  0999 V2000
   12.1050   -2.9120   24.6240 C   0  0  0  0  0  0  0  0  0  0  0  0
   10.7860   -2.4520   24.3630 O   0  0  0  0  0  0  0  0  0  0  0  0
   10.8810   -1.2640   23.6220 C   0  0  0  0  0  0  0  0  0  0  0  0
   12.3920   -0.9180   23.5810 C   0  0  0  0  0  0  0  0  0  0  0  0
   12.7050    0.2500   22.8500 C   0  0  0  0  0  0  0  0  0  0  0  0
   11.5660    0.7650   22.3740 C   0  0  0  0  0  0  0  0  0  0  0  0
   10.5570   -0.2440   22.9460 C   0  0  2  0  0  0  0  0  0  0  0  0
    9.5490   -0.8890   21.9960 N   0  0  0  0  0  0  0  0  0  0  0  0
    8.5220   -0.1570   21.3640 C   0  0  0  0  0  0  0  0  0  0  0  0
    8.6620    1.2200   20.9700 O   0  0  0  0  0  0  0  0  0  0  0  0
    7.2920   -0.8670   21.0910 N   0  0  0  0  0  0  0  0  0  0  0  0
    6.5840   -0.1730   20.0120 C   0  0  0  0  0  0  0  0  0  0  0  0
    5.3580    0.6060   20.3770 C   0  0  0  0  0  0  0  0  0  0  0  0
    4.6400    1.3200   19.4200 C   0  0  0  0  0  0  0  0  0  0  0  0
    5.0710    1.3070   18.0960 C   0  0  0  0  0  0  0  0  0  0  0  0
    6.2550    0.5420   17.7350 N   0  0  0  0  0  0  0  0  0  0  0  0
    6.9510   -0.1540   18.6920 C   0  0  0  0  0  0  0  0  0  0  0  0
   10.2150    1.2300   23.2420 C   0  0  0  0  0  0  0  0  0  0  0  0
   11.3710    2.2170   23.1800 C   0  0  0  0  0  0  0  0  0  0  0  0
   11.1610    3.6680   23.4730 C   0  0  0  0  0  0  0  0  0  0  0  0
    9.8820    4.1150   23.8020 C   0  0  0  0  0  0  0  0  0  0  0  0
    8.8200    3.1840   23.8380 C   0  0  0  0  0  0  0  0  0  0  0  0
    8.9340    1.7930   23.5700 C   0  0  0  0  0  0  0  0  0  0  0  0
    7.4780    0.8670   23.6630 Cl  0  0  0  0  0  0  0  0  0  0  0  0
   10.2170    0.7380   22.2360 C   0  0  0  0  0  0  0  0  0  0  0  0
    9.4510    1.7370   21.4640 O   0  0  0  0  0  0  0  0  0  0  0  0
    9.3570    3.0720   21.9470 C   0  0  0  0  0  0  0  0  0  0  0  0
    9.8350   -0.4540   22.9750 C   0  0  0  0  0  0  0  0  0  0  0  0
  1  2  1  0
  2  3  1  0
  3  4  2  0
  4  5  1  0
  5  6  2  0
  6  7  1  0
  7  8  1  6
  8  9  1  0
  9 10  2  0
  9 11  1  0
 11 12  1  0
 12 13  2  0
 13 14  1  0
 14 15  2  0
 15 16  1  0
 12 17  1  0
 16 17  2  0
  7 18  1  0
 18 19  2  0
 19 20  1  0
 20 21  2  0
 21 22  1  0
 18 23  1  0
 22 23  2  0
 23 24  1  0
  6 25  1  0
 25 26  1  0
 26 27  1  0
  3 28  1  0
 25 28  2  0
M  END
