pyridine_urea_4413
     RDKit          3D

 22 23  0  0  0  0  0  0  0  0999 V2000
   13.1580   -1.9880   21.1690 C   0  0  0  0  0  0  0  0  0  0  0  0
   13.3560   -1.4940   22.4820 O   0  0  0  0  0  0  0  0  0  0  0  0
   13.5230   -2.5070   23.4780 C   0  0  0  0  0  0  0  0  0  0  0  0
   14.3830   -3.3220   23.4930 O   0  0  0  0  0  0  0  0  0  0  0  0
   12.4830   -2.4270   24.5450 C   0  0  0  0  0  0  0  0  0  0  0  0
   11.5850   -1.3000   24.1840 C   0  0  1  0  0  0  0  0  0  0  0  0
   12.3460   -0.0120   24.2850 C   0  0  0  0  0  0  0  0  0  0  0  0
   11.6250    1.1780   23.6800 C   0  0  0  0  0  0  0  0  0  0  0  0
   10.2690    0.7680   23.0660 C   0  0  2  0  0  0  0  0  0  0  0  0
    9.3950    0.0620   23.8750 C   0  0  0  0  0  0  0  0  0  0  0  0
    8.5390   -0.6000   22.8990 N   0  0  0  0  0  0  0  0  0  0  0  0
    8.1830   -0.1060   21.6750 C   0  0  0  0  0  0  0  0  0  0  0  0
    8.7940    0.8340   21.1940 O   0  0  0  0  0  0  0  0  0  0  0  0
    7.1100   -0.6820   21.0610 N   0  0  0  0  0  0  0  0  0  0  0  0
    6.3730    0.0020   20.0820 C   0  0  0  0  0  0  0  0  0  0  0  0
    5.1700    0.6760   20.2860 C   0  0  0  0  0  0  0  0  0  0  0  0
    4.5470    1.3350   19.2350 C   0  0  0  0  0  0  0  0  0  0  0  0
    5.1960    1.2970   17.9070 C   0  0  0  0  0  0  0  0  0  0  0  0
    6.3490    0.6410   17.7130 N   0  0  0  0  0  0  0  0  0  0  0  0
    6.8850    0.0270   18.7880 C   0  0  0  0  0  0  0  0  0  0  0  0
   10.9100   -0.3740   22.2540 C   0  0  0  0  0  0  0  0  0  0  0  0
   10.9670   -1.5230   22.9880 C   0  0  0  0  0  0  0  0  0  0  0  0
  1  2  1  0
  2  3  1  0
  3  4  2  0
  3  5  1  0
  6  5  1  6
  6  7  1  0
  7  8  1  0
  8  9  1  0
  9 10  1  1
 10 11  1  0
 11 12  1  0
 12 13  2  0
 12 14  1  0
 14 15  1  0
 15 16  2  0
 16 17  1  0
 17 18  2  0
 18 19  1  0
 15 20  1  0
 19 20  2  0
  9 21  1  0
  6 22  1  0
 21 22  1  0
M  END
