pyridine_urea_5770
     RDKit          3D

 21 22  0  0  0  0  0  0  0  0999 V2000
   10.9970    2.5400   23.4730 C   0  0  0  0  0  0  0  0  0  0  0  0
   12.2920    2.6860   22.7270 C   0  0  0  0  0  0  0  0  0  0  0  0
   12.8150    1.5880   22.5020 O   0  0  0  0  0  0  0  0  0  0  0  0
   12.6130    0.5370   23.3470 C   0  0  0  0  0  0  0  0  0  0  0  0
   12.5080    0.5870   24.5480 O   0  0  0  0  0  0  0  0  0  0  0  0
   12.5300   -0.6180   22.5950 C   0  0  0  0  0  0  0  0  0  0  0  0
   13.4130   -1.2770   21.8540 N   0  0  0  0  0  0  0  0  0  0  0  0
   12.6720   -2.3360   21.3830 C   0  0  0  0  0  0  0  0  0  0  0  0
   11.5100   -2.4180   21.7160 O   0  0  0  0  0  0  0  0  0  0  0  0
   11.3110   -1.2980   22.5410 C   0  0  0  0  0  0  0  0  0  0  0  0
    9.9990   -0.9400   23.2250 C   0  0  0  0  0  0  0  0  0  0  0  0
    8.8950   -1.2710   22.3480 N   0  0  0  0  0  0  0  0  0  0  0  0
    8.3470   -0.2780   21.5660 C   0  0  0  0  0  0  0  0  0  0  0  0
    8.8860    0.7960   21.3160 O   0  0  0  0  0  0  0  0  0  0  0  0
    7.1050   -0.6410   21.1020 N   0  0  0  0  0  0  0  0  0  0  0  0
    6.4580    0.0070   20.0410 C   0  0  0  0  0  0  0  0  0  0  0  0
    5.2800    0.7120   20.2960 C   0  0  0  0  0  0  0  0  0  0  0  0
    4.6360    1.3740   19.2490 C   0  0  0  0  0  0  0  0  0  0  0  0
    5.1920    1.3080   17.9900 C   0  0  0  0  0  0  0  0  0  0  0  0
    6.3190    0.6310   17.7270 N   0  0  0  0  0  0  0  0  0  0  0  0
    6.9240   -0.0030   18.7470 C   0  0  0  0  0  0  0  0  0  0  0  0
  1  2  1  0
  2  3  1  0
  3  4  1  0
  4  5  2  0
  4  6  1  0
  6  7  1  0
  7  8  2  0
  8  9  1  0
  6 10  2  0
  9 10  1  0
 10 11  1  0
 11 12  1  0
 12 13  1  0
 13 14  2  0
 13 15  1  0
 15 16  1  0
 16 17  2  0
 17 18  1  0
 18 19  2  0
 19 20  1  0
 16 21  1  0
 20 21  2  0
M  END
