pyridine_urea_14146
     RDKit          3D

 22 24  0  0  0  0  0  0  0  0999 V2000
   12.1880    3.3250   22.5150 C   0  0  0  0  0  0  0  0  0  0  0  0
   10.9790    2.6310   22.8430 O   0  0  0  0  0  0  0  0  0  0  0  0
   11.0810    1.2690   22.9040 C   0  0  0  0  0  0  0  0  0  0  0  0
    9.8910    0.6380   23.0520 C   0  0  0  0  0  0  0  0  0  0  0  0
    9.0840   -0.4720   23.1850 C   0  0  0  0  0  0  0  0  0  0  0  0
    7.8240   -0.4570   22.9280 N   0  0  0  0  0  0  0  0  0  0  0  0
    7.8440   -0.1260   21.6120 C   0  0  0  0  0  0  0  0  0  0  0  0
    8.5800    0.7110   21.1110 O   0  0  0  0  0  0  0  0  0  0  0  0
    6.9350   -0.8270   20.9340 N   0  0  0  0  0  0  0  0  0  0  0  0
    6.3740   -0.1060   19.9430 C   0  0  0  0  0  0  0  0  0  0  0  0
    5.0710    0.5700   20.2790 C   0  0  0  0  0  0  0  0  0  0  0  0
    4.5270    1.3630   19.1150 C   0  0  0  0  0  0  0  0  0  0  0  0
    5.2060    1.4130   17.9160 C   0  0  0  0  0  0  0  0  0  0  0  0
    6.3530    0.8150   17.6180 N   0  0  0  0  0  0  0  0  0  0  0  0
    6.8870    0.0620   18.6820 C   0  0  0  0  0  0  0  0  0  0  0  0
   10.6110   -0.4860   23.0400 O   0  0  0  0  0  0  0  0  0  0  0  0
   11.9850   -0.6070   22.9150 C   0  0  0  0  0  0  0  0  0  0  0  0
   11.1630   -1.6970   23.0500 C   0  0  0  0  0  0  0  0  0  0  0  0
   12.3750   -2.2300   22.9760 C   0  0  0  0  0  0  0  0  0  0  0  0
   13.4670   -1.4300   22.8280 C   0  0  0  0  0  0  0  0  0  0  0  0
   13.4740   -0.0180   22.7430 C   0  0  0  0  0  0  0  0  0  0  0  0
   12.3720    0.7660   22.8070 C   0  0  0  0  0  0  0  0  0  0  0  0
  1  2  1  0
  2  3  1  0
  3  4  2  0
  4  5  1  0
  5  6  1  0
  6  7  1  0
  7  8  2  0
  7  9  1  0
  9 10  1  0
 10 11  2  0
 11 12  1  0
 12 13  2  0
 13 14  1  0
 10 15  1  0
 14 15  2  0
  4 16  1  0
 16 17  1  0
 17 18  1  0
 18 19  2  0
 19 20  1  0
 20 21  2  0
  3 22  1  0
 17 22  2  0
 21 22  1  0
M  END
