pyridine_urea_2231
     RDKit          3D

 27 31  0  0  0  0  0  0  0  0999 V2000
    8.4790    0.8440   20.9640 O   0  0  0  0  0  0  0  0  0  0  0  0
    8.0250   -0.2330   21.3340 C   0  0  0  0  0  0  0  0  0  0  0  0
    6.8910   -0.7850   20.8450 N   0  0  0  0  0  0  0  0  0  0  0  0
    6.1850   -0.0330   19.9340 C   0  0  0  0  0  0  0  0  0  0  0  0
    4.8570    0.6740   20.2140 C   0  0  0  0  0  0  0  0  0  0  0  0
    4.3290    1.4580   19.0250 C   0  0  0  0  0  0  0  0  0  0  0  0
    5.1430    1.4420   17.7690 C   0  0  0  0  0  0  0  0  0  0  0  0
    6.2980    0.7700   17.6420 N   0  0  0  0  0  0  0  0  0  0  0  0
    6.7680    0.0790   18.6880 C   0  0  0  0  0  0  0  0  0  0  0  0
    8.6000   -1.0160   22.3080 N   0  0  0  0  0  0  0  0  0  0  0  0
    9.7630   -0.5420   23.0350 C   0  0  2  0  0  0  0  0  0  0  0  0
    9.3410   -0.3090   24.3760 C   0  0  0  0  0  0  0  0  0  0  0  0
    7.9560   -0.1180   24.5070 C   0  0  0  0  0  0  0  0  0  0  0  0
    7.3370    0.0670   25.6690 C   0  0  0  0  0  0  0  0  0  0  0  0
    8.1260    0.0570   26.7610 C   0  0  0  0  0  0  0  0  0  0  0  0
    9.5320   -0.1280   26.7050 C   0  0  0  0  0  0  0  0  0  0  0  0
   10.3620   -0.3450   25.3690 C   0  0  0  0  0  0  0  0  0  0  0  0
   10.6180    0.3000   22.2800 C   0  0  2  0  0  0  0  0  0  0  0  0
   11.8240    0.2370   22.8820 C   0  0  0  0  0  0  0  0  0  0  0  0
   11.1940    0.0220   24.0600 C   0  0  2  0  0  0  0  0  0  0  0  0
   10.3880   -1.1570   23.8600 C   0  0  0  0  0  0  0  0  0  0  0  0
    9.3730   -1.0010   22.7160 C   0  0  1  0  0  0  0  0  0  0  0  0
    8.5180    0.2620   23.1780 C   0  0  0  0  0  0  0  0  0  0  0  0
    9.3030    1.3940   23.5610 C   0  0  1  0  0  0  0  0  0  0  0  0
   10.3620    1.1230   24.4380 C   0  0  0  0  0  0  0  0  0  0  0  0
    9.9220    1.6620   22.3790 C   0  0  0  0  0  0  0  0  0  0  0  0
   10.0350   -0.8070   21.5230 C   0  0  0  0  0  0  0  0  0  0  0  0
  1  2  2  0
  2  3  1  0
  3  4  1  0
  4  5  2  0
  5  6  1  0
  6  7  2  0
  7  8  1  0
  4  9  1  0
  8  9  2  0
  2 10  1  0
 11 10  1  6
 11 12  1  0
 12 13  2  0
 13 14  1  0
 14 15  2  0
 15 16  1  0
 12 17  1  0
 16 17  2  0
 11 18  1  0
 18 19  1  1
 20 19  1  6
 20 21  1  0
 22 21  1  1
 22 23  1  0
 24 23  1  6
 20 25  1  0
 24 25  1  0
 18 26  1  0
 24 26  1  0
 18 27  1  0
 22 27  1  0
M  END
