pyridine_urea_2294
     RDKit          3D

 25 26  0  0  0  0  0  0  0  0999 V2000
    9.0920    0.9170   21.4210 O   0  0  0  0  0  0  0  0  0  0  0  0
    8.6200   -0.1900   21.5990 C   0  0  0  0  0  0  0  0  0  0  0  0
    7.3900   -0.6160   21.1290 N   0  0  0  0  0  0  0  0  0  0  0  0
    6.6450   -0.0030   20.0960 C   0  0  0  0  0  0  0  0  0  0  0  0
    5.4910    0.7270   20.4170 C   0  0  0  0  0  0  0  0  0  0  0  0
    4.7480    1.3490   19.4100 C   0  0  0  0  0  0  0  0  0  0  0  0
    5.1840    1.2200   18.1090 C   0  0  0  0  0  0  0  0  0  0  0  0
    6.2790    0.5250   17.7690 N   0  0  0  0  0  0  0  0  0  0  0  0
    6.9810   -0.0680   18.7590 C   0  0  0  0  0  0  0  0  0  0  0  0
    9.2880   -1.1810   22.3140 N   0  0  0  0  0  0  0  0  0  0  0  0
   10.5300   -0.9240   23.1210 C   0  0  2  0  0  0  0  0  0  0  0  0
   10.6210    0.5910   23.4200 C   0  0  0  0  0  0  0  0  0  0  0  0
    9.6770    1.3460   23.7460 C   0  0  0  0  0  0  0  0  0  0  0  0
   11.0380    1.8050   23.5920 C   0  0  0  0  0  0  0  0  0  0  0  0
   11.4620    0.3630   23.2330 C   0  0  0  0  0  0  0  0  0  0  0  0
   12.7600    0.9080   23.1070 C   0  0  0  0  0  0  0  0  0  0  0  0
   11.7120    1.5320   23.4160 C   0  0  0  0  0  0  0  0  0  0  0  0
   11.6090    2.8890   23.7010 O   0  0  0  0  0  0  0  0  0  0  0  0
   12.4040    3.7430   22.8560 C   0  0  0  0  0  0  0  0  0  0  0  0
   12.3230    4.9900   23.3770 F   0  0  0  0  0  0  0  0  0  0  0  0
   11.8550    3.8330   21.6250 F   0  0  0  0  0  0  0  0  0  0  0  0
   11.8440   -1.6160   22.5830 C   0  0  0  0  0  0  0  0  0  0  0  0
   12.8510   -0.7700   22.2370 F   0  0  0  0  0  0  0  0  0  0  0  0
   11.5850   -2.3530   21.4760 F   0  0  0  0  0  0  0  0  0  0  0  0
   12.3630   -2.4870   23.4760 F   0  0  0  0  0  0  0  0  0  0  0  0
  1  2  2  0
  2  3  1  0
  3  4  1  0
  4  5  2  0
  5  6  1  0
  6  7  2  0
  7  8  1  0
  4  9  1  0
  8  9  2  0
  2 10  1  0
 11 10  1  6
 11 12  1  0
 12 13  2  0
 13 14  1  0
 14 15  2  0
 15 16  1  0
 12 17  1  0
 16 17  2  0
 17 18  1  0
 18 19  1  0
 19 20  1  0
 19 21  1  0
 11 22  1  0
 22 23  1  0
 22 24  1  0
 22 25  1  0
M  END
