pyridine_urea_12544
     RDKit          3D

 21 22  0  0  0  0  0  0  0  0999 V2000
   13.2970   -1.9480   25.1510 C   0  0  0  0  0  0  0  0  0  0  0  0
   13.4520   -2.4590   23.7350 C   0  0  0  0  0  0  0  0  0  0  0  0
   13.3590   -1.2630   22.7320 C   0  0  0  0  0  0  0  0  0  0  0  0
   13.5420    0.1040   22.8690 C   0  0  0  0  0  0  0  0  0  0  0  0
   13.3690   -1.7460   21.2560 C   0  0  0  0  0  0  0  0  0  0  0  0
   11.9970   -0.9690   22.9620 C   0  0  0  0  0  0  0  0  0  0  0  0
   11.4970   -0.2290   24.1980 C   0  0  0  0  0  0  0  0  0  0  0  0
   10.0320    0.0240   24.2690 C   0  0  0  0  0  0  0  0  0  0  0  0
    9.3580   -0.5310   23.0350 C   0  0  0  0  0  0  0  0  0  0  0  0
    7.9820   -0.3330   22.9290 N   0  0  0  0  0  0  0  0  0  0  0  0
    7.7800    0.1830   21.6840 C   0  0  0  0  0  0  0  0  0  0  0  0
    8.5880    1.2640   21.1440 O   0  0  0  0  0  0  0  0  0  0  0  0
    6.7470   -0.4710   21.0300 N   0  0  0  0  0  0  0  0  0  0  0  0
    6.2230    0.1390   19.9270 C   0  0  0  0  0  0  0  0  0  0  0  0
    4.9310    0.9050   20.0740 C   0  0  0  0  0  0  0  0  0  0  0  0
    4.4340    1.5370   18.9530 C   0  0  0  0  0  0  0  0  0  0  0  0
    5.1550    1.4280   17.7640 C   0  0  0  0  0  0  0  0  0  0  0  0
    6.3040    0.7380   17.6270 N   0  0  0  0  0  0  0  0  0  0  0  0
    6.8100    0.1130   18.6960 C   0  0  0  0  0  0  0  0  0  0  0  0
    9.9210   -1.1950   21.9770 C   0  0  0  0  0  0  0  0  0  0  0  0
   11.2260   -1.3960   21.9780 C   0  0  0  0  0  0  0  0  0  0  0  0
  1  2  1  0
  3  2  1  0
  3  4  1  0
  3  5  1  0
  3  6  1  0
  6  7  2  0
  7  8  1  0
  8  9  2  0
  9 10  1  0
 10 11  1  0
 11 12  2  0
 11 13  1  0
 13 14  1  0
 14 15  2  0
 15 16  1  0
 16 17  2  0
 17 18  1  0
 14 19  1  0
 18 19  2  0
  9 20  1  0
  6 21  1  0
 20 21  2  0
M  END
