pyridine_urea_8780
     RDKit          3D

 21 22  0  0  0  0  0  0  0  0999 V2000
   12.4080    5.2410   23.6710 C   0  0  0  0  0  0  0  0  0  0  0  0
   12.7520    4.1150   22.3460 S   0  0  0  0  0  0  0  0  0  0  0  0
   11.5110    3.9380   21.6410 O   0  0  0  0  0  0  0  0  0  0  0  0
   13.9020    4.6600   21.6480 O   0  0  0  0  0  0  0  0  0  0  0  0
   13.1320    2.5890   23.0050 N   0  0  0  0  0  0  0  0  0  0  0  0
   12.2710    1.5050   22.8790 C   0  0  0  0  0  0  0  0  0  0  0  0
   10.9510    1.7830   22.9620 C   0  0  0  0  0  0  0  0  0  0  0  0
    9.9630    0.8730   22.8270 C   0  0  0  0  0  0  0  0  0  0  0  0
   10.2780   -0.4380   22.5760 C   0  0  0  0  0  0  0  0  0  0  0  0
    9.1980   -1.2090   22.4100 N   0  0  0  0  0  0  0  0  0  0  0  0
    8.3860   -0.4840   21.5650 C   0  0  0  0  0  0  0  0  0  0  0  0
    8.6840    0.6260   21.1520 O   0  0  0  0  0  0  0  0  0  0  0  0
    7.1250   -1.0800   21.1570 N   0  0  0  0  0  0  0  0  0  0  0  0
    6.4950   -0.3130   20.0880 C   0  0  0  0  0  0  0  0  0  0  0  0
    5.1970    0.4600   20.3640 C   0  0  0  0  0  0  0  0  0  0  0  0
    4.6150    1.1950   19.3400 C   0  0  0  0  0  0  0  0  0  0  0  0
    5.2170    1.2170   18.1020 C   0  0  0  0  0  0  0  0  0  0  0  0
    6.3570    0.5620   17.7840 N   0  0  0  0  0  0  0  0  0  0  0  0
    6.9380   -0.1680   18.7790 C   0  0  0  0  0  0  0  0  0  0  0  0
   11.6570   -0.7760   22.5060 C   0  0  0  0  0  0  0  0  0  0  0  0
   12.6890    0.1800   22.6580 C   0  0  0  0  0  0  0  0  0  0  0  0
  1  2  1  0
  2  3  2  0
  2  4  2  0
  2  5  1  0
  5  6  1  0
  6  7  2  0
  7  8  1  0
  8  9  2  0
  9 10  1  0
 10 11  1  0
 11 12  2  0
 11 13  1  0
 13 14  1  0
 14 15  2  0
 15 16  1  0
 16 17  2  0
 17 18  1  0
 14 19  1  0
 18 19  2  0
  9 20  1  0
  6 21  1  0
 20 21  2  0
M  END
