pyridine_urea_8104
     RDKit          3D

 24 26  0  0  0  0  0  0  0  0999 V2000
    8.8600    0.9890   21.4080 O   0  0  0  0  0  0  0  0  0  0  0  0
    8.5130   -0.1780   21.4340 C   0  0  0  0  0  0  0  0  0  0  0  0
    9.3380   -1.1750   21.9100 N   0  0  0  0  0  0  0  0  0  0  0  0
   10.1040   -0.9690   23.1280 C   0  0  0  0  0  0  0  0  0  0  0  0
   11.3050    0.0480   23.0490 C   0  0  0  0  0  0  0  0  0  0  0  0
   11.0220    1.4130   23.0100 C   0  0  0  0  0  0  0  0  0  0  0  0
   12.0650    2.3290   22.7200 N   0  0  0  0  0  0  0  0  0  0  0  0
   11.4710    3.5530   22.7760 C   0  0  0  0  0  0  0  0  0  0  0  0
   12.0740    4.8030   22.5670 C   0  0  0  0  0  0  0  0  0  0  0  0
   11.3900    5.8830   23.4290 C   0  0  0  0  0  0  0  0  0  0  0  0
   10.1360    6.6100   22.9280 C   0  0  0  0  0  0  0  0  0  0  0  0
    9.5270    7.6560   23.8530 C   0  0  0  0  0  0  0  0  0  0  0  0
   10.1830    7.9330   25.2040 C   0  0  0  0  0  0  0  0  0  0  0  0
   11.4310    7.1950   25.6720 C   0  0  0  0  0  0  0  0  0  0  0  0
   11.9680    6.1640   24.6890 C   0  0  0  0  0  0  0  0  0  0  0  0
   10.1150    3.4720   23.0770 N   0  0  0  0  0  0  0  0  0  0  0  0
    9.8340    2.0750   23.2250 O   0  0  0  0  0  0  0  0  0  0  0  0
    7.2910   -0.6350   20.9880 N   0  0  0  0  0  0  0  0  0  0  0  0
    6.5290   -0.0010   20.0770 C   0  0  0  0  0  0  0  0  0  0  0  0
    5.3550    0.7110   20.3650 C   0  0  0  0  0  0  0  0  0  0  0  0
    4.6650    1.3410   19.3340 C   0  0  0  0  0  0  0  0  0  0  0  0
    5.1680    1.2390   18.0570 C   0  0  0  0  0  0  0  0  0  0  0  0
    6.2830    0.5590   17.7470 N   0  0  0  0  0  0  0  0  0  0  0  0
    6.9390   -0.0470   18.7560 C   0  0  0  0  0  0  0  0  0  0  0  0
  1  2  2  0
  2  3  1  0
  3  4  1  0
  4  5  1  0
  5  6  1  0
  6  7  2  0
  7  8  1  0
  8  9  1  0
  9 10  1  0
 10 11  2  0
 11 12  1  0
 12 13  2  0
 13 14  1  0
 10 15  1  0
 14 15  2  0
  8 16  2  0
  6 17  1  0
 16 17  1  0
  2 18  1  0
 18 19  1  0
 19 20  2  0
 20 21  1  0
 21 22  2  0
 22 23  1  0
 19 24  1  0
 23 24  2  0
M  END
