pyridine_urea_1697
     RDKit          3D

 18 18  0  0  0  0  0  0  0  0999 V2000
   12.2320   -2.1060   21.7540 C   0  0  0  0  0  0  0  0  0  0  0  0
   11.4130   -1.0240   22.3710 C   0  0  1  0  0  0  0  0  0  0  0  0
   10.3040   -1.2920   23.1750 C   0  0  0  0  0  0  0  0  0  0  0  0
    9.0140   -1.2560   22.5460 N   0  0  0  0  0  0  0  0  0  0  0  0
    8.4890   -0.3040   21.6580 C   0  0  0  0  0  0  0  0  0  0  0  0
    8.9910    0.7810   21.4130 O   0  0  0  0  0  0  0  0  0  0  0  0
    7.2880   -0.7350   21.0900 N   0  0  0  0  0  0  0  0  0  0  0  0
    6.5600   -0.0600   20.0830 C   0  0  0  0  0  0  0  0  0  0  0  0
    5.4030    0.6560   20.4530 C   0  0  0  0  0  0  0  0  0  0  0  0
    4.6760    1.3400   19.4780 C   0  0  0  0  0  0  0  0  0  0  0  0
    5.1890    1.2650   18.0430 C   0  0  0  0  0  0  0  0  0  0  0  0
    6.2850    0.5680   17.7390 N   0  0  0  0  0  0  0  0  0  0  0  0
    6.9320   -0.0680   18.7450 C   0  0  0  0  0  0  0  0  0  0  0  0
   12.4250   -0.0440   23.0020 C   0  0  0  0  0  0  0  0  0  0  0  0
   11.7890    1.1390   23.2930 C   0  0  0  0  0  0  0  0  0  0  0  0
   11.2010    1.2690   24.4710 F   0  0  0  0  0  0  0  0  0  0  0  0
   10.7350    1.3100   22.4610 F   0  0  0  0  0  0  0  0  0  0  0  0
   12.6060    2.1910   23.1150 F   0  0  0  0  0  0  0  0  0  0  0  0
  2  1  1  1
  2  3  1  0
  3  4  1  0
  4  5  1  0
  5  6  2  0
  5  7  1  0
  7  8  1  0
  8  9  2  0
  9 10  1  0
 10 11  2  0
 11 12  1  0
  8 13  1  0
 12 13  2  0
  2 14  1  0
 14 15  1  0
 15 16  1  0
 15 17  1  0
 15 18  1  0
M  END
