pyridine_urea_13839
     RDKit          3D

 24 26  0  0  0  0  0  0  0  0999 V2000
   10.4420   -4.8330   26.1830 C   0  0  0  0  0  0  0  0  0  0  0  0
   10.3620   -3.8610   25.5020 C   0  0  0  0  0  0  0  0  0  0  0  0
   10.7880   -2.7240   24.5300 C   0  0  0  0  0  0  0  0  0  0  0  0
    9.9070   -1.6350   24.0470 C   0  0  0  0  0  0  0  0  0  0  0  0
   10.2610   -0.6000   23.1750 C   0  0  0  0  0  0  0  0  0  0  0  0
    9.3040   -0.8960   22.1200 N   0  0  0  0  0  0  0  0  0  0  0  0
    8.5770    0.0500   21.4160 C   0  0  0  0  0  0  0  0  0  0  0  0
    8.9870    1.2000   21.2140 O   0  0  0  0  0  0  0  0  0  0  0  0
    7.3680   -0.4670   20.9820 N   0  0  0  0  0  0  0  0  0  0  0  0
    6.5000    0.1760   20.0890 C   0  0  0  0  0  0  0  0  0  0  0  0
    5.3700    0.8230   20.4920 C   0  0  0  0  0  0  0  0  0  0  0  0
    4.7170    1.4050   19.2520 C   0  0  0  0  0  0  0  0  0  0  0  0
    5.1860    1.2920   17.9610 C   0  0  0  0  0  0  0  0  0  0  0  0
    6.2900    0.6290   17.6870 N   0  0  0  0  0  0  0  0  0  0  0  0
    6.8780    0.1120   18.7560 C   0  0  0  0  0  0  0  0  0  0  0  0
   11.6850   -1.2030   22.7560 C   0  0  0  0  0  0  0  0  0  0  0  0
   12.3920   -1.0060   24.0970 C   0  0  0  0  0  0  0  0  0  0  0  0
   12.6620    0.0960   23.1300 C   0  0  0  0  0  0  0  0  0  0  0  0
   11.6900    1.1800   23.4240 C   0  0  0  0  0  0  0  0  0  0  0  0
   10.5160    0.6030   23.8710 C   0  0  0  0  0  0  0  0  0  0  0  0
    8.6180   -1.6310   24.4860 C   0  0  0  0  0  0  0  0  0  0  0  0
    8.1620   -2.6000   25.3410 C   0  0  0  0  0  0  0  0  0  0  0  0
    8.9230   -3.6610   25.8460 C   0  0  0  0  0  0  0  0  0  0  0  0
    8.0230   -4.8590   27.0170 Br  0  0  0  0  0  0  0  0  0  0  0  0
  1  2  1  0
  2  3  2  0
  3  4  1  0
  4  5  1  0
  5  6  1  0
  6  7  1  0
  7  8  2  0
  7  9  1  0
  9 10  1  0
 10 11  2  0
 11 12  1  0
 12 13  2  0
 13 14  1  0
 10 15  1  0
 14 15  2  0
  5 16  1  0
 16 17  1  0
 17 18  1  0
 18 19  1  0
  5 20  1  0
 19 20  1  0
  4 21  2  0
 21 22  1  0
  2 23  1  0
 22 23  2  0
 23 24  1  0
M  END
