pyridine_urea_10453
     RDKit          3D

 22 23  0  0  0  0  0  0  0  0999 V2000
    8.5750    0.5530   21.2500 O   0  0  0  0  0  0  0  0  0  0  0  0
    8.0010   -0.4610   21.6360 C   0  0  0  0  0  0  0  0  0  0  0  0
    8.4730   -1.3580   22.5440 N   0  0  0  0  0  0  0  0  0  0  0  0
    9.7520   -1.8770   22.4820 C   0  0  0  0  0  0  0  0  0  0  0  0
   10.7550   -1.0360   21.7280 C   0  0  0  0  0  0  0  0  0  0  0  0
   11.0690    0.4610   22.5970 S   0  0  0  0  0  0  0  0  0  0  0  0
   12.4670    0.8260   22.5570 O   0  0  0  0  0  0  0  0  0  0  0  0
    9.9760    1.4030   22.4570 O   0  0  0  0  0  0  0  0  0  0  0  0
   10.8220   -0.3350   23.9490 N   0  0  0  0  0  0  0  0  0  0  0  0
   11.6250   -1.3580   24.3320 C   0  0  0  0  0  0  0  0  0  0  0  0
   13.0370   -1.1690   24.7140 C   0  0  0  0  0  0  0  0  0  0  0  0
   13.7580   -2.2330   25.1250 C   0  0  0  0  0  0  0  0  0  0  0  0
   13.1160   -3.3870   25.1290 C   0  0  0  0  0  0  0  0  0  0  0  0
   11.7760   -3.4530   24.7110 C   0  0  0  0  0  0  0  0  0  0  0  0
   10.9960   -2.5020   24.3170 N   0  0  0  0  0  0  0  0  0  0  0  0
    6.7880   -0.7440   21.1270 N   0  0  0  0  0  0  0  0  0  0  0  0
    6.1970   -0.0070   20.1130 C   0  0  0  0  0  0  0  0  0  0  0  0
    5.0380    0.7560   20.1450 C   0  0  0  0  0  0  0  0  0  0  0  0
    4.5630    1.4590   19.0470 C   0  0  0  0  0  0  0  0  0  0  0  0
    5.2300    1.4410   17.8200 C   0  0  0  0  0  0  0  0  0  0  0  0
    6.3540    0.7380   17.6520 N   0  0  0  0  0  0  0  0  0  0  0  0
    6.8230    0.0520   18.7190 C   0  0  0  0  0  0  0  0  0  0  0  0
  1  2  2  0
  2  3  1  0
  3  4  1  0
  4  5  1  0
  5  6  1  0
  6  7  2  0
  6  8  2  0
  6  9  1  0
  9 10  1  0
 10 11  2  0
 11 12  1  0
 12 13  2  0
 13 14  1  0
 10 15  1  0
 14 15  2  0
  2 16  1  0
 16 17  1  0
 17 18  2  0
 18 19  1  0
 19 20  2  0
 20 21  1  0
 17 22  1  0
 21 22  2  0
M  END
