pyridine_urea_7772
     RDKit          3D

 29 30  0  0  0  0  0  0  0  0999 V2000
   16.9050  -11.3920   23.7740 C   0  0  0  0  0  0  0  0  0  0  0  0
   17.1680  -10.2020   24.3360 O   0  0  0  0  0  0  0  0  0  0  0  0
   16.3550   -9.1700   25.0330 C   0  0  0  0  0  0  0  0  0  0  0  0
   16.7240   -8.7540   24.1190 C   0  0  0  0  0  0  0  0  0  0  0  0
   15.7670   -6.9890   23.3320 O   0  0  0  0  0  0  0  0  0  0  0  0
   15.9960   -5.8070   22.2960 C   0  0  0  0  0  0  0  0  0  0  0  0
   15.6490   -5.6120   20.8550 C   0  0  0  0  0  0  0  0  0  0  0  0
   14.5770   -4.8490   20.4850 C   0  0  0  0  0  0  0  0  0  0  0  0
   13.9340   -3.6370   20.2520 C   0  0  0  0  0  0  0  0  0  0  0  0
   13.0460   -3.1500   21.3450 N   0  0  0  0  0  0  0  0  0  0  0  0
   13.4530   -1.7060   22.0450 S   0  0  0  0  0  0  0  0  0  0  0  0
   14.1140   -2.0330   23.2660 O   0  0  0  0  0  0  0  0  0  0  0  0
   13.9390   -0.9260   20.9490 O   0  0  0  0  0  0  0  0  0  0  0  0
   12.1390   -0.8130   22.6330 C   0  0  0  0  0  0  0  0  0  0  0  0
   12.4080    0.2900   23.4150 C   0  0  0  0  0  0  0  0  0  0  0  0
   11.4140    1.0540   23.9260 C   0  0  0  0  0  0  0  0  0  0  0  0
   10.0960    0.7580   23.6850 C   0  0  0  0  0  0  0  0  0  0  0  0
    9.8270   -0.3600   22.8850 C   0  0  0  0  0  0  0  0  0  0  0  0
    8.5780   -0.7320   22.5610 N   0  0  0  0  0  0  0  0  0  0  0  0
    7.9950   -0.1180   21.4620 C   0  0  0  0  0  0  0  0  0  0  0  0
    8.4140    0.9290   20.9840 O   0  0  0  0  0  0  0  0  0  0  0  0
    6.9350   -0.7860   20.9970 N   0  0  0  0  0  0  0  0  0  0  0  0
    6.2780   -0.0520   20.0070 C   0  0  0  0  0  0  0  0  0  0  0  0
    5.0810    0.6480   20.1670 C   0  0  0  0  0  0  0  0  0  0  0  0
    4.5380    1.3520   19.1090 C   0  0  0  0  0  0  0  0  0  0  0  0
    5.2190    1.3330   17.9130 C   0  0  0  0  0  0  0  0  0  0  0  0
    6.3690    0.6770   17.6960 N   0  0  0  0  0  0  0  0  0  0  0  0
    6.8700   -0.0020   18.7530 C   0  0  0  0  0  0  0  0  0  0  0  0
   10.8430   -1.1500   22.3570 C   0  0  0  0  0  0  0  0  0  0  0  0
  1  2  1  0
  2  3  1  0
  3  4  1  0
  4  5  1  0
  5  6  1  0
  6  7  1  0
  7  8  1  0
  8  9  1  0
  9 10  1  0
 11 10  1  0
 11 12  2  0
 11 13  2  0
 11 14  1  0
 14 15  2  0
 15 16  1  0
 16 17  2  0
 17 18  1  0
 18 19  1  0
 19 20  1  0
 20 21  2  0
 20 22  1  0
 22 23  1  0
 23 24  2  0
 24 25  1  0
 25 26  2  0
 26 27  1  0
 23 28  1  0
 27 28  2  0
 14 29  1  0
 18 29  2  0
M  END
