pyridine_urea_248
     RDKit          3D

 29 31  0  0  0  0  0  0  0  0999 V2000
    8.5790    0.6900   21.1580 O   0  0  0  0  0  0  0  0  0  0  0  0
    7.9660   -0.3280   21.4680 C   0  0  0  0  0  0  0  0  0  0  0  0
    6.7080   -0.6410   21.0590 N   0  0  0  0  0  0  0  0  0  0  0  0
    6.2210    0.0630   19.9230 C   0  0  0  0  0  0  0  0  0  0  0  0
    4.9450    0.8470   20.1520 C   0  0  0  0  0  0  0  0  0  0  0  0
    4.4650    1.5770   18.9590 C   0  0  0  0  0  0  0  0  0  0  0  0
    5.1930    1.4820   17.7900 C   0  0  0  0  0  0  0  0  0  0  0  0
    6.3250    0.7620   17.6460 N   0  0  0  0  0  0  0  0  0  0  0  0
    6.8110    0.0780   18.6930 C   0  0  0  0  0  0  0  0  0  0  0  0
    8.4370   -1.3080   22.2650 N   0  0  0  0  0  0  0  0  0  0  0  0
    9.8060   -1.2060   22.7030 C   0  0  0  0  0  0  0  0  0  0  0  0
   10.6020   -0.9590   21.7110 C   0  0  0  0  0  0  0  0  0  0  0  0
   12.0330   -0.8540   22.1810 C   0  0  0  0  0  0  0  0  0  0  0  0
   12.5370   -0.9520   23.3580 C   0  0  0  0  0  0  0  0  0  0  0  0
   13.8690   -0.8180   23.5230 O   0  0  0  0  0  0  0  0  0  0  0  0
   13.3060   -1.8180   24.1540 C   0  0  0  0  0  0  0  0  0  0  0  0
   12.1020   -1.9870   23.4810 C   0  0  0  0  0  0  0  0  0  0  0  0
   10.8640   -2.8790   23.5970 C   0  0  0  0  0  0  0  0  0  0  0  0
   11.4200   -3.5760   24.7880 C   0  0  0  0  0  0  0  0  0  0  0  0
   10.6610   -4.5320   25.3490 F   0  0  0  0  0  0  0  0  0  0  0  0
   12.7350   -3.3430   25.4310 C   0  0  0  0  0  0  0  0  0  0  0  0
   13.1100   -4.2270   26.6430 Cl  0  0  0  0  0  0  0  0  0  0  0  0
   13.6670   -2.4960   25.1410 C   0  0  0  0  0  0  0  0  0  0  0  0
   11.4040   -1.2680   24.3870 C   0  0  0  0  0  0  0  0  0  0  0  0
   10.0910   -1.3750   24.0050 C   0  0  0  0  0  0  0  0  0  0  0  0
    9.0430   -1.6620   24.8790 C   0  0  0  0  0  0  0  0  0  0  0  0
    8.5780   -0.5720   25.5470 F   0  0  0  0  0  0  0  0  0  0  0  0
    7.9420   -2.1430   24.2380 F   0  0  0  0  0  0  0  0  0  0  0  0
    9.3200   -2.6580   25.7640 F   0  0  0  0  0  0  0  0  0  0  0  0
  1  2  2  0
  2  3  1  0
  3  4  1  0
  4  5  2  0
  5  6  1  0
  6  7  2  0
  7  8  1  0
  4  9  1  0
  8  9  2  0
  2 10  1  0
 10 11  1  0
 11 12  2  0
 12 13  1  0
 13 14  2  0
 14 15  1  0
 15 16  1  0
 16 17  2  0
 17 18  1  0
 18 19  2  0
 19 20  1  0
 19 21  1  0
 21 22  1  0
 16 23  1  0
 21 23  2  0
 14 24  1  0
 11 25  1  0
 24 25  2  0
 25 26  1  0
 26 27  1  0
 26 28  1  0
 26 29  1  0
M  END
