pyridine_urea_9027
     RDKit          3D

 19 20  0  0  0  0  0  0  0  0999 V2000
    7.9290   -0.5170   26.3470 C   0  0  0  0  0  0  0  0  0  0  0  0
    8.7380   -1.0000   25.1130 C   0  0  0  0  0  0  0  0  0  0  0  0
   10.2130   -0.7300   25.4710 C   0  0  0  0  0  0  0  0  0  0  0  0
    8.3910   -0.0500   23.9510 C   0  0  0  0  0  0  0  0  0  0  0  0
    8.8650   -0.4930   22.6530 N   0  0  0  0  0  0  0  0  0  0  0  0
    8.4660    0.1930   21.5340 C   0  0  0  0  0  0  0  0  0  0  0  0
    9.0020    1.2400   21.1620 O   0  0  0  0  0  0  0  0  0  0  0  0
    7.3910   -0.4360   20.9470 N   0  0  0  0  0  0  0  0  0  0  0  0
    6.5540    0.1770   20.0170 C   0  0  0  0  0  0  0  0  0  0  0  0
    5.3820    0.8730   20.3040 C   0  0  0  0  0  0  0  0  0  0  0  0
    4.6550    1.4550   19.2640 C   0  0  0  0  0  0  0  0  0  0  0  0
    5.1350    1.3130   17.9800 C   0  0  0  0  0  0  0  0  0  0  0  0
    6.2520    0.6400   17.6780 N   0  0  0  0  0  0  0  0  0  0  0  0
    6.9260    0.0930   18.6970 C   0  0  0  0  0  0  0  0  0  0  0  0
    8.2880   -2.2430   24.8150 N   0  0  0  0  0  0  0  0  0  0  0  0
    6.9840   -2.7850   25.0640 C   0  0  0  0  0  0  0  0  0  0  0  0
    7.0460   -4.1670   24.5470 C   0  0  0  0  0  0  0  0  0  0  0  0
    8.2380   -4.4770   24.0270 N   0  0  0  0  0  0  0  0  0  0  0  0
    8.9720   -3.2880   24.2040 C   0  0  0  0  0  0  0  0  0  0  0  0
  2  1  1  0
  2  3  1  0
  2  4  1  0
  4  5  1  0
  5  6  1  0
  6  7  2  0
  6  8  1  0
  8  9  1  0
  9 10  2  0
 10 11  1  0
 11 12  2  0
 12 13  1  0
  9 14  1  0
 13 14  2  0
  2 15  1  0
 15 16  1  0
 16 17  2  0
 17 18  1  0
 15 19  1  0
 18 19  2  0
M  END
