pyridine_urea_8169
     RDKit          3D

 23 25  0  0  0  0  0  0  0  0999 V2000
   10.7520    0.1380   24.1290 C   0  0  0  0  0  0  0  0  0  0  0  0
    9.2940   -0.2570   23.8720 C   0  0  1  0  0  0  0  0  0  0  0  0
    9.1970   -0.8820   22.5530 N   0  0  0  0  0  0  0  0  0  0  0  0
    8.5050   -0.0040   21.5820 C   0  0  0  0  0  0  0  0  0  0  0  0
    8.9440    1.1030   21.2300 O   0  0  0  0  0  0  0  0  0  0  0  0
    7.2260   -0.6670   21.1310 N   0  0  0  0  0  0  0  0  0  0  0  0
    6.5210    0.0220   20.0550 C   0  0  0  0  0  0  0  0  0  0  0  0
    5.2420    0.8280   20.3490 C   0  0  0  0  0  0  0  0  0  0  0  0
    4.6140    1.4810   19.2980 C   0  0  0  0  0  0  0  0  0  0  0  0
    5.1880    1.3940   17.8980 C   0  0  0  0  0  0  0  0  0  0  0  0
    6.3270    0.6540   17.6940 N   0  0  0  0  0  0  0  0  0  0  0  0
    6.9750   -0.0170   18.7410 C   0  0  0  0  0  0  0  0  0  0  0  0
    8.8420   -1.2960   24.9090 C   0  0  0  0  0  0  0  0  0  0  0  0
    8.5530   -2.4300   24.5570 O   0  0  0  0  0  0  0  0  0  0  0  0
    8.7790   -0.8680   26.3250 N   0  0  0  0  0  0  0  0  0  0  0  0
    8.0090   -1.6010   27.2970 C   0  0  0  0  0  0  0  0  0  0  0  0
    7.5600   -0.5340   28.2220 C   0  0  0  0  0  0  0  0  0  0  0  0
    6.8300   -0.6950   29.5460 C   0  0  0  0  0  0  0  0  0  0  0  0
    6.5240    0.4960   30.2180 C   0  0  0  0  0  0  0  0  0  0  0  0
    6.9140    1.7170   29.6160 C   0  0  0  0  0  0  0  0  0  0  0  0
    7.5870    1.7950   28.3910 C   0  0  0  0  0  0  0  0  0  0  0  0
    7.9040    0.6480   27.7070 C   0  0  0  0  0  0  0  0  0  0  0  0
    8.5760    0.5210   26.4720 C   0  0  0  0  0  0  0  0  0  0  0  0
  2  1  1  1
  2  3  1  0
  3  4  1  0
  4  5  2  0
  4  6  1  0
  6  7  1  0
  7  8  2  0
  8  9  1  0
  9 10  2  0
 10 11  1  0
  7 12  1  0
 11 12  2  0
  2 13  1  0
 13 14  2  0
 13 15  1  0
 15 16  1  0
 16 17  1  0
 17 18  1  0
 18 19  2  0
 19 20  1  0
 20 21  2  0
 17 22  2  0
 21 22  1  0
 15 23  1  0
 22 23  1  0
M  END
