pyridine_urea_197
     RDKit          3D

 21 22  0  0  0  0  0  0  0  0999 V2000
   13.3740   -2.1200   25.3480 C   0  0  0  0  0  0  0  0  0  0  0  0
   12.4680   -2.5010   24.6860 C   0  0  0  0  0  0  0  0  0  0  0  0
   11.2000   -3.2040   24.2600 C   0  0  0  0  0  0  0  0  0  0  0  0
   13.3460   -2.7150   23.4520 C   0  0  0  0  0  0  0  0  0  0  0  0
   11.9170   -1.2290   24.4240 O   0  0  0  0  0  0  0  0  0  0  0  0
   11.6350   -0.9510   23.1240 C   0  0  2  0  0  0  0  0  0  0  0  0
   12.8200   -0.0920   22.7330 C   0  0  0  0  0  0  0  0  0  0  0  0
   12.4210    1.2960   22.9900 C   0  0  0  0  0  0  0  0  0  0  0  0
   11.5560    1.4130   23.9990 C   0  0  0  0  0  0  0  0  0  0  0  0
   10.3330    0.9230   23.2780 C   0  0  0  0  0  0  0  0  0  0  0  0
   10.2370   -0.4410   23.2050 C   0  0  1  0  0  0  0  0  0  0  0  0
    9.3340   -0.9370   22.1520 N   0  0  0  0  0  0  0  0  0  0  0  0
    8.5020    0.0280   21.3950 C   0  0  0  0  0  0  0  0  0  0  0  0
    8.9110    1.3010   21.1200 O   0  0  0  0  0  0  0  0  0  0  0  0
    7.2880   -0.4870   21.0010 N   0  0  0  0  0  0  0  0  0  0  0  0
    6.4720    0.1280   20.0400 C   0  0  0  0  0  0  0  0  0  0  0  0
    5.2100    0.8010   20.6420 C   0  0  0  0  0  0  0  0  0  0  0  0
    4.6410    1.3570   19.3390 C   0  0  0  0  0  0  0  0  0  0  0  0
    5.2030    1.2290   17.9730 C   0  0  0  0  0  0  0  0  0  0  0  0
    6.2920    0.6010   17.6730 N   0  0  0  0  0  0  0  0  0  0  0  0
    6.8870    0.0730   18.7200 C   0  0  0  0  0  0  0  0  0  0  0  0
  1  2  1  0
  2  3  1  0
  2  4  1  0
  2  5  1  0
  6  5  1  1
  6  7  1  0
  7  8  1  0
  8  9  1  0
  9 10  1  0
  6 11  1  0
 10 11  1  0
 11 12  1  6
 12 13  1  0
 13 14  2  0
 13 15  1  0
 15 16  1  0
 16 17  2  0
 17 18  1  0
 18 19  2  0
 19 20  1  0
 16 21  1  0
 20 21  2  0
M  END
