pyridine_urea_10336
     RDKit          3D

 22 24  0  0  0  0  0  0  0  0999 V2000
   10.1330   -1.5160   21.7690 C   0  0  0  0  0  0  0  0  0  0  0  0
    9.7170   -0.4970   22.8230 C   0  0  2  0  0  0  0  0  0  0  0  0
    8.3730   -0.1010   22.6610 N   0  0  0  0  0  0  0  0  0  0  0  0
    8.0810    0.3970   21.4690 C   0  0  0  0  0  0  0  0  0  0  0  0
    8.6710    1.3690   20.9900 O   0  0  0  0  0  0  0  0  0  0  0  0
    7.0710   -0.3250   20.9310 N   0  0  0  0  0  0  0  0  0  0  0  0
    6.4420    0.2420   19.8730 C   0  0  0  0  0  0  0  0  0  0  0  0
    5.1930    1.0150   20.0910 C   0  0  0  0  0  0  0  0  0  0  0  0
    4.5610    1.6300   19.0380 C   0  0  0  0  0  0  0  0  0  0  0  0
    5.0830    1.5400   17.7450 C   0  0  0  0  0  0  0  0  0  0  0  0
    6.2890    0.7640   17.5800 N   0  0  0  0  0  0  0  0  0  0  0  0
    6.9050    0.1600   18.6160 C   0  0  0  0  0  0  0  0  0  0  0  0
   10.7240    0.6450   23.0510 C   0  0  1  0  0  0  0  0  0  0  0  0
   10.3790    1.4540   24.0980 C   0  0  0  0  0  0  0  0  0  0  0  0
    9.5760    0.7890   25.0590 C   0  0  0  0  0  0  0  0  0  0  0  0
   10.1630   -0.2900   25.8390 C   0  0  0  0  0  0  0  0  0  0  0  0
   11.3680   -0.7370   24.9720 C   0  0  0  0  0  0  0  0  0  0  0  0
   12.5880   -1.7040   25.0090 C   0  0  0  0  0  0  0  0  0  0  0  0
   13.6040   -1.9240   23.8550 C   0  0  0  0  0  0  0  0  0  0  0  0
   13.2070   -1.0940   22.8720 C   0  0  0  0  0  0  0  0  0  0  0  0
   12.5520   -1.0800   23.9010 C   0  0  0  0  0  0  0  0  0  0  0  0
   11.5180   -0.2590   23.7950 C   0  0  0  0  0  0  0  0  0  0  0  0
  2  1  1  6
  2  3  1  0
  3  4  1  0
  4  5  2  0
  4  6  1  0
  6  7  1  0
  7  8  2  0
  8  9  1  0
  9 10  2  0
 10 11  1  0
  7 12  1  0
 11 12  2  0
  2 13  1  0
 13 14  1  1
 14 15  1  0
 15 16  1  0
 16 17  1  0
 17 18  2  0
 18 19  1  0
 19 20  2  0
 20 21  1  0
 13 22  1  0
 17 22  1  0
 21 22  2  0
M  END
