pyridine_urea_1409
     RDKit          3D

 20 21  0  0  0  0  0  0  0  0999 V2000
   13.1880    5.7210   22.0070 C   0  0  0  0  0  0  0  0  0  0  0  0
   13.6230    4.0480   21.5700 S   0  0  0  0  0  0  0  0  0  0  0  0
   12.6130    3.0810   22.7100 C   0  0  0  0  0  0  0  0  0  0  0  0
   13.1370    1.6560   23.0530 C   0  0  0  0  0  0  0  0  0  0  0  0
   12.2180    0.7370   22.8920 C   0  0  0  0  0  0  0  0  0  0  0  0
   11.0050    1.2360   23.2290 C   0  0  0  0  0  0  0  0  0  0  0  0
    9.9180    0.4700   23.0620 C   0  0  0  0  0  0  0  0  0  0  0  0
   10.0450   -0.8020   22.5530 C   0  0  0  0  0  0  0  0  0  0  0  0
    8.8520   -1.4570   22.3300 N   0  0  0  0  0  0  0  0  0  0  0  0
    8.1200   -0.6060   21.5070 C   0  0  0  0  0  0  0  0  0  0  0  0
    8.5350    0.5150   21.2080 O   0  0  0  0  0  0  0  0  0  0  0  0
    6.9150   -1.0390   21.0230 N   0  0  0  0  0  0  0  0  0  0  0  0
    6.3230   -0.2700   20.0260 C   0  0  0  0  0  0  0  0  0  0  0  0
    5.1040    0.3730   20.2880 C   0  0  0  0  0  0  0  0  0  0  0  0
    4.5110    1.1660   19.2880 C   0  0  0  0  0  0  0  0  0  0  0  0
    5.2240    1.2820   17.9790 C   0  0  0  0  0  0  0  0  0  0  0  0
    6.3860    0.6500   17.7630 N   0  0  0  0  0  0  0  0  0  0  0  0
    6.8950   -0.0950   18.7760 C   0  0  0  0  0  0  0  0  0  0  0  0
   11.3020   -1.3520   22.2480 C   0  0  0  0  0  0  0  0  0  0  0  0
   12.4100   -0.5620   22.4270 C   0  0  0  0  0  0  0  0  0  0  0  0
  1  2  1  0
  2  3  1  0
  3  4  1  0
  4  5  1  0
  5  6  2  0
  6  7  1  0
  7  8  2  0
  8  9  1  0
  9 10  1  0
 10 11  2  0
 10 12  1  0
 12 13  1  0
 13 14  2  0
 14 15  1  0
 15 16  2  0
 16 17  1  0
 13 18  1  0
 17 18  2  0
  8 19  1  0
  5 20  1  0
 19 20  2  0
M  END
