pyridine_urea_138
     RDKit          3D

 18 19  0  0  0  0  0  0  0  0999 V2000
    9.4880   -0.3710   23.9300 C   0  0  0  0  0  0  0  0  0  0  0  0
   10.1040   -1.1180   23.2160 C   0  0  2  0  0  0  0  0  0  0  0  0
   11.2240   -1.6610   22.3230 C   0  0  0  0  0  0  0  0  0  0  0  0
   12.3440   -0.7480   22.5540 C   0  0  0  0  0  0  0  0  0  0  0  0
   13.4550   -1.0790   21.7270 O   0  0  0  0  0  0  0  0  0  0  0  0
   12.6430   -0.5530   23.8600 C   0  0  0  0  0  0  0  0  0  0  0  0
   12.0630    0.7470   24.0390 C   0  0  0  0  0  0  0  0  0  0  0  0
   11.8940    0.8220   22.6140 C   0  0  0  0  0  0  0  0  0  0  0  0
    9.0410   -1.3520   22.2300 N   0  0  0  0  0  0  0  0  0  0  0  0
    8.4540   -0.3120   21.5390 C   0  0  0  0  0  0  0  0  0  0  0  0
    8.9810    0.7780   21.3940 O   0  0  0  0  0  0  0  0  0  0  0  0
    7.2150   -0.6750   21.0560 N   0  0  0  0  0  0  0  0  0  0  0  0
    6.4820    0.0100   20.0770 C   0  0  0  0  0  0  0  0  0  0  0  0
    5.3170    0.7300   20.2760 C   0  0  0  0  0  0  0  0  0  0  0  0
    4.6610    1.3880   19.2490 C   0  0  0  0  0  0  0  0  0  0  0  0
    5.1960    1.3190   17.9830 C   0  0  0  0  0  0  0  0  0  0  0  0
    6.3290    0.6230   17.7320 N   0  0  0  0  0  0  0  0  0  0  0  0
    6.9340   -0.0060   18.7670 C   0  0  0  0  0  0  0  0  0  0  0  0
  2  1  1  6
  2  3  1  0
  3  4  1  0
  4  5  1  0
  4  6  1  0
  6  7  1  0
  4  8  1  0
  7  8  1  0
  2  9  1  0
  9 10  1  0
 10 11  2  0
 10 12  1  0
 12 13  1  0
 13 14  2  0
 14 15  1  0
 15 16  2  0
 16 17  1  0
 13 18  1  0
 17 18  2  0
M  END
