pyridine_urea_13299
     RDKit          3D

 28 31  0  0  0  0  0  0  0  0999 V2000
    8.4740    0.9850   21.4070 O   0  0  0  0  0  0  0  0  0  0  0  0
    8.1580   -0.1840   21.5860 C   0  0  0  0  0  0  0  0  0  0  0  0
    7.0260   -0.7480   21.0720 N   0  0  0  0  0  0  0  0  0  0  0  0
    6.3910   -0.0770   20.0160 C   0  0  0  0  0  0  0  0  0  0  0  0
    5.1900    0.5970   20.2490 C   0  0  0  0  0  0  0  0  0  0  0  0
    4.5680    1.2840   19.2000 C   0  0  0  0  0  0  0  0  0  0  0  0
    5.1770    1.2680   17.9630 C   0  0  0  0  0  0  0  0  0  0  0  0
    6.3260    0.6210   17.7230 N   0  0  0  0  0  0  0  0  0  0  0  0
    6.9050   -0.0350   18.7440 C   0  0  0  0  0  0  0  0  0  0  0  0
    8.9780   -1.0060   22.3110 N   0  0  0  0  0  0  0  0  0  0  0  0
   10.2980   -0.4790   22.1590 C   0  0  2  0  0  0  0  0  0  0  0  0
   11.5280   -1.3690   22.3120 C   0  0  0  0  0  0  0  0  0  0  0  0
   12.3980   -0.7900   23.2230 C   0  0  2  0  0  0  0  0  0  0  0  0
   12.1440   -1.0940   24.5100 C   0  0  0  0  0  0  0  0  0  0  0  0
   12.4280   -2.2460   25.1120 N   0  0  0  0  0  0  0  0  0  0  0  0
   13.6430   -2.6310   25.5000 C   0  0  0  0  0  0  0  0  0  0  0  0
   13.4870   -3.8090   26.1080 C   0  0  0  0  0  0  0  0  0  0  0  0
   12.2100   -4.1960   26.1150 N   0  0  0  0  0  0  0  0  0  0  0  0
   11.5010   -3.2330   25.4630 C   0  0  0  0  0  0  0  0  0  0  0  0
   10.1330   -3.3430   25.2780 C   0  0  0  0  0  0  0  0  0  0  0  0
    9.3870   -3.9190   26.3090 C   0  0  0  0  0  0  0  0  0  0  0  0
    7.9970   -4.1220   26.2970 C   0  0  0  0  0  0  0  0  0  0  0  0
    7.3810   -3.6240   24.9760 C   0  0  0  0  0  0  0  0  0  0  0  0
    8.1450   -3.0530   23.9600 C   0  0  0  0  0  0  0  0  0  0  0  0
    9.5160   -2.9130   24.1110 C   0  0  0  0  0  0  0  0  0  0  0  0
   12.0430    0.6920   23.1310 C   0  0  0  0  0  0  0  0  0  0  0  0
   10.6460    0.6650   23.1140 C   0  0  1  0  0  0  0  0  0  0  0  0
   10.1200    1.9030   22.6580 O   0  0  0  0  0  0  0  0  0  0  0  0
  1  2  2  0
  2  3  1  0
  3  4  1  0
  4  5  2  0
  5  6  1  0
  6  7  2  0
  7  8  1  0
  4  9  1  0
  8  9  2  0
  2 10  1  0
 11 10  1  1
 11 12  1  0
 12 13  1  0
 13 14  1  1
 14 15  1  0
 15 16  1  0
 16 17  2  0
 17 18  1  0
 15 19  1  0
 18 19  2  0
 19 20  1  0
 20 21  2  0
 21 22  1  0
 22 23  2  0
 23 24  1  0
 20 25  1  0
 24 25  2  0
 13 26  1  0
 11 27  1  0
 26 27  1  0
 27 28  1  6
M  END
