pyridine_urea_10792
     RDKit          3D

 20 22  0  0  0  0  0  0  0  0999 V2000
    9.0690    1.0880   21.2500 O   0  0  0  0  0  0  0  0  0  0  0  0
    8.5510    0.0500   21.6960 C   0  0  0  0  0  0  0  0  0  0  0  0
    7.4450   -0.6400   21.0220 N   0  0  0  0  0  0  0  0  0  0  0  0
    6.6700    0.0240   20.0670 C   0  0  0  0  0  0  0  0  0  0  0  0
    5.5410    0.7680   20.4310 C   0  0  0  0  0  0  0  0  0  0  0  0
    4.8110    1.4160   19.4260 C   0  0  0  0  0  0  0  0  0  0  0  0
    5.2290    1.3010   18.1000 C   0  0  0  0  0  0  0  0  0  0  0  0
    6.3050    0.5870   17.7400 N   0  0  0  0  0  0  0  0  0  0  0  0
    6.9980   -0.0360   18.7290 C   0  0  0  0  0  0  0  0  0  0  0  0
    8.8770   -0.6160   22.8800 N   0  0  0  0  0  0  0  0  0  0  0  0
   10.1930   -1.1990   23.2180 C   0  0  0  0  0  0  0  0  0  0  0  0
   10.0640   -2.4200   24.1440 C   0  0  0  0  0  0  0  0  0  0  0  0
   11.1750   -2.8760   24.8610 C   0  0  0  0  0  0  0  0  0  0  0  0
   11.1030   -3.9960   25.7210 C   0  0  0  0  0  0  0  0  0  0  0  0
    9.8980   -4.6830   25.8770 C   0  0  0  0  0  0  0  0  0  0  0  0
    8.7780   -4.2340   25.1610 N   0  0  0  0  0  0  0  0  0  0  0  0
    8.8770   -3.1270   24.3170 C   0  0  0  0  0  0  0  0  0  0  0  0
   11.2340   -1.1900   22.2580 C   0  0  0  0  0  0  0  0  0  0  0  0
   12.0430   -0.2380   22.8650 C   0  0  0  0  0  0  0  0  0  0  0  0
   11.0810   -0.1340   23.8480 C   0  0  0  0  0  0  0  0  0  0  0  0
  1  2  2  0
  2  3  1  0
  3  4  1  0
  4  5  2  0
  5  6  1  0
  6  7  2  0
  7  8  1  0
  4  9  1  0
  8  9  2  0
  2 10  1  0
 11 10  1  0
 11 12  1  0
 12 13  2  0
 13 14  1  0
 14 15  2  0
 15 16  1  0
 12 17  1  0
 16 17  2  0
 11 18  1  0
 18 19  1  0
 11 20  1  0
 19 20  1  0
M  END
