pyridine_urea_3065
     RDKit          3D

 21 22  0  0  0  0  0  0  0  0999 V2000
   13.2800   -2.3170   24.2650 C   0  0  0  0  0  0  0  0  0  0  0  0
   12.1410   -1.4770   24.3980 O   0  0  0  0  0  0  0  0  0  0  0  0
   11.4870   -1.0800   23.2570 C   0  0  1  0  0  0  0  0  0  0  0  0
   10.1110   -1.3640   23.1020 C   0  0  0  0  0  0  0  0  0  0  0  0
    9.5160   -1.1840   21.7620 N   0  0  0  0  0  0  0  0  0  0  0  0
    8.6120   -0.1740   21.4580 C   0  0  0  0  0  0  0  0  0  0  0  0
    8.9290    1.0060   21.4710 O   0  0  0  0  0  0  0  0  0  0  0  0
    7.2790   -0.6950   21.0960 N   0  0  0  0  0  0  0  0  0  0  0  0
    6.5670   -0.0440   20.1010 C   0  0  0  0  0  0  0  0  0  0  0  0
    5.2940    0.7180   20.4670 C   0  0  0  0  0  0  0  0  0  0  0  0
    4.6210    1.3680   19.4310 C   0  0  0  0  0  0  0  0  0  0  0  0
    5.2180    1.2610   18.0240 C   0  0  0  0  0  0  0  0  0  0  0  0
    6.3410    0.5700   17.7610 N   0  0  0  0  0  0  0  0  0  0  0  0
    6.9740   -0.0550   18.7790 C   0  0  0  0  0  0  0  0  0  0  0  0
   11.6210    0.4320   23.1730 C   0  0  0  0  0  0  0  0  0  0  0  0
   12.8930    0.2150   22.9510 C   0  0  0  0  0  0  0  0  0  0  0  0
   12.1050    1.3090   23.0600 C   0  0  0  0  0  0  0  0  0  0  0  0
   10.6350    1.0590   23.3590 C   0  0  0  0  0  0  0  0  0  0  0  0
   11.0340    2.2220   23.2230 C   0  0  0  0  0  0  0  0  0  0  0  0
   12.2900    1.8440   22.9840 C   0  0  0  0  0  0  0  0  0  0  0  0
   12.4370    3.2460   22.8910 C   0  0  0  0  0  0  0  0  0  0  0  0
  1  2  1  0
  2  3  1  0
  3  4  1  1
  4  5  1  0
  5  6  1  0
  6  7  2  0
  6  8  1  0
  8  9  1  0
  9 10  2  0
 10 11  1  0
 11 12  2  0
 12 13  1  0
  9 14  1  0
 13 14  2  0
  3 15  1  0
 15 16  2  0
 16 17  1  0
 17 18  2  0
 18 19  1  0
 15 20  1  0
 19 20  2  0
 20 21  1  0
M  END
