pyridine_urea_1542
     RDKit          3D

 19 20  0  0  0  0  0  0  0  0999 V2000
   13.4190   -2.5200   24.1390 C   0  0  0  0  0  0  0  0  0  0  0  0
   13.5840   -1.7880   22.9280 O   0  0  0  0  0  0  0  0  0  0  0  0
   12.6340   -0.8200   22.8650 C   0  0  0  0  0  0  0  0  0  0  0  0
   12.9510    0.5150   22.9620 C   0  0  0  0  0  0  0  0  0  0  0  0
   11.9490    1.4650   22.9160 N   0  0  0  0  0  0  0  0  0  0  0  0
   10.6470    1.0500   22.7750 C   0  0  0  0  0  0  0  0  0  0  0  0
    9.7050    2.0100   22.7420 F   0  0  0  0  0  0  0  0  0  0  0  0
   10.2750   -0.2820   22.6590 C   0  0  0  0  0  0  0  0  0  0  0  0
    8.9930   -0.6240   22.4990 N   0  0  0  0  0  0  0  0  0  0  0  0
    8.3940    0.0940   21.5300 C   0  0  0  0  0  0  0  0  0  0  0  0
    8.8130    1.1820   21.1130 O   0  0  0  0  0  0  0  0  0  0  0  0
    7.2500   -0.5150   21.0630 N   0  0  0  0  0  0  0  0  0  0  0  0
    6.5020    0.0940   19.9940 C   0  0  0  0  0  0  0  0  0  0  0  0
    5.2190    0.8590   20.3220 C   0  0  0  0  0  0  0  0  0  0  0  0
    4.5730    1.4380   19.2500 C   0  0  0  0  0  0  0  0  0  0  0  0
    5.1210    1.2880   17.9730 C   0  0  0  0  0  0  0  0  0  0  0  0
    6.2480    0.6010   17.6860 N   0  0  0  0  0  0  0  0  0  0  0  0
    6.9200    0.0160   18.6960 C   0  0  0  0  0  0  0  0  0  0  0  0
   11.3060   -1.2210   22.7090 C   0  0  0  0  0  0  0  0  0  0  0  0
  1  2  1  0
  2  3  1  0
  3  4  2  0
  4  5  1  0
  5  6  2  0
  6  7  1  0
  6  8  1  0
  8  9  1  0
  9 10  1  0
 10 11  2  0
 10 12  1  0
 12 13  1  0
 13 14  2  0
 14 15  1  0
 15 16  2  0
 16 17  1  0
 13 18  1  0
 17 18  2  0
  3 19  1  0
  8 19  2  0
M  END
