pyridine_urea_13895
     RDKit          3D

 24 26  0  0  0  0  0  0  0  0999 V2000
   13.0880    5.0230   21.6620 C   0  0  0  0  0  0  0  0  0  0  0  0
   13.1450    4.0900   22.7270 O   0  0  0  0  0  0  0  0  0  0  0  0
   11.9890    3.2670   22.7790 C   0  0  0  0  0  0  0  0  0  0  0  0
   10.6920    4.0940   22.7130 C   0  0  0  0  0  0  0  0  0  0  0  0
    9.3730    3.4350   22.7570 C   0  0  0  0  0  0  0  0  0  0  0  0
    9.3920    2.0870   22.8570 C   0  0  0  0  0  0  0  0  0  0  0  0
   10.5920    1.1330   22.9250 C   0  0  0  0  0  0  0  0  0  0  0  0
   10.3080   -0.3430   23.0450 C   0  0  0  0  0  0  0  0  0  0  0  0
    8.9140   -0.5310   22.6600 N   0  0  0  0  0  0  0  0  0  0  0  0
    8.4100    0.1230   21.5440 C   0  0  0  0  0  0  0  0  0  0  0  0
    8.8830    1.1810   21.1190 O   0  0  0  0  0  0  0  0  0  0  0  0
    7.3200   -0.5260   21.0030 N   0  0  0  0  0  0  0  0  0  0  0  0
    6.5070    0.0970   20.0490 C   0  0  0  0  0  0  0  0  0  0  0  0
    5.3270    0.7910   20.3180 C   0  0  0  0  0  0  0  0  0  0  0  0
    4.6260    1.3850   19.2690 C   0  0  0  0  0  0  0  0  0  0  0  0
    5.1350    1.2580   17.9950 C   0  0  0  0  0  0  0  0  0  0  0  0
    6.2580    0.5890   17.7060 N   0  0  0  0  0  0  0  0  0  0  0  0
    6.9130    0.0280   18.7330 C   0  0  0  0  0  0  0  0  0  0  0  0
   11.2860   -1.2110   22.1640 C   0  0  0  0  0  0  0  0  0  0  0  0
   12.5230   -0.4380   22.4860 C   0  0  0  0  0  0  0  0  0  0  0  0
   12.8870   -0.6280   23.7920 C   0  0  0  0  0  0  0  0  0  0  0  0
   11.9130   -0.1900   24.6600 C   0  0  0  0  0  0  0  0  0  0  0  0
   10.6720   -0.7090   24.3330 C   0  0  0  0  0  0  0  0  0  0  0  0
   11.8630    1.7840   22.8850 C   0  0  0  0  0  0  0  0  0  0  0  0
  1  2  1  0
  2  3  1  0
  3  4  2  0
  4  5  1  0
  5  6  2  0
  6  7  1  0
  7  8  1  0
  8  9  1  0
  9 10  1  0
 10 11  2  0
 10 12  1  0
 12 13  1  0
 13 14  2  0
 14 15  1  0
 15 16  2  0
 16 17  1  0
 13 18  1  0
 17 18  2  0
  8 19  1  0
 19 20  1  0
 20 21  1  0
 21 22  1  0
  8 23  1  0
 22 23  1  0
  3 24  1  0
  7 24  2  0
M  END
