pyridine_urea_11888
     RDKit          3D

 25 27  0  0  0  0  0  0  0  0999 V2000
   16.5450    4.5250   24.4830 C   0  0  0  0  0  0  0  0  0  0  0  0
   14.8720    4.7600   24.0710 N   0  0  0  0  0  0  0  0  0  0  0  0
   14.0080    4.9110   22.9680 C   0  0  0  0  0  0  0  0  0  0  0  0
   13.9320    5.8120   21.8710 O   0  0  0  0  0  0  0  0  0  0  0  0
   13.0490    4.0440   22.9870 C   0  0  0  0  0  0  0  0  0  0  0  0
   11.7460    4.4070   23.1410 C   0  0  0  0  0  0  0  0  0  0  0  0
   11.1500    3.2480   23.1070 C   0  0  0  0  0  0  0  0  0  0  0  0
   12.0420    2.2720   22.9480 N   0  0  0  0  0  0  0  0  0  0  0  0
   11.5590    1.0980   22.8490 C   0  0  0  0  0  0  0  0  0  0  0  0
   10.2500    1.2190   22.9580 C   0  0  0  0  0  0  0  0  0  0  0  0
    9.3900    0.1250   22.7930 C   0  0  0  0  0  0  0  0  0  0  0  0
    9.8780   -1.0900   22.5080 C   0  0  0  0  0  0  0  0  0  0  0  0
    8.9040   -1.9280   22.2890 N   0  0  0  0  0  0  0  0  0  0  0  0
    8.2160   -1.0440   21.4540 C   0  0  0  0  0  0  0  0  0  0  0  0
    8.7110    0.0230   21.0980 O   0  0  0  0  0  0  0  0  0  0  0  0
    6.8810   -1.3690   21.0190 N   0  0  0  0  0  0  0  0  0  0  0  0
    6.2810   -0.4850   20.1180 C   0  0  0  0  0  0  0  0  0  0  0  0
    5.1250    0.2690   20.3540 C   0  0  0  0  0  0  0  0  0  0  0  0
    4.6650    1.1040   19.3370 C   0  0  0  0  0  0  0  0  0  0  0  0
    5.2970    1.2190   18.1170 C   0  0  0  0  0  0  0  0  0  0  0  0
    6.4100    0.5090   17.8600 N   0  0  0  0  0  0  0  0  0  0  0  0
    6.8680   -0.3130   18.8530 C   0  0  0  0  0  0  0  0  0  0  0  0
   11.2930   -1.3030   22.4350 C   0  0  0  0  0  0  0  0  0  0  0  0
   12.1490   -0.1710   22.6150 C   0  0  0  0  0  0  0  0  0  0  0  0
   13.2670    2.7160   22.8730 N   0  0  0  0  0  0  0  0  0  0  0  0
  1  2  1  0
  2  3  1  0
  3  4  2  0
  3  5  1  0
  5  6  1  0
  6  7  2  0
  7  8  1  0
  8  9  1  0
  9 10  2  0
 10 11  1  0
 11 12  2  0
 12 13  1  0
 13 14  1  0
 14 15  2  0
 14 16  1  0
 16 17  1  0
 17 18  2  0
 18 19  1  0
 19 20  2  0
 20 21  1  0
 17 22  1  0
 21 22  2  0
 12 23  1  0
  9 24  1  0
 23 24  2  0
  5 25  2  0
  8 25  1  0
M  END
