pyridine_urea_4128
     RDKit          3D

 25 27  0  0  0  0  0  0  0  0999 V2000
    8.6680    0.5900   21.1890 O   0  0  0  0  0  0  0  0  0  0  0  0
    8.2760   -0.5260   21.5000 C   0  0  0  0  0  0  0  0  0  0  0  0
    7.0800   -1.0010   21.0570 N   0  0  0  0  0  0  0  0  0  0  0  0
    6.4210   -0.2650   20.0460 C   0  0  0  0  0  0  0  0  0  0  0  0
    5.2180    0.3970   20.3150 C   0  0  0  0  0  0  0  0  0  0  0  0
    4.5860    1.1400   19.3050 C   0  0  0  0  0  0  0  0  0  0  0  0
    5.1850    1.1940   18.0620 C   0  0  0  0  0  0  0  0  0  0  0  0
    6.3350    0.5630   17.7830 N   0  0  0  0  0  0  0  0  0  0  0  0
    6.9230   -0.1480   18.7680 C   0  0  0  0  0  0  0  0  0  0  0  0
    9.0670   -1.3180   22.3170 N   0  0  0  0  0  0  0  0  0  0  0  0
   10.2570   -0.5260   22.5280 C   0  0  0  0  0  0  0  0  0  0  0  0
   11.6740   -1.1130   22.3620 C   0  0  0  0  0  0  0  0  0  0  0  0
   12.7380   -0.2530   22.5210 C   0  0  0  0  0  0  0  0  0  0  0  0
   12.4700    1.0830   22.8080 C   0  0  0  0  0  0  0  0  0  0  0  0
   13.3740    2.0850   22.9430 O   0  0  0  0  0  0  0  0  0  0  0  0
   12.6810    3.2730   22.8590 C   0  0  0  0  0  0  0  0  0  0  0  0
   11.3550    3.1820   22.6710 N   0  0  0  0  0  0  0  0  0  0  0  0
   10.5990    4.3260   22.6230 C   0  0  0  0  0  0  0  0  0  0  0  0
   11.0870    5.6150   22.7570 C   0  0  0  0  0  0  0  0  0  0  0  0
   10.0670    6.9940   22.7170 Cl  0  0  0  0  0  0  0  0  0  0  0  0
   12.5820    5.6040   22.9410 C   0  0  0  0  0  0  0  0  0  0  0  0
   13.3280    4.4450   22.9840 N   0  0  0  0  0  0  0  0  0  0  0  0
   11.0530    1.6270   22.9930 C   0  0  0  0  0  0  0  0  0  0  0  0
   10.7790    3.2950   23.3670 Cl  0  0  0  0  0  0  0  0  0  0  0  0
    9.8730    0.9320   22.8900 C   0  0  0  0  0  0  0  0  0  0  0  0
  1  2  2  0
  2  3  1  0
  3  4  1  0
  4  5  2  0
  5  6  1  0
  6  7  2  0
  7  8  1  0
  4  9  1  0
  8  9  2  0
  2 10  1  0
 10 11  1  0
 11 12  2  0
 12 13  1  0
 13 14  2  0
 14 15  1  0
 15 16  1  0
 16 17  2  0
 17 18  1  0
 18 19  2  0
 19 20  1  0
 19 21  1  0
 16 22  1  0
 21 22  2  0
 14 23  1  0
 23 24  1  0
 11 25  1  0
 23 25  2  0
M  END
