pyridine_urea_10162
     RDKit          3D

 23 25  0  0  0  0  0  0  0  0999 V2000
    8.8290    1.1010   21.1160 O   0  0  0  0  0  0  0  0  0  0  0  0
    8.3290   -0.0010   21.3850 C   0  0  0  0  0  0  0  0  0  0  0  0
    8.9390   -0.9860   22.1130 N   0  0  0  0  0  0  0  0  0  0  0  0
    9.8500   -0.7090   23.1240 C   0  0  0  0  0  0  0  0  0  0  0  0
   10.5650    0.4810   23.1040 C   0  0  0  0  0  0  0  0  0  0  0  0
   11.5440   -0.4750   22.9160 C   0  0  0  0  0  0  0  0  0  0  0  0
   12.1140   -1.7070   22.7610 C   0  0  0  0  0  0  0  0  0  0  0  0
   13.1750   -0.8410   22.6910 C   0  0  0  0  0  0  0  0  0  0  0  0
   12.9370    0.6790   22.8240 C   0  0  0  0  0  0  0  0  0  0  0  0
   11.7120    1.2990   23.0080 C   0  0  0  0  0  0  0  0  0  0  0  0
   11.6540    2.7110   23.0810 C   0  0  0  0  0  0  0  0  0  0  0  0
   12.7930    3.4820   22.7840 C   0  0  0  0  0  0  0  0  0  0  0  0
   12.7890    4.8880   22.8370 C   0  0  0  0  0  0  0  0  0  0  0  0
   11.5510    5.6210   23.2180 C   0  0  0  0  0  0  0  0  0  0  0  0
   10.4460    4.8550   23.5050 N   0  0  0  0  0  0  0  0  0  0  0  0
   10.4940    3.4010   23.4370 C   0  0  0  0  0  0  0  0  0  0  0  0
    7.0730   -0.3990   20.9970 N   0  0  0  0  0  0  0  0  0  0  0  0
    6.4010    0.1800   19.9900 C   0  0  0  0  0  0  0  0  0  0  0  0
    5.2440    0.8820   20.2750 C   0  0  0  0  0  0  0  0  0  0  0  0
    4.6000    1.4810   19.2110 C   0  0  0  0  0  0  0  0  0  0  0  0
    5.1280    1.3540   17.9360 C   0  0  0  0  0  0  0  0  0  0  0  0
    6.2580    0.6610   17.6180 N   0  0  0  0  0  0  0  0  0  0  0  0
    6.8560    0.0900   18.6970 C   0  0  0  0  0  0  0  0  0  0  0  0
  1  2  2  0
  2  3  1  0
  3  4  1  0
  4  5  1  0
  5  6  2  0
  6  7  1  0
  7  8  2  0
  8  9  1  0
  5 10  1  0
  9 10  2  0
 10 11  1  0
 11 12  2  0
 12 13  1  0
 13 14  2  0
 14 15  1  0
 11 16  1  0
 15 16  2  0
  2 17  1  0
 17 18  1  0
 18 19  2  0
 19 20  1  0
 20 21  2  0
 21 22  1  0
 18 23  1  0
 22 23  2  0
M  END
