pyridine_urea_12687
     RDKit          3D

 21 22  0  0  0  0  0  0  0  0999 V2000
    5.5950   -1.9760   22.9520 C   0  0  0  0  0  0  0  0  0  0  0  0
    6.8400   -1.3600   23.6540 C   0  0  2  0  0  0  0  0  0  0  0  0
    8.0950   -1.9870   22.9980 C   0  0  0  0  0  0  0  0  0  0  0  0
    8.9590   -0.9260   22.4960 N   0  0  0  0  0  0  0  0  0  0  0  0
    8.4780   -0.0270   21.5620 C   0  0  0  0  0  0  0  0  0  0  0  0
    9.0310    1.0500   21.2930 O   0  0  0  0  0  0  0  0  0  0  0  0
    7.3080   -0.5050   21.0170 N   0  0  0  0  0  0  0  0  0  0  0  0
    6.5790    0.1070   19.9920 C   0  0  0  0  0  0  0  0  0  0  0  0
    5.4320    0.8360   20.3130 C   0  0  0  0  0  0  0  0  0  0  0  0
    4.7160    1.4600   19.2950 C   0  0  0  0  0  0  0  0  0  0  0  0
    5.1690    1.3330   17.9920 C   0  0  0  0  0  0  0  0  0  0  0  0
    6.2590    0.6300   17.6670 N   0  0  0  0  0  0  0  0  0  0  0  0
    6.9340    0.0360   18.6720 C   0  0  0  0  0  0  0  0  0  0  0  0
    6.6480   -1.4280   24.9940 N   0  0  0  0  0  0  0  0  0  0  0  0
    7.5950   -0.7600   25.8040 C   0  0  0  0  0  0  0  0  0  0  0  0
    6.2620   -2.6950   25.5680 C   0  0  0  0  0  0  0  0  0  0  0  0
    6.0910   -2.7770   27.0380 C   0  0  0  0  0  0  0  0  0  0  0  0
    5.7340   -3.8570   27.8100 C   0  0  0  0  0  0  0  0  0  0  0  0
    5.4850   -5.0940   27.0900 C   0  0  0  0  0  0  0  0  0  0  0  0
    5.6200   -5.1180   25.6850 C   0  0  0  0  0  0  0  0  0  0  0  0
    6.0220   -3.8760   24.9090 C   0  0  0  0  0  0  0  0  0  0  0  0
  2  1  1  6
  2  3  1  0
  3  4  1  0
  4  5  1  0
  5  6  2  0
  5  7  1  0
  7  8  1  0
  8  9  2  0
  9 10  1  0
 10 11  2  0
 11 12  1  0
  8 13  1  0
 12 13  2  0
  2 14  1  0
 14 15  1  0
 14 16  1  0
 16 17  2  0
 17 18  1  0
 18 19  2  0
 19 20  1  0
 16 21  1  0
 20 21  2  0
M  END
