pyridine_urea_2564
     RDKit          3D

 23 25  0  0  0  0  0  0  0  0999 V2000
    8.5740    2.7710   21.8360 C   0  0  0  0  0  0  0  0  0  0  0  0
    7.5090    1.9570   22.5500 C   0  0  1  0  0  0  0  0  0  0  0  0
    8.0660    0.6230   22.8260 N   0  0  0  0  0  0  0  0  0  0  0  0
    8.4020   -0.1540   21.7450 C   0  0  0  0  0  0  0  0  0  0  0  0
    9.5560   -0.3000   21.4040 O   0  0  0  0  0  0  0  0  0  0  0  0
    7.2720   -0.6730   21.1420 N   0  0  0  0  0  0  0  0  0  0  0  0
    6.5730   -0.0190   20.0420 C   0  0  0  0  0  0  0  0  0  0  0  0
    5.4210    0.7200   20.2840 C   0  0  0  0  0  0  0  0  0  0  0  0
    4.6980    1.3950   19.2890 C   0  0  0  0  0  0  0  0  0  0  0  0
    5.1830    1.3060   17.9870 C   0  0  0  0  0  0  0  0  0  0  0  0
    6.3100    0.5750   17.7270 N   0  0  0  0  0  0  0  0  0  0  0  0
    7.0040   -0.0870   18.7390 C   0  0  0  0  0  0  0  0  0  0  0  0
    7.0020    2.6740   23.7980 C   0  0  0  0  0  0  0  0  0  0  0  0
    7.6140    2.8180   25.0150 N   0  0  0  0  0  0  0  0  0  0  0  0
    6.7380    3.5260   25.7310 C   0  0  0  0  0  0  0  0  0  0  0  0
    5.6300    3.8240   25.0180 C   0  0  0  0  0  0  0  0  0  0  0  0
    5.7230    3.3090   23.7510 N   0  0  0  0  0  0  0  0  0  0  0  0
    4.7700    3.4150   22.7160 C   0  0  0  0  0  0  0  0  0  0  0  0
    4.7360    4.5860   21.9640 C   0  0  0  0  0  0  0  0  0  0  0  0
    3.8090    4.7220   20.9420 C   0  0  0  0  0  0  0  0  0  0  0  0
    2.9130    3.6890   20.6640 C   0  0  0  0  0  0  0  0  0  0  0  0
    2.9410    2.5150   21.4090 C   0  0  0  0  0  0  0  0  0  0  0  0
    3.8700    2.3750   22.4390 C   0  0  0  0  0  0  0  0  0  0  0  0
  2  1  1  1
  2  3  1  0
  3  4  1  0
  4  5  2  0
  4  6  1  0
  6  7  1  0
  7  8  2  0
  8  9  1  0
  9 10  2  0
 10 11  1  0
  7 12  1  0
 11 12  2  0
  2 13  1  0
 13 14  2  0
 14 15  1  0
 15 16  2  0
 13 17  1  0
 16 17  1  0
 17 18  1  0
 18 19  2  0
 19 20  1  0
 20 21  2  0
 21 22  1  0
 18 23  1  0
 22 23  2  0
M  END
