pyridine_urea_10052
     RDKit          3D

 24 26  0  0  0  0  0  0  0  0999 V2000
   13.6260    5.8610   22.0260 C   0  0  0  0  0  0  0  0  0  0  0  0
   12.7830    4.8670   22.7010 C   0  0  0  0  0  0  0  0  0  0  0  0
   12.1730    5.2810   23.8720 C   0  0  0  0  0  0  0  0  0  0  0  0
   11.1960    4.4230   24.2920 C   0  0  0  0  0  0  0  0  0  0  0  0
   11.2780    3.2690   23.3910 N   0  0  0  0  0  0  0  0  0  0  0  0
   12.3330    2.2920   23.1660 C   0  0  0  0  0  0  0  0  0  0  0  0
   11.6950    1.1580   22.9180 C   0  0  0  0  0  0  0  0  0  0  0  0
   10.2230    1.3180   23.0530 C   0  0  0  0  0  0  0  0  0  0  0  0
    9.4580    0.2920   22.7940 C   0  0  0  0  0  0  0  0  0  0  0  0
   10.0550   -0.8720   22.4050 C   0  0  0  0  0  0  0  0  0  0  0  0
    9.0070   -1.7780   22.1040 N   0  0  0  0  0  0  0  0  0  0  0  0
    8.1500   -0.9070   21.3580 C   0  0  0  0  0  0  0  0  0  0  0  0
    8.5330    0.2140   21.0510 O   0  0  0  0  0  0  0  0  0  0  0  0
    6.9270   -1.3340   21.0240 N   0  0  0  0  0  0  0  0  0  0  0  0
    6.3740   -0.4560   19.9890 C   0  0  0  0  0  0  0  0  0  0  0  0
    5.1260    0.3330   20.2580 C   0  0  0  0  0  0  0  0  0  0  0  0
    4.5730    1.1900   19.2840 C   0  0  0  0  0  0  0  0  0  0  0  0
    5.2200    1.2900   18.0560 C   0  0  0  0  0  0  0  0  0  0  0  0
    6.3540    0.5710   17.8190 N   0  0  0  0  0  0  0  0  0  0  0  0
    6.9480   -0.2950   18.7400 C   0  0  0  0  0  0  0  0  0  0  0  0
   11.4560   -1.0940   22.2920 C   0  0  0  0  0  0  0  0  0  0  0  0
   12.3400   -0.0320   22.5650 C   0  0  0  0  0  0  0  0  0  0  0  0
   10.8230    3.8020   22.1620 C   0  0  0  0  0  0  0  0  0  0  0  0
   11.9470    4.4700   21.6780 C   0  0  0  0  0  0  0  0  0  0  0  0
  1  2  1  0
  2  3  1  0
  3  4  1  0
  4  5  1  0
  5  6  1  0
  6  7  1  0
  7  8  2  0
  8  9  1  0
  9 10  2  0
 10 11  1  0
 11 12  1  0
 12 13  2  0
 12 14  1  0
 14 15  1  0
 15 16  2  0
 16 17  1  0
 17 18  2  0
 18 19  1  0
 15 20  1  0
 19 20  2  0
 10 21  1  0
  7 22  1  0
 21 22  2  0
  5 23  1  0
  2 24  1  0
 23 24  1  0
M  END
