pyridine_urea_14344
     RDKit          3D

 22 23  0  0  0  0  0  0  0  0999 V2000
   11.1580    6.8810   24.7950 C   0  0  0  0  0  0  0  0  0  0  0  0
   10.2490    5.9640   24.1700 O   0  0  0  0  0  0  0  0  0  0  0  0
   10.8870    4.8610   23.6900 C   0  0  0  0  0  0  0  0  0  0  0  0
   12.2170    5.0880   23.3230 C   0  0  0  0  0  0  0  0  0  0  0  0
   13.0020    4.0680   22.8320 C   0  0  0  0  0  0  0  0  0  0  0  0
   12.4590    2.7970   22.7040 C   0  0  0  0  0  0  0  0  0  0  0  0
   11.0460    2.5220   23.0710 C   0  0  0  0  0  0  0  0  0  0  0  0
   10.4900    1.1750   22.9250 N   0  0  0  0  0  0  0  0  0  0  0  0
   11.2180    0.0090   22.9500 C   0  0  0  0  0  0  0  0  0  0  0  0
   12.4930   -0.2410   23.3820 O   0  0  0  0  0  0  0  0  0  0  0  0
   10.3000   -1.0690   22.3540 C   0  0  0  0  0  0  0  0  0  0  0  0
    8.8880   -0.7450   22.4290 N   0  0  0  0  0  0  0  0  0  0  0  0
    8.1630   -0.0850   21.4710 C   0  0  0  0  0  0  0  0  0  0  0  0
    8.4520    0.9950   20.9760 O   0  0  0  0  0  0  0  0  0  0  0  0
    7.1000   -0.8010   21.1720 N   0  0  0  0  0  0  0  0  0  0  0  0
    6.4900   -0.1030   20.1000 C   0  0  0  0  0  0  0  0  0  0  0  0
    5.3220    0.6290   20.3510 C   0  0  0  0  0  0  0  0  0  0  0  0
    4.7060    1.3270   19.3170 C   0  0  0  0  0  0  0  0  0  0  0  0
    5.2680    1.2760   18.0590 C   0  0  0  0  0  0  0  0  0  0  0  0
    6.3800    0.5810   17.7870 N   0  0  0  0  0  0  0  0  0  0  0  0
    6.9640   -0.0910   18.8030 C   0  0  0  0  0  0  0  0  0  0  0  0
   10.2880    3.5820   23.5630 C   0  0  0  0  0  0  0  0  0  0  0  0
  1  2  1  0
  2  3  1  0
  3  4  2  0
  4  5  1  0
  5  6  2  0
  6  7  1  0
  7  8  1  0
  8  9  1  0
  9 10  2  0
  9 11  1  0
 11 12  1  0
 12 13  1  0
 13 14  2  0
 13 15  1  0
 15 16  1  0
 16 17  2  0
 17 18  1  0
 18 19  2  0
 19 20  1  0
 16 21  1  0
 20 21  2  0
  3 22  1  0
  7 22  2  0
M  END
