pyridine_urea_8608
     RDKit          3D

 21 22  0  0  0  0  0  0  0  0999 V2000
   12.8020   -2.1120   21.3810 C   0  0  0  0  0  0  0  0  0  0  0  0
   12.0170   -1.1970   22.1360 O   0  0  0  0  0  0  0  0  0  0  0  0
   11.1070   -1.6510   23.0570 C   0  0  0  0  0  0  0  0  0  0  0  0
   11.8590   -2.6180   23.1010 O   0  0  0  0  0  0  0  0  0  0  0  0
   10.4670   -0.4330   22.7810 C   0  0  1  0  0  0  0  0  0  0  0  0
    9.0720   -0.7180   22.4610 N   0  0  0  0  0  0  0  0  0  0  0  0
    8.4320    0.0700   21.5240 C   0  0  0  0  0  0  0  0  0  0  0  0
    8.8680    1.1820   21.1880 O   0  0  0  0  0  0  0  0  0  0  0  0
    7.2110   -0.5890   21.0430 N   0  0  0  0  0  0  0  0  0  0  0  0
    6.5190    0.0480   20.0530 C   0  0  0  0  0  0  0  0  0  0  0  0
    5.2540    0.8250   20.3770 C   0  0  0  0  0  0  0  0  0  0  0  0
    4.6140    1.4540   19.3390 C   0  0  0  0  0  0  0  0  0  0  0  0
    5.2000    1.3380   17.9420 C   0  0  0  0  0  0  0  0  0  0  0  0
    6.3170    0.6350   17.6810 N   0  0  0  0  0  0  0  0  0  0  0  0
    6.9420    0.0150   18.7240 C   0  0  0  0  0  0  0  0  0  0  0  0
   10.4130    0.6150   23.7390 C   0  0  0  0  0  0  0  0  0  0  0  0
   11.2050   -0.4180   24.2070 C   0  0  0  0  0  0  0  0  0  0  0  0
   12.5680   -0.1500   24.0280 C   0  0  0  0  0  0  0  0  0  0  0  0
   12.9110    0.6500   22.9400 C   0  0  0  0  0  0  0  0  0  0  0  0
   12.2960    1.8940   23.0310 C   0  0  0  0  0  0  0  0  0  0  0  0
   10.9700    1.8610   23.4340 C   0  0  0  0  0  0  0  0  0  0  0  0
  1  2  1  0
  2  3  1  0
  3  4  2  0
  3  5  1  0
  5  6  1  1
  6  7  1  0
  7  8  2  0
  7  9  1  0
  9 10  1  0
 10 11  2  0
 11 12  1  0
 12 13  2  0
 13 14  1  0
 10 15  1  0
 14 15  2  0
  5 16  1  0
 16 17  1  0
 17 18  1  0
 18 19  1  0
 19 20  1  0
 16 21  1  0
 20 21  1  0
M  END
