pyridine_urea_818
     RDKit          3D

 23 25  0  0  0  0  0  0  0  0999 V2000
    8.9320    1.2690   21.2120 O   0  0  0  0  0  0  0  0  0  0  0  0
    8.2670    0.3050   21.6180 C   0  0  0  0  0  0  0  0  0  0  0  0
    8.5370   -0.4200   22.8520 N   0  0  0  0  0  0  0  0  0  0  0  0
    9.6390   -0.1090   23.6230 C   0  0  0  0  0  0  0  0  0  0  0  0
   10.8280    0.0120   22.9620 C   0  0  1  0  0  0  0  0  0  0  0  0
   11.7680    0.6540   23.7730 C   0  0  0  0  0  0  0  0  0  0  0  0
   12.9970    0.2390   23.3560 C   0  0  0  0  0  0  0  0  0  0  0  0
   12.8750   -0.8700   22.4110 C   0  0  0  0  0  0  0  0  0  0  0  0
   11.5150   -1.1490   22.5500 N   0  0  0  0  0  0  0  0  0  0  0  0
   10.8010   -2.3440   22.2480 C   0  0  0  0  0  0  0  0  0  0  0  0
    9.3450   -2.7090   22.6340 C   0  0  0  0  0  0  0  0  0  0  0  0
    8.3110   -2.2660   21.8620 C   0  0  0  0  0  0  0  0  0  0  0  0
    6.9780   -2.5510   22.1200 C   0  0  0  0  0  0  0  0  0  0  0  0
    6.6290   -3.3270   23.2130 C   0  0  0  0  0  0  0  0  0  0  0  0
    7.6450   -3.8040   24.0290 C   0  0  0  0  0  0  0  0  0  0  0  0
    8.9780   -3.5040   23.7490 C   0  0  0  0  0  0  0  0  0  0  0  0
    7.1660   -0.2580   21.0260 N   0  0  0  0  0  0  0  0  0  0  0  0
    6.5030    0.2760   20.0000 C   0  0  0  0  0  0  0  0  0  0  0  0
    5.3580    1.0200   20.2580 C   0  0  0  0  0  0  0  0  0  0  0  0
    4.6720    1.5930   19.1910 C   0  0  0  0  0  0  0  0  0  0  0  0
    5.1570    1.4010   17.8960 C   0  0  0  0  0  0  0  0  0  0  0  0
    6.2520    0.6800   17.6270 N   0  0  0  0  0  0  0  0  0  0  0  0
    6.8740    0.1490   18.6880 C   0  0  0  0  0  0  0  0  0  0  0  0
  1  2  2  0
  2  3  1  0
  3  4  1  0
  5  4  1  1
  5  6  1  0
  6  7  1  0
  7  8  1  0
  5  9  1  0
  8  9  1  0
  9 10  1  0
 10 11  1  0
 11 12  2  0
 12 13  1  0
 13 14  2  0
 14 15  1  0
 11 16  1  0
 15 16  2  0
  2 17  1  0
 17 18  1  0
 18 19  2  0
 19 20  1  0
 20 21  2  0
 21 22  1  0
 18 23  1  0
 22 23  2  0
M  END
