pyridine_urea_5871
     RDKit          3D

 21 22  0  0  0  0  0  0  0  0999 V2000
    8.5970   -4.5840   23.5730 C   0  0  0  0  0  0  0  0  0  0  0  0
    8.9130   -2.8330   23.2610 S   0  0  0  0  0  0  0  0  0  0  0  0
    8.6610   -2.1430   24.5050 O   0  0  0  0  0  0  0  0  0  0  0  0
    8.1880   -2.4700   22.0730 O   0  0  0  0  0  0  0  0  0  0  0  0
   10.5970   -2.7280   22.8870 N   0  0  0  0  0  0  0  0  0  0  0  0
   11.0220   -1.4390   22.5110 C   0  0  2  0  0  0  0  0  0  0  0  0
   12.4170   -1.2480   22.5850 C   0  0  0  0  0  0  0  0  0  0  0  0
   12.9610   -0.0840   23.1470 C   0  0  0  0  0  0  0  0  0  0  0  0
   12.1240    0.8540   23.7350 C   0  0  0  0  0  0  0  0  0  0  0  0
   10.7180    0.9650   23.2610 C   0  0  0  0  0  0  0  0  0  0  0  0
   10.2230   -0.4610   23.1560 C   0  0  1  0  0  0  0  0  0  0  0  0
    8.8420   -0.4710   22.7020 N   0  0  0  0  0  0  0  0  0  0  0  0
    8.4230    0.2610   21.6060 C   0  0  0  0  0  0  0  0  0  0  0  0
    8.9830    1.2960   21.2180 O   0  0  0  0  0  0  0  0  0  0  0  0
    7.3010   -0.3200   21.0570 N   0  0  0  0  0  0  0  0  0  0  0  0
    6.5690    0.2230   20.0050 C   0  0  0  0  0  0  0  0  0  0  0  0
    5.4240    0.9650   20.2750 C   0  0  0  0  0  0  0  0  0  0  0  0
    4.6880    1.5350   19.2470 C   0  0  0  0  0  0  0  0  0  0  0  0
    5.1250    1.3440   17.9590 C   0  0  0  0  0  0  0  0  0  0  0  0
    6.2170    0.6250   17.6600 N   0  0  0  0  0  0  0  0  0  0  0  0
    6.9140    0.0810   18.6830 C   0  0  0  0  0  0  0  0  0  0  0  0
  1  2  1  0
  2  3  2  0
  2  4  2  0
  2  5  1  0
  6  5  1  1
  6  7  1  0
  7  8  1  0
  8  9  1  0
  9 10  1  0
  6 11  1  0
 10 11  1  0
 11 12  1  6
 12 13  1  0
 13 14  2  0
 13 15  1  0
 15 16  1  0
 16 17  2  0
 17 18  1  0
 18 19  2  0
 19 20  1  0
 16 21  1  0
 20 21  2  0
M  END
