pyridine_urea_4675
     RDKit          3D

 22 24  0  0  0  0  0  0  0  0999 V2000
   13.6000   -2.8910   25.2030 C   0  0  0  0  0  0  0  0  0  0  0  0
   12.3500   -2.2170   25.2290 O   0  0  0  0  0  0  0  0  0  0  0  0
   11.3820   -2.6240   24.3640 C   0  0  0  0  0  0  0  0  0  0  0  0
   10.8300   -3.7090   24.4410 O   0  0  0  0  0  0  0  0  0  0  0  0
   11.0320   -1.5830   23.2770 C   0  0  2  0  0  0  0  0  0  0  0  0
    9.7960   -1.7710   22.6740 C   0  0  0  0  0  0  0  0  0  0  0  0
    9.5250   -1.0210   21.4730 N   0  0  0  0  0  0  0  0  0  0  0  0
    8.5650   -0.0480   21.3720 C   0  0  0  0  0  0  0  0  0  0  0  0
    8.8310    1.1300   21.5300 O   0  0  0  0  0  0  0  0  0  0  0  0
    7.3280   -0.5520   21.0400 N   0  0  0  0  0  0  0  0  0  0  0  0
    6.5170    0.0900   20.0920 C   0  0  0  0  0  0  0  0  0  0  0  0
    5.3370    0.7850   20.3530 C   0  0  0  0  0  0  0  0  0  0  0  0
    4.6530    1.3920   19.2920 C   0  0  0  0  0  0  0  0  0  0  0  0
    5.1890    1.2710   18.0250 C   0  0  0  0  0  0  0  0  0  0  0  0
    6.3070    0.6110   17.7150 N   0  0  0  0  0  0  0  0  0  0  0  0
    6.9160    0.0500   18.7690 C   0  0  0  0  0  0  0  0  0  0  0  0
   12.2560   -1.0700   22.5030 C   0  0  0  0  0  0  0  0  0  0  0  0
   12.5040    0.3830   23.1240 C   0  0  1  0  0  0  0  0  0  0  0  0
   11.4570    1.3840   23.3110 C   0  0  0  0  0  0  0  0  0  0  0  0
   10.4600    0.6010   24.0130 C   0  0  0  0  0  0  0  0  0  0  0  0
   11.2730   -0.3590   23.6880 C   0  0  1  0  0  0  0  0  0  0  0  0
   12.5620   -0.2190   24.3400 C   0  0  0  0  0  0  0  0  0  0  0  0
  1  2  1  0
  2  3  1  0
  3  4  2  0
  5  3  1  0
  5  6  1  6
  6  7  1  0
  7  8  1  0
  8  9  2  0
  8 10  1  0
 10 11  1  0
 11 12  2  0
 12 13  1  0
 13 14  2  0
 14 15  1  0
 11 16  1  0
 15 16  2  0
  5 17  1  0
 18 17  1  6
 18 19  1  0
 19 20  1  0
  5 21  1  0
 21 20  1  1
 18 22  1  0
 21 22  1  0
M  END
