pyridine_urea_11327
     RDKit          3D

 21 23  0  0  0  0  0  0  0  0999 V2000
    8.8420    1.3130   21.1490 O   0  0  0  0  0  0  0  0  0  0  0  0
    8.3380    0.2360   21.4990 C   0  0  0  0  0  0  0  0  0  0  0  0
    8.8440   -0.4990   22.5410 N   0  0  0  0  0  0  0  0  0  0  0  0
   10.2410   -0.3150   22.8930 C   0  0  0  0  0  0  0  0  0  0  0  0
   11.0430   -1.5750   22.6340 C   0  0  1  0  0  0  0  0  0  0  0  0
   10.2800   -2.3470   21.6660 C   0  0  0  0  0  0  0  0  0  0  0  0
    9.5020   -3.3500   22.3150 O   0  0  0  0  0  0  0  0  0  0  0  0
   12.5640   -1.4770   22.3270 C   0  0  0  0  0  0  0  0  0  0  0  0
   12.7220   -0.6420   23.6030 C   0  0  1  0  0  0  0  0  0  0  0  0
   12.0750    0.6840   23.6060 C   0  0  0  0  0  0  0  0  0  0  0  0
   10.9100    0.6390   24.2920 C   0  0  0  0  0  0  0  0  0  0  0  0
   11.4910   -0.5000   25.1290 C   0  0  0  0  0  0  0  0  0  0  0  0
   12.0320   -1.5220   24.4350 C   0  0  1  0  0  0  0  0  0  0  0  0
   11.1260   -2.4320   23.8970 C   0  0  0  0  0  0  0  0  0  0  0  0
    7.2350   -0.3810   20.9610 N   0  0  0  0  0  0  0  0  0  0  0  0
    6.4380    0.2190   19.9950 C   0  0  0  0  0  0  0  0  0  0  0  0
    5.1730    0.8920   20.5780 C   0  0  0  0  0  0  0  0  0  0  0  0
    4.6090    1.4340   19.2720 C   0  0  0  0  0  0  0  0  0  0  0  0
    5.1700    1.3030   17.9040 C   0  0  0  0  0  0  0  0  0  0  0  0
    6.2700    0.6670   17.6360 N   0  0  0  0  0  0  0  0  0  0  0  0
    6.8600    0.1520   18.6870 C   0  0  0  0  0  0  0  0  0  0  0  0
  1  2  2  0
  2  3  1  0
  3  4  1  0
  5  4  1  1
  5  6  1  0
  6  7  1  0
  5  8  1  0
  9  8  1  6
  9 10  1  0
 10 11  1  0
 11 12  1  0
  9 13  1  0
 13 12  1  1
  5 14  1  0
 13 14  1  0
  2 15  1  0
 15 16  1  0
 16 17  2  0
 17 18  1  0
 18 19  2  0
 19 20  1  0
 16 21  1  0
 20 21  2  0
M  END
