pyridine_urea_6597
     RDKit          3D

 22 23  0  0  0  0  0  0  0  0999 V2000
   13.0110   -2.7410   20.9460 C   0  0  0  0  0  0  0  0  0  0  0  0
   13.5710   -1.6180   21.4150 N   0  0  0  0  0  0  0  0  0  0  0  0
   13.2840   -1.2640   22.7040 C   0  0  0  0  0  0  0  0  0  0  0  0
   13.8800   -1.6710   23.9350 O   0  0  0  0  0  0  0  0  0  0  0  0
   12.1030   -0.4410   22.9740 C   0  0  0  0  0  0  0  0  0  0  0  0
   11.7920    1.0090   23.1180 C   0  0  0  0  0  0  0  0  0  0  0  0
   12.2180    2.3430   23.1170 C   0  0  0  0  0  0  0  0  0  0  0  0
   12.8430    1.1690   22.9330 C   0  0  0  0  0  0  0  0  0  0  0  0
   11.3880    0.6480   23.1840 C   0  0  0  0  0  0  0  0  0  0  0  0
   10.2670    1.4240   23.4630 C   0  0  0  0  0  0  0  0  0  0  0  0
    9.1870    0.6070   23.8270 C   0  0  0  0  0  0  0  0  0  0  0  0
    8.7980   -0.2100   22.7760 N   0  0  0  0  0  0  0  0  0  0  0  0
    8.3170    0.2580   21.5480 C   0  0  0  0  0  0  0  0  0  0  0  0
    8.8150    1.4590   20.9970 O   0  0  0  0  0  0  0  0  0  0  0  0
    7.3550   -0.5430   21.0320 N   0  0  0  0  0  0  0  0  0  0  0  0
    6.5650    0.0790   20.1250 C   0  0  0  0  0  0  0  0  0  0  0  0
    5.3760    0.8030   20.4490 C   0  0  0  0  0  0  0  0  0  0  0  0
    4.6870    1.4240   19.2390 C   0  0  0  0  0  0  0  0  0  0  0  0
    5.1700    1.2940   17.9670 C   0  0  0  0  0  0  0  0  0  0  0  0
    6.2710    0.6080   17.6720 N   0  0  0  0  0  0  0  0  0  0  0  0
    6.9520    0.0060   18.7920 C   0  0  0  0  0  0  0  0  0  0  0  0
   10.9910   -0.7620   23.1580 C   0  0  0  0  0  0  0  0  0  0  0  0
  1  2  1  0
  2  3  1  0
  3  4  2  0
  3  5  1  0
  5  6  2  0
  6  7  1  0
  7  8  2  0
  8  9  1  0
  9 10  1  0
 10 11  1  0
 11 12  1  0
 12 13  1  0
 13 14  2  0
 13 15  1  0
 15 16  1  0
 16 17  2  0
 17 18  1  0
 18 19  2  0
 19 20  1  0
 16 21  1  0
 20 21  2  0
  5 22  1  0
  9 22  2  0
M  END
