pyridine_urea_9043
     RDKit          3D

 19 19  0  0  0  0  0  0  0  0999 V2000
   13.9220   -2.9060   25.6590 C   0  0  0  0  0  0  0  0  0  0  0  0
   13.0680   -1.9310   25.1540 O   0  0  0  0  0  0  0  0  0  0  0  0
   13.0870   -1.9420   23.8000 C   0  0  0  0  0  0  0  0  0  0  0  0
   13.5460   -2.8450   23.1230 O   0  0  0  0  0  0  0  0  0  0  0  0
   12.4580   -0.7100   23.1950 C   0  0  0  0  0  0  0  0  0  0  0  0
   13.1620    0.0990   22.3770 C   0  0  0  0  0  0  0  0  0  0  0  0
   12.1910    0.2280   24.3330 C   0  0  0  0  0  0  0  0  0  0  0  0
   11.1610   -1.1420   22.5750 C   0  0  0  0  0  0  0  0  0  0  0  0
   10.0150   -0.7110   23.2020 C   0  0  0  0  0  0  0  0  0  0  0  0
    8.7960   -0.8320   22.5370 N   0  0  0  0  0  0  0  0  0  0  0  0
    8.3370    0.0240   21.5630 C   0  0  0  0  0  0  0  0  0  0  0  0
    8.9830    1.2630   21.2200 O   0  0  0  0  0  0  0  0  0  0  0  0
    7.1810   -0.4830   21.0140 N   0  0  0  0  0  0  0  0  0  0  0  0
    6.4870    0.1260   19.9970 C   0  0  0  0  0  0  0  0  0  0  0  0
    5.3200    0.8320   20.3150 C   0  0  0  0  0  0  0  0  0  0  0  0
    4.6130    1.4720   19.2920 C   0  0  0  0  0  0  0  0  0  0  0  0
    5.1550    1.3600   17.9100 C   0  0  0  0  0  0  0  0  0  0  0  0
    6.2680    0.6660   17.6490 N   0  0  0  0  0  0  0  0  0  0  0  0
    6.8970    0.0750   18.6830 C   0  0  0  0  0  0  0  0  0  0  0  0
  1  2  1  0
  2  3  1  0
  3  4  2  0
  5  3  1  0
  5  6  1  0
  5  7  1  0
  5  8  1  0
  8  9  1  0
  9 10  1  0
 10 11  1  0
 11 12  2  0
 11 13  1  0
 13 14  1  0
 14 15  2  0
 15 16  1  0
 16 17  2  0
 17 18  1  0
 14 19  1  0
 18 19  2  0
M  END
