pyridine_urea_9096
     RDKit          3D

 19 20  0  0  0  0  0  0  0  0999 V2000
    8.8250    1.1150   21.1440 O   0  0  0  0  0  0  0  0  0  0  0  0
    8.2470    0.0490   21.4160 C   0  0  0  0  0  0  0  0  0  0  0  0
    8.8060   -0.9200   22.1680 N   0  0  0  0  0  0  0  0  0  0  0  0
   10.1550   -0.7490   22.5700 C   0  0  0  0  0  0  0  0  0  0  0  0
   10.1870   -0.7300   24.0980 C   0  0  0  0  0  0  0  0  0  0  0  0
   11.0400    0.1290   24.7300 C   0  0  0  0  0  0  0  0  0  0  0  0
   12.0780    0.7720   24.0800 C   0  0  0  0  0  0  0  0  0  0  0  0
   12.2280   -0.2040   23.3350 C   0  0  0  0  0  0  0  0  0  0  0  0
   11.7920   -1.3620   23.0720 C   0  0  0  0  0  0  0  0  0  0  0  0
   12.7350   -1.1860   22.1940 C   0  0  0  0  0  0  0  0  0  0  0  0
   13.2710   -2.1900   20.9730 Cl  0  0  0  0  0  0  0  0  0  0  0  0
   13.2530    0.5490   22.7560 S   0  0  0  0  0  0  0  0  0  0  0  0
    7.0050   -0.3360   21.0380 N   0  0  0  0  0  0  0  0  0  0  0  0
    6.3670    0.2350   19.9830 C   0  0  0  0  0  0  0  0  0  0  0  0
    5.1840    0.9310   20.2350 C   0  0  0  0  0  0  0  0  0  0  0  0
    4.5330    1.5440   19.1670 C   0  0  0  0  0  0  0  0  0  0  0  0
    5.1540    1.4090   17.8190 C   0  0  0  0  0  0  0  0  0  0  0  0
    6.2790    0.7240   17.6210 N   0  0  0  0  0  0  0  0  0  0  0  0
    6.8550    0.1570   18.6940 C   0  0  0  0  0  0  0  0  0  0  0  0
  1  2  2  0
  2  3  1  0
  3  4  1  0
  4  5  1  0
  5  6  1  0
  6  7  1  0
  7  8  2  0
  8  9  1  0
  9 10  2  0
 10 11  1  0
  7 12  1  0
 10 12  1  0
  2 13  1  0
 13 14  1  0
 14 15  2  0
 15 16  1  0
 16 17  2  0
 17 18  1  0
 14 19  1  0
 18 19  2  0
M  END
