pyridine_urea_5308
     RDKit          3D

 19 19  0  0  0  0  0  0  0  0999 V2000
   13.2320   -1.9990   23.9580 C   0  0  0  0  0  0  0  0  0  0  0  0
   12.8300   -1.0070   22.8960 C   0  0  0  0  0  0  0  0  0  0  0  0
   12.8930    0.3640   23.1640 C   0  0  0  0  0  0  0  0  0  0  0  0
   11.3860   -1.3830   22.4530 C   0  0  0  0  0  0  0  0  0  0  0  0
   10.4360   -0.4480   22.8230 C   0  0  1  0  0  0  0  0  0  0  0  0
    9.1190   -0.6600   22.3950 N   0  0  0  0  0  0  0  0  0  0  0  0
    8.4700    0.1380   21.4790 C   0  0  0  0  0  0  0  0  0  0  0  0
    8.8870    1.2690   21.1860 O   0  0  0  0  0  0  0  0  0  0  0  0
    7.3380   -0.4860   20.9820 N   0  0  0  0  0  0  0  0  0  0  0  0
    6.5240    0.1250   20.0290 C   0  0  0  0  0  0  0  0  0  0  0  0
    5.2180    0.8770   20.2920 C   0  0  0  0  0  0  0  0  0  0  0  0
    4.5670    1.4410   19.2000 C   0  0  0  0  0  0  0  0  0  0  0  0
    5.1320    1.2910   17.9450 C   0  0  0  0  0  0  0  0  0  0  0  0
    6.2720    0.6240   17.6940 N   0  0  0  0  0  0  0  0  0  0  0  0
    6.9280    0.0650   18.7170 C   0  0  0  0  0  0  0  0  0  0  0  0
   10.4650   -0.0590   24.1660 C   0  0  0  0  0  0  0  0  0  0  0  0
   11.3790   -0.7410   24.9090 F   0  0  0  0  0  0  0  0  0  0  0  0
   10.7420    1.2710   24.2690 F   0  0  0  0  0  0  0  0  0  0  0  0
    9.2670   -0.2290   24.8040 F   0  0  0  0  0  0  0  0  0  0  0  0
  1  2  1  0
  2  3  1  0
  2  4  1  0
  5  4  1  1
  5  6  1  0
  6  7  1  0
  7  8  2  0
  7  9  1  0
  9 10  1  0
 10 11  2  0
 11 12  1  0
 12 13  2  0
 13 14  1  0
 10 15  1  0
 14 15  2  0
  5 16  1  0
 16 17  1  0
 16 18  1  0
 16 19  1  0
M  END
