pyridine_urea_9826
     RDKit          3D

 25 27  0  0  0  0  0  0  0  0999 V2000
    8.5400    0.5230   21.1450 O   0  0  0  0  0  0  0  0  0  0  0  0
    8.2170   -0.6590   21.1950 C   0  0  0  0  0  0  0  0  0  0  0  0
    6.9370   -1.0530   20.9350 N   0  0  0  0  0  0  0  0  0  0  0  0
    6.3260   -0.2270   19.9380 C   0  0  0  0  0  0  0  0  0  0  0  0
    5.0490    0.5200   20.3050 C   0  0  0  0  0  0  0  0  0  0  0  0
    4.4270    1.4040   19.2250 C   0  0  0  0  0  0  0  0  0  0  0  0
    5.1700    1.4340   17.8880 C   0  0  0  0  0  0  0  0  0  0  0  0
    6.3370    0.6780   17.7180 N   0  0  0  0  0  0  0  0  0  0  0  0
    6.8780   -0.1060   18.6950 C   0  0  0  0  0  0  0  0  0  0  0  0
    9.0880   -1.6910   21.4900 N   0  0  0  0  0  0  0  0  0  0  0  0
   10.3570   -1.2270   21.8290 C   0  0  0  0  0  0  0  0  0  0  0  0
   11.6550   -1.7270   21.6600 C   0  0  0  0  0  0  0  0  0  0  0  0
   12.8390   -1.1220   22.0570 C   0  0  0  0  0  0  0  0  0  0  0  0
   12.7530    0.0880   22.6810 C   0  0  0  0  0  0  0  0  0  0  0  0
   11.5010    0.6540   22.8940 C   0  0  0  0  0  0  0  0  0  0  0  0
   11.5050    2.0410   23.7000 S   0  0  0  0  0  0  0  0  0  0  0  0
   10.3110    2.8010   23.4170 O   0  0  0  0  0  0  0  0  0  0  0  0
   12.8450    2.4100   23.3600 O   0  0  0  0  0  0  0  0  0  0  0  0
   11.1190    0.5570   24.4850 C   0  0  0  0  0  0  0  0  0  0  0  0
   12.1830   -0.4140   24.8510 C   0  0  0  0  0  0  0  0  0  0  0  0
   11.6600   -1.6740   24.5880 C   0  0  0  0  0  0  0  0  0  0  0  0
   10.2020   -1.7640   24.1730 C   0  0  0  0  0  0  0  0  0  0  0  0
    9.3030   -0.7740   24.6870 C   0  0  0  0  0  0  0  0  0  0  0  0
    9.9490    0.3440   25.2070 C   0  0  0  0  0  0  0  0  0  0  0  0
   10.1910    0.0610   22.4910 C   0  0  0  0  0  0  0  0  0  0  0  0
  1  2  2  0
  2  3  1  0
  3  4  1  0
  4  5  2  0
  5  6  1  0
  6  7  2  0
  7  8  1  0
  4  9  1  0
  8  9  2  0
  2 10  1  0
 10 11  1  0
 11 12  2  0
 12 13  1  0
 13 14  2  0
 14 15  1  0
 16 15  1  0
 16 17  2  0
 16 18  2  0
 16 19  1  0
 19 20  1  0
 20 21  1  0
 21 22  1  0
 22 23  1  0
 19 24  1  0
 23 24  1  0
 11 25  1  0
 15 25  2  0
M  END
