pyridine_urea_2529
     RDKit          3D

 24 26  0  0  0  0  0  0  0  0999 V2000
    9.3920   -3.1740   23.3590 C   0  0  0  0  0  0  0  0  0  0  0  0
    9.8560   -2.4050   24.1970 O   0  0  0  0  0  0  0  0  0  0  0  0
   11.1830   -2.0100   24.0500 C   0  0  0  0  0  0  0  0  0  0  0  0
   11.5390   -1.1050   22.8500 C   0  0  0  0  0  0  0  0  0  0  0  0
   12.8480   -0.5410   22.4910 C   0  0  0  0  0  0  0  0  0  0  0  0
   13.4290   -1.0610   23.4530 C   0  0  0  0  0  0  0  0  0  0  0  0
   12.2310   -1.1410   23.1630 O   0  0  0  0  0  0  0  0  0  0  0  0
   11.0310   -1.6460   23.4960 C   0  0  0  0  0  0  0  0  0  0  0  0
   10.5730   -1.0150   22.4000 C   0  0  1  0  0  0  0  0  0  0  0  0
   10.9820   -2.0870   21.4570 C   0  0  0  0  0  0  0  0  0  0  0  0
    9.1070   -0.7920   22.4640 N   0  0  0  0  0  0  0  0  0  0  0  0
    8.4940    0.0270   21.5520 C   0  0  0  0  0  0  0  0  0  0  0  0
    9.0180    1.3420   21.2120 O   0  0  0  0  0  0  0  0  0  0  0  0
    7.3510   -0.5410   21.0420 N   0  0  0  0  0  0  0  0  0  0  0  0
    6.5450    0.0900   20.0920 C   0  0  0  0  0  0  0  0  0  0  0  0
    5.3860    0.8120   20.3510 C   0  0  0  0  0  0  0  0  0  0  0  0
    4.7100    1.3980   19.3040 C   0  0  0  0  0  0  0  0  0  0  0  0
    5.1490    1.2930   17.9970 C   0  0  0  0  0  0  0  0  0  0  0  0
    6.2530    0.6000   17.6870 N   0  0  0  0  0  0  0  0  0  0  0  0
    6.9360    0.0040   18.7630 C   0  0  0  0  0  0  0  0  0  0  0  0
   11.8300   -2.0830   24.3980 C   0  0  0  0  0  0  0  0  0  0  0  0
   11.3100   -2.9350   25.3870 C   0  0  0  0  0  0  0  0  0  0  0  0
   13.3320   -1.8370   24.5430 C   0  0  0  0  0  0  0  0  0  0  0  0
   12.3350   -2.4640   25.0920 C   0  0  0  0  0  0  0  0  0  0  0  0
  1  2  1  0
  2  3  1  0
  3  4  2  0
  4  5  1  0
  5  6  2  0
  6  7  1  0
  7  8  1  0
  8  9  1  0
  9 10  1  6
  9 11  1  0
 11 12  1  0
 12 13  2  0
 12 14  1  0
 14 15  1  0
 15 16  2  0
 16 17  1  0
 17 18  2  0
 18 19  1  0
 15 20  1  0
 19 20  2  0
  8 21  2  0
 21 22  1  0
  6 23  1  0
 21 23  1  0
  3 24  1  0
 23 24  2  0
M  END
