pyridine_urea_14582
     RDKit          3D

 21 22  0  0  0  0  0  0  0  0999 V2000
    9.1410   -1.0770   21.0370 O   0  0  0  0  0  0  0  0  0  0  0  0
    8.1300   -0.6100   21.4690 C   0  0  0  0  0  0  0  0  0  0  0  0
    8.1360    0.2660   22.5060 N   0  0  0  0  0  0  0  0  0  0  0  0
    9.1200    1.2470   22.6020 C   0  0  0  0  0  0  0  0  0  0  0  0
   10.3540    0.8700   22.9940 C   0  0  0  0  0  0  0  0  0  0  0  0
   10.3170    0.0700   23.9140 O   0  0  0  0  0  0  0  0  0  0  0  0
   11.2350   -0.9080   23.5910 C   0  0  0  0  0  0  0  0  0  0  0  0
   11.2400   -1.0810   22.2350 C   0  0  0  0  0  0  0  0  0  0  0  0
   12.0530   -1.9600   21.6210 C   0  0  0  0  0  0  0  0  0  0  0  0
   12.9520   -2.7310   22.5280 C   0  0  0  0  0  0  0  0  0  0  0  0
   13.7180   -3.5610   21.8710 F   0  0  0  0  0  0  0  0  0  0  0  0
   12.9180   -2.5400   23.8950 C   0  0  0  0  0  0  0  0  0  0  0  0
   13.7010   -3.2090   24.7650 F   0  0  0  0  0  0  0  0  0  0  0  0
   12.0640   -1.6340   24.4550 C   0  0  0  0  0  0  0  0  0  0  0  0
    6.8670   -0.8250   21.0100 N   0  0  0  0  0  0  0  0  0  0  0  0
    6.2900   -0.0780   19.9850 C   0  0  0  0  0  0  0  0  0  0  0  0
    5.1130    0.6560   20.1740 C   0  0  0  0  0  0  0  0  0  0  0  0
    4.5230    1.4590   19.0650 C   0  0  0  0  0  0  0  0  0  0  0  0
    5.1630    1.4680   17.8310 C   0  0  0  0  0  0  0  0  0  0  0  0
    6.3310    0.7040   17.7140 N   0  0  0  0  0  0  0  0  0  0  0  0
    6.8590   -0.0210   18.7250 C   0  0  0  0  0  0  0  0  0  0  0  0
  1  2  2  0
  2  3  1  0
  3  4  1  0
  4  5  1  0
  5  6  1  0
  6  7  1  0
  7  8  2  0
  8  9  1  0
  9 10  2  0
 10 11  1  0
 10 12  1  0
 12 13  1  0
  7 14  1  0
 12 14  2  0
  2 15  1  0
 15 16  1  0
 16 17  2  0
 17 18  1  0
 18 19  2  0
 19 20  1  0
 16 21  1  0
 20 21  2  0
M  END
