pyridine_urea_2806
     RDKit          3D

 22 24  0  0  0  0  0  0  0  0999 V2000
   12.3530   -5.2960   17.5720 C   0  0  0  0  0  0  0  0  0  0  0  0
   12.7980   -4.3770   18.7790 C   0  0  0  0  0  0  0  0  0  0  0  0
   11.6310   -3.6350   19.4140 C   0  0  0  0  0  0  0  0  0  0  0  0
   11.9060   -2.9490   20.3130 O   0  0  0  0  0  0  0  0  0  0  0  0
   13.2260   -3.0950   20.4500 C   0  0  0  0  0  0  0  0  0  0  0  0
   13.2160   -2.1680   21.6510 C   0  0  0  0  0  0  0  0  0  0  0  0
   13.9160   -1.4790   22.6290 C   0  0  0  0  0  0  0  0  0  0  0  0
   12.9250   -0.7270   23.6380 C   0  0  0  0  0  0  0  0  0  0  0  0
   11.2940   -0.6950   23.5870 C   0  0  0  0  0  0  0  0  0  0  0  0
   10.8370   -1.4150   22.4470 C   0  0  0  0  0  0  0  0  0  0  0  0
    9.4220   -1.5480   22.0440 N   0  0  0  0  0  0  0  0  0  0  0  0
    8.7780   -0.4190   21.5360 C   0  0  0  0  0  0  0  0  0  0  0  0
    9.3540    0.8320   21.4970 O   0  0  0  0  0  0  0  0  0  0  0  0
    7.4680   -0.7120   21.0860 N   0  0  0  0  0  0  0  0  0  0  0  0
    6.7620   -0.0630   20.0480 C   0  0  0  0  0  0  0  0  0  0  0  0
    5.4700    0.6570   20.3520 C   0  0  0  0  0  0  0  0  0  0  0  0
    4.7710    1.2940   19.3480 C   0  0  0  0  0  0  0  0  0  0  0  0
    5.2520    1.2630   18.0550 C   0  0  0  0  0  0  0  0  0  0  0  0
    6.4070    0.6190   17.7410 N   0  0  0  0  0  0  0  0  0  0  0  0
    7.1290   -0.0150   18.7110 C   0  0  0  0  0  0  0  0  0  0  0  0
   12.0260   -1.7920   22.0500 C   0  0  0  0  0  0  0  0  0  0  0  0
   14.0180   -3.9590   19.5520 N   0  0  0  0  0  0  0  0  0  0  0  0
  1  2  1  0
  2  3  2  0
  3  4  1  0
  4  5  1  0
  5  6  1  0
  6  7  2  0
  7  8  1  0
  8  9  2  0
  9 10  1  0
 10 11  1  0
 11 12  1  0
 12 13  2  0
 12 14  1  0
 14 15  1  0
 15 16  2  0
 16 17  1  0
 17 18  2  0
 18 19  1  0
 15 20  1  0
 19 20  2  0
  6 21  1  0
 10 21  2  0
  2 22  1  0
  5 22  2  0
M  END
