pyridine_urea_7755
     RDKit          3D

 27 30  0  0  0  0  0  0  0  0999 V2000
    9.1570   -1.3340   21.3430 C   0  0  0  0  0  0  0  0  0  0  0  0
   10.1590   -1.0650   22.1900 N   0  0  0  0  0  0  0  0  0  0  0  0
   10.1680   -0.2120   23.2020 C   0  0  0  0  0  0  0  0  0  0  0  0
    9.2110    0.5870   23.6050 C   0  0  1  0  0  0  0  0  0  0  0  0
    8.0870    0.3430   22.9340 N   0  0  0  0  0  0  0  0  0  0  0  0
    7.9960    0.5880   21.5370 C   0  0  0  0  0  0  0  0  0  0  0  0
    8.7080    1.4140   20.9630 O   0  0  0  0  0  0  0  0  0  0  0  0
    7.0180   -0.1930   20.9790 N   0  0  0  0  0  0  0  0  0  0  0  0
    6.3270    0.3650   19.9510 C   0  0  0  0  0  0  0  0  0  0  0  0
    5.1360    1.0690   20.1250 C   0  0  0  0  0  0  0  0  0  0  0  0
    4.5080    1.6520   19.0370 C   0  0  0  0  0  0  0  0  0  0  0  0
    5.1540    1.4990   17.6740 C   0  0  0  0  0  0  0  0  0  0  0  0
    6.2980    0.7960   17.5260 N   0  0  0  0  0  0  0  0  0  0  0  0
    6.8580    0.2390   18.6870 C   0  0  0  0  0  0  0  0  0  0  0  0
    9.3780    0.2000   24.9830 C   0  0  0  0  0  0  0  0  0  0  0  0
    8.5550    0.1720   25.8880 C   0  0  0  0  0  0  0  0  0  0  0  0
    9.9380   -0.2130   26.0100 C   0  0  0  0  0  0  0  0  0  0  0  0
   10.1770    0.1410   24.5010 C   0  0  0  0  0  0  0  0  0  0  0  0
   11.5120   -0.2610   24.7420 C   0  0  0  0  0  0  0  0  0  0  0  0
   10.5580   -0.2570   25.5870 C   0  0  0  0  0  0  0  0  0  0  0  0
   11.2530   -0.1440   23.9830 N   0  0  0  0  0  0  0  0  0  0  0  0
   11.9820   -1.0480   23.4010 C   0  0  0  0  0  0  0  0  0  0  0  0
   13.1830   -1.4730   23.7940 C   0  0  0  0  0  0  0  0  0  0  0  0
   13.7710   -2.4060   23.0470 C   0  0  0  0  0  0  0  0  0  0  0  0
   13.2220   -2.8890   21.8980 C   0  0  0  0  0  0  0  0  0  0  0  0
   12.0140   -2.4810   21.5220 C   0  0  0  0  0  0  0  0  0  0  0  0
   11.3730   -1.5990   22.2620 C   0  0  0  0  0  0  0  0  0  0  0  0
  1  2  1  0
  2  3  1  0
  3  4  1  0
  4  5  1  6
  5  6  1  0
  6  7  2  0
  6  8  1  0
  8  9  1  0
  9 10  2  0
 10 11  1  0
 11 12  2  0
 12 13  1  0
  9 14  1  0
 13 14  2  0
  4 15  1  0
 15 16  2  0
 16 17  1  0
 17 18  2  0
 18 19  1  0
 15 20  1  0
 19 20  2  0
  3 21  2  0
 21 22  1  0
 22 23  1  0
 23 24  2  0
 24 25  1  0
 25 26  2  0
  2 27  1  0
 22 27  2  0
 26 27  1  0
M  END
