pyridine_urea_8535
     RDKit          3D

 22 24  0  0  0  0  0  0  0  0999 V2000
   12.7950   -1.4990   24.7300 C   0  0  0  0  0  0  0  0  0  0  0  0
   13.0060   -0.9800   23.3370 C   0  0  1  0  0  0  0  0  0  0  0  0
   12.5890   -1.4930   22.2570 C   0  0  0  0  0  0  0  0  0  0  0  0
   11.6660   -0.4400   22.6180 C   0  0  1  0  0  0  0  0  0  0  0  0
   10.4600   -0.6410   23.2660 C   0  0  2  0  0  0  0  0  0  0  0  0
    9.4310   -1.1010   22.3880 N   0  0  0  0  0  0  0  0  0  0  0  0
    8.6660   -0.2400   21.5800 C   0  0  0  0  0  0  0  0  0  0  0  0
    9.0180    0.9140   21.3940 O   0  0  0  0  0  0  0  0  0  0  0  0
    7.5000   -0.7960   21.0420 N   0  0  0  0  0  0  0  0  0  0  0  0
    6.6510   -0.1130   20.1300 C   0  0  0  0  0  0  0  0  0  0  0  0
    5.3610    0.6670   20.4680 C   0  0  0  0  0  0  0  0  0  0  0  0
    4.7100    1.2680   19.4000 C   0  0  0  0  0  0  0  0  0  0  0  0
    5.1890    1.1720   18.1210 C   0  0  0  0  0  0  0  0  0  0  0  0
    6.2980    0.5000   17.7800 N   0  0  0  0  0  0  0  0  0  0  0  0
    6.9930   -0.1180   18.7760 C   0  0  0  0  0  0  0  0  0  0  0  0
    9.8380    0.5080   23.7810 C   0  0  0  0  0  0  0  0  0  0  0  0
   10.8400    1.3820   23.4400 C   0  0  0  0  0  0  0  0  0  0  0  0
   12.0230    1.1750   22.8490 C   0  0  0  0  0  0  0  0  0  0  0  0
   11.8100    2.5420   23.1100 C   0  0  0  0  0  0  0  0  0  0  0  0
   12.9760    3.7500   22.6680 Cl  0  0  0  0  0  0  0  0  0  0  0  0
   10.6300    3.0170   23.7520 C   0  0  0  0  0  0  0  0  0  0  0  0
    9.6150    1.8720   24.1120 C   0  0  0  0  0  0  0  0  0  0  0  0
  2  1  1  1
  2  3  1  0
  2  4  1  0
  4  3  1  6
  4  5  1  0
  5  6  1  6
  6  7  1  0
  7  8  2  0
  7  9  1  0
  9 10  1  0
 10 11  2  0
 11 12  1  0
 12 13  2  0
 13 14  1  0
 10 15  1  0
 14 15  2  0
  5 16  1  0
 16 17  2  0
 17 18  1  0
 18 19  2  0
 19 20  1  0
 19 21  1  0
 16 22  1  0
 21 22  2  0
M  END
