pyridine_urea_11833
     RDKit          3D

 25 27  0  0  0  0  0  0  0  0999 V2000
   13.1890    0.4110   22.9990 C   0  0  0  0  0  0  0  0  0  0  0  0
   11.9200    1.1900   23.0160 C   0  0  0  0  0  0  0  0  0  0  0  0
   11.7630    2.6480   23.0160 N   0  0  0  0  0  0  0  0  0  0  0  0
   10.4250    3.0720   23.0330 C   0  0  0  0  0  0  0  0  0  0  0  0
   10.0160    4.4100   23.0270 C   0  0  0  0  0  0  0  0  0  0  0  0
    8.7020    4.7120   22.6700 C   0  0  0  0  0  0  0  0  0  0  0  0
    8.2530    6.0430   22.6420 C   0  0  0  0  0  0  0  0  0  0  0  0
    9.0820    7.1090   22.9660 C   0  0  0  0  0  0  0  0  0  0  0  0
   10.5280    6.7710   23.3630 C   0  0  0  0  0  0  0  0  0  0  0  0
   10.9010    5.4430   23.3670 C   0  0  0  0  0  0  0  0  0  0  0  0
   12.1580    5.1410   23.7100 F   0  0  0  0  0  0  0  0  0  0  0  0
    9.2370    1.8110   23.0570 S   0  0  0  0  0  0  0  0  0  0  0  0
   10.5340    0.5640   23.0280 C   0  0  0  0  0  0  0  0  0  0  0  0
   10.2830   -0.8100   23.0160 C   0  0  2  0  0  0  0  0  0  0  0  0
   11.2910   -1.4830   22.3240 C   0  0  0  0  0  0  0  0  0  0  0  0
    8.9500   -1.0880   22.4980 N   0  0  0  0  0  0  0  0  0  0  0  0
    8.3250   -0.2280   21.5670 C   0  0  0  0  0  0  0  0  0  0  0  0
    8.8030    0.7980   21.1210 O   0  0  0  0  0  0  0  0  0  0  0  0
    7.0940   -0.6680   21.2210 N   0  0  0  0  0  0  0  0  0  0  0  0
    6.5150   -0.0720   20.1520 C   0  0  0  0  0  0  0  0  0  0  0  0
    5.2410    0.7380   20.3430 C   0  0  0  0  0  0  0  0  0  0  0  0
    4.6210    1.3730   19.2730 C   0  0  0  0  0  0  0  0  0  0  0  0
    5.1980    1.2530   18.0130 C   0  0  0  0  0  0  0  0  0  0  0  0
    6.3230    0.5470   17.7730 N   0  0  0  0  0  0  0  0  0  0  0  0
    6.9660   -0.1100   18.8450 C   0  0  0  0  0  0  0  0  0  0  0  0
  1  2  1  0
  2  3  1  0
  3  4  2  0
  4  5  1  0
  5  6  2  0
  6  7  1  0
  7  8  2  0
  8  9  1  0
  5 10  1  0
  9 10  2  0
 10 11  1  0
  4 12  1  0
  2 13  2  0
 12 13  1  0
 13 14  1  0
 14 15  1  6
 14 16  1  0
 16 17  1  0
 17 18  2  0
 17 19  1  0
 19 20  1  0
 20 21  2  0
 21 22  1  0
 22 23  2  0
 23 24  1  0
 20 25  1  0
 24 25  2  0
M  END
