pyridine_urea_14114
     RDKit          3D

 23 24  0  0  0  0  0  0  0  0999 V2000
   10.2960    3.6850   22.2260 C   0  0  0  0  0  0  0  0  0  0  0  0
   11.6220    3.6170   21.8470 N   0  0  0  0  0  0  0  0  0  0  0  0
   12.2640    4.5710   21.0260 C   0  0  0  0  0  0  0  0  0  0  0  0
   12.5820    3.3000   23.0800 S   0  0  0  0  0  0  0  0  0  0  0  0
   13.8890    3.6850   22.6190 O   0  0  0  0  0  0  0  0  0  0  0  0
   11.7670    4.0620   24.0050 O   0  0  0  0  0  0  0  0  0  0  0  0
   12.2820    1.6090   23.0470 C   0  0  0  0  0  0  0  0  0  0  0  0
   13.0840    0.4440   22.7000 C   0  0  0  0  0  0  0  0  0  0  0  0
   12.5030   -0.7370   22.7460 C   0  0  0  0  0  0  0  0  0  0  0  0
   11.0860   -1.0840   23.1190 C   0  0  0  0  0  0  0  0  0  0  0  0
    9.9580   -0.1810   23.5480 C   0  0  0  0  0  0  0  0  0  0  0  0
    9.5420   -1.4230   23.5230 C   0  0  0  0  0  0  0  0  0  0  0  0
    8.8390   -1.5680   22.3390 N   0  0  0  0  0  0  0  0  0  0  0  0
    8.2740   -0.5150   21.5610 C   0  0  0  0  0  0  0  0  0  0  0  0
    8.8330    0.5380   21.2890 O   0  0  0  0  0  0  0  0  0  0  0  0
    7.0150   -0.8260   21.1590 N   0  0  0  0  0  0  0  0  0  0  0  0
    6.3790   -0.0990   20.1910 C   0  0  0  0  0  0  0  0  0  0  0  0
    5.2160    0.6480   20.4160 C   0  0  0  0  0  0  0  0  0  0  0  0
    4.6740    1.3400   19.3540 C   0  0  0  0  0  0  0  0  0  0  0  0
    5.3240    1.2830   18.0160 C   0  0  0  0  0  0  0  0  0  0  0  0
    6.4370    0.5780   17.7650 N   0  0  0  0  0  0  0  0  0  0  0  0
    6.9580   -0.1030   18.8220 C   0  0  0  0  0  0  0  0  0  0  0  0
   10.8350    1.1560   23.4400 C   0  0  0  0  0  0  0  0  0  0  0  0
  1  2  1  0
  2  3  1  0
  4  2  1  0
  4  5  2  0
  4  6  2  0
  4  7  1  0
  7  8  2  0
  8  9  1  0
  9 10  2  0
 10 11  1  0
 11 12  1  0
 12 13  1  0
 13 14  1  0
 14 15  2  0
 14 16  1  0
 16 17  1  0
 17 18  2  0
 18 19  1  0
 19 20  2  0
 20 21  1  0
 17 22  1  0
 21 22  2  0
  7 23  1  0
 11 23  2  0
M  END
