pyridine_urea_14384
     RDKit          3D

 21 23  0  0  0  0  0  0  0  0999 V2000
    8.7870    1.1420   21.0600 O   0  0  0  0  0  0  0  0  0  0  0  0
    8.4780    0.0130   21.4630 C   0  0  0  0  0  0  0  0  0  0  0  0
    7.2200   -0.6230   21.0750 N   0  0  0  0  0  0  0  0  0  0  0  0
    6.5080    0.0240   20.0720 C   0  0  0  0  0  0  0  0  0  0  0  0
    5.3430    0.7390   20.3610 C   0  0  0  0  0  0  0  0  0  0  0  0
    4.6760    1.3810   19.3160 C   0  0  0  0  0  0  0  0  0  0  0  0
    5.1940    1.2870   18.0230 C   0  0  0  0  0  0  0  0  0  0  0  0
    6.3050    0.5990   17.7360 N   0  0  0  0  0  0  0  0  0  0  0  0
    6.9400   -0.0200   18.7610 C   0  0  0  0  0  0  0  0  0  0  0  0
    9.2210   -0.8000   22.2950 N   0  0  0  0  0  0  0  0  0  0  0  0
   10.6180   -0.4910   22.5920 C   0  0  0  0  0  0  0  0  0  0  0  0
   10.9010    1.0120   22.6870 C   0  0  0  0  0  0  0  0  0  0  0  0
    9.9200    1.9530   22.6800 N   0  0  0  0  0  0  0  0  0  0  0  0
   10.1670    3.3210   22.7450 C   0  0  0  0  0  0  0  0  0  0  0  0
   11.4740    3.7810   22.8230 C   0  0  0  0  0  0  0  0  0  0  0  0
   12.4890    2.8140   22.8350 C   0  0  0  0  0  0  0  0  0  0  0  0
   12.2260    1.4400   22.7720 C   0  0  0  0  0  0  0  0  0  0  0  0
   13.2290    0.5550   22.7900 F   0  0  0  0  0  0  0  0  0  0  0  0
   11.6430   -1.3710   22.0860 C   0  0  0  0  0  0  0  0  0  0  0  0
   11.9800   -1.9300   23.2790 C   0  0  0  0  0  0  0  0  0  0  0  0
   10.9920   -1.1900   23.8640 C   0  0  0  0  0  0  0  0  0  0  0  0
  1  2  2  0
  2  3  1  0
  3  4  1  0
  4  5  2  0
  5  6  1  0
  6  7  2  0
  7  8  1  0
  4  9  1  0
  8  9  2  0
  2 10  1  0
 11 10  1  0
 11 12  1  0
 12 13  2  0
 13 14  1  0
 14 15  2  0
 15 16  1  0
 12 17  1  0
 16 17  2  0
 17 18  1  0
 11 19  1  0
 19 20  1  0
 11 21  1  0
 20 21  1  0
M  END
