pyridine_urea_2814
     RDKit          3D

 22 24  0  0  0  0  0  0  0  0999 V2000
   13.1450   -1.1220   24.3340 C   0  0  0  0  0  0  0  0  0  0  0  0
   11.8210   -1.4600   23.6800 C   0  0  1  0  0  0  0  0  0  0  0  0
   10.7820   -0.5600   24.2700 C   0  0  0  0  0  0  0  0  0  0  0  0
   10.4970   -0.1550   23.0070 C   0  0  1  0  0  0  0  0  0  0  0  0
    9.2750   -0.5340   22.3960 N   0  0  0  0  0  0  0  0  0  0  0  0
    8.4850    0.0850   21.4570 C   0  0  0  0  0  0  0  0  0  0  0  0
    8.7980    1.2320   21.1170 O   0  0  0  0  0  0  0  0  0  0  0  0
    7.4160   -0.6220   21.0000 N   0  0  0  0  0  0  0  0  0  0  0  0
    6.6530    0.0140   20.0840 C   0  0  0  0  0  0  0  0  0  0  0  0
    5.3770    0.8260   20.3820 C   0  0  0  0  0  0  0  0  0  0  0  0
    4.5520    1.5430   19.3090 C   0  0  0  0  0  0  0  0  0  0  0  0
    5.2010    1.3180   17.9540 C   0  0  0  0  0  0  0  0  0  0  0  0
    6.3280    0.5830   17.7520 N   0  0  0  0  0  0  0  0  0  0  0  0
    7.0340   -0.0530   18.7640 C   0  0  0  0  0  0  0  0  0  0  0  0
   10.8050    1.3420   23.0340 C   0  0  0  0  0  0  0  0  0  0  0  0
   12.2500    1.8160   22.8400 C   0  0  0  0  0  0  0  0  0  0  0  0
   12.5430    3.1820   22.8510 C   0  0  0  0  0  0  0  0  0  0  0  0
   11.4980    4.0770   23.0490 C   0  0  0  0  0  0  0  0  0  0  0  0
   10.1910    3.6680   23.2320 C   0  0  0  0  0  0  0  0  0  0  0  0
    9.8210    2.3370   23.2300 C   0  0  0  0  0  0  0  0  0  0  0  0
    8.5350    2.0090   23.4150 F   0  0  0  0  0  0  0  0  0  0  0  0
   11.5510   -0.9600   22.3870 C   0  0  0  0  0  0  0  0  0  0  0  0
  2  1  1  1
  2  3  1  0
  3  4  1  0
  4  5  1  6
  5  6  1  0
  6  7  2  0
  6  8  1  0
  8  9  1  0
  9 10  2  0
 10 11  1  0
 11 12  2  0
 12 13  1  0
  9 14  1  0
 13 14  2  0
  4 15  1  0
 15 16  2  0
 16 17  1  0
 17 18  2  0
 18 19  1  0
 15 20  1  0
 19 20  2  0
 20 21  1  0
  2 22  1  0
  4 22  1  0
M  END
