pyridine_urea_8907
     RDKit          3D

 20 21  0  0  0  0  0  0  0  0999 V2000
    9.0110    1.1310   21.2180 O   0  0  0  0  0  0  0  0  0  0  0  0
    8.5330    0.0190   21.4800 C   0  0  0  0  0  0  0  0  0  0  0  0
    9.1220   -0.8300   22.3880 N   0  0  0  0  0  0  0  0  0  0  0  0
   10.5010   -0.6170   22.7900 C   0  0  0  0  0  0  0  0  0  0  0  0
   10.6000   -0.1320   24.2500 C   0  0  0  0  0  0  0  0  0  0  0  0
    9.0180    0.0230   25.0630 S   0  0  0  0  0  0  0  0  0  0  0  0
    9.3010    0.0950   26.4710 O   0  0  0  0  0  0  0  0  0  0  0  0
    8.1620   -1.0040   24.5020 O   0  0  0  0  0  0  0  0  0  0  0  0
    8.3590    1.6160   24.5340 C   0  0  0  0  0  0  0  0  0  0  0  0
    9.1620    2.4820   23.8040 C   0  0  0  0  0  0  0  0  0  0  0  0
    8.4460    3.6310   23.5080 C   0  0  0  0  0  0  0  0  0  0  0  0
    7.1440    3.6460   23.9940 C   0  0  0  0  0  0  0  0  0  0  0  0
    6.7720    2.2010   24.8520 S   0  0  0  0  0  0  0  0  0  0  0  0
    7.3730   -0.5220   20.9550 N   0  0  0  0  0  0  0  0  0  0  0  0
    6.5680    0.1040   20.0580 C   0  0  0  0  0  0  0  0  0  0  0  0
    5.4220    0.8290   20.3630 C   0  0  0  0  0  0  0  0  0  0  0  0
    4.6910    1.4350   19.3420 C   0  0  0  0  0  0  0  0  0  0  0  0
    5.1440    1.2900   18.0330 C   0  0  0  0  0  0  0  0  0  0  0  0
    6.2390    0.5920   17.7060 N   0  0  0  0  0  0  0  0  0  0  0  0
    6.9160    0.0210   18.7220 C   0  0  0  0  0  0  0  0  0  0  0  0
  1  2  2  0
  2  3  1  0
  3  4  1  0
  4  5  1  0
  6  5  1  0
  6  7  2  0
  6  8  2  0
  6  9  1  0
  9 10  2  0
 10 11  1  0
 11 12  2  0
  9 13  1  0
 12 13  1  0
  2 14  1  0
 14 15  1  0
 15 16  2  0
 16 17  1  0
 17 18  2  0
 18 19  1  0
 15 20  1  0
 19 20  2  0
M  END
