pyridine_urea_9215
     RDKit          3D

 18 19  0  0  0  0  0  0  0  0999 V2000
   13.1850    0.5720   23.0510 C   0  0  0  0  0  0  0  0  0  0  0  0
   12.5930   -0.5190   23.8790 C   0  0  0  0  0  0  0  0  0  0  0  0
   13.2360   -1.4110   24.7320 C   0  0  0  0  0  0  0  0  0  0  0  0
   12.2730   -1.4790   22.7480 C   0  0  0  0  0  0  0  0  0  0  0  0
   11.0680   -1.4390   22.1720 C   0  0  0  0  0  0  0  0  0  0  0  0
   10.1000   -0.5590   22.5680 C   0  0  1  0  0  0  0  0  0  0  0  0
    8.8510   -0.8650   22.0950 N   0  0  0  0  0  0  0  0  0  0  0  0
    8.1860    0.0320   21.3380 C   0  0  0  0  0  0  0  0  0  0  0  0
    8.6200    1.1510   21.0230 O   0  0  0  0  0  0  0  0  0  0  0  0
    6.9740   -0.4820   20.9720 N   0  0  0  0  0  0  0  0  0  0  0  0
    6.2360    0.1950   19.9470 C   0  0  0  0  0  0  0  0  0  0  0  0
    5.0400    0.8510   20.1110 C   0  0  0  0  0  0  0  0  0  0  0  0
    4.4680    1.4820   19.0180 C   0  0  0  0  0  0  0  0  0  0  0  0
    5.1330    1.4210   17.8020 C   0  0  0  0  0  0  0  0  0  0  0  0
    6.2930    0.7720   17.6290 N   0  0  0  0  0  0  0  0  0  0  0  0
    6.8070    0.1820   18.7000 C   0  0  0  0  0  0  0  0  0  0  0  0
   10.0900   -0.4750   23.9520 C   0  0  0  0  0  0  0  0  0  0  0  0
   11.4200   -0.0950   24.4770 C   0  0  0  0  0  0  0  0  0  0  0  0
  2  1  1  0
  2  3  1  0
  2  4  1  0
  4  5  2  0
  5  6  1  0
  6  7  1  1
  7  8  1  0
  8  9  2  0
  8 10  1  0
 10 11  1  0
 11 12  2  0
 12 13  1  0
 13 14  2  0
 14 15  1  0
 11 16  1  0
 15 16  2  0
  6 17  1  0
  2 18  1  0
 17 18  1  0
M  END
