pyridine_urea_4681
     RDKit          3D

 22 24  0  0  0  0  0  0  0  0999 V2000
   13.2050   -2.8900   20.7390 C   0  0  0  0  0  0  0  0  0  0  0  0
   13.7210   -1.5100   20.9470 C   0  0  0  0  0  0  0  0  0  0  0  0
   14.2560   -0.8430   19.8350 O   0  0  0  0  0  0  0  0  0  0  0  0
   13.5120   -1.3130   22.3040 N   0  0  0  0  0  0  0  0  0  0  0  0
   13.4190   -0.1170   23.0390 C   0  0  0  0  0  0  0  0  0  0  0  0
   12.1070    0.1390   23.1470 C   0  0  0  0  0  0  0  0  0  0  0  0
   11.5160    1.2400   23.7030 C   0  0  0  0  0  0  0  0  0  0  0  0
   10.1220    1.2220   23.6410 C   0  0  0  0  0  0  0  0  0  0  0  0
    9.4700    0.1450   23.0440 C   0  0  0  0  0  0  0  0  0  0  0  0
    8.1820    0.0100   22.8660 N   0  0  0  0  0  0  0  0  0  0  0  0
    7.7560    0.2690   21.6180 C   0  0  0  0  0  0  0  0  0  0  0  0
    8.3540    1.3580   20.8750 O   0  0  0  0  0  0  0  0  0  0  0  0
    6.8040   -0.5170   21.1160 N   0  0  0  0  0  0  0  0  0  0  0  0
    6.2680    0.0780   20.0470 C   0  0  0  0  0  0  0  0  0  0  0  0
    5.0730    0.7680   20.2370 C   0  0  0  0  0  0  0  0  0  0  0  0
    4.4880    1.4220   19.1520 C   0  0  0  0  0  0  0  0  0  0  0  0
    5.1890    1.3440   17.8380 C   0  0  0  0  0  0  0  0  0  0  0  0
    6.3320    0.6630   17.6950 N   0  0  0  0  0  0  0  0  0  0  0  0
    6.8380    0.0520   18.7870 C   0  0  0  0  0  0  0  0  0  0  0  0
   10.1430   -0.8930   22.5430 C   0  0  0  0  0  0  0  0  0  0  0  0
   11.4170   -0.8740   22.6110 C   0  0  0  0  0  0  0  0  0  0  0  0
   12.2150   -1.9250   22.1170 C   0  0  0  0  0  0  0  0  0  0  0  0
  1  2  1  0
  2  3  2  0
  2  4  1  0
  4  5  1  0
  5  6  1  0
  6  7  2  0
  7  8  1  0
  8  9  2  0
  9 10  1  0
 10 11  1  0
 11 12  2  0
 11 13  1  0
 13 14  1  0
 14 15  2  0
 15 16  1  0
 16 17  2  0
 17 18  1  0
 14 19  1  0
 18 19  2  0
  9 20  1  0
  6 21  1  0
 20 21  2  0
  4 22  1  0
 21 22  1  0
M  END
