pyridine_urea_5050
     RDKit          3D

 20 21  0  0  0  0  0  0  0  0999 V2000
   13.3430   -2.4900   22.6280 C   0  0  0  0  0  0  0  0  0  0  0  0
   13.5020   -1.1330   22.2650 O   0  0  0  0  0  0  0  0  0  0  0  0
   12.5000   -0.3630   22.7250 C   0  0  0  0  0  0  0  0  0  0  0  0
   12.7290    0.9530   23.1140 C   0  0  0  0  0  0  0  0  0  0  0  0
   11.7190    1.7230   23.5900 C   0  0  0  0  0  0  0  0  0  0  0  0
   10.5530    1.0990   23.6420 C   0  0  0  0  0  0  0  0  0  0  0  0
    9.2900    1.7880   24.1570 C   0  0  0  0  0  0  0  0  0  0  0  0
   10.4090   -0.2090   23.2290 N   0  0  0  0  0  0  0  0  0  0  0  0
   11.2880   -1.1630   22.7110 C   0  0  0  0  0  0  0  0  0  0  0  0
    9.8920   -1.7620   22.8020 C   0  0  0  0  0  0  0  0  0  0  0  0
    9.2160   -1.4370   21.6520 N   0  0  0  0  0  0  0  0  0  0  0  0
    8.4210   -0.3090   21.4270 C   0  0  0  0  0  0  0  0  0  0  0  0
    8.8870    0.8160   21.5230 O   0  0  0  0  0  0  0  0  0  0  0  0
    7.1330   -0.5750   21.0650 N   0  0  0  0  0  0  0  0  0  0  0  0
    6.3950    0.0880   20.0840 C   0  0  0  0  0  0  0  0  0  0  0  0
    5.2080    0.7970   20.2770 C   0  0  0  0  0  0  0  0  0  0  0  0
    4.5980    1.4250   19.1840 C   0  0  0  0  0  0  0  0  0  0  0  0
    5.1810    1.3330   17.9290 C   0  0  0  0  0  0  0  0  0  0  0  0
    6.3160    0.6520   17.7120 N   0  0  0  0  0  0  0  0  0  0  0  0
    6.8950    0.0430   18.7940 C   0  0  0  0  0  0  0  0  0  0  0  0
  1  2  1  0
  2  3  1  0
  3  4  2  0
  4  5  1  0
  5  6  2  0
  6  7  1  0
  6  8  1  0
  3  9  1  0
  8  9  2  0
  9 10  1  0
 10 11  1  0
 11 12  1  0
 12 13  2  0
 12 14  1  0
 14 15  1  0
 15 16  2  0
 16 17  1  0
 17 18  2  0
 18 19  1  0
 15 20  1  0
 19 20  2  0
M  END
