pyridine_urea_12479
     RDKit          3D

 22 23  0  0  0  0  0  0  0  0999 V2000
   12.8520   -2.6600   22.6120 C   0  0  0  0  0  0  0  0  0  0  0  0
   12.1510   -2.7010   23.9780 C   0  0  0  0  0  0  0  0  0  0  0  0
   13.2340   -2.1790   24.9540 C   0  0  0  0  0  0  0  0  0  0  0  0
   13.0410   -0.8800   25.3450 C   0  0  0  0  0  0  0  0  0  0  0  0
   13.1880    0.0560   24.5940 O   0  0  0  0  0  0  0  0  0  0  0  0
   12.1000   -0.1400   23.8630 C   0  0  0  0  0  0  0  0  0  0  0  0
   12.4170   -0.9030   22.7710 C   0  0  0  0  0  0  0  0  0  0  0  0
   11.2460   -1.2700   21.9480 C   0  0  0  0  0  0  0  0  0  0  0  0
    9.9180   -0.7650   22.3910 C   0  0  0  0  0  0  0  0  0  0  0  0
    8.8790   -1.2020   21.5440 N   0  0  0  0  0  0  0  0  0  0  0  0
    8.1120   -0.1680   21.2140 C   0  0  0  0  0  0  0  0  0  0  0  0
    8.5300    0.9850   21.1690 O   0  0  0  0  0  0  0  0  0  0  0  0
    6.8270   -0.5790   20.9240 N   0  0  0  0  0  0  0  0  0  0  0  0
    6.2480    0.0760   19.9140 C   0  0  0  0  0  0  0  0  0  0  0  0
    4.9530    0.8420   20.1360 C   0  0  0  0  0  0  0  0  0  0  0  0
    4.4030    1.5830   18.9290 C   0  0  0  0  0  0  0  0  0  0  0  0
    5.1050    1.5090   17.7350 C   0  0  0  0  0  0  0  0  0  0  0  0
    6.2540    0.7880   17.6240 N   0  0  0  0  0  0  0  0  0  0  0  0
    6.8140    0.0900   18.6690 C   0  0  0  0  0  0  0  0  0  0  0  0
    9.7140    0.0350   23.4960 C   0  0  0  0  0  0  0  0  0  0  0  0
    8.4950    0.5250   23.9120 C   0  0  0  0  0  0  0  0  0  0  0  0
   10.8480    0.3230   24.2100 C   0  0  0  0  0  0  0  0  0  0  0  0
  1  2  1  0
  2  3  1  0
  3  4  1  0
  4  5  1  0
  5  6  1  0
  6  7  2  0
  7  8  1  0
  8  9  2  0
  9 10  1  0
 10 11  1  0
 11 12  2  0
 11 13  1  0
 13 14  1  0
 14 15  2  0
 15 16  1  0
 16 17  2  0
 17 18  1  0
 14 19  1  0
 18 19  2  0
  9 20  1  0
 20 21  1  0
  6 22  1  0
 20 22  2  0
M  END
