pyridine_urea_11392
     RDKit          3D

 18 20  0  0  0  0  0  0  0  0999 V2000
    8.5850    0.7390   21.2920 O   0  0  0  0  0  0  0  0  0  0  0  0
    8.1940   -0.4000   21.5150 C   0  0  0  0  0  0  0  0  0  0  0  0
    6.9590   -0.8440   21.1190 N   0  0  0  0  0  0  0  0  0  0  0  0
    6.3750   -0.1170   20.0140 C   0  0  0  0  0  0  0  0  0  0  0  0
    5.0810    0.6340   20.3040 C   0  0  0  0  0  0  0  0  0  0  0  0
    4.5240    1.3810   19.1410 C   0  0  0  0  0  0  0  0  0  0  0  0
    5.1990    1.3330   17.9350 C   0  0  0  0  0  0  0  0  0  0  0  0
    6.3390    0.6470   17.7340 N   0  0  0  0  0  0  0  0  0  0  0  0
    6.8940   -0.0510   18.7450 C   0  0  0  0  0  0  0  0  0  0  0  0
    8.9470   -1.3400   22.1760 N   0  0  0  0  0  0  0  0  0  0  0  0
   10.3820   -1.0370   22.1950 C   0  0  2  0  0  0  0  0  0  0  0  0
   11.1780   -2.0480   22.5190 C   0  0  0  0  0  0  0  0  0  0  0  0
   12.2450   -1.5850   22.8300 O   0  0  0  0  0  0  0  0  0  0  0  0
   12.0230   -0.3730   23.5180 C   0  0  1  0  0  0  0  0  0  0  0  0
   12.7410    0.6050   22.8630 C   0  0  0  0  0  0  0  0  0  0  0  0
   12.0890    1.6620   22.6780 O   0  0  0  0  0  0  0  0  0  0  0  0
   10.7360    1.3590   22.8410 C   0  0  0  0  0  0  0  0  0  0  0  0
   10.5530    0.0410   23.2260 C   0  0  1  0  0  0  0  0  0  0  0  0
  1  2  2  0
  2  3  1  0
  3  4  1  0
  4  5  2  0
  5  6  1  0
  6  7  2  0
  7  8  1  0
  4  9  1  0
  8  9  2  0
  2 10  1  0
 11 10  1  1
 11 12  1  0
 12 13  1  0
 13 14  1  0
 14 15  1  6
 15 16  1  0
 16 17  1  0
 11 18  1  0
 14 18  1  0
 18 17  1  6
M  END
