pyridine_urea_9054
     RDKit          3D

 19 19  0  0  0  0  0  0  0  0999 V2000
    7.8070   -0.1910   26.0850 C   0  0  0  0  0  0  0  0  0  0  0  0
    8.5670    0.0300   24.9040 O   0  0  0  0  0  0  0  0  0  0  0  0
    9.9080   -0.1630   25.0430 C   0  0  0  0  0  0  0  0  0  0  0  0
   10.3840   -0.7170   26.0120 O   0  0  0  0  0  0  0  0  0  0  0  0
   10.7600    0.3930   23.8810 C   0  0  0  0  0  0  0  0  0  0  0  0
   12.1290    0.5420   24.0500 C   0  0  0  0  0  0  0  0  0  0  0  0
   10.2920    1.8220   23.6720 C   0  0  0  0  0  0  0  0  0  0  0  0
   10.5420   -0.4210   22.6140 C   0  0  1  0  0  0  0  0  0  0  0  0
   11.3180   -1.5480   22.3440 C   0  0  0  0  0  0  0  0  0  0  0  0
    9.1090   -0.7230   22.4320 N   0  0  0  0  0  0  0  0  0  0  0  0
    8.4290    0.0670   21.5180 C   0  0  0  0  0  0  0  0  0  0  0  0
    8.9110    1.3720   21.1500 O   0  0  0  0  0  0  0  0  0  0  0  0
    7.2750   -0.5250   21.0380 N   0  0  0  0  0  0  0  0  0  0  0  0
    6.5400    0.0730   20.0340 C   0  0  0  0  0  0  0  0  0  0  0  0
    5.3660    0.7620   20.3690 C   0  0  0  0  0  0  0  0  0  0  0  0
    4.6290    1.3910   19.3520 C   0  0  0  0  0  0  0  0  0  0  0  0
    5.1510    1.2870   17.9610 C   0  0  0  0  0  0  0  0  0  0  0  0
    6.2700    0.6140   17.6830 N   0  0  0  0  0  0  0  0  0  0  0  0
    6.9240    0.0310   18.7100 C   0  0  0  0  0  0  0  0  0  0  0  0
  1  2  1  0
  2  3  1  0
  3  4  2  0
  5  3  1  0
  5  6  1  0
  5  7  1  0
  5  8  1  0
  8  9  1  1
  8 10  1  0
 10 11  1  0
 11 12  2  0
 11 13  1  0
 13 14  1  0
 14 15  2  0
 15 16  1  0
 16 17  2  0
 17 18  1  0
 14 19  1  0
 18 19  2  0
M  END
