pyridine_urea_10635
     RDKit          3D

 21 22  0  0  0  0  0  0  0  0999 V2000
   13.5570   -0.5960   22.6150 C   0  0  0  0  0  0  0  0  0  0  0  0
   12.1890   -0.4990   23.1940 C   0  0  0  0  0  0  0  0  0  0  0  0
   11.8150   -0.3630   24.4970 C   0  0  0  0  0  0  0  0  0  0  0  0
   10.5080   -0.4010   24.0050 C   0  0  0  0  0  0  0  0  0  0  0  0
    9.8500   -0.5590   22.7380 C   0  0  2  0  0  0  0  0  0  0  0  0
    8.4620   -0.7680   22.5130 N   0  0  0  0  0  0  0  0  0  0  0  0
    7.9530   -0.0550   21.4820 C   0  0  0  0  0  0  0  0  0  0  0  0
    8.4600    0.9920   21.0920 O   0  0  0  0  0  0  0  0  0  0  0  0
    6.7780   -0.6810   20.9470 N   0  0  0  0  0  0  0  0  0  0  0  0
    6.2380    0.0000   19.9170 C   0  0  0  0  0  0  0  0  0  0  0  0
    5.0400    0.6900   20.1100 C   0  0  0  0  0  0  0  0  0  0  0  0
    4.5150    1.3990   19.0510 C   0  0  0  0  0  0  0  0  0  0  0  0
    5.1600    1.4250   17.8310 C   0  0  0  0  0  0  0  0  0  0  0  0
    6.3110    0.7580   17.6340 N   0  0  0  0  0  0  0  0  0  0  0  0
    6.8170    0.0670   18.6740 C   0  0  0  0  0  0  0  0  0  0  0  0
   10.3660   -1.7180   22.0670 C   0  0  0  0  0  0  0  0  0  0  0  0
   11.8930   -1.6160   21.9540 C   0  0  0  0  0  0  0  0  0  0  0  0
   10.0840   -2.8660   23.0410 C   0  0  0  0  0  0  0  0  0  0  0  0
   10.5450   -0.2430   25.2230 C   0  0  0  0  0  0  0  0  0  0  0  0
    9.6080   -0.0840   26.2420 C   0  0  0  0  0  0  0  0  0  0  0  0
   12.4720   -0.3440   24.9720 S   0  0  0  0  0  0  0  0  0  0  0  0
  1  2  1  0
  2  3  2  0
  3  4  1  0
  4  5  1  0
  5  6  1  1
  6  7  1  0
  7  8  2  0
  7  9  1  0
  9 10  1  0
 10 11  2  0
 11 12  1  0
 12 13  2  0
 13 14  1  0
 10 15  1  0
 14 15  2  0
  5 16  1  0
 16 17  1  0
 16 18  1  0
  4 19  2  0
 19 20  1  0
  2 21  1  0
 19 21  1  0
M  END
