pyridine_urea_6910
     RDKit          3D

 21 22  0  0  0  0  0  0  0  0999 V2000
    8.0680    3.4260   21.7870 C   0  0  0  0  0  0  0  0  0  0  0  0
    8.0340    3.7600   23.2590 C   0  0  0  0  0  0  0  0  0  0  0  0
    7.1810    4.7840   23.6730 C   0  0  0  0  0  0  0  0  0  0  0  0
    7.0470    5.2020   25.0030 C   0  0  0  0  0  0  0  0  0  0  0  0
    5.9560    6.4810   25.3810 Cl  0  0  0  0  0  0  0  0  0  0  0  0
    7.7910    4.5860   25.9990 C   0  0  0  0  0  0  0  0  0  0  0  0
    8.6690    3.5520   25.6740 C   0  0  0  0  0  0  0  0  0  0  0  0
    8.8090    3.0980   24.2070 C   0  0  0  0  0  0  0  0  0  0  0  0
    9.5590    2.1950   23.8290 O   0  0  0  0  0  0  0  0  0  0  0  0
    9.0830    0.8980   23.8950 C   0  0  0  0  0  0  0  0  0  0  0  0
    9.8450   -0.1870   23.4430 C   0  0  0  0  0  0  0  0  0  0  0  0
    9.3080   -0.7910   22.3070 N   0  0  0  0  0  0  0  0  0  0  0  0
    8.5290    0.0210   21.3730 C   0  0  0  0  0  0  0  0  0  0  0  0
    8.8920    1.1620   21.0770 O   0  0  0  0  0  0  0  0  0  0  0  0
    7.3820   -0.6040   20.9200 N   0  0  0  0  0  0  0  0  0  0  0  0
    6.5420    0.0510   20.0160 C   0  0  0  0  0  0  0  0  0  0  0  0
    5.2910    0.7870   20.3370 C   0  0  0  0  0  0  0  0  0  0  0  0
    4.6090    1.3990   19.2780 C   0  0  0  0  0  0  0  0  0  0  0  0
    5.1380    1.2820   17.9980 C   0  0  0  0  0  0  0  0  0  0  0  0
    6.2560    0.6130   17.6890 N   0  0  0  0  0  0  0  0  0  0  0  0
    6.9230    0.0210   18.6930 C   0  0  0  0  0  0  0  0  0  0  0  0
  1  2  1  0
  2  3  2  0
  3  4  1  0
  4  5  1  0
  4  6  2  0
  6  7  1  0
  2  8  1  0
  7  8  2  0
  8  9  1  0
  9 10  1  0
 10 11  1  0
 11 12  1  0
 12 13  1  0
 13 14  2  0
 13 15  1  0
 15 16  1  0
 16 17  2  0
 17 18  1  0
 18 19  2  0
 19 20  1  0
 16 21  1  0
 20 21  2  0
M  END
