pyridine_urea_8866
     RDKit          3D

 20 22  0  0  0  0  0  0  0  0999 V2000
    8.6080    1.3450   20.9820 O   0  0  0  0  0  0  0  0  0  0  0  0
    8.5200    0.2160   21.4610 C   0  0  0  0  0  0  0  0  0  0  0  0
    7.4550   -0.5820   21.1270 N   0  0  0  0  0  0  0  0  0  0  0  0
    6.7140   -0.0290   20.0170 C   0  0  0  0  0  0  0  0  0  0  0  0
    5.4610    0.7910   20.3740 C   0  0  0  0  0  0  0  0  0  0  0  0
    4.6970    1.3840   19.3710 C   0  0  0  0  0  0  0  0  0  0  0  0
    5.1130    1.2050   18.0570 C   0  0  0  0  0  0  0  0  0  0  0  0
    6.2280    0.4620   17.7810 N   0  0  0  0  0  0  0  0  0  0  0  0
    7.0420   -0.1660   18.7320 C   0  0  0  0  0  0  0  0  0  0  0  0
    9.4330   -0.3230   22.3350 N   0  0  0  0  0  0  0  0  0  0  0  0
   10.3950   -0.6700   23.2250 C   0  0  1  0  0  0  0  0  0  0  0  0
   11.6930   -0.7760   22.7290 C   0  0  0  0  0  0  0  0  0  0  0  0
   12.5520    0.3610   22.8380 C   0  0  0  0  0  0  0  0  0  0  0  0
   12.0890    1.6130   23.3830 C   0  0  1  0  0  0  0  0  0  0  0  0
   12.5650    2.8440   22.7170 C   0  0  0  0  0  0  0  0  0  0  0  0
   11.7300    3.5730   21.7630 C   0  0  0  0  0  0  0  0  0  0  0  0
   11.7180    4.7760   22.3120 C   0  0  0  0  0  0  0  0  0  0  0  0
   12.4440    4.2700   23.4520 C   0  0  0  0  0  0  0  0  0  0  0  0
   10.7410    1.6940   23.6990 C   0  0  0  0  0  0  0  0  0  0  0  0
   10.3620    0.3710   24.2880 C   0  0  0  0  0  0  0  0  0  0  0  0
  1  2  2  0
  2  3  1  0
  3  4  1  0
  4  5  2  0
  5  6  1  0
  6  7  2  0
  7  8  1  0
  4  9  1  0
  8  9  2  0
  2 10  1  0
 11 10  1  6
 11 12  1  0
 12 13  1  0
 13 14  1  0
 14 15  1  6
 15 16  1  0
 16 17  1  0
 15 18  1  0
 17 18  1  0
 14 19  1  0
 11 20  1  0
 19 20  1  0
M  END
