pyridine_urea_11860
     RDKit          3D

 25 27  0  0  0  0  0  0  0  0999 V2000
    8.9590    1.2890   21.1330 O   0  0  0  0  0  0  0  0  0  0  0  0
    8.6030    0.1420   21.4150 C   0  0  0  0  0  0  0  0  0  0  0  0
    7.4110   -0.4230   21.0350 N   0  0  0  0  0  0  0  0  0  0  0  0
    6.6220    0.1220   20.0230 C   0  0  0  0  0  0  0  0  0  0  0  0
    5.4510    0.8070   20.3540 C   0  0  0  0  0  0  0  0  0  0  0  0
    4.6760    1.3760   19.3420 C   0  0  0  0  0  0  0  0  0  0  0  0
    5.1120    1.2310   18.0450 C   0  0  0  0  0  0  0  0  0  0  0  0
    6.2220    0.5710   17.7030 N   0  0  0  0  0  0  0  0  0  0  0  0
    6.9490    0.0310   18.6970 C   0  0  0  0  0  0  0  0  0  0  0  0
    9.4100   -0.6930   22.1470 N   0  0  0  0  0  0  0  0  0  0  0  0
   10.0960   -0.0500   23.2760 C   0  0  1  0  0  0  0  0  0  0  0  0
    9.9410   -0.8890   24.5040 C   0  0  0  0  0  0  0  0  0  0  0  0
   11.0620   -1.7570   24.7560 O   0  0  0  0  0  0  0  0  0  0  0  0
    8.7950   -0.7660   25.2560 N   0  0  0  0  0  0  0  0  0  0  0  0
    8.7220    0.2210   26.3070 C   0  0  0  0  0  0  0  0  0  0  0  0
    7.3920    0.6040   26.4800 C   0  0  0  0  0  0  0  0  0  0  0  0
    6.4280   -0.3830   26.6380 C   0  0  0  0  0  0  0  0  0  0  0  0
    6.6820   -1.5090   25.8550 C   0  0  0  0  0  0  0  0  0  0  0  0
    7.6290   -1.3560   24.8310 C   0  0  0  0  0  0  0  0  0  0  0  0
   11.5340    0.4800   23.0810 C   0  0  0  0  0  0  0  0  0  0  0  0
   11.9860   -0.8010   22.8830 C   0  0  0  0  0  0  0  0  0  0  0  0
   12.6930    0.3200   22.8800 C   0  0  0  0  0  0  0  0  0  0  0  0
   11.7780    1.4140   23.1480 C   0  0  0  0  0  0  0  0  0  0  0  0
   12.9440    1.9330   22.9840 C   0  0  0  0  0  0  0  0  0  0  0  0
   12.9940    0.5300   22.8380 C   0  0  0  0  0  0  0  0  0  0  0  0
  1  2  2  0
  2  3  1  0
  3  4  1  0
  4  5  2  0
  5  6  1  0
  6  7  2  0
  7  8  1  0
  4  9  1  0
  8  9  2  0
  2 10  1  0
 11 10  1  6
 11 12  1  0
 12 13  2  0
 12 14  1  0
 14 15  1  0
 15 16  1  0
 16 17  1  0
 17 18  1  0
 14 19  1  0
 18 19  1  0
 11 20  1  0
 20 21  2  0
 21 22  1  0
 22 23  2  0
 23 24  1  0
 20 25  1  0
 24 25  2  0
M  END
