pyridine_urea_7259
     RDKit          3D

 19 20  0  0  0  0  0  0  0  0999 V2000
   13.4060   -3.0500   20.7320 C   0  0  0  0  0  0  0  0  0  0  0  0
   12.8990   -1.9450   21.2610 N   0  0  0  0  0  0  0  0  0  0  0  0
   11.7180   -1.9310   21.9670 C   0  0  0  0  0  0  0  0  0  0  0  0
   11.4710   -0.7600   22.5650 C   0  0  0  0  0  0  0  0  0  0  0  0
   12.5690    0.0520   22.8390 C   0  0  0  0  0  0  0  0  0  0  0  0
   12.4500    1.2700   23.4320 C   0  0  0  0  0  0  0  0  0  0  0  0
   11.2160    1.7550   23.8080 C   0  0  0  0  0  0  0  0  0  0  0  0
   10.0220    0.8710   23.5100 C   0  0  0  0  0  0  0  0  0  0  0  0
   10.1810   -0.3460   22.8940 C   0  0  0  0  0  0  0  0  0  0  0  0
    8.9750   -1.0950   22.6150 N   0  0  0  0  0  0  0  0  0  0  0  0
    8.2990   -0.2510   21.5990 C   0  0  0  0  0  0  0  0  0  0  0  0
    8.7490    0.8510   21.3020 O   0  0  0  0  0  0  0  0  0  0  0  0
    7.1580   -0.7930   21.0600 N   0  0  0  0  0  0  0  0  0  0  0  0
    6.4300   -0.0840   20.0940 C   0  0  0  0  0  0  0  0  0  0  0  0
    5.2430    0.6210   20.3040 C   0  0  0  0  0  0  0  0  0  0  0  0
    4.5750    1.3540   19.1970 C   0  0  0  0  0  0  0  0  0  0  0  0
    5.2100    1.2830   17.9640 C   0  0  0  0  0  0  0  0  0  0  0  0
    6.3470    0.6100   17.7260 N   0  0  0  0  0  0  0  0  0  0  0  0
    6.9350   -0.0660   18.8060 C   0  0  0  0  0  0  0  0  0  0  0  0
  1  2  1  0
  2  3  1  0
  3  4  1  0
  4  5  2  0
  5  6  1  0
  6  7  2  0
  7  8  1  0
  4  9  1  0
  8  9  2  0
  9 10  1  0
 10 11  1  0
 11 12  2  0
 11 13  1  0
 13 14  1  0
 14 15  2  0
 15 16  1  0
 16 17  2  0
 17 18  1  0
 14 19  1  0
 18 19  2  0
M  END
