pyridine_urea_10160
     RDKit          3D

 23 24  0  0  0  0  0  0  0  0999 V2000
   13.4120   -0.5080   21.8890 C   0  0  0  0  0  0  0  0  0  0  0  0
   12.5720   -1.6760   22.1090 C   0  0  0  0  0  0  0  0  0  0  0  0
   11.8000   -2.2020   21.1950 C   0  0  0  0  0  0  0  0  0  0  0  0
   13.3090   -2.7220   22.9420 C   0  0  0  0  0  0  0  0  0  0  0  0
   11.6710   -1.1570   23.0700 C   0  0  0  0  0  0  0  0  0  0  0  0
   12.3540   -0.9230   24.1540 C   0  0  0  0  0  0  0  0  0  0  0  0
   11.7070   -0.4250   25.3160 C   0  0  0  0  0  0  0  0  0  0  0  0
   10.3340   -0.1970   25.2330 C   0  0  0  0  0  0  0  0  0  0  0  0
    9.4450    0.3020   26.3460 N   0  0  0  0  0  0  0  0  0  0  0  0
    8.0790    0.2150   26.1740 O   0  0  0  0  0  0  0  0  0  0  0  0
   10.0780    0.0030   27.5400 O   0  0  0  0  0  0  0  0  0  0  0  0
    9.6130   -0.4190   24.0890 C   0  0  0  0  0  0  0  0  0  0  0  0
   10.2800   -0.9090   22.9850 C   0  0  0  0  0  0  0  0  0  0  0  0
    9.4680   -1.1070   21.8880 N   0  0  0  0  0  0  0  0  0  0  0  0
    8.5520   -0.1460   21.4140 C   0  0  0  0  0  0  0  0  0  0  0  0
    8.7870    1.0300   21.1840 O   0  0  0  0  0  0  0  0  0  0  0  0
    7.2960   -0.5990   21.2090 N   0  0  0  0  0  0  0  0  0  0  0  0
    6.6040    0.0140   20.0690 C   0  0  0  0  0  0  0  0  0  0  0  0
    5.4570    0.7740   20.3640 C   0  0  0  0  0  0  0  0  0  0  0  0
    4.7480    1.4070   19.3420 C   0  0  0  0  0  0  0  0  0  0  0  0
    5.1390    1.3120   18.0190 C   0  0  0  0  0  0  0  0  0  0  0  0
    6.2520    0.5650   17.7320 N   0  0  0  0  0  0  0  0  0  0  0  0
    6.9780   -0.0800   18.7410 C   0  0  0  0  0  0  0  0  0  0  0  0
  2  1  1  0
  2  3  1  0
  2  4  1  0
  2  5  1  0
  5  6  2  0
  6  7  1  0
  7  8  2  0
  8  9  1  0
  9 10  2  0
  9 11  1  0
  8 12  1  0
  5 13  1  0
 12 13  2  0
 13 14  1  0
 14 15  1  0
 15 16  2  0
 15 17  1  0
 17 18  1  0
 18 19  2  0
 19 20  1  0
 20 21  2  0
 21 22  1  0
 18 23  1  0
 22 23  2  0
M  CHG  2   9   1  11  -1
M  END
