pyridine_urea_6616
     RDKit          3D

 22 23  0  0  0  0  0  0  0  0999 V2000
    8.1300    1.0690   24.8390 C   0  0  0  0  0  0  0  0  0  0  0  0
    9.1000    0.3300   25.4650 N   0  0  0  0  0  0  0  0  0  0  0  0
    9.1160    0.1830   26.8630 C   0  0  0  0  0  0  0  0  0  0  0  0
   10.1710   -0.1930   24.7650 C   0  0  0  0  0  0  0  0  0  0  0  0
   11.1320   -0.7920   25.2250 O   0  0  0  0  0  0  0  0  0  0  0  0
   10.1600   -0.0050   23.2450 C   0  0  2  0  0  0  0  0  0  0  0  0
    9.1310   -0.5740   22.5480 N   0  0  0  0  0  0  0  0  0  0  0  0
    8.4590    0.1320   21.5470 C   0  0  0  0  0  0  0  0  0  0  0  0
    8.9260    1.4240   21.1270 O   0  0  0  0  0  0  0  0  0  0  0  0
    7.2910   -0.5570   21.0450 N   0  0  0  0  0  0  0  0  0  0  0  0
    6.4830    0.0730   20.0940 C   0  0  0  0  0  0  0  0  0  0  0  0
    5.2980    0.7860   20.3590 C   0  0  0  0  0  0  0  0  0  0  0  0
    4.5950    1.3970   19.2850 C   0  0  0  0  0  0  0  0  0  0  0  0
    5.1220    1.2550   18.0090 C   0  0  0  0  0  0  0  0  0  0  0  0
    6.2320    0.5870   17.6750 N   0  0  0  0  0  0  0  0  0  0  0  0
    6.9350   -0.0170   18.6900 C   0  0  0  0  0  0  0  0  0  0  0  0
   11.4900   -0.6680   22.8510 C   0  0  0  0  0  0  0  0  0  0  0  0
   11.6990   -1.8630   22.4640 C   0  0  0  0  0  0  0  0  0  0  0  0
   13.0040   -1.1540   22.4760 C   0  0  0  0  0  0  0  0  0  0  0  0
   11.9230   -0.1360   22.9630 C   0  0  0  0  0  0  0  0  0  0  0  0
   12.8730    0.8730   23.1050 C   0  0  0  0  0  0  0  0  0  0  0  0
   13.0690   -0.3050   22.7200 C   0  0  0  0  0  0  0  0  0  0  0  0
  1  2  1  0
  2  3  1  0
  2  4  1  0
  4  5  2  0
  4  6  1  0
  6  7  1  6
  7  8  1  0
  8  9  2  0
  8 10  1  0
 10 11  1  0
 11 12  2  0
 12 13  1  0
 13 14  2  0
 14 15  1  0
 11 16  1  0
 15 16  2  0
  6 17  1  0
 17 18  2  0
 18 19  1  0
 19 20  2  0
 20 21  1  0
 17 22  1  0
 21 22  2  0
M  END
