pyridine_urea_7889
     RDKit          3D

 25 27  0  0  0  0  0  0  0  0999 V2000
   16.0220    1.8420   19.0330 C   0  0  0  0  0  0  0  0  0  0  0  0
   15.1110    0.9410   20.0320 C   0  0  0  0  0  0  0  0  0  0  0  0
   14.6850    1.5770   21.3660 C   0  0  0  0  0  0  0  0  0  0  0  0
   13.9440    0.8990   22.3250 C   0  0  0  0  0  0  0  0  0  0  0  0
   13.5970   -0.4110   22.0370 C   0  0  0  0  0  0  0  0  0  0  0  0
   13.1450   -1.0460   22.8010 O   0  0  0  0  0  0  0  0  0  0  0  0
   11.9670   -1.1470   22.9660 C   0  0  0  0  0  0  0  0  0  0  0  0
   11.8050   -1.1510   24.2360 C   0  0  0  0  0  0  0  0  0  0  0  0
   10.5060   -1.2600   24.7880 C   0  0  0  0  0  0  0  0  0  0  0  0
    9.4420   -1.3550   23.9500 C   0  0  0  0  0  0  0  0  0  0  0  0
    9.6980   -1.3500   22.6110 C   0  0  0  0  0  0  0  0  0  0  0  0
    8.5730   -1.4500   21.8090 N   0  0  0  0  0  0  0  0  0  0  0  0
    7.9520   -0.3980   21.3170 C   0  0  0  0  0  0  0  0  0  0  0  0
    8.6630    0.8260   21.2090 O   0  0  0  0  0  0  0  0  0  0  0  0
    6.6800   -0.6220   20.9720 N   0  0  0  0  0  0  0  0  0  0  0  0
    6.1070    0.0980   19.9520 C   0  0  0  0  0  0  0  0  0  0  0  0
    4.9470    0.8450   20.0670 C   0  0  0  0  0  0  0  0  0  0  0  0
    4.4590    1.5540   18.9800 C   0  0  0  0  0  0  0  0  0  0  0  0
    5.1070    1.5440   17.7460 C   0  0  0  0  0  0  0  0  0  0  0  0
    6.3050    0.7490   17.6570 N   0  0  0  0  0  0  0  0  0  0  0  0
    6.7460    0.0740   18.7420 C   0  0  0  0  0  0  0  0  0  0  0  0
   10.9450   -1.2520   22.0850 C   0  0  0  0  0  0  0  0  0  0  0  0
   13.7420   -1.1620   20.9290 C   0  0  0  0  0  0  0  0  0  0  0  0
   13.2120   -2.4780   20.9000 C   0  0  0  0  0  0  0  0  0  0  0  0
   14.4430   -0.5920   19.8680 C   0  0  0  0  0  0  0  0  0  0  0  0
  1  2  1  0
  2  3  2  0
  3  4  1  0
  4  5  2  0
  5  6  1  0
  6  7  1  0
  7  8  2  0
  8  9  1  0
  9 10  2  0
 10 11  1  0
 11 12  1  0
 12 13  1  0
 13 14  2  0
 13 15  1  0
 15 16  1  0
 16 17  2  0
 17 18  1  0
 18 19  2  0
 19 20  1  0
 16 21  1  0
 20 21  2  0
  7 22  1  0
 11 22  2  0
  5 23  1  0
 23 24  1  0
  2 25  1  0
 23 25  2  0
M  END
