pyridine_urea_14637
     RDKit          3D

 21 23  0  0  0  0  0  0  0  0999 V2000
   13.4570   -2.3290   25.1430 C   0  0  0  0  0  0  0  0  0  0  0  0
   12.5620   -1.4570   24.5170 N   0  0  0  0  0  0  0  0  0  0  0  0
   11.2610   -1.4530   25.0140 N   0  0  0  0  0  0  0  0  0  0  0  0
   10.3280   -0.6800   24.4430 C   0  0  0  0  0  0  0  0  0  0  0  0
    9.9580    0.2150   23.4780 C   0  0  0  0  0  0  0  0  0  0  0  0
    9.2520   -0.3600   22.5050 N   0  0  0  0  0  0  0  0  0  0  0  0
    8.5820    0.3330   21.5390 C   0  0  0  0  0  0  0  0  0  0  0  0
    8.9340    1.4690   21.1450 O   0  0  0  0  0  0  0  0  0  0  0  0
    7.4070   -0.3960   21.0540 N   0  0  0  0  0  0  0  0  0  0  0  0
    6.5670    0.1940   20.1200 C   0  0  0  0  0  0  0  0  0  0  0  0
    5.4070    0.8920   20.3490 C   0  0  0  0  0  0  0  0  0  0  0  0
    4.6550    1.4890   19.1950 C   0  0  0  0  0  0  0  0  0  0  0  0
    5.1100    1.3430   17.9100 C   0  0  0  0  0  0  0  0  0  0  0  0
    6.2370    0.6550   17.5940 N   0  0  0  0  0  0  0  0  0  0  0  0
    6.9130    0.1070   18.7550 C   0  0  0  0  0  0  0  0  0  0  0  0
   11.5840   -0.4010   23.6590 C   0  0  0  0  0  0  0  0  0  0  0  0
   12.1590   -1.2450   24.4290 C   0  0  0  0  0  0  0  0  0  0  0  0
   13.2820   -0.9570   23.6770 C   0  0  0  0  0  0  0  0  0  0  0  0
   12.0350   -0.1590   23.2040 C   0  0  0  0  0  0  0  0  0  0  0  0
   12.9500    0.2520   22.4200 C   0  0  0  0  0  0  0  0  0  0  0  0
   13.0790   -0.6400   23.3930 C   0  0  0  0  0  0  0  0  0  0  0  0
  1  2  1  0
  2  3  1  0
  3  4  2  0
  4  5  1  0
  5  6  1  0
  6  7  1  0
  7  8  2  0
  7  9  1  0
  9 10  1  0
 10 11  2  0
 11 12  1  0
 12 13  2  0
 13 14  1  0
 10 15  1  0
 14 15  2  0
  4 16  1  0
 16 17  1  0
 17 18  2  0
 18 19  1  0
 19 20  2  0
  2 21  1  0
 16 21  2  0
 20 21  1  0
M  END
