pyridine_urea_7331
     RDKit          3D

 18 19  0  0  0  0  0  0  0  0999 V2000
    8.8940    0.5440   21.2570 O   0  0  0  0  0  0  0  0  0  0  0  0
    8.3150   -0.4840   21.5690 C   0  0  0  0  0  0  0  0  0  0  0  0
    8.8290   -1.5160   22.3260 N   0  0  0  0  0  0  0  0  0  0  0  0
   10.1900   -1.7730   22.5860 C   0  0  0  0  0  0  0  0  0  0  0  0
   10.9810   -0.6520   22.7080 C   0  0  0  0  0  0  0  0  0  0  0  0
   10.3180    0.5780   22.8000 C   0  0  0  0  0  0  0  0  0  0  0  0
   11.0000    1.7730   22.9160 C   0  0  0  0  0  0  0  0  0  0  0  0
   12.3880    1.8010   22.9590 C   0  0  0  0  0  0  0  0  0  0  0  0
   13.0750    0.6250   22.8760 C   0  0  0  0  0  0  0  0  0  0  0  0
   12.3700   -0.6830   22.7410 C   0  0  0  0  0  0  0  0  0  0  0  0
   13.1900   -1.8580   22.6590 O   0  0  0  0  0  0  0  0  0  0  0  0
    7.0290   -0.7590   21.1930 N   0  0  0  0  0  0  0  0  0  0  0  0
    6.4180   -0.0800   20.1340 C   0  0  0  0  0  0  0  0  0  0  0  0
    5.2400    0.6550   20.2710 C   0  0  0  0  0  0  0  0  0  0  0  0
    4.6060    1.3540   19.2510 C   0  0  0  0  0  0  0  0  0  0  0  0
    5.1820    1.3250   17.9920 C   0  0  0  0  0  0  0  0  0  0  0  0
    6.3120    0.6520   17.7120 N   0  0  0  0  0  0  0  0  0  0  0  0
    6.9250   -0.0270   18.7030 C   0  0  0  0  0  0  0  0  0  0  0  0
  1  2  2  0
  2  3  1  0
  3  4  1  0
  4  5  1  0
  5  6  2  0
  6  7  1  0
  7  8  2  0
  8  9  1  0
  5 10  1  0
  9 10  2  0
 10 11  1  0
  2 12  1  0
 12 13  1  0
 13 14  2  0
 14 15  1  0
 15 16  2  0
 16 17  1  0
 13 18  1  0
 17 18  2  0
M  END
