pyridine_urea_8324
     RDKit          3D

 23 25  0  0  0  0  0  0  0  0999 V2000
    9.0860    0.9040   21.3730 O   0  0  0  0  0  0  0  0  0  0  0  0
    8.4870   -0.1080   21.7010 C   0  0  0  0  0  0  0  0  0  0  0  0
    8.9090   -0.9080   22.7490 N   0  0  0  0  0  0  0  0  0  0  0  0
    9.1160   -2.3360   22.5570 C   0  0  0  0  0  0  0  0  0  0  0  0
    8.1470   -3.2530   23.3970 C   0  0  0  0  0  0  0  0  0  0  0  0
    6.9080   -3.7120   22.6590 N   0  0  0  0  0  0  0  0  0  0  0  0
    6.6720   -5.1830   22.5910 C   0  0  0  0  0  0  0  0  0  0  0  0
    7.6020   -6.0140   22.0300 O   0  0  0  0  0  0  0  0  0  0  0  0
    5.3110   -5.4360   23.2160 C   0  0  0  0  0  0  0  0  0  0  0  0
    4.6690   -6.6330   23.4810 C   0  0  0  0  0  0  0  0  0  0  0  0
    3.2690   -6.5930   24.1160 C   0  0  0  0  0  0  0  0  0  0  0  0
    2.5680   -5.2730   24.4680 C   0  0  0  0  0  0  0  0  0  0  0  0
    3.3780   -4.0160   24.1380 C   0  0  0  0  0  0  0  0  0  0  0  0
    4.7510   -4.2310   23.5080 C   0  0  0  0  0  0  0  0  0  0  0  0
    5.6950   -3.0940   23.1210 C   0  0  0  0  0  0  0  0  0  0  0  0
    5.3460   -1.7760   23.2520 O   0  0  0  0  0  0  0  0  0  0  0  0
    7.3270   -0.5780   21.1200 N   0  0  0  0  0  0  0  0  0  0  0  0
    6.6500    0.0060   20.0970 C   0  0  0  0  0  0  0  0  0  0  0  0
    5.5210    0.7790   20.3610 C   0  0  0  0  0  0  0  0  0  0  0  0
    4.7650    1.4290   19.3840 C   0  0  0  0  0  0  0  0  0  0  0  0
    5.1630    1.2990   18.0600 C   0  0  0  0  0  0  0  0  0  0  0  0
    6.2300    0.5730   17.6910 N   0  0  0  0  0  0  0  0  0  0  0  0
    6.9870   -0.0910   18.7650 C   0  0  0  0  0  0  0  0  0  0  0  0
  1  2  2  0
  2  3  1  0
  3  4  1  0
  4  5  1  0
  5  6  1  0
  6  7  1  0
  7  8  2  0
  7  9  1  0
  9 10  1  0
 10 11  2  0
 11 12  1  0
 12 13  2  0
  9 14  2  0
 13 14  1  0
  6 15  1  0
 14 15  1  0
 15 16  2  0
  2 17  1  0
 17 18  1  0
 18 19  2  0
 19 20  1  0
 20 21  2  0
 21 22  1  0
 18 23  1  0
 22 23  2  0
M  END
