pyridine_urea_6403
     RDKit          3D

 19 19  0  0  0  0  0  0  0  0999 V2000
   13.4040   -1.7200   20.8790 C   0  0  0  0  0  0  0  0  0  0  0  0
   12.6650   -2.2490   21.6060 C   0  0  0  0  0  0  0  0  0  0  0  0
   12.6200   -1.4960   22.8420 N   0  0  0  0  0  0  0  0  0  0  0  0
   13.3680   -2.0330   23.9490 C   0  0  0  0  0  0  0  0  0  0  0  0
   12.4480   -2.7470   24.8410 C   0  0  0  0  0  0  0  0  0  0  0  0
   12.3340   -0.1590   22.7330 C   0  0  0  0  0  0  0  0  0  0  0  0
   13.7410   -0.0370   22.9900 O   0  0  0  0  0  0  0  0  0  0  0  0
   11.0310   -0.9270   22.5250 C   0  0  0  0  0  0  0  0  0  0  0  0
    9.9310   -0.4380   23.3440 C   0  0  0  0  0  0  0  0  0  0  0  0
    8.6730   -0.7210   22.7120 N   0  0  0  0  0  0  0  0  0  0  0  0
    8.2330    0.0830   21.5680 C   0  0  0  0  0  0  0  0  0  0  0  0
    8.8270    1.1100   21.1900 O   0  0  0  0  0  0  0  0  0  0  0  0
    7.1140   -0.4710   21.0680 N   0  0  0  0  0  0  0  0  0  0  0  0
    6.5210    0.1050   20.0170 C   0  0  0  0  0  0  0  0  0  0  0  0
    5.3600    0.8590   20.2030 C   0  0  0  0  0  0  0  0  0  0  0  0
    4.6800    1.5060   19.1750 C   0  0  0  0  0  0  0  0  0  0  0  0
    5.1740    1.4060   17.8950 C   0  0  0  0  0  0  0  0  0  0  0  0
    6.3010    0.6690   17.6820 N   0  0  0  0  0  0  0  0  0  0  0  0
    6.9720    0.0230   18.7150 C   0  0  0  0  0  0  0  0  0  0  0  0
  1  2  1  0
  2  3  1  0
  3  4  1  0
  4  5  1  0
  3  6  1  0
  6  7  2  0
  6  8  1  0
  8  9  1  0
  9 10  1  0
 10 11  1  0
 11 12  2  0
 11 13  1  0
 13 14  1  0
 14 15  2  0
 15 16  1  0
 16 17  2  0
 17 18  1  0
 14 19  1  0
 18 19  2  0
M  END
