pyridine_urea_7089
     RDKit          3D

 20 21  0  0  0  0  0  0  0  0999 V2000
    9.9670   -1.0600   24.1650 C   0  0  0  0  0  0  0  0  0  0  0  0
   10.4620   -0.8170   22.7480 C   0  0  1  0  0  0  0  0  0  0  0  0
   11.6430   -1.4480   22.3340 C   0  0  0  0  0  0  0  0  0  0  0  0
   12.8910   -0.8340   22.5720 C   0  0  0  0  0  0  0  0  0  0  0  0
   12.7640    0.3020   23.4820 N   0  0  0  0  0  0  0  0  0  0  0  0
   12.4740    1.5660   22.9800 C   0  0  0  0  0  0  0  0  0  0  0  0
   11.2920    2.0550   23.5380 C   0  0  0  0  0  0  0  0  0  0  0  0
   10.9360    1.3050   24.4270 O   0  0  0  0  0  0  0  0  0  0  0  0
   11.8420    0.2470   24.4630 C   0  0  0  0  0  0  0  0  0  0  0  0
   11.8350   -0.7610   25.3820 O   0  0  0  0  0  0  0  0  0  0  0  0
    9.4120   -1.2480   21.7980 N   0  0  0  0  0  0  0  0  0  0  0  0
    8.4850   -0.2330   21.3520 C   0  0  0  0  0  0  0  0  0  0  0  0
    8.7970    0.9490   21.3040 O   0  0  0  0  0  0  0  0  0  0  0  0
    7.2430   -0.6330   20.9640 N   0  0  0  0  0  0  0  0  0  0  0  0
    6.4460    0.0330   20.0390 C   0  0  0  0  0  0  0  0  0  0  0  0
    5.2350    0.7010   20.2960 C   0  0  0  0  0  0  0  0  0  0  0  0
    4.5440    1.3630   19.2640 C   0  0  0  0  0  0  0  0  0  0  0  0
    5.1220    1.3390   17.9020 C   0  0  0  0  0  0  0  0  0  0  0  0
    6.3140    0.6520   17.7100 N   0  0  0  0  0  0  0  0  0  0  0  0
    6.9230    0.0350   18.7440 C   0  0  0  0  0  0  0  0  0  0  0  0
  2  1  1  1
  2  3  1  0
  3  4  1  0
  4  5  1  0
  5  6  1  0
  6  7  1  0
  7  8  1  0
  5  9  1  0
  8  9  1  0
  9 10  2  0
  2 11  1  0
 11 12  1  0
 12 13  2  0
 12 14  1  0
 14 15  1  0
 15 16  2  0
 16 17  1  0
 17 18  2  0
 18 19  1  0
 15 20  1  0
 19 20  2  0
M  END
