pyridine_urea_12937
     RDKit          3D

 19 20  0  0  0  0  0  0  0  0999 V2000
   11.0220   -1.8080   23.5030 C   0  0  0  0  0  0  0  0  0  0  0  0
   10.4370   -0.8040   22.4840 C   0  0  1  0  0  0  0  0  0  0  0  0
    8.9780   -0.7400   22.5090 N   0  0  0  0  0  0  0  0  0  0  0  0
    8.3010   -0.0640   21.4970 C   0  0  0  0  0  0  0  0  0  0  0  0
    8.6850    1.2540   21.0590 O   0  0  0  0  0  0  0  0  0  0  0  0
    7.2590   -0.8340   21.0380 N   0  0  0  0  0  0  0  0  0  0  0  0
    6.5440   -0.0920   20.1120 C   0  0  0  0  0  0  0  0  0  0  0  0
    5.3880    0.6680   20.3220 C   0  0  0  0  0  0  0  0  0  0  0  0
    4.7450    1.3780   19.3030 C   0  0  0  0  0  0  0  0  0  0  0  0
    5.2860    1.3210   18.0350 C   0  0  0  0  0  0  0  0  0  0  0  0
    6.3890    0.6090   17.7760 N   0  0  0  0  0  0  0  0  0  0  0  0
    6.9780   -0.0690   18.7920 C   0  0  0  0  0  0  0  0  0  0  0  0
   10.9880    0.5890   22.6950 C   0  0  0  0  0  0  0  0  0  0  0  0
   10.4600    1.7470   22.7380 N   0  0  0  0  0  0  0  0  0  0  0  0
   11.8520    1.7960   22.8940 C   0  0  0  0  0  0  0  0  0  0  0  0
   11.6850    0.2120   22.7490 C   0  0  0  0  0  0  0  0  0  0  0  0
   13.1490    0.2020   22.9220 C   0  0  0  0  0  0  0  0  0  0  0  0
   12.3420    1.1430   22.9130 C   0  0  0  0  0  0  0  0  0  0  0  0
   12.6320    2.4400   23.0680 F   0  0  0  0  0  0  0  0  0  0  0  0
  2  1  1  1
  2  3  1  0
  3  4  1  0
  4  5  2  0
  4  6  1  0
  6  7  1  0
  7  8  2  0
  8  9  1  0
  9 10  2  0
 10 11  1  0
  7 12  1  0
 11 12  2  0
  2 13  1  0
 13 14  2  0
 14 15  1  0
 15 16  2  0
 16 17  1  0
 13 18  1  0
 17 18  2  0
 18 19  1  0
M  END
