pyridine_urea_1824
     RDKit          3D

 17 18  0  0  0  0  0  0  0  0999 V2000
    8.6370   -0.8970   24.7200 C   0  0  0  0  0  0  0  0  0  0  0  0
    9.9970   -0.8010   24.5400 N   0  0  0  0  0  0  0  0  0  0  0  0
   10.8810   -0.5360   25.5610 C   0  0  0  0  0  0  0  0  0  0  0  0
   12.2260   -0.4900   25.1650 N   0  0  0  0  0  0  0  0  0  0  0  0
   11.9430   -0.7480   23.7990 C   0  0  0  0  0  0  0  0  0  0  0  0
   10.6610   -0.9510   23.3650 C   0  0  0  0  0  0  0  0  0  0  0  0
   10.2450   -1.2250   22.1180 C   0  0  0  0  0  0  0  0  0  0  0  0
    8.9460   -0.8930   22.2270 N   0  0  0  0  0  0  0  0  0  0  0  0
    8.3530    0.0910   21.4610 C   0  0  0  0  0  0  0  0  0  0  0  0
    8.9110    1.1750   21.1900 O   0  0  0  0  0  0  0  0  0  0  0  0
    7.0500   -0.3410   21.0430 N   0  0  0  0  0  0  0  0  0  0  0  0
    6.4330    0.1990   19.9990 C   0  0  0  0  0  0  0  0  0  0  0  0
    5.1680    1.0340   20.2330 C   0  0  0  0  0  0  0  0  0  0  0  0
    4.5620    1.6080   19.1350 C   0  0  0  0  0  0  0  0  0  0  0  0
    5.0990    1.4230   17.8640 C   0  0  0  0  0  0  0  0  0  0  0  0
    6.2150    0.6790   17.5950 N   0  0  0  0  0  0  0  0  0  0  0  0
    6.8770    0.0630   18.7100 C   0  0  0  0  0  0  0  0  0  0  0  0
  1  2  1  0
  2  3  1  0
  3  4  2  0
  4  5  1  0
  2  6  1  0
  5  6  2  0
  6  7  1  0
  7  8  1  0
  8  9  1  0
  9 10  2  0
  9 11  1  0
 11 12  1  0
 12 13  2  0
 13 14  1  0
 14 15  2  0
 15 16  1  0
 12 17  1  0
 16 17  2  0
M  END
