pyridine_urea_11576
     RDKit          3D

 19 21  0  0  0  0  0  0  0  0999 V2000
    8.9340    1.2970   21.1530 O   0  0  0  0  0  0  0  0  0  0  0  0
    8.3140    0.3390   21.6300 C   0  0  0  0  0  0  0  0  0  0  0  0
    8.4820   -0.1570   22.8920 N   0  0  0  0  0  0  0  0  0  0  0  0
    9.3820   -1.1340   23.3020 C   0  0  0  0  0  0  0  0  0  0  0  0
   10.7180   -0.8310   23.2380 C   0  0  1  0  0  0  0  0  0  0  0  0
   11.2790   -0.5710   24.4800 C   0  0  0  0  0  0  0  0  0  0  0  0
   12.6330   -0.4840   24.3450 C   0  0  0  0  0  0  0  0  0  0  0  0
   13.0090   -0.0830   23.0830 C   0  0  1  0  0  0  0  0  0  0  0  0
   12.9090   -1.1630   22.2240 C   0  0  0  0  0  0  0  0  0  0  0  0
   11.4870   -1.7170   22.3220 C   0  0  0  0  0  0  0  0  0  0  0  0
   11.9250    0.9810   22.9640 C   0  0  0  0  0  0  0  0  0  0  0  0
   10.8660    0.4610   22.6350 O   0  0  0  0  0  0  0  0  0  0  0  0
    7.3230   -0.3680   20.9930 N   0  0  0  0  0  0  0  0  0  0  0  0
    6.5110    0.2190   20.0300 C   0  0  0  0  0  0  0  0  0  0  0  0
    5.3370    0.9250   20.2640 C   0  0  0  0  0  0  0  0  0  0  0  0
    4.6590    1.4700   19.2020 C   0  0  0  0  0  0  0  0  0  0  0  0
    5.1460    1.3100   17.9380 C   0  0  0  0  0  0  0  0  0  0  0  0
    6.2590    0.6310   17.6490 N   0  0  0  0  0  0  0  0  0  0  0  0
    6.9060    0.1060   18.7060 C   0  0  0  0  0  0  0  0  0  0  0  0
  1  2  2  0
  2  3  1  0
  3  4  1  0
  5  4  1  1
  5  6  1  0
  6  7  1  0
  8  7  1  1
  8  9  1  0
  5 10  1  0
  9 10  1  0
  8 11  1  0
  5 12  1  0
 11 12  1  0
  2 13  1  0
 13 14  1  0
 14 15  2  0
 15 16  1  0
 16 17  2  0
 17 18  1  0
 14 19  1  0
 18 19  2  0
M  END
