pyridine_urea_6116
     RDKit          3D

 25 27  0  0  0  0  0  0  0  0999 V2000
   12.6510   -2.8930   24.7240 C   0  0  0  0  0  0  0  0  0  0  0  0
   12.5570   -1.4840   24.3030 C   0  0  0  0  0  0  0  0  0  0  0  0
   13.4490   -1.0740   23.3450 C   0  0  0  0  0  0  0  0  0  0  0  0
   13.4680    0.2430   22.8780 C   0  0  0  0  0  0  0  0  0  0  0  0
   12.5700    1.1820   23.3680 C   0  0  0  0  0  0  0  0  0  0  0  0
   12.4740    2.6480   22.9590 C   0  0  0  0  0  0  0  0  0  0  0  0
   11.4260    2.8520   23.4300 O   0  0  0  0  0  0  0  0  0  0  0  0
   11.1680    1.5040   23.0910 C   0  0  0  0  0  0  0  0  0  0  0  0
   12.4380    0.6770   22.8710 C   0  0  0  0  0  0  0  0  0  0  0  0
   12.4580   -0.6630   22.4930 C   0  0  0  0  0  0  0  0  0  0  0  0
   11.2660   -1.3640   22.2790 C   0  0  0  0  0  0  0  0  0  0  0  0
    9.9920   -0.7870   22.4290 C   0  0  0  0  0  0  0  0  0  0  0  0
    8.7280   -1.2970   22.2280 N   0  0  0  0  0  0  0  0  0  0  0  0
    7.9710   -0.4470   21.4700 C   0  0  0  0  0  0  0  0  0  0  0  0
    8.3610    0.6910   21.2420 O   0  0  0  0  0  0  0  0  0  0  0  0
    6.8060   -0.9280   20.9800 N   0  0  0  0  0  0  0  0  0  0  0  0
    6.2350   -0.1770   19.9540 C   0  0  0  0  0  0  0  0  0  0  0  0
    5.0310    0.4880   20.1730 C   0  0  0  0  0  0  0  0  0  0  0  0
    4.5000    1.2470   19.1320 C   0  0  0  0  0  0  0  0  0  0  0  0
    5.1670    1.3270   17.9190 C   0  0  0  0  0  0  0  0  0  0  0  0
    6.3240    0.6870   17.6980 N   0  0  0  0  0  0  0  0  0  0  0  0
    6.8300   -0.0480   18.7100 C   0  0  0  0  0  0  0  0  0  0  0  0
    9.9420    0.6780   22.8540 C   0  0  0  0  0  0  0  0  0  0  0  0
   11.6490    0.7230   24.3380 C   0  0  0  0  0  0  0  0  0  0  0  0
   11.6450   -0.5940   24.8070 C   0  0  0  0  0  0  0  0  0  0  0  0
  1  2  1  0
  2  3  2  0
  3  4  1  0
  4  5  2  0
  5  6  1  0
  6  7  1  0
  7  8  1  0
  8  9  2  0
  9 10  1  0
 10 11  2  0
 11 12  1  0
 12 13  1  0
 13 14  1  0
 14 15  2  0
 14 16  1  0
 16 17  1  0
 17 18  2  0
 18 19  1  0
 19 20  2  0
 20 21  1  0
 17 22  1  0
 21 22  2  0
  8 23  1  0
 12 23  2  0
  5 24  1  0
  2 25  1  0
 24 25  2  0
M  END
