pyridine_urea_12807
     RDKit          3D

 20 22  0  0  0  0  0  0  0  0999 V2000
    9.0480    0.7100   21.6030 O   0  0  0  0  0  0  0  0  0  0  0  0
    8.5600   -0.3880   21.3850 C   0  0  0  0  0  0  0  0  0  0  0  0
    9.3210   -1.5380   21.3510 N   0  0  0  0  0  0  0  0  0  0  0  0
   10.2240   -1.9810   22.4090 C   0  0  0  0  0  0  0  0  0  0  0  0
   11.5590   -1.2180   22.4160 C   0  0  0  0  0  0  0  0  0  0  0  0
   12.5540   -0.2260   22.6500 C   0  0  0  0  0  0  0  0  0  0  0  0
   12.4400    0.9830   23.3380 C   0  0  0  0  0  0  0  0  0  0  0  0
   11.2700    1.3970   23.9240 C   0  0  0  0  0  0  0  0  0  0  0  0
   10.2120    0.5660   23.8050 C   0  0  0  0  0  0  0  0  0  0  0  0
    8.9130    0.7560   24.3040 C   0  0  0  0  0  0  0  0  0  0  0  0
    8.6730    1.6920   25.0900 C   0  0  0  0  0  0  0  0  0  0  0  0
    8.9310    0.5130   25.8830 C   0  0  0  0  0  0  0  0  0  0  0  0
   10.3720   -0.5900   23.1290 C   0  0  0  0  0  0  0  0  0  0  0  0
    7.2370   -0.6420   21.0970 N   0  0  0  0  0  0  0  0  0  0  0  0
    6.5280   -0.0000   20.0630 C   0  0  0  0  0  0  0  0  0  0  0  0
    5.3760    0.7140   20.3890 C   0  0  0  0  0  0  0  0  0  0  0  0
    4.6650    1.3780   19.3280 C   0  0  0  0  0  0  0  0  0  0  0  0
    5.1840    1.2550   18.0620 C   0  0  0  0  0  0  0  0  0  0  0  0
    6.2820    0.5660   17.7470 N   0  0  0  0  0  0  0  0  0  0  0  0
    6.9270   -0.0450   18.7490 C   0  0  0  0  0  0  0  0  0  0  0  0
  1  2  2  0
  2  3  1  0
  3  4  1  0
  4  5  1  0
  5  6  2  0
  6  7  1  0
  7  8  2  0
  8  9  1  0
  9 10  1  0
 10 11  1  0
 10 12  1  0
 11 12  1  0
  5 13  1  0
  9 13  2  0
  2 14  1  0
 14 15  1  0
 15 16  2  0
 16 17  1  0
 17 18  2  0
 18 19  1  0
 15 20  1  0
 19 20  2  0
M  END
