pyridine_urea_4723
     RDKit          3D

 22 23  0  0  0  0  0  0  0  0999 V2000
    6.2790   -2.5040   26.3550 C   0  0  0  0  0  0  0  0  0  0  0  0
    6.6860   -1.1190   25.7910 C   0  0  2  0  0  0  0  0  0  0  0  0
    7.9220   -1.2380   25.0180 N   0  0  0  0  0  0  0  0  0  0  0  0
    8.1110   -2.1760   24.0170 C   0  0  0  0  0  0  0  0  0  0  0  0
    7.1960   -3.2400   23.7550 O   0  0  0  0  0  0  0  0  0  0  0  0
    9.3030   -1.9330   23.3380 C   0  0  0  0  0  0  0  0  0  0  0  0
    9.0260   -1.5740   22.0310 N   0  0  0  0  0  0  0  0  0  0  0  0
    8.4560   -0.3780   21.5410 C   0  0  0  0  0  0  0  0  0  0  0  0
    9.0380    0.6910   21.4160 O   0  0  0  0  0  0  0  0  0  0  0  0
    7.1400   -0.5960   21.2010 N   0  0  0  0  0  0  0  0  0  0  0  0
    6.5410    0.0240   20.0410 C   0  0  0  0  0  0  0  0  0  0  0  0
    5.3610    0.7300   20.2950 C   0  0  0  0  0  0  0  0  0  0  0  0
    4.6680    1.3940   19.2610 C   0  0  0  0  0  0  0  0  0  0  0  0
    5.1480    1.3670   17.9600 C   0  0  0  0  0  0  0  0  0  0  0  0
    6.3550    0.6370   17.7140 N   0  0  0  0  0  0  0  0  0  0  0  0
    6.9980   -0.0060   18.7520 C   0  0  0  0  0  0  0  0  0  0  0  0
    6.6000   -0.1930   27.0430 C   0  0  0  0  0  0  0  0  0  0  0  0
    5.2790    0.0870   27.6610 C   0  0  0  0  0  0  0  0  0  0  0  0
    5.1020    0.8850   28.7620 C   0  0  0  0  0  0  0  0  0  0  0  0
    6.3160    1.4450   29.2920 C   0  0  0  0  0  0  0  0  0  0  0  0
    7.5250    1.1370   28.6590 C   0  0  0  0  0  0  0  0  0  0  0  0
    7.7010    0.3510   27.5680 N   0  0  0  0  0  0  0  0  0  0  0  0
  2  1  1  1
  2  3  1  0
  3  4  1  0
  4  5  2  0
  4  6  1  0
  6  7  1  0
  7  8  1  0
  8  9  2  0
  8 10  1  0
 10 11  1  0
 11 12  2  0
 12 13  1  0
 13 14  2  0
 14 15  1  0
 11 16  1  0
 15 16  2  0
  2 17  1  0
 17 18  2  0
 18 19  1  0
 19 20  2  0
 20 21  1  0
 17 22  1  0
 21 22  2  0
M  END
