pyridine_urea_8431
     RDKit          3D

 22 24  0  0  0  0  0  0  0  0999 V2000
   13.2310   -2.7140   24.7490 C   0  0  0  0  0  0  0  0  0  0  0  0
   13.2520   -2.0160   23.5140 O   0  0  0  0  0  0  0  0  0  0  0  0
   12.3950   -0.9380   23.4750 C   0  0  0  0  0  0  0  0  0  0  0  0
   12.8530    0.4310   23.4470 C   0  0  0  0  0  0  0  0  0  0  0  0
   11.9850    1.4580   23.4370 C   0  0  0  0  0  0  0  0  0  0  0  0
   10.8380    0.8810   23.4490 C   0  0  0  0  0  0  0  0  0  0  0  0
   11.8510   -0.2780   23.4700 C   0  0  0  0  0  0  0  0  0  0  0  0
   12.7730   -0.3300   22.5280 C   0  0  0  0  0  0  0  0  0  0  0  0
   11.7760   -1.2460   22.0860 C   0  0  0  0  0  0  0  0  0  0  0  0
   10.2090   -0.2660   23.4650 C   0  0  0  0  0  0  0  0  0  0  0  0
   10.8750   -1.4950   23.4760 C   0  0  0  0  0  0  0  0  0  0  0  0
    9.4940   -1.6640   23.4700 C   0  0  0  0  0  0  0  0  0  0  0  0
    9.0370   -1.4320   22.0950 N   0  0  0  0  0  0  0  0  0  0  0  0
    8.3540   -0.4110   21.5090 C   0  0  0  0  0  0  0  0  0  0  0  0
    8.9020    0.8460   21.4140 O   0  0  0  0  0  0  0  0  0  0  0  0
    7.1130   -0.7260   21.0420 N   0  0  0  0  0  0  0  0  0  0  0  0
    6.3950   -0.0100   20.0680 C   0  0  0  0  0  0  0  0  0  0  0  0
    5.2200    0.7060   20.2850 C   0  0  0  0  0  0  0  0  0  0  0  0
    4.6170    1.3820   19.2240 C   0  0  0  0  0  0  0  0  0  0  0  0
    5.2310    1.3050   17.9860 C   0  0  0  0  0  0  0  0  0  0  0  0
    6.3550    0.6250   17.7320 N   0  0  0  0  0  0  0  0  0  0  0  0
    6.9050   -0.0160   18.7800 C   0  0  0  0  0  0  0  0  0  0  0  0
  1  2  1  0
  2  3  1  0
  3  4  2  0
  4  5  1  0
  5  6  2  0
  6  7  1  0
  7  8  1  0
  7  9  1  0
  8  9  1  0
  6 10  1  0
  3 11  1  0
 10 11  2  0
 11 12  1  0
 12 13  1  0
 13 14  1  0
 14 15  2  0
 14 16  1  0
 16 17  1  0
 17 18  2  0
 18 19  1  0
 19 20  2  0
 20 21  1  0
 17 22  1  0
 21 22  2  0
M  END
