pyridine_urea_6774
     RDKit          3D

 21 22  0  0  0  0  0  0  0  0999 V2000
   12.8570   -1.0060   23.5000 C   0  0  0  0  0  0  0  0  0  0  0  0
   11.8780   -0.8790   22.3210 C   0  0  0  0  0  0  0  0  0  0  0  0
   10.5150   -1.4930   22.6650 C   0  0  1  0  0  0  0  0  0  0  0  0
    9.8940   -0.7220   23.8020 C   0  0  0  0  0  0  0  0  0  0  0  0
    8.1750   -0.7920   23.6850 S   0  0  0  0  0  0  0  0  0  0  0  0
    7.7550    0.9380   23.2370 C   0  0  0  0  0  0  0  0  0  0  0  0
    6.4030    1.1900   23.0360 C   0  0  0  0  0  0  0  0  0  0  0  0
    5.9740    2.4820   22.6780 C   0  0  0  0  0  0  0  0  0  0  0  0
    6.8780    3.5520   22.5120 C   0  0  0  0  0  0  0  0  0  0  0  0
    8.2410    3.3570   22.7060 C   0  0  0  0  0  0  0  0  0  0  0  0
    8.7330    2.1180   23.0590 C   0  0  0  0  0  0  0  0  0  0  0  0
    9.5060   -1.4320   21.5430 N   0  0  0  0  0  0  0  0  0  0  0  0
    8.6150   -0.2890   21.3050 C   0  0  0  0  0  0  0  0  0  0  0  0
    9.0070    0.8640   21.3170 O   0  0  0  0  0  0  0  0  0  0  0  0
    7.3200   -0.6580   21.0440 N   0  0  0  0  0  0  0  0  0  0  0  0
    6.5830   -0.0130   20.0410 C   0  0  0  0  0  0  0  0  0  0  0  0
    5.3120    0.7600   20.3580 C   0  0  0  0  0  0  0  0  0  0  0  0
    4.6730    1.3750   19.3200 C   0  0  0  0  0  0  0  0  0  0  0  0
    5.1510    1.3040   18.0270 C   0  0  0  0  0  0  0  0  0  0  0  0
    6.2640    0.6210   17.7060 N   0  0  0  0  0  0  0  0  0  0  0  0
    6.9440   -0.0130   18.7070 C   0  0  0  0  0  0  0  0  0  0  0  0
  1  2  1  0
  3  2  1  6
  3  4  1  0
  4  5  1  0
  5  6  1  0
  6  7  2  0
  7  8  1  0
  8  9  2  0
  9 10  1  0
  6 11  1  0
 10 11  2  0
  3 12  1  0
 12 13  1  0
 13 14  2  0
 13 15  1  0
 15 16  1  0
 16 17  2  0
 17 18  1  0
 18 19  2  0
 19 20  1  0
 16 21  1  0
 20 21  2  0
M  END
