pyridine_urea_12011
     RDKit          3D

 24 26  0  0  0  0  0  0  0  0999 V2000
    8.8020    1.2270   21.1030 O   0  0  0  0  0  0  0  0  0  0  0  0
    8.3730    0.1310   21.4800 C   0  0  0  0  0  0  0  0  0  0  0  0
    8.8960   -0.6600   22.4470 N   0  0  0  0  0  0  0  0  0  0  0  0
    9.3020   -0.2260   23.7100 C   0  0  0  0  0  0  0  0  0  0  0  0
   10.6460    0.0110   23.9360 C   0  0  0  0  0  0  0  0  0  0  0  0
   11.3390    1.0120   23.2430 C   0  0  0  0  0  0  0  0  0  0  0  0
   10.8580    2.0690   22.7780 C   0  0  0  0  0  0  0  0  0  0  0  0
   12.2450    1.7700   22.6520 C   0  0  0  0  0  0  0  0  0  0  0  0
   11.9300    0.4690   23.3730 C   0  0  0  0  0  0  0  0  0  0  0  0
   12.1200   -0.7080   23.9230 N   0  0  0  0  0  0  0  0  0  0  0  0
   11.8930   -1.8250   24.6720 C   0  0  0  0  0  0  0  0  0  0  0  0
   11.1180   -2.7400   23.9640 C   0  0  0  0  0  0  0  0  0  0  0  0
   11.1320   -2.4280   22.5860 C   0  0  0  0  0  0  0  0  0  0  0  0
   12.4330   -2.2570   22.1270 C   0  0  0  0  0  0  0  0  0  0  0  0
   12.9440   -1.3250   22.9630 C   0  0  0  0  0  0  0  0  0  0  0  0
   13.4370    0.2030   23.1540 C   0  0  0  0  0  0  0  0  0  0  0  0
   12.6870    1.1690   22.8520 C   0  0  0  0  0  0  0  0  0  0  0  0
    7.2420   -0.4460   20.9680 N   0  0  0  0  0  0  0  0  0  0  0  0
    6.4730    0.1800   20.0070 C   0  0  0  0  0  0  0  0  0  0  0  0
    5.3170    0.9220   20.2300 C   0  0  0  0  0  0  0  0  0  0  0  0
    4.6260    1.5370   19.1980 C   0  0  0  0  0  0  0  0  0  0  0  0
    5.1420    1.3770   17.9210 C   0  0  0  0  0  0  0  0  0  0  0  0
    6.2310    0.6760   17.5990 N   0  0  0  0  0  0  0  0  0  0  0  0
    6.9040    0.0640   18.7080 C   0  0  0  0  0  0  0  0  0  0  0  0
  1  2  2  0
  2  3  1  0
  3  4  1  0
  4  5  1  0
  5  6  1  0
  6  7  2  0
  7  8  1  0
  8  9  2  0
  9 10  1  0
 10 11  1  0
 11 12  1  0
 12 13  1  0
 13 14  1  0
 10 15  1  0
 14 15  1  0
  9 16  1  0
  6 17  1  0
 16 17  2  0
  2 18  1  0
 18 19  1  0
 19 20  2  0
 20 21  1  0
 21 22  2  0
 22 23  1  0
 19 24  1  0
 23 24  2  0
M  END
