pyridine_urea_11617
     RDKit          3D

 18 19  0  0  0  0  0  0  0  0999 V2000
   10.8330   -2.4280   22.8730 C   0  0  0  0  0  0  0  0  0  0  0  0
   11.4350   -1.1000   22.5280 C   0  0  2  0  0  0  0  0  0  0  0  0
   12.8250   -1.0610   22.5360 C   0  0  0  0  0  0  0  0  0  0  0  0
   13.1930   -0.1740   23.4940 C   0  0  0  0  0  0  0  0  0  0  0  0
   12.0640    0.3580   24.0030 C   0  0  0  0  0  0  0  0  0  0  0  0
   10.9960    0.0640   23.1860 C   0  0  1  0  0  0  0  0  0  0  0  0
   10.1780    1.0940   22.7450 C   0  0  0  0  0  0  0  0  0  0  0  0
    9.5840   -0.0450   23.6420 C   0  0  0  0  0  0  0  0  0  0  0  0
    8.6620   -0.5420   22.6440 N   0  0  0  0  0  0  0  0  0  0  0  0
    8.1700    0.0340   21.5170 C   0  0  0  0  0  0  0  0  0  0  0  0
    8.7120    1.0860   21.1180 O   0  0  0  0  0  0  0  0  0  0  0  0
    7.1110   -0.5620   20.9340 N   0  0  0  0  0  0  0  0  0  0  0  0
    6.3650    0.0980   19.9720 C   0  0  0  0  0  0  0  0  0  0  0  0
    5.1600    0.7610   20.1830 C   0  0  0  0  0  0  0  0  0  0  0  0
    4.5450    1.3960   19.1110 C   0  0  0  0  0  0  0  0  0  0  0  0
    5.1580    1.3410   17.8770 C   0  0  0  0  0  0  0  0  0  0  0  0
    6.3140    0.6980   17.6570 N   0  0  0  0  0  0  0  0  0  0  0  0
    6.8800    0.0970   18.7040 C   0  0  0  0  0  0  0  0  0  0  0  0
  2  1  1  1
  2  3  1  0
  3  4  1  0
  4  5  1  0
  2  6  1  0
  5  6  1  0
  6  7  1  6
  6  8  1  0
  8  9  1  0
  9 10  1  0
 10 11  2  0
 10 12  1  0
 12 13  1  0
 13 14  2  0
 14 15  1  0
 15 16  2  0
 16 17  1  0
 13 18  1  0
 17 18  2  0
M  END
