pyridine_urea_10008
     RDKit          3D

 24 26  0  0  0  0  0  0  0  0999 V2000
    8.6520    3.4810   21.9580 C   0  0  0  0  0  0  0  0  0  0  0  0
    8.8350    2.4180   21.3720 O   0  0  0  0  0  0  0  0  0  0  0  0
    8.8760    1.3240   22.1990 C   0  0  0  0  0  0  0  0  0  0  0  0
    7.9910    1.3660   23.3080 C   0  0  0  0  0  0  0  0  0  0  0  0
    7.8610    0.3650   24.2980 C   0  0  0  0  0  0  0  0  0  0  0  0
    8.6220   -0.7960   24.2660 C   0  0  0  0  0  0  0  0  0  0  0  0
    7.9260   -1.0930   25.4210 N   0  0  0  0  0  0  0  0  0  0  0  0
    8.9260   -2.0460   24.8920 C   0  0  0  0  0  0  0  0  0  0  0  0
    9.6110   -1.5050   23.5690 C   0  0  0  0  0  0  0  0  0  0  0  0
   10.5760   -2.0090   22.7000 C   0  0  2  0  0  0  0  0  0  0  0  0
   11.7570   -1.4020   22.2470 C   0  0  0  0  0  0  0  0  0  0  0  0
    9.7430   -1.9950   21.5120 C   0  0  0  0  0  0  0  0  0  0  0  0
    8.4220   -1.7650   21.7850 N   0  0  0  0  0  0  0  0  0  0  0  0
    7.7520   -0.6820   21.2220 C   0  0  0  0  0  0  0  0  0  0  0  0
    8.2920    0.3840   20.9490 O   0  0  0  0  0  0  0  0  0  0  0  0
    6.4770   -0.9460   20.9990 N   0  0  0  0  0  0  0  0  0  0  0  0
    6.0690   -0.1310   19.8820 C   0  0  0  0  0  0  0  0  0  0  0  0
    4.9080    0.6400   20.0630 C   0  0  0  0  0  0  0  0  0  0  0  0
    4.4650    1.4570   19.0260 C   0  0  0  0  0  0  0  0  0  0  0  0
    5.1580    1.5120   17.8360 C   0  0  0  0  0  0  0  0  0  0  0  0
    6.2910    0.7610   17.6510 N   0  0  0  0  0  0  0  0  0  0  0  0
    6.7420   -0.0590   18.6780 C   0  0  0  0  0  0  0  0  0  0  0  0
    9.0590   -0.1460   23.1580 C   0  0  0  0  0  0  0  0  0  0  0  0
    9.7530    0.1130   22.0320 C   0  0  0  0  0  0  0  0  0  0  0  0
  1  2  1  0
  2  3  1  0
  3  4  2  0
  4  5  1  0
  5  6  2  0
  6  7  1  0
  7  8  1  0
  8  9  2  0
  9 10  1  0
 10 11  1  6
 10 12  1  0
 12 13  1  0
 13 14  1  0
 14 15  2  0
 14 16  1  0
 16 17  1  0
 17 18  2  0
 18 19  1  0
 19 20  2  0
 20 21  1  0
 17 22  1  0
 21 22  2  0
  6 23  1  0
  9 23  1  0
  3 24  1  0
 23 24  2  0
M  END
