pyridine_urea_7045
     RDKit          3D

 20 21  0  0  0  0  0  0  0  0999 V2000
   13.5750   -2.5400   23.6320 C   0  0  0  0  0  0  0  0  0  0  0  0
   13.5590   -1.6900   22.7550 O   0  0  0  0  0  0  0  0  0  0  0  0
   12.5650   -0.8000   22.8920 C   0  0  0  0  0  0  0  0  0  0  0  0
   12.8500    0.5040   23.2390 C   0  0  0  0  0  0  0  0  0  0  0  0
   11.8560    1.4570   23.4170 C   0  0  0  0  0  0  0  0  0  0  0  0
   10.5590    1.0520   23.2220 C   0  0  0  0  0  0  0  0  0  0  0  0
   10.2020   -0.2310   22.8590 C   0  0  0  0  0  0  0  0  0  0  0  0
    8.8120   -0.5600   22.6510 N   0  0  0  0  0  0  0  0  0  0  0  0
    8.2160    0.0730   21.5960 C   0  0  0  0  0  0  0  0  0  0  0  0
    8.7160    1.2710   21.0930 O   0  0  0  0  0  0  0  0  0  0  0  0
    7.0330   -0.6820   21.1490 N   0  0  0  0  0  0  0  0  0  0  0  0
    6.4270   -0.0040   20.0270 C   0  0  0  0  0  0  0  0  0  0  0  0
    5.2620    0.7390   20.2690 C   0  0  0  0  0  0  0  0  0  0  0  0
    4.6420    1.4230   19.2200 C   0  0  0  0  0  0  0  0  0  0  0  0
    5.1900    1.3610   17.9430 C   0  0  0  0  0  0  0  0  0  0  0  0
    6.2940    0.6680   17.6410 N   0  0  0  0  0  0  0  0  0  0  0  0
    6.9150   -0.0330   18.7490 C   0  0  0  0  0  0  0  0  0  0  0  0
   11.2600   -1.2270   22.6860 C   0  0  0  0  0  0  0  0  0  0  0  0
   10.8490   -2.5470   22.3290 O   0  0  0  0  0  0  0  0  0  0  0  0
    9.9050   -3.1040   23.2570 C   0  0  0  0  0  0  0  0  0  0  0  0
  1  2  1  0
  2  3  1  0
  3  4  2  0
  4  5  1  0
  5  6  2  0
  6  7  1  0
  7  8  1  0
  8  9  1  0
  9 10  2  0
  9 11  1  0
 11 12  1  0
 12 13  2  0
 13 14  1  0
 14 15  2  0
 15 16  1  0
 12 17  1  0
 16 17  2  0
  3 18  1  0
  7 18  2  0
 18 19  1  0
 19 20  1  0
M  END
