pyridine_urea_10657
     RDKit          3D

 21 22  0  0  0  0  0  0  0  0999 V2000
   10.4210   -4.5150   25.8920 C   0  0  0  0  0  0  0  0  0  0  0  0
    9.4090   -3.9930   25.1070 N   0  0  0  0  0  0  0  0  0  0  0  0
    9.6190   -2.8170   24.3290 C   0  0  0  0  0  0  0  0  0  0  0  0
   10.5910   -1.8090   24.6530 O   0  0  0  0  0  0  0  0  0  0  0  0
    8.8730   -2.4200   23.0220 C   0  0  0  0  0  0  0  0  0  0  0  0
    8.7890   -1.0420   22.8600 N   0  0  0  0  0  0  0  0  0  0  0  0
    8.4200   -0.2940   21.7140 C   0  0  0  0  0  0  0  0  0  0  0  0
    9.0590    0.6840   21.3500 O   0  0  0  0  0  0  0  0  0  0  0  0
    7.2750   -0.7570   21.0910 N   0  0  0  0  0  0  0  0  0  0  0  0
    6.5250   -0.0520   20.1200 C   0  0  0  0  0  0  0  0  0  0  0  0
    5.3500    0.6800   20.3720 C   0  0  0  0  0  0  0  0  0  0  0  0
    4.6820    1.3580   19.3300 C   0  0  0  0  0  0  0  0  0  0  0  0
    5.2110    1.2900   18.0430 C   0  0  0  0  0  0  0  0  0  0  0  0
    6.3360    0.5870   17.7840 N   0  0  0  0  0  0  0  0  0  0  0  0
    6.9840   -0.0790   18.8140 C   0  0  0  0  0  0  0  0  0  0  0  0
    8.1180   -4.5010   25.2290 C   0  0  0  0  0  0  0  0  0  0  0  0
    7.1180   -3.7610   25.8520 C   0  0  0  0  0  0  0  0  0  0  0  0
    5.9660   -4.5200   26.1990 C   0  0  0  0  0  0  0  0  0  0  0  0
    5.4530   -5.0380   24.8290 C   0  0  0  0  0  0  0  0  0  0  0  0
    6.3190   -4.8350   23.7550 C   0  0  0  0  0  0  0  0  0  0  0  0
    7.6800   -4.9870   24.0040 C   0  0  0  0  0  0  0  0  0  0  0  0
  1  2  1  0
  2  3  1  0
  3  4  2  0
  3  5  1  0
  5  6  1  0
  6  7  1  0
  7  8  2  0
  7  9  1  0
  9 10  1  0
 10 11  2  0
 11 12  1  0
 12 13  2  0
 13 14  1  0
 10 15  1  0
 14 15  2  0
  2 16  1  0
 16 17  1  0
 17 18  1  0
 18 19  1  0
 19 20  1  0
 16 21  1  0
 20 21  1  0
M  END
