pyridine_urea_6093
     RDKit          3D

 25 27  0  0  0  0  0  0  0  0999 V2000
    9.0410    0.7320   21.2330 O   0  0  0  0  0  0  0  0  0  0  0  0
    8.6720   -0.3770   21.5960 C   0  0  0  0  0  0  0  0  0  0  0  0
    7.3600   -0.8790   21.1400 N   0  0  0  0  0  0  0  0  0  0  0  0
    6.6520   -0.1600   20.1540 C   0  0  0  0  0  0  0  0  0  0  0  0
    5.5190    0.5850   20.4970 C   0  0  0  0  0  0  0  0  0  0  0  0
    4.8360    1.2890   19.4940 C   0  0  0  0  0  0  0  0  0  0  0  0
    5.3000    1.2320   18.1780 C   0  0  0  0  0  0  0  0  0  0  0  0
    6.3850    0.5210   17.8310 N   0  0  0  0  0  0  0  0  0  0  0  0
    7.0350   -0.1590   18.8160 C   0  0  0  0  0  0  0  0  0  0  0  0
    9.3580   -1.2820   22.4550 N   0  0  0  0  0  0  0  0  0  0  0  0
   10.8340   -1.1840   22.7610 C   0  0  2  0  0  0  0  0  0  0  0  0
   11.0490    0.3680   22.8810 C   0  0  0  0  0  0  0  0  0  0  0  0
   12.3200    0.9240   22.8610 C   0  0  0  0  0  0  0  0  0  0  0  0
   12.4840    2.3080   22.9350 C   0  0  0  0  0  0  0  0  0  0  0  0
   11.3910    3.1600   23.0380 C   0  0  0  0  0  0  0  0  0  0  0  0
   10.1210    2.6230   23.0710 C   0  0  0  0  0  0  0  0  0  0  0  0
    9.0590    3.4390   23.1780 F   0  0  0  0  0  0  0  0  0  0  0  0
    9.9420    1.2470   22.9960 C   0  0  0  0  0  0  0  0  0  0  0  0
   11.6800   -1.6480   21.7320 C   0  0  0  0  0  0  0  0  0  0  0  0
   12.5800   -0.8290   22.3120 C   0  0  0  0  0  0  0  0  0  0  0  0
   12.0020   -0.3800   23.4700 C   0  0  0  0  0  0  0  0  0  0  0  0
   10.6560   -0.8710   23.7800 C   0  0  0  0  0  0  0  0  0  0  0  0
    9.8640   -1.7770   22.9610 C   0  0  0  0  0  0  0  0  0  0  0  0
    8.1240   -2.3560   23.5020 Br  0  0  0  0  0  0  0  0  0  0  0  0
   10.4580   -2.2130   21.7710 C   0  0  0  0  0  0  0  0  0  0  0  0
  1  2  2  0
  2  3  1  0
  3  4  1  0
  4  5  2  0
  5  6  1  0
  6  7  2  0
  7  8  1  0
  4  9  1  0
  8  9  2  0
  2 10  1  0
 11 10  1  6
 11 12  1  0
 12 13  2  0
 13 14  1  0
 14 15  2  0
 15 16  1  0
 16 17  1  0
 12 18  1  0
 16 18  2  0
 11 19  1  0
 19 20  2  0
 20 21  1  0
 21 22  2  0
 22 23  1  0
 23 24  1  0
 19 25  1  0
 23 25  2  0
M  END
