pyridine_urea_9927
     RDKit          3D

 25 27  0  0  0  0  0  0  0  0999 V2000
   13.4900   -1.7820   25.6300 C   0  0  0  0  0  0  0  0  0  0  0  0
   12.8670   -0.4790   25.6710 O   0  0  0  0  0  0  0  0  0  0  0  0
   12.1890   -0.7050   24.5160 C   0  0  0  0  0  0  0  0  0  0  0  0
   13.0440   -0.6970   23.3710 C   0  0  0  0  0  0  0  0  0  0  0  0
   12.4600   -1.0310   22.0940 C   0  0  0  0  0  0  0  0  0  0  0  0
   10.9880   -1.4010   21.8100 C   0  0  0  0  0  0  0  0  0  0  0  0
    9.5280   -1.6970   21.9610 C   0  0  0  0  0  0  0  0  0  0  0  0
    8.8700   -1.0090   20.9160 N   0  0  0  0  0  0  0  0  0  0  0  0
    8.1860    0.1360   21.1050 C   0  0  0  0  0  0  0  0  0  0  0  0
    8.7010    1.2580   21.1530 O   0  0  0  0  0  0  0  0  0  0  0  0
    6.7890   -0.2020   21.1550 N   0  0  0  0  0  0  0  0  0  0  0  0
    6.1320    0.3570   20.0830 C   0  0  0  0  0  0  0  0  0  0  0  0
    4.9280    1.0370   20.1550 C   0  0  0  0  0  0  0  0  0  0  0  0
    4.4290    1.5600   18.9880 C   0  0  0  0  0  0  0  0  0  0  0  0
    5.1270    1.3960   17.8060 C   0  0  0  0  0  0  0  0  0  0  0  0
    6.2850    0.7320   17.7080 N   0  0  0  0  0  0  0  0  0  0  0  0
    6.7530    0.2290   18.8530 C   0  0  0  0  0  0  0  0  0  0  0  0
   10.4130   -1.2860   23.1010 C   0  0  0  0  0  0  0  0  0  0  0  0
   10.8890   -0.9750   24.3390 C   0  0  0  0  0  0  0  0  0  0  0  0
   10.0410   -1.0150   25.2110 O   0  0  0  0  0  0  0  0  0  0  0  0
    9.4280    0.1900   25.6350 C   0  0  0  0  0  0  0  0  0  0  0  0
    9.4410    1.1000   24.5860 C   0  0  0  0  0  0  0  0  0  0  0  0
    8.2660    1.7780   24.7170 C   0  0  0  0  0  0  0  0  0  0  0  0
    7.4860    1.0810   25.6370 C   0  0  0  0  0  0  0  0  0  0  0  0
    8.1070   -0.1240   25.9980 C   0  0  0  0  0  0  0  0  0  0  0  0
  1  2  1  0
  2  3  1  0
  3  4  2  0
  4  5  1  0
  5  6  2  0
  6  7  1  0
  7  8  1  0
  8  9  1  0
  9 10  2  0
  9 11  1  0
 11 12  1  0
 12 13  2  0
 13 14  1  0
 14 15  2  0
 15 16  1  0
 12 17  1  0
 16 17  2  0
  6 18  1  0
  3 19  1  0
 18 19  2  0
 19 20  1  0
 20 21  1  0
 21 22  1  0
 22 23  1  0
 23 24  1  0
 21 25  1  0
 24 25  1  0
M  END
