pyridine_urea_3247
     RDKit          3D

 20 20  0  0  0  0  0  0  0  0999 V2000
   13.3500   -1.0670   22.0820 C   0  0  0  0  0  0  0  0  0  0  0  0
   13.2660   -2.2790   22.9640 C   0  0  0  0  0  0  0  0  0  0  0  0
   12.7360   -2.2890   24.2530 C   0  0  0  0  0  0  0  0  0  0  0  0
   11.5000   -2.4010   24.1230 O   0  0  0  0  0  0  0  0  0  0  0  0
   11.1440   -1.7510   22.9520 C   0  0  0  0  0  0  0  0  0  0  0  0
   11.3650   -2.0980   21.7990 O   0  0  0  0  0  0  0  0  0  0  0  0
   10.4410   -0.5690   22.9230 C   0  0  1  0  0  0  0  0  0  0  0  0
    9.0810   -0.6180   22.5670 N   0  0  0  0  0  0  0  0  0  0  0  0
    8.4990    0.1370   21.5680 C   0  0  0  0  0  0  0  0  0  0  0  0
    8.8610    1.2570   21.1750 O   0  0  0  0  0  0  0  0  0  0  0  0
    7.3880   -0.4740   21.0060 N   0  0  0  0  0  0  0  0  0  0  0  0
    6.5690    0.1410   20.0570 C   0  0  0  0  0  0  0  0  0  0  0  0
    5.2860    0.9320   20.3010 C   0  0  0  0  0  0  0  0  0  0  0  0
    4.6310    1.4860   19.2250 C   0  0  0  0  0  0  0  0  0  0  0  0
    5.1370    1.3150   17.9590 C   0  0  0  0  0  0  0  0  0  0  0  0
    6.2560    0.6190   17.6700 N   0  0  0  0  0  0  0  0  0  0  0  0
    6.9130    0.0690   18.7190 C   0  0  0  0  0  0  0  0  0  0  0  0
   10.6810    0.2350   24.0430 C   0  0  0  0  0  0  0  0  0  0  0  0
    9.7630    1.2440   24.3540 C   0  0  0  0  0  0  0  0  0  0  0  0
   11.8350    0.9670   23.8480 C   0  0  0  0  0  0  0  0  0  0  0  0
  1  2  2  3
  2  3  1  0
  3  4  1  0
  4  5  1  0
  5  6  2  0
  5  7  1  0
  7  8  1  1
  8  9  1  0
  9 10  2  0
  9 11  1  0
 11 12  1  0
 12 13  2  0
 13 14  1  0
 14 15  2  0
 15 16  1  0
 12 17  1  0
 16 17  2  0
  7 18  1  0
 18 19  1  0
 18 20  1  0
M  END
