pyridine_urea_13663
     RDKit          3D

 25 26  0  0  0  0  0  0  0  0999 V2000
    8.7240    1.4330   20.9830 O   0  0  0  0  0  0  0  0  0  0  0  0
    8.1870    0.4470   21.5050 C   0  0  0  0  0  0  0  0  0  0  0  0
    8.4300   -0.0340   22.7310 N   0  0  0  0  0  0  0  0  0  0  0  0
    9.6550   -0.2710   23.2960 C   0  0  0  0  0  0  0  0  0  0  0  0
    9.7380   -1.3610   24.3600 C   0  0  0  0  0  0  0  0  0  0  0  0
    9.7870   -2.4750   23.8310 O   0  0  0  0  0  0  0  0  0  0  0  0
    8.9580   -2.5280   22.7760 C   0  0  0  0  0  0  0  0  0  0  0  0
    9.6720   -1.9550   21.5670 C   0  0  0  0  0  0  0  0  0  0  0  0
   10.5260   -1.0760   21.7590 O   0  0  0  0  0  0  0  0  0  0  0  0
   11.5140   -1.6400   22.6040 C   0  0  0  0  0  0  0  0  0  0  0  0
   11.2320   -1.6330   23.9390 C   0  0  0  0  0  0  0  0  0  0  0  0
   12.0850   -2.1640   24.8580 C   0  0  0  0  0  0  0  0  0  0  0  0
   13.2570   -2.7310   24.5230 C   0  0  0  0  0  0  0  0  0  0  0  0
   13.6250   -2.7780   23.2300 C   0  0  0  0  0  0  0  0  0  0  0  0
   12.8460   -2.2530   22.1800 C   0  0  0  0  0  0  0  0  0  0  0  0
   13.1980   -2.2600   20.8680 N   0  0  0  0  0  0  0  0  0  0  0  0
   13.5130   -1.1410   20.4490 O   0  0  0  0  0  0  0  0  0  0  0  0
   13.7600   -3.2700   20.4550 O   0  0  0  0  0  0  0  0  0  0  0  0
    7.2190   -0.3110   20.9080 N   0  0  0  0  0  0  0  0  0  0  0  0
    6.4860    0.2430   19.9620 C   0  0  0  0  0  0  0  0  0  0  0  0
    5.2750    1.1190   20.1890 C   0  0  0  0  0  0  0  0  0  0  0  0
    4.6250    1.6590   19.1210 C   0  0  0  0  0  0  0  0  0  0  0  0
    5.0840    1.4010   17.8460 C   0  0  0  0  0  0  0  0  0  0  0  0
    6.1280    0.6350   17.5120 N   0  0  0  0  0  0  0  0  0  0  0  0
    6.8350    0.0430   18.6520 C   0  0  0  0  0  0  0  0  0  0  0  0
  1  2  2  0
  2  3  1  0
  3  4  1  0
  4  5  1  0
  5  6  1  0
  6  7  1  0
  7  8  1  0
  8  9  1  0
  9 10  1  0
 10 11  2  0
 11 12  1  0
 12 13  2  0
 13 14  1  0
 10 15  1  0
 14 15  2  0
 15 16  1  0
 16 17  2  0
 16 18  1  0
  2 19  1  0
 19 20  1  0
 20 21  2  0
 21 22  1  0
 22 23  2  0
 23 24  1  0
 20 25  1  0
 24 25  2  0
M  CHG  2  16   1  18  -1
M  END
