pyridine_urea_1108
     RDKit          3D

 21 22  0  0  0  0  0  0  0  0999 V2000
    8.4390   -0.1950   26.2730 C   0  0  0  0  0  0  0  0  0  0  0  0
    8.5740   -0.2270   24.8520 O   0  0  0  0  0  0  0  0  0  0  0  0
    9.3760    0.7570   24.3580 C   0  0  0  0  0  0  0  0  0  0  0  0
    9.2070    1.9300   24.6610 O   0  0  0  0  0  0  0  0  0  0  0  0
   10.4010    0.3590   23.4870 C   0  0  1  0  0  0  0  0  0  0  0  0
   11.6420    0.6850   24.0210 C   0  0  0  0  0  0  0  0  0  0  0  0
   12.6180    0.5170   23.0480 C   0  0  0  0  0  0  0  0  0  0  0  0
   12.8200   -0.8530   22.4740 C   0  0  0  0  0  0  0  0  0  0  0  0
   11.4620   -1.5230   22.2520 C   0  0  0  0  0  0  0  0  0  0  0  0
   10.3370   -1.0030   23.1590 C   0  0  1  0  0  0  0  0  0  0  0  0
   10.1580   -1.8620   24.2360 C   0  0  0  0  0  0  0  0  0  0  0  0
    9.0490   -1.1620   22.4610 N   0  0  0  0  0  0  0  0  0  0  0  0
    8.5090   -0.2230   21.5680 C   0  0  0  0  0  0  0  0  0  0  0  0
    8.9740    0.8800   21.3210 O   0  0  0  0  0  0  0  0  0  0  0  0
    7.3310   -0.7010   20.9920 N   0  0  0  0  0  0  0  0  0  0  0  0
    6.5390   -0.0120   20.0930 C   0  0  0  0  0  0  0  0  0  0  0  0
    5.3890    0.7100   20.4080 C   0  0  0  0  0  0  0  0  0  0  0  0
    4.7400    1.3440   19.3610 C   0  0  0  0  0  0  0  0  0  0  0  0
    5.2060    1.2650   18.0680 C   0  0  0  0  0  0  0  0  0  0  0  0
    6.2970    0.5780   17.7240 N   0  0  0  0  0  0  0  0  0  0  0  0
    6.9160   -0.0320   18.7560 C   0  0  0  0  0  0  0  0  0  0  0  0
  1  2  1  0
  2  3  1  0
  3  4  2  0
  5  3  1  1
  5  6  1  0
  6  7  1  0
  7  8  1  0
  8  9  1  0
  5 10  1  0
  9 10  1  0
 10 11  1  1
 10 12  1  0
 12 13  1  0
 13 14  2  0
 13 15  1  0
 15 16  1  0
 16 17  2  0
 17 18  1  0
 18 19  2  0
 19 20  1  0
 16 21  1  0
 20 21  2  0
M  END
