pyridine_urea_10362
     RDKit          3D

 22 23  0  0  0  0  0  0  0  0999 V2000
    9.7980   -0.4720   25.9130 C   0  0  0  0  0  0  0  0  0  0  0  0
   10.7570   -0.7340   24.7420 C   0  0  0  0  0  0  0  0  0  0  0  0
   12.1340   -0.1470   25.0360 C   0  0  0  0  0  0  0  0  0  0  0  0
   12.8280   -0.4870   23.7160 C   0  0  0  0  0  0  0  0  0  0  0  0
   12.5220   -1.1480   22.4340 C   0  0  0  0  0  0  0  0  0  0  0  0
   11.6080   -1.7630   21.7250 C   0  0  1  0  0  0  0  0  0  0  0  0
   11.7070   -2.9050   22.0910 O   0  0  0  0  0  0  0  0  0  0  0  0
   10.3780   -1.2010   22.2120 C   0  0  1  0  0  0  0  0  0  0  0  0
   10.4280    0.1540   22.6610 C   0  0  0  0  0  0  0  0  0  0  0  0
    9.2710   -1.2900   21.2780 N   0  0  0  0  0  0  0  0  0  0  0  0
    8.4000   -0.2250   21.2700 C   0  0  0  0  0  0  0  0  0  0  0  0
    8.7440    0.9380   21.4450 O   0  0  0  0  0  0  0  0  0  0  0  0
    7.1190   -0.6240   20.9980 N   0  0  0  0  0  0  0  0  0  0  0  0
    6.3880    0.0520   20.0260 C   0  0  0  0  0  0  0  0  0  0  0  0
    5.1770    0.7610   20.2420 C   0  0  0  0  0  0  0  0  0  0  0  0
    4.4620    1.4660   19.2200 C   0  0  0  0  0  0  0  0  0  0  0  0
    5.1660    1.3640   17.8750 C   0  0  0  0  0  0  0  0  0  0  0  0
    6.3150    0.6730   17.7030 N   0  0  0  0  0  0  0  0  0  0  0  0
    6.9130    0.0260   18.7590 C   0  0  0  0  0  0  0  0  0  0  0  0
   11.0410   -1.6450   22.4930 C   0  0  0  0  0  0  0  0  0  0  0  0
   10.2120   -1.4740   23.5320 C   0  0  0  0  0  0  0  0  0  0  0  0
    8.9340   -1.9130   23.5430 F   0  0  0  0  0  0  0  0  0  0  0  0
  1  2  1  0
  2  3  2  0
  3  4  1  0
  4  5  2  0
  5  6  1  0
  6  7  1  1
  6  8  1  0
  8  9  1  6
  8 10  1  0
 10 11  1  0
 11 12  2  0
 11 13  1  0
 13 14  1  0
 14 15  2  0
 15 16  1  0
 16 17  2  0
 17 18  1  0
 14 19  1  0
 18 19  2  0
  5 20  1  0
  2 21  1  0
 20 21  2  0
 21 22  1  0
M  END
