pyridine_urea_8624
     RDKit          3D

 21 23  0  0  0  0  0  0  0  0999 V2000
    8.7600    1.3960   21.1280 O   0  0  0  0  0  0  0  0  0  0  0  0
    8.4870    0.1950   21.1980 C   0  0  0  0  0  0  0  0  0  0  0  0
    7.2570   -0.3550   21.0080 N   0  0  0  0  0  0  0  0  0  0  0  0
    6.5020    0.1840   19.9880 C   0  0  0  0  0  0  0  0  0  0  0  0
    5.3300    0.8700   20.2830 C   0  0  0  0  0  0  0  0  0  0  0  0
    4.6000    1.4370   19.2440 C   0  0  0  0  0  0  0  0  0  0  0  0
    5.0850    1.2840   17.9640 C   0  0  0  0  0  0  0  0  0  0  0  0
    6.2020    0.6160   17.6630 N   0  0  0  0  0  0  0  0  0  0  0  0
    6.8840    0.0810   18.6790 C   0  0  0  0  0  0  0  0  0  0  0  0
    9.4630   -0.7220   21.4380 N   0  0  0  0  0  0  0  0  0  0  0  0
   10.0320   -0.5850   22.7090 C   0  0  0  0  0  0  0  0  0  0  0  0
    9.0020   -0.8130   23.8000 C   0  0  0  0  0  0  0  0  0  0  0  0
    8.0310   -1.7560   23.5240 C   0  0  0  0  0  0  0  0  0  0  0  0
    6.6810   -1.5470   23.3100 C   0  0  0  0  0  0  0  0  0  0  0  0
    5.8900   -2.6780   23.0640 C   0  0  0  0  0  0  0  0  0  0  0  0
    6.4910   -3.9560   23.0470 C   0  0  0  0  0  0  0  0  0  0  0  0
    7.8670   -4.0820   23.2740 C   0  0  0  0  0  0  0  0  0  0  0  0
    8.6310   -2.9510   23.5090 C   0  0  0  0  0  0  0  0  0  0  0  0
   10.5040   -2.9640   23.8230 Br  0  0  0  0  0  0  0  0  0  0  0  0
   11.4370   -0.1890   22.9100 C   0  0  0  0  0  0  0  0  0  0  0  0
   11.3620   -1.4180   22.9390 C   0  0  0  0  0  0  0  0  0  0  0  0
  1  2  2  0
  2  3  1  0
  3  4  1  0
  4  5  2  0
  5  6  1  0
  6  7  2  0
  7  8  1  0
  4  9  1  0
  8  9  2  0
  2 10  1  0
 11 10  1  0
 11 12  1  0
 12 13  1  0
 13 14  2  0
 14 15  1  0
 15 16  2  0
 16 17  1  0
 13 18  1  0
 17 18  2  0
 18 19  1  0
 11 20  1  0
 11 21  1  0
 20 21  1  0
M  END
