pyridine_urea_11114
     RDKit          3D

 18 18  0  0  0  0  0  0  0  0999 V2000
   13.2400   -1.9520   20.9840 C   0  0  0  0  0  0  0  0  0  0  0  0
   13.3720   -1.6700   22.3140 N   0  0  0  0  0  0  0  0  0  0  0  0
   13.2470   -0.3120   22.8130 C   0  0  0  0  0  0  0  0  0  0  0  0
   14.2190    0.6890   22.5620 O   0  0  0  0  0  0  0  0  0  0  0  0
   12.0630    0.0410   23.6060 N   0  0  0  0  0  0  0  0  0  0  0  0
   10.9970    0.4370   22.9050 C   0  0  0  0  0  0  0  0  0  0  0  0
   10.6480   -0.8050   22.1990 C   0  0  0  0  0  0  0  0  0  0  0  0
    9.7180   -1.5580   22.8450 C   0  0  0  0  0  0  0  0  0  0  0  0
    8.5490   -1.5890   22.1490 N   0  0  0  0  0  0  0  0  0  0  0  0
    8.1660   -0.5120   21.5240 C   0  0  0  0  0  0  0  0  0  0  0  0
    8.8790    0.6500   21.4460 O   0  0  0  0  0  0  0  0  0  0  0  0
    6.9260   -0.7520   20.9880 N   0  0  0  0  0  0  0  0  0  0  0  0
    6.2370    0.0180   20.0450 C   0  0  0  0  0  0  0  0  0  0  0  0
    5.0780    0.6290   20.3720 C   0  0  0  0  0  0  0  0  0  0  0  0
    4.6370    1.3520   19.1290 C   0  0  0  0  0  0  0  0  0  0  0  0
    5.2920    1.3780   17.9210 C   0  0  0  0  0  0  0  0  0  0  0  0
    6.4080    0.7830   17.6230 N   0  0  0  0  0  0  0  0  0  0  0  0
    6.8050    0.1130   18.7800 C   0  0  0  0  0  0  0  0  0  0  0  0
  1  2  1  0
  2  3  1  0
  3  4  2  0
  3  5  1  0
  5  6  1  0
  6  7  1  0
  7  8  1  0
  8  9  1  0
  9 10  1  0
 10 11  2  0
 10 12  1  0
 12 13  1  0
 13 14  2  0
 14 15  1  0
 15 16  2  0
 16 17  1  0
 13 18  1  0
 17 18  2  0
M  END
