pyridine_urea_238
     RDKit          3D

 18 19  0  0  0  0  0  0  0  0999 V2000
   10.5250   -0.1560   24.9700 C   0  0  0  0  0  0  0  0  0  0  0  0
   10.6250   -0.5250   23.8720 C   0  0  1  0  0  0  0  0  0  0  0  0
   10.4950   -0.7030   22.3820 C   0  0  2  0  0  0  0  0  0  0  0  0
    9.1460   -1.2320   22.0890 N   0  0  0  0  0  0  0  0  0  0  0  0
    8.3430   -0.1600   21.4220 C   0  0  0  0  0  0  0  0  0  0  0  0
    8.8460    1.1530   21.1030 O   0  0  0  0  0  0  0  0  0  0  0  0
    7.0640   -0.6400   21.1920 N   0  0  0  0  0  0  0  0  0  0  0  0
    6.5960   -0.0700   20.0960 C   0  0  0  0  0  0  0  0  0  0  0  0
    5.3390    0.7600   20.3730 C   0  0  0  0  0  0  0  0  0  0  0  0
    4.6940    1.4610   19.2430 C   0  0  0  0  0  0  0  0  0  0  0  0
    5.2710    1.3150   18.0390 C   0  0  0  0  0  0  0  0  0  0  0  0
    6.3850    0.5790   17.7820 N   0  0  0  0  0  0  0  0  0  0  0  0
    7.0140   -0.0920   18.7890 C   0  0  0  0  0  0  0  0  0  0  0  0
   11.6410   -1.6510   21.9590 C   0  0  0  0  0  0  0  0  0  0  0  0
   12.8230   -1.1540   22.5030 C   0  0  0  0  0  0  0  0  0  0  0  0
   12.4080   -0.1680   23.8270 S   0  0  0  0  0  0  0  0  0  0  0  0
   12.5880    1.2190   23.4520 O   0  0  0  0  0  0  0  0  0  0  0  0
   13.0110   -0.7310   25.0160 O   0  0  0  0  0  0  0  0  0  0  0  0
  2  1  1  6
  2  3  1  0
  3  4  1  1
  4  5  1  0
  5  6  2  0
  5  7  1  0
  7  8  1  0
  8  9  2  0
  9 10  1  0
 10 11  2  0
 11 12  1  0
  8 13  1  0
 12 13  2  0
  3 14  1  0
 14 15  1  0
  2 16  1  0
 16 15  1  0
 16 17  2  0
 16 18  2  0
M  END
