pyridine_urea_6911
     RDKit          3D

 20 21  0  0  0  0  0  0  0  0999 V2000
    8.8700    1.1430   21.2070 O   0  0  0  0  0  0  0  0  0  0  0  0
    8.4000    0.0300   21.4880 C   0  0  0  0  0  0  0  0  0  0  0  0
    9.0350   -0.8970   22.2930 N   0  0  0  0  0  0  0  0  0  0  0  0
   10.3840   -1.2450   22.0930 C   0  0  0  0  0  0  0  0  0  0  0  0
   11.2440   -1.7440   23.0560 C   0  0  1  0  0  0  0  0  0  0  0  0
   12.0080   -2.5640   22.5390 O   0  0  0  0  0  0  0  0  0  0  0  0
   11.9110   -0.7500   23.7810 C   0  0  0  0  0  0  0  0  0  0  0  0
   13.2800   -0.7450   23.6010 C   0  0  0  0  0  0  0  0  0  0  0  0
   12.7340    0.1980   22.8890 C   0  0  0  0  0  0  0  0  0  0  0  0
   11.2030    0.4300   22.8920 C   0  0  0  0  0  0  0  0  0  0  0  0
   10.8740   -0.6770   23.8510 C   0  0  0  0  0  0  0  0  0  0  0  0
   11.6700   -1.6820   24.5810 C   0  0  0  0  0  0  0  0  0  0  0  0
   13.0270   -1.7200   24.4420 C   0  0  0  0  0  0  0  0  0  0  0  0
    7.1920   -0.4560   21.0560 N   0  0  0  0  0  0  0  0  0  0  0  0
    6.4310    0.1580   20.0630 C   0  0  0  0  0  0  0  0  0  0  0  0
    5.1640    0.9100   20.2790 C   0  0  0  0  0  0  0  0  0  0  0  0
    4.5770    1.4700   19.1500 C   0  0  0  0  0  0  0  0  0  0  0  0
    5.1740    1.3110   17.9140 C   0  0  0  0  0  0  0  0  0  0  0  0
    6.3050    0.6330   17.6910 N   0  0  0  0  0  0  0  0  0  0  0  0
    6.9010    0.0740   18.7590 C   0  0  0  0  0  0  0  0  0  0  0  0
  1  2  2  0
  2  3  1  0
  3  4  1  0
  4  5  1  0
  5  6  1  6
  5  7  1  0
  7  8  1  0
  8  9  2  0
  9 10  1  0
 10 11  2  0
 11 12  1  0
  8 13  1  0
 12 13  2  0
  2 14  1  0
 14 15  1  0
 15 16  2  0
 16 17  1  0
 17 18  2  0
 18 19  1  0
 15 20  1  0
 19 20  2  0
M  END
