pyridine_urea_60
     RDKit          3D

 20 21  0  0  0  0  0  0  0  0999 V2000
   11.9650   -2.5940   21.4440 C   0  0  0  0  0  0  0  0  0  0  0  0
   11.2690   -1.6860   21.8000 C   0  0  0  0  0  0  0  0  0  0  0  0
   10.4380   -0.4730   22.1790 C   0  0  2  0  0  0  0  0  0  0  0  0
   10.8920    0.0430   23.4480 C   0  0  0  0  0  0  0  0  0  0  0  0
   12.2080   -0.2220   23.7270 C   0  0  0  0  0  0  0  0  0  0  0  0
   12.6440   -1.4300   24.5970 C   0  0  0  0  0  0  0  0  0  0  0  0
   13.1580   -2.5680   23.8580 C   0  0  0  0  0  0  0  0  0  0  0  0
   13.8200   -2.1080   22.7110 O   0  0  0  0  0  0  0  0  0  0  0  0
   13.1020   -1.2110   21.8910 C   0  0  0  0  0  0  0  0  0  0  0  0
   12.9510    0.0660   22.6250 C   0  0  0  0  0  0  0  0  0  0  0  0
    9.0400   -0.8710   22.2450 N   0  0  0  0  0  0  0  0  0  0  0  0
    8.2890   -0.0350   21.4610 C   0  0  0  0  0  0  0  0  0  0  0  0
    8.7530    1.2880   21.1460 O   0  0  0  0  0  0  0  0  0  0  0  0
    7.1200   -0.5800   21.0240 N   0  0  0  0  0  0  0  0  0  0  0  0
    6.4490    0.0260   19.9680 C   0  0  0  0  0  0  0  0  0  0  0  0
    5.2830    0.7170   20.2250 C   0  0  0  0  0  0  0  0  0  0  0  0
    4.3570    1.4940   19.2790 C   0  0  0  0  0  0  0  0  0  0  0  0
    5.1330    1.2600   17.9890 C   0  0  0  0  0  0  0  0  0  0  0  0
    6.2600    0.5850   17.7280 N   0  0  0  0  0  0  0  0  0  0  0  0
    6.8960   -0.0190   18.7060 C   0  0  0  0  0  0  0  0  0  0  0  0
  1  2  3  0
  3  2  1  1
  3  4  1  0
  4  5  1  0
  5  6  1  0
  6  7  1  0
  7  8  1  0
  8  9  1  0
  5 10  1  0
  9 10  1  0
  3 11  1  0
 11 12  1  0
 12 13  2  0
 12 14  1  0
 14 15  1  0
 15 16  2  0
 16 17  1  0
 17 18  2  0
 18 19  1  0
 15 20  1  0
 19 20  2  0
M  END
