pyridine_urea_3470
     RDKit          3D

 19 20  0  0  0  0  0  0  0  0999 V2000
   12.0470    4.4360   22.5990 C   0  0  0  0  0  0  0  0  0  0  0  0
   12.4920    2.9790   22.7800 C   0  0  0  0  0  0  0  0  0  0  0  0
   11.3530    2.1660   23.3790 C   0  0  0  0  0  0  0  0  0  0  0  0
   11.7070    0.9820   23.9380 N   0  0  0  0  0  0  0  0  0  0  0  0
   12.8170    0.3710   23.4770 C   0  0  0  0  0  0  0  0  0  0  0  0
   12.7560   -0.9020   22.6400 C   0  0  0  0  0  0  0  0  0  0  0  0
   11.3690   -1.5510   22.5860 C   0  0  0  0  0  0  0  0  0  0  0  0
   10.3640   -0.4000   22.5090 C   0  0  1  0  0  0  0  0  0  0  0  0
    9.0050   -0.8220   22.2530 N   0  0  0  0  0  0  0  0  0  0  0  0
    8.2650    0.0530   21.4420 C   0  0  0  0  0  0  0  0  0  0  0  0
    8.7260    1.1390   21.0630 O   0  0  0  0  0  0  0  0  0  0  0  0
    7.0420   -0.4320   21.1580 N   0  0  0  0  0  0  0  0  0  0  0  0
    6.4680    0.1050   20.0630 C   0  0  0  0  0  0  0  0  0  0  0  0
    5.3340    0.8680   20.2690 C   0  0  0  0  0  0  0  0  0  0  0  0
    4.6770    1.4790   19.2390 C   0  0  0  0  0  0  0  0  0  0  0  0
    5.1580    1.3300   17.9740 C   0  0  0  0  0  0  0  0  0  0  0  0
    6.2640    0.5870   17.6850 N   0  0  0  0  0  0  0  0  0  0  0  0
    6.9900   -0.0870   18.7780 C   0  0  0  0  0  0  0  0  0  0  0  0
   10.6130    0.0270   23.9550 C   0  0  0  0  0  0  0  0  0  0  0  0
  1  2  3  0
  2  3  1  0
  3  4  1  0
  4  5  1  0
  5  6  1  0
  6  7  1  0
  7  8  1  0
  8  9  1  1
  9 10  1  0
 10 11  2  0
 10 12  1  0
 12 13  1  0
 13 14  2  0
 14 15  1  0
 15 16  2  0
 16 17  1  0
 13 18  1  0
 17 18  2  0
  4 19  1  0
  8 19  1  0
M  END
