pyridine_urea_1735
     RDKit          3D

 18 19  0  0  0  0  0  0  0  0999 V2000
    8.9510    0.9940   21.6090 O   0  0  0  0  0  0  0  0  0  0  0  0
    8.5140   -0.1260   21.4030 C   0  0  0  0  0  0  0  0  0  0  0  0
    7.2090   -0.4540   21.1190 N   0  0  0  0  0  0  0  0  0  0  0  0
    6.5080    0.1250   20.0540 C   0  0  0  0  0  0  0  0  0  0  0  0
    5.3380    0.8420   20.3150 C   0  0  0  0  0  0  0  0  0  0  0  0
    4.6400    1.4390   19.2660 C   0  0  0  0  0  0  0  0  0  0  0  0
    5.1450    1.2950   17.9920 C   0  0  0  0  0  0  0  0  0  0  0  0
    6.2580    0.6080   17.7120 N   0  0  0  0  0  0  0  0  0  0  0  0
    6.9130    0.0380   18.7410 C   0  0  0  0  0  0  0  0  0  0  0  0
    9.3210   -1.2240   21.3930 N   0  0  0  0  0  0  0  0  0  0  0  0
   10.1350   -1.6290   22.5260 C   0  0  2  0  0  0  0  0  0  0  0  0
    9.9790   -0.6950   23.7160 C   0  0  0  0  0  0  0  0  0  0  0  0
   10.6880   -1.2590   24.8190 O   0  0  0  0  0  0  0  0  0  0  0  0
   11.5940   -1.8380   22.1410 C   0  0  0  0  0  0  0  0  0  0  0  0
   12.1210   -0.7750   22.5110 C   0  0  0  0  0  0  0  0  0  0  0  0
   11.7230    0.3100   23.0600 C   0  0  0  0  0  0  0  0  0  0  0  0
   13.3480    0.5070   22.8490 S   0  0  0  0  0  0  0  0  0  0  0  0
   13.1020   -1.1790   22.1410 C   0  0  0  0  0  0  0  0  0  0  0  0
  1  2  2  0
  2  3  1  0
  3  4  1  0
  4  5  2  0
  5  6  1  0
  6  7  2  0
  7  8  1  0
  4  9  1  0
  8  9  2  0
  2 10  1  0
 10 11  1  0
 11 12  1  1
 12 13  1  0
 11 14  1  0
 14 15  1  0
 15 16  2  0
 16 17  1  0
 14 18  2  0
 17 18  1  0
M  END
