pyridine_urea_14256
     RDKit          3D

 22 24  0  0  0  0  0  0  0  0999 V2000
   11.4320   -1.5330   24.4620 C   0  0  0  0  0  0  0  0  0  0  0  0
   10.0710   -1.5410   23.8220 C   0  0  0  0  0  0  0  0  0  0  0  0
   10.0130   -0.7180   22.7410 C   0  0  2  0  0  0  0  0  0  0  0  0
    9.1160   -1.2240   21.7040 N   0  0  0  0  0  0  0  0  0  0  0  0
    8.1880   -0.3800   21.2620 C   0  0  0  0  0  0  0  0  0  0  0  0
    8.5420    0.7890   21.1280 O   0  0  0  0  0  0  0  0  0  0  0  0
    6.8710   -0.8690   20.9580 N   0  0  0  0  0  0  0  0  0  0  0  0
    6.2960   -0.1330   19.9690 C   0  0  0  0  0  0  0  0  0  0  0  0
    5.0220    0.6280   20.2620 C   0  0  0  0  0  0  0  0  0  0  0  0
    4.4090    1.4610   19.1410 C   0  0  0  0  0  0  0  0  0  0  0  0
    5.1510    1.4460   17.8190 C   0  0  0  0  0  0  0  0  0  0  0  0
    6.2880    0.7120   17.6840 N   0  0  0  0  0  0  0  0  0  0  0  0
    6.8430   -0.0470   18.7080 C   0  0  0  0  0  0  0  0  0  0  0  0
   11.3480   -0.5680   22.7160 C   0  0  0  0  0  0  0  0  0  0  0  0
   12.7130   -0.1930   22.7040 C   0  0  0  0  0  0  0  0  0  0  0  0
   13.5810    0.9170   22.7430 C   0  0  0  0  0  0  0  0  0  0  0  0
   12.7680    2.0480   22.8140 C   0  0  0  0  0  0  0  0  0  0  0  0
   11.4580    2.1210   22.8370 C   0  0  0  0  0  0  0  0  0  0  0  0
   10.5660    3.1810   22.8980 C   0  0  0  0  0  0  0  0  0  0  0  0
    9.3270    2.6150   22.8960 C   0  0  0  0  0  0  0  0  0  0  0  0
    9.4180    1.2870   22.8380 N   0  0  0  0  0  0  0  0  0  0  0  0
   10.7390    0.8200   22.7910 C   0  0  0  0  0  0  0  0  0  0  0  0
  1  2  1  0
  3  2  1  1
  3  4  1  0
  4  5  1  0
  5  6  2  0
  5  7  1  0
  7  8  1  0
  8  9  2  0
  9 10  1  0
 10 11  2  0
 11 12  1  0
  8 13  1  0
 12 13  2  0
  3 14  1  0
 14 15  2  0
 15 16  1  0
 16 17  2  0
 17 18  1  0
 18 19  1  0
 19 20  2  0
 20 21  1  0
 14 22  1  0
 18 22  2  0
 21 22  1  0
M  END
