pyridine_urea_457
     RDKit          3D

 25 25  0  0  0  0  0  0  0  0999 V2000
    7.5270   -0.1950   30.6310 C   0  0  0  0  0  0  0  0  0  0  0  0
    7.7530   -0.9670   29.3450 C   0  0  0  0  0  0  0  0  0  0  0  0
    6.7060   -1.7540   28.8640 C   0  0  0  0  0  0  0  0  0  0  0  0
    6.2010   -1.4870   27.5880 C   0  0  0  0  0  0  0  0  0  0  0  0
    6.0020   -2.5800   26.7580 C   0  0  0  0  0  0  0  0  0  0  0  0
    6.3770   -2.4920   25.4070 C   0  0  0  0  0  0  0  0  0  0  0  0
    7.5160   -1.5310   24.9710 C   0  0  0  0  0  0  0  0  0  0  0  0
    8.4310   -1.9150   23.9780 C   0  0  0  0  0  0  0  0  0  0  0  0
    9.6000   -1.5830   24.2600 O   0  0  0  0  0  0  0  0  0  0  0  0
   10.0030   -0.2920   24.0040 C   0  0  0  0  0  0  0  0  0  0  0  0
    9.2410   -0.0120   25.1850 O   0  0  0  0  0  0  0  0  0  0  0  0
   10.5190   -1.1550   23.0400 C   0  0  1  0  0  0  0  0  0  0  0  0
    9.7250   -1.0950   21.8160 N   0  0  0  0  0  0  0  0  0  0  0  0
    8.7700   -0.0160   21.5210 C   0  0  0  0  0  0  0  0  0  0  0  0
    9.0960    1.1600   21.5440 O   0  0  0  0  0  0  0  0  0  0  0  0
    7.4750   -0.4780   21.1790 N   0  0  0  0  0  0  0  0  0  0  0  0
    6.7440    0.0460   20.0240 C   0  0  0  0  0  0  0  0  0  0  0  0
    5.6330    0.8110   20.4310 C   0  0  0  0  0  0  0  0  0  0  0  0
    4.8140    1.4190   19.4550 C   0  0  0  0  0  0  0  0  0  0  0  0
    5.1330    1.2430   18.1090 C   0  0  0  0  0  0  0  0  0  0  0  0
    6.2080    0.4940   17.7440 N   0  0  0  0  0  0  0  0  0  0  0  0
    7.0160   -0.1110   18.6960 C   0  0  0  0  0  0  0  0  0  0  0  0
   11.9190   -1.0960   22.8040 C   0  0  0  0  0  0  0  0  0  0  0  0
   12.5710    0.1220   22.8380 C   0  0  0  0  0  0  0  0  0  0  0  0
   12.2980   -1.9780   21.7690 C   0  0  0  0  0  0  0  0  0  0  0  0
  1  2  1  0
  2  3  1  0
  3  4  1  0
  4  5  1  0
  5  6  1  0
  6  7  1  0
  7  8  1  0
  8  9  1  0
  9 10  1  0
 10 11  2  0
 10 12  1  0
 12 13  1  6
 13 14  1  0
 14 15  2  0
 14 16  1  0
 16 17  1  0
 17 18  2  0
 18 19  1  0
 19 20  2  0
 20 21  1  0
 17 22  1  0
 21 22  2  0
 12 23  1  0
 23 24  1  0
 23 25  1  0
M  END
