pyridine_urea_8563
     RDKit          3D

 21 23  0  0  0  0  0  0  0  0999 V2000
    8.7470    1.6260   21.2030 O   0  0  0  0  0  0  0  0  0  0  0  0
    8.4780    0.4300   21.2320 C   0  0  0  0  0  0  0  0  0  0  0  0
    7.2450   -0.1250   21.0950 N   0  0  0  0  0  0  0  0  0  0  0  0
    6.4990    0.3150   20.0250 C   0  0  0  0  0  0  0  0  0  0  0  0
    5.3210    1.0160   20.2590 C   0  0  0  0  0  0  0  0  0  0  0  0
    4.5940    1.4920   19.1770 C   0  0  0  0  0  0  0  0  0  0  0  0
    5.0890    1.2420   17.9160 C   0  0  0  0  0  0  0  0  0  0  0  0
    6.2070    0.5620   17.6700 N   0  0  0  0  0  0  0  0  0  0  0  0
    6.8890    0.1110   18.7260 C   0  0  0  0  0  0  0  0  0  0  0  0
    9.4500   -0.4920   21.3580 N   0  0  0  0  0  0  0  0  0  0  0  0
   10.1950   -0.5220   22.5420 C   0  0  0  0  0  0  0  0  0  0  0  0
    9.7510    0.2710   23.7380 C   0  0  0  0  0  0  0  0  0  0  0  0
   10.4840    0.1840   24.8810 C   0  0  0  0  0  0  0  0  0  0  0  0
   11.6050   -0.6300   24.9470 C   0  0  0  0  0  0  0  0  0  0  0  0
   12.0470   -1.3800   23.8860 C   0  0  0  0  0  0  0  0  0  0  0  0
   13.1210   -2.2110   24.0200 C   0  0  0  0  0  0  0  0  0  0  0  0
   13.9430   -2.4720   25.6530 Br  0  0  0  0  0  0  0  0  0  0  0  0
   13.5850   -2.8930   22.9620 C   0  0  0  0  0  0  0  0  0  0  0  0
   12.9760   -2.8030   21.7530 C   0  0  0  0  0  0  0  0  0  0  0  0
   11.8670   -2.0410   21.5890 C   0  0  0  0  0  0  0  0  0  0  0  0
   11.4300   -1.3480   22.6800 C   0  0  0  0  0  0  0  0  0  0  0  0
  1  2  2  0
  2  3  1  0
  3  4  1  0
  4  5  2  0
  5  6  1  0
  6  7  2  0
  7  8  1  0
  4  9  1  0
  8  9  2  0
  2 10  1  0
 10 11  1  0
 11 12  2  0
 12 13  1  0
 13 14  2  0
 14 15  1  0
 15 16  1  0
 16 17  1  0
 16 18  2  0
 18 19  1  0
 19 20  2  0
 11 21  1  0
 15 21  2  0
 20 21  1  0
M  END
