pyridine_urea_14117
     RDKit          3D

 23 25  0  0  0  0  0  0  0  0999 V2000
    7.3790   -1.8190   19.9540 C   0  0  0  0  0  0  0  0  0  0  0  0
    7.8920   -2.2630   20.9500 C   0  0  0  0  0  0  0  0  0  0  0  0
    8.1330   -3.1900   22.1620 C   0  0  0  0  0  0  0  0  0  0  0  0
    9.2620   -2.8050   22.9460 C   0  0  0  0  0  0  0  0  0  0  0  0
    9.8530   -3.2670   24.0640 C   0  0  0  0  0  0  0  0  0  0  0  0
    9.7310   -1.7030   22.2950 N   0  0  0  0  0  0  0  0  0  0  0  0
   10.7480   -0.8750   22.5750 C   0  0  0  0  0  0  0  0  0  0  0  0
   12.1780   -1.1770   22.6510 C   0  0  0  0  0  0  0  0  0  0  0  0
   13.1270   -0.2680   22.9470 C   0  0  0  0  0  0  0  0  0  0  0  0
   12.4980    1.0930   23.1710 C   0  0  0  0  0  0  0  0  0  0  0  0
   11.1590    1.3190   23.0820 C   0  0  0  0  0  0  0  0  0  0  0  0
   10.2960    0.3410   22.7970 C   0  0  0  0  0  0  0  0  0  0  0  0
    8.9470    0.5220   22.7170 N   0  0  0  0  0  0  0  0  0  0  0  0
    8.2760    0.8800   21.5520 C   0  0  0  0  0  0  0  0  0  0  0  0
    8.6440    1.7970   20.8510 O   0  0  0  0  0  0  0  0  0  0  0  0
    7.1820    0.1150   21.3120 N   0  0  0  0  0  0  0  0  0  0  0  0
    6.4720    0.5290   20.2440 C   0  0  0  0  0  0  0  0  0  0  0  0
    5.2010    1.2860   20.3260 C   0  0  0  0  0  0  0  0  0  0  0  0
    4.5150    1.7170   19.0750 C   0  0  0  0  0  0  0  0  0  0  0  0
    5.1190    1.3760   17.8710 C   0  0  0  0  0  0  0  0  0  0  0  0
    6.2540    0.6830   17.7290 N   0  0  0  0  0  0  0  0  0  0  0  0
    6.9250    0.2600   18.9510 C   0  0  0  0  0  0  0  0  0  0  0  0
    9.0020   -1.3880   21.1940 N   0  0  0  0  0  0  0  0  0  0  0  0
  1  2  1  0
  2  3  1  0
  3  4  2  0
  4  5  1  0
  4  6  1  0
  6  7  1  0
  7  8  2  0
  8  9  1  0
  9 10  2  0
 10 11  1  0
  7 12  1  0
 11 12  2  0
 12 13  1  0
 13 14  1  0
 14 15  2  0
 14 16  1  0
 16 17  1  0
 17 18  2  0
 18 19  1  0
 19 20  2  0
 20 21  1  0
 17 22  1  0
 21 22  2  0
  2 23  2  0
  6 23  1  0
M  END
