pyridine_urea_13856
     RDKit          3D

 24 25  0  0  0  0  0  0  0  0999 V2000
   13.5020   -2.7920   24.9710 C   0  0  0  0  0  0  0  0  0  0  0  0
   12.2860   -2.0860   24.7500 O   0  0  0  0  0  0  0  0  0  0  0  0
   12.4770   -0.8940   23.9820 C   0  0  0  0  0  0  0  0  0  0  0  0
   13.6580   -1.1360   23.9840 O   0  0  0  0  0  0  0  0  0  0  0  0
   10.9770   -0.9910   24.2270 C   0  0  0  0  0  0  0  0  0  0  0  0
   10.3230   -0.8410   22.9390 C   0  0  1  0  0  0  0  0  0  0  0  0
   10.9380   -1.3900   21.8600 C   0  0  0  0  0  0  0  0  0  0  0  0
    8.8790   -0.9480   22.7520 N   0  0  0  0  0  0  0  0  0  0  0  0
    8.3240   -0.2020   21.7000 C   0  0  0  0  0  0  0  0  0  0  0  0
    8.8260    0.8510   21.3390 O   0  0  0  0  0  0  0  0  0  0  0  0
    7.1900   -0.7410   21.1220 N   0  0  0  0  0  0  0  0  0  0  0  0
    6.4030   -0.0410   20.1670 C   0  0  0  0  0  0  0  0  0  0  0  0
    5.2340    0.5870   20.5200 C   0  0  0  0  0  0  0  0  0  0  0  0
    4.6730    1.2420   19.2630 C   0  0  0  0  0  0  0  0  0  0  0  0
    5.2810    1.1740   18.0360 C   0  0  0  0  0  0  0  0  0  0  0  0
    6.4050    0.5420   17.7940 N   0  0  0  0  0  0  0  0  0  0  0  0
    6.9240   -0.0470   18.8710 C   0  0  0  0  0  0  0  0  0  0  0  0
   10.4030    0.6980   23.1370 C   0  0  0  0  0  0  0  0  0  0  0  0
    9.2890    1.5770   23.4750 C   0  0  0  0  0  0  0  0  0  0  0  0
   10.3980    2.7200   23.3370 C   0  0  0  0  0  0  0  0  0  0  0  0
   11.9680    2.6780   23.0050 C   0  0  0  0  0  0  0  0  0  0  0  0
   12.8780    4.3410   22.8860 Br  0  0  0  0  0  0  0  0  0  0  0  0
   12.6380    1.4310   22.7900 C   0  0  0  0  0  0  0  0  0  0  0  0
   11.3810    1.5600   23.0480 C   0  0  0  0  0  0  0  0  0  0  0  0
  1  2  1  0
  2  3  1  0
  3  4  2  0
  3  5  1  0
  5  6  1  0
  6  7  1  6
  6  8  1  0
  8  9  1  0
  9 10  2  0
  9 11  1  0
 11 12  1  0
 12 13  2  0
 13 14  1  0
 14 15  2  0
 15 16  1  0
 12 17  1  0
 16 17  2  0
  6 18  1  0
 18 19  2  0
 19 20  1  0
 20 21  2  0
 21 22  1  0
 21 23  1  0
 18 24  1  0
 23 24  2  0
M  END
