pyridine_urea_9325
     RDKit          3D

 17 18  0  0  0  0  0  0  0  0999 V2000
    8.9230    0.7370   21.5900 O   0  0  0  0  0  0  0  0  0  0  0  0
    8.4440   -0.3820   21.4510 C   0  0  0  0  0  0  0  0  0  0  0  0
    9.1310   -1.5610   21.5880 N   0  0  0  0  0  0  0  0  0  0  0  0
   10.1250   -1.8120   22.5460 C   0  0  0  0  0  0  0  0  0  0  0  0
   11.2010   -0.9830   22.3860 C   0  0  0  0  0  0  0  0  0  0  0  0
   12.4510   -1.4230   22.3020 C   0  0  0  0  0  0  0  0  0  0  0  0
   12.6570   -0.5720   23.2950 C   0  0  0  0  0  0  0  0  0  0  0  0
   13.2370   -1.1040   24.3780 F   0  0  0  0  0  0  0  0  0  0  0  0
   13.5400    0.3330   22.8330 F   0  0  0  0  0  0  0  0  0  0  0  0
   11.3590    0.0250   23.5280 C   0  0  0  0  0  0  0  0  0  0  0  0
    7.1400   -0.6330   21.1000 N   0  0  0  0  0  0  0  0  0  0  0  0
    6.5000   -0.0130   20.0750 C   0  0  0  0  0  0  0  0  0  0  0  0
    5.2090    0.7760   20.3470 C   0  0  0  0  0  0  0  0  0  0  0  0
    4.6080    1.3980   19.2690 C   0  0  0  0  0  0  0  0  0  0  0  0
    5.1820    1.2930   18.0040 C   0  0  0  0  0  0  0  0  0  0  0  0
    6.3090    0.6010   17.7480 N   0  0  0  0  0  0  0  0  0  0  0  0
    6.9360   -0.0310   18.7640 C   0  0  0  0  0  0  0  0  0  0  0  0
  1  2  2  0
  2  3  1  0
  3  4  1  0
  4  5  1  0
  5  6  1  0
  6  7  1  0
  7  8  1  0
  7  9  1  0
  5 10  1  0
  7 10  1  0
  2 11  1  0
 11 12  1  0
 12 13  2  0
 13 14  1  0
 14 15  2  0
 15 16  1  0
 12 17  1  0
 16 17  2  0
M  END
