pyridine_urea_2641
     RDKit          3D

 23 24  0  0  0  0  0  0  0  0999 V2000
   13.3460   -2.5160   23.5710 C   0  0  0  0  0  0  0  0  0  0  0  0
   12.3270   -2.2270   24.6560 C   0  0  0  0  0  0  0  0  0  0  0  0
   11.1690   -3.0990   24.5010 N   0  0  0  0  0  0  0  0  0  0  0  0
   10.1520   -2.8880   23.5840 C   0  0  0  0  0  0  0  0  0  0  0  0
    8.9870   -3.2040   23.7970 O   0  0  0  0  0  0  0  0  0  0  0  0
   10.6630   -2.2980   22.4580 N   0  0  0  0  0  0  0  0  0  0  0  0
   11.1280   -0.9620   22.5930 C   0  0  0  0  0  0  0  0  0  0  0  0
   12.4340   -0.6120   22.6260 C   0  0  0  0  0  0  0  0  0  0  0  0
   12.7800    0.6860   22.7940 C   0  0  0  0  0  0  0  0  0  0  0  0
   14.0440    1.0060   22.8000 F   0  0  0  0  0  0  0  0  0  0  0  0
   11.8700    1.6970   22.9490 C   0  0  0  0  0  0  0  0  0  0  0  0
   10.4130    1.2790   22.8870 C   0  0  0  0  0  0  0  0  0  0  0  0
   10.0890   -0.0590   22.7020 C   0  0  0  0  0  0  0  0  0  0  0  0
    8.8270   -0.4710   22.6170 N   0  0  0  0  0  0  0  0  0  0  0  0
    8.2600    0.1480   21.5570 C   0  0  0  0  0  0  0  0  0  0  0  0
    8.6690    1.2240   21.0960 O   0  0  0  0  0  0  0  0  0  0  0  0
    7.1200   -0.5830   21.0390 N   0  0  0  0  0  0  0  0  0  0  0  0
    6.4160    0.0560   20.0620 C   0  0  0  0  0  0  0  0  0  0  0  0
    5.2330    0.7570   20.2160 C   0  0  0  0  0  0  0  0  0  0  0  0
    4.5830    1.3990   19.1730 C   0  0  0  0  0  0  0  0  0  0  0  0
    5.1800    1.3120   17.9240 C   0  0  0  0  0  0  0  0  0  0  0  0
    6.3260    0.6350   17.7180 N   0  0  0  0  0  0  0  0  0  0  0  0
    6.9090    0.0300   18.7710 C   0  0  0  0  0  0  0  0  0  0  0  0
  1  2  1  0
  2  3  1  0
  3  4  1  0
  4  5  2  0
  4  6  1  0
  6  7  1  0
  7  8  2  0
  8  9  1  0
  9 10  1  0
  9 11  2  0
 11 12  1  0
  7 13  1  0
 12 13  2  0
 13 14  1  0
 14 15  1  0
 15 16  2  0
 15 17  1  0
 17 18  1  0
 18 19  2  0
 19 20  1  0
 20 21  2  0
 21 22  1  0
 18 23  1  0
 22 23  2  0
M  END
