pyridine_urea_13521
     RDKit          3D

 19 19  0  0  0  0  0  0  0  0999 V2000
    9.4700    0.2940   25.9530 C   0  0  0  0  0  0  0  0  0  0  0  0
   10.5270    0.1950   24.8300 C   0  0  0  0  0  0  0  0  0  0  0  0
   10.4910    1.4730   23.9660 C   0  0  0  0  0  0  0  0  0  0  0  0
   10.1940   -1.0680   24.0570 C   0  0  0  0  0  0  0  0  0  0  0  0
   10.3920   -0.9910   22.6030 C   0  0  0  0  0  0  0  0  0  0  0  0
   11.5600   -1.6020   22.1980 C   0  0  0  0  0  0  0  0  0  0  0  0
   12.7380   -1.1170   22.7830 C   0  0  0  0  0  0  0  0  0  0  0  0
   12.8750    0.2500   23.0930 C   0  0  0  0  0  0  0  0  0  0  0  0
   13.1140   -1.6180   24.2490 C   0  0  0  0  0  0  0  0  0  0  0  0
    9.3940   -1.2500   21.5910 N   0  0  0  0  0  0  0  0  0  0  0  0
    8.5170   -0.2210   21.3280 C   0  0  0  0  0  0  0  0  0  0  0  0
    8.8590    0.9520   21.3910 O   0  0  0  0  0  0  0  0  0  0  0  0
    7.2640   -0.6700   20.9760 N   0  0  0  0  0  0  0  0  0  0  0  0
    6.4510    0.0180   20.0650 C   0  0  0  0  0  0  0  0  0  0  0  0
    5.2280    0.6740   20.4120 C   0  0  0  0  0  0  0  0  0  0  0  0
    4.5880    1.3520   19.1890 C   0  0  0  0  0  0  0  0  0  0  0  0
    5.1900    1.2830   17.9540 C   0  0  0  0  0  0  0  0  0  0  0  0
    6.3310    0.6380   17.7290 N   0  0  0  0  0  0  0  0  0  0  0  0
    6.9140    0.0370   18.7660 C   0  0  0  0  0  0  0  0  0  0  0  0
  1  2  1  0
  2  3  1  0
  2  4  1  0
  4  5  1  0
  5  6  1  0
  6  7  1  0
  7  8  1  0
  7  9  1  0
  5 10  1  0
 10 11  1  0
 11 12  2  0
 11 13  1  0
 13 14  1  0
 14 15  2  0
 15 16  1  0
 16 17  2  0
 17 18  1  0
 14 19  1  0
 18 19  2  0
M  END
