pyridine_urea_11477
     RDKit          3D

 21 21  0  0  0  0  0  0  0  0999 V2000
    9.6120   -2.4660   21.7270 C   0  0  0  0  0  0  0  0  0  0  0  0
   10.6650   -2.4240   22.5830 N   0  0  0  0  0  0  0  0  0  0  0  0
   11.0210   -1.3170   23.3280 C   0  0  2  0  0  0  0  0  0  0  0  0
   10.1300   -0.2430   23.2780 C   0  0  0  0  0  0  0  0  0  0  0  0
    8.9050   -0.4680   22.6940 N   0  0  0  0  0  0  0  0  0  0  0  0
    8.3940    0.2370   21.5820 C   0  0  0  0  0  0  0  0  0  0  0  0
    8.8900    1.3030   21.1990 O   0  0  0  0  0  0  0  0  0  0  0  0
    7.3110   -0.4080   21.0360 N   0  0  0  0  0  0  0  0  0  0  0  0
    6.5030    0.1860   20.0680 C   0  0  0  0  0  0  0  0  0  0  0  0
    5.3160    0.8710   20.3160 C   0  0  0  0  0  0  0  0  0  0  0  0
    4.5680    1.4600   19.3200 C   0  0  0  0  0  0  0  0  0  0  0  0
    5.1520    1.3010   17.9210 C   0  0  0  0  0  0  0  0  0  0  0  0
    6.3000    0.6240   17.6920 N   0  0  0  0  0  0  0  0  0  0  0  0
    6.9240    0.0970   18.7480 C   0  0  0  0  0  0  0  0  0  0  0  0
   12.4400   -0.9280   22.8990 C   0  0  0  0  0  0  0  0  0  0  0  0
   12.6700   -1.4110   21.6750 F   0  0  0  0  0  0  0  0  0  0  0  0
   13.2540   -1.6380   23.7090 F   0  0  0  0  0  0  0  0  0  0  0  0
   12.6450    0.3990   23.1680 C   0  0  0  0  0  0  0  0  0  0  0  0
   12.5140    0.5750   24.4780 F   0  0  0  0  0  0  0  0  0  0  0  0
   11.7460    1.2320   22.6120 F   0  0  0  0  0  0  0  0  0  0  0  0
   13.8420    0.8130   22.7620 F   0  0  0  0  0  0  0  0  0  0  0  0
  1  2  1  0
  2  3  1  0
  3  4  1  6
  4  5  1  0
  5  6  1  0
  6  7  2  0
  6  8  1  0
  8  9  1  0
  9 10  2  0
 10 11  1  0
 11 12  2  0
 12 13  1  0
  9 14  1  0
 13 14  2  0
  3 15  1  0
 15 16  1  0
 15 17  1  0
 15 18  1  0
 18 19  1  0
 18 20  1  0
 18 21  1  0
M  END
