pyridine_urea_261
     RDKit          3D

 27 29  0  0  0  0  0  0  0  0999 V2000
   18.5610    3.4760   25.1270 C   0  0  0  0  0  0  0  0  0  0  0  0
   17.4290    3.6450   24.4510 C   0  0  0  0  0  0  0  0  0  0  0  0
   15.8480    4.5710   24.3210 O   0  0  0  0  0  0  0  0  0  0  0  0
   14.3450    4.8510   23.4100 C   0  0  0  0  0  0  0  0  0  0  0  0
   14.1400    5.8930   22.7760 O   0  0  0  0  0  0  0  0  0  0  0  0
   13.2710    3.8440   23.2110 C   0  0  0  0  0  0  0  0  0  0  0  0
   13.6080    2.7460   22.6870 C   0  0  0  0  0  0  0  0  0  0  0  0
   12.7250    1.7070   22.5480 C   0  0  0  0  0  0  0  0  0  0  0  0
   11.6340    2.3630   23.0830 N   0  0  0  0  0  0  0  0  0  0  0  0
   10.6680    1.5360   23.0980 C   0  0  0  0  0  0  0  0  0  0  0  0
    9.4370    1.8330   23.3700 C   0  0  0  0  0  0  0  0  0  0  0  0
    9.0210    0.4900   23.2360 C   0  0  0  0  0  0  0  0  0  0  0  0
    9.3360   -0.7660   22.9750 C   0  0  0  0  0  0  0  0  0  0  0  0
   10.6210   -1.1940   22.6610 C   0  0  0  0  0  0  0  0  0  0  0  0
    9.7390   -2.1920   22.6520 C   0  0  0  0  0  0  0  0  0  0  0  0
    8.9400   -1.8840   21.5670 N   0  0  0  0  0  0  0  0  0  0  0  0
    8.2560   -0.6700   21.2700 C   0  0  0  0  0  0  0  0  0  0  0  0
    8.8710    0.6100   21.2240 O   0  0  0  0  0  0  0  0  0  0  0  0
    6.9540   -0.9130   21.0360 N   0  0  0  0  0  0  0  0  0  0  0  0
    6.3490   -0.1550   20.0840 C   0  0  0  0  0  0  0  0  0  0  0  0
    5.0910    0.6500   20.2780 C   0  0  0  0  0  0  0  0  0  0  0  0
    4.6020    1.3760   19.1900 C   0  0  0  0  0  0  0  0  0  0  0  0
    5.2920    1.3240   17.9890 C   0  0  0  0  0  0  0  0  0  0  0  0
    6.4170    0.6150   17.7800 N   0  0  0  0  0  0  0  0  0  0  0  0
    6.9130   -0.1000   18.8160 C   0  0  0  0  0  0  0  0  0  0  0  0
   11.2070    0.0970   22.7690 C   0  0  0  0  0  0  0  0  0  0  0  0
   11.8990    3.7040   23.4790 N   0  0  0  0  0  0  0  0  0  0  0  0
  1  2  1  0
  2  3  1  0
  3  4  1  0
  4  5  2  0
  4  6  1  0
  6  7  1  0
  7  8  2  0
  8  9  1  0
  9 10  1  0
 10 11  2  0
 11 12  1  0
 12 13  2  0
 13 14  1  0
 14 15  1  0
 15 16  1  0
 16 17  1  0
 17 18  2  0
 17 19  1  0
 19 20  1  0
 20 21  2  0
 21 22  1  0
 22 23  2  0
 23 24  1  0
 20 25  1  0
 24 25  2  0
 10 26  1  0
 14 26  2  0
  6 27  2  0
  9 27  1  0
M  END
