pyridine_urea_2972
     RDKit          3D

 21 23  0  0  0  0  0  0  0  0999 V2000
    8.5940    1.5450   20.8160 O   0  0  0  0  0  0  0  0  0  0  0  0
    8.1410    0.6070   21.4510 C   0  0  0  0  0  0  0  0  0  0  0  0
    7.2360   -0.3060   20.9820 N   0  0  0  0  0  0  0  0  0  0  0  0
    6.4700    0.2600   19.9330 C   0  0  0  0  0  0  0  0  0  0  0  0
    5.1600    1.0190   20.2770 C   0  0  0  0  0  0  0  0  0  0  0  0
    4.4820    1.5770   19.2150 C   0  0  0  0  0  0  0  0  0  0  0  0
    5.1070    1.3770   17.8340 C   0  0  0  0  0  0  0  0  0  0  0  0
    6.2420    0.6900   17.6000 N   0  0  0  0  0  0  0  0  0  0  0  0
    6.8850    0.1570   18.6400 C   0  0  0  0  0  0  0  0  0  0  0  0
    8.4550    0.3420   22.7040 N   0  0  0  0  0  0  0  0  0  0  0  0
    9.7000   -0.3020   22.8480 C   0  0  0  0  0  0  0  0  0  0  0  0
   10.2120   -0.9760   21.6040 C   0  0  0  0  0  0  0  0  0  0  0  0
   11.5420   -1.7120   21.7260 C   0  0  0  0  0  0  0  0  0  0  0  0
   12.1050   -1.6480   23.1000 C   0  0  0  0  0  0  0  0  0  0  0  0
   13.3640   -2.3960   23.4040 C   0  0  0  0  0  0  0  0  0  0  0  0
   13.8090   -2.1630   24.8050 C   0  0  0  0  0  0  0  0  0  0  0  0
   13.1850   -1.3460   25.6140 N   0  0  0  0  0  0  0  0  0  0  0  0
   11.9720   -0.9320   25.2910 C   0  0  0  0  0  0  0  0  0  0  0  0
   10.9150   -0.4690   26.0220 O   0  0  0  0  0  0  0  0  0  0  0  0
   11.4880   -0.9670   24.1020 C   0  0  0  0  0  0  0  0  0  0  0  0
   10.3440   -0.3180   23.9820 C   0  0  0  0  0  0  0  0  0  0  0  0
  1  2  2  0
  2  3  1  0
  3  4  1  0
  4  5  2  0
  5  6  1  0
  6  7  2  0
  7  8  1  0
  4  9  1  0
  8  9  2  0
  2 10  1  0
 10 11  1  0
 11 12  2  0
 12 13  1  0
 13 14  2  0
 14 15  1  0
 15 16  2  0
 16 17  1  0
 17 18  1  0
 18 19  2  0
 14 20  1  0
 18 20  1  0
 11 21  1  0
 20 21  2  0
M  END
