pyridine_urea_5549
     RDKit          3D

 17 17  0  0  0  0  0  0  0  0999 V2000
    9.8910    0.1850   24.0510 C   0  0  0  0  0  0  0  0  0  0  0  0
   10.0220   -1.1870   23.4050 C   0  0  2  0  0  0  0  0  0  0  0  0
   11.2700   -1.0540   22.4990 C   0  0  0  0  0  0  0  0  0  0  0  0
   12.5010   -0.9450   23.1120 C   0  0  0  0  0  0  0  0  0  0  0  0
   12.3890   -0.4030   24.5350 C   0  0  0  0  0  0  0  0  0  0  0  0
   13.2930   -0.1120   22.3390 C   0  0  0  0  0  0  0  0  0  0  0  0
   13.1800   -2.1350   23.2950 C   0  0  0  0  0  0  0  0  0  0  0  0
    8.9250   -1.3510   22.4590 N   0  0  0  0  0  0  0  0  0  0  0  0
    8.4390   -0.2450   21.6370 C   0  0  0  0  0  0  0  0  0  0  0  0
    8.9940    0.7970   21.3410 O   0  0  0  0  0  0  0  0  0  0  0  0
    7.1020   -0.6100   21.2100 N   0  0  0  0  0  0  0  0  0  0  0  0
    6.5170   -0.0060   20.1220 C   0  0  0  0  0  0  0  0  0  0  0  0
    5.2460    0.8020   20.4090 C   0  0  0  0  0  0  0  0  0  0  0  0
    4.5560    1.5090   19.2510 C   0  0  0  0  0  0  0  0  0  0  0  0
    5.2210    1.3350   17.9100 C   0  0  0  0  0  0  0  0  0  0  0  0
    6.3640    0.5810   17.7560 N   0  0  0  0  0  0  0  0  0  0  0  0
    6.9960   -0.0760   18.8210 C   0  0  0  0  0  0  0  0  0  0  0  0
  2  1  1  6
  2  3  1  0
  4  3  1  0
  4  5  1  0
  4  6  1  0
  4  7  1  0
  2  8  1  0
  8  9  1  0
  9 10  2  0
  9 11  1  0
 11 12  1  0
 12 13  2  0
 13 14  1  0
 14 15  2  0
 15 16  1  0
 12 17  1  0
 16 17  2  0
M  END
