pyridine_urea_12421
     RDKit          3D

 22 23  0  0  0  0  0  0  0  0999 V2000
    5.2310   -2.3120   22.5440 C   0  0  0  0  0  0  0  0  0  0  0  0
    5.7340   -3.1780   23.4960 N   0  0  0  0  0  0  0  0  0  0  0  0
    6.3800   -2.6480   24.6860 C   0  0  0  0  0  0  0  0  0  0  0  0
    7.7420   -2.0470   24.1990 C   0  0  0  0  0  0  0  0  0  0  0  0
    8.5420   -2.7970   23.3320 C   0  0  0  0  0  0  0  0  0  0  0  0
    9.3180   -1.8920   22.3650 C   0  0  0  0  0  0  0  0  0  0  0  0
    9.3300   -0.5500   22.5030 N   0  0  0  0  0  0  0  0  0  0  0  0
    8.6750    0.1950   21.5720 C   0  0  0  0  0  0  0  0  0  0  0  0
    9.0580    1.3220   21.2430 O   0  0  0  0  0  0  0  0  0  0  0  0
    7.5550   -0.4460   21.0840 N   0  0  0  0  0  0  0  0  0  0  0  0
    6.7160    0.1350   20.0480 C   0  0  0  0  0  0  0  0  0  0  0  0
    5.4940    0.9430   20.5370 C   0  0  0  0  0  0  0  0  0  0  0  0
    4.6910    1.5410   19.3720 C   0  0  0  0  0  0  0  0  0  0  0  0
    5.1600    1.2850   17.9600 C   0  0  0  0  0  0  0  0  0  0  0  0
    6.2620    0.5320   17.7080 N   0  0  0  0  0  0  0  0  0  0  0  0
    7.0270   -0.0350   18.7100 C   0  0  0  0  0  0  0  0  0  0  0  0
    4.9900   -4.3220   23.5180 C   0  0  0  0  0  0  0  0  0  0  0  0
    5.7060   -5.4890   23.2990 C   0  0  0  0  0  0  0  0  0  0  0  0
    5.0690   -6.7140   23.2960 C   0  0  0  0  0  0  0  0  0  0  0  0
    3.6990   -6.8380   23.5100 C   0  0  0  0  0  0  0  0  0  0  0  0
    2.9130   -5.7180   23.7380 C   0  0  0  0  0  0  0  0  0  0  0  0
    3.4810   -4.4340   23.7580 C   0  0  0  0  0  0  0  0  0  0  0  0
  1  2  1  0
  2  3  1  0
  3  4  1  0
  4  5  1  0
  5  6  1  0
  6  7  1  0
  7  8  1  0
  8  9  2  0
  8 10  1  0
 10 11  1  0
 11 12  2  0
 12 13  1  0
 13 14  2  0
 14 15  1  0
 11 16  1  0
 15 16  2  0
  2 17  1  0
 17 18  2  0
 18 19  1  0
 19 20  2  0
 20 21  1  0
 17 22  1  0
 21 22  2  0
M  END
