pyridine_urea_1666
     RDKit          3D

 18 19  0  0  0  0  0  0  0  0999 V2000
   13.6000   -1.7790   20.7570 C   0  0  0  0  0  0  0  0  0  0  0  0
   13.7800   -1.1860   22.0140 O   0  0  0  0  0  0  0  0  0  0  0  0
   12.5220   -1.1720   22.3490 C   0  0  0  0  0  0  0  0  0  0  0  0
   11.8120   -0.2290   22.7960 C   0  0  0  0  0  0  0  0  0  0  0  0
   10.5570   -0.4090   23.0390 C   0  0  0  0  0  0  0  0  0  0  0  0
    9.5800    0.3750   23.4820 C   0  0  0  0  0  0  0  0  0  0  0  0
    8.3940   -0.1100   22.8510 N   0  0  0  0  0  0  0  0  0  0  0  0
    8.2130    0.3600   21.6010 C   0  0  0  0  0  0  0  0  0  0  0  0
    8.8580    1.2960   21.1150 O   0  0  0  0  0  0  0  0  0  0  0  0
    7.1570   -0.3640   20.9430 N   0  0  0  0  0  0  0  0  0  0  0  0
    6.4850    0.1730   19.9330 C   0  0  0  0  0  0  0  0  0  0  0  0
    5.1950    0.9470   20.2050 C   0  0  0  0  0  0  0  0  0  0  0  0
    4.5440    1.5180   19.1400 C   0  0  0  0  0  0  0  0  0  0  0  0
    5.1010    1.3540   17.8760 C   0  0  0  0  0  0  0  0  0  0  0  0
    6.2270    0.6650   17.6180 N   0  0  0  0  0  0  0  0  0  0  0  0
    6.8920    0.0930   18.6350 C   0  0  0  0  0  0  0  0  0  0  0  0
   10.4220   -1.7450   22.6890 O   0  0  0  0  0  0  0  0  0  0  0  0
   11.7040   -2.2450   22.2320 N   0  0  0  0  0  0  0  0  0  0  0  0
  1  2  1  0
  2  3  1  0
  3  4  1  0
  4  5  2  0
  5  6  1  0
  6  7  1  0
  7  8  1  0
  8  9  2  0
  8 10  1  0
 10 11  1  0
 11 12  2  0
 12 13  1  0
 13 14  2  0
 14 15  1  0
 11 16  1  0
 15 16  2  0
  5 17  1  0
  3 18  2  0
 17 18  1  0
M  END
