pyridine_urea_800
     RDKit          3D

 23 25  0  0  0  0  0  0  0  0999 V2000
    9.0360    1.0800   21.2830 O   0  0  0  0  0  0  0  0  0  0  0  0
    8.5210   -0.0260   21.5230 C   0  0  0  0  0  0  0  0  0  0  0  0
    9.1090   -0.9810   22.4630 N   0  0  0  0  0  0  0  0  0  0  0  0
    8.2770   -1.6070   23.3960 C   0  0  0  0  0  0  0  0  0  0  0  0
    8.2040   -3.0050   23.3830 C   0  0  0  0  0  0  0  0  0  0  0  0
    7.0420   -3.4430   24.0440 C   0  0  0  0  0  0  0  0  0  0  0  0
    6.6270   -2.6420   25.1290 C   0  0  0  0  0  0  0  0  0  0  0  0
    6.6130   -1.3240   25.3250 N   0  0  0  0  0  0  0  0  0  0  0  0
    6.1060   -1.1680   26.5570 C   0  0  0  0  0  0  0  0  0  0  0  0
    5.8950    0.1670   27.2330 C   0  0  0  0  0  0  0  0  0  0  0  0
    5.2980    0.0020   28.6300 C   0  0  0  0  0  0  0  0  0  0  0  0
    5.0070   -1.2610   29.1590 C   0  0  0  0  0  0  0  0  0  0  0  0
    4.3320   -1.3460   30.7370 Cl  0  0  0  0  0  0  0  0  0  0  0  0
    5.2490   -2.4540   28.4330 C   0  0  0  0  0  0  0  0  0  0  0  0
    5.7930   -2.3750   27.1490 C   0  0  0  0  0  0  0  0  0  0  0  0
    6.1260   -3.3350   26.2310 N   0  0  0  0  0  0  0  0  0  0  0  0
    7.3510   -0.5250   20.9900 N   0  0  0  0  0  0  0  0  0  0  0  0
    6.5430    0.1220   20.0460 C   0  0  0  0  0  0  0  0  0  0  0  0
    5.3850    0.8360   20.3220 C   0  0  0  0  0  0  0  0  0  0  0  0
    4.6850    1.4470   19.2830 C   0  0  0  0  0  0  0  0  0  0  0  0
    5.1740    1.3160   17.9940 C   0  0  0  0  0  0  0  0  0  0  0  0
    6.2840    0.6250   17.7010 N   0  0  0  0  0  0  0  0  0  0  0  0
    6.9360    0.0480   18.7250 C   0  0  0  0  0  0  0  0  0  0  0  0
  1  2  2  0
  2  3  1  0
  3  4  1  0
  4  5  1  0
  5  6  1  0
  6  7  1  0
  7  8  2  0
  8  9  1  0
  9 10  2  0
 10 11  1  0
 11 12  2  0
 12 13  1  0
 12 14  1  0
  9 15  1  0
 14 15  2  0
  7 16  1  0
 15 16  1  0
  2 17  1  0
 17 18  1  0
 18 19  2  0
 19 20  1  0
 20 21  2  0
 21 22  1  0
 18 23  1  0
 22 23  2  0
M  END
