pyridine_urea_6612
     RDKit          3D

 22 23  0  0  0  0  0  0  0  0999 V2000
    3.8750   -2.5410   24.3680 C   0  0  0  0  0  0  0  0  0  0  0  0
    5.0490   -2.1260   23.4540 C   0  0  0  0  0  0  0  0  0  0  0  0
    6.3110   -2.7260   23.9080 N   0  0  0  0  0  0  0  0  0  0  0  0
    7.4680   -2.0030   24.0440 C   0  0  0  0  0  0  0  0  0  0  0  0
    7.7390   -1.2880   24.9870 O   0  0  0  0  0  0  0  0  0  0  0  0
    8.5440   -2.0790   22.9480 C   0  0  0  0  0  0  0  0  0  0  0  0
    9.0930   -0.8810   22.5410 N   0  0  0  0  0  0  0  0  0  0  0  0
    8.5260   -0.0020   21.5900 C   0  0  0  0  0  0  0  0  0  0  0  0
    9.0950    1.2850   21.2750 O   0  0  0  0  0  0  0  0  0  0  0  0
    7.3200   -0.5720   21.0220 N   0  0  0  0  0  0  0  0  0  0  0  0
    6.5150    0.0820   20.0850 C   0  0  0  0  0  0  0  0  0  0  0  0
    5.3460    0.8160   20.3760 C   0  0  0  0  0  0  0  0  0  0  0  0
    4.6400    1.4490   19.3160 C   0  0  0  0  0  0  0  0  0  0  0  0
    5.1420    1.3040   18.0280 C   0  0  0  0  0  0  0  0  0  0  0  0
    6.2380    0.6160   17.6690 N   0  0  0  0  0  0  0  0  0  0  0  0
    6.9450   -0.0060   18.6720 C   0  0  0  0  0  0  0  0  0  0  0  0
    6.2470   -4.1080   23.4300 C   0  0  0  0  0  0  0  0  0  0  0  0
    7.4780   -4.8130   23.6020 C   0  0  0  0  0  0  0  0  0  0  0  0
    7.4430   -6.2260   23.1240 C   0  0  0  0  0  0  0  0  0  0  0  0
    6.3430   -6.7480   22.5870 C   0  0  0  0  0  0  0  0  0  0  0  0
    5.1710   -6.0410   22.4340 C   0  0  0  0  0  0  0  0  0  0  0  0
    4.9310   -4.7040   22.7990 C   0  0  0  0  0  0  0  0  0  0  0  0
  1  2  1  0
  2  3  1  0
  3  4  1  0
  4  5  2  0
  4  6  1  0
  6  7  1  0
  7  8  1  0
  8  9  2  0
  8 10  1  0
 10 11  1  0
 11 12  2  0
 12 13  1  0
 13 14  2  0
 14 15  1  0
 11 16  1  0
 15 16  2  0
  3 17  1  0
 17 18  2  0
 18 19  1  0
 19 20  2  0
 20 21  1  0
 17 22  1  0
 21 22  2  0
M  END
