pyridine_urea_6637
     RDKit          3D

 22 23  0  0  0  0  0  0  0  0999 V2000
   10.6700   -3.0690   23.9750 C   0  0  0  0  0  0  0  0  0  0  0  0
   11.7660   -3.5250   24.7580 O   0  0  0  0  0  0  0  0  0  0  0  0
   12.7560   -2.6050   24.9390 C   0  0  0  0  0  0  0  0  0  0  0  0
   13.4320   -2.2200   23.6310 C   0  0  0  0  0  0  0  0  0  0  0  0
   13.8770   -1.0770   23.7860 O   0  0  0  0  0  0  0  0  0  0  0  0
   13.6740   -0.2740   22.7260 C   0  0  0  0  0  0  0  0  0  0  0  0
   12.3050   -0.2410   22.7150 C   0  0  0  0  0  0  0  0  0  0  0  0
   11.5610    0.7390   23.1790 C   0  0  0  0  0  0  0  0  0  0  0  0
   10.2220    0.6130   23.1250 C   0  0  0  0  0  0  0  0  0  0  0  0
    9.5980   -0.5130   22.5900 C   0  0  0  0  0  0  0  0  0  0  0  0
    8.2140   -0.4830   22.5960 N   0  0  0  0  0  0  0  0  0  0  0  0
    7.8360    0.1480   21.4870 C   0  0  0  0  0  0  0  0  0  0  0  0
    8.5330    1.3270   21.0310 O   0  0  0  0  0  0  0  0  0  0  0  0
    6.7910   -0.4730   20.9120 N   0  0  0  0  0  0  0  0  0  0  0  0
    6.1670    0.1910   19.8960 C   0  0  0  0  0  0  0  0  0  0  0  0
    4.9620    0.9040   20.0340 C   0  0  0  0  0  0  0  0  0  0  0  0
    4.3360    1.6220   18.9750 C   0  0  0  0  0  0  0  0  0  0  0  0
    5.1460    1.5100   17.6920 C   0  0  0  0  0  0  0  0  0  0  0  0
    6.2970    0.8030   17.5970 N   0  0  0  0  0  0  0  0  0  0  0  0
    6.8030    0.1500   18.6860 C   0  0  0  0  0  0  0  0  0  0  0  0
   10.4580   -1.6440   22.0330 C   0  0  0  0  0  0  0  0  0  0  0  0
   11.7900   -1.4620   22.1210 C   0  0  0  0  0  0  0  0  0  0  0  0
  1  2  1  0
  2  3  1  0
  3  4  1  0
  4  5  1  0
  5  6  1  0
  6  7  1  0
  7  8  2  0
  8  9  1  0
  9 10  2  0
 10 11  1  0
 11 12  1  0
 12 13  2  0
 12 14  1  0
 14 15  1  0
 15 16  2  0
 16 17  1  0
 17 18  2  0
 18 19  1  0
 15 20  1  0
 19 20  2  0
 10 21  1  0
  7 22  1  0
 21 22  2  0
M  END
