pyridine_urea_2855
     RDKit          3D

 22 23  0  0  0  0  0  0  0  0999 V2000
    8.3000    3.4710   25.4770 C   0  0  0  0  0  0  0  0  0  0  0  0
    8.3510    3.2610   24.0690 O   0  0  0  0  0  0  0  0  0  0  0  0
    9.6750    3.4640   23.5690 C   0  0  0  0  0  0  0  0  0  0  0  0
   10.1590    4.9450   23.4800 C   0  0  0  0  0  0  0  0  0  0  0  0
   11.4150    5.3090   23.0240 C   0  0  0  0  0  0  0  0  0  0  0  0
   11.7600    6.6320   22.9750 O   0  0  0  0  0  0  0  0  0  0  0  0
   12.3230    4.1290   22.6070 C   0  0  0  0  0  0  0  0  0  0  0  0
   11.9200    2.7780   22.6750 C   0  0  0  0  0  0  0  0  0  0  0  0
   10.5130    2.4040   23.1780 C   0  0  0  0  0  0  0  0  0  0  0  0
   10.1230    1.2290   23.2500 O   0  0  0  0  0  0  0  0  0  0  0  0
   11.1620    0.2500   23.0130 C   0  0  0  0  0  0  0  0  0  0  0  0
   10.5000   -1.0550   22.5960 C   0  0  0  0  0  0  0  0  0  0  0  0
    9.0510   -0.8820   22.4860 N   0  0  0  0  0  0  0  0  0  0  0  0
    8.4760   -0.0220   21.5680 C   0  0  0  0  0  0  0  0  0  0  0  0
    9.0550    1.2840   21.2340 O   0  0  0  0  0  0  0  0  0  0  0  0
    7.2870   -0.5580   21.0380 N   0  0  0  0  0  0  0  0  0  0  0  0
    6.5680    0.0470   20.0070 C   0  0  0  0  0  0  0  0  0  0  0  0
    5.2950    0.8100   20.3190 C   0  0  0  0  0  0  0  0  0  0  0  0
    4.6180    1.4160   19.2720 C   0  0  0  0  0  0  0  0  0  0  0  0
    5.1440    1.2900   17.9890 C   0  0  0  0  0  0  0  0  0  0  0  0
    6.2660    0.6070   17.6990 N   0  0  0  0  0  0  0  0  0  0  0  0
    6.9490    0.0050   18.6920 C   0  0  0  0  0  0  0  0  0  0  0  0
  1  2  1  0
  2  3  1  0
  3  4  2  0
  4  5  1  0
  5  6  1  0
  5  7  2  0
  7  8  1  0
  3  9  1  0
  8  9  2  0
  9 10  1  0
 10 11  1  0
 11 12  1  0
 12 13  1  0
 13 14  1  0
 14 15  2  0
 14 16  1  0
 16 17  1  0
 17 18  2  0
 18 19  1  0
 19 20  2  0
 20 21  1  0
 17 22  1  0
 21 22  2  0
M  END
