pyridine_urea_13769
     RDKit          3D

 25 27  0  0  0  0  0  0  0  0999 V2000
   14.7580    1.7010   17.9730 C   0  0  0  0  0  0  0  0  0  0  0  0
   15.3370    2.2230   18.7180 C   0  0  1  0  0  0  0  0  0  0  0  0
   15.7110    3.4870   19.3740 C   0  0  0  0  0  0  0  0  0  0  0  0
   14.6110    3.8100   20.2110 C   0  0  0  0  0  0  0  0  0  0  0  0
   14.4060    2.8460   21.1220 C   0  0  0  0  0  0  0  0  0  0  0  0
   14.4780    1.3970   20.8600 C   0  0  2  0  0  0  0  0  0  0  0  0
   14.2180    0.5250   21.8160 O   0  0  0  0  0  0  0  0  0  0  0  0
   13.5870   -0.8560   21.6540 C   0  0  0  0  0  0  0  0  0  0  0  0
   12.5020   -1.1170   22.3560 C   0  0  0  0  0  0  0  0  0  0  0  0
   12.7900   -1.1760   23.7740 C   0  0  0  0  0  0  0  0  0  0  0  0
   11.7220   -1.4010   24.5990 C   0  0  0  0  0  0  0  0  0  0  0  0
   10.4080   -1.5390   24.1100 C   0  0  0  0  0  0  0  0  0  0  0  0
   10.1140   -1.4860   22.7720 C   0  0  0  0  0  0  0  0  0  0  0  0
    8.7320   -1.6230   22.4230 N   0  0  0  0  0  0  0  0  0  0  0  0
    8.1770   -0.6310   21.6150 C   0  0  0  0  0  0  0  0  0  0  0  0
    8.7610    0.6780   21.4180 O   0  0  0  0  0  0  0  0  0  0  0  0
    6.9370   -1.0560   21.0100 N   0  0  0  0  0  0  0  0  0  0  0  0
    6.3280   -0.2300   20.0410 C   0  0  0  0  0  0  0  0  0  0  0  0
    5.0840    0.5840   20.2340 C   0  0  0  0  0  0  0  0  0  0  0  0
    4.5820    1.3620   19.1910 C   0  0  0  0  0  0  0  0  0  0  0  0
    5.2810    1.3430   17.9890 C   0  0  0  0  0  0  0  0  0  0  0  0
    6.4040    0.6250   17.7700 N   0  0  0  0  0  0  0  0  0  0  0  0
    6.8990   -0.1360   18.7810 C   0  0  0  0  0  0  0  0  0  0  0  0
   11.0960   -1.3040   21.8550 C   0  0  0  0  0  0  0  0  0  0  0  0
   15.0980    1.1400   19.5940 C   0  0  0  0  0  0  0  0  0  0  0  0
  2  1  1  1
  2  3  1  0
  3  4  1  0
  4  5  1  0
  5  6  1  0
  6  7  1  1
  7  8  1  0
  8  9  1  0
  9 10  2  0
 10 11  1  0
 11 12  2  0
 12 13  1  0
 13 14  1  0
 14 15  1  0
 15 16  2  0
 15 17  1  0
 17 18  1  0
 18 19  2  0
 19 20  1  0
 20 21  2  0
 21 22  1  0
 18 23  1  0
 22 23  2  0
  9 24  1  0
 13 24  2  0
  2 25  1  0
  6 25  1  0
M  END
