pyridine_urea_7846
     RDKit          3D

 28 30  0  0  0  0  0  0  0  0999 V2000
    7.5990   -2.0520   24.5310 C   0  0  0  0  0  0  0  0  0  0  0  0
    8.2550   -1.0240   24.3980 O   0  0  0  0  0  0  0  0  0  0  0  0
    9.4620   -1.2230   23.8330 C   0  0  0  0  0  0  0  0  0  0  0  0
   10.6620   -1.2290   24.5190 C   0  0  0  0  0  0  0  0  0  0  0  0
   11.8950   -1.4470   24.0000 C   0  0  0  0  0  0  0  0  0  0  0  0
   11.8710   -1.6950   22.6650 C   0  0  0  0  0  0  0  0  0  0  0  0
   13.3030   -2.0450   21.8780 S   0  0  0  0  0  0  0  0  0  0  0  0
   13.9820   -2.3670   23.1040 O   0  0  0  0  0  0  0  0  0  0  0  0
   13.5930   -0.9600   21.0030 O   0  0  0  0  0  0  0  0  0  0  0  0
   13.3130   -3.4850   20.8990 N   0  0  0  0  0  0  0  0  0  0  0  0
   14.3840   -3.9490   20.0760 C   0  0  0  0  0  0  0  0  0  0  0  0
   15.3390   -4.6960   20.6630 C   0  0  0  0  0  0  0  0  0  0  0  0
   15.0660   -6.0370   20.6670 C   0  0  0  0  0  0  0  0  0  0  0  0
   15.5060   -6.5750   19.7520 O   0  0  0  0  0  0  0  0  0  0  0  0
   15.2290   -5.6030   18.9010 C   0  0  0  0  0  0  0  0  0  0  0  0
   14.0750   -5.0380   19.4470 C   0  0  0  0  0  0  0  0  0  0  0  0
   10.8090   -1.7040   21.8940 C   0  0  0  0  0  0  0  0  0  0  0  0
    9.5750   -1.4770   22.3630 C   0  0  0  0  0  0  0  0  0  0  0  0
    8.4910   -1.4750   21.6230 N   0  0  0  0  0  0  0  0  0  0  0  0
    7.8730   -0.3030   21.2800 C   0  0  0  0  0  0  0  0  0  0  0  0
    8.4220    0.7900   21.1680 O   0  0  0  0  0  0  0  0  0  0  0  0
    6.5850   -0.5520   21.0990 N   0  0  0  0  0  0  0  0  0  0  0  0
    6.0400    0.1280   20.0320 C   0  0  0  0  0  0  0  0  0  0  0  0
    4.8950    0.8950   20.0990 C   0  0  0  0  0  0  0  0  0  0  0  0
    4.4440    1.5430   18.9760 C   0  0  0  0  0  0  0  0  0  0  0  0
    5.1400    1.4230   17.7940 C   0  0  0  0  0  0  0  0  0  0  0  0
    6.2580    0.6810   17.6870 N   0  0  0  0  0  0  0  0  0  0  0  0
    6.6750    0.0530   18.8050 C   0  0  0  0  0  0  0  0  0  0  0  0
  1  2  1  0
  2  3  1  0
  3  4  2  0
  4  5  1  0
  5  6  2  0
  6  7  1  0
  7  8  2  0
  7  9  2  0
  7 10  1  0
 10 11  1  0
 11 12  1  0
 12 13  1  0
 13 14  1  0
 14 15  1  0
 11 16  1  0
 15 16  1  0
  6 17  1  0
  3 18  1  0
 17 18  2  0
 18 19  1  0
 19 20  1  0
 20 21  2  0
 20 22  1  0
 22 23  1  0
 23 24  2  0
 24 25  1  0
 25 26  2  0
 26 27  1  0
 23 28  1  0
 27 28  2  0
M  END
