pyridine_urea_5120
     RDKit          3D

 20 21  0  0  0  0  0  0  0  0999 V2000
    8.8790    1.2320   21.2040 O   0  0  0  0  0  0  0  0  0  0  0  0
    8.3400    0.1880   21.6080 C   0  0  0  0  0  0  0  0  0  0  0  0
    8.7500   -0.5390   22.6880 N   0  0  0  0  0  0  0  0  0  0  0  0
    9.9000   -0.2440   23.4250 C   0  0  0  0  0  0  0  0  0  0  0  0
   11.0480   -0.1170   22.6420 C   0  0  1  0  0  0  0  0  0  0  0  0
   11.5180    1.0040   22.8790 O   0  0  0  0  0  0  0  0  0  0  0  0
   12.0100   -1.0860   22.9150 C   0  0  0  0  0  0  0  0  0  0  0  0
   12.4250   -1.8490   21.8920 C   0  0  0  0  0  0  0  0  0  0  0  0
   12.9330   -2.0220   23.2480 C   0  0  0  0  0  0  0  0  0  0  0  0
   11.9780   -0.8810   23.4600 C   0  0  0  0  0  0  0  0  0  0  0  0
   11.8440   -0.3110   24.8860 C   0  0  0  0  0  0  0  0  0  0  0  0
   12.5140   -1.2600   24.2890 C   0  0  0  0  0  0  0  0  0  0  0  0
   13.6280   -2.3620   25.0110 Cl  0  0  0  0  0  0  0  0  0  0  0  0
    7.2320   -0.3960   21.0550 N   0  0  0  0  0  0  0  0  0  0  0  0
    6.5180    0.1660   20.0080 C   0  0  0  0  0  0  0  0  0  0  0  0
    5.3520    0.8830   20.2920 C   0  0  0  0  0  0  0  0  0  0  0  0
    4.6560    1.4690   19.2350 C   0  0  0  0  0  0  0  0  0  0  0  0
    5.1390    1.3190   17.9480 C   0  0  0  0  0  0  0  0  0  0  0  0
    6.2450    0.6270   17.6650 N   0  0  0  0  0  0  0  0  0  0  0  0
    6.9100    0.0650   18.6910 C   0  0  0  0  0  0  0  0  0  0  0  0
  1  2  2  0
  2  3  1  0
  3  4  1  0
  4  5  1  0
  5  6  1  1
  5  7  1  0
  7  8  2  0
  8  9  1  0
  9 10  2  0
 10 11  1  0
  7 12  1  0
 11 12  2  0
 12 13  1  0
  2 14  1  0
 14 15  1  0
 15 16  2  0
 16 17  1  0
 17 18  2  0
 18 19  1  0
 15 20  1  0
 19 20  2  0
M  END
