pyridine_urea_3921
     RDKit          3D

 26 29  0  0  0  0  0  0  0  0999 V2000
    9.5070    2.9160   22.3670 C   0  0  0  0  0  0  0  0  0  0  0  0
   10.9390    2.5890   22.4740 C   0  0  0  0  0  0  0  0  0  0  0  0
   11.8470    3.6710   22.3480 N   0  0  0  0  0  0  0  0  0  0  0  0
   12.8910    2.9150   22.5520 N   0  0  0  0  0  0  0  0  0  0  0  0
   14.1870    3.2870   22.7900 C   0  0  0  0  0  0  0  0  0  0  0  0
   14.6360    4.5070   23.6890 C   0  0  0  0  0  0  0  0  0  0  0  0
   16.3880    4.5950   24.3800 C   0  0  0  0  0  0  0  0  0  0  0  0
   17.6080    3.7640   24.3090 C   0  0  0  0  0  0  0  0  0  0  0  0
   17.2790    2.5580   23.4570 C   0  0  0  0  0  0  0  0  0  0  0  0
   15.3640    2.1430   22.3930 C   0  0  0  0  0  0  0  0  0  0  0  0
   12.8250    1.4660   22.7470 C   0  0  0  0  0  0  0  0  0  0  0  0
   12.0830    0.4110   22.8270 N   0  0  0  0  0  0  0  0  0  0  0  0
   10.7790    1.0280   22.7070 C   0  0  0  0  0  0  0  0  0  0  0  0
    9.6450    0.2730   22.6940 C   0  0  0  0  0  0  0  0  0  0  0  0
    8.9520   -0.8660   22.7290 N   0  0  0  0  0  0  0  0  0  0  0  0
    8.2740   -0.8700   21.5450 C   0  0  0  0  0  0  0  0  0  0  0  0
    8.8350   -1.0120   20.5330 O   0  0  0  0  0  0  0  0  0  0  0  0
    6.9420   -0.6650   21.5790 N   0  0  0  0  0  0  0  0  0  0  0  0
    6.3860   -0.0500   20.4720 C   0  0  0  0  0  0  0  0  0  0  0  0
    5.1340    0.7710   20.5000 C   0  0  0  0  0  0  0  0  0  0  0  0
    4.6120    1.4040   19.2220 C   0  0  0  0  0  0  0  0  0  0  0  0
    5.3060    1.2120   18.0400 C   0  0  0  0  0  0  0  0  0  0  0  0
    6.4390    0.4760   17.9630 N   0  0  0  0  0  0  0  0  0  0  0  0
    6.9630   -0.1470   19.1830 C   0  0  0  0  0  0  0  0  0  0  0  0
   10.9410   -0.0140   22.8040 C   0  0  0  0  0  0  0  0  0  0  0  0
   11.5040    1.3580   22.6710 C   0  0  0  0  0  0  0  0  0  0  0  0
  1  2  1  0
  2  3  2  0
  3  4  1  0
  4  5  1  0
  5  6  2  0
  6  7  1  0
  7  8  2  0
  8  9  1  0
  5 10  1  0
  9 10  2  0
  4 11  1  0
 11 12  1  0
 12 13  2  0
 13 14  1  0
 14 15  1  0
 15 16  1  0
 16 17  2  0
 16 18  1  0
 18 19  1  0
 19 20  2  0
 20 21  1  0
 21 22  2  0
 22 23  1  0
 19 24  1  0
 23 24  2  0
 14 25  2  0
  2 26  1  0
 11 26  2  0
 25 26  1  0
M  END
