pyridine_urea_10965
     RDKit          3D

 19 20  0  0  0  0  0  0  0  0999 V2000
   13.6680   -1.4020   21.4950 N   0  0  0  0  0  0  0  0  0  0  0  0
   12.6850   -0.8980   22.2270 C   0  0  0  0  0  0  0  0  0  0  0  0
   11.5290   -1.6870   22.3480 C   0  0  0  0  0  0  0  0  0  0  0  0
   10.4790   -1.2490   23.0610 C   0  0  0  0  0  0  0  0  0  0  0  0
   10.2640   -0.0420   23.7820 C   0  0  0  0  0  0  0  0  0  0  0  0
    9.2260   -0.9440   23.8000 C   0  0  0  0  0  0  0  0  0  0  0  0
    8.1030   -0.5980   23.1510 N   0  0  0  0  0  0  0  0  0  0  0  0
    8.1520   -0.2730   21.8260 C   0  0  0  0  0  0  0  0  0  0  0  0
    9.0310    0.4540   21.3940 O   0  0  0  0  0  0  0  0  0  0  0  0
    7.1610   -0.7860   21.0670 N   0  0  0  0  0  0  0  0  0  0  0  0
    6.5010   -0.0730   20.0020 C   0  0  0  0  0  0  0  0  0  0  0  0
    5.2410    0.7450   20.2890 C   0  0  0  0  0  0  0  0  0  0  0  0
    4.6300    1.4310   19.2500 C   0  0  0  0  0  0  0  0  0  0  0  0
    5.1590    1.3780   17.9590 C   0  0  0  0  0  0  0  0  0  0  0  0
    6.2890    0.6400   17.6890 N   0  0  0  0  0  0  0  0  0  0  0  0
    6.9750   -0.1030   18.7180 C   0  0  0  0  0  0  0  0  0  0  0  0
   11.6340    0.8200   23.5910 C   0  0  0  0  0  0  0  0  0  0  0  0
   11.7680    1.9040   24.0730 O   0  0  0  0  0  0  0  0  0  0  0  0
   12.6810    0.2920   22.8460 C   0  0  0  0  0  0  0  0  0  0  0  0
  1  2  1  0
  2  3  2  0
  3  4  1  0
  4  5  2  0
  5  6  1  0
  6  7  1  0
  7  8  1  0
  8  9  2  0
  8 10  1  0
 10 11  1  0
 11 12  2  0
 12 13  1  0
 13 14  2  0
 14 15  1  0
 11 16  1  0
 15 16  2  0
  5 17  1  0
 17 18  1  0
  2 19  1  0
 17 19  2  0
M  END
