pyridine_urea_2734
     RDKit          3D

 23 24  0  0  0  0  0  0  0  0999 V2000
    9.2380    0.8920   21.7550 O   0  0  0  0  0  0  0  0  0  0  0  0
    9.0190   -0.3020   21.6080 C   0  0  0  0  0  0  0  0  0  0  0  0
    9.9950   -1.3080   21.9350 N   0  0  0  0  0  0  0  0  0  0  0  0
   10.6570   -1.6090   23.2660 C   0  0  0  0  0  0  0  0  0  0  0  0
   12.2990   -1.6480   23.4150 C   0  0  0  0  0  0  0  0  0  0  0  0
   12.9940   -1.3610   24.6910 C   0  0  0  0  0  0  0  0  0  0  0  0
   14.2840   -2.4960   25.4140 S   0  0  0  0  0  0  0  0  0  0  0  0
   13.5880   -3.2890   26.3760 O   0  0  0  0  0  0  0  0  0  0  0  0
   14.5100   -3.2030   24.1860 O   0  0  0  0  0  0  0  0  0  0  0  0
   16.0730   -1.9030   26.3080 C   0  0  0  0  0  0  0  0  0  0  0  0
   17.7980   -1.9520   25.9950 C   0  0  0  0  0  0  0  0  0  0  0  0
   18.7880   -1.2790   24.7920 C   0  0  0  0  0  0  0  0  0  0  0  0
   20.2460   -1.1970   24.3850 C   0  0  0  0  0  0  0  0  0  0  0  0
   21.0910   -1.9140   25.3040 C   0  0  0  0  0  0  0  0  0  0  0  0
   20.4690   -2.5870   26.4460 C   0  0  0  0  0  0  0  0  0  0  0  0
   18.9330   -2.6240   26.8020 C   0  0  0  0  0  0  0  0  0  0  0  0
    7.8010   -0.7930   21.0760 N   0  0  0  0  0  0  0  0  0  0  0  0
    6.8890   -0.1240   20.2010 C   0  0  0  0  0  0  0  0  0  0  0  0
    5.8770    0.7680   20.5990 C   0  0  0  0  0  0  0  0  0  0  0  0
    5.0470    1.3670   19.6320 C   0  0  0  0  0  0  0  0  0  0  0  0
    5.2370    1.0720   18.2950 C   0  0  0  0  0  0  0  0  0  0  0  0
    6.1800    0.2270   17.8690 N   0  0  0  0  0  0  0  0  0  0  0  0
    6.9720   -0.3450   18.8190 C   0  0  0  0  0  0  0  0  0  0  0  0
  1  2  2  0
  2  3  1  0
  3  4  1  0
  4  5  1  0
  5  6  1  0
  7  6  1  0
  7  8  2  0
  7  9  2  0
  7 10  1  0
 10 11  1  0
 11 12  2  0
 12 13  1  0
 13 14  2  0
 14 15  1  0
 11 16  1  0
 15 16  2  0
  2 17  1  0
 17 18  1  0
 18 19  2  0
 19 20  1  0
 20 21  2  0
 21 22  1  0
 18 23  1  0
 22 23  2  0
M  END
