pyridine_urea_3668
     RDKit          3D

 20 23  0  0  0  0  0  0  0  0999 V2000
    8.2890    0.9080   21.3200 O   0  0  0  0  0  0  0  0  0  0  0  0
    7.9920   -0.2530   21.5870 C   0  0  0  0  0  0  0  0  0  0  0  0
    6.8890   -0.8680   21.0750 N   0  0  0  0  0  0  0  0  0  0  0  0
    6.3070   -0.1180   20.0010 C   0  0  0  0  0  0  0  0  0  0  0  0
    5.0290    0.6530   20.3070 C   0  0  0  0  0  0  0  0  0  0  0  0
    4.4160    1.4670   19.1780 C   0  0  0  0  0  0  0  0  0  0  0  0
    5.1640    1.4160   17.8480 C   0  0  0  0  0  0  0  0  0  0  0  0
    6.3310    0.6500   17.7270 N   0  0  0  0  0  0  0  0  0  0  0  0
    6.8710   -0.0780   18.7480 C   0  0  0  0  0  0  0  0  0  0  0  0
    8.7620   -1.0390   22.3950 N   0  0  0  0  0  0  0  0  0  0  0  0
   10.0830   -0.6990   22.1830 C   0  0  2  0  0  0  0  0  0  0  0  0
   11.1460   -1.5380   22.0580 C   0  0  0  0  0  0  0  0  0  0  0  0
   11.7130   -0.5780   22.7610 C   0  0  2  0  0  0  0  0  0  0  0  0
   10.7000    0.1540   23.3650 C   0  0  0  0  0  0  0  0  0  0  0  0
   13.0530    0.0130   22.7870 C   0  0  0  0  0  0  0  0  0  0  0  0
   13.1440    1.3520   22.8790 F   0  0  0  0  0  0  0  0  0  0  0  0
   13.7590   -0.4350   21.7470 F   0  0  0  0  0  0  0  0  0  0  0  0
   12.3980   -0.8890   23.8650 C   0  0  1  0  0  0  0  0  0  0  0  0
   12.3150   -0.7640   25.2070 C   0  0  0  0  0  0  0  0  0  0  0  0
   12.6700   -2.0450   24.9850 C   0  0  0  0  0  0  0  0  0  0  0  0
  1  2  2  0
  2  3  1  0
  3  4  1  0
  4  5  2  0
  5  6  1  0
  6  7  2  0
  7  8  1  0
  4  9  1  0
  8  9  2  0
  2 10  1  0
 11 10  1  1
 11 12  1  0
 13 12  1  6
 11 14  1  0
 13 14  1  0
 13 15  1  0
 15 16  1  0
 15 17  1  0
 13 18  1  0
 15 18  1  0
 18 19  1  1
 18 20  1  0
 19 20  1  0
M  END
