pyridine_urea_12380
     RDKit          3D

 22 23  0  0  0  0  0  0  0  0999 V2000
    8.8230    1.3690   21.0200 O   0  0  0  0  0  0  0  0  0  0  0  0
    8.4270    0.3030   21.4930 C   0  0  0  0  0  0  0  0  0  0  0  0
    9.0130   -0.1870   22.6130 N   0  0  0  0  0  0  0  0  0  0  0  0
    9.6090    0.8750   23.4030 C   0  0  0  0  0  0  0  0  0  0  0  0
   11.1410    0.7870   23.6460 C   0  0  0  0  0  0  0  0  0  0  0  0
   11.3430   -0.5070   24.8850 S   0  0  0  0  0  0  0  0  0  0  0  0
   10.0330   -0.9540   25.2490 O   0  0  0  0  0  0  0  0  0  0  0  0
   12.4800   -0.2760   25.7150 O   0  0  0  0  0  0  0  0  0  0  0  0
   12.1220   -1.4990   23.7630 C   0  0  0  0  0  0  0  0  0  0  0  0
   11.5280   -1.3910   22.3900 C   0  0  0  0  0  0  0  0  0  0  0  0
   12.0720   -2.0800   21.3820 C   0  0  0  0  0  0  0  0  0  0  0  0
   13.2340   -2.9240   21.6390 C   0  0  0  0  0  0  0  0  0  0  0  0
   13.7520   -3.5780   20.6000 F   0  0  0  0  0  0  0  0  0  0  0  0
   13.8150   -3.0320   23.0350 C   0  0  0  0  0  0  0  0  0  0  0  0
   13.1750   -2.2560   24.0940 C   0  0  0  0  0  0  0  0  0  0  0  0
    7.3900   -0.4560   21.0170 N   0  0  0  0  0  0  0  0  0  0  0  0
    6.6320    0.0850   20.0230 C   0  0  0  0  0  0  0  0  0  0  0  0
    5.3550    0.8540   20.4000 C   0  0  0  0  0  0  0  0  0  0  0  0
    4.5940    1.4590   19.2190 C   0  0  0  0  0  0  0  0  0  0  0  0
    5.0900    1.2790   17.9440 C   0  0  0  0  0  0  0  0  0  0  0  0
    6.2170    0.5730   17.6980 N   0  0  0  0  0  0  0  0  0  0  0  0
    6.9700   -0.0110   18.6960 C   0  0  0  0  0  0  0  0  0  0  0  0
  1  2  2  0
  2  3  1  0
  3  4  1  0
  4  5  1  0
  6  5  1  0
  6  7  2  0
  6  8  2  0
  6  9  1  0
  9 10  2  0
 10 11  1  0
 11 12  2  0
 12 13  1  0
 12 14  1  0
  9 15  1  0
 14 15  2  0
  2 16  1  0
 16 17  1  0
 17 18  2  0
 18 19  1  0
 19 20  2  0
 20 21  1  0
 17 22  1  0
 21 22  2  0
M  END
