pyridine_urea_1810
     RDKit          3D

 17 17  0  0  0  0  0  0  0  0999 V2000
    8.9450    1.1450   21.1500 O   0  0  0  0  0  0  0  0  0  0  0  0
    8.4280    0.0710   21.4850 C   0  0  0  0  0  0  0  0  0  0  0  0
    8.9630   -0.8460   22.3400 N   0  0  0  0  0  0  0  0  0  0  0  0
   10.3190   -1.1440   22.4810 C   0  0  0  0  0  0  0  0  0  0  0  0
   10.9680   -0.5070   23.5180 C   0  0  1  0  0  0  0  0  0  0  0  0
   10.8710   -1.3790   24.6560 O   0  0  0  0  0  0  0  0  0  0  0  0
   12.2920   -0.1340   23.3280 C   0  0  0  0  0  0  0  0  0  0  0  0
   13.1580   -0.4490   24.2900 F   0  0  0  0  0  0  0  0  0  0  0  0
   12.3840    1.2130   23.1250 F   0  0  0  0  0  0  0  0  0  0  0  0
   12.7940   -0.7170   22.2240 F   0  0  0  0  0  0  0  0  0  0  0  0
    7.2110   -0.3870   21.0530 N   0  0  0  0  0  0  0  0  0  0  0  0
    6.5100    0.1800   19.9930 C   0  0  0  0  0  0  0  0  0  0  0  0
    5.3310    0.8790   20.2610 C   0  0  0  0  0  0  0  0  0  0  0  0
    4.5960    1.4790   19.2670 C   0  0  0  0  0  0  0  0  0  0  0  0
    5.1640    1.3400   17.8690 C   0  0  0  0  0  0  0  0  0  0  0  0
    6.2830    0.6620   17.6160 N   0  0  0  0  0  0  0  0  0  0  0  0
    6.9300    0.1030   18.6720 C   0  0  0  0  0  0  0  0  0  0  0  0
  1  2  2  0
  2  3  1  0
  3  4  1  0
  4  5  1  0
  5  6  1  1
  5  7  1  0
  7  8  1  0
  7  9  1  0
  7 10  1  0
  2 11  1  0
 11 12  1  0
 12 13  2  0
 13 14  1  0
 14 15  2  0
 15 16  1  0
 12 17  1  0
 16 17  2  0
M  END
