pyridine_urea_4089
     RDKit          3D

 26 28  0  0  0  0  0  0  0  0999 V2000
    8.3730    1.0450   20.9970 O   0  0  0  0  0  0  0  0  0  0  0  0
    7.7960   -0.0250   20.8150 C   0  0  0  0  0  0  0  0  0  0  0  0
    6.4910   -0.2600   20.7970 N   0  0  0  0  0  0  0  0  0  0  0  0
    5.9550    0.3730   19.7580 C   0  0  0  0  0  0  0  0  0  0  0  0
    4.7620    1.0400   19.8820 C   0  0  0  0  0  0  0  0  0  0  0  0
    4.2930    1.7090   18.7720 C   0  0  0  0  0  0  0  0  0  0  0  0
    5.0550    1.6570   17.6200 C   0  0  0  0  0  0  0  0  0  0  0  0
    6.2110    0.9890   17.4970 N   0  0  0  0  0  0  0  0  0  0  0  0
    6.6310    0.3620   18.5800 C   0  0  0  0  0  0  0  0  0  0  0  0
    8.4560   -1.1380   20.5910 N   0  0  0  0  0  0  0  0  0  0  0  0
    9.1460   -1.2090   21.7320 C   0  0  0  0  0  0  0  0  0  0  0  0
    8.1460   -0.8360   22.8400 C   0  0  0  0  0  0  0  0  0  0  0  0
    8.4950   -0.7940   24.0870 C   0  0  0  0  0  0  0  0  0  0  0  0
    7.4200   -0.4020   25.3830 S   0  0  0  0  0  0  0  0  0  0  0  0
    8.1830   -0.1810   26.5900 O   0  0  0  0  0  0  0  0  0  0  0  0
    6.4550    0.5720   24.9210 O   0  0  0  0  0  0  0  0  0  0  0  0
    6.5960   -1.8890   25.6280 N   0  0  0  0  0  0  0  0  0  0  0  0
    5.3020   -2.0070   25.2610 C   0  0  0  0  0  0  0  0  0  0  0  0
    4.6180   -3.1640   25.6230 C   0  0  0  0  0  0  0  0  0  0  0  0
    5.3980   -4.0100   26.0410 O   0  0  0  0  0  0  0  0  0  0  0  0
    6.6800   -3.9870   25.3880 C   0  0  0  0  0  0  0  0  0  0  0  0
    7.4250   -2.9310   25.8880 C   0  0  0  0  0  0  0  0  0  0  0  0
    9.8470   -1.1180   24.1280 C   0  0  0  0  0  0  0  0  0  0  0  0
   10.8560   -1.4830   22.9630 C   0  0  0  0  0  0  0  0  0  0  0  0
   10.6240   -1.5800   21.7230 C   0  0  0  0  0  0  0  0  0  0  0  0
   11.6530   -1.9440   20.8140 O   0  0  0  0  0  0  0  0  0  0  0  0
  1  2  2  0
  2  3  1  0
  3  4  1  0
  4  5  2  0
  5  6  1  0
  6  7  2  0
  7  8  1  0
  4  9  1  0
  8  9  2  0
  2 10  1  0
 10 11  1  0
 11 12  2  0
 12 13  1  0
 14 13  1  0
 14 15  2  0
 14 16  2  0
 14 17  1  0
 17 18  1  0
 18 19  1  0
 19 20  1  0
 20 21  1  0
 17 22  1  0
 21 22  1  0
 13 23  2  0
 23 24  1  0
 11 25  1  0
 24 25  2  0
 25 26  1  0
M  END
