pyridine_urea_7913
     RDKit          3D

 25 26  0  0  0  0  0  0  0  0999 V2000
    8.9610    1.4050   21.1110 O   0  0  0  0  0  0  0  0  0  0  0  0
    8.3250    0.4820   21.6160 C   0  0  0  0  0  0  0  0  0  0  0  0
    7.3330   -0.2660   21.0380 N   0  0  0  0  0  0  0  0  0  0  0  0
    6.5820    0.2410   19.9920 C   0  0  0  0  0  0  0  0  0  0  0  0
    5.4160    0.9490   20.2820 C   0  0  0  0  0  0  0  0  0  0  0  0
    4.6640    1.4880   19.2440 C   0  0  0  0  0  0  0  0  0  0  0  0
    5.1220    1.2900   17.9620 C   0  0  0  0  0  0  0  0  0  0  0  0
    6.2290    0.6060   17.6590 N   0  0  0  0  0  0  0  0  0  0  0  0
    6.9310    0.0970   18.6790 C   0  0  0  0  0  0  0  0  0  0  0  0
    8.5290    0.0940   22.9030 N   0  0  0  0  0  0  0  0  0  0  0  0
    9.7230   -0.6490   23.2780 C   0  0  2  0  0  0  0  0  0  0  0  0
   10.9940    0.1710   23.0970 C   0  0  0  0  0  0  0  0  0  0  0  0
   11.3880    1.2770   22.7270 C   0  0  0  0  0  0  0  0  0  0  0  0
   12.5610    0.6550   23.0570 C   0  0  0  0  0  0  0  0  0  0  0  0
   11.3950   -0.3750   23.3450 C   0  0  0  0  0  0  0  0  0  0  0  0
   12.2650   -1.3920   23.8130 C   0  0  0  0  0  0  0  0  0  0  0  0
   13.5350   -1.6650   24.0230 N   0  0  0  0  0  0  0  0  0  0  0  0
   14.0240   -2.0790   22.9840 O   0  0  0  0  0  0  0  0  0  0  0  0
   13.8080   -2.2060   25.2800 O   0  0  0  0  0  0  0  0  0  0  0  0
   12.3470   -0.2490   23.3790 C   0  0  0  0  0  0  0  0  0  0  0  0
   13.4980    0.4270   23.2170 F   0  0  0  0  0  0  0  0  0  0  0  0
    9.8210   -2.0430   22.6130 C   0  0  0  0  0  0  0  0  0  0  0  0
    8.6830   -2.3620   21.9430 F   0  0  0  0  0  0  0  0  0  0  0  0
   10.8600   -2.1320   21.7490 F   0  0  0  0  0  0  0  0  0  0  0  0
   10.0030   -3.0040   23.5480 F   0  0  0  0  0  0  0  0  0  0  0  0
  1  2  2  0
  2  3  1  0
  3  4  1  0
  4  5  2  0
  5  6  1  0
  6  7  2  0
  7  8  1  0
  4  9  1  0
  8  9  2  0
  2 10  1  0
 11 10  1  6
 11 12  1  0
 12 13  2  0
 13 14  1  0
 14 15  2  0
 15 16  1  0
 16 17  1  0
 17 18  2  0
 17 19  1  0
 12 20  1  0
 16 20  2  0
 20 21  1  0
 11 22  1  0
 22 23  1  0
 22 24  1  0
 22 25  1  0
M  CHG  2  17   1  19  -1
M  END
