pyridine_urea_6563
     RDKit          3D

 22 24  0  0  0  0  0  0  0  0999 V2000
    8.8370    1.4190   21.0940 O   0  0  0  0  0  0  0  0  0  0  0  0
    8.5960    0.2720   21.4780 C   0  0  0  0  0  0  0  0  0  0  0  0
    9.3380   -0.4170   22.4020 N   0  0  0  0  0  0  0  0  0  0  0  0
   10.1460    0.1990   23.4130 C   0  0  0  0  0  0  0  0  0  0  0  0
   11.5860    0.7050   23.1450 C   0  0  0  0  0  0  0  0  0  0  0  0
   11.9580    2.0260   22.7770 C   0  0  0  0  0  0  0  0  0  0  0  0
   12.8250    0.7880   23.0030 C   0  0  0  0  0  0  0  0  0  0  0  0
   11.4630    0.2450   23.3330 C   0  0  0  0  0  0  0  0  0  0  0  0
   10.4920   -0.7150   23.7250 C   0  0  0  0  0  0  0  0  0  0  0  0
    9.4760   -0.5750   24.7210 C   0  0  0  0  0  0  0  0  0  0  0  0
    8.8180   -1.7370   24.6910 N   0  0  0  0  0  0  0  0  0  0  0  0
    9.4870   -2.4530   23.7220 C   0  0  0  0  0  0  0  0  0  0  0  0
   10.4480   -1.8740   23.1650 O   0  0  0  0  0  0  0  0  0  0  0  0
   12.3660   -0.9460   23.5160 C   0  0  0  0  0  0  0  0  0  0  0  0
   13.0610    0.0520   23.1580 C   0  0  0  0  0  0  0  0  0  0  0  0
    7.5040   -0.4340   21.0080 N   0  0  0  0  0  0  0  0  0  0  0  0
    6.6730    0.1270   20.1100 C   0  0  0  0  0  0  0  0  0  0  0  0
    5.4000    0.9110   20.4080 C   0  0  0  0  0  0  0  0  0  0  0  0
    4.7240    1.4200   19.3260 C   0  0  0  0  0  0  0  0  0  0  0  0
    5.1140    1.2660   18.0090 C   0  0  0  0  0  0  0  0  0  0  0  0
    6.2080    0.5800   17.6590 N   0  0  0  0  0  0  0  0  0  0  0  0
    6.9860    0.0050   18.7740 C   0  0  0  0  0  0  0  0  0  0  0  0
  1  2  2  0
  2  3  1  0
  3  4  1  0
  4  5  1  0
  5  6  2  0
  6  7  1  0
  7  8  2  0
  8  9  1  0
  9 10  2  0
 10 11  1  0
 11 12  2  0
  9 13  1  0
 12 13  1  0
  8 14  1  0
  5 15  1  0
 14 15  2  0
  2 16  1  0
 16 17  1  0
 17 18  2  0
 18 19  1  0
 19 20  2  0
 20 21  1  0
 17 22  1  0
 21 22  2  0
M  END
