pyridine_urea_1126
     RDKit          3D

 21 22  0  0  0  0  0  0  0  0999 V2000
   11.7130   -3.0030   24.4530 C   0  0  0  0  0  0  0  0  0  0  0  0
   12.9650   -2.2550   24.6400 C   0  0  0  0  0  0  0  0  0  0  0  0
   13.8590   -2.6270   25.6190 C   0  0  0  0  0  0  0  0  0  0  0  0
   13.6280   -2.4660   23.2920 C   0  0  0  0  0  0  0  0  0  0  0  0
   12.6770   -1.0730   24.6980 O   0  0  0  0  0  0  0  0  0  0  0  0
   11.5250   -0.8350   24.0480 C   0  0  1  0  0  0  0  0  0  0  0  0
   10.7260    0.3140   24.2610 C   0  0  0  0  0  0  0  0  0  0  0  0
   10.5390    0.1540   22.8000 C   0  0  2  0  0  0  0  0  0  0  0  0
    9.3010   -0.3480   22.3400 N   0  0  0  0  0  0  0  0  0  0  0  0
    8.5190    0.3390   21.4470 C   0  0  0  0  0  0  0  0  0  0  0  0
    8.8110    1.4770   21.0850 O   0  0  0  0  0  0  0  0  0  0  0  0
    7.3500   -0.4000   21.0070 N   0  0  0  0  0  0  0  0  0  0  0  0
    6.5610    0.1420   20.0500 C   0  0  0  0  0  0  0  0  0  0  0  0
    5.3800    0.8310   20.3310 C   0  0  0  0  0  0  0  0  0  0  0  0
    4.6400    1.3850   19.2870 C   0  0  0  0  0  0  0  0  0  0  0  0
    5.1110    1.2290   18.0000 C   0  0  0  0  0  0  0  0  0  0  0  0
    6.2280    0.5690   17.6790 N   0  0  0  0  0  0  0  0  0  0  0  0
    6.9430    0.0260   18.7380 C   0  0  0  0  0  0  0  0  0  0  0  0
   11.6930   -0.7140   22.6530 C   0  0  0  0  0  0  0  0  0  0  0  0
   12.9710   -0.2110   22.4000 C   0  0  0  0  0  0  0  0  0  0  0  0
   11.4290   -1.8620   21.8650 C   0  0  0  0  0  0  0  0  0  0  0  0
  1  2  1  0
  2  3  1  0
  2  4  1  0
  2  5  1  0
  6  5  1  1
  6  7  1  0
  7  8  1  0
  8  9  1  1
  9 10  1  0
 10 11  2  0
 10 12  1  0
 12 13  1  0
 13 14  2  0
 14 15  1  0
 15 16  2  0
 16 17  1  0
 13 18  1  0
 17 18  2  0
  6 19  1  0
  8 19  1  0
 19 20  1  0
 19 21  1  0
M  END
