pyridine_urea_10082
     RDKit          3D

 24 26  0  0  0  0  0  0  0  0999 V2000
   13.4000   -0.7540   24.2490 C   0  0  0  0  0  0  0  0  0  0  0  0
   12.0880   -0.8380   23.7560 C   0  0  0  0  0  0  0  0  0  0  0  0
   11.8840   -1.1710   22.4660 C   0  0  0  0  0  0  0  0  0  0  0  0
   10.6030   -1.2690   22.0430 C   0  0  0  0  0  0  0  0  0  0  0  0
    9.5820   -1.0250   22.9330 C   0  0  0  0  0  0  0  0  0  0  0  0
    8.2750   -1.1190   22.5880 N   0  0  0  0  0  0  0  0  0  0  0  0
    7.9780   -0.2340   21.4780 C   0  0  0  0  0  0  0  0  0  0  0  0
    8.6640    0.7400   21.1920 O   0  0  0  0  0  0  0  0  0  0  0  0
    6.8570   -0.6650   20.8700 N   0  0  0  0  0  0  0  0  0  0  0  0
    6.2400    0.0500   19.9170 C   0  0  0  0  0  0  0  0  0  0  0  0
    5.0580    0.7580   20.0450 C   0  0  0  0  0  0  0  0  0  0  0  0
    4.4950    1.4890   19.0080 C   0  0  0  0  0  0  0  0  0  0  0  0
    5.1610    1.5020   17.7910 C   0  0  0  0  0  0  0  0  0  0  0  0
    6.3160    0.8340   17.5800 N   0  0  0  0  0  0  0  0  0  0  0  0
    6.8430    0.0950   18.6920 C   0  0  0  0  0  0  0  0  0  0  0  0
    9.7130   -0.6630   24.2680 C   0  0  0  0  0  0  0  0  0  0  0  0
    8.6970   -0.4790   24.9410 O   0  0  0  0  0  0  0  0  0  0  0  0
    8.7120    0.5250   25.8830 C   0  0  0  0  0  0  0  0  0  0  0  0
    8.2350    0.1700   27.1490 C   0  0  2  0  0  0  0  0  0  0  0  0
    7.4830    1.2130   27.7150 C   0  0  0  0  0  0  0  0  0  0  0  0
    7.7700    1.2860   29.0670 C   0  0  0  0  0  0  0  0  0  0  0  0
    8.8290    0.4560   29.3540 C   0  0  0  0  0  0  0  0  0  0  0  0
    9.2000   -0.1160   28.1050 O   0  0  0  0  0  0  0  0  0  0  0  0
   10.9950   -0.5570   24.7240 C   0  0  0  0  0  0  0  0  0  0  0  0
  1  2  1  0
  2  3  2  0
  3  4  1  0
  4  5  2  0
  5  6  1  0
  6  7  1  0
  7  8  2  0
  7  9  1  0
  9 10  1  0
 10 11  2  0
 11 12  1  0
 12 13  2  0
 13 14  1  0
 10 15  1  0
 14 15  2  0
  5 16  1  0
 16 17  1  0
 17 18  1  0
 19 18  1  6
 19 20  1  0
 20 21  1  0
 21 22  1  0
 19 23  1  0
 22 23  1  0
  2 24  1  0
 16 24  2  0
M  END
