pyridine_urea_4894
     RDKit          3D

 18 20  0  0  0  0  0  0  0  0999 V2000
    8.3950    1.6450   20.8180 O   0  0  0  0  0  0  0  0  0  0  0  0
    8.4670    0.5830   21.4100 C   0  0  0  0  0  0  0  0  0  0  0  0
    7.5250   -0.3800   21.1700 N   0  0  0  0  0  0  0  0  0  0  0  0
    6.7520    0.0530   20.0340 C   0  0  0  0  0  0  0  0  0  0  0  0
    5.5040    0.8920   20.3600 C   0  0  0  0  0  0  0  0  0  0  0  0
    4.7090    1.3940   19.3350 C   0  0  0  0  0  0  0  0  0  0  0  0
    5.0910    1.1090   18.0340 C   0  0  0  0  0  0  0  0  0  0  0  0
    6.2010    0.3500   17.7820 N   0  0  0  0  0  0  0  0  0  0  0  0
    7.0450   -0.1930   18.7550 C   0  0  0  0  0  0  0  0  0  0  0  0
    9.4700    0.3450   22.2830 N   0  0  0  0  0  0  0  0  0  0  0  0
   10.5590    0.3290   23.0700 C   0  0  1  0  0  0  0  0  0  0  0  0
   10.4300   -0.3630   24.3450 C   0  0  0  0  0  0  0  0  0  0  0  0
   11.6270   -0.9710   24.1410 C   0  0  0  0  0  0  0  0  0  0  0  0
   12.5010   -1.9340   24.8170 C   0  0  0  0  0  0  0  0  0  0  0  0
   13.7490   -2.3270   24.2070 C   0  0  0  0  0  0  0  0  0  0  0  0
   13.0080   -1.3830   23.4520 C   0  0  0  0  0  0  0  0  0  0  0  0
   12.9560   -0.6560   22.3580 C   0  0  0  0  0  0  0  0  0  0  0  0
   11.7830   -0.3310   22.9590 C   0  0  0  0  0  0  0  0  0  0  0  0
  1  2  2  0
  2  3  1  0
  3  4  1  0
  4  5  2  0
  5  6  1  0
  6  7  2  0
  7  8  1  0
  4  9  1  0
  8  9  2  0
  2 10  1  0
 11 10  1  6
 11 12  1  0
 12 13  1  0
 13 14  2  0
 14 15  1  0
 15 16  2  0
 16 17  1  0
 11 18  1  0
 13 18  1  0
 17 18  2  0
M  END
