pyridine_urea_133
     RDKit          3D

 20 21  0  0  0  0  0  0  0  0999 V2000
    9.8100    0.1030   23.9720 C   0  0  0  0  0  0  0  0  0  0  0  0
   10.3430   -0.4760   23.0700 C   0  0  1  0  0  0  0  0  0  0  0  0
   11.1990   -1.4770   22.2970 C   0  0  0  0  0  0  0  0  0  0  0  0
   12.6390   -1.2610   22.5960 C   0  0  0  0  0  0  0  0  0  0  0  0
   13.3280   -1.3840   21.3580 O   0  0  0  0  0  0  0  0  0  0  0  0
   13.1080   -2.2000   23.4860 C   0  0  0  0  0  0  0  0  0  0  0  0
   13.1590   -1.9750   24.9960 C   0  0  0  0  0  0  0  0  0  0  0  0
   13.0480   -0.6350   25.2370 O   0  0  0  0  0  0  0  0  0  0  0  0
   12.2870    0.0600   24.2400 C   0  0  0  0  0  0  0  0  0  0  0  0
   12.8450    0.0520   23.0280 C   0  0  0  0  0  0  0  0  0  0  0  0
    9.1240   -0.7770   22.3300 N   0  0  0  0  0  0  0  0  0  0  0  0
    8.4510    0.1060   21.5270 C   0  0  0  0  0  0  0  0  0  0  0  0
    8.9440    1.1830   21.1720 O   0  0  0  0  0  0  0  0  0  0  0  0
    7.2070   -0.3560   21.1980 N   0  0  0  0  0  0  0  0  0  0  0  0
    6.4860    0.1980   20.0590 C   0  0  0  0  0  0  0  0  0  0  0  0
    5.3280    0.8940   20.3690 C   0  0  0  0  0  0  0  0  0  0  0  0
    4.6010    1.4720   19.3510 C   0  0  0  0  0  0  0  0  0  0  0  0
    5.1260    1.3060   17.9490 C   0  0  0  0  0  0  0  0  0  0  0  0
    6.2420    0.6180   17.6530 N   0  0  0  0  0  0  0  0  0  0  0  0
    6.9170    0.0710   18.6750 C   0  0  0  0  0  0  0  0  0  0  0  0
  2  1  1  1
  2  3  1  0
  3  4  1  0
  4  5  1  0
  4  6  1  0
  6  7  1  0
  7  8  1  0
  8  9  1  0
  4 10  1  0
  9 10  1  0
  2 11  1  0
 11 12  1  0
 12 13  2  0
 12 14  1  0
 14 15  1  0
 15 16  2  0
 16 17  1  0
 17 18  2  0
 18 19  1  0
 15 20  1  0
 19 20  2  0
M  END
