pyridine_urea_12549
     RDKit          3D

 21 22  0  0  0  0  0  0  0  0999 V2000
   13.0950    1.4390   22.8580 C   0  0  0  0  0  0  0  0  0  0  0  0
   12.4670    0.2850   23.4920 C   0  0  0  0  0  0  0  0  0  0  0  0
   13.2740   -0.6130   24.2170 N   0  0  0  0  0  0  0  0  0  0  0  0
   12.2640   -1.5480   24.6340 C   0  0  0  0  0  0  0  0  0  0  0  0
   12.5570   -2.6760   25.3790 N   0  0  0  0  0  0  0  0  0  0  0  0
   13.9380   -2.9860   25.5660 C   0  0  0  0  0  0  0  0  0  0  0  0
   11.6670   -3.4400   24.7190 C   0  0  0  0  0  0  0  0  0  0  0  0
   10.5310   -1.4100   24.2470 S   0  0  0  0  0  0  0  0  0  0  0  0
   11.1500    0.0150   23.4190 C   0  0  0  0  0  0  0  0  0  0  0  0
   10.0700    0.6660   22.7440 C   0  0  0  0  0  0  0  0  0  0  0  0
    9.5860   -0.5100   21.9260 C   0  0  0  0  0  0  0  0  0  0  0  0
    8.3010   -0.6830   21.7680 N   0  0  0  0  0  0  0  0  0  0  0  0
    7.7310    0.4810   21.4920 C   0  0  0  0  0  0  0  0  0  0  0  0
    8.7140    1.0350   21.9230 O   0  0  0  0  0  0  0  0  0  0  0  0
    6.7760   -0.5220   21.0670 N   0  0  0  0  0  0  0  0  0  0  0  0
    6.2090    0.0780   19.9830 C   0  0  0  0  0  0  0  0  0  0  0  0
    4.9010    0.8130   20.1440 C   0  0  0  0  0  0  0  0  0  0  0  0
    4.3820    1.4890   18.9130 C   0  0  0  0  0  0  0  0  0  0  0  0
    5.1050    1.4000   17.7450 C   0  0  0  0  0  0  0  0  0  0  0  0
    6.2640    0.7150   17.6470 N   0  0  0  0  0  0  0  0  0  0  0  0
    6.7820    0.0850   18.7260 C   0  0  0  0  0  0  0  0  0  0  0  0
  1  2  1  0
  2  3  1  0
  3  4  2  0
  4  5  1  0
  5  6  1  0
  5  7  1  0
  4  8  1  0
  2  9  2  0
  8  9  1  0
  9 10  1  0
 10 11  1  0
 11 12  1  0
 12 13  1  0
 13 14  2  0
 13 15  1  0
 15 16  1  0
 16 17  2  0
 17 18  1  0
 18 19  2  0
 19 20  1  0
 16 21  1  0
 20 21  2  0
M  END
