pyridine_urea_11275
     RDKit          3D

 17 17  0  0  0  0  0  0  0  0999 V2000
    9.0210   -0.4180   27.3810 C   0  0  0  0  0  0  0  0  0  0  0  0
    9.7610    0.1840   26.3270 O   0  0  0  0  0  0  0  0  0  0  0  0
    9.8090   -0.6270   25.1620 C   0  0  0  0  0  0  0  0  0  0  0  0
    9.4020   -1.7800   25.1190 O   0  0  0  0  0  0  0  0  0  0  0  0
   10.4140    0.1390   23.9720 C   0  0  1  0  0  0  0  0  0  0  0  0
   11.8450    0.5130   24.1590 C   0  0  0  0  0  0  0  0  0  0  0  0
   10.3480   -0.7220   22.6930 C   0  0  0  0  0  0  0  0  0  0  0  0
    9.0420   -0.9840   22.1460 N   0  0  0  0  0  0  0  0  0  0  0  0
    8.4100   -0.0260   21.3900 C   0  0  0  0  0  0  0  0  0  0  0  0
    8.9030    1.0910   21.1600 O   0  0  0  0  0  0  0  0  0  0  0  0
    7.1940   -0.4990   20.9550 N   0  0  0  0  0  0  0  0  0  0  0  0
    6.3760    0.1650   20.0390 C   0  0  0  0  0  0  0  0  0  0  0  0
    5.2240    0.7930   20.4140 C   0  0  0  0  0  0  0  0  0  0  0  0
    4.6240    1.4130   19.1600 C   0  0  0  0  0  0  0  0  0  0  0  0
    5.1910    1.3200   17.9100 C   0  0  0  0  0  0  0  0  0  0  0  0
    6.3110    0.6710   17.6800 N   0  0  0  0  0  0  0  0  0  0  0  0
    6.8570    0.1200   18.7500 C   0  0  0  0  0  0  0  0  0  0  0  0
  1  2  1  0
  2  3  1  0
  3  4  2  0
  3  5  1  0
  5  6  1  1
  5  7  1  0
  7  8  1  0
  8  9  1  0
  9 10  2  0
  9 11  1  0
 11 12  1  0
 12 13  2  0
 13 14  1  0
 14 15  2  0
 15 16  1  0
 12 17  1  0
 16 17  2  0
M  END
