pyridine_urea_1408
     RDKit          3D

 20 22  0  0  0  0  0  0  0  0999 V2000
    8.2980    1.5300   20.8800 O   0  0  0  0  0  0  0  0  0  0  0  0
    8.0730    0.3770   21.2420 C   0  0  0  0  0  0  0  0  0  0  0  0
    6.9010   -0.2620   21.0530 N   0  0  0  0  0  0  0  0  0  0  0  0
    6.3510    0.2590   19.8800 C   0  0  0  0  0  0  0  0  0  0  0  0
    5.0830    1.0830   20.0710 C   0  0  0  0  0  0  0  0  0  0  0  0
    4.4910    1.6730   18.9760 C   0  0  0  0  0  0  0  0  0  0  0  0
    5.1010    1.4780   17.7420 C   0  0  0  0  0  0  0  0  0  0  0  0
    6.2310    0.7150   17.6230 N   0  0  0  0  0  0  0  0  0  0  0  0
    6.8750    0.0910   18.6740 C   0  0  0  0  0  0  0  0  0  0  0  0
    8.9340   -0.3950   21.8360 N   0  0  0  0  0  0  0  0  0  0  0  0
    9.8510   -1.0690   22.4160 C   0  0  0  0  0  0  0  0  0  0  0  0
    9.9690   -2.4160   22.3440 C   0  0  0  0  0  0  0  0  0  0  0  0
   11.1690   -2.4830   22.8700 C   0  0  0  0  0  0  0  0  0  0  0  0
   12.1510   -1.9320   22.1010 C   0  0  0  0  0  0  0  0  0  0  0  0
   13.4040   -1.9080   22.6010 C   0  0  0  0  0  0  0  0  0  0  0  0
   13.5880   -2.5070   23.9440 C   0  0  0  0  0  0  0  0  0  0  0  0
   12.6300   -3.0550   24.6760 C   0  0  0  0  0  0  0  0  0  0  0  0
   11.3490   -3.0410   24.1080 C   0  0  0  0  0  0  0  0  0  0  0  0
   11.2250   -0.3670   22.7000 C   0  0  0  0  0  0  0  0  0  0  0  0
   10.3230   -0.3650   23.7040 C   0  0  0  0  0  0  0  0  0  0  0  0
  1  2  2  0
  2  3  1  0
  3  4  1  0
  4  5  2  0
  5  6  1  0
  6  7  2  0
  7  8  1  0
  4  9  1  0
  8  9  2  0
  2 10  1  0
 11 10  1  0
 11 12  1  0
 12 13  1  0
 13 14  2  0
 14 15  1  0
 15 16  2  0
 16 17  1  0
 13 18  1  0
 17 18  2  0
 11 19  1  0
 11 20  1  0
 19 20  1  0
M  END
