pyridine_urea_2581
     RDKit          3D

 23 24  0  0  0  0  0  0  0  0999 V2000
   13.5810   -2.7220   22.8620 C   0  0  0  0  0  0  0  0  0  0  0  0
   13.3460   -2.6670   21.3300 C   0  0  0  0  0  0  0  0  0  0  0  0
   13.9430   -3.4870   20.3680 C   0  0  0  0  0  0  0  0  0  0  0  0
   13.6720   -1.3880   20.7590 C   0  0  0  0  0  0  0  0  0  0  0  0
   12.0080   -2.4620   21.2160 O   0  0  0  0  0  0  0  0  0  0  0  0
   11.7410   -1.5710   22.1450 C   0  0  0  0  0  0  0  0  0  0  0  0
   10.6420   -1.7520   22.8010 C   0  0  0  0  0  0  0  0  0  0  0  0
   10.2860   -0.8930   23.7850 C   0  0  0  0  0  0  0  0  0  0  0  0
   11.0090    0.3780   24.3160 C   0  0  0  0  0  0  0  0  0  0  0  0
    9.8030    0.0080   24.8720 C   0  0  0  0  0  0  0  0  0  0  0  0
    9.1790   -0.8010   23.8950 C   0  0  0  0  0  0  0  0  0  0  0  0
    8.2400   -0.0380   23.1010 N   0  0  0  0  0  0  0  0  0  0  0  0
    8.1740    0.2340   21.7670 C   0  0  0  0  0  0  0  0  0  0  0  0
    9.0040    1.2720   21.2370 O   0  0  0  0  0  0  0  0  0  0  0  0
    7.2630   -0.4930   21.0540 N   0  0  0  0  0  0  0  0  0  0  0  0
    6.5050    0.1240   20.0540 C   0  0  0  0  0  0  0  0  0  0  0  0
    5.3260    0.8400   20.2710 C   0  0  0  0  0  0  0  0  0  0  0  0
    4.6560    1.4480   19.2070 C   0  0  0  0  0  0  0  0  0  0  0  0
    5.1230    1.3740   17.8930 C   0  0  0  0  0  0  0  0  0  0  0  0
    6.3310    0.6200   17.7100 N   0  0  0  0  0  0  0  0  0  0  0  0
    6.9530    0.0390   18.7630 C   0  0  0  0  0  0  0  0  0  0  0  0
   12.1820    0.4000   23.4890 C   0  0  0  0  0  0  0  0  0  0  0  0
   12.5200   -0.4940   22.4900 C   0  0  0  0  0  0  0  0  0  0  0  0
  1  2  1  0
  2  3  1  0
  2  4  1  0
  2  5  1  0
  5  6  1  0
  6  7  2  0
  7  8  1  0
  8  9  2  0
  9 10  1  0
 10 11  1  0
 11 12  1  0
 12 13  1  0
 13 14  2  0
 13 15  1  0
 15 16  1  0
 16 17  2  0
 17 18  1  0
 18 19  2  0
 19 20  1  0
 16 21  1  0
 20 21  2  0
  9 22  1  0
  6 23  1  0
 22 23  2  0
M  END
