pyridine_urea_2022
     RDKit          3D

 22 23  0  0  0  0  0  0  0  0999 V2000
    8.1760    0.8670   23.8530 C   0  0  0  0  0  0  0  0  0  0  0  0
    9.3760    0.2140   23.6090 N   0  0  0  0  0  0  0  0  0  0  0  0
    9.5050   -0.8940   22.4780 N   0  0  0  0  0  0  0  0  0  0  0  0
   10.8430   -1.3860   22.4580 C   0  0  0  0  0  0  0  0  0  0  0  0
   10.2370   -0.4470   23.2290 C   0  0  0  0  0  0  0  0  0  0  0  0
    8.9430   -0.3920   22.7890 N   0  0  0  0  0  0  0  0  0  0  0  0
    8.4660    0.2730   21.6150 C   0  0  0  0  0  0  0  0  0  0  0  0
    8.9480    1.3230   21.1710 O   0  0  0  0  0  0  0  0  0  0  0  0
    7.3750   -0.3910   21.0650 N   0  0  0  0  0  0  0  0  0  0  0  0
    6.6170    0.1640   20.0300 C   0  0  0  0  0  0  0  0  0  0  0  0
    5.4780    0.8860   20.3560 C   0  0  0  0  0  0  0  0  0  0  0  0
    4.7420    1.4530   19.3280 C   0  0  0  0  0  0  0  0  0  0  0  0
    5.1490    1.2910   18.0180 C   0  0  0  0  0  0  0  0  0  0  0  0
    6.2330    0.5910   17.6780 N   0  0  0  0  0  0  0  0  0  0  0  0
    6.9420    0.0440   18.6940 C   0  0  0  0  0  0  0  0  0  0  0  0
   10.5880    0.4330   24.3060 C   0  0  0  0  0  0  0  0  0  0  0  0
   11.8780   -0.1340   24.2070 C   0  0  0  0  0  0  0  0  0  0  0  0
   12.5610    0.2710   23.0330 C   0  0  0  0  0  0  0  0  0  0  0  0
   12.9340   -1.1420   22.5520 C   0  0  0  0  0  0  0  0  0  0  0  0
   13.5970   -1.9460   23.3890 F   0  0  0  0  0  0  0  0  0  0  0  0
   11.8240   -1.8580   22.2580 F   0  0  0  0  0  0  0  0  0  0  0  0
   13.6300   -1.1000   21.4070 F   0  0  0  0  0  0  0  0  0  0  0  0
  1  2  1  0
  2  3  1  0
  3  4  2  0
  4  5  1  0
  5  6  1  0
  6  7  1  0
  7  8  2  0
  7  9  1  0
  9 10  1  0
 10 11  2  0
 11 12  1  0
 12 13  2  0
 13 14  1  0
 10 15  1  0
 14 15  2  0
  2 16  1  0
  5 16  2  0
 16 17  1  0
 17 18  1  0
 18 19  1  0
 19 20  1  0
 19 21  1  0
 19 22  1  0
M  END
