pyridine_urea_14682
     RDKit          3D

 21 22  0  0  0  0  0  0  0  0999 V2000
   12.3800    4.8470   21.4050 C   0  0  0  0  0  0  0  0  0  0  0  0
   12.2300    4.3830   22.8140 C   0  0  0  0  0  0  0  0  0  0  0  0
   12.8100    5.2640   23.7050 C   0  0  0  0  0  0  0  0  0  0  0  0
   10.7590    4.2160   23.2600 C   0  0  0  0  0  0  0  0  0  0  0  0
   13.0930    2.8510   22.9010 S   0  0  0  0  0  0  0  0  0  0  0  0
   12.1210    1.4270   22.8180 C   0  0  0  0  0  0  0  0  0  0  0  0
   10.8000    1.6540   22.9190 C   0  0  0  0  0  0  0  0  0  0  0  0
    9.7540    0.6230   22.8200 C   0  0  0  0  0  0  0  0  0  0  0  0
   10.1480   -0.6530   22.5980 C   0  0  0  0  0  0  0  0  0  0  0  0
    8.9940   -1.5220   22.4350 N   0  0  0  0  0  0  0  0  0  0  0  0
    8.1560   -0.6890   21.4910 C   0  0  0  0  0  0  0  0  0  0  0  0
    8.5560    0.4070   21.1170 O   0  0  0  0  0  0  0  0  0  0  0  0
    6.8880   -1.1970   21.0450 N   0  0  0  0  0  0  0  0  0  0  0  0
    6.3020   -0.3680   20.0640 C   0  0  0  0  0  0  0  0  0  0  0  0
    5.1350    0.3780   20.2790 C   0  0  0  0  0  0  0  0  0  0  0  0
    4.5670    1.2460   19.2140 C   0  0  0  0  0  0  0  0  0  0  0  0
    5.1720    1.3490   17.9690 C   0  0  0  0  0  0  0  0  0  0  0  0
    6.3340    0.5770   17.8110 N   0  0  0  0  0  0  0  0  0  0  0  0
    6.8580   -0.2230   18.7910 C   0  0  0  0  0  0  0  0  0  0  0  0
   11.6330   -0.9430   22.5190 C   0  0  0  0  0  0  0  0  0  0  0  0
   12.5880    0.0900   22.6330 C   0  0  0  0  0  0  0  0  0  0  0  0
  1  2  1  0
  2  3  1  0
  2  4  1  0
  2  5  1  0
  5  6  1  0
  6  7  2  0
  7  8  1  0
  8  9  2  0
  9 10  1  0
 10 11  1  0
 11 12  2  0
 11 13  1  0
 13 14  1  0
 14 15  2  0
 15 16  1  0
 16 17  2  0
 17 18  1  0
 14 19  1  0
 18 19  2  0
  9 20  1  0
  6 21  1  0
 20 21  2  0
M  END
