pyridine_urea_2844
     RDKit          3D

 22 23  0  0  0  0  0  0  0  0999 V2000
   11.0420   -2.9700   23.9830 C   0  0  0  0  0  0  0  0  0  0  0  0
   12.2660   -2.1030   23.9430 C   0  0  0  0  0  0  0  0  0  0  0  0
   13.5800   -2.8450   24.2930 C   0  0  0  0  0  0  0  0  0  0  0  0
   12.1370   -0.9360   24.9360 C   0  0  0  0  0  0  0  0  0  0  0  0
   12.2730   -1.5890   22.6270 O   0  0  0  0  0  0  0  0  0  0  0  0
   11.7630   -0.3130   22.7000 C   0  0  0  0  0  0  0  0  0  0  0  0
   12.7520    0.6390   22.8250 C   0  0  0  0  0  0  0  0  0  0  0  0
   12.3510    2.1020   22.9640 C   0  0  0  0  0  0  0  0  0  0  0  0
   13.2370    3.0760   23.0530 F   0  0  0  0  0  0  0  0  0  0  0  0
   10.9180    2.5540   23.0060 C   0  0  0  0  0  0  0  0  0  0  0  0
    9.9560    1.4140   22.8450 C   0  0  0  0  0  0  0  0  0  0  0  0
   10.3980   -0.0100   22.6740 C   0  0  0  0  0  0  0  0  0  0  0  0
    9.2630   -0.9040   22.4810 N   0  0  0  0  0  0  0  0  0  0  0  0
    8.4390   -0.2470   21.5560 C   0  0  0  0  0  0  0  0  0  0  0  0
    8.7520    0.8640   21.1610 O   0  0  0  0  0  0  0  0  0  0  0  0
    7.2570   -0.8680   21.0970 N   0  0  0  0  0  0  0  0  0  0  0  0
    6.4760   -0.1880   20.1550 C   0  0  0  0  0  0  0  0  0  0  0  0
    5.2720    0.4760   20.4140 C   0  0  0  0  0  0  0  0  0  0  0  0
    4.6170    1.1340   19.3630 C   0  0  0  0  0  0  0  0  0  0  0  0
    5.1990    1.0980   18.1090 C   0  0  0  0  0  0  0  0  0  0  0  0
    6.3390    0.4750   17.8180 N   0  0  0  0  0  0  0  0  0  0  0  0
    6.9500   -0.1540   18.8440 C   0  0  0  0  0  0  0  0  0  0  0  0
  1  2  1  0
  2  3  1  0
  2  4  1  0
  2  5  1  0
  5  6  1  0
  6  7  2  0
  7  8  1  0
  8  9  1  0
  8 10  2  0
 10 11  1  0
  6 12  1  0
 11 12  2  0
 12 13  1  0
 13 14  1  0
 14 15  2  0
 14 16  1  0
 16 17  1  0
 17 18  2  0
 18 19  1  0
 19 20  2  0
 20 21  1  0
 17 22  1  0
 21 22  2  0
M  END
