pyridine_urea_2647
     RDKit          3D

 23 25  0  0  0  0  0  0  0  0999 V2000
   11.6980    6.8900   23.3830 C   0  0  0  0  0  0  0  0  0  0  0  0
   11.7180    5.3850   23.2240 C   0  0  0  0  0  0  0  0  0  0  0  0
   10.5930    4.5750   23.3770 C   0  0  0  0  0  0  0  0  0  0  0  0
   10.5740    3.1800   23.2430 C   0  0  0  0  0  0  0  0  0  0  0  0
   11.8040    2.6020   22.9340 C   0  0  0  0  0  0  0  0  0  0  0  0
   11.7720    1.1350   22.8210 N   0  0  0  0  0  0  0  0  0  0  0  0
   12.7720    0.3230   23.2630 C   0  0  0  0  0  0  0  0  0  0  0  0
   12.8830   -0.7900   22.4500 C   0  0  0  0  0  0  0  0  0  0  0  0
   11.5500   -1.4920   22.2020 C   0  0  0  0  0  0  0  0  0  0  0  0
   10.3930   -0.8280   22.6650 C   0  0  2  0  0  0  0  0  0  0  0  0
    9.4020   -1.0680   21.7240 N   0  0  0  0  0  0  0  0  0  0  0  0
    8.3720   -0.1840   21.3320 C   0  0  0  0  0  0  0  0  0  0  0  0
    8.5890    1.0090   21.2060 O   0  0  0  0  0  0  0  0  0  0  0  0
    7.1670   -0.7450   21.0820 N   0  0  0  0  0  0  0  0  0  0  0  0
    6.4620   -0.0670   20.1410 C   0  0  0  0  0  0  0  0  0  0  0  0
    5.2970    0.6710   20.3600 C   0  0  0  0  0  0  0  0  0  0  0  0
    4.6890    1.3270   19.2970 C   0  0  0  0  0  0  0  0  0  0  0  0
    5.2110    1.2680   18.0260 C   0  0  0  0  0  0  0  0  0  0  0  0
    6.3220    0.5770   17.7360 N   0  0  0  0  0  0  0  0  0  0  0  0
    6.9330   -0.0900   18.8230 C   0  0  0  0  0  0  0  0  0  0  0  0
   10.4120    0.5640   22.8520 C   0  0  0  0  0  0  0  0  0  0  0  0
   12.9800    3.3110   22.7520 C   0  0  0  0  0  0  0  0  0  0  0  0
   13.0030    4.6830   22.8800 C   0  0  0  0  0  0  0  0  0  0  0  0
  1  2  1  0
  2  3  2  0
  3  4  1  0
  4  5  2  0
  5  6  1  0
  6  7  1  0
  7  8  1  0
  8  9  1  0
  9 10  1  0
 10 11  1  6
 11 12  1  0
 12 13  2  0
 12 14  1  0
 14 15  1  0
 15 16  2  0
 16 17  1  0
 17 18  2  0
 18 19  1  0
 15 20  1  0
 19 20  2  0
  6 21  1  0
 10 21  1  0
  5 22  1  0
  2 23  1  0
 22 23  2  0
M  END
