pyridine_urea_13635
     RDKit          3D

 26 27  0  0  0  0  0  0  0  0999 V2000
   13.4210    0.0960   22.4030 C   0  0  0  0  0  0  0  0  0  0  0  0
   13.1030   -0.8160   23.4450 O   0  0  0  0  0  0  0  0  0  0  0  0
   11.8960   -1.4340   23.2540 C   0  0  0  0  0  0  0  0  0  0  0  0
   11.8070   -2.6690   23.2050 O   0  0  0  0  0  0  0  0  0  0  0  0
   10.7200   -0.3950   23.1300 C   0  0  1  0  0  0  0  0  0  0  0  0
    9.6000   -0.8030   22.1340 N   0  0  0  0  0  0  0  0  0  0  0  0
    8.7630    0.1250   21.4920 C   0  0  0  0  0  0  0  0  0  0  0  0
    9.1130    1.2900   21.2780 O   0  0  0  0  0  0  0  0  0  0  0  0
    7.5320   -0.3990   21.1220 N   0  0  0  0  0  0  0  0  0  0  0  0
    6.7240    0.1390   20.1000 C   0  0  0  0  0  0  0  0  0  0  0  0
    5.5940    0.8740   20.4380 C   0  0  0  0  0  0  0  0  0  0  0  0
    4.8150    1.4140   19.4250 C   0  0  0  0  0  0  0  0  0  0  0  0
    5.1720    1.2160   18.1030 C   0  0  0  0  0  0  0  0  0  0  0  0
    6.2430    0.5100   17.7410 N   0  0  0  0  0  0  0  0  0  0  0  0
    6.9960   -0.0150   18.7430 C   0  0  0  0  0  0  0  0  0  0  0  0
    9.9880   -0.0390   24.4670 C   0  0  0  0  0  0  0  0  0  0  0  0
   10.9010    0.9170   24.0240 C   0  0  0  0  0  0  0  0  0  0  0  0
   11.6210    0.6440   22.8810 C   0  0  0  0  0  0  0  0  0  0  0  0
   11.1370   -0.7500   22.4240 C   0  0  0  0  0  0  0  0  0  0  0  0
   10.1370   -1.5300   23.1040 C   0  0  0  0  0  0  0  0  0  0  0  0
    9.3660   -1.2860   24.2940 C   0  0  0  0  0  0  0  0  0  0  0  0
    9.0470   -2.5600   23.6930 O   0  0  0  0  0  0  0  0  0  0  0  0
    7.7520   -3.0580   24.1240 C   0  0  0  0  0  0  0  0  0  0  0  0
    7.2370   -2.4000   25.1760 F   0  0  0  0  0  0  0  0  0  0  0  0
    6.8320   -2.9410   23.1210 F   0  0  0  0  0  0  0  0  0  0  0  0
    7.7720   -4.3820   24.4460 F   0  0  0  0  0  0  0  0  0  0  0  0
  1  2  1  0
  2  3  1  0
  3  4  2  0
  3  5  1  0
  5  6  1  6
  6  7  1  0
  7  8  2  0
  7  9  1  0
  9 10  1  0
 10 11  2  0
 11 12  1  0
 12 13  2  0
 13 14  1  0
 10 15  1  0
 14 15  2  0
  5 16  1  0
 16 17  2  0
 17 18  1  0
 18 19  2  0
 19 20  1  0
 16 21  1  0
 20 21  2  0
 21 22  1  0
 22 23  1  0
 23 24  1  0
 23 25  1  0
 23 26  1  0
M  END
