pyridine_urea_11902
     RDKit          3D

 24 25  0  0  0  0  0  0  0  0999 V2000
    8.9530    1.3890   21.1660 O   0  0  0  0  0  0  0  0  0  0  0  0
    8.3900    0.3910   21.6180 C   0  0  0  0  0  0  0  0  0  0  0  0
    7.3110   -0.2640   21.0760 N   0  0  0  0  0  0  0  0  0  0  0  0
    6.5680    0.2420   20.0200 C   0  0  0  0  0  0  0  0  0  0  0  0
    5.4000    0.9550   20.2970 C   0  0  0  0  0  0  0  0  0  0  0  0
    4.6610    1.4890   19.2480 C   0  0  0  0  0  0  0  0  0  0  0  0
    5.1240    1.2900   17.9680 C   0  0  0  0  0  0  0  0  0  0  0  0
    6.2320    0.6000   17.6800 N   0  0  0  0  0  0  0  0  0  0  0  0
    6.9290    0.0900   18.7070 C   0  0  0  0  0  0  0  0  0  0  0  0
    8.7820   -0.1990   22.7850 N   0  0  0  0  0  0  0  0  0  0  0  0
   10.2110   -0.4870   23.0280 C   0  0  1  0  0  0  0  0  0  0  0  0
   10.5830   -1.6060   22.0340 C   0  0  0  0  0  0  0  0  0  0  0  0
   11.9980   -1.6430   21.7190 O   0  0  0  0  0  0  0  0  0  0  0  0
   10.9180    0.6980   23.0900 C   0  0  0  0  0  0  0  0  0  0  0  0
   12.0140    1.1350   23.4590 C   0  0  0  0  0  0  0  0  0  0  0  0
   12.5120   -0.0160   23.9050 C   0  0  0  0  0  0  0  0  0  0  0  0
   11.1420   -0.5330   23.4550 C   0  0  0  0  0  0  0  0  0  0  0  0
   10.1770   -1.4670   23.2650 F   0  0  0  0  0  0  0  0  0  0  0  0
   11.7480   -1.5860   23.9440 C   0  0  0  0  0  0  0  0  0  0  0  0
   12.9200   -1.9500   24.5170 C   0  0  0  0  0  0  0  0  0  0  0  0
   13.3390   -1.2090   25.5460 F   0  0  0  0  0  0  0  0  0  0  0  0
   12.8150   -3.1940   25.0350 F   0  0  0  0  0  0  0  0  0  0  0  0
   13.8640   -2.0560   23.5770 F   0  0  0  0  0  0  0  0  0  0  0  0
   12.0300   -0.1160   23.7380 C   0  0  0  0  0  0  0  0  0  0  0  0
  1  2  2  0
  2  3  1  0
  3  4  1  0
  4  5  2  0
  5  6  1  0
  6  7  2  0
  7  8  1  0
  4  9  1  0
  8  9  2  0
  2 10  1  0
 10 11  1  0
 11 12  1  6
 12 13  1  0
 11 14  1  0
 14 15  2  0
 15 16  1  0
 16 17  2  0
 17 18  1  0
 17 19  1  0
 19 20  1  0
 20 21  1  0
 20 22  1  0
 20 23  1  0
 14 24  1  0
 19 24  2  0
M  END
