pyridine_urea_14588
     RDKit          3D

 21 23  0  0  0  0  0  0  0  0999 V2000
    8.5870    1.5140   21.0200 O   0  0  0  0  0  0  0  0  0  0  0  0
    8.3030    0.3390   21.2330 C   0  0  0  0  0  0  0  0  0  0  0  0
    7.0900   -0.2470   20.9880 N   0  0  0  0  0  0  0  0  0  0  0  0
    6.3260    0.3090   19.9920 C   0  0  0  0  0  0  0  0  0  0  0  0
    5.1220    0.9690   20.1660 C   0  0  0  0  0  0  0  0  0  0  0  0
    4.4940    1.5090   19.0530 C   0  0  0  0  0  0  0  0  0  0  0  0
    5.1030    1.3580   17.8280 C   0  0  0  0  0  0  0  0  0  0  0  0
    6.2580    0.7120   17.6390 N   0  0  0  0  0  0  0  0  0  0  0  0
    6.8350    0.2050   18.7220 C   0  0  0  0  0  0  0  0  0  0  0  0
    9.1580   -0.5580   21.7320 N   0  0  0  0  0  0  0  0  0  0  0  0
    9.8270   -0.3830   22.9100 C   0  0  0  0  0  0  0  0  0  0  0  0
    9.4130    0.3210   23.9850 C   0  0  0  0  0  0  0  0  0  0  0  0
   10.2270    0.3470   25.0730 C   0  0  0  0  0  0  0  0  0  0  0  0
   11.4400   -0.3270   25.0810 C   0  0  0  0  0  0  0  0  0  0  0  0
   11.9280   -1.0380   24.0750 C   0  0  0  0  0  0  0  0  0  0  0  0
   13.0960   -1.6340   24.2610 N   0  0  0  0  0  0  0  0  0  0  0  0
   13.6190   -2.3490   23.3000 C   0  0  0  0  0  0  0  0  0  0  0  0
   12.8550   -2.3540   22.1820 C   0  0  0  0  0  0  0  0  0  0  0  0
   13.3750   -3.2010   20.7210 Br  0  0  0  0  0  0  0  0  0  0  0  0
   11.6880   -1.7770   21.9940 C   0  0  0  0  0  0  0  0  0  0  0  0
   11.1430   -1.0800   22.9490 C   0  0  0  0  0  0  0  0  0  0  0  0
  1  2  2  0
  2  3  1  0
  3  4  1  0
  4  5  2  0
  5  6  1  0
  6  7  2  0
  7  8  1  0
  4  9  1  0
  8  9  2  0
  2 10  1  0
 10 11  1  0
 11 12  2  0
 12 13  1  0
 13 14  2  0
 14 15  1  0
 15 16  1  0
 16 17  2  0
 17 18  1  0
 18 19  1  0
 18 20  2  0
 11 21  1  0
 15 21  2  0
 20 21  1  0
M  END
