pyridine_urea_14167
     RDKit          3D

 22 23  0  0  0  0  0  0  0  0999 V2000
   10.7970    1.0890   23.4970 C   0  0  0  0  0  0  0  0  0  0  0  0
   11.2570   -0.1940   22.8130 C   0  0  0  0  0  0  0  0  0  0  0  0
   10.6330   -0.9880   22.0550 C   0  0  0  0  0  0  0  0  0  0  0  0
   11.7750   -1.5420   22.0990 C   0  0  0  0  0  0  0  0  0  0  0  0
   11.8070   -0.2270   23.0180 C   0  0  0  0  0  0  0  0  0  0  0  0
   10.6000    0.6560   23.2240 C   0  0  0  0  0  0  0  0  0  0  0  0
    9.4880   -0.2770   23.7080 C   0  0  0  0  0  0  0  0  0  0  0  0
    8.5090   -0.6060   22.7550 N   0  0  0  0  0  0  0  0  0  0  0  0
    8.2040    0.1030   21.6040 C   0  0  0  0  0  0  0  0  0  0  0  0
    8.8220    1.1140   21.2200 O   0  0  0  0  0  0  0  0  0  0  0  0
    7.0710   -0.5150   20.9660 N   0  0  0  0  0  0  0  0  0  0  0  0
    6.4020    0.1050   19.9840 C   0  0  0  0  0  0  0  0  0  0  0  0
    5.2300    0.8210   20.1910 C   0  0  0  0  0  0  0  0  0  0  0  0
    4.5830    1.4640   19.1460 C   0  0  0  0  0  0  0  0  0  0  0  0
    5.1490    1.3670   17.8890 C   0  0  0  0  0  0  0  0  0  0  0  0
    6.2760    0.6780   17.6360 N   0  0  0  0  0  0  0  0  0  0  0  0
    6.8930    0.0460   18.7110 C   0  0  0  0  0  0  0  0  0  0  0  0
   13.0350    0.0950   23.6660 C   0  0  0  0  0  0  0  0  0  0  0  0
   12.6090   -0.7690   22.9220 C   0  0  0  0  0  0  0  0  0  0  0  0
   13.1870   -1.8800   22.3800 N   0  0  0  0  0  0  0  0  0  0  0  0
   13.6040   -1.7930   21.0520 O   0  0  0  0  0  0  0  0  0  0  0  0
   13.5940   -2.7270   23.1820 O   0  0  0  0  0  0  0  0  0  0  0  0
  1  2  1  0
  2  3  2  0
  3  4  1  0
  4  5  2  0
  5  6  1  0
  6  7  1  0
  7  8  1  0
  8  9  1  0
  9 10  2  0
  9 11  1  0
 11 12  1  0
 12 13  2  0
 13 14  1  0
 14 15  2  0
 15 16  1  0
 12 17  1  0
 16 17  2  0
  5 18  1  0
  2 19  1  0
 18 19  2  0
 19 20  1  0
 20 21  2  0
 20 22  1  0
M  CHG  2  20   1  22  -1
M  END
