pyridine_urea_11526
     RDKit          3D

 21 23  0  0  0  0  0  0  0  0999 V2000
    8.9030    1.4050   21.1110 O   0  0  0  0  0  0  0  0  0  0  0  0
    8.4620    0.3420   21.5530 C   0  0  0  0  0  0  0  0  0  0  0  0
    7.3950   -0.3660   21.0550 N   0  0  0  0  0  0  0  0  0  0  0  0
    6.6170    0.1600   20.0220 C   0  0  0  0  0  0  0  0  0  0  0  0
    5.4500    0.8640   20.3290 C   0  0  0  0  0  0  0  0  0  0  0  0
    4.6860    1.4160   19.3020 C   0  0  0  0  0  0  0  0  0  0  0  0
    5.1250    1.2370   18.0100 C   0  0  0  0  0  0  0  0  0  0  0  0
    6.2290    0.5570   17.6920 N   0  0  0  0  0  0  0  0  0  0  0  0
    6.9480    0.0330   18.6980 C   0  0  0  0  0  0  0  0  0  0  0  0
    9.0460   -0.2290   22.6430 N   0  0  0  0  0  0  0  0  0  0  0  0
    9.7850    0.6540   23.5520 C   0  0  1  0  0  0  0  0  0  0  0  0
   10.3760   -0.1810   24.6960 C   0  0  0  0  0  0  0  0  0  0  0  0
   11.3270    0.0300   23.9200 C   0  0  0  0  0  0  0  0  0  0  0  0
   11.6700   -1.3330   24.3300 C   0  0  0  0  0  0  0  0  0  0  0  0
   12.7090   -2.3300   24.0440 C   0  0  0  0  0  0  0  0  0  0  0  0
   13.7700   -2.1870   23.1770 C   0  0  0  0  0  0  0  0  0  0  0  0
   12.9890   -1.2170   23.3030 C   0  0  0  0  0  0  0  0  0  0  0  0
   12.4040    0.0120   23.1550 C   0  0  0  0  0  0  0  0  0  0  0  0
   12.3840    1.1460   22.6100 N   0  0  0  0  0  0  0  0  0  0  0  0
   10.9990    1.5230   22.8200 C   0  0  0  0  0  0  0  0  0  0  0  0
   10.5820    2.6240   22.4530 O   0  0  0  0  0  0  0  0  0  0  0  0
  1  2  2  0
  2  3  1  0
  3  4  1  0
  4  5  2  0
  5  6  1  0
  6  7  2  0
  7  8  1  0
  4  9  1  0
  8  9  2  0
  2 10  1  0
 11 10  1  6
 11 12  1  0
 12 13  1  0
 13 14  2  0
 14 15  1  0
 15 16  2  0
 16 17  1  0
 13 18  1  0
 17 18  2  0
 18 19  1  0
 11 20  1  0
 19 20  1  0
 20 21  2  0
M  END
