pyridine_urea_4392
     RDKit          3D

 23 25  0  0  0  0  0  0  0  0999 V2000
    7.5910   -0.9030   24.8380 C   0  0  0  0  0  0  0  0  0  0  0  0
    7.3950   -2.1940   24.3860 N   0  0  0  0  0  0  0  0  0  0  0  0
    8.3910   -2.6610   23.4280 C   0  0  0  0  0  0  0  0  0  0  0  0
    9.5110   -1.7510   22.9830 C   0  0  0  0  0  0  0  0  0  0  0  0
    9.0290   -0.4750   22.8050 N   0  0  0  0  0  0  0  0  0  0  0  0
    8.5400    0.1450   21.6350 C   0  0  0  0  0  0  0  0  0  0  0  0
    9.0010    1.2010   21.1790 O   0  0  0  0  0  0  0  0  0  0  0  0
    7.4120   -0.6000   21.0720 N   0  0  0  0  0  0  0  0  0  0  0  0
    6.5990    0.0430   20.1790 C   0  0  0  0  0  0  0  0  0  0  0  0
    5.3190    0.8330   20.4290 C   0  0  0  0  0  0  0  0  0  0  0  0
    4.6100    1.4700   19.2280 C   0  0  0  0  0  0  0  0  0  0  0  0
    5.1760    1.2870   17.9760 C   0  0  0  0  0  0  0  0  0  0  0  0
    6.2600    0.6190   17.6690 N   0  0  0  0  0  0  0  0  0  0  0  0
    6.9370    0.0300   18.6970 C   0  0  0  0  0  0  0  0  0  0  0  0
    8.2940   -3.9190   22.9210 N   0  0  0  0  0  0  0  0  0  0  0  0
    7.2440   -4.6360   23.2980 C   0  0  0  0  0  0  0  0  0  0  0  0
    7.1030   -5.7860   22.5340 C   0  0  0  0  0  0  0  0  0  0  0  0
    6.0590   -6.6610   22.7670 C   0  0  0  0  0  0  0  0  0  0  0  0
    5.0690   -6.3680   23.8510 C   0  0  0  0  0  0  0  0  0  0  0  0
    5.2490   -5.2100   24.5930 C   0  0  0  0  0  0  0  0  0  0  0  0
    6.3800   -4.2830   24.3260 C   0  0  0  0  0  0  0  0  0  0  0  0
    6.5730   -3.1150   25.0670 C   0  0  0  0  0  0  0  0  0  0  0  0
    5.9770   -3.0280   26.2880 O   0  0  0  0  0  0  0  0  0  0  0  0
  1  2  1  0
  2  3  1  0
  3  4  1  0
  4  5  1  0
  5  6  1  0
  6  7  2  0
  6  8  1  0
  8  9  1  0
  9 10  2  0
 10 11  1  0
 11 12  2  0
 12 13  1  0
  9 14  1  0
 13 14  2  0
  3 15  2  0
 15 16  1  0
 16 17  1  0
 17 18  2  0
 18 19  1  0
 19 20  2  0
 16 21  2  0
 20 21  1  0
  2 22  1  0
 21 22  1  0
 22 23  2  0
M  END
