pyridine_urea_13480
     RDKit          3D

 22 24  0  0  0  0  0  0  0  0999 V2000
   11.8370    5.5130   22.3350 C   0  0  0  0  0  0  0  0  0  0  0  0
   10.9260    4.5700   23.1640 C   0  0  0  0  0  0  0  0  0  0  0  0
   10.9730    5.0670   24.6180 C   0  0  0  0  0  0  0  0  0  0  0  0
   11.3940    3.0860   23.0070 C   0  0  0  0  0  0  0  0  0  0  0  0
   10.6630    1.8520   22.9350 C   0  0  0  0  0  0  0  0  0  0  0  0
   11.3780    0.7050   22.7770 C   0  0  0  0  0  0  0  0  0  0  0  0
   12.4150   -0.1710   22.6290 C   0  0  0  0  0  0  0  0  0  0  0  0
   11.2950   -1.0060   22.5860 C   0  0  1  0  0  0  0  0  0  0  0  0
   10.7630   -0.3400   23.5750 C   0  0  0  0  0  0  0  0  0  0  0  0
    9.7430   -0.9090   23.2630 C   0  0  1  0  0  0  0  0  0  0  0  0
    8.6590   -0.1020   22.7650 N   0  0  0  0  0  0  0  0  0  0  0  0
    8.1430   -0.5070   21.4780 C   0  0  0  0  0  0  0  0  0  0  0  0
    8.8580   -0.9410   20.6570 O   0  0  0  0  0  0  0  0  0  0  0  0
    6.8060   -0.3530   21.3070 N   0  0  0  0  0  0  0  0  0  0  0  0
    6.2860    0.2110   20.1420 C   0  0  0  0  0  0  0  0  0  0  0  0
    5.0130    1.0250   20.2070 C   0  0  0  0  0  0  0  0  0  0  0  0
    4.5540    1.5650   19.0480 C   0  0  0  0  0  0  0  0  0  0  0  0
    5.2120    1.3900   17.8500 C   0  0  0  0  0  0  0  0  0  0  0  0
    6.3460    0.6700   17.7390 N   0  0  0  0  0  0  0  0  0  0  0  0
    6.8510    0.0990   18.8710 C   0  0  0  0  0  0  0  0  0  0  0  0
   13.2520    1.1700   22.7330 C   0  0  0  0  0  0  0  0  0  0  0  0
   12.8250    2.6840   22.8940 C   0  0  0  0  0  0  0  0  0  0  0  0
  1  2  1  0
  2  3  1  0
  2  4  1  0
  4  5  2  0
  5  6  1  0
  6  7  2  0
  8  7  1  6
  8  9  1  0
  8 10  1  0
  9 10  1  0
 10 11  1  6
 11 12  1  0
 12 13  2  0
 12 14  1  0
 14 15  1  0
 15 16  2  0
 16 17  1  0
 17 18  2  0
 18 19  1  0
 15 20  1  0
 19 20  2  0
  7 21  1  0
  4 22  1  0
 21 22  2  0
M  END
