pyridine_urea_2329
     RDKit          3D

 25 28  0  0  0  0  0  0  0  0999 V2000
    8.7970    0.8200   21.3200 O   0  0  0  0  0  0  0  0  0  0  0  0
    8.3940   -0.3210   21.4410 C   0  0  0  0  0  0  0  0  0  0  0  0
    7.1500   -0.7350   21.0420 N   0  0  0  0  0  0  0  0  0  0  0  0
    6.4710   -0.0620   20.0180 C   0  0  0  0  0  0  0  0  0  0  0  0
    5.2980    0.6380   20.3070 C   0  0  0  0  0  0  0  0  0  0  0  0
    4.6290    1.3240   19.2900 C   0  0  0  0  0  0  0  0  0  0  0  0
    5.1630    1.2800   18.0210 C   0  0  0  0  0  0  0  0  0  0  0  0
    6.2810    0.6090   17.7200 N   0  0  0  0  0  0  0  0  0  0  0  0
    6.9080   -0.0430   18.7170 C   0  0  0  0  0  0  0  0  0  0  0  0
    9.1530   -1.3250   22.0010 N   0  0  0  0  0  0  0  0  0  0  0  0
   10.2280   -0.9600   22.9420 C   0  0  1  0  0  0  0  0  0  0  0  0
   11.5990   -1.3440   22.4360 C   0  0  0  0  0  0  0  0  0  0  0  0
   12.4480   -0.2800   22.7150 C   0  0  0  0  0  0  0  0  0  0  0  0
   13.7600   -0.2830   22.4000 O   0  0  0  0  0  0  0  0  0  0  0  0
   11.7900    0.7280   23.3270 N   0  0  0  0  0  0  0  0  0  0  0  0
   12.1490    2.0260   23.0880 C   0  0  1  0  0  0  0  0  0  0  0  0
   11.3530    2.8230   22.4320 C   0  0  0  0  0  0  0  0  0  0  0  0
   11.3040    3.4070   23.5510 C   0  0  2  0  0  0  0  0  0  0  0  0
   11.7330    4.7150   23.5650 C   0  0  0  0  0  0  0  0  0  0  0  0
   11.4050    5.5230   24.6490 C   0  0  0  0  0  0  0  0  0  0  0  0
   11.8300    6.8460   24.6560 C   0  0  0  0  0  0  0  0  0  0  0  0
   12.5690    7.3310   23.5850 C   0  0  0  0  0  0  0  0  0  0  0  0
   12.8870    6.4960   22.5130 C   0  0  0  0  0  0  0  0  0  0  0  0
   12.4740    5.1770   22.4840 C   0  0  0  0  0  0  0  0  0  0  0  0
   10.3360    0.5310   23.1460 C   0  0  0  0  0  0  0  0  0  0  0  0
  1  2  2  0
  2  3  1  0
  3  4  1  0
  4  5  2  0
  5  6  1  0
  6  7  2  0
  7  8  1  0
  4  9  1  0
  8  9  2  0
  2 10  1  0
 11 10  1  6
 11 12  1  0
 12 13  1  0
 13 14  2  0
 13 15  1  0
 16 15  1  1
 16 17  1  0
 16 18  1  0
 17 18  1  0
 18 19  1  6
 19 20  2  0
 20 21  1  0
 21 22  2  0
 22 23  1  0
 19 24  1  0
 23 24  2  0
 11 25  1  0
 15 25  1  0
M  END
