pyridine_urea_5746
     RDKit          3D

 21 23  0  0  0  0  0  0  0  0999 V2000
   14.0500   -2.8940   25.7070 C   0  0  0  0  0  0  0  0  0  0  0  0
   12.8170   -2.5030   25.0950 C   0  0  0  0  0  0  0  0  0  0  0  0
   11.8800   -3.5040   24.7190 N   0  0  0  0  0  0  0  0  0  0  0  0
   10.8600   -2.7280   24.2480 O   0  0  0  0  0  0  0  0  0  0  0  0
   11.3040   -1.4520   24.3890 C   0  0  0  0  0  0  0  0  0  0  0  0
   10.3720   -0.6170   23.9780 C   0  0  1  0  0  0  0  0  0  0  0  0
   11.1200    0.4670   23.4830 O   0  0  0  0  0  0  0  0  0  0  0  0
   11.9330   -0.1340   22.5180 C   0  0  0  0  0  0  0  0  0  0  0  0
   10.8630   -1.0350   21.8780 C   0  0  0  0  0  0  0  0  0  0  0  0
    9.7230   -1.2750   22.8440 C   0  0  2  0  0  0  0  0  0  0  0  0
    8.4580   -0.6620   22.5970 N   0  0  0  0  0  0  0  0  0  0  0  0
    8.2160    0.0980   21.5030 C   0  0  0  0  0  0  0  0  0  0  0  0
    8.8720    1.0980   21.1700 O   0  0  0  0  0  0  0  0  0  0  0  0
    7.1230   -0.4440   20.9060 N   0  0  0  0  0  0  0  0  0  0  0  0
    6.4460    0.1800   19.8880 C   0  0  0  0  0  0  0  0  0  0  0  0
    5.3010    0.9090   20.1610 C   0  0  0  0  0  0  0  0  0  0  0  0
    4.6160    1.5610   19.1490 C   0  0  0  0  0  0  0  0  0  0  0  0
    5.1260    1.4480   17.8770 C   0  0  0  0  0  0  0  0  0  0  0  0
    6.2290    0.7370   17.5870 N   0  0  0  0  0  0  0  0  0  0  0  0
    6.8630    0.1230   18.5970 C   0  0  0  0  0  0  0  0  0  0  0  0
   12.4760   -1.2520   24.8600 N   0  0  0  0  0  0  0  0  0  0  0  0
  1  2  1  0
  2  3  2  0
  3  4  1  0
  4  5  1  0
  6  5  1  6
  6  7  1  0
  7  8  1  0
  8  9  1  0
  6 10  1  0
  9 10  1  0
 10 11  1  6
 11 12  1  0
 12 13  2  0
 12 14  1  0
 14 15  1  0
 15 16  2  0
 16 17  1  0
 17 18  2  0
 18 19  1  0
 15 20  1  0
 19 20  2  0
  2 21  1  0
  5 21  2  0
M  END
