pyridine_urea_3568
     RDKit          3D

 17 17  0  0  0  0  0  0  0  0999 V2000
    8.6350    0.8320   21.1820 O   0  0  0  0  0  0  0  0  0  0  0  0
    8.3700   -0.3570   21.3220 C   0  0  0  0  0  0  0  0  0  0  0  0
    7.1280   -0.8710   21.0290 N   0  0  0  0  0  0  0  0  0  0  0  0
    6.4500   -0.1250   20.0050 C   0  0  0  0  0  0  0  0  0  0  0  0
    5.1640    0.6060   20.3720 C   0  0  0  0  0  0  0  0  0  0  0  0
    4.4720    1.4080   19.2670 C   0  0  0  0  0  0  0  0  0  0  0  0
    5.1650    1.3820   17.9030 C   0  0  0  0  0  0  0  0  0  0  0  0
    6.3430    0.6510   17.7340 N   0  0  0  0  0  0  0  0  0  0  0  0
    6.9480   -0.0630   18.7280 C   0  0  0  0  0  0  0  0  0  0  0  0
    9.2870   -1.2780   21.7700 N   0  0  0  0  0  0  0  0  0  0  0  0
   10.4160   -0.7070   22.3740 C   0  0  1  0  0  0  0  0  0  0  0  0
   10.2270   -0.2790   23.6360 C   0  0  0  0  0  0  0  0  0  0  0  0
    9.6020    0.9460   23.7070 O   0  0  0  0  0  0  0  0  0  0  0  0
   11.6100   -1.6980   22.3200 C   0  0  0  0  0  0  0  0  0  0  0  0
   12.8450   -1.0330   22.4030 C   0  0  0  0  0  0  0  0  0  0  0  0
   12.9620    0.1510   23.1340 C   0  0  0  0  0  0  0  0  0  0  0  0
   11.9740    1.0560   22.6670 O   0  0  0  0  0  0  0  0  0  0  0  0
  1  2  2  0
  2  3  1  0
  3  4  1  0
  4  5  2  0
  5  6  1  0
  6  7  2  0
  7  8  1  0
  4  9  1  0
  8  9  2  0
  2 10  1  0
 10 11  1  0
 11 12  1  1
 12 13  1  0
 11 14  1  0
 14 15  1  0
 15 16  1  0
 16 17  1  0
M  END
