pyridine_urea_3736
     RDKit          3D

 25 27  0  0  0  0  0  0  0  0999 V2000
   14.1860   -4.5060   20.4780 C   0  0  0  0  0  0  0  0  0  0  0  0
   13.0860   -3.7450   20.0350 O   0  0  0  0  0  0  0  0  0  0  0  0
   12.7070   -2.5990   20.8240 C   0  0  0  0  0  0  0  0  0  0  0  0
   11.3120   -2.6950   21.1280 C   0  0  0  0  0  0  0  0  0  0  0  0
   10.6250   -1.7220   21.9440 C   0  0  0  0  0  0  0  0  0  0  0  0
   11.4780   -0.5990   22.3910 C   0  0  0  0  0  0  0  0  0  0  0  0
   11.0220    0.4950   23.1880 C   0  0  0  0  0  0  0  0  0  0  0  0
   11.1800    1.7530   23.8760 C   0  0  0  0  0  0  0  0  0  0  0  0
    9.9570    1.1350   23.9660 C   0  0  0  0  0  0  0  0  0  0  0  0
    9.9740   -0.1200   23.3520 C   0  0  1  0  0  0  0  0  0  0  0  0
   10.5110   -1.1790   24.0810 C   0  0  0  0  0  0  0  0  0  0  0  0
    8.6670   -0.4930   22.8850 N   0  0  0  0  0  0  0  0  0  0  0  0
    8.2190    0.1340   21.6210 C   0  0  0  0  0  0  0  0  0  0  0  0
    8.7400    1.1670   21.1550 O   0  0  0  0  0  0  0  0  0  0  0  0
    7.1170   -0.6080   21.0630 N   0  0  0  0  0  0  0  0  0  0  0  0
    6.4260    0.0590   20.0000 C   0  0  0  0  0  0  0  0  0  0  0  0
    5.1730    0.8140   20.3160 C   0  0  0  0  0  0  0  0  0  0  0  0
    4.5830    1.4470   19.2340 C   0  0  0  0  0  0  0  0  0  0  0  0
    5.1640    1.3670   17.8800 C   0  0  0  0  0  0  0  0  0  0  0  0
    6.2800    0.6690   17.6480 N   0  0  0  0  0  0  0  0  0  0  0  0
    6.8720    0.0450   18.6920 C   0  0  0  0  0  0  0  0  0  0  0  0
   12.6550    1.6950   23.3260 C   0  0  0  0  0  0  0  0  0  0  0  0
   13.2830    0.6490   22.5490 C   0  0  0  0  0  0  0  0  0  0  0  0
   12.7330   -0.5180   22.0600 C   0  0  0  0  0  0  0  0  0  0  0  0
   13.3620   -1.4910   21.2960 C   0  0  0  0  0  0  0  0  0  0  0  0
  1  2  1  0
  2  3  1  0
  3  4  2  0
  4  5  1  0
  5  6  2  0
  6  7  1  0
  7  8  2  0
  8  9  1  0
  9 10  1  0
 10 11  1  1
 10 12  1  0
 12 13  1  0
 13 14  2  0
 13 15  1  0
 15 16  1  0
 16 17  2  0
 17 18  1  0
 18 19  2  0
 19 20  1  0
 16 21  1  0
 20 21  2  0
  8 22  1  0
 22 23  2  0
  6 24  1  0
 23 24  1  0
  3 25  1  0
 24 25  2  0
M  END
