pyridine_urea_10870
     RDKit          3D

 20 22  0  0  0  0  0  0  0  0999 V2000
   14.2440   -2.6360   25.9520 C   0  0  0  0  0  0  0  0  0  0  0  0
   13.2820   -2.0040   25.0550 C   0  0  0  0  0  0  0  0  0  0  0  0
   12.9910   -0.5870   25.1450 N   0  0  0  0  0  0  0  0  0  0  0  0
   12.0630   -0.3940   24.2270 C   0  0  0  0  0  0  0  0  0  0  0  0
   11.4110    0.7810   23.9040 C   0  0  0  0  0  0  0  0  0  0  0  0
   10.4350    0.6720   22.9160 C   0  0  0  0  0  0  0  0  0  0  0  0
   10.1620   -0.6690   22.2620 C   0  0  0  0  0  0  0  0  0  0  0  0
    9.2030   -0.7540   21.3340 N   0  0  0  0  0  0  0  0  0  0  0  0
    8.2400    0.2100   21.1480 C   0  0  0  0  0  0  0  0  0  0  0  0
    8.4860    1.4150   21.0630 O   0  0  0  0  0  0  0  0  0  0  0  0
    7.0300   -0.3660   21.0410 N   0  0  0  0  0  0  0  0  0  0  0  0
    6.3580    0.2180   20.0530 C   0  0  0  0  0  0  0  0  0  0  0  0
    5.1810    0.9480   20.2050 C   0  0  0  0  0  0  0  0  0  0  0  0
    4.5550    1.5540   19.1000 C   0  0  0  0  0  0  0  0  0  0  0  0
    5.1180    1.4250   17.8410 C   0  0  0  0  0  0  0  0  0  0  0  0
    6.2860    0.6840   17.7060 N   0  0  0  0  0  0  0  0  0  0  0  0
    6.8900    0.0910   18.7910 C   0  0  0  0  0  0  0  0  0  0  0  0
   10.9580   -1.8410   22.6810 C   0  0  0  0  0  0  0  0  0  0  0  0
   11.8480   -1.6190   23.6460 C   0  0  0  0  0  0  0  0  0  0  0  0
   12.6710   -2.6250   24.2090 O   0  0  0  0  0  0  0  0  0  0  0  0
  1  2  1  0
  2  3  2  0
  3  4  1  0
  4  5  2  0
  5  6  1  0
  6  7  2  0
  7  8  1  0
  8  9  1  0
  9 10  2  0
  9 11  1  0
 11 12  1  0
 12 13  2  0
 13 14  1  0
 14 15  2  0
 15 16  1  0
 12 17  1  0
 16 17  2  0
  7 18  1  0
  4 19  1  0
 18 19  2  0
  2 20  1  0
 19 20  1  0
M  END
