pyridine_urea_13528
     RDKit          3D

 21 23  0  0  0  0  0  0  0  0999 V2000
    8.9850    1.0070   21.2950 O   0  0  0  0  0  0  0  0  0  0  0  0
    8.6550   -0.1670   21.3170 C   0  0  0  0  0  0  0  0  0  0  0  0
    7.3790   -0.6120   21.0460 N   0  0  0  0  0  0  0  0  0  0  0  0
    6.5310    0.0360   20.1300 C   0  0  0  0  0  0  0  0  0  0  0  0
    5.2190    0.7490   20.4890 C   0  0  0  0  0  0  0  0  0  0  0  0
    4.5110    1.3940   19.2950 C   0  0  0  0  0  0  0  0  0  0  0  0
    5.1570    1.2610   17.9550 C   0  0  0  0  0  0  0  0  0  0  0  0
    6.3070    0.6020   17.7540 N   0  0  0  0  0  0  0  0  0  0  0  0
    6.9350    0.0300   18.8000 C   0  0  0  0  0  0  0  0  0  0  0  0
    9.5590   -1.1780   21.5480 N   0  0  0  0  0  0  0  0  0  0  0  0
   10.5360   -1.2420   22.6370 C   0  0  1  0  0  0  0  0  0  0  0  0
   11.7860   -1.6650   22.1590 C   0  0  0  0  0  0  0  0  0  0  0  0
   12.7230   -0.7630   22.5840 C   0  0  0  0  0  0  0  0  0  0  0  0
   12.0170    0.2880   23.1080 C   0  0  0  0  0  0  0  0  0  0  0  0
   10.6820   -0.0930   23.4500 C   0  0  1  0  0  0  0  0  0  0  0  0
    9.6880    0.8920   23.1850 C   0  0  0  0  0  0  0  0  0  0  0  0
   10.1770    2.2620   22.7580 C   0  0  0  0  0  0  0  0  0  0  0  0
    9.2620    3.2400   22.4970 C   0  0  0  0  0  0  0  0  0  0  0  0
    7.8850    3.0100   22.6130 C   0  0  0  0  0  0  0  0  0  0  0  0
    7.3400    1.7660   23.0080 C   0  0  0  0  0  0  0  0  0  0  0  0
    8.1680    0.6720   23.3070 C   0  0  0  0  0  0  0  0  0  0  0  0
  1  2  2  0
  2  3  1  0
  3  4  1  0
  4  5  2  0
  5  6  1  0
  6  7  2  0
  7  8  1  0
  4  9  1  0
  8  9  2  0
  2 10  1  0
 11 10  1  6
 11 12  1  0
 12 13  1  0
 13 14  1  0
 11 15  1  0
 14 15  1  0
 15 16  1  6
 16 17  2  0
 17 18  1  0
 18 19  2  0
 19 20  1  0
 16 21  1  0
 20 21  2  0
M  END
