pyridine_urea_4609
     RDKit          3D

 22 24  0  0  0  0  0  0  0  0999 V2000
    8.6190   -1.4770   21.0260 C   0  0  0  0  0  0  0  0  0  0  0  0
    9.6580   -0.8040   21.9120 C   0  0  0  0  0  0  0  0  0  0  0  0
    9.8790    0.7120   21.9440 C   0  0  0  0  0  0  0  0  0  0  0  0
   10.8950   -1.5830   22.1310 C   0  0  0  0  0  0  0  0  0  0  0  0
   11.0360   -1.2070   23.4010 C   0  0  0  0  0  0  0  0  0  0  0  0
   12.3230   -1.2860   23.9680 C   0  0  0  0  0  0  0  0  0  0  0  0
   13.4740   -1.9620   22.7460 Br  0  0  0  0  0  0  0  0  0  0  0  0
   12.5540   -0.8790   25.3160 C   0  0  0  0  0  0  0  0  0  0  0  0
   11.2970   -0.5610   25.5450 C   0  0  0  0  0  0  0  0  0  0  0  0
   11.2000   -0.9140   24.3720 C   0  0  0  0  0  0  0  0  0  0  0  0
    9.9610   -0.7370   24.2130 C   0  0  0  0  0  0  0  0  0  0  0  0
    8.9980   -0.8950   23.2340 C   0  0  1  0  0  0  0  0  0  0  0  0
    8.0510    0.1560   23.1470 N   0  0  0  0  0  0  0  0  0  0  0  0
    7.8240    0.6260   21.8510 C   0  0  0  0  0  0  0  0  0  0  0  0
    8.4660    1.5580   21.3280 O   0  0  0  0  0  0  0  0  0  0  0  0
    6.8230   -0.0820   21.2380 N   0  0  0  0  0  0  0  0  0  0  0  0
    6.2700    0.3780   20.0810 C   0  0  0  0  0  0  0  0  0  0  0  0
    5.0550    1.1130   20.2380 C   0  0  0  0  0  0  0  0  0  0  0  0
    4.5070    1.6070   19.0870 C   0  0  0  0  0  0  0  0  0  0  0  0
    5.2120    1.3400   17.8010 C   0  0  0  0  0  0  0  0  0  0  0  0
    6.3290    0.6480   17.6730 N   0  0  0  0  0  0  0  0  0  0  0  0
    6.8350    0.1760   18.8220 C   0  0  0  0  0  0  0  0  0  0  0  0
  2  1  1  0
  2  3  1  0
  2  4  1  0
  4  5  1  0
  5  6  2  0
  6  7  1  0
  6  8  1  0
  8  9  2  0
  9 10  1  0
  5 11  1  0
 10 11  2  0
  2 12  1  0
 11 12  1  0
 12 13  1  6
 13 14  1  0
 14 15  2  0
 14 16  1  0
 16 17  1  0
 17 18  2  0
 18 19  1  0
 19 20  2  0
 20 21  1  0
 17 22  1  0
 21 22  2  0
M  END
