pyridine_urea_4466
     RDKit          3D

 23 25  0  0  0  0  0  0  0  0999 V2000
   11.8050    1.3810   23.6790 C   0  0  0  0  0  0  0  0  0  0  0  0
   10.3470    0.9150   23.7040 C   0  0  0  0  0  0  0  0  0  0  0  0
   10.1400    0.0770   22.4570 C   0  0  2  0  0  0  0  0  0  0  0  0
    8.9850   -0.5580   22.3360 N   0  0  0  0  0  0  0  0  0  0  0  0
    8.2340    0.1020   21.4650 C   0  0  0  0  0  0  0  0  0  0  0  0
    8.5820    1.2090   21.0270 O   0  0  0  0  0  0  0  0  0  0  0  0
    7.0280   -0.6010   21.1240 N   0  0  0  0  0  0  0  0  0  0  0  0
    6.3950    0.0190   20.0990 C   0  0  0  0  0  0  0  0  0  0  0  0
    5.0750    0.7700   20.2740 C   0  0  0  0  0  0  0  0  0  0  0  0
    4.4570    1.4640   19.0550 C   0  0  0  0  0  0  0  0  0  0  0  0
    5.1420    1.3670   17.8510 C   0  0  0  0  0  0  0  0  0  0  0  0
    6.2880    0.7120   17.6590 N   0  0  0  0  0  0  0  0  0  0  0  0
    6.8830    0.0850   18.6690 C   0  0  0  0  0  0  0  0  0  0  0  0
   11.1630   -0.9740   22.4990 C   0  0  0  0  0  0  0  0  0  0  0  0
   11.5220   -1.9150   21.6800 C   0  0  0  0  0  0  0  0  0  0  0  0
   12.5590   -2.5300   22.4270 C   0  0  0  0  0  0  0  0  0  0  0  0
   12.9850   -2.0370   23.8700 C   0  0  0  0  0  0  0  0  0  0  0  0
   12.3190   -0.8990   24.4690 C   0  0  0  0  0  0  0  0  0  0  0  0
   13.1790   -1.1580   25.5330 C   0  0  0  0  0  0  0  0  0  0  0  0
   13.9660   -2.2600   25.2940 C   0  0  0  0  0  0  0  0  0  0  0  0
   13.7690   -2.8440   24.0530 C   0  0  0  0  0  0  0  0  0  0  0  0
   12.8400   -2.4010   23.1130 C   0  0  0  0  0  0  0  0  0  0  0  0
   12.0300   -1.3300   23.3630 C   0  0  0  0  0  0  0  0  0  0  0  0
  1  2  1  0
  3  2  1  1
  3  4  1  0
  4  5  1  0
  5  6  2  0
  5  7  1  0
  7  8  1  0
  8  9  2  0
  9 10  1  0
 10 11  2  0
 11 12  1  0
  8 13  1  0
 12 13  2  0
  3 14  1  0
 14 15  2  0
 15 16  1  0
 16 17  2  0
 17 18  1  0
 18 19  1  0
 19 20  2  0
 20 21  1  0
 21 22  2  0
 14 23  1  0
 18 23  2  0
 22 23  1  0
M  END
