pyridine_urea_13248
     RDKit          3D

 16 17  0  0  0  0  0  0  0  0999 V2000
    9.8760    1.3710   22.9500 C   0  0  0  0  0  0  0  0  0  0  0  0
   10.0180    0.0170   23.6240 C   0  0  0  0  0  0  0  0  0  0  0  0
   10.6650   -0.3080   22.4690 C   0  0  2  0  0  0  0  0  0  0  0  0
    9.5910   -0.8260   21.6030 N   0  0  0  0  0  0  0  0  0  0  0  0
    8.5740    0.0550   21.2740 C   0  0  0  0  0  0  0  0  0  0  0  0
    8.7550    1.2680   21.1230 O   0  0  0  0  0  0  0  0  0  0  0  0
    7.2810   -0.6030   21.0590 N   0  0  0  0  0  0  0  0  0  0  0  0
    6.5420    0.0090   20.0810 C   0  0  0  0  0  0  0  0  0  0  0  0
    5.2710    0.7630   20.4300 C   0  0  0  0  0  0  0  0  0  0  0  0
    4.6000    1.3750   19.4010 C   0  0  0  0  0  0  0  0  0  0  0  0
    5.1560    1.2640   17.9950 C   0  0  0  0  0  0  0  0  0  0  0  0
    6.2780    0.5820   17.7070 N   0  0  0  0  0  0  0  0  0  0  0  0
    6.9360   -0.0230   18.7400 C   0  0  0  0  0  0  0  0  0  0  0  0
   11.7090   -1.2670   22.4840 C   0  0  0  0  0  0  0  0  0  0  0  0
   12.0460   -0.0910   22.8280 C   0  0  0  0  0  0  0  0  0  0  0  0
   12.8030   -1.1180   23.4670 C   0  0  0  0  0  0  0  0  0  0  0  0
  1  2  2  3
  3  2  1  1
  3  4  1  0
  4  5  1  0
  5  6  2  0
  5  7  1  0
  7  8  1  0
  8  9  2  0
  9 10  1  0
 10 11  2  0
 11 12  1  0
  8 13  1  0
 12 13  2  0
  3 14  1  0
 14 15  1  0
 14 16  1  0
 15 16  1  0
M  END
