pyridine_urea_12440
     RDKit          3D

 22 23  0  0  0  0  0  0  0  0999 V2000
    8.7730    1.2590   21.1180 O   0  0  0  0  0  0  0  0  0  0  0  0
    8.2700    0.1870   21.4920 C   0  0  0  0  0  0  0  0  0  0  0  0
    8.7460   -0.5110   22.5560 N   0  0  0  0  0  0  0  0  0  0  0  0
   10.1780   -0.5310   22.6680 C   0  0  0  0  0  0  0  0  0  0  0  0
   10.7550    0.2780   23.8640 C   0  0  2  0  0  0  0  0  0  0  0  0
   11.8600    1.0140   23.5490 C   0  0  0  0  0  0  0  0  0  0  0  0
   12.9780    0.1550   22.9890 C   0  0  0  0  0  0  0  0  0  0  0  0
   12.8870   -1.2160   23.2900 C   0  0  0  0  0  0  0  0  0  0  0  0
   11.8730   -1.7030   24.1780 N   0  0  0  0  0  0  0  0  0  0  0  0
   11.1860   -3.0030   24.0600 C   0  0  0  0  0  0  0  0  0  0  0  0
    9.6670   -2.8350   23.8870 C   0  0  0  0  0  0  0  0  0  0  0  0
    9.2790   -2.7230   22.5900 F   0  0  0  0  0  0  0  0  0  0  0  0
    9.1290   -1.7630   24.5360 F   0  0  0  0  0  0  0  0  0  0  0  0
    8.9570   -3.9100   24.3260 F   0  0  0  0  0  0  0  0  0  0  0  0
   11.2980   -0.6860   24.8620 C   0  0  0  0  0  0  0  0  0  0  0  0
    7.1920   -0.4480   20.9470 N   0  0  0  0  0  0  0  0  0  0  0  0
    6.4210    0.1810   19.9960 C   0  0  0  0  0  0  0  0  0  0  0  0
    5.1160    0.9070   20.2390 C   0  0  0  0  0  0  0  0  0  0  0  0
    4.4920    1.5390   19.0280 C   0  0  0  0  0  0  0  0  0  0  0  0
    5.1320    1.4180   17.8130 C   0  0  0  0  0  0  0  0  0  0  0  0
    6.2910    0.7460   17.6460 N   0  0  0  0  0  0  0  0  0  0  0  0
    6.8880    0.1620   18.7000 C   0  0  0  0  0  0  0  0  0  0  0  0
  1  2  2  0
  2  3  1  0
  3  4  1  0
  5  4  1  6
  5  6  1  0
  6  7  1  0
  7  8  1  0
  8  9  1  0
  9 10  1  0
 10 11  1  0
 11 12  1  0
 11 13  1  0
 11 14  1  0
  5 15  1  0
  9 15  1  0
  2 16  1  0
 16 17  1  0
 17 18  2  0
 18 19  1  0
 19 20  2  0
 20 21  1  0
 17 22  1  0
 21 22  2  0
M  END
