pyridine_urea_2313
     RDKit          3D

 25 26  0  0  0  0  0  0  0  0999 V2000
   10.4270    1.7620   24.1430 C   0  0  0  0  0  0  0  0  0  0  0  0
   11.3530    0.8790   23.3480 C   0  0  0  0  0  0  0  0  0  0  0  0
   12.1030    1.9480   23.5960 C   0  0  0  0  0  0  0  0  0  0  0  0
   12.5690    0.9550   22.9180 C   0  0  0  0  0  0  0  0  0  0  0  0
   11.5810   -0.0720   22.7890 C   0  0  0  0  0  0  0  0  0  0  0  0
   10.2590   -0.1940   23.2810 C   0  0  0  0  0  0  0  0  0  0  0  0
    9.3700   -0.6290   22.2450 N   0  0  0  0  0  0  0  0  0  0  0  0
    8.8140    0.3520   21.5260 C   0  0  0  0  0  0  0  0  0  0  0  0
    9.2610    1.4810   21.3960 O   0  0  0  0  0  0  0  0  0  0  0  0
    7.7100    0.1200   20.8990 N   0  0  0  0  0  0  0  0  0  0  0  0
    6.7240    0.3000   20.0170 C   0  0  0  0  0  0  0  0  0  0  0  0
    5.4940    0.8190   20.4320 C   0  0  0  0  0  0  0  0  0  0  0  0
    4.5440    1.0120   19.4740 C   0  0  0  0  0  0  0  0  0  0  0  0
    4.8180    0.7000   18.1770 C   0  0  0  0  0  0  0  0  0  0  0  0
    5.9740    0.1980   17.7390 N   0  0  0  0  0  0  0  0  0  0  0  0
    6.8990    0.0080   18.6830 C   0  0  0  0  0  0  0  0  0  0  0  0
   12.3050   -0.8280   22.0920 C   0  0  0  0  0  0  0  0  0  0  0  0
   11.3070   -1.6530   22.0140 O   0  0  0  0  0  0  0  0  0  0  0  0
   11.8790   -2.6830   22.6010 C   0  0  1  0  0  0  0  0  0  0  0  0
   13.2350   -2.5980   22.3480 C   0  0  0  0  0  0  0  0  0  0  0  0
   11.4920   -2.6540   24.0600 C   0  0  0  0  0  0  0  0  0  0  0  0
   12.4080   -2.1000   24.9160 C   0  0  0  0  0  0  0  0  0  0  0  0
   12.7360   -0.7760   24.8040 C   0  0  0  0  0  0  0  0  0  0  0  0
   13.7070   -2.8830   24.8460 C   0  0  0  0  0  0  0  0  0  0  0  0
   12.5940    0.4000   22.6420 C   0  0  0  0  0  0  0  0  0  0  0  0
  1  2  1  0
  2  3  2  0
  3  4  1  0
  4  5  2  0
  5  6  1  0
  6  7  1  0
  7  8  1  0
  8  9  2  0
  8 10  1  0
 10 11  1  0
 11 12  2  0
 12 13  1  0
 13 14  2  0
 14 15  1  0
 11 16  1  0
 15 16  2  0
  5 17  1  0
 17 18  1  0
 18 19  1  0
 19 20  1  1
 19 21  1  0
 21 22  1  0
 22 23  1  0
 22 24  1  0
  2 25  1  0
 17 25  2  0
M  END
