pyridine_urea_279
     RDKit          3D

 28 30  0  0  0  0  0  0  0  0999 V2000
    8.6780    1.1150   21.0600 O   0  0  0  0  0  0  0  0  0  0  0  0
    8.1730    0.0540   21.4680 C   0  0  0  0  0  0  0  0  0  0  0  0
    7.0810   -0.5850   20.9420 N   0  0  0  0  0  0  0  0  0  0  0  0
    6.4260    0.0940   19.8860 C   0  0  0  0  0  0  0  0  0  0  0  0
    5.1260    0.8060   20.2310 C   0  0  0  0  0  0  0  0  0  0  0  0
    4.5060    1.5090   19.0820 C   0  0  0  0  0  0  0  0  0  0  0  0
    5.1390    1.4550   17.8550 C   0  0  0  0  0  0  0  0  0  0  0  0
    6.2900    0.7950   17.6180 N   0  0  0  0  0  0  0  0  0  0  0  0
    6.8920    0.1440   18.6150 C   0  0  0  0  0  0  0  0  0  0  0  0
    8.6340   -0.6490   22.5260 N   0  0  0  0  0  0  0  0  0  0  0  0
    9.7140   -0.0680   23.3050 C   0  0  2  0  0  0  0  0  0  0  0  0
   10.8110   -0.5120   22.8010 C   0  0  0  0  0  0  0  0  0  0  0  0
   10.7750   -1.7130   21.9820 C   0  0  0  0  0  0  0  0  0  0  0  0
   12.1510   -2.0080   21.4970 C   0  0  0  0  0  0  0  0  0  0  0  0
   13.3950   -1.1970   21.8100 C   0  0  0  0  0  0  0  0  0  0  0  0
   13.2560   -0.0690   22.6420 C   0  0  0  0  0  0  0  0  0  0  0  0
   12.0170   -0.4820   22.5940 C   0  0  0  0  0  0  0  0  0  0  0  0
    9.4470   -0.3800   24.7740 C   0  0  0  0  0  0  0  0  0  0  0  0
    8.4560   -1.4820   24.8540 C   0  0  0  0  0  0  0  0  0  0  0  0
    8.0760   -1.9210   26.1690 C   0  0  0  0  0  0  0  0  0  0  0  0
    8.6260   -1.3170   27.3790 C   0  0  0  0  0  0  0  0  0  0  0  0
    9.5780   -0.2670   27.2810 C   0  0  0  0  0  0  0  0  0  0  0  0
    9.8210    0.0100   25.9820 C   0  0  0  0  0  0  0  0  0  0  0  0
    8.8550   -0.9540   26.0810 O   0  0  0  0  0  0  0  0  0  0  0  0
    7.5550   -0.3660   26.4090 C   0  0  0  0  0  0  0  0  0  0  0  0
    6.5200   -1.1350   25.9830 F   0  0  0  0  0  0  0  0  0  0  0  0
    7.4320    0.8200   25.7740 F   0  0  0  0  0  0  0  0  0  0  0  0
    7.3700   -0.1330   27.7310 F   0  0  0  0  0  0  0  0  0  0  0  0
  1  2  2  0
  2  3  1  0
  3  4  1  0
  4  5  2  0
  5  6  1  0
  6  7  2  0
  7  8  1  0
  4  9  1  0
  8  9  2  0
  2 10  1  0
 11 10  1  6
 11 12  1  0
 12 13  2  0
 13 14  1  0
 14 15  2  0
 15 16  1  0
 12 17  1  0
 16 17  2  0
 11 18  1  0
 18 19  2  0
 19 20  1  0
 20 21  2  0
 21 22  1  0
 18 23  1  0
 22 23  2  0
 23 24  1  0
 24 25  1  0
 25 26  1  0
 25 27  1  0
 25 28  1  0
M  END
