pyridine_urea_14709
     RDKit          3D

 20 21  0  0  0  0  0  0  0  0999 V2000
    8.9560    1.1720   21.1960 O   0  0  0  0  0  0  0  0  0  0  0  0
    8.5570    0.0240   21.4440 C   0  0  0  0  0  0  0  0  0  0  0  0
    9.2770   -0.9440   22.1250 N   0  0  0  0  0  0  0  0  0  0  0  0
    9.6760   -0.9360   23.4760 C   0  0  0  0  0  0  0  0  0  0  0  0
   10.6600   -0.0930   23.9970 C   0  0  0  0  0  0  0  0  0  0  0  0
   10.0820    1.1190   24.2500 F   0  0  0  0  0  0  0  0  0  0  0  0
   10.9020   -0.5950   25.2490 F   0  0  0  0  0  0  0  0  0  0  0  0
   11.8870    0.1000   23.3470 C   0  0  0  0  0  0  0  0  0  0  0  0
   12.7030    1.0870   23.3180 C   0  0  0  0  0  0  0  0  0  0  0  0
   12.8980   -0.1390   22.6300 C   0  0  0  0  0  0  0  0  0  0  0  0
   11.6880   -1.2340   22.8340 C   0  0  0  0  0  0  0  0  0  0  0  0
   12.4580   -1.9840   22.0290 C   0  0  0  0  0  0  0  0  0  0  0  0
   12.7290   -0.6810   22.4790 N   0  0  0  0  0  0  0  0  0  0  0  0
    7.3150   -0.4580   21.0560 N   0  0  0  0  0  0  0  0  0  0  0  0
    6.5200    0.1520   20.0830 C   0  0  0  0  0  0  0  0  0  0  0  0
    5.3340    0.8630   20.3320 C   0  0  0  0  0  0  0  0  0  0  0  0
    4.6140    1.4640   19.2850 C   0  0  0  0  0  0  0  0  0  0  0  0
    5.1370    1.3340   17.9110 C   0  0  0  0  0  0  0  0  0  0  0  0
    6.3080    0.6110   17.7300 N   0  0  0  0  0  0  0  0  0  0  0  0
    6.9630    0.0440   18.7740 C   0  0  0  0  0  0  0  0  0  0  0  0
  1  2  2  0
  2  3  1  0
  3  4  1  0
  4  5  1  0
  5  6  1  0
  5  7  1  0
  5  8  1  0
  8  9  2  0
  9 10  1  0
 10 11  2  0
 11 12  1  0
  8 13  1  0
 12 13  2  0
  2 14  1  0
 14 15  1  0
 15 16  2  0
 16 17  1  0
 17 18  2  0
 18 19  1  0
 15 20  1  0
 19 20  2  0
M  END
