pyridine_urea_6722
     RDKit          3D

 21 23  0  0  0  0  0  0  0  0999 V2000
    8.7680    0.8470   21.1510 O   0  0  0  0  0  0  0  0  0  0  0  0
    8.2760   -0.2460   21.3920 C   0  0  0  0  0  0  0  0  0  0  0  0
    7.1220   -0.7440   20.8630 N   0  0  0  0  0  0  0  0  0  0  0  0
    6.3590   -0.0140   19.9720 C   0  0  0  0  0  0  0  0  0  0  0  0
    5.0340    0.6890   20.3060 C   0  0  0  0  0  0  0  0  0  0  0  0
    4.4260    1.4400   19.1270 C   0  0  0  0  0  0  0  0  0  0  0  0
    5.1680    1.4040   17.8300 C   0  0  0  0  0  0  0  0  0  0  0  0
    6.3210    0.7430   17.6590 N   0  0  0  0  0  0  0  0  0  0  0  0
    6.8610    0.0790   18.6930 C   0  0  0  0  0  0  0  0  0  0  0  0
    8.8200   -1.1190   22.2680 N   0  0  0  0  0  0  0  0  0  0  0  0
    8.9060   -0.6830   23.6170 C   0  0  1  0  0  0  0  0  0  0  0  0
    9.8690   -1.2420   24.3200 C   0  0  0  0  0  0  0  0  0  0  0  0
   10.7530   -0.2410   24.1970 C   0  0  1  0  0  0  0  0  0  0  0  0
   11.6720   -0.5420   23.3050 C   0  0  0  0  0  0  0  0  0  0  0  0
   11.5270   -1.7240   22.5730 C   0  0  0  0  0  0  0  0  0  0  0  0
   12.4150   -2.1550   21.5840 C   0  0  0  0  0  0  0  0  0  0  0  0
   13.5230   -1.1700   21.4570 C   0  0  0  0  0  0  0  0  0  0  0  0
   13.5780   -0.0290   22.2460 C   0  0  0  0  0  0  0  0  0  0  0  0
   12.6660    0.2860   23.1420 C   0  0  0  0  0  0  0  0  0  0  0  0
   12.7080    1.3840   23.8580 F   0  0  0  0  0  0  0  0  0  0  0  0
    9.4670    0.5810   23.7280 C   0  0  0  0  0  0  0  0  0  0  0  0
  1  2  2  0
  2  3  1  0
  3  4  1  0
  4  5  2  0
  5  6  1  0
  6  7  2  0
  7  8  1  0
  4  9  1  0
  8  9  2  0
  2 10  1  0
 11 10  1  6
 11 12  1  0
 12 13  1  0
 13 14  1  6
 14 15  2  0
 15 16  1  0
 16 17  2  0
 17 18  1  0
 14 19  1  0
 18 19  2  0
 19 20  1  0
 11 21  1  0
 13 21  1  0
M  END
