pyridine_urea_1283
     RDKit          3D

 21 22  0  0  0  0  0  0  0  0999 V2000
   14.0640   -2.8160   25.8550 C   0  0  0  0  0  0  0  0  0  0  0  0
   13.0730   -2.8260   24.6900 C   0  0  0  0  0  0  0  0  0  0  0  0
   13.7060   -2.8480   23.3060 C   0  0  0  0  0  0  0  0  0  0  0  0
   12.4710   -1.4800   24.6610 C   0  0  0  0  0  0  0  0  0  0  0  0
   12.1310   -1.1940   23.3190 N   0  0  0  0  0  0  0  0  0  0  0  0
   11.1750   -2.0210   22.7490 C   0  0  0  0  0  0  0  0  0  0  0  0
   10.0660   -1.8890   23.5850 C   0  0  0  0  0  0  0  0  0  0  0  0
    9.7350   -0.6420   24.0300 O   0  0  0  0  0  0  0  0  0  0  0  0
   10.4160    0.3280   23.2750 C   0  0  2  0  0  0  0  0  0  0  0  0
   10.0120    0.0530   22.0330 C   0  0  0  0  0  0  0  0  0  0  0  0
    8.7950   -0.5280   22.0410 N   0  0  0  0  0  0  0  0  0  0  0  0
    7.8900    0.0990   21.2650 C   0  0  0  0  0  0  0  0  0  0  0  0
    8.1640    1.4020   20.7990 O   0  0  0  0  0  0  0  0  0  0  0  0
    6.8030   -0.6170   20.9870 N   0  0  0  0  0  0  0  0  0  0  0  0
    6.2420    0.0220   19.9740 C   0  0  0  0  0  0  0  0  0  0  0  0
    5.0380    0.7060   20.1780 C   0  0  0  0  0  0  0  0  0  0  0  0
    4.4820    1.4280   19.0020 C   0  0  0  0  0  0  0  0  0  0  0  0
    5.1360    1.4050   17.8050 C   0  0  0  0  0  0  0  0  0  0  0  0
    6.2970    0.7190   17.6500 N   0  0  0  0  0  0  0  0  0  0  0  0
    6.8080    0.0600   18.7130 C   0  0  0  0  0  0  0  0  0  0  0  0
   11.8600    0.1530   23.1950 C   0  0  0  0  0  0  0  0  0  0  0  0
  1  2  1  0
  2  3  1  0
  2  4  1  0
  4  5  1  0
  5  6  1  0
  6  7  1  0
  7  8  1  0
  8  9  1  0
  9 10  1  6
 10 11  1  0
 11 12  1  0
 12 13  2  0
 12 14  1  0
 14 15  1  0
 15 16  2  0
 16 17  1  0
 17 18  2  0
 18 19  1  0
 15 20  1  0
 19 20  2  0
  5 21  1  0
  9 21  1  0
M  END
