pyridine_urea_1402
     RDKit          3D

 20 21  0  0  0  0  0  0  0  0999 V2000
   10.9100   -4.0630   25.8520 C   0  0  0  0  0  0  0  0  0  0  0  0
    9.7940   -4.8440   25.7400 N   0  0  0  0  0  0  0  0  0  0  0  0
    9.2820   -5.5680   26.8860 C   0  0  0  0  0  0  0  0  0  0  0  0
    8.9980   -4.3620   24.7320 C   0  0  0  0  0  0  0  0  0  0  0  0
    7.7580   -4.9700   24.6460 N   0  0  0  0  0  0  0  0  0  0  0  0
    7.1290   -4.3630   23.5830 C   0  0  0  0  0  0  0  0  0  0  0  0
    7.5120   -3.3670   22.7140 C   0  0  0  0  0  0  0  0  0  0  0  0
    8.7750   -2.8670   22.9380 C   0  0  0  0  0  0  0  0  0  0  0  0
    9.3390   -1.8580   22.1590 C   0  0  0  0  0  0  0  0  0  0  0  0
    8.9890   -0.5900   22.4560 N   0  0  0  0  0  0  0  0  0  0  0  0
    8.3520    0.1020   21.4720 C   0  0  0  0  0  0  0  0  0  0  0  0
    8.7290    1.2280   21.0920 O   0  0  0  0  0  0  0  0  0  0  0  0
    7.3180   -0.6070   21.0460 N   0  0  0  0  0  0  0  0  0  0  0  0
    6.5630    0.0690   20.1020 C   0  0  0  0  0  0  0  0  0  0  0  0
    5.4270    0.8210   20.4460 C   0  0  0  0  0  0  0  0  0  0  0  0
    4.7340    1.4690   19.4160 C   0  0  0  0  0  0  0  0  0  0  0  0
    5.2220    1.3370   18.0210 C   0  0  0  0  0  0  0  0  0  0  0  0
    6.3010    0.6130   17.7080 N   0  0  0  0  0  0  0  0  0  0  0  0
    6.9440   -0.0050   18.7660 C   0  0  0  0  0  0  0  0  0  0  0  0
    9.5050   -3.3730   23.9480 N   0  0  0  0  0  0  0  0  0  0  0  0
  1  2  1  0
  2  3  1  0
  2  4  1  0
  4  5  2  0
  5  6  1  0
  6  7  2  0
  7  8  1  0
  8  9  1  0
  9 10  1  0
 10 11  1  0
 11 12  2  0
 11 13  1  0
 13 14  1  0
 14 15  2  0
 15 16  1  0
 16 17  2  0
 17 18  1  0
 14 19  1  0
 18 19  2  0
  4 20  1  0
  8 20  2  0
M  END
