pyridine_urea_8485
     RDKit          3D

 22 24  0  0  0  0  0  0  0  0999 V2000
    8.7440    0.4730   21.1620 O   0  0  0  0  0  0  0  0  0  0  0  0
    8.3240   -0.6180   21.5220 C   0  0  0  0  0  0  0  0  0  0  0  0
    7.1080   -1.0730   21.0860 N   0  0  0  0  0  0  0  0  0  0  0  0
    6.4520   -0.3220   20.0760 C   0  0  0  0  0  0  0  0  0  0  0  0
    5.2490    0.3470   20.3520 C   0  0  0  0  0  0  0  0  0  0  0  0
    4.6160    1.1000   19.3520 C   0  0  0  0  0  0  0  0  0  0  0  0
    5.2040    1.1620   18.1060 C   0  0  0  0  0  0  0  0  0  0  0  0
    6.3530    0.5300   17.8170 N   0  0  0  0  0  0  0  0  0  0  0  0
    6.9440   -0.1910   18.7920 C   0  0  0  0  0  0  0  0  0  0  0  0
    9.1100   -1.3810   22.3950 N   0  0  0  0  0  0  0  0  0  0  0  0
   10.2250   -0.4930   22.5850 C   0  0  0  0  0  0  0  0  0  0  0  0
    9.6100    0.8550   22.8340 C   0  0  0  0  0  0  0  0  0  0  0  0
   10.4000    1.9220   22.9750 C   0  0  0  0  0  0  0  0  0  0  0  0
   11.7350    1.7710   22.9020 C   0  0  0  0  0  0  0  0  0  0  0  0
   12.4030    2.9320   22.9970 N   0  0  0  0  0  0  0  0  0  0  0  0
   11.7360    4.0360   23.3670 C   0  0  0  0  0  0  0  0  0  0  0  0
   12.4890    5.1260   23.4040 N   0  0  0  0  0  0  0  0  0  0  0  0
   13.6930    4.6840   23.0330 N   0  0  0  0  0  0  0  0  0  0  0  0
   13.6500    3.3390   22.7800 N   0  0  0  0  0  0  0  0  0  0  0  0
   12.4180    0.5370   22.7170 C   0  0  0  0  0  0  0  0  0  0  0  0
   13.7570    0.4370   22.6720 F   0  0  0  0  0  0  0  0  0  0  0  0
   11.6240   -0.6390   22.5510 C   0  0  0  0  0  0  0  0  0  0  0  0
  1  2  2  0
  2  3  1  0
  3  4  1  0
  4  5  2  0
  5  6  1  0
  6  7  2  0
  7  8  1  0
  4  9  1  0
  8  9  2  0
  2 10  1  0
 10 11  1  0
 11 12  2  0
 12 13  1  0
 13 14  2  0
 14 15  1  0
 15 16  1  0
 16 17  2  0
 17 18  1  0
 15 19  1  0
 18 19  2  0
 14 20  1  0
 20 21  1  0
 11 22  1  0
 20 22  2  0
M  END
