pyridine_urea_11028
     RDKit          3D

 19 20  0  0  0  0  0  0  0  0999 V2000
    8.7310    1.4090   21.2320 O   0  0  0  0  0  0  0  0  0  0  0  0
    8.2920    0.2550   21.1740 C   0  0  0  0  0  0  0  0  0  0  0  0
    9.1110   -0.9060   21.1490 N   0  0  0  0  0  0  0  0  0  0  0  0
    9.0730   -1.7950   22.1480 C   0  0  0  0  0  0  0  0  0  0  0  0
   10.1580   -1.6770   22.9020 C   0  0  0  0  0  0  0  0  0  0  0  0
   10.3780   -2.5800   23.8850 C   0  0  0  0  0  0  0  0  0  0  0  0
   11.4990   -2.2570   24.4910 C   0  0  0  0  0  0  0  0  0  0  0  0
   12.5810   -1.3340   24.5250 C   0  0  0  0  0  0  0  0  0  0  0  0
   13.5510   -1.4360   25.3840 F   0  0  0  0  0  0  0  0  0  0  0  0
   12.3030   -0.3330   23.4160 C   0  0  0  0  0  0  0  0  0  0  0  0
   13.2080    1.0110   22.9540 Cl  0  0  0  0  0  0  0  0  0  0  0  0
   11.0320   -0.6010   22.6380 C   0  0  0  0  0  0  0  0  0  0  0  0
    6.9830   -0.1150   21.0640 N   0  0  0  0  0  0  0  0  0  0  0  0
    6.3090    0.3930   20.0330 C   0  0  0  0  0  0  0  0  0  0  0  0
    5.1360    1.1190   20.1840 C   0  0  0  0  0  0  0  0  0  0  0  0
    4.5440    1.6290   19.0380 C   0  0  0  0  0  0  0  0  0  0  0  0
    5.1330    1.3970   17.8200 C   0  0  0  0  0  0  0  0  0  0  0  0
    6.2490    0.6930   17.6220 N   0  0  0  0  0  0  0  0  0  0  0  0
    6.8340    0.1880   18.7730 C   0  0  0  0  0  0  0  0  0  0  0  0
  1  2  2  0
  2  3  1  0
  3  4  1  0
  4  5  1  0
  5  6  2  0
  6  7  1  0
  7  8  2  0
  8  9  1  0
  8 10  1  0
 10 11  1  0
  5 12  1  0
 10 12  2  0
  2 13  1  0
 13 14  1  0
 14 15  2  0
 15 16  1  0
 16 17  2  0
 17 18  1  0
 14 19  1  0
 18 19  2  0
M  END
