pyridine_urea_10558
     RDKit          3D

 21 22  0  0  0  0  0  0  0  0999 V2000
   11.5280   -1.8580   21.9560 C   0  0  0  0  0  0  0  0  0  0  0  0
   10.5860   -1.0040   22.8440 C   0  0  2  0  0  0  0  0  0  0  0  0
   10.7280   -1.6190   24.2350 C   0  0  0  0  0  0  0  0  0  0  0  0
   11.0990   -3.0740   24.1510 N   0  0  0  0  0  0  0  0  0  0  0  0
    9.1900   -1.2290   22.3360 N   0  0  0  0  0  0  0  0  0  0  0  0
    8.5040   -0.2930   21.5190 C   0  0  0  0  0  0  0  0  0  0  0  0
    8.9610    0.8020   21.2470 O   0  0  0  0  0  0  0  0  0  0  0  0
    7.2830   -0.7460   21.0710 N   0  0  0  0  0  0  0  0  0  0  0  0
    6.5250   -0.0630   20.0980 C   0  0  0  0  0  0  0  0  0  0  0  0
    5.3460    0.6630   20.3210 C   0  0  0  0  0  0  0  0  0  0  0  0
    4.6630    1.3290   19.3000 C   0  0  0  0  0  0  0  0  0  0  0  0
    5.1690    1.2750   18.0170 C   0  0  0  0  0  0  0  0  0  0  0  0
    6.3050    0.5800   17.7540 N   0  0  0  0  0  0  0  0  0  0  0  0
    6.9790   -0.0900   18.7820 C   0  0  0  0  0  0  0  0  0  0  0  0
   10.9480    0.5220   22.8410 C   0  0  0  0  0  0  0  0  0  0  0  0
   10.2640    1.4950   22.7890 C   0  0  0  0  0  0  0  0  0  0  0  0
   11.5040    2.1090   22.8280 C   0  0  0  0  0  0  0  0  0  0  0  0
   11.7360    0.3710   22.8900 C   0  0  0  0  0  0  0  0  0  0  0  0
   13.1190    0.5650   22.9530 C   0  0  0  0  0  0  0  0  0  0  0  0
   12.1800    1.3370   22.8850 C   0  0  0  0  0  0  0  0  0  0  0  0
   12.3050    3.0650   22.8390 Cl  0  0  0  0  0  0  0  0  0  0  0  0
  2  1  1  6
  2  3  1  0
  3  4  1  0
  2  5  1  0
  5  6  1  0
  6  7  2  0
  6  8  1  0
  8  9  1  0
  9 10  2  0
 10 11  1  0
 11 12  2  0
 12 13  1  0
  9 14  1  0
 13 14  2  0
  2 15  1  0
 15 16  2  0
 16 17  1  0
 17 18  2  0
 18 19  1  0
 15 20  1  0
 19 20  2  0
 20 21  1  0
M  END
