pyridine_urea_7857
     RDKit          3D

 26 28  0  0  0  0  0  0  0  0999 V2000
    8.6700    2.5700   22.0740 C   0  0  0  0  0  0  0  0  0  0  0  0
    8.9120    1.5270   23.1940 C   0  0  0  0  0  0  0  0  0  0  0  0
    9.9350    0.5520   22.9440 C   0  0  0  0  0  0  0  0  0  0  0  0
   11.2760    0.7260   23.4940 C   0  0  0  0  0  0  0  0  0  0  0  0
   12.2200   -0.2200   23.2580 C   0  0  0  0  0  0  0  0  0  0  0  0
   11.7100   -1.2130   22.5220 C   0  0  0  0  0  0  0  0  0  0  0  0
   10.6490   -0.2700   22.6030 C   0  0  1  0  0  0  0  0  0  0  0  0
    9.2300   -0.7800   22.6970 N   0  0  0  0  0  0  0  0  0  0  0  0
    8.4250   -0.2000   21.6760 C   0  0  0  0  0  0  0  0  0  0  0  0
    8.7950    0.8140   21.0980 O   0  0  0  0  0  0  0  0  0  0  0  0
    7.2260   -0.7810   21.3310 N   0  0  0  0  0  0  0  0  0  0  0  0
    6.5280   -0.1570   20.2680 C   0  0  0  0  0  0  0  0  0  0  0  0
    5.3480    0.5730   20.4510 C   0  0  0  0  0  0  0  0  0  0  0  0
    4.6560    1.2110   19.4320 C   0  0  0  0  0  0  0  0  0  0  0  0
    5.1460    1.1320   18.1450 C   0  0  0  0  0  0  0  0  0  0  0  0
    6.2560    0.4700   17.7880 N   0  0  0  0  0  0  0  0  0  0  0  0
    6.9400   -0.1580   18.7850 C   0  0  0  0  0  0  0  0  0  0  0  0
   11.0300    1.2340   22.9060 C   0  0  0  0  0  0  0  0  0  0  0  0
   12.3500    1.6640   22.7460 C   0  0  0  0  0  0  0  0  0  0  0  0
   12.7160    2.9970   22.9330 C   0  0  0  0  0  0  0  0  0  0  0  0
   11.7720    3.9380   23.3030 C   0  0  0  0  0  0  0  0  0  0  0  0
   10.4670    3.5250   23.4840 C   0  0  0  0  0  0  0  0  0  0  0  0
    9.6050    4.4930   23.8480 F   0  0  0  0  0  0  0  0  0  0  0  0
   10.0630    2.1890   23.2960 C   0  0  0  0  0  0  0  0  0  0  0  0
   10.6100   -1.6210   21.9060 C   0  0  0  0  0  0  0  0  0  0  0  0
    9.6190   -0.6450   22.1330 C   0  0  0  0  0  0  0  0  0  0  0  0
  1  2  1  0
  2  3  1  0
  3  4  2  0
  4  5  1  0
  5  6  2  0
  6  7  1  0
  7  8  1  1
  8  9  1  0
  9 10  2  0
  9 11  1  0
 11 12  1  0
 12 13  2  0
 13 14  1  0
 14 15  2  0
 15 16  1  0
 12 17  1  0
 16 17  2  0
  7 18  1  0
 18 19  2  0
 19 20  1  0
 20 21  2  0
 21 22  1  0
 22 23  1  0
 18 24  1  0
 22 24  2  0
  6 25  1  0
  3 26  1  0
 25 26  2  0
M  END
