pyridine_urea_13047
     RDKit          3D

 18 18  0  0  0  0  0  0  0  0999 V2000
    7.9120    4.7580   22.2630 C   0  0  0  0  0  0  0  0  0  0  0  0
    8.3130    4.3500   23.5720 O   0  0  0  0  0  0  0  0  0  0  0  0
    9.4950    3.6570   23.6680 C   0  0  0  0  0  0  0  0  0  0  0  0
   10.5540    4.2690   23.6180 O   0  0  0  0  0  0  0  0  0  0  0  0
    9.5010    2.2590   23.8280 C   0  0  0  0  0  0  0  0  0  0  0  0
   10.7040    1.6730   23.5610 O   0  0  0  0  0  0  0  0  0  0  0  0
   10.5350    0.3340   24.0660 C   0  0  0  0  0  0  0  0  0  0  0  0
   10.4420   -0.5490   22.9990 C   0  0  0  0  0  0  0  0  0  0  0  0
    9.1490   -0.7400   22.4670 N   0  0  0  0  0  0  0  0  0  0  0  0
    8.5410    0.0590   21.5080 C   0  0  0  0  0  0  0  0  0  0  0  0
    8.9750    1.1750   21.2080 O   0  0  0  0  0  0  0  0  0  0  0  0
    7.4140   -0.5560   20.9830 N   0  0  0  0  0  0  0  0  0  0  0  0
    6.5830    0.0780   20.0500 C   0  0  0  0  0  0  0  0  0  0  0  0
    5.2970    0.8510   20.3530 C   0  0  0  0  0  0  0  0  0  0  0  0
    4.6140    1.4310   19.2880 C   0  0  0  0  0  0  0  0  0  0  0  0
    5.1340    1.2790   18.0150 C   0  0  0  0  0  0  0  0  0  0  0  0
    6.2570    0.5960   17.7210 N   0  0  0  0  0  0  0  0  0  0  0  0
    6.9450    0.0190   18.7250 C   0  0  0  0  0  0  0  0  0  0  0  0
  1  2  1  0
  2  3  1  0
  3  4  2  0
  3  5  1  0
  5  6  1  0
  6  7  1  0
  7  8  1  0
  8  9  1  0
  9 10  1  0
 10 11  2  0
 10 12  1  0
 12 13  1  0
 13 14  2  0
 14 15  1  0
 15 16  2  0
 16 17  1  0
 13 18  1  0
 17 18  2  0
M  END
