pyridine_urea_7894
     RDKit          3D

 26 28  0  0  0  0  0  0  0  0999 V2000
   10.0110    2.0160   23.5580 C   0  0  0  0  0  0  0  0  0  0  0  0
   10.5390    0.6070   23.4820 C   0  0  1  0  0  0  0  0  0  0  0  0
    9.6320   -0.1890   22.5960 N   0  0  0  0  0  0  0  0  0  0  0  0
    8.8260    0.4320   21.6330 C   0  0  0  0  0  0  0  0  0  0  0  0
    9.0800    1.5600   21.2220 O   0  0  0  0  0  0  0  0  0  0  0  0
    7.7320   -0.3140   21.2040 N   0  0  0  0  0  0  0  0  0  0  0  0
    6.8560    0.1520   20.1230 C   0  0  0  0  0  0  0  0  0  0  0  0
    5.7460    0.9320   20.4200 C   0  0  0  0  0  0  0  0  0  0  0  0
    4.8640    1.4440   19.4590 C   0  0  0  0  0  0  0  0  0  0  0  0
    5.1380    1.1400   18.1280 C   0  0  0  0  0  0  0  0  0  0  0  0
    6.2180    0.3670   17.8070 N   0  0  0  0  0  0  0  0  0  0  0  0
    7.0740   -0.1300   18.7910 C   0  0  0  0  0  0  0  0  0  0  0  0
   12.0290    0.4510   23.0850 C   0  0  0  0  0  0  0  0  0  0  0  0
   12.4670   -0.6040   22.8780 C   0  0  0  0  0  0  0  0  0  0  0  0
   13.1990    0.6900   22.8120 C   0  0  0  0  0  0  0  0  0  0  0  0
   12.0220    1.7290   23.2360 C   0  0  0  0  0  0  0  0  0  0  0  0
   13.1700    2.4470   22.9780 C   0  0  0  0  0  0  0  0  0  0  0  0
   14.0410    3.7600   22.8500 O   0  0  0  0  0  0  0  0  0  0  0  0
   14.8950    4.7210   23.8790 C   0  0  0  0  0  0  0  0  0  0  0  0
   17.0590    4.4450   24.3860 C   0  0  0  0  0  0  0  0  0  0  0  0
   18.3610    5.2320   24.3800 C   0  0  0  0  0  0  0  0  0  0  0  0
   19.7250    5.0320   24.5520 C   0  0  0  0  0  0  0  0  0  0  0  0
   20.1850    3.8570   24.7320 C   0  0  0  0  0  0  0  0  0  0  0  0
   19.2150    2.9740   24.6360 C   0  0  0  0  0  0  0  0  0  0  0  0
   17.8580    3.2630   24.4390 C   0  0  0  0  0  0  0  0  0  0  0  0
   13.3250    1.1810   22.8180 C   0  0  0  0  0  0  0  0  0  0  0  0
  2  1  1  6
  2  3  1  0
  3  4  1  0
  4  5  2  0
  4  6  1  0
  6  7  1  0
  7  8  2  0
  8  9  1  0
  9 10  2  0
 10 11  1  0
  7 12  1  0
 11 12  2  0
  2 13  1  0
 13 14  2  0
 14 15  1  0
 15 16  2  0
 16 17  1  0
 17 18  1  0
 18 19  1  0
 19 20  1  0
 20 21  2  0
 21 22  1  0
 22 23  2  0
 23 24  1  0
 20 25  1  0
 24 25  2  0
 13 26  1  0
 17 26  2  0
M  END
