pyridine_urea_823
     RDKit          3D

 23 25  0  0  0  0  0  0  0  0999 V2000
   12.3250   -2.7130   24.3550 C   0  0  0  0  0  0  0  0  0  0  0  0
   13.7600   -2.5590   23.9410 C   0  0  0  0  0  0  0  0  0  0  0  0
   13.9410   -1.8340   22.9400 O   0  0  0  0  0  0  0  0  0  0  0  0
   13.0850   -0.8450   22.9190 C   0  0  0  0  0  0  0  0  0  0  0  0
   13.4400    0.4250   22.7610 C   0  0  0  0  0  0  0  0  0  0  0  0
   12.4020    1.2270   22.8090 C   0  0  0  0  0  0  0  0  0  0  0  0
   11.0050    0.7870   23.0060 C   0  0  0  0  0  0  0  0  0  0  0  0
   10.5090   -0.7220   23.1890 C   0  0  0  0  0  0  0  0  0  0  0  0
   11.8680   -1.3030   23.0840 C   0  0  0  0  0  0  0  0  0  0  0  0
    9.2920    0.1430   23.2580 C   0  0  1  0  0  0  0  0  0  0  0  0
    8.3130   -0.5270   22.5780 N   0  0  0  0  0  0  0  0  0  0  0  0
    7.9520    0.0390   21.4060 C   0  0  0  0  0  0  0  0  0  0  0  0
    8.6150    1.2290   20.9370 O   0  0  0  0  0  0  0  0  0  0  0  0
    6.9210   -0.6220   20.8110 N   0  0  0  0  0  0  0  0  0  0  0  0
    6.2260    0.0600   19.8790 C   0  0  0  0  0  0  0  0  0  0  0  0
    5.0100    0.6830   20.0740 C   0  0  0  0  0  0  0  0  0  0  0  0
    4.4550    1.3650   19.0150 C   0  0  0  0  0  0  0  0  0  0  0  0
    5.1320    1.4010   17.8070 C   0  0  0  0  0  0  0  0  0  0  0  0
    6.3070    0.7920   17.6070 N   0  0  0  0  0  0  0  0  0  0  0  0
    6.8170    0.1390   18.6470 C   0  0  0  0  0  0  0  0  0  0  0  0
    9.2120    0.6430   24.5440 C   0  0  0  0  0  0  0  0  0  0  0  0
    9.7730    1.8820   24.3770 C   0  0  0  0  0  0  0  0  0  0  0  0
   10.1420    1.8260   23.0330 O   0  0  0  0  0  0  0  0  0  0  0  0
  1  2  1  0
  2  3  1  0
  3  4  1  0
  4  5  2  0
  5  6  1  0
  6  7  2  0
  7  8  1  0
  4  9  1  0
  8  9  2  0
  8 10  1  0
 10 11  1  1
 11 12  1  0
 12 13  2  0
 12 14  1  0
 14 15  1  0
 15 16  2  0
 16 17  1  0
 17 18  2  0
 18 19  1  0
 15 20  1  0
 19 20  2  0
 10 21  1  0
 21 22  1  0
  7 23  1  0
 22 23  1  0
M  END
