pyridine_urea_276
     RDKit          3D

 27 31  0  0  0  0  0  0  0  0999 V2000
    8.7220    0.6500   21.1140 O   0  0  0  0  0  0  0  0  0  0  0  0
    8.4900   -0.5030   21.4370 C   0  0  0  0  0  0  0  0  0  0  0  0
    9.4410   -1.1630   22.2460 N   0  0  0  0  0  0  0  0  0  0  0  0
   10.2700   -0.0300   22.5790 C   0  0  0  0  0  0  0  0  0  0  0  0
   11.8120    0.1230   22.6780 C   0  0  0  0  0  0  0  0  0  0  0  0
   12.3820    1.5250   22.9900 C   0  0  0  0  0  0  0  0  0  0  0  0
   11.5310    2.6710   23.1930 C   0  0  0  0  0  0  0  0  0  0  0  0
   11.5670    4.2590   23.4950 C   0  0  1  0  0  0  0  0  0  0  0  0
   11.9930    5.2520   22.5030 C   0  0  0  0  0  0  0  0  0  0  0  0
   10.9900    6.1270   22.4760 C   0  0  2  0  0  0  0  0  0  0  0  0
   11.7890    6.9000   23.4690 C   0  0  0  0  0  0  0  0  0  0  0  0
   11.6210    6.4130   24.7100 C   0  0  1  0  0  0  0  0  0  0  0  0
   10.3070    6.4500   25.1600 C   0  0  0  0  0  0  0  0  0  0  0  0
    9.5580    5.5940   24.3800 C   0  0  1  0  0  0  0  0  0  0  0  0
    8.1870    5.5370   24.8380 O   0  0  0  0  0  0  0  0  0  0  0  0
    9.7300    5.6640   22.8920 C   0  0  0  0  0  0  0  0  0  0  0  0
   10.0030    4.2690   23.7220 C   0  0  0  0  0  0  0  0  0  0  0  0
   12.0490    5.1340   24.6960 C   0  0  0  0  0  0  0  0  0  0  0  0
   10.1980    2.3960   23.1090 C   0  0  0  0  0  0  0  0  0  0  0  0
    9.5690    1.2530   22.8490 C   0  0  0  0  0  0  0  0  0  0  0  0
    7.3210   -1.0990   21.0220 N   0  0  0  0  0  0  0  0  0  0  0  0
    6.5100   -0.3490   20.1150 C   0  0  0  0  0  0  0  0  0  0  0  0
    5.3000    0.2990   20.4030 C   0  0  0  0  0  0  0  0  0  0  0  0
    4.6250    1.0190   19.4000 C   0  0  0  0  0  0  0  0  0  0  0  0
    5.1760    1.0760   18.1340 C   0  0  0  0  0  0  0  0  0  0  0  0
    6.3360    0.4640   17.8280 N   0  0  0  0  0  0  0  0  0  0  0  0
    6.9620   -0.2250   18.8110 C   0  0  0  0  0  0  0  0  0  0  0  0
  1  2  2  0
  2  3  1  0
  3  4  1  0
  4  5  2  0
  5  6  1  0
  6  7  2  0
  8  7  1  6
  8  9  1  0
 10  9  1  1
 10 11  1  0
 12 11  1  6
 12 13  1  0
 13 14  1  0
 14 15  1  6
 10 16  1  0
 14 16  1  0
  8 17  1  0
 14 17  1  0
  8 18  1  0
 12 18  1  0
  7 19  1  0
  4 20  1  0
 19 20  2  0
  2 21  1  0
 21 22  1  0
 22 23  2  0
 23 24  1  0
 24 25  2  0
 25 26  1  0
 22 27  1  0
 26 27  2  0
M  END
