pyridine_urea_181
     RDKit          3D

 19 20  0  0  0  0  0  0  0  0999 V2000
   12.6770   -2.5160   24.3170 C   0  0  0  0  0  0  0  0  0  0  0  0
   11.3430   -2.6370   23.8110 O   0  0  0  0  0  0  0  0  0  0  0  0
   11.0900   -1.9830   22.5520 C   0  0  2  0  0  0  0  0  0  0  0  0
   12.3660   -2.0010   21.7410 C   0  0  0  0  0  0  0  0  0  0  0  0
   13.3280   -0.9720   22.1790 C   0  0  0  0  0  0  0  0  0  0  0  0
   12.8780    0.0680   22.9350 C   0  0  0  0  0  0  0  0  0  0  0  0
   11.4440    0.1990   23.3660 C   0  0  0  0  0  0  0  0  0  0  0  0
   10.5390   -0.7030   22.7240 C   0  0  2  0  0  0  0  0  0  0  0  0
    9.4100   -0.7660   23.3650 C   0  0  0  0  0  0  0  0  0  0  0  0
    8.4140   -1.2520   22.4800 N   0  0  0  0  0  0  0  0  0  0  0  0
    8.0060   -0.3520   21.5520 C   0  0  0  0  0  0  0  0  0  0  0  0
    8.6520    0.6480   21.2580 O   0  0  0  0  0  0  0  0  0  0  0  0
    6.8040   -0.7130   21.0360 N   0  0  0  0  0  0  0  0  0  0  0  0
    6.2320    0.0220   19.9270 C   0  0  0  0  0  0  0  0  0  0  0  0
    5.0400    0.6740   20.1810 C   0  0  0  0  0  0  0  0  0  0  0  0
    4.4500    1.4070   19.1730 C   0  0  0  0  0  0  0  0  0  0  0  0
    5.1600    1.4470   17.8420 C   0  0  0  0  0  0  0  0  0  0  0  0
    6.3200    0.8000   17.6110 N   0  0  0  0  0  0  0  0  0  0  0  0
    6.8530    0.0980   18.6210 C   0  0  0  0  0  0  0  0  0  0  0  0
  1  2  1  0
  3  2  1  1
  3  4  1  0
  4  5  1  0
  5  6  1  0
  6  7  1  0
  3  8  1  0
  7  8  1  0
  8  9  1  1
  9 10  1  0
 10 11  1  0
 11 12  2  0
 11 13  1  0
 13 14  1  0
 14 15  2  0
 15 16  1  0
 16 17  2  0
 17 18  1  0
 14 19  1  0
 18 19  2  0
M  END
