pyridine_urea_12805
     RDKit          3D

 20 22  0  0  0  0  0  0  0  0999 V2000
    8.8490    0.8320   21.3440 O   0  0  0  0  0  0  0  0  0  0  0  0
    8.2990   -0.2290   21.6040 C   0  0  0  0  0  0  0  0  0  0  0  0
    8.7940   -1.1190   22.5270 N   0  0  0  0  0  0  0  0  0  0  0  0
   10.2110   -1.1800   22.8270 C   0  0  0  0  0  0  0  0  0  0  0  0
   10.9550    0.0640   22.2940 C   0  0  0  0  0  0  0  0  0  0  0  0
   12.3520   -0.0340   22.3300 C   0  0  0  0  0  0  0  0  0  0  0  0
   12.1050   -0.4090   23.4590 C   0  0  0  0  0  0  0  0  0  0  0  0
   12.7130   -1.3420   24.0890 C   0  0  0  0  0  0  0  0  0  0  0  0
   12.1060   -1.4970   25.2020 C   0  0  0  0  0  0  0  0  0  0  0  0
   10.9640   -0.6780   25.5570 C   0  0  0  0  0  0  0  0  0  0  0  0
   10.2270    0.3590   24.9860 C   0  0  0  0  0  0  0  0  0  0  0  0
   11.0030    0.3500   23.8610 C   0  0  0  0  0  0  0  0  0  0  0  0
   10.5040    1.3440   22.9680 C   0  0  0  0  0  0  0  0  0  0  0  0
    7.1270   -0.6710   21.0460 N   0  0  0  0  0  0  0  0  0  0  0  0
    6.4600   -0.0050   20.0100 C   0  0  0  0  0  0  0  0  0  0  0  0
    5.2980    0.7000   20.3100 C   0  0  0  0  0  0  0  0  0  0  0  0
    4.6300    1.3910   19.2410 C   0  0  0  0  0  0  0  0  0  0  0  0
    5.1970    1.2990   17.9960 C   0  0  0  0  0  0  0  0  0  0  0  0
    6.3090    0.6170   17.7110 N   0  0  0  0  0  0  0  0  0  0  0  0
    6.9110   -0.0180   18.7200 C   0  0  0  0  0  0  0  0  0  0  0  0
  1  2  2  0
  2  3  1  0
  3  4  1  0
  4  5  1  0
  5  6  1  0
  6  7  1  0
  7  8  1  0
  8  9  2  0
  9 10  1  0
 10 11  2  0
  7 12  2  0
 11 12  1  0
  5 13  1  0
 12 13  1  0
  2 14  1  0
 14 15  1  0
 15 16  2  0
 16 17  1  0
 17 18  2  0
 18 19  1  0
 15 20  1  0
 19 20  2  0
M  END
