pyridine_urea_7052
     RDKit          3D

 20 21  0  0  0  0  0  0  0  0999 V2000
   12.1010    3.9130   22.1500 C   0  0  0  0  0  0  0  0  0  0  0  0
   11.1740    3.2020   22.5320 O   0  0  0  0  0  0  0  0  0  0  0  0
   11.4670    2.2630   23.4900 C   0  0  0  0  0  0  0  0  0  0  0  0
   11.1450    0.9590   23.1800 C   0  0  0  0  0  0  0  0  0  0  0  0
    9.8740    0.5120   23.1790 C   0  0  0  0  0  0  0  0  0  0  0  0
    9.6730   -0.7930   22.8190 C   0  0  0  0  0  0  0  0  0  0  0  0
    8.4130   -1.3050   22.7450 N   0  0  0  0  0  0  0  0  0  0  0  0
    7.8680   -0.5250   21.6150 C   0  0  0  0  0  0  0  0  0  0  0  0
    8.4820    0.4730   21.2270 O   0  0  0  0  0  0  0  0  0  0  0  0
    6.7130   -0.8990   21.0290 N   0  0  0  0  0  0  0  0  0  0  0  0
    6.1580   -0.1380   20.0430 C   0  0  0  0  0  0  0  0  0  0  0  0
    4.9870    0.6070   20.1460 C   0  0  0  0  0  0  0  0  0  0  0  0
    4.5310    1.3520   19.0730 C   0  0  0  0  0  0  0  0  0  0  0  0
    5.2180    1.3790   17.8790 C   0  0  0  0  0  0  0  0  0  0  0  0
    6.3550    0.6970   17.6710 N   0  0  0  0  0  0  0  0  0  0  0  0
    6.8070   -0.0750   18.8140 C   0  0  0  0  0  0  0  0  0  0  0  0
   10.6850   -1.6840   22.4760 C   0  0  0  0  0  0  0  0  0  0  0  0
   11.9730   -1.2220   22.4910 C   0  0  0  0  0  0  0  0  0  0  0  0
   12.1500    0.0940   22.8390 C   0  0  0  0  0  0  0  0  0  0  0  0
   13.6640    0.6260   22.8120 Cl  0  0  0  0  0  0  0  0  0  0  0  0
  1  2  1  0
  2  3  1  0
  3  4  1  0
  4  5  2  0
  5  6  1  0
  6  7  1  0
  7  8  1  0
  8  9  2  0
  8 10  1  0
 10 11  1  0
 11 12  2  0
 12 13  1  0
 13 14  2  0
 14 15  1  0
 11 16  1  0
 15 16  2  0
  6 17  2  0
 17 18  1  0
  4 19  1  0
 18 19  2  0
 19 20  1  0
M  END
