pyridine_urea_14964
     RDKit          3D

 19 19  0  0  0  0  0  0  0  0999 V2000
    9.2140    0.2960   29.8170 C   0  0  0  0  0  0  0  0  0  0  0  0
    8.2870   -0.7000   29.0980 C   0  0  0  0  0  0  0  0  0  0  0  0
    7.0580   -0.9410   29.9640 C   0  0  0  0  0  0  0  0  0  0  0  0
    7.9210   -0.2630   27.7480 N   0  0  0  0  0  0  0  0  0  0  0  0
    8.0330   -1.2140   26.7880 C   0  0  0  0  0  0  0  0  0  0  0  0
    7.9600   -2.4080   27.0430 O   0  0  0  0  0  0  0  0  0  0  0  0
    8.2400   -0.6240   25.4750 N   0  0  0  0  0  0  0  0  0  0  0  0
    7.9200   -1.3080   24.3100 C   0  0  0  0  0  0  0  0  0  0  0  0
    9.0900   -1.7640   23.4350 C   0  0  0  0  0  0  0  0  0  0  0  0
    8.9710   -1.4510   22.0960 N   0  0  0  0  0  0  0  0  0  0  0  0
    8.3900   -0.3120   21.5080 C   0  0  0  0  0  0  0  0  0  0  0  0
    8.9510    0.7640   21.3530 O   0  0  0  0  0  0  0  0  0  0  0  0
    7.1060   -0.5740   21.1120 N   0  0  0  0  0  0  0  0  0  0  0  0
    6.4500    0.0580   20.0460 C   0  0  0  0  0  0  0  0  0  0  0  0
    5.2860    0.7840   20.3080 C   0  0  0  0  0  0  0  0  0  0  0  0
    4.6490    1.4200   19.2520 C   0  0  0  0  0  0  0  0  0  0  0  0
    5.1790    1.3180   17.9760 C   0  0  0  0  0  0  0  0  0  0  0  0
    6.2890    0.6230   17.7100 N   0  0  0  0  0  0  0  0  0  0  0  0
    6.8970    0.0080   18.7450 C   0  0  0  0  0  0  0  0  0  0  0  0
  1  2  1  0
  2  3  1  0
  2  4  1  0
  4  5  1  0
  5  6  2  0
  5  7  1  0
  7  8  1  0
  8  9  1  0
  9 10  1  0
 10 11  1  0
 11 12  2  0
 11 13  1  0
 13 14  1  0
 14 15  2  0
 15 16  1  0
 16 17  2  0
 17 18  1  0
 14 19  1  0
 18 19  2  0
M  END
