pyridine_urea_7033
     RDKit          3D

 20 21  0  0  0  0  0  0  0  0999 V2000
    8.7090    0.8590   21.3050 O   0  0  0  0  0  0  0  0  0  0  0  0
    8.3470   -0.3000   21.4320 C   0  0  0  0  0  0  0  0  0  0  0  0
    9.1150   -1.3100   21.9540 N   0  0  0  0  0  0  0  0  0  0  0  0
   10.2160   -1.0660   22.7810 C   0  0  0  0  0  0  0  0  0  0  0  0
   10.0790   -0.1540   23.8120 C   0  0  0  0  0  0  0  0  0  0  0  0
   11.2210    0.2630   24.4640 C   0  0  0  0  0  0  0  0  0  0  0  0
   12.3820    0.1970   23.7380 C   0  0  0  0  0  0  0  0  0  0  0  0
   12.6880    1.2360   22.8840 C   0  0  0  0  0  0  0  0  0  0  0  0
   12.0140    2.4480   23.0370 N   0  0  0  0  0  0  0  0  0  0  0  0
   12.5470    3.6930   22.7710 C   0  0  0  0  0  0  0  0  0  0  0  0
   11.5780    4.6570   22.8900 C   0  0  0  0  0  0  0  0  0  0  0  0
   10.3730    3.9860   23.1100 C   0  0  0  0  0  0  0  0  0  0  0  0
   10.6120    2.5990   23.1960 C   0  0  0  0  0  0  0  0  0  0  0  0
    7.1050   -0.7330   21.0400 N   0  0  0  0  0  0  0  0  0  0  0  0
    6.4510   -0.0420   19.9660 C   0  0  0  0  0  0  0  0  0  0  0  0
    5.1970    0.7250   20.2600 C   0  0  0  0  0  0  0  0  0  0  0  0
    4.5830    1.4230   19.1890 C   0  0  0  0  0  0  0  0  0  0  0  0
    5.1690    1.3650   17.9210 C   0  0  0  0  0  0  0  0  0  0  0  0
    6.2950    0.6550   17.6910 N   0  0  0  0  0  0  0  0  0  0  0  0
    6.9330   -0.0430   18.6850 C   0  0  0  0  0  0  0  0  0  0  0  0
  1  2  2  0
  2  3  1  0
  3  4  1  0
  4  5  1  0
  5  6  1  0
  6  7  1  0
  7  8  1  0
  8  9  1  0
  9 10  1  0
 10 11  1  0
 11 12  1  0
  9 13  1  0
 12 13  1  0
  2 14  1  0
 14 15  1  0
 15 16  2  0
 16 17  1  0
 17 18  2  0
 18 19  1  0
 15 20  1  0
 19 20  2  0
M  END
