pyridine_urea_4373
     RDKit          3D

 23 25  0  0  0  0  0  0  0  0999 V2000
   10.9140   -1.6130   21.9950 C   0  0  0  0  0  0  0  0  0  0  0  0
   10.0680   -0.3280   22.1470 C   0  0  2  0  0  0  0  0  0  0  0  0
   10.6000    0.5830   23.2430 C   0  0  0  0  0  0  0  0  0  0  0  0
   11.8390   -0.1400   23.5750 C   0  0  0  0  0  0  0  0  0  0  0  0
   13.2390   -0.3810   23.5140 C   0  0  0  0  0  0  0  0  0  0  0  0
   12.9850   -1.7020   24.4480 N   0  0  0  0  0  0  0  0  0  0  0  0
   13.8650   -2.6380   24.8900 C   0  0  0  0  0  0  0  0  0  0  0  0
   11.5750   -1.8630   24.8240 C   0  0  0  0  0  0  0  0  0  0  0  0
   10.3830   -1.1270   24.5640 C   0  0  0  0  0  0  0  0  0  0  0  0
   10.3030    0.0620   23.7830 C   0  0  0  0  0  0  0  0  0  0  0  0
   11.4560    0.5810   23.2000 C   0  0  0  0  0  0  0  0  0  0  0  0
   12.5870   -0.1000   23.4370 C   0  0  0  0  0  0  0  0  0  0  0  0
   12.4000   -1.2050   24.2260 C   0  0  0  0  0  0  0  0  0  0  0  0
    8.7940   -0.7200   22.2890 N   0  0  0  0  0  0  0  0  0  0  0  0
    7.9360   -0.1080   21.4000 C   0  0  0  0  0  0  0  0  0  0  0  0
    8.1530    1.0090   20.9490 O   0  0  0  0  0  0  0  0  0  0  0  0
    6.8470   -0.7550   20.9960 N   0  0  0  0  0  0  0  0  0  0  0  0
    6.2330   -0.0520   20.0310 C   0  0  0  0  0  0  0  0  0  0  0  0
    4.9590    0.7040   20.1690 C   0  0  0  0  0  0  0  0  0  0  0  0
    4.4860    1.3890   19.0530 C   0  0  0  0  0  0  0  0  0  0  0  0
    5.2170    1.3340   17.8830 C   0  0  0  0  0  0  0  0  0  0  0  0
    6.3690    0.6610   17.7100 N   0  0  0  0  0  0  0  0  0  0  0  0
    6.8220   -0.0000   18.7890 C   0  0  0  0  0  0  0  0  0  0  0  0
  2  1  1  1
  2  3  1  0
  3  4  1  0
  4  5  2  0
  5  6  1  0
  6  7  1  0
  6  8  1  0
  8  9  1  0
  9 10  2  0
 10 11  1  0
 11 12  2  0
  4 13  1  0
  8 13  2  0
 12 13  1  0
  2 14  1  0
 14 15  1  0
 15 16  2  0
 15 17  1  0
 17 18  1  0
 18 19  2  0
 19 20  1  0
 20 21  2  0
 21 22  1  0
 18 23  1  0
 22 23  2  0
M  END
