pyridine_urea_11568
     RDKit          3D

 17 18  0  0  0  0  0  0  0  0999 V2000
    8.6230    0.9870   21.1720 O   0  0  0  0  0  0  0  0  0  0  0  0
    8.3410   -0.1720   21.4140 C   0  0  0  0  0  0  0  0  0  0  0  0
    7.1540   -0.7240   21.0390 N   0  0  0  0  0  0  0  0  0  0  0  0
    6.4490   -0.0780   20.0220 C   0  0  0  0  0  0  0  0  0  0  0  0
    5.2650    0.6030   20.3140 C   0  0  0  0  0  0  0  0  0  0  0  0
    4.5820    1.2700   19.2930 C   0  0  0  0  0  0  0  0  0  0  0  0
    5.1120    1.2250   18.0200 C   0  0  0  0  0  0  0  0  0  0  0  0
    6.2400    0.5700   17.7190 N   0  0  0  0  0  0  0  0  0  0  0  0
    6.8800   -0.0630   18.7190 C   0  0  0  0  0  0  0  0  0  0  0  0
    9.2030   -1.0080   22.0770 N   0  0  0  0  0  0  0  0  0  0  0  0
   10.4230   -0.4450   22.6600 C   0  0  1  0  0  0  0  0  0  0  0  0
   10.2870    1.0620   22.9950 C   0  0  0  0  0  0  0  0  0  0  0  0
    9.7710    1.8130   21.9100 O   0  0  0  0  0  0  0  0  0  0  0  0
   10.8250   -1.2890   23.8690 C   0  0  0  0  0  0  0  0  0  0  0  0
   12.0410   -1.6200   23.3910 C   0  0  2  0  0  0  0  0  0  0  0  0
   13.0350   -1.0850   24.0530 O   0  0  0  0  0  0  0  0  0  0  0  0
   11.7310   -0.9350   22.2620 C   0  0  0  0  0  0  0  0  0  0  0  0
  1  2  2  0
  2  3  1  0
  3  4  1  0
  4  5  2  0
  5  6  1  0
  6  7  2  0
  7  8  1  0
  4  9  1  0
  8  9  2  0
  2 10  1  0
 11 10  1  0
 11 12  1  1
 12 13  1  0
 11 14  1  0
 14 15  1  0
 15 16  1  1
 11 17  1  0
 15 17  1  0
M  END
