pyridine_urea_13575
     RDKit          3D

 18 19  0  0  0  0  0  0  0  0999 V2000
    6.7190   -6.7540   22.8650 C   0  0  0  0  0  0  0  0  0  0  0  0
    6.4490   -5.4790   22.0970 C   0  0  0  0  0  0  0  0  0  0  0  0
    5.4590   -5.4020   21.0580 N   0  0  0  0  0  0  0  0  0  0  0  0
    5.5860   -4.0840   20.6760 N   0  0  0  0  0  0  0  0  0  0  0  0
    6.5620   -3.4000   21.3990 C   0  0  0  0  0  0  0  0  0  0  0  0
    6.8610   -1.9410   21.1070 C   0  0  2  0  0  0  0  0  0  0  0  0
    6.1850   -1.6140   19.7950 C   0  0  0  0  0  0  0  0  0  0  0  0
    8.2060   -1.5650   21.2670 N   0  0  0  0  0  0  0  0  0  0  0  0
    8.3120   -0.1850   21.4350 C   0  0  0  0  0  0  0  0  0  0  0  0
    9.3610    0.4280   21.5440 O   0  0  0  0  0  0  0  0  0  0  0  0
    7.0630    0.3150   21.4430 N   0  0  0  0  0  0  0  0  0  0  0  0
    6.4290    0.7000   20.2130 C   0  0  0  0  0  0  0  0  0  0  0  0
    5.2830    1.4930   20.2040 C   0  0  0  0  0  0  0  0  0  0  0  0
    4.6950    1.8620   18.9940 C   0  0  0  0  0  0  0  0  0  0  0  0
    5.2030    1.4750   17.7630 C   0  0  0  0  0  0  0  0  0  0  0  0
    6.3780    0.6460   17.8200 N   0  0  0  0  0  0  0  0  0  0  0  0
    6.9370    0.2910   18.9960 C   0  0  0  0  0  0  0  0  0  0  0  0
    7.1490   -4.2250   22.3280 N   0  0  0  0  0  0  0  0  0  0  0  0
  1  2  1  0
  2  3  2  0
  3  4  1  0
  4  5  1  0
  5  6  1  0
  6  7  1  6
  6  8  1  0
  8  9  1  0
  9 10  2  0
  9 11  1  0
 11 12  1  0
 12 13  2  0
 13 14  1  0
 14 15  2  0
 15 16  1  0
 12 17  1  0
 16 17  2  0
  2 18  1  0
  5 18  2  0
M  END
