pyridine_urea_6742
     RDKit          3D

 21 22  0  0  0  0  0  0  0  0999 V2000
    8.8040    0.8890   21.2960 O   0  0  0  0  0  0  0  0  0  0  0  0
    8.3820   -0.2620   21.3490 C   0  0  0  0  0  0  0  0  0  0  0  0
    9.0930   -1.3520   21.7530 N   0  0  0  0  0  0  0  0  0  0  0  0
   10.2040   -1.3240   22.5960 C   0  0  0  0  0  0  0  0  0  0  0  0
   11.6170   -1.6190   22.0860 C   0  0  0  0  0  0  0  0  0  0  0  0
   12.5770   -0.4710   22.4140 C   0  0  2  0  0  0  0  0  0  0  0  0
   13.5420   -0.6770   21.6960 O   0  0  0  0  0  0  0  0  0  0  0  0
   13.1410   -0.4820   23.7670 C   0  0  0  0  0  0  0  0  0  0  0  0
   11.9640   -0.4550   24.1460 C   0  0  0  0  0  0  0  0  0  0  0  0
   10.7620   -0.4150   23.6760 C   0  0  0  0  0  0  0  0  0  0  0  0
    9.8110   -0.4160   24.4910 C   0  0  0  0  0  0  0  0  0  0  0  0
    7.9260   -0.3780   24.4750 Br  0  0  0  0  0  0  0  0  0  0  0  0
   10.8280   -0.4640   25.4920 C   0  0  0  0  0  0  0  0  0  0  0  0
   12.3570   -0.4890   25.1950 C   0  0  0  0  0  0  0  0  0  0  0  0
    7.1170   -0.6420   20.9910 N   0  0  0  0  0  0  0  0  0  0  0  0
    6.3530    0.0540   20.0510 C   0  0  0  0  0  0  0  0  0  0  0  0
    5.1250    0.7190   20.3640 C   0  0  0  0  0  0  0  0  0  0  0  0
    4.5640    1.3970   19.1110 C   0  0  0  0  0  0  0  0  0  0  0  0
    5.1950    1.3360   17.8990 C   0  0  0  0  0  0  0  0  0  0  0  0
    6.3390    0.6810   17.7060 N   0  0  0  0  0  0  0  0  0  0  0  0
    6.8720    0.0690   18.7680 C   0  0  0  0  0  0  0  0  0  0  0  0
  1  2  2  0
  2  3  1  0
  3  4  1  0
  4  5  1  0
  5  6  1  0
  6  7  1  6
  6  8  1  0
  8  9  2  0
  9 10  1  0
 10 11  2  0
 11 12  1  0
 11 13  1  0
  8 14  1  0
 13 14  2  0
  2 15  1  0
 15 16  1  0
 16 17  2  0
 17 18  1  0
 18 19  2  0
 19 20  1  0
 16 21  1  0
 20 21  2  0
M  END
