pyridine_urea_11540
     RDKit          3D

 16 17  0  0  0  0  0  0  0  0999 V2000
   12.3650   -2.7000   24.5920 C   0  0  0  0  0  0  0  0  0  0  0  0
   13.1720   -1.1490   24.1860 S   0  0  0  0  0  0  0  0  0  0  0  0
   12.1370   -0.6260   22.7900 C   0  0  1  0  0  0  0  0  0  0  0  0
   11.5980   -1.6860   22.1400 C   0  0  0  0  0  0  0  0  0  0  0  0
   10.3400   -1.3420   22.5590 C   0  0  2  0  0  0  0  0  0  0  0  0
    9.2100   -1.2880   21.7210 N   0  0  0  0  0  0  0  0  0  0  0  0
    8.4040   -0.2190   21.3740 C   0  0  0  0  0  0  0  0  0  0  0  0
    8.8210    0.9260   21.3000 O   0  0  0  0  0  0  0  0  0  0  0  0
    7.1400   -0.6380   21.1330 N   0  0  0  0  0  0  0  0  0  0  0  0
    6.5050   -0.0060   20.1130 C   0  0  0  0  0  0  0  0  0  0  0  0
    5.3380    0.6990   20.3910 C   0  0  0  0  0  0  0  0  0  0  0  0
    4.6330    1.4220   19.2290 C   0  0  0  0  0  0  0  0  0  0  0  0
    5.2150    1.3170   17.9860 C   0  0  0  0  0  0  0  0  0  0  0  0
    6.3420    0.6190   17.7650 N   0  0  0  0  0  0  0  0  0  0  0  0
    6.9490   -0.0140   18.7990 C   0  0  0  0  0  0  0  0  0  0  0  0
   10.7030   -0.1430   23.2190 C   0  0  0  0  0  0  0  0  0  0  0  0
  1  2  1  0
  3  2  1  1
  3  4  1  0
  4  5  1  0
  5  6  1  6
  6  7  1  0
  7  8  2  0
  7  9  1  0
  9 10  1  0
 10 11  2  0
 11 12  1  0
 12 13  2  0
 13 14  1  0
 10 15  1  0
 14 15  2  0
  3 16  1  0
  5 16  1  0
M  END
