pyridine_urea_1642
     RDKit          3D

 18 18  0  0  0  0  0  0  0  0999 V2000
   13.7870   -2.8500   25.2780 C   0  0  0  0  0  0  0  0  0  0  0  0
   12.7060   -1.9560   25.2580 O   0  0  0  0  0  0  0  0  0  0  0  0
   11.5290   -2.5540   24.8860 C   0  0  0  0  0  0  0  0  0  0  0  0
   11.3830   -3.7560   24.7570 O   0  0  0  0  0  0  0  0  0  0  0  0
   10.5050   -1.6620   24.6700 C   0  0  0  0  0  0  0  0  0  0  0  0
   10.3550   -0.9710   23.5390 C   0  0  0  0  0  0  0  0  0  0  0  0
   10.7250   -0.6410   22.3140 C   0  0  1  0  0  0  0  0  0  0  0  0
   11.8640   -1.3600   21.9090 C   0  0  0  0  0  0  0  0  0  0  0  0
    9.5760   -0.9640   21.4830 N   0  0  0  0  0  0  0  0  0  0  0  0
    8.5900   -0.0120   21.3640 C   0  0  0  0  0  0  0  0  0  0  0  0
    8.8320    1.1770   21.4810 O   0  0  0  0  0  0  0  0  0  0  0  0
    7.3520   -0.5520   21.0620 N   0  0  0  0  0  0  0  0  0  0  0  0
    6.4900    0.0960   20.0710 C   0  0  0  0  0  0  0  0  0  0  0  0
    5.3160    0.7830   20.3320 C   0  0  0  0  0  0  0  0  0  0  0  0
    4.6180    1.3720   19.2820 C   0  0  0  0  0  0  0  0  0  0  0  0
    5.1260    1.2470   18.0010 C   0  0  0  0  0  0  0  0  0  0  0  0
    6.2500    0.5810   17.7170 N   0  0  0  0  0  0  0  0  0  0  0  0
    6.8950    0.0260   18.7510 C   0  0  0  0  0  0  0  0  0  0  0  0
  1  2  1  0
  2  3  1  0
  3  4  2  0
  3  5  1  0
  5  6  2  3
  6  7  1  0
  7  8  1  6
  7  9  1  0
  9 10  1  0
 10 11  2  0
 10 12  1  0
 12 13  1  0
 13 14  2  0
 14 15  1  0
 15 16  2  0
 16 17  1  0
 13 18  1  0
 17 18  2  0
M  END
