pyridine_urea_6793
     RDKit          3D

 21 22  0  0  0  0  0  0  0  0999 V2000
    8.5800    1.4710   24.4240 C   0  0  0  0  0  0  0  0  0  0  0  0
    9.8200    0.5690   24.3160 C   0  0  0  0  0  0  0  0  0  0  0  0
   10.0270   -0.1480   25.6610 C   0  0  0  0  0  0  0  0  0  0  0  0
    9.5820   -0.5650   23.2720 C   0  0  0  0  0  0  0  0  0  0  0  0
    8.2670   -0.4950   22.7320 N   0  0  0  0  0  0  0  0  0  0  0  0
    8.1000    0.0790   21.5080 C   0  0  0  0  0  0  0  0  0  0  0  0
    8.7170    1.0810   21.1060 O   0  0  0  0  0  0  0  0  0  0  0  0
    7.1600   -0.6340   20.8800 N   0  0  0  0  0  0  0  0  0  0  0  0
    6.4460    0.0540   19.9950 C   0  0  0  0  0  0  0  0  0  0  0  0
    5.2750    0.7590   20.2480 C   0  0  0  0  0  0  0  0  0  0  0  0
    4.6120    1.4560   19.2380 C   0  0  0  0  0  0  0  0  0  0  0  0
    5.1530    1.4260   17.9670 C   0  0  0  0  0  0  0  0  0  0  0  0
    6.2700    0.7730   17.6140 N   0  0  0  0  0  0  0  0  0  0  0  0
    6.9010    0.1060   18.5950 C   0  0  0  0  0  0  0  0  0  0  0  0
   11.0770    1.1730   23.7000 C   0  0  0  0  0  0  0  0  0  0  0  0
   12.3990    1.3390   23.1060 C   0  0  0  0  0  0  0  0  0  0  0  0
   13.3510    0.2320   22.8300 C   0  0  0  0  0  0  0  0  0  0  0  0
   13.0820   -0.9850   23.1380 C   0  0  0  0  0  0  0  0  0  0  0  0
   11.9480   -1.2740   23.7090 C   0  0  0  0  0  0  0  0  0  0  0  0
   11.5650   -3.0260   24.2100 Br  0  0  0  0  0  0  0  0  0  0  0  0
   10.9590   -0.3870   24.0030 C   0  0  0  0  0  0  0  0  0  0  0  0
  2  1  1  0
  2  3  1  0
  2  4  1  0
  4  5  1  0
  5  6  1  0
  6  7  2  0
  6  8  1  0
  8  9  1  0
  9 10  2  0
 10 11  1  0
 11 12  2  0
 12 13  1  0
  9 14  1  0
 13 14  2  0
  2 15  1  0
 15 16  2  0
 16 17  1  0
 17 18  2  0
 18 19  1  0
 19 20  1  0
 15 21  1  0
 19 21  2  0
M  END
