pyridine_urea_13023
     RDKit          3D

 21 22  0  0  0  0  0  0  0  0999 V2000
   11.8530    2.4070   23.2140 C   0  0  0  0  0  0  0  0  0  0  0  0
   11.7830    0.9650   23.6220 C   0  0  2  0  0  0  0  0  0  0  0  0
   12.7220    0.1950   22.9300 C   0  0  0  0  0  0  0  0  0  0  0  0
   12.5850   -1.1680   22.7180 C   0  0  0  0  0  0  0  0  0  0  0  0
   12.9100   -1.8980   23.8500 C   0  0  0  0  0  0  0  0  0  0  0  0
   13.1330   -1.6640   21.5110 C   0  0  0  0  0  0  0  0  0  0  0  0
   11.1000   -1.3820   22.4120 C   0  0  0  0  0  0  0  0  0  0  0  0
   10.1100   -0.7590   23.3790 C   0  0  2  0  0  0  0  0  0  0  0  0
    9.8160   -1.5920   24.4600 C   0  0  0  0  0  0  0  0  0  0  0  0
   10.8420   -2.0320   24.9640 O   0  0  0  0  0  0  0  0  0  0  0  0
    8.8200   -0.8900   22.5940 N   0  0  0  0  0  0  0  0  0  0  0  0
    8.4210   -0.0030   21.6100 C   0  0  0  0  0  0  0  0  0  0  0  0
    9.0360    1.1930   21.2700 O   0  0  0  0  0  0  0  0  0  0  0  0
    7.2680   -0.4960   21.0230 N   0  0  0  0  0  0  0  0  0  0  0  0
    6.5450    0.1180   20.0020 C   0  0  0  0  0  0  0  0  0  0  0  0
    5.3930    0.8550   20.3200 C   0  0  0  0  0  0  0  0  0  0  0  0
    4.6810    1.4840   19.2890 C   0  0  0  0  0  0  0  0  0  0  0  0
    5.1680    1.3320   18.0040 C   0  0  0  0  0  0  0  0  0  0  0  0
    6.2540    0.6320   17.6530 N   0  0  0  0  0  0  0  0  0  0  0  0
    6.9000    0.0510   18.6730 C   0  0  0  0  0  0  0  0  0  0  0  0
   10.4380    0.5440   23.7800 C   0  0  0  0  0  0  0  0  0  0  0  0
  2  1  1  6
  2  3  1  0
  3  4  1  0
  4  5  1  0
  4  6  1  0
  4  7  1  0
  7  8  1  0
  8  9  1  1
  9 10  1  0
  8 11  1  0
 11 12  1  0
 12 13  2  0
 12 14  1  0
 14 15  1  0
 15 16  2  0
 16 17  1  0
 17 18  2  0
 18 19  1  0
 15 20  1  0
 19 20  2  0
  2 21  1  0
  8 21  1  0
M  END
