pyridine_urea_6569
     RDKit          3D

 22 24  0  0  0  0  0  0  0  0999 V2000
    8.6970    1.2500   20.9620 O   0  0  0  0  0  0  0  0  0  0  0  0
    8.0520    0.3020   21.4190 C   0  0  0  0  0  0  0  0  0  0  0  0
    7.1290   -0.4650   20.7970 N   0  0  0  0  0  0  0  0  0  0  0  0
    6.3330    0.1740   19.8970 C   0  0  0  0  0  0  0  0  0  0  0  0
    4.9820    0.8110   20.2220 C   0  0  0  0  0  0  0  0  0  0  0  0
    4.3480    1.4960   19.0240 C   0  0  0  0  0  0  0  0  0  0  0  0
    5.1060    1.4520   17.7360 C   0  0  0  0  0  0  0  0  0  0  0  0
    6.2850    0.8400   17.5830 N   0  0  0  0  0  0  0  0  0  0  0  0
    6.8420    0.2390   18.6310 C   0  0  0  0  0  0  0  0  0  0  0  0
    8.1780   -0.0800   22.6880 N   0  0  0  0  0  0  0  0  0  0  0  0
    9.4240    0.1140   23.2790 C   0  0  2  0  0  0  0  0  0  0  0  0
   10.1250    1.2890   22.9470 C   0  0  0  0  0  0  0  0  0  0  0  0
   11.4660    0.9130   23.0040 C   0  0  0  0  0  0  0  0  0  0  0  0
   11.3870   -0.3020   23.6260 C   0  0  2  0  0  0  0  0  0  0  0  0
   12.3160   -1.1560   23.8100 C   0  0  0  0  0  0  0  0  0  0  0  0
   12.9670   -1.6030   24.9360 C   0  0  0  0  0  0  0  0  0  0  0  0
   13.8600   -2.6240   24.5200 C   0  0  0  0  0  0  0  0  0  0  0  0
   13.9500   -2.9390   23.2200 C   0  0  0  0  0  0  0  0  0  0  0  0
   13.2460   -2.3850   22.1640 C   0  0  0  0  0  0  0  0  0  0  0  0
   13.4330   -2.7580   20.9020 F   0  0  0  0  0  0  0  0  0  0  0  0
   12.3430   -1.4500   22.3370 C   0  0  0  0  0  0  0  0  0  0  0  0
   10.3600   -0.9070   22.7290 C   0  0  0  0  0  0  0  0  0  0  0  0
  1  2  2  0
  2  3  1  0
  3  4  1  0
  4  5  2  0
  5  6  1  0
  6  7  2  0
  7  8  1  0
  4  9  1  0
  8  9  2  0
  2 10  1  0
 11 10  1  6
 11 12  1  0
 12 13  1  0
 13 14  1  0
 14 15  1  6
 15 16  2  0
 16 17  1  0
 17 18  2  0
 18 19  1  0
 19 20  1  0
 15 21  1  0
 19 21  2  0
 11 22  1  0
 14 22  1  0
M  END
