pyridine_urea_10422
     RDKit          3D

 22 22  0  0  0  0  0  0  0  0999 V2000
   10.3620   -0.1630   24.4490 C   0  0  0  0  0  0  0  0  0  0  0  0
    9.9100   -0.0850   22.9920 C   0  0  0  0  0  0  0  0  0  0  0  0
    9.9970    1.3940   22.5930 C   0  0  0  0  0  0  0  0  0  0  0  0
   10.6510   -1.0610   22.0480 C   0  0  0  0  0  0  0  0  0  0  0  0
   12.1230   -1.2280   22.1870 C   0  0  0  0  0  0  0  0  0  0  0  0
   12.4870   -2.3360   22.8540 C   0  0  0  0  0  0  0  0  0  0  0  0
   13.4920   -2.8800   22.4460 O   0  0  0  0  0  0  0  0  0  0  0  0
   11.7580   -2.6660   23.7580 O   0  0  0  0  0  0  0  0  0  0  0  0
   12.3730   -2.1900   24.8940 C   0  0  0  0  0  0  0  0  0  0  0  0
   13.4530   -1.5660   24.3750 C   0  0  0  0  0  0  0  0  0  0  0  0
   12.0370   -0.6980   25.2300 C   0  0  0  0  0  0  0  0  0  0  0  0
   13.6510   -2.8650   25.4310 C   0  0  0  0  0  0  0  0  0  0  0  0
    8.5040   -0.4240   22.9150 N   0  0  0  0  0  0  0  0  0  0  0  0
    8.1600    0.1530   21.6090 C   0  0  0  0  0  0  0  0  0  0  0  0
    8.7420    1.1350   21.1190 O   0  0  0  0  0  0  0  0  0  0  0  0
    7.1240   -0.5100   21.0340 N   0  0  0  0  0  0  0  0  0  0  0  0
    6.4600    0.0860   19.9800 C   0  0  0  0  0  0  0  0  0  0  0  0
    5.1750    0.8510   20.2430 C   0  0  0  0  0  0  0  0  0  0  0  0
    4.5710    1.4420   19.1580 C   0  0  0  0  0  0  0  0  0  0  0  0
    5.1440    1.3240   17.8970 C   0  0  0  0  0  0  0  0  0  0  0  0
    6.2760    0.6410   17.6580 N   0  0  0  0  0  0  0  0  0  0  0  0
    6.9030    0.0420   18.6880 C   0  0  0  0  0  0  0  0  0  0  0  0
  1  2  1  0
  2  3  1  0
  2  4  1  0
  4  5  1  0
  5  6  1  0
  6  7  2  0
  6  8  1  0
  9  8  1  0
  9 10  1  0
  9 11  1  0
  9 12  1  0
  2 13  1  0
 13 14  1  0
 14 15  2  0
 14 16  1  0
 16 17  1  0
 17 18  2  0
 18 19  1  0
 19 20  2  0
 20 21  1  0
 17 22  1  0
 21 22  2  0
M  END
