pyridine_urea_3826
     RDKit          3D

 21 22  0  0  0  0  0  0  0  0999 V2000
    3.8560    0.7920   18.8680 C   0  0  0  0  0  0  0  0  0  0  0  0
    5.1220    1.4990   18.8270 C   0  0  0  0  0  0  0  0  0  0  0  0
    5.1630    2.6460   19.6050 C   0  0  0  0  0  0  0  0  0  0  0  0
    5.2950    1.6950   17.3650 C   0  0  0  0  0  0  0  0  0  0  0  0
    6.1330    0.5480   19.1120 N   0  0  0  0  0  0  0  0  0  0  0  0
    5.6030   -0.6440   19.6790 C   0  0  0  0  0  0  0  0  0  0  0  0
    5.0700   -0.7230   20.9790 C   0  0  0  0  0  0  0  0  0  0  0  0
    5.3020    0.5690   21.0960 C   0  0  0  0  0  0  0  0  0  0  0  0
    6.5250   -0.3800   20.8590 C   0  0  0  0  0  0  0  0  0  0  0  0
    7.8820   -0.5350   20.5670 N   0  0  0  0  0  0  0  0  0  0  0  0
    8.8100   -0.0480   21.4020 C   0  0  0  0  0  0  0  0  0  0  0  0
    9.2310    1.1120   21.2960 O   0  0  0  0  0  0  0  0  0  0  0  0
    9.2250   -0.9100   22.3270 N   0  0  0  0  0  0  0  0  0  0  0  0
   10.5120   -0.6950   22.5520 C   0  0  0  0  0  0  0  0  0  0  0  0
   10.9010    0.5350   22.9200 C   0  0  0  0  0  0  0  0  0  0  0  0
   12.2250    0.8140   23.1440 C   0  0  0  0  0  0  0  0  0  0  0  0
   13.3440   -0.0070   23.0650 C   0  0  0  0  0  0  0  0  0  0  0  0
   12.8250   -1.2260   22.6890 N   0  0  0  0  0  0  0  0  0  0  0  0
   11.5420   -1.5530   22.4500 C   0  0  0  0  0  0  0  0  0  0  0  0
    6.9320    0.9140   20.2880 C   0  0  0  0  0  0  0  0  0  0  0  0
    7.6410    1.8550   20.6880 O   0  0  0  0  0  0  0  0  0  0  0  0
  2  1  1  0
  2  3  1  0
  2  4  1  0
  2  5  1  0
  5  6  1  0
  6  7  2  0
  7  8  1  0
  8  9  2  0
  9 10  1  0
 10 11  1  0
 11 12  2  0
 11 13  1  0
 13 14  1  0
 14 15  2  0
 15 16  1  0
 16 17  2  0
 17 18  1  0
 14 19  1  0
 18 19  2  0
  5 20  1  0
  9 20  1  0
 20 21  2  0
M  END
