pyridine_urea_7146
     RDKit          3D

 19 20  0  0  0  0  0  0  0  0999 V2000
    8.8470    1.6440   21.0770 O   0  0  0  0  0  0  0  0  0  0  0  0
    8.3410    0.6500   21.5850 C   0  0  0  0  0  0  0  0  0  0  0  0
    8.7360    0.1270   22.7690 N   0  0  0  0  0  0  0  0  0  0  0  0
    9.0760   -1.1910   22.9120 C   0  0  0  0  0  0  0  0  0  0  0  0
   10.1490   -1.5770   23.6280 C   0  0  0  0  0  0  0  0  0  0  0  0
   11.4390   -1.8570   24.2630 C   0  0  0  0  0  0  0  0  0  0  0  0
   12.7850   -1.4740   24.0900 C   0  0  0  0  0  0  0  0  0  0  0  0
   13.7780   -2.2940   25.2470 Cl  0  0  0  0  0  0  0  0  0  0  0  0
   13.1350   -0.5850   23.1040 C   0  0  0  0  0  0  0  0  0  0  0  0
   11.8470   -0.3460   22.5250 C   0  0  0  0  0  0  0  0  0  0  0  0
   11.6280   -1.5780   23.9140 Br  0  0  0  0  0  0  0  0  0  0  0  0
   10.5780   -0.6570   22.6070 C   0  0  0  0  0  0  0  0  0  0  0  0
    7.3180   -0.1090   21.0820 N   0  0  0  0  0  0  0  0  0  0  0  0
    6.5170    0.3840   19.9790 C   0  0  0  0  0  0  0  0  0  0  0  0
    5.3640    1.0880   20.2790 C   0  0  0  0  0  0  0  0  0  0  0  0
    4.6170    1.5900   19.2280 C   0  0  0  0  0  0  0  0  0  0  0  0
    5.1210    1.3270   17.8660 C   0  0  0  0  0  0  0  0  0  0  0  0
    6.2340    0.6280   17.6210 N   0  0  0  0  0  0  0  0  0  0  0  0
    6.9080    0.1690   18.6800 C   0  0  0  0  0  0  0  0  0  0  0  0
  1  2  2  0
  2  3  1  0
  3  4  1  0
  4  5  1  0
  5  6  2  0
  6  7  1  0
  7  8  1  0
  7  9  2  0
  9 10  1  0
 10 11  1  0
  5 12  1  0
 10 12  2  0
  2 13  1  0
 13 14  1  0
 14 15  2  0
 15 16  1  0
 16 17  2  0
 17 18  1  0
 14 19  1  0
 18 19  2  0
M  END
