pyridine_urea_7129
     RDKit          3D

 19 20  0  0  0  0  0  0  0  0999 V2000
   11.7140    1.1280   23.7520 C   0  0  0  0  0  0  0  0  0  0  0  0
   10.2590    0.7270   23.5830 C   0  0  0  0  0  0  0  0  0  0  0  0
    9.4420    0.8390   24.7010 C   0  0  0  0  0  0  0  0  0  0  0  0
   10.1240   -0.7230   23.0880 C   0  0  1  0  0  0  0  0  0  0  0  0
    9.4680   -0.8800   21.7770 N   0  0  0  0  0  0  0  0  0  0  0  0
    8.5080    0.0450   21.3490 C   0  0  0  0  0  0  0  0  0  0  0  0
    8.8100    1.2330   21.1390 O   0  0  0  0  0  0  0  0  0  0  0  0
    7.2580   -0.4470   21.1660 N   0  0  0  0  0  0  0  0  0  0  0  0
    6.5850    0.0840   20.1210 C   0  0  0  0  0  0  0  0  0  0  0  0
    5.3080    0.9290   20.3420 C   0  0  0  0  0  0  0  0  0  0  0  0
    4.6360    1.4870   19.2480 C   0  0  0  0  0  0  0  0  0  0  0  0
    5.1480    1.2620   17.9700 C   0  0  0  0  0  0  0  0  0  0  0  0
    6.2690    0.5100   17.7700 N   0  0  0  0  0  0  0  0  0  0  0  0
    6.9880   -0.0810   18.8090 C   0  0  0  0  0  0  0  0  0  0  0  0
   11.4900   -1.3850   23.1510 C   0  0  0  0  0  0  0  0  0  0  0  0
   12.6510   -0.8090   22.4110 C   0  0  0  0  0  0  0  0  0  0  0  0
   13.4400   -1.8900   22.9600 N   0  0  0  0  0  0  0  0  0  0  0  0
   12.8310   -2.7990   23.7820 N   0  0  0  0  0  0  0  0  0  0  0  0
   11.5860   -2.4710   23.8970 N   0  0  0  0  0  0  0  0  0  0  0  0
  1  2  1  0
  2  3  1  0
  2  4  1  0
  4  5  1  6
  5  6  1  0
  6  7  2  0
  6  8  1  0
  8  9  1  0
  9 10  2  0
 10 11  1  0
 11 12  2  0
 12 13  1  0
  9 14  1  0
 13 14  2  0
  4 15  1  0
 15 16  2  0
 16 17  1  0
 17 18  1  0
 15 19  1  0
 18 19  2  0
M  END
