pyridine_urea_13591
     RDKit          3D

 28 30  0  0  0  0  0  0  0  0999 V2000
    7.7430    8.7510   23.8800 C   0  0  0  0  0  0  0  0  0  0  0  0
    7.7090    7.3010   23.3420 C   0  0  0  0  0  0  0  0  0  0  0  0
    7.8000    6.3050   24.5110 C   0  0  0  0  0  0  0  0  0  0  0  0
    8.2280    4.9070   24.0080 C   0  0  0  0  0  0  0  0  0  0  0  0
    9.4180    4.8810   23.1500 N   0  0  0  0  0  0  0  0  0  0  0  0
   10.6480    3.7620   23.4960 S   0  0  0  0  0  0  0  0  0  0  0  0
   11.7220    4.0550   22.5810 O   0  0  0  0  0  0  0  0  0  0  0  0
   10.7740    3.9410   24.9180 O   0  0  0  0  0  0  0  0  0  0  0  0
   10.0240    2.0640   23.1150 C   0  0  0  0  0  0  0  0  0  0  0  0
   11.0260    1.0690   23.0150 C   0  0  0  0  0  0  0  0  0  0  0  0
   12.3730    1.3250   22.8550 C   0  0  0  0  0  0  0  0  0  0  0  0
   13.3470    0.3750   22.7350 C   0  0  0  0  0  0  0  0  0  0  0  0
   13.0490   -0.9490   22.7750 C   0  0  0  0  0  0  0  0  0  0  0  0
   11.7740   -1.3500   22.9390 C   0  0  0  0  0  0  0  0  0  0  0  0
   10.6790   -0.4870   23.0720 C   0  0  0  0  0  0  0  0  0  0  0  0
    9.4260   -1.0620   23.2250 C   0  0  0  0  0  0  0  0  0  0  0  0
    8.2680   -0.5150   22.8210 N   0  0  0  0  0  0  0  0  0  0  0  0
    8.0850    0.0730   21.6110 C   0  0  0  0  0  0  0  0  0  0  0  0
    8.8780    1.1610   21.1270 O   0  0  0  0  0  0  0  0  0  0  0  0
    7.0400   -0.5280   20.9810 N   0  0  0  0  0  0  0  0  0  0  0  0
    6.3990    0.1010   19.9390 C   0  0  0  0  0  0  0  0  0  0  0  0
    5.2260    0.8170   20.1700 C   0  0  0  0  0  0  0  0  0  0  0  0
    4.5850    1.4690   19.1460 C   0  0  0  0  0  0  0  0  0  0  0  0
    5.1400    1.3860   17.9060 C   0  0  0  0  0  0  0  0  0  0  0  0
    6.2570    0.7090   17.6080 N   0  0  0  0  0  0  0  0  0  0  0  0
    6.8630    0.0780   18.6430 C   0  0  0  0  0  0  0  0  0  0  0  0
    9.9190    6.2350   22.8770 C   0  0  0  0  0  0  0  0  0  0  0  0
    8.9180    7.0730   22.4200 C   0  0  0  0  0  0  0  0  0  0  0  0
  1  2  1  0
  2  3  1  0
  3  4  1  0
  4  5  1  0
  5  6  1  0
  6  7  2  0
  6  8  2  0
  6  9  1  0
  9 10  1  0
 10 11  2  0
 11 12  1  0
 12 13  2  0
 13 14  1  0
 10 15  1  0
 14 15  2  0
 15 16  1  0
 16 17  1  0
 17 18  1  0
 18 19  2  0
 18 20  1  0
 20 21  1  0
 21 22  2  0
 22 23  1  0
 23 24  2  0
 24 25  1  0
 21 26  1  0
 25 26  2  0
  5 27  1  0
  2 28  1  0
 27 28  1  0
M  END
