pyridine_urea_12437
     RDKit          3D

 21 23  0  0  0  0  0  0  0  0999 V2000
    7.5050   -0.8760   23.4090 C   0  0  0  0  0  0  0  0  0  0  0  0
    8.8900   -0.7160   24.0280 C   0  0  0  0  0  0  0  0  0  0  0  0
    8.8700   -0.5080   25.5590 C   0  0  0  0  0  0  0  0  0  0  0  0
   10.0540   -0.3690   26.2270 C   0  0  0  0  0  0  0  0  0  0  0  0
   11.3890   -0.4230   25.4590 C   0  0  0  0  0  0  0  0  0  0  0  0
   11.4170   -0.5710   24.1730 C   0  0  0  0  0  0  0  0  0  0  0  0
   10.1710   -0.7320   23.4010 C   0  0  0  0  0  0  0  0  0  0  0  0
   10.5000   -0.9030   22.0030 C   0  0  2  0  0  0  0  0  0  0  0  0
    9.2600   -1.2490   21.3710 N   0  0  0  0  0  0  0  0  0  0  0  0
    8.4040   -0.1970   21.2920 C   0  0  0  0  0  0  0  0  0  0  0  0
    8.7790    0.9550   21.4540 O   0  0  0  0  0  0  0  0  0  0  0  0
    7.1030   -0.5890   20.9740 N   0  0  0  0  0  0  0  0  0  0  0  0
    6.4410    0.0420   19.9750 C   0  0  0  0  0  0  0  0  0  0  0  0
    5.1410    0.7860   20.2680 C   0  0  0  0  0  0  0  0  0  0  0  0
    4.4930    1.4910   19.0800 C   0  0  0  0  0  0  0  0  0  0  0  0
    5.1140    1.4090   17.8430 C   0  0  0  0  0  0  0  0  0  0  0  0
    6.2670    0.7100   17.6750 N   0  0  0  0  0  0  0  0  0  0  0  0
    6.9190    0.0450   18.6890 C   0  0  0  0  0  0  0  0  0  0  0  0
   11.6640   -1.6670   21.8450 C   0  0  0  0  0  0  0  0  0  0  0  0
   12.8210   -1.0680   22.3520 C   0  0  0  0  0  0  0  0  0  0  0  0
   12.6990   -0.5600   23.6480 C   0  0  0  0  0  0  0  0  0  0  0  0
  1  2  1  0
  2  3  2  0
  3  4  1  0
  4  5  2  0
  5  6  1  0
  2  7  1  0
  6  7  2  0
  7  8  1  0
  8  9  1  6
  9 10  1  0
 10 11  2  0
 10 12  1  0
 12 13  1  0
 13 14  2  0
 14 15  1  0
 15 16  2  0
 16 17  1  0
 13 18  1  0
 17 18  2  0
  8 19  1  0
 19 20  1  0
  6 21  1  0
 20 21  1  0
M  END
