pyridine_urea_1247
     RDKit          3D

 21 23  0  0  0  0  0  0  0  0999 V2000
    8.5430    1.2210   20.8540 O   0  0  0  0  0  0  0  0  0  0  0  0
    8.1190    0.1130   21.2060 C   0  0  0  0  0  0  0  0  0  0  0  0
    8.7530   -0.5720   22.1330 N   0  0  0  0  0  0  0  0  0  0  0  0
    9.0820    0.3000   23.1870 C   0  0  0  0  0  0  0  0  0  0  0  0
   10.3870    1.0430   22.9210 C   0  0  0  0  0  0  0  0  0  0  0  0
   11.7970    1.3010   22.8380 C   0  0  0  0  0  0  0  0  0  0  0  0
   12.8410    0.4490   23.1630 C   0  0  0  0  0  0  0  0  0  0  0  0
   12.5400   -0.7870   23.6140 C   0  0  0  0  0  0  0  0  0  0  0  0
   13.4290   -1.7150   23.9980 C   0  0  0  0  0  0  0  0  0  0  0  0
   13.0620   -2.9420   24.4490 C   0  0  0  0  0  0  0  0  0  0  0  0
   11.7410   -3.2450   24.5030 C   0  0  0  0  0  0  0  0  0  0  0  0
   10.8200   -2.3180   24.1210 C   0  0  0  0  0  0  0  0  0  0  0  0
   11.2640   -1.0910   23.6870 C   0  0  0  0  0  0  0  0  0  0  0  0
   10.3600   -0.2230   23.3610 N   0  0  0  0  0  0  0  0  0  0  0  0
    7.0000   -0.5140   20.7770 N   0  0  0  0  0  0  0  0  0  0  0  0
    6.3390    0.1220   19.8400 C   0  0  0  0  0  0  0  0  0  0  0  0
    5.1270    0.7250   20.1380 C   0  0  0  0  0  0  0  0  0  0  0  0
    4.4890    1.4290   19.0710 C   0  0  0  0  0  0  0  0  0  0  0  0
    5.1130    1.4550   17.8510 C   0  0  0  0  0  0  0  0  0  0  0  0
    6.3130    0.8350   17.5800 N   0  0  0  0  0  0  0  0  0  0  0  0
    6.8700    0.1940   18.5950 C   0  0  0  0  0  0  0  0  0  0  0  0
  1  2  2  0
  2  3  1  0
  3  4  1  0
  4  5  1  0
  5  6  2  0
  6  7  1  0
  7  8  2  0
  8  9  1  0
  9 10  2  0
 10 11  1  0
 11 12  2  0
  8 13  1  0
 12 13  1  0
  5 14  1  0
 13 14  2  0
  2 15  1  0
 15 16  1  0
 16 17  2  0
 17 18  1  0
 18 19  2  0
 19 20  1  0
 16 21  1  0
 20 21  2  0
M  END
