pyridine_urea_7193
     RDKit          3D

 19 21  0  0  0  0  0  0  0  0999 V2000
    9.0470    1.0850   21.2990 O   0  0  0  0  0  0  0  0  0  0  0  0
    8.5390   -0.0110   21.5810 C   0  0  0  0  0  0  0  0  0  0  0  0
    7.4000   -0.5370   20.9850 N   0  0  0  0  0  0  0  0  0  0  0  0
    6.5760    0.1130   20.0510 C   0  0  0  0  0  0  0  0  0  0  0  0
    5.4230    0.8400   20.3460 C   0  0  0  0  0  0  0  0  0  0  0  0
    4.7070    1.4490   19.3120 C   0  0  0  0  0  0  0  0  0  0  0  0
    5.1710    1.3100   18.0220 C   0  0  0  0  0  0  0  0  0  0  0  0
    6.2710    0.6110   17.7100 N   0  0  0  0  0  0  0  0  0  0  0  0
    6.9380    0.0340   18.7230 C   0  0  0  0  0  0  0  0  0  0  0  0
    9.0150   -0.9080   22.5450 N   0  0  0  0  0  0  0  0  0  0  0  0
   10.3250   -1.0440   23.0810 C   0  0  0  0  0  0  0  0  0  0  0  0
   10.3070   -1.9210   24.1650 C   0  0  0  0  0  0  0  0  0  0  0  0
   10.1860   -3.1770   23.9320 C   0  0  0  0  0  0  0  0  0  0  0  0
   11.5670   -2.9110   24.2150 C   0  0  0  0  0  0  0  0  0  0  0  0
   11.3710   -1.3900   22.2010 C   0  0  0  0  0  0  0  0  0  0  0  0
   12.7070   -0.7810   22.5710 C   0  0  0  0  0  0  0  0  0  0  0  0
   12.6900    0.5580   22.9550 C   0  0  0  0  0  0  0  0  0  0  0  0
   11.8620    0.7380   24.0270 C   0  0  0  0  0  0  0  0  0  0  0  0
   10.5880    0.3420   23.7120 C   0  0  0  0  0  0  0  0  0  0  0  0
  1  2  2  0
  2  3  1  0
  3  4  1  0
  4  5  2  0
  5  6  1  0
  6  7  2  0
  7  8  1  0
  4  9  1  0
  8  9  2  0
  2 10  1  0
 11 10  1  0
 11 12  1  0
 12 13  1  0
 12 14  1  0
 13 14  1  0
 11 15  1  0
 15 16  1  0
 16 17  1  0
 17 18  1  0
 11 19  1  0
 18 19  1  0
M  END
