pyridine_urea_1492
     RDKit          3D

 19 21  0  0  0  0  0  0  0  0999 V2000
    6.1220   -4.2780   22.1030 C   0  0  0  0  0  0  0  0  0  0  0  0
    7.4370   -3.6440   22.6270 C   0  0  0  0  0  0  0  0  0  0  0  0
    8.1650   -4.4000   23.6000 N   0  0  0  0  0  0  0  0  0  0  0  0
    9.2270   -3.5410   23.8030 O   0  0  0  0  0  0  0  0  0  0  0  0
    9.0520   -2.4150   22.9960 C   0  0  0  0  0  0  0  0  0  0  0  0
    9.8710   -1.2950   22.8760 C   0  0  0  0  0  0  0  0  0  0  0  0
    9.0790   -0.1880   22.8410 N   0  0  0  0  0  0  0  0  0  0  0  0
    8.5470    0.4330   21.6790 C   0  0  0  0  0  0  0  0  0  0  0  0
    8.9900    1.4760   21.1870 O   0  0  0  0  0  0  0  0  0  0  0  0
    7.4700   -0.2830   21.1870 N   0  0  0  0  0  0  0  0  0  0  0  0
    6.7380    0.1900   20.0340 C   0  0  0  0  0  0  0  0  0  0  0  0
    5.6130    0.9560   20.3410 C   0  0  0  0  0  0  0  0  0  0  0  0
    4.8060    1.5080   19.3280 C   0  0  0  0  0  0  0  0  0  0  0  0
    5.1110    1.3090   17.9930 C   0  0  0  0  0  0  0  0  0  0  0  0
    6.2600    0.5110   17.7160 N   0  0  0  0  0  0  0  0  0  0  0  0
    7.0380   -0.0270   18.7200 C   0  0  0  0  0  0  0  0  0  0  0  0
   11.1340   -1.3050   22.4550 C   0  0  0  0  0  0  0  0  0  0  0  0
   11.2610   -1.3230   23.8400 C   0  0  0  0  0  0  0  0  0  0  0  0
    7.8820   -2.4510   22.2200 N   0  0  0  0  0  0  0  0  0  0  0  0
  1  2  1  0
  2  3  2  0
  3  4  1  0
  4  5  1  0
  5  6  1  0
  6  7  1  0
  7  8  1  0
  8  9  2  0
  8 10  1  0
 10 11  1  0
 11 12  2  0
 12 13  1  0
 13 14  2  0
 14 15  1  0
 11 16  1  0
 15 16  2  0
  6 17  1  0
  6 18  1  0
 17 18  1  0
  2 19  1  0
  5 19  2  0
M  END
