pyridine_urea_5585
     RDKit          3D

 17 18  0  0  0  0  0  0  0  0999 V2000
    8.9220    1.2340   21.1860 O   0  0  0  0  0  0  0  0  0  0  0  0
    8.4810    0.1160   21.4960 C   0  0  0  0  0  0  0  0  0  0  0  0
    9.1280   -0.7050   22.3780 N   0  0  0  0  0  0  0  0  0  0  0  0
   10.4690   -0.3260   22.7620 C   0  0  0  0  0  0  0  0  0  0  0  0
   11.5820   -1.3020   22.2530 C   0  0  0  0  0  0  0  0  0  0  0  0
   11.4570   -2.5480   22.8060 C   0  0  0  0  0  0  0  0  0  0  0  0
   11.5680   -2.6120   24.3270 C   0  0  0  0  0  0  0  0  0  0  0  0
   13.1410   -1.9180   24.8520 S   0  0  0  0  0  0  0  0  0  0  0  0
   12.8740   -0.4710   23.7940 C   0  0  0  0  0  0  0  0  0  0  0  0
   12.9130   -0.8880   22.3580 C   0  0  0  0  0  0  0  0  0  0  0  0
    7.3220   -0.4540   21.0420 N   0  0  0  0  0  0  0  0  0  0  0  0
    6.5770    0.1250   20.0470 C   0  0  0  0  0  0  0  0  0  0  0  0
    5.3070    0.8780   20.4200 C   0  0  0  0  0  0  0  0  0  0  0  0
    4.5510    1.5150   19.2840 C   0  0  0  0  0  0  0  0  0  0  0  0
    5.1530    1.3200   17.9210 C   0  0  0  0  0  0  0  0  0  0  0  0
    6.2690    0.6330   17.6660 N   0  0  0  0  0  0  0  0  0  0  0  0
    6.9320    0.0670   18.7070 C   0  0  0  0  0  0  0  0  0  0  0  0
  1  2  2  0
  2  3  1  0
  3  4  1  0
  4  5  1  0
  5  6  1  0
  6  7  1  0
  7  8  1  0
  8  9  1  0
  5 10  1  0
  9 10  1  0
  2 11  1  0
 11 12  1  0
 12 13  2  0
 13 14  1  0
 14 15  2  0
 15 16  1  0
 12 17  1  0
 16 17  2  0
M  END
