pyridine_urea_9120
     RDKit          3D

 19 20  0  0  0  0  0  0  0  0999 V2000
   10.1620   -3.3130   23.9210 C   0  0  0  0  0  0  0  0  0  0  0  0
   11.0930   -2.1400   23.7680 C   0  0  0  0  0  0  0  0  0  0  0  0
   10.3760   -1.0940   23.2130 N   0  0  0  0  0  0  0  0  0  0  0  0
   11.2200   -0.0980   23.0910 C   0  0  0  0  0  0  0  0  0  0  0  0
   10.6690    1.0040   22.5720 C   0  0  0  0  0  0  0  0  0  0  0  0
    9.3980    1.2750   23.0560 C   0  0  0  0  0  0  0  0  0  0  0  0
    8.5120    0.2290   22.8960 N   0  0  0  0  0  0  0  0  0  0  0  0
    8.2710   -0.4160   21.6800 C   0  0  0  0  0  0  0  0  0  0  0  0
    9.3110   -0.8850   20.9940 O   0  0  0  0  0  0  0  0  0  0  0  0
    6.9910   -0.5140   21.2860 N   0  0  0  0  0  0  0  0  0  0  0  0
    6.4350    0.0680   20.1840 C   0  0  0  0  0  0  0  0  0  0  0  0
    5.2800    0.8210   20.3820 C   0  0  0  0  0  0  0  0  0  0  0  0
    4.7020    1.4290   19.2870 C   0  0  0  0  0  0  0  0  0  0  0  0
    5.2350    1.3110   18.0080 C   0  0  0  0  0  0  0  0  0  0  0  0
    6.3390    0.6020   17.7280 N   0  0  0  0  0  0  0  0  0  0  0  0
    6.9140   -0.0180   18.8850 C   0  0  0  0  0  0  0  0  0  0  0  0
   12.9100   -0.2810   23.5940 S   0  0  0  0  0  0  0  0  0  0  0  0
   12.4490   -1.9280   24.0640 C   0  0  0  0  0  0  0  0  0  0  0  0
   13.4020   -2.7390   24.6180 C   0  0  0  0  0  0  0  0  0  0  0  0
  1  2  1  0
  2  3  1  0
  3  4  2  0
  4  5  1  0
  5  6  1  0
  6  7  1  0
  7  8  1  0
  8  9  2  0
  8 10  1  0
 10 11  1  0
 11 12  2  0
 12 13  1  0
 13 14  2  0
 14 15  1  0
 11 16  1  0
 15 16  2  0
  4 17  1  0
  2 18  2  0
 17 18  1  0
 18 19  1  0
M  END
