pyridine_urea_9093
     RDKit          3D

 19 20  0  0  0  0  0  0  0  0999 V2000
    6.6720   -5.8300   22.6690 C   0  0  0  0  0  0  0  0  0  0  0  0
    6.7250   -5.1220   24.0560 C   0  0  0  0  0  0  0  0  0  0  0  0
    7.9790   -5.5960   24.7960 C   0  0  0  0  0  0  0  0  0  0  0  0
    6.9270   -3.6950   23.9520 N   0  0  0  0  0  0  0  0  0  0  0  0
    6.1680   -2.5700   24.1110 C   0  0  0  0  0  0  0  0  0  0  0  0
    6.9670   -1.5170   23.8790 C   0  0  0  0  0  0  0  0  0  0  0  0
    8.2390   -1.9420   23.5680 C   0  0  0  0  0  0  0  0  0  0  0  0
    9.3420   -1.1640   23.2670 C   0  0  0  0  0  0  0  0  0  0  0  0
    9.3570   -0.6790   22.0050 N   0  0  0  0  0  0  0  0  0  0  0  0
    8.4500    0.1230   21.3710 C   0  0  0  0  0  0  0  0  0  0  0  0
    8.7850    1.2870   21.0960 O   0  0  0  0  0  0  0  0  0  0  0  0
    7.2550   -0.4440   21.0950 N   0  0  0  0  0  0  0  0  0  0  0  0
    6.5550    0.1290   20.0890 C   0  0  0  0  0  0  0  0  0  0  0  0
    5.4010    0.8620   20.4230 C   0  0  0  0  0  0  0  0  0  0  0  0
    4.6880    1.4650   19.3840 C   0  0  0  0  0  0  0  0  0  0  0  0
    5.1870    1.2980   18.0020 C   0  0  0  0  0  0  0  0  0  0  0  0
    6.2750    0.5950   17.6970 N   0  0  0  0  0  0  0  0  0  0  0  0
    6.9280    0.0300   18.7460 C   0  0  0  0  0  0  0  0  0  0  0  0
    8.2190   -3.3490   23.6110 N   0  0  0  0  0  0  0  0  0  0  0  0
  1  2  1  0
  2  3  1  0
  2  4  1  0
  4  5  1  0
  5  6  2  0
  6  7  1  0
  7  8  1  0
  8  9  1  0
  9 10  1  0
 10 11  2  0
 10 12  1  0
 12 13  1  0
 13 14  2  0
 14 15  1  0
 15 16  2  0
 16 17  1  0
 13 18  1  0
 17 18  2  0
  4 19  1  0
  7 19  2  0
M  END
