pyridine_urea_7217
     RDKit          3D

 19 21  0  0  0  0  0  0  0  0999 V2000
    8.9870    1.3410   21.1850 O   0  0  0  0  0  0  0  0  0  0  0  0
    8.4000    0.3520   21.6370 C   0  0  0  0  0  0  0  0  0  0  0  0
    7.3570   -0.3160   21.0170 N   0  0  0  0  0  0  0  0  0  0  0  0
    6.5380    0.2570   20.0420 C   0  0  0  0  0  0  0  0  0  0  0  0
    5.3710    0.9710   20.2890 C   0  0  0  0  0  0  0  0  0  0  0  0
    4.6560    1.5120   19.2200 C   0  0  0  0  0  0  0  0  0  0  0  0
    5.1460    1.3110   17.9500 C   0  0  0  0  0  0  0  0  0  0  0  0
    6.2580    0.6180   17.6820 N   0  0  0  0  0  0  0  0  0  0  0  0
    6.9210    0.1110   18.7280 C   0  0  0  0  0  0  0  0  0  0  0  0
    8.7010   -0.2410   22.8500 N   0  0  0  0  0  0  0  0  0  0  0  0
    9.3580   -1.4570   23.0060 C   0  0  0  0  0  0  0  0  0  0  0  0
    8.5470   -2.6160   23.0420 C   0  0  0  0  0  0  0  0  0  0  0  0
    7.1990   -2.2630   23.2610 C   0  0  0  0  0  0  0  0  0  0  0  0
    6.5030   -3.2710   23.9330 C   0  0  0  0  0  0  0  0  0  0  0  0
    6.9900   -3.5220   25.2140 C   0  0  0  0  0  0  0  0  0  0  0  0
    8.4640   -3.3990   25.2360 C   0  0  0  0  0  0  0  0  0  0  0  0
    8.9670   -3.5980   23.9500 C   0  0  0  0  0  0  0  0  0  0  0  0
   10.7820   -1.8370   22.6900 C   0  0  0  0  0  0  0  0  0  0  0  0
   10.1970   -1.5560   21.6940 C   0  0  0  0  0  0  0  0  0  0  0  0
  1  2  2  0
  2  3  1  0
  3  4  1  0
  4  5  2  0
  5  6  1  0
  6  7  2  0
  7  8  1  0
  4  9  1  0
  8  9  2  0
  2 10  1  0
 11 10  1  0
 11 12  1  0
 12 13  1  0
 13 14  1  0
 14 15  1  0
 15 16  1  0
 12 17  1  0
 16 17  1  0
 11 18  1  0
 11 19  1  0
 18 19  1  0
M  END
