pyridine_urea_15143
     RDKit          3D

 18 19  0  0  0  0  0  0  0  0999 V2000
    9.0540    0.6650   21.4160 O   0  0  0  0  0  0  0  0  0  0  0  0
    8.3240   -0.2690   21.7310 C   0  0  0  0  0  0  0  0  0  0  0  0
    8.5890   -1.1010   22.8020 N   0  0  0  0  0  0  0  0  0  0  0  0
    8.5410   -2.5390   22.6040 C   0  0  0  0  0  0  0  0  0  0  0  0
    7.2350   -3.2270   23.0310 C   0  0  0  0  0  0  0  0  0  0  0  0
    6.1270   -3.2700   21.9720 C   0  0  0  0  0  0  0  0  0  0  0  0
    4.8430   -3.9030   22.2180 N   0  0  0  0  0  0  0  0  0  0  0  0
    4.6070   -4.4780   23.4430 C   0  0  0  0  0  0  0  0  0  0  0  0
    3.0840   -5.1850   23.6290 Cl  0  0  0  0  0  0  0  0  0  0  0  0
    5.6980   -4.4370   24.5100 C   0  0  0  0  0  0  0  0  0  0  0  0
    6.9290   -3.8280   24.2570 N   0  0  0  0  0  0  0  0  0  0  0  0
    7.1570   -0.6480   21.1200 N   0  0  0  0  0  0  0  0  0  0  0  0
    6.5120    0.0050   20.0570 C   0  0  0  0  0  0  0  0  0  0  0  0
    5.3630    0.7500   20.2790 C   0  0  0  0  0  0  0  0  0  0  0  0
    4.6800    1.4240   19.2750 C   0  0  0  0  0  0  0  0  0  0  0  0
    5.1870    1.3420   17.9910 C   0  0  0  0  0  0  0  0  0  0  0  0
    6.3030    0.6250   17.7250 N   0  0  0  0  0  0  0  0  0  0  0  0
    6.9220   -0.0160   18.7480 C   0  0  0  0  0  0  0  0  0  0  0  0
  1  2  2  0
  2  3  1  0
  3  4  1  0
  4  5  1  0
  5  6  2  0
  6  7  1  0
  7  8  2  0
  8  9  1  0
  8 10  1  0
  5 11  1  0
 10 11  2  0
  2 12  1  0
 12 13  1  0
 13 14  2  0
 14 15  1  0
 15 16  2  0
 16 17  1  0
 13 18  1  0
 17 18  2  0
M  END
