pyridine_urea_1638
     RDKit          3D

 18 19  0  0  0  0  0  0  0  0999 V2000
   13.2390    0.2310   22.5830 C   0  0  0  0  0  0  0  0  0  0  0  0
   12.3330   -0.5010   23.2230 N   0  0  0  0  0  0  0  0  0  0  0  0
   11.2730   -1.0880   22.5640 C   0  0  0  0  0  0  0  0  0  0  0  0
   10.2620   -0.1880   22.6790 C   0  0  1  0  0  0  0  0  0  0  0  0
    9.0070   -0.6180   22.3930 N   0  0  0  0  0  0  0  0  0  0  0  0
    8.3020    0.1150   21.4410 C   0  0  0  0  0  0  0  0  0  0  0  0
    8.7040    1.2340   21.0920 O   0  0  0  0  0  0  0  0  0  0  0  0
    7.1790   -0.5190   20.9820 N   0  0  0  0  0  0  0  0  0  0  0  0
    6.3850    0.1160   20.0320 C   0  0  0  0  0  0  0  0  0  0  0  0
    5.1700    0.7570   20.3010 C   0  0  0  0  0  0  0  0  0  0  0  0
    4.4950    1.3750   19.2570 C   0  0  0  0  0  0  0  0  0  0  0  0
    5.1540    1.3010   17.8830 C   0  0  0  0  0  0  0  0  0  0  0  0
    6.3190    0.6630   17.6760 N   0  0  0  0  0  0  0  0  0  0  0  0
    6.8780    0.1030   18.7390 C   0  0  0  0  0  0  0  0  0  0  0  0
   10.2840    0.4130   23.9500 C   0  0  0  0  0  0  0  0  0  0  0  0
    9.7430   -0.3670   24.9730 C   0  0  0  0  0  0  0  0  0  0  0  0
   10.0470    1.8830   23.9160 C   0  0  0  0  0  0  0  0  0  0  0  0
   11.8090    0.3420   24.1880 C   0  0  0  0  0  0  0  0  0  0  0  0
  1  2  1  0
  2  3  1  0
  3  4  1  0
  4  5  1  1
  5  6  1  0
  6  7  2  0
  6  8  1  0
  8  9  1  0
  9 10  2  0
 10 11  1  0
 11 12  2  0
 12 13  1  0
  9 14  1  0
 13 14  2  0
  4 15  1  0
 15 16  1  0
 15 17  1  0
  2 18  1  0
 15 18  1  0
M  END
