pyridine_urea_8080
     RDKit          3D

 24 26  0  0  0  0  0  0  0  0999 V2000
    8.7180    1.2800   21.1060 O   0  0  0  0  0  0  0  0  0  0  0  0
    8.5040    0.0770   21.2900 C   0  0  0  0  0  0  0  0  0  0  0  0
    7.2500   -0.4750   21.1330 N   0  0  0  0  0  0  0  0  0  0  0  0
    6.4970    0.1350   20.0700 C   0  0  0  0  0  0  0  0  0  0  0  0
    5.1780    0.9000   20.3860 C   0  0  0  0  0  0  0  0  0  0  0  0
    4.5170    1.4840   19.3160 C   0  0  0  0  0  0  0  0  0  0  0  0
    5.1590    1.3110   17.9320 C   0  0  0  0  0  0  0  0  0  0  0  0
    6.2980    0.6280   17.7150 N   0  0  0  0  0  0  0  0  0  0  0  0
    6.9290    0.0650   18.7620 C   0  0  0  0  0  0  0  0  0  0  0  0
    9.4240   -0.8880   21.5950 N   0  0  0  0  0  0  0  0  0  0  0  0
   10.4970   -0.6770   22.5740 C   0  0  0  0  0  0  0  0  0  0  0  0
   10.7910    0.8220   22.7830 C   0  0  0  0  0  0  0  0  0  0  0  0
    9.5060    1.5870   23.0610 C   0  0  0  0  0  0  0  0  0  0  0  0
    9.6490    3.1000   23.2790 C   0  0  0  0  0  0  0  0  0  0  0  0
   11.0500    3.7240   23.2060 C   0  0  0  0  0  0  0  0  0  0  0  0
   11.3240    5.5810   23.4590 Br  0  0  0  0  0  0  0  0  0  0  0  0
   12.2200    2.7850   22.9220 C   0  0  0  0  0  0  0  0  0  0  0  0
   12.0590    1.4190   22.7310 C   0  0  0  0  0  0  0  0  0  0  0  0
   10.2090   -1.3080   23.7600 C   0  0  0  0  0  0  0  0  0  0  0  0
   11.3920   -1.1950   24.4450 C   0  0  0  0  0  0  0  0  0  0  0  0
   12.3210   -2.1580   24.2420 C   0  0  0  0  0  0  0  0  0  0  0  0
   13.3060   -1.5580   23.4800 C   0  0  0  0  0  0  0  0  0  0  0  0
   12.8790   -1.1000   22.2600 C   0  0  0  0  0  0  0  0  0  0  0  0
   11.5900   -1.5210   21.9700 C   0  0  0  0  0  0  0  0  0  0  0  0
  1  2  2  0
  2  3  1  0
  3  4  1  0
  4  5  2  0
  5  6  1  0
  6  7  2  0
  7  8  1  0
  4  9  1  0
  8  9  2  0
  2 10  1  0
 11 10  1  0
 11 12  1  0
 12 13  2  0
 13 14  1  0
 14 15  2  0
 15 16  1  0
 15 17  1  0
 12 18  1  0
 17 18  2  0
 11 19  1  0
 19 20  1  0
 20 21  1  0
 21 22  1  0
 22 23  1  0
 11 24  1  0
 23 24  1  0
M  END
