pyridine_urea_3002
     RDKit          3D

 21 22  0  0  0  0  0  0  0  0999 V2000
   13.0770   -2.0080   21.4540 C   0  0  0  0  0  0  0  0  0  0  0  0
   13.7750   -0.8090   21.7590 O   0  0  0  0  0  0  0  0  0  0  0  0
   13.5630   -0.3110   23.0860 C   0  0  0  0  0  0  0  0  0  0  0  0
   12.1330   -0.2100   23.0970 C   0  0  0  0  0  0  0  0  0  0  0  0
   11.5170    0.9840   22.9340 C   0  0  0  0  0  0  0  0  0  0  0  0
   10.0370    0.9630   22.9070 C   0  0  0  0  0  0  0  0  0  0  0  0
    9.4180   -0.2590   23.0440 C   0  0  0  0  0  0  0  0  0  0  0  0
    7.9960   -0.2380   22.9640 N   0  0  0  0  0  0  0  0  0  0  0  0
    7.8290    0.1430   21.5810 C   0  0  0  0  0  0  0  0  0  0  0  0
    8.5120    1.2280   21.0290 O   0  0  0  0  0  0  0  0  0  0  0  0
    6.9210   -0.7440   20.9590 N   0  0  0  0  0  0  0  0  0  0  0  0
    6.3330   -0.0420   19.9550 C   0  0  0  0  0  0  0  0  0  0  0  0
    5.0420    0.6930   20.2500 C   0  0  0  0  0  0  0  0  0  0  0  0
    4.4480    1.4660   19.1060 C   0  0  0  0  0  0  0  0  0  0  0  0
    5.1850    1.4370   17.7930 C   0  0  0  0  0  0  0  0  0  0  0  0
    6.3310    0.7420   17.6380 N   0  0  0  0  0  0  0  0  0  0  0  0
    6.8560    0.0460   18.6790 C   0  0  0  0  0  0  0  0  0  0  0  0
   10.1290   -1.4280   23.2280 C   0  0  0  0  0  0  0  0  0  0  0  0
   11.4870   -1.4010   23.2630 C   0  0  0  0  0  0  0  0  0  0  0  0
   12.1830   -2.5840   23.4620 C   0  0  0  0  0  0  0  0  0  0  0  0
   12.8640   -2.8340   24.6030 N   0  0  0  0  0  0  0  0  0  0  0  0
  1  2  1  0
  2  3  1  0
  3  4  1  0
  4  5  2  0
  5  6  1  0
  6  7  2  0
  7  8  1  0
  8  9  1  0
  9 10  2  0
  9 11  1  0
 11 12  1  0
 12 13  2  0
 13 14  1  0
 14 15  2  0
 15 16  1  0
 12 17  1  0
 16 17  2  0
  7 18  1  0
  4 19  1  0
 18 19  2  0
 19 20  1  0
 20 21  3  0
M  END
