pyridine_urea_4303
     RDKit          3D

 24 26  0  0  0  0  0  0  0  0999 V2000
   12.2000    7.4960   24.7190 C   0  0  0  0  0  0  0  0  0  0  0  0
   11.8660    7.1220   23.3880 O   0  0  0  0  0  0  0  0  0  0  0  0
   11.9280    5.7150   23.2410 C   0  0  0  0  0  0  0  0  0  0  0  0
   13.2390    5.1060   22.8440 C   0  0  0  0  0  0  0  0  0  0  0  0
   13.2860    3.6280   22.7100 C   0  0  0  0  0  0  0  0  0  0  0  0
   12.0390    2.7910   22.9700 C   0  0  0  0  0  0  0  0  0  0  0  0
   12.0330    1.2630   22.8590 C   0  0  0  0  0  0  0  0  0  0  0  0
   13.2640    0.4120   22.8400 C   0  0  0  0  0  0  0  0  0  0  0  0
   12.8280   -1.2070   22.7020 S   0  0  0  0  0  0  0  0  0  0  0  0
   11.1520   -0.7250   22.6710 C   0  0  0  0  0  0  0  0  0  0  0  0
   10.1360   -1.6670   22.5450 C   0  0  0  0  0  0  0  0  0  0  0  0
    8.8540   -0.9830   22.5970 N   0  0  0  0  0  0  0  0  0  0  0  0
    8.4380   -0.1280   21.5800 C   0  0  0  0  0  0  0  0  0  0  0  0
    9.0850    1.0440   21.2420 O   0  0  0  0  0  0  0  0  0  0  0  0
    7.2890   -0.6220   21.0030 N   0  0  0  0  0  0  0  0  0  0  0  0
    6.5010    0.0550   20.0660 C   0  0  0  0  0  0  0  0  0  0  0  0
    5.2890    0.7020   20.3240 C   0  0  0  0  0  0  0  0  0  0  0  0
    4.6140    1.3820   19.1840 C   0  0  0  0  0  0  0  0  0  0  0  0
    5.2170    1.3370   17.9350 C   0  0  0  0  0  0  0  0  0  0  0  0
    6.3790    0.7000   17.7220 N   0  0  0  0  0  0  0  0  0  0  0  0
    6.9750    0.0880   18.7660 C   0  0  0  0  0  0  0  0  0  0  0  0
   10.8640    0.5810   22.7660 N   0  0  0  0  0  0  0  0  0  0  0  0
   10.8360    3.4480   23.3330 C   0  0  0  0  0  0  0  0  0  0  0  0
   10.6700    4.8380   23.4920 C   0  0  0  0  0  0  0  0  0  0  0  0
  1  2  1  0
  2  3  1  0
  3  4  2  0
  4  5  1  0
  5  6  2  0
  6  7  1  0
  7  8  2  0
  8  9  1  0
  9 10  1  0
 10 11  1  0
 11 12  1  0
 12 13  1  0
 13 14  2  0
 13 15  1  0
 15 16  1  0
 16 17  2  0
 17 18  1  0
 18 19  2  0
 19 20  1  0
 16 21  1  0
 20 21  2  0
  7 22  1  0
 10 22  2  0
  6 23  1  0
  3 24  1  0
 23 24  2  0
M  END
