pyridine_urea_10116
     RDKit          3D

 23 25  0  0  0  0  0  0  0  0999 V2000
    8.5370    1.3870   20.9930 O   0  0  0  0  0  0  0  0  0  0  0  0
    8.1140    0.3540   21.5220 C   0  0  0  0  0  0  0  0  0  0  0  0
    7.0700   -0.3980   21.0450 N   0  0  0  0  0  0  0  0  0  0  0  0
    6.3240    0.1800   20.0330 C   0  0  0  0  0  0  0  0  0  0  0  0
    5.1210    0.8490   20.2010 C   0  0  0  0  0  0  0  0  0  0  0  0
    4.5010    1.4130   19.0910 C   0  0  0  0  0  0  0  0  0  0  0  0
    5.1180    1.2810   17.8670 C   0  0  0  0  0  0  0  0  0  0  0  0
    6.2730    0.6300   17.6800 N   0  0  0  0  0  0  0  0  0  0  0  0
    6.8410    0.0980   18.7620 C   0  0  0  0  0  0  0  0  0  0  0  0
    8.6850   -0.1410   22.6450 N   0  0  0  0  0  0  0  0  0  0  0  0
   10.0360    0.0760   22.7130 C   0  0  0  0  0  0  0  0  0  0  0  0
   10.7510   -0.9840   22.3680 C   0  0  0  0  0  0  0  0  0  0  0  0
   12.0770   -0.9330   22.3560 C   0  0  0  0  0  0  0  0  0  0  0  0
   12.5570   -2.0440   21.8740 C   0  0  0  0  0  0  0  0  0  0  0  0
   11.7520   -2.4400   20.9700 C   0  0  0  0  0  0  0  0  0  0  0  0
   11.9900   -3.5890   20.1160 C   0  0  0  0  0  0  0  0  0  0  0  0
   13.1090   -4.2590   20.2930 C   0  0  0  0  0  0  0  0  0  0  0  0
   13.8830   -3.8740   21.2630 C   0  0  0  0  0  0  0  0  0  0  0  0
   13.6170   -2.7510   22.0910 C   0  0  0  0  0  0  0  0  0  0  0  0
   12.7880    0.1780   22.7240 C   0  0  0  0  0  0  0  0  0  0  0  0
   12.0550    1.2770   23.0680 C   0  0  0  0  0  0  0  0  0  0  0  0
   10.6410    1.2630   23.0600 C   0  0  0  0  0  0  0  0  0  0  0  0
    9.9130    2.3530   23.3770 F   0  0  0  0  0  0  0  0  0  0  0  0
  1  2  2  0
  2  3  1  0
  3  4  1  0
  4  5  2  0
  5  6  1  0
  6  7  2  0
  7  8  1  0
  4  9  1  0
  8  9  2  0
  2 10  1  0
 10 11  1  0
 11 12  2  0
 12 13  1  0
 13 14  1  0
 14 15  2  0
 15 16  1  0
 16 17  2  0
 17 18  1  0
 14 19  1  0
 18 19  2  0
 13 20  2  0
 20 21  1  0
 11 22  1  0
 21 22  2  0
 22 23  1  0
M  END
