pyridine_urea_6997
     RDKit          3D

 20 22  0  0  0  0  0  0  0  0999 V2000
    8.6640    1.7740   21.0100 O   0  0  0  0  0  0  0  0  0  0  0  0
    8.1850    0.7680   21.5150 C   0  0  0  0  0  0  0  0  0  0  0  0
    8.6300    0.2350   22.6420 N   0  0  0  0  0  0  0  0  0  0  0  0
    9.3670   -0.8730   22.4930 C   0  0  0  0  0  0  0  0  0  0  0  0
   10.5360   -0.9950   23.0670 C   0  0  0  0  0  0  0  0  0  0  0  0
   11.5610   -0.0150   22.9950 C   0  0  0  0  0  0  0  0  0  0  0  0
   12.7830   -0.2670   23.5840 C   0  0  0  0  0  0  0  0  0  0  0  0
   12.9200   -1.4710   24.2510 C   0  0  0  0  0  0  0  0  0  0  0  0
   13.9500   -1.9950   24.9370 N   0  0  0  0  0  0  0  0  0  0  0  0
   13.5510   -3.1530   25.3790 C   0  0  0  0  0  0  0  0  0  0  0  0
   12.2890   -3.3870   24.9890 C   0  0  0  0  0  0  0  0  0  0  0  0
   11.8230   -2.3900   24.2850 N   0  0  0  0  0  0  0  0  0  0  0  0
   10.6740   -2.1480   23.6980 C   0  0  0  0  0  0  0  0  0  0  0  0
    7.1680   -0.0080   21.0500 N   0  0  0  0  0  0  0  0  0  0  0  0
    6.4560    0.4690   19.9740 C   0  0  0  0  0  0  0  0  0  0  0  0
    5.3140    1.2230   20.1750 C   0  0  0  0  0  0  0  0  0  0  0  0
    4.5890    1.7670   19.0020 C   0  0  0  0  0  0  0  0  0  0  0  0
    5.0910    1.5010   17.7270 C   0  0  0  0  0  0  0  0  0  0  0  0
    6.2240    0.7250   17.6070 N   0  0  0  0  0  0  0  0  0  0  0  0
    6.8910    0.2180   18.7060 C   0  0  0  0  0  0  0  0  0  0  0  0
  1  2  2  0
  2  3  1  0
  3  4  1  0
  4  5  1  0
  5  6  1  0
  6  7  2  0
  7  8  1  0
  8  9  2  0
  9 10  1  0
 10 11  2  0
  8 12  1  0
 11 12  1  0
  5 13  2  0
 12 13  1  0
  2 14  1  0
 14 15  1  0
 15 16  2  0
 16 17  1  0
 17 18  2  0
 18 19  1  0
 15 20  1  0
 19 20  2  0
M  END
