pyridine_urea_14363
     RDKit          3D

 20 21  0  0  0  0  0  0  0  0999 V2000
   11.0160   -1.5610   22.3360 C   0  0  0  0  0  0  0  0  0  0  0  0
    9.7490   -1.0430   22.9550 C   0  0  1  0  0  0  0  0  0  0  0  0
    9.6460    0.2950   23.3210 C   0  0  0  0  0  0  0  0  0  0  0  0
   10.8290    0.9320   23.1230 C   0  0  0  0  0  0  0  0  0  0  0  0
   11.2810    2.1320   23.0090 C   0  0  0  0  0  0  0  0  0  0  0  0
   12.7940    2.0040   22.8150 C   0  0  0  0  0  0  0  0  0  0  0  0
   13.7350    0.6400   22.7310 C   0  0  0  0  0  0  0  0  0  0  0  0
   12.6530   -0.4550   22.9070 C   0  0  0  0  0  0  0  0  0  0  0  0
   13.6560   -1.1350   22.7880 O   0  0  0  0  0  0  0  0  0  0  0  0
   12.1100    0.6430   22.9510 C   0  0  0  0  0  0  0  0  0  0  0  0
    8.6940   -1.2320   22.0200 N   0  0  0  0  0  0  0  0  0  0  0  0
    8.1380   -0.1990   21.3140 C   0  0  0  0  0  0  0  0  0  0  0  0
    8.7940    1.0640   21.0640 O   0  0  0  0  0  0  0  0  0  0  0  0
    6.8830   -0.5700   20.9160 N   0  0  0  0  0  0  0  0  0  0  0  0
    6.2180    0.1140   19.9590 C   0  0  0  0  0  0  0  0  0  0  0  0
    5.0280    0.7940   20.1360 C   0  0  0  0  0  0  0  0  0  0  0  0
    4.4960    1.4570   19.0480 C   0  0  0  0  0  0  0  0  0  0  0  0
    5.1650    1.4160   17.8340 C   0  0  0  0  0  0  0  0  0  0  0  0
    6.3160    0.7530   17.6510 N   0  0  0  0  0  0  0  0  0  0  0  0
    6.8080    0.1200   18.7170 C   0  0  0  0  0  0  0  0  0  0  0  0
  2  1  1  6
  2  3  1  0
  3  4  1  0
  4  5  2  0
  5  6  1  0
  6  7  2  0
  7  8  1  0
  8  9  1  0
  4 10  1  0
  8 10  2  0
  2 11  1  0
 11 12  1  0
 12 13  2  0
 12 14  1  0
 14 15  1  0
 15 16  2  0
 16 17  1  0
 17 18  2  0
 18 19  1  0
 15 20  1  0
 19 20  2  0
M  END
