pyridine_urea_3428
     RDKit          3D

 19 20  0  0  0  0  0  0  0  0999 V2000
   12.9090    5.9040   22.7780 C   0  0  0  0  0  0  0  0  0  0  0  0
   13.1170    4.4270   22.5850 C   0  0  0  0  0  0  0  0  0  0  0  0
   12.0380    3.6810   22.1330 C   0  0  0  0  0  0  0  0  0  0  0  0
   11.6090    2.4770   22.9000 N   0  0  0  0  0  0  0  0  0  0  0  0
   12.2230    1.1580   22.9540 C   0  0  0  0  0  0  0  0  0  0  0  0
   11.4070    0.0120   22.8390 C   0  0  0  0  0  0  0  0  0  0  0  0
    9.9690    0.2900   22.4470 C   0  0  0  0  0  0  0  0  0  0  0  0
    8.9980   -0.6860   22.4890 N   0  0  0  0  0  0  0  0  0  0  0  0
    8.1290   -0.7680   21.3790 C   0  0  0  0  0  0  0  0  0  0  0  0
    8.5190   -1.1960   20.3660 O   0  0  0  0  0  0  0  0  0  0  0  0
    6.8710   -0.3230   21.5210 N   0  0  0  0  0  0  0  0  0  0  0  0
    6.2900    0.2050   20.3840 C   0  0  0  0  0  0  0  0  0  0  0  0
    5.1150    0.9580   20.3920 C   0  0  0  0  0  0  0  0  0  0  0  0
    4.5990    1.4600   19.2140 C   0  0  0  0  0  0  0  0  0  0  0  0
    5.2430    1.2230   18.0130 C   0  0  0  0  0  0  0  0  0  0  0  0
    6.3750    0.5010   17.9420 N   0  0  0  0  0  0  0  0  0  0  0  0
    6.8680    0.0090   19.1160 C   0  0  0  0  0  0  0  0  0  0  0  0
    9.4360    1.4380   23.1860 C   0  0  0  0  0  0  0  0  0  0  0  0
   10.1780    2.5820   23.2450 C   0  0  0  0  0  0  0  0  0  0  0  0
  1  2  1  0
  2  3  1  0
  3  4  1  0
  4  5  1  0
  5  6  1  0
  6  7  1  0
  7  8  1  0
  8  9  1  0
  9 10  2  0
  9 11  1  0
 11 12  1  0
 12 13  2  0
 13 14  1  0
 14 15  2  0
 15 16  1  0
 12 17  1  0
 16 17  2  0
  7 18  1  0
  4 19  1  0
 18 19  1  0
M  END
