pyridine_urea_8948
     RDKit          3D

 20 22  0  0  0  0  0  0  0  0999 V2000
    8.2680    1.9860   21.1010 O   0  0  0  0  0  0  0  0  0  0  0  0
    8.3400    0.8510   21.5280 C   0  0  0  0  0  0  0  0  0  0  0  0
    7.3430   -0.0650   21.2990 N   0  0  0  0  0  0  0  0  0  0  0  0
    6.6630    0.2580   20.0790 C   0  0  0  0  0  0  0  0  0  0  0  0
    5.4320    1.1520   20.2760 C   0  0  0  0  0  0  0  0  0  0  0  0
    4.6940    1.5760   19.1850 C   0  0  0  0  0  0  0  0  0  0  0  0
    5.1180    1.1600   17.9320 C   0  0  0  0  0  0  0  0  0  0  0  0
    6.2130    0.3510   17.7930 N   0  0  0  0  0  0  0  0  0  0  0  0
    7.0060   -0.1220   18.8380 C   0  0  0  0  0  0  0  0  0  0  0  0
    9.4140    0.3770   22.1720 N   0  0  0  0  0  0  0  0  0  0  0  0
   10.5950   -0.0740   22.5520 C   0  0  2  0  0  0  0  0  0  0  0  0
   10.7120   -1.3500   22.1280 C   0  0  0  0  0  0  0  0  0  0  0  0
   11.9780   -1.7340   22.0580 C   0  0  0  0  0  0  0  0  0  0  0  0
   12.4450   -1.7280   23.2760 C   0  0  0  0  0  0  0  0  0  0  0  0
   13.2090   -2.7790   23.5490 C   0  0  0  0  0  0  0  0  0  0  0  0
   13.7290   -2.8510   24.8670 C   0  0  0  0  0  0  0  0  0  0  0  0
   13.5540   -1.9540   25.7670 C   0  0  0  0  0  0  0  0  0  0  0  0
   12.7460   -0.8560   25.4500 C   0  0  0  0  0  0  0  0  0  0  0  0
   12.1930   -0.7800   24.2470 C   0  0  0  0  0  0  0  0  0  0  0  0
   11.2400    0.3090   23.8500 C   0  0  0  0  0  0  0  0  0  0  0  0
  1  2  2  0
  2  3  1  0
  3  4  1  0
  4  5  2  0
  5  6  1  0
  6  7  2  0
  7  8  1  0
  4  9  1  0
  8  9  2  0
  2 10  1  0
 11 10  1  1
 11 12  1  0
 12 13  1  0
 13 14  1  0
 14 15  2  0
 15 16  1  0
 16 17  2  0
 17 18  1  0
 14 19  1  0
 18 19  2  0
 11 20  1  0
 19 20  1  0
M  END
