pyridine_urea_9688
     RDKit          3D

 20 22  0  0  0  0  0  0  0  0999 V2000
    8.7890    0.7120   21.2860 O   0  0  0  0  0  0  0  0  0  0  0  0
    8.3250   -0.3940   21.5420 C   0  0  0  0  0  0  0  0  0  0  0  0
    8.9290   -1.2890   22.4170 N   0  0  0  0  0  0  0  0  0  0  0  0
    9.8720   -2.3020   21.9650 C   0  0  0  0  0  0  0  0  0  0  0  0
   11.3570   -1.9340   21.9720 C   0  0  0  0  0  0  0  0  0  0  0  0
   11.4730   -0.8290   22.9290 C   0  0  0  0  0  0  0  0  0  0  0  0
   11.0170   -1.4710   24.2090 C   0  0  0  0  0  0  0  0  0  0  0  0
   11.1820   -0.4070   25.2250 C   0  0  0  0  0  0  0  0  0  0  0  0
   10.8800    0.8390   24.3790 C   0  0  0  0  0  0  0  0  0  0  0  0
   12.0590    1.0980   23.6230 C   0  0  0  0  0  0  0  0  0  0  0  0
   12.5920   -0.0780   23.1240 C   0  0  0  0  0  0  0  0  0  0  0  0
    9.6920    0.6990   23.4490 C   0  0  0  0  0  0  0  0  0  0  0  0
   10.6130    0.3340   22.4880 C   0  0  0  0  0  0  0  0  0  0  0  0
    7.1500   -0.8680   21.0220 N   0  0  0  0  0  0  0  0  0  0  0  0
    6.4420   -0.1200   20.0070 C   0  0  0  0  0  0  0  0  0  0  0  0
    5.1710    0.5960   20.3350 C   0  0  0  0  0  0  0  0  0  0  0  0
    4.5780    1.3000   19.2960 C   0  0  0  0  0  0  0  0  0  0  0  0
    5.1810    1.3320   17.9480 C   0  0  0  0  0  0  0  0  0  0  0  0
    6.3170    0.6800   17.6720 N   0  0  0  0  0  0  0  0  0  0  0  0
    6.8830   -0.0060   18.6990 C   0  0  0  0  0  0  0  0  0  0  0  0
  1  2  2  0
  2  3  1  0
  3  4  1  0
  4  5  1  0
  6  5  1  0
  6  7  1  0
  7  8  1  0
  8  9  1  0
  9 10  1  0
  6 11  1  0
 10 11  1  0
  9 12  1  0
  6 13  1  0
 12 13  1  0
  2 14  1  0
 14 15  1  0
 15 16  2  0
 16 17  1  0
 17 18  2  0
 18 19  1  0
 15 20  1  0
 19 20  2  0
M  END
