pyridine_urea_9113
     RDKit          3D

 19 20  0  0  0  0  0  0  0  0999 V2000
   12.5340    3.9990   22.3580 C   0  0  0  0  0  0  0  0  0  0  0  0
   12.1760    2.5280   22.7090 C   0  0  0  0  0  0  0  0  0  0  0  0
   13.2750    1.5760   22.9280 N   0  0  0  0  0  0  0  0  0  0  0  0
   12.5940    0.4620   23.1940 N   0  0  0  0  0  0  0  0  0  0  0  0
   11.2050    0.7900   23.1230 C   0  0  0  0  0  0  0  0  0  0  0  0
   10.3200   -0.2350   23.3780 C   0  0  0  0  0  0  0  0  0  0  0  0
   10.3790   -1.2670   22.4670 C   0  0  0  0  0  0  0  0  0  0  0  0
    9.1180   -1.4520   21.9720 N   0  0  0  0  0  0  0  0  0  0  0  0
    8.3910   -0.3100   21.4620 C   0  0  0  0  0  0  0  0  0  0  0  0
    8.9620    0.9230   21.3480 O   0  0  0  0  0  0  0  0  0  0  0  0
    7.1020   -0.6060   21.0960 N   0  0  0  0  0  0  0  0  0  0  0  0
    6.4490    0.0190   20.0620 C   0  0  0  0  0  0  0  0  0  0  0  0
    5.2660    0.7210   20.3220 C   0  0  0  0  0  0  0  0  0  0  0  0
    4.6340    1.3600   19.2670 C   0  0  0  0  0  0  0  0  0  0  0  0
    5.1520    1.3100   17.9830 C   0  0  0  0  0  0  0  0  0  0  0  0
    6.3080    0.6160   17.7190 N   0  0  0  0  0  0  0  0  0  0  0  0
    6.9120   -0.0020   18.7560 C   0  0  0  0  0  0  0  0  0  0  0  0
   10.9550    2.0680   22.8230 N   0  0  0  0  0  0  0  0  0  0  0  0
    9.7700    2.7220   22.6760 C   0  0  0  0  0  0  0  0  0  0  0  0
  1  2  1  0
  2  3  2  0
  3  4  1  0
  4  5  2  0
  5  6  1  0
  6  7  1  0
  7  8  1  0
  8  9  1  0
  9 10  2  0
  9 11  1  0
 11 12  1  0
 12 13  2  0
 13 14  1  0
 14 15  2  0
 15 16  1  0
 12 17  1  0
 16 17  2  0
  2 18  1  0
  5 18  1  0
 18 19  1  0
M  END
