pyridine_urea_4560
     RDKit          3D

 23 25  0  0  0  0  0  0  0  0999 V2000
    8.7250    1.2740   21.1660 O   0  0  0  0  0  0  0  0  0  0  0  0
    8.4630    0.0690   21.2830 C   0  0  0  0  0  0  0  0  0  0  0  0
    7.2050   -0.4640   21.1300 N   0  0  0  0  0  0  0  0  0  0  0  0
    6.4950    0.1430   20.0500 C   0  0  0  0  0  0  0  0  0  0  0  0
    5.2190    0.8980   20.3860 C   0  0  0  0  0  0  0  0  0  0  0  0
    4.4890    1.5690   19.2290 C   0  0  0  0  0  0  0  0  0  0  0  0
    5.1390    1.3990   17.8570 C   0  0  0  0  0  0  0  0  0  0  0  0
    6.3140    0.6600   17.7190 N   0  0  0  0  0  0  0  0  0  0  0  0
    6.9540    0.0610   18.7600 C   0  0  0  0  0  0  0  0  0  0  0  0
    9.4040   -0.8920   21.5340 N   0  0  0  0  0  0  0  0  0  0  0  0
   10.1690   -0.8460   22.7000 C   0  0  0  0  0  0  0  0  0  0  0  0
    9.5700   -1.5830   23.7220 C   0  0  0  0  0  0  0  0  0  0  0  0
    9.2460   -2.9170   23.4960 C   0  0  0  0  0  0  0  0  0  0  0  0
    8.6320   -3.6750   24.4880 C   0  0  0  0  0  0  0  0  0  0  0  0
    8.3100   -3.1470   25.7420 C   0  0  0  0  0  0  0  0  0  0  0  0
    7.7120   -3.9290   26.6630 F   0  0  0  0  0  0  0  0  0  0  0  0
    8.6140   -1.8140   26.0270 C   0  0  0  0  0  0  0  0  0  0  0  0
    9.2720   -1.0080   24.9700 C   0  0  0  0  0  0  0  0  0  0  0  0
   10.4740    0.5720   23.2110 C   0  0  0  0  0  0  0  0  0  0  0  0
   11.6940    0.6340   24.0240 C   0  0  0  0  0  0  0  0  0  0  0  0
   12.8490    0.1680   23.4540 C   0  0  0  0  0  0  0  0  0  0  0  0
   12.7450   -0.8530   22.5390 C   0  0  0  0  0  0  0  0  0  0  0  0
   11.4970   -1.4910   22.3290 C   0  0  0  0  0  0  0  0  0  0  0  0
  1  2  2  0
  2  3  1  0
  3  4  1  0
  4  5  2  0
  5  6  1  0
  6  7  2  0
  7  8  1  0
  4  9  1  0
  8  9  2  0
  2 10  1  0
 11 10  1  0
 11 12  1  0
 12 13  2  0
 13 14  1  0
 14 15  2  0
 15 16  1  0
 15 17  1  0
 12 18  1  0
 17 18  2  0
 11 19  1  0
 19 20  1  0
 20 21  1  0
 21 22  1  0
 11 23  1  0
 22 23  1  0
M  END
