pyridine_urea_13045
     RDKit          3D

 18 19  0  0  0  0  0  0  0  0999 V2000
    9.7200   -0.3450   25.8920 C   0  0  0  0  0  0  0  0  0  0  0  0
    9.9050    0.7710   25.0450 O   0  0  0  0  0  0  0  0  0  0  0  0
    9.7230    0.5510   23.7060 C   0  0  0  0  0  0  0  0  0  0  0  0
   10.3760   -0.4600   22.9690 C   0  0  1  0  0  0  0  0  0  0  0  0
    9.5090   -0.8340   21.8290 N   0  0  0  0  0  0  0  0  0  0  0  0
    8.5760    0.0820   21.3710 C   0  0  0  0  0  0  0  0  0  0  0  0
    8.8560    1.2780   21.2040 O   0  0  0  0  0  0  0  0  0  0  0  0
    7.2720   -0.5340   21.0820 N   0  0  0  0  0  0  0  0  0  0  0  0
    6.5400    0.0650   20.0830 C   0  0  0  0  0  0  0  0  0  0  0  0
    5.2600    0.8160   20.4410 C   0  0  0  0  0  0  0  0  0  0  0  0
    4.5750    1.4220   19.3920 C   0  0  0  0  0  0  0  0  0  0  0  0
    5.1650    1.2800   17.9850 C   0  0  0  0  0  0  0  0  0  0  0  0
    6.2930    0.5970   17.7290 N   0  0  0  0  0  0  0  0  0  0  0  0
    6.9400    0.0150   18.7620 C   0  0  0  0  0  0  0  0  0  0  0  0
   11.7070   -0.2800   22.4980 C   0  0  0  0  0  0  0  0  0  0  0  0
   10.9890    0.7720   23.0450 C   0  0  0  0  0  0  0  0  0  0  0  0
   12.5240   -0.9920   23.2750 C   0  0  0  0  0  0  0  0  0  0  0  0
   12.9470    0.2830   23.0060 C   0  0  0  0  0  0  0  0  0  0  0  0
  1  2  1  0
  2  3  1  0
  4  3  1  6
  4  5  1  0
  5  6  1  0
  6  7  2  0
  6  8  1  0
  8  9  1  0
  9 10  2  0
 10 11  1  0
 11 12  2  0
 12 13  1  0
  9 14  1  0
 13 14  2  0
  4 15  1  0
 15 16  1  0
 15 17  1  0
 15 18  1  0
 17 18  1  0
M  END
