pyridine_urea_14434
     RDKit          3D

 21 22  0  0  0  0  0  0  0  0999 V2000
    8.3900    1.2070   20.6820 O   0  0  0  0  0  0  0  0  0  0  0  0
    8.2400    0.0270   20.9810 C   0  0  0  0  0  0  0  0  0  0  0  0
    9.2290   -0.8490   21.5790 N   0  0  0  0  0  0  0  0  0  0  0  0
    9.9500   -0.2790   22.6030 C   0  0  0  0  0  0  0  0  0  0  0  0
   10.9980   -0.9940   22.9800 C   0  0  2  0  0  0  0  0  0  0  0  0
   11.9750   -0.1310   23.5600 C   0  0  0  0  0  0  0  0  0  0  0  0
   13.3020   -0.5090   23.5510 C   0  0  0  0  0  0  0  0  0  0  0  0
   12.3900    0.4330   23.9680 C   0  0  0  0  0  0  0  0  0  0  0  0
   11.4800   -0.1800   23.3660 C   0  0  0  0  0  0  0  0  0  0  0  0
   10.6680    0.9070   23.7630 C   0  0  0  0  0  0  0  0  0  0  0  0
   11.9680    0.6310   24.0020 C   0  0  0  0  0  0  0  0  0  0  0  0
   11.5330   -1.5880   21.8110 C   0  0  0  0  0  0  0  0  0  0  0  0
   11.9100   -2.8430   22.3310 F   0  0  0  0  0  0  0  0  0  0  0  0
   12.6910   -0.9900   21.4670 F   0  0  0  0  0  0  0  0  0  0  0  0
    7.0810   -0.6570   20.6470 N   0  0  0  0  0  0  0  0  0  0  0  0
    6.2830   -0.0450   19.7440 C   0  0  0  0  0  0  0  0  0  0  0  0
    4.9900    0.3620   20.0200 C   0  0  0  0  0  0  0  0  0  0  0  0
    4.3380    0.9640   18.9360 C   0  0  0  0  0  0  0  0  0  0  0  0
    5.0550    1.1750   17.8060 C   0  0  0  0  0  0  0  0  0  0  0  0
    6.3340    0.8770   17.5670 N   0  0  0  0  0  0  0  0  0  0  0  0
    6.9410    0.2610   18.5780 C   0  0  0  0  0  0  0  0  0  0  0  0
  1  2  2  0
  2  3  1  0
  3  4  1  0
  5  4  1  6
  5  6  1  0
  6  7  2  0
  7  8  1  0
  8  9  2  0
  9 10  1  0
  6 11  1  0
 10 11  2  0
  5 12  1  0
 12 13  1  0
 12 14  1  0
  2 15  1  0
 15 16  1  0
 16 17  2  0
 17 18  1  0
 18 19  2  0
 19 20  1  0
 16 21  1  0
 20 21  2  0
M  END
