pyridine_urea_986
     RDKit          3D

 22 23  0  0  0  0  0  0  0  0999 V2000
   13.5000    0.6310   22.8050 C   0  0  0  0  0  0  0  0  0  0  0  0
   12.3770    1.3370   23.2910 O   0  0  0  0  0  0  0  0  0  0  0  0
   11.3790    0.4410   23.3960 C   0  0  0  0  0  0  0  0  0  0  0  0
   10.8180    1.5610   23.7630 C   0  0  0  0  0  0  0  0  0  0  0  0
   12.0550    1.2240   23.3560 C   0  0  0  0  0  0  0  0  0  0  0  0
   11.3310   -0.1840   23.2820 C   0  0  0  0  0  0  0  0  0  0  0  0
    9.8730   -0.3710   23.6400 C   0  0  1  0  0  0  0  0  0  0  0  0
    9.4380    1.0210   24.0760 C   0  0  0  0  0  0  0  0  0  0  0  0
    9.2060   -0.7970   22.4120 N   0  0  0  0  0  0  0  0  0  0  0  0
    8.5780    0.0930   21.5390 C   0  0  0  0  0  0  0  0  0  0  0  0
    9.0090    1.2220   21.2650 O   0  0  0  0  0  0  0  0  0  0  0  0
    7.3480   -0.4850   21.0180 N   0  0  0  0  0  0  0  0  0  0  0  0
    6.5900    0.1080   20.0540 C   0  0  0  0  0  0  0  0  0  0  0  0
    5.4430    0.8460   20.3270 C   0  0  0  0  0  0  0  0  0  0  0  0
    4.7060    1.4530   19.3150 C   0  0  0  0  0  0  0  0  0  0  0  0
    5.1500    1.3000   18.0170 C   0  0  0  0  0  0  0  0  0  0  0  0
    6.2440    0.5910   17.6900 N   0  0  0  0  0  0  0  0  0  0  0  0
    6.9590   -0.0060   18.7340 C   0  0  0  0  0  0  0  0  0  0  0  0
   12.0310   -1.3970   22.8580 C   0  0  0  0  0  0  0  0  0  0  0  0
   13.1890   -1.9580   22.4300 O   0  0  0  0  0  0  0  0  0  0  0  0
   13.1390   -2.4180   21.0960 C   0  0  0  0  0  0  0  0  0  0  0  0
   12.5110   -0.2420   22.9550 C   0  0  0  0  0  0  0  0  0  0  0  0
  1  2  1  0
  2  3  1  0
  3  4  2  0
  4  5  1  0
  5  6  2  0
  6  7  1  0
  7  8  1  6
  7  9  1  0
  9 10  1  0
 10 11  2  0
 10 12  1  0
 12 13  1  0
 13 14  2  0
 14 15  1  0
 15 16  2  0
 16 17  1  0
 13 18  1  0
 17 18  2  0
  6 19  1  0
 19 20  1  0
 20 21  1  0
  3 22  1  0
 19 22  2  0
M  END
