pyridine_urea_13148
     RDKit          3D

 18 19  0  0  0  0  0  0  0  0999 V2000
    9.0080    1.3510   21.1630 O   0  0  0  0  0  0  0  0  0  0  0  0
    8.4580    0.3620   21.6540 C   0  0  0  0  0  0  0  0  0  0  0  0
    8.7710   -0.1500   22.8900 N   0  0  0  0  0  0  0  0  0  0  0  0
    9.0520   -1.4760   23.2270 C   0  0  0  0  0  0  0  0  0  0  0  0
   10.2630   -1.9960   22.8270 C   0  0  0  0  0  0  0  0  0  0  0  0
   11.2570   -1.8930   23.7750 C   0  0  0  0  0  0  0  0  0  0  0  0
   12.2510   -1.3600   22.9610 N   0  0  0  0  0  0  0  0  0  0  0  0
   12.8560   -0.2000   23.1430 C   0  0  0  0  0  0  0  0  0  0  0  0
   13.6870   -0.0510   22.1700 N   0  0  0  0  0  0  0  0  0  0  0  0
   13.6370   -1.1440   21.3180 N   0  0  0  0  0  0  0  0  0  0  0  0
   12.7130   -1.9740   21.8490 N   0  0  0  0  0  0  0  0  0  0  0  0
    7.4360   -0.3550   21.0660 N   0  0  0  0  0  0  0  0  0  0  0  0
    6.5910    0.2060   20.1040 C   0  0  0  0  0  0  0  0  0  0  0  0
    5.4210    0.9140   20.3900 C   0  0  0  0  0  0  0  0  0  0  0  0
    4.6310    1.4830   19.2100 C   0  0  0  0  0  0  0  0  0  0  0  0
    5.1550    1.2400   17.9600 C   0  0  0  0  0  0  0  0  0  0  0  0
    6.2690    0.5510   17.7100 N   0  0  0  0  0  0  0  0  0  0  0  0
    6.9440    0.0590   18.7690 C   0  0  0  0  0  0  0  0  0  0  0  0
  1  2  2  0
  2  3  1  0
  3  4  1  0
  4  5  1  0
  5  6  1  0
  6  7  1  0
  7  8  1  0
  8  9  2  0
  9 10  1  0
  7 11  1  0
 10 11  2  0
  2 12  1  0
 12 13  1  0
 13 14  2  0
 14 15  1  0
 15 16  2  0
 16 17  1  0
 13 18  1  0
 17 18  2  0
M  END
