pyridine_urea_13745
     RDKit          3D

 25 27  0  0  0  0  0  0  0  0999 V2000
    8.8950    0.9850   21.4130 O   0  0  0  0  0  0  0  0  0  0  0  0
    8.5400   -0.1840   21.3720 C   0  0  0  0  0  0  0  0  0  0  0  0
    7.2950   -0.6280   20.9900 N   0  0  0  0  0  0  0  0  0  0  0  0
    6.4840    0.0390   20.0720 C   0  0  0  0  0  0  0  0  0  0  0  0
    5.1660    0.7520   20.4090 C   0  0  0  0  0  0  0  0  0  0  0  0
    4.4990    1.4260   19.2140 C   0  0  0  0  0  0  0  0  0  0  0  0
    5.1830    1.3200   17.8900 C   0  0  0  0  0  0  0  0  0  0  0  0
    6.3350    0.6580   17.7120 N   0  0  0  0  0  0  0  0  0  0  0  0
    6.9280    0.0590   18.7600 C   0  0  0  0  0  0  0  0  0  0  0  0
    9.3870   -1.2170   21.6810 N   0  0  0  0  0  0  0  0  0  0  0  0
   10.0220   -1.3820   22.9760 C   0  0  2  0  0  0  0  0  0  0  0  0
    9.4540   -0.5100   23.9530 C   0  0  0  0  0  0  0  0  0  0  0  0
    8.5120    0.1310   23.5060 O   0  0  0  0  0  0  0  0  0  0  0  0
    9.8710   -0.4150   25.2640 N   0  0  0  0  0  0  0  0  0  0  0  0
    8.9720   -0.1690   26.3310 C   0  0  0  0  0  0  0  0  0  0  0  0
    9.2670    0.1940   27.6160 C   0  0  0  0  0  0  0  0  0  0  0  0
    8.0940    0.3140   28.2790 C   0  0  0  0  0  0  0  0  0  0  0  0
    7.0500    0.0460   27.4860 N   0  0  0  0  0  0  0  0  0  0  0  0
    7.5600   -0.2620   26.2490 N   0  0  0  0  0  0  0  0  0  0  0  0
   11.4250   -1.3710   22.8350 C   0  0  0  0  0  0  0  0  0  0  0  0
   12.7700   -0.6450   22.7780 C   0  0  0  0  0  0  0  0  0  0  0  0
   13.1320    0.6730   22.8720 C   0  0  0  0  0  0  0  0  0  0  0  0
   12.5310    1.8960   23.0400 C   0  0  0  0  0  0  0  0  0  0  0  0
   11.3230    1.2850   23.0800 C   0  0  0  0  0  0  0  0  0  0  0  0
   10.8060    0.0250   23.0120 C   0  0  0  0  0  0  0  0  0  0  0  0
  1  2  2  0
  2  3  1  0
  3  4  1  0
  4  5  2  0
  5  6  1  0
  6  7  2  0
  7  8  1  0
  4  9  1  0
  8  9  2  0
  2 10  1  0
 11 10  1  6
 11 12  1  0
 12 13  2  0
 12 14  1  0
 14 15  1  0
 15 16  1  0
 16 17  2  0
 17 18  1  0
 15 19  2  0
 18 19  1  0
 11 20  1  0
 20 21  2  0
 21 22  1  0
 22 23  2  0
 23 24  1  0
 20 25  1  0
 24 25  2  0
M  END
