pyridine_urea_14329
     RDKit          3D

 22 24  0  0  0  0  0  0  0  0999 V2000
   13.5390   -3.4770   20.7650 N   0  0  0  0  0  0  0  0  0  0  0  0
   12.3770   -2.9550   21.2510 C   0  0  0  0  0  0  0  0  0  0  0  0
   11.1440   -3.2200   20.6910 O   0  0  0  0  0  0  0  0  0  0  0  0
   12.5070   -2.1600   22.3450 N   0  0  0  0  0  0  0  0  0  0  0  0
   13.6600   -1.4350   22.3980 C   0  0  0  0  0  0  0  0  0  0  0  0
   13.5380   -0.1230   22.8230 C   0  0  0  0  0  0  0  0  0  0  0  0
   12.2600    0.0240   22.8260 C   0  0  0  0  0  0  0  0  0  0  0  0
   11.5270    1.1200   23.0310 C   0  0  0  0  0  0  0  0  0  0  0  0
   10.0490    1.0160   23.0150 C   0  0  0  0  0  0  0  0  0  0  0  0
    9.4010   -0.3490   22.7520 C   0  0  0  0  0  0  0  0  0  0  0  0
    8.1270   -0.5630   22.7040 N   0  0  0  0  0  0  0  0  0  0  0  0
    7.7670   -0.0640   21.5440 C   0  0  0  0  0  0  0  0  0  0  0  0
    8.4400    0.8660   21.1150 O   0  0  0  0  0  0  0  0  0  0  0  0
    6.7130   -0.5980   20.9270 N   0  0  0  0  0  0  0  0  0  0  0  0
    6.0940    0.0910   19.9230 C   0  0  0  0  0  0  0  0  0  0  0  0
    4.8940    0.7720   20.0440 C   0  0  0  0  0  0  0  0  0  0  0  0
    4.4050    1.4550   18.9450 C   0  0  0  0  0  0  0  0  0  0  0  0
    5.1380    1.4230   17.7800 C   0  0  0  0  0  0  0  0  0  0  0  0
    6.2970    0.7580   17.6440 N   0  0  0  0  0  0  0  0  0  0  0  0
    6.7460    0.1100   18.7170 C   0  0  0  0  0  0  0  0  0  0  0  0
   10.3220   -1.3200   22.5450 C   0  0  0  0  0  0  0  0  0  0  0  0
   11.6350   -1.1340   22.5810 C   0  0  0  0  0  0  0  0  0  0  0  0
  1  2  1  0
  2  3  2  0
  2  4  1  0
  4  5  1  0
  5  6  1  0
  6  7  1  0
  7  8  2  0
  8  9  1  0
  9 10  2  0
 10 11  1  0
 11 12  1  0
 12 13  2  0
 12 14  1  0
 14 15  1  0
 15 16  2  0
 16 17  1  0
 17 18  2  0
 18 19  1  0
 15 20  1  0
 19 20  2  0
 10 21  1  0
  4 22  1  0
  7 22  1  0
 21 22  2  0
M  END
