pyridine_urea_1521
     RDKit          3D

 19 21  0  0  0  0  0  0  0  0999 V2000
    8.4500    1.5750   21.1350 O   0  0  0  0  0  0  0  0  0  0  0  0
    8.3550    0.4170   21.5410 C   0  0  0  0  0  0  0  0  0  0  0  0
    7.2780   -0.3640   21.2140 N   0  0  0  0  0  0  0  0  0  0  0  0
    6.6140    0.1150   20.0330 C   0  0  0  0  0  0  0  0  0  0  0  0
    5.3600    0.9670   20.2890 C   0  0  0  0  0  0  0  0  0  0  0  0
    4.6510    1.5070   19.2260 C   0  0  0  0  0  0  0  0  0  0  0  0
    5.1230    1.2500   17.9460 C   0  0  0  0  0  0  0  0  0  0  0  0
    6.2400    0.4800   17.7550 N   0  0  0  0  0  0  0  0  0  0  0  0
    6.9990   -0.1020   18.7700 C   0  0  0  0  0  0  0  0  0  0  0  0
    9.3100   -0.1980   22.2790 N   0  0  0  0  0  0  0  0  0  0  0  0
   10.4060   -0.7630   22.7880 C   0  0  0  0  0  0  0  0  0  0  0  0
   11.1710   -1.2720   21.7990 C   0  0  0  0  0  0  0  0  0  0  0  0
   12.3550   -1.8900   22.0050 C   0  0  0  0  0  0  0  0  0  0  0  0
   12.7890   -2.0170   23.2740 C   0  0  0  0  0  0  0  0  0  0  0  0
   13.9010   -2.6180   23.6260 N   0  0  0  0  0  0  0  0  0  0  0  0
   13.9300   -2.5140   24.8750 O   0  0  0  0  0  0  0  0  0  0  0  0
   12.8160   -1.8420   25.4090 N   0  0  0  0  0  0  0  0  0  0  0  0
   12.1080   -1.5480   24.3300 C   0  0  0  0  0  0  0  0  0  0  0  0
   10.7960   -0.8590   24.0910 C   0  0  0  0  0  0  0  0  0  0  0  0
  1  2  2  0
  2  3  1  0
  3  4  1  0
  4  5  2  0
  5  6  1  0
  6  7  2  0
  7  8  1  0
  4  9  1  0
  8  9  2  0
  2 10  1  0
 10 11  1  0
 11 12  1  0
 12 13  2  0
 13 14  1  0
 14 15  2  0
 15 16  1  0
 16 17  1  0
 14 18  1  0
 17 18  2  0
 11 19  2  0
 18 19  1  0
M  END
