pyridine_urea_13162
     RDKit          3D

 18 19  0  0  0  0  0  0  0  0999 V2000
   12.7220   -2.5160   21.0310 C   0  0  0  0  0  0  0  0  0  0  0  0
   11.5760   -1.7970   21.4520 O   0  0  0  0  0  0  0  0  0  0  0  0
   11.6620   -1.2120   22.6680 C   0  0  1  0  0  0  0  0  0  0  0  0
   12.7750   -0.3990   22.9330 C   0  0  0  0  0  0  0  0  0  0  0  0
   12.5230    0.3810   23.8270 O   0  0  0  0  0  0  0  0  0  0  0  0
   11.6500    1.3690   23.5360 C   0  0  0  0  0  0  0  0  0  0  0  0
   10.4070    0.7910   23.4750 C   0  0  0  0  0  0  0  0  0  0  0  0
   10.4180   -0.6820   23.0670 C   0  0  1  0  0  0  0  0  0  0  0  0
    9.2310   -0.9500   22.2580 N   0  0  0  0  0  0  0  0  0  0  0  0
    8.5820    0.0020   21.4750 C   0  0  0  0  0  0  0  0  0  0  0  0
    9.0560    1.1060   21.1780 O   0  0  0  0  0  0  0  0  0  0  0  0
    7.2760   -0.5020   21.0720 N   0  0  0  0  0  0  0  0  0  0  0  0
    6.5810    0.0880   20.0350 C   0  0  0  0  0  0  0  0  0  0  0  0
    5.4150    0.8100   20.3250 C   0  0  0  0  0  0  0  0  0  0  0  0
    4.7060    1.4160   19.2960 C   0  0  0  0  0  0  0  0  0  0  0  0
    5.1910    1.2850   18.0030 C   0  0  0  0  0  0  0  0  0  0  0  0
    6.2990    0.6050   17.7000 N   0  0  0  0  0  0  0  0  0  0  0  0
    6.9650    0.0190   18.7150 C   0  0  0  0  0  0  0  0  0  0  0  0
  1  2  1  0
  3  2  1  6
  3  4  1  0
  4  5  1  0
  5  6  1  0
  6  7  1  0
  3  8  1  0
  7  8  1  0
  8  9  1  6
  9 10  1  0
 10 11  2  0
 10 12  1  0
 12 13  1  0
 13 14  2  0
 14 15  1  0
 15 16  2  0
 16 17  1  0
 13 18  1  0
 17 18  2  0
M  END
