pyridine_urea_12984
     RDKit          3D

 19 20  0  0  0  0  0  0  0  0999 V2000
    9.6350   -0.2300   25.4190 N   0  0  0  0  0  0  0  0  0  0  0  0
    9.9770    0.0320   24.3380 C   0  0  0  0  0  0  0  0  0  0  0  0
   10.3300    1.4010   24.4850 O   0  0  0  0  0  0  0  0  0  0  0  0
   10.2280   -0.1870   22.8300 C   0  0  2  0  0  0  0  0  0  0  0  0
    9.2620   -0.8770   22.2010 N   0  0  0  0  0  0  0  0  0  0  0  0
    8.4010   -0.0180   21.3950 C   0  0  0  0  0  0  0  0  0  0  0  0
    8.8920    1.3380   21.0910 O   0  0  0  0  0  0  0  0  0  0  0  0
    7.2040   -0.6040   21.0140 N   0  0  0  0  0  0  0  0  0  0  0  0
    6.5490    0.0020   20.0240 C   0  0  0  0  0  0  0  0  0  0  0  0
    5.3800    0.7190   20.3100 C   0  0  0  0  0  0  0  0  0  0  0  0
    4.7210    1.3660   19.2340 C   0  0  0  0  0  0  0  0  0  0  0  0
    5.1910    1.3150   17.9180 C   0  0  0  0  0  0  0  0  0  0  0  0
    6.2770    0.6190   17.7510 N   0  0  0  0  0  0  0  0  0  0  0  0
    6.9780   -0.0420   18.7310 C   0  0  0  0  0  0  0  0  0  0  0  0
   11.5650   -0.8190   22.4780 C   0  0  2  0  0  0  0  0  0  0  0  0
   12.4820   -1.2800   23.4390 C   0  0  0  0  0  0  0  0  0  0  0  0
   12.4990   -0.4560   24.5530 C   0  0  0  0  0  0  0  0  0  0  0  0
   12.6840    0.5780   24.0370 O   0  0  0  0  0  0  0  0  0  0  0  0
   12.6840    0.1940   22.6730 C   0  0  0  0  0  0  0  0  0  0  0  0
  1  2  1  0
  2  3  2  0
  2  4  1  0
  4  5  1  1
  5  6  1  0
  6  7  2  0
  6  8  1  0
  8  9  1  0
  9 10  2  0
 10 11  1  0
 11 12  2  0
 12 13  1  0
  9 14  1  0
 13 14  2  0
  4 15  1  0
 15 16  1  1
 16 17  1  0
 17 18  1  0
 15 19  1  0
 18 19  1  0
M  END
