pyridine_urea_1428
     RDKit          3D

 19 20  0  0  0  0  0  0  0  0999 V2000
   13.6760   -2.9760   24.8980 C   0  0  0  0  0  0  0  0  0  0  0  0
   12.1750   -2.7770   24.8780 C   0  0  0  0  0  0  0  0  0  0  0  0
   11.7150   -1.7510   23.9320 C   0  0  0  0  0  0  0  0  0  0  0  0
   10.3930   -1.6380   23.7080 C   0  0  0  0  0  0  0  0  0  0  0  0
    9.9070   -0.7460   22.8650 C   0  0  0  0  0  0  0  0  0  0  0  0
    8.4990   -0.6900   22.6690 N   0  0  0  0  0  0  0  0  0  0  0  0
    8.1140    0.0360   21.5730 C   0  0  0  0  0  0  0  0  0  0  0  0
    8.7560    1.1910   21.1610 O   0  0  0  0  0  0  0  0  0  0  0  0
    7.0330   -0.5500   20.9870 N   0  0  0  0  0  0  0  0  0  0  0  0
    6.3440    0.1070   19.9880 C   0  0  0  0  0  0  0  0  0  0  0  0
    5.1440    0.8150   20.1660 C   0  0  0  0  0  0  0  0  0  0  0  0
    4.5520    1.4610   19.0830 C   0  0  0  0  0  0  0  0  0  0  0  0
    5.1480    1.4060   17.8310 C   0  0  0  0  0  0  0  0  0  0  0  0
    6.3080    0.7070   17.6660 N   0  0  0  0  0  0  0  0  0  0  0  0
    6.8970    0.0640   18.7310 C   0  0  0  0  0  0  0  0  0  0  0  0
   10.7900    0.0550   22.2430 C   0  0  0  0  0  0  0  0  0  0  0  0
   12.1710   -0.0120   22.4360 C   0  0  0  0  0  0  0  0  0  0  0  0
   12.5930   -0.9610   23.3170 C   0  0  0  0  0  0  0  0  0  0  0  0
   13.8370   -1.1230   23.5780 F   0  0  0  0  0  0  0  0  0  0  0  0
  1  2  1  0
  2  3  1  0
  3  4  2  0
  4  5  1  0
  5  6  1  0
  6  7  1  0
  7  8  2  0
  7  9  1  0
  9 10  1  0
 10 11  2  0
 11 12  1  0
 12 13  2  0
 13 14  1  0
 10 15  1  0
 14 15  2  0
  5 16  2  0
 16 17  1  0
  3 18  1  0
 17 18  2  0
 18 19  1  0
M  END
