pyridine_urea_6486
     RDKit          3D

 23 24  0  0  0  0  0  0  0  0999 V2000
   13.2350   -2.2470   21.0910 C   0  0  0  0  0  0  0  0  0  0  0  0
   13.5700   -1.8580   22.4080 O   0  0  0  0  0  0  0  0  0  0  0  0
   12.4210   -1.3680   23.0280 C   0  0  0  0  0  0  0  0  0  0  0  0
   11.1970   -1.3470   22.1150 C   0  0  0  0  0  0  0  0  0  0  0  0
    9.8990   -0.8830   22.5960 C   0  0  0  0  0  0  0  0  0  0  0  0
    8.7290   -0.8810   21.8010 N   0  0  0  0  0  0  0  0  0  0  0  0
    8.1420    0.2120   21.2890 C   0  0  0  0  0  0  0  0  0  0  0  0
    8.7180    1.2830   21.0700 O   0  0  0  0  0  0  0  0  0  0  0  0
    6.8640   -0.1280   21.0860 N   0  0  0  0  0  0  0  0  0  0  0  0
    6.3340    0.3620   19.9710 C   0  0  0  0  0  0  0  0  0  0  0  0
    5.1000    1.1590   20.1040 C   0  0  0  0  0  0  0  0  0  0  0  0
    4.4390    1.7410   19.0860 C   0  0  0  0  0  0  0  0  0  0  0  0
    5.1990    1.4220   17.8250 C   0  0  0  0  0  0  0  0  0  0  0  0
    6.3120    0.7030   17.6490 N   0  0  0  0  0  0  0  0  0  0  0  0
    6.8650    0.1780   18.7310 C   0  0  0  0  0  0  0  0  0  0  0  0
    9.9860   -0.4490   24.0150 C   0  0  0  0  0  0  0  0  0  0  0  0
    9.0910    0.0760   24.9420 C   0  0  0  0  0  0  0  0  0  0  0  0
    8.8020   -0.4490   26.1790 N   0  0  0  0  0  0  0  0  0  0  0  0
    8.5050    1.2900   24.4550 O   0  0  0  0  0  0  0  0  0  0  0  0
   11.0470   -0.4200   24.9850 C   0  0  0  0  0  0  0  0  0  0  0  0
   12.3630   -0.9120   24.5010 C   0  0  0  0  0  0  0  0  0  0  0  0
   13.3510   -0.9990   25.1630 O   0  0  0  0  0  0  0  0  0  0  0  0
   13.7600   -2.3900   25.3280 C   0  0  0  0  0  0  0  0  0  0  0  0
  1  2  1  0
  2  3  1  0
  3  4  2  0
  4  5  1  0
  5  6  1  0
  6  7  1  0
  7  8  2  0
  7  9  1  0
  9 10  1  0
 10 11  2  0
 11 12  1  0
 12 13  2  0
 13 14  1  0
 10 15  1  0
 14 15  2  0
  5 16  2  0
 16 17  1  0
 17 18  1  0
 17 19  2  0
 16 20  1  0
  3 21  1  0
 20 21  2  0
 21 22  1  0
 22 23  1  0
M  END
