pyridine_urea_517
     RDKit          3D

 25 27  0  0  0  0  0  0  0  0999 V2000
   10.6410    5.6410   26.0150 C   0  0  0  0  0  0  0  0  0  0  0  0
    9.9940    6.0830   25.0740 O   0  0  0  0  0  0  0  0  0  0  0  0
   10.6120    6.1480   23.8500 C   0  0  0  0  0  0  0  0  0  0  0  0
   10.5560    7.1330   23.1250 O   0  0  0  0  0  0  0  0  0  0  0  0
   11.3230    5.0000   23.4850 C   0  0  0  0  0  0  0  0  0  0  0  0
   10.7910    3.7420   23.5370 C   0  0  0  0  0  0  0  0  0  0  0  0
   11.8710    2.8940   23.0760 N   0  0  0  0  0  0  0  0  0  0  0  0
   11.8120    1.5000   22.9410 C   0  0  0  0  0  0  0  0  0  0  0  0
   12.9630    0.7130   22.9290 C   0  0  0  0  0  0  0  0  0  0  0  0
   12.7830   -0.7950   22.7510 C   0  0  0  0  0  0  0  0  0  0  0  0
   11.5470   -1.3970   22.5990 C   0  0  0  0  0  0  0  0  0  0  0  0
   10.4540   -0.5350   22.6250 C   0  0  0  0  0  0  0  0  0  0  0  0
    9.0960   -1.0140   22.4600 N   0  0  0  0  0  0  0  0  0  0  0  0
    8.3050   -0.2470   21.5760 C   0  0  0  0  0  0  0  0  0  0  0  0
    8.6390    0.8780   21.2290 O   0  0  0  0  0  0  0  0  0  0  0  0
    7.1730   -0.8560   21.1650 N   0  0  0  0  0  0  0  0  0  0  0  0
    6.5200   -0.1440   20.0700 C   0  0  0  0  0  0  0  0  0  0  0  0
    5.2540    0.6200   20.3550 C   0  0  0  0  0  0  0  0  0  0  0  0
    4.6550    1.3100   19.2680 C   0  0  0  0  0  0  0  0  0  0  0  0
    5.2060    1.2910   17.9880 C   0  0  0  0  0  0  0  0  0  0  0  0
    6.3450    0.5850   17.7830 N   0  0  0  0  0  0  0  0  0  0  0  0
    6.9960   -0.1220   18.7790 C   0  0  0  0  0  0  0  0  0  0  0  0
   10.5710    0.8500   22.7940 C   0  0  0  0  0  0  0  0  0  0  0  0
   12.9760    3.7690   22.7820 N   0  0  0  0  0  0  0  0  0  0  0  0
   12.6050    5.0480   23.0450 N   0  0  0  0  0  0  0  0  0  0  0  0
  1  2  1  0
  2  3  1  0
  3  4  2  0
  3  5  1  0
  5  6  2  0
  6  7  1  0
  7  8  1  0
  8  9  2  0
  9 10  1  0
 10 11  2  0
 11 12  1  0
 12 13  1  0
 13 14  1  0
 14 15  2  0
 14 16  1  0
 16 17  1  0
 17 18  2  0
 18 19  1  0
 19 20  2  0
 20 21  1  0
 17 22  1  0
 21 22  2  0
  8 23  1  0
 12 23  2  0
  7 24  1  0
  5 25  1  0
 24 25  2  0
M  END
