pyridine_urea_8525
     RDKit          3D

 22 24  0  0  0  0  0  0  0  0999 V2000
    9.0030    1.4820   21.2010 O   0  0  0  0  0  0  0  0  0  0  0  0
    8.5750    0.4100   21.6300 C   0  0  0  0  0  0  0  0  0  0  0  0
    9.0880   -0.2730   22.7090 N   0  0  0  0  0  0  0  0  0  0  0  0
    9.8360    0.2200   23.8180 C   0  0  0  0  0  0  0  0  0  0  0  0
   10.8210    1.2230   23.6690 C   0  0  0  0  0  0  0  0  0  0  0  0
   12.0150    1.8170   23.3750 C   0  0  0  0  0  0  0  0  0  0  0  0
   12.9350    1.0320   22.9170 C   0  0  0  0  0  0  0  0  0  0  0  0
   12.4760   -0.3420   22.8040 C   0  0  0  0  0  0  0  0  0  0  0  0
   11.5790   -1.3390   22.9160 C   0  0  0  0  0  0  0  0  0  0  0  0
   11.7450   -2.3450   24.0170 C   0  0  0  0  0  0  0  0  0  0  0  0
   10.7810   -3.2980   24.1340 C   0  0  0  0  0  0  0  0  0  0  0  0
    9.6810   -3.3450   23.2810 C   0  0  0  0  0  0  0  0  0  0  0  0
    9.5280   -2.4340   22.2440 C   0  0  0  0  0  0  0  0  0  0  0  0
   10.4770   -1.4340   22.0590 C   0  0  0  0  0  0  0  0  0  0  0  0
   11.3380    0.1010   23.2780 O   0  0  0  0  0  0  0  0  0  0  0  0
    7.4940   -0.2750   21.0960 N   0  0  0  0  0  0  0  0  0  0  0  0
    6.6360    0.2530   20.1230 C   0  0  0  0  0  0  0  0  0  0  0  0
    5.4810    0.9740   20.3750 C   0  0  0  0  0  0  0  0  0  0  0  0
    4.7380    1.4570   19.3120 C   0  0  0  0  0  0  0  0  0  0  0  0
    5.1310    1.2320   18.0060 C   0  0  0  0  0  0  0  0  0  0  0  0
    6.2410    0.5270   17.7380 N   0  0  0  0  0  0  0  0  0  0  0  0
    6.9540    0.0600   18.7860 C   0  0  0  0  0  0  0  0  0  0  0  0
  1  2  2  0
  2  3  1  0
  3  4  1  0
  4  5  1  0
  5  6  2  0
  6  7  1  0
  7  8  2  0
  8  9  1  0
  9 10  2  0
 10 11  1  0
 11 12  2  0
 12 13  1  0
  9 14  1  0
 13 14  2  0
  5 15  1  0
  8 15  1  0
  2 16  1  0
 16 17  1  0
 17 18  2  0
 18 19  1  0
 19 20  2  0
 20 21  1  0
 17 22  1  0
 21 22  2  0
M  END
