pyridine_urea_1498
     RDKit          3D

 19 20  0  0  0  0  0  0  0  0999 V2000
   13.6370   -2.0030   22.9500 C   0  0  0  0  0  0  0  0  0  0  0  0
   12.2600   -1.4850   23.0340 C   0  0  0  0  0  0  0  0  0  0  0  0
   11.5110   -1.6570   21.7810 C   0  0  0  0  0  0  0  0  0  0  0  0
   10.2320   -1.2370   21.7790 C   0  0  0  0  0  0  0  0  0  0  0  0
    9.6620   -0.6780   22.8910 C   0  0  0  0  0  0  0  0  0  0  0  0
    8.3180   -0.3040   22.7310 N   0  0  0  0  0  0  0  0  0  0  0  0
    8.0690    0.2660   21.5430 C   0  0  0  0  0  0  0  0  0  0  0  0
    8.7810    1.3570   21.0830 O   0  0  0  0  0  0  0  0  0  0  0  0
    7.0500   -0.4020   20.9420 N   0  0  0  0  0  0  0  0  0  0  0  0
    6.3640    0.2170   19.9380 C   0  0  0  0  0  0  0  0  0  0  0  0
    5.1780    0.9370   20.0610 C   0  0  0  0  0  0  0  0  0  0  0  0
    4.5690    1.5560   19.0020 C   0  0  0  0  0  0  0  0  0  0  0  0
    5.1280    1.4850   17.7440 C   0  0  0  0  0  0  0  0  0  0  0  0
    6.2890    0.7690   17.5930 N   0  0  0  0  0  0  0  0  0  0  0  0
    6.8960    0.1440   18.6710 C   0  0  0  0  0  0  0  0  0  0  0  0
   10.3710   -0.5180   24.0410 C   0  0  0  0  0  0  0  0  0  0  0  0
    9.5520    0.1790   25.3640 Cl  0  0  0  0  0  0  0  0  0  0  0  0
   11.6660   -0.9240   24.0890 C   0  0  0  0  0  0  0  0  0  0  0  0
   12.3040   -0.7500   25.2510 C   0  0  0  0  0  0  0  0  0  0  0  0
  1  2  1  0
  2  3  2  0
  3  4  1  0
  4  5  2  0
  5  6  1  0
  6  7  1  0
  7  8  2  0
  7  9  1  0
  9 10  1  0
 10 11  2  0
 11 12  1  0
 12 13  2  0
 13 14  1  0
 10 15  1  0
 14 15  2  0
  5 16  1  0
 16 17  1  0
  2 18  1  0
 16 18  2  0
 18 19  1  0
M  END
