pyridine_urea_177
     RDKit          3D

 23 25  0  0  0  0  0  0  0  0999 V2000
    8.7000    0.7630   21.3140 O   0  0  0  0  0  0  0  0  0  0  0  0
    8.4100   -0.4050   21.5330 C   0  0  0  0  0  0  0  0  0  0  0  0
    7.1860   -0.9070   21.1250 N   0  0  0  0  0  0  0  0  0  0  0  0
    6.5250   -0.1760   20.0510 C   0  0  0  0  0  0  0  0  0  0  0  0
    5.2220    0.5500   20.3910 C   0  0  0  0  0  0  0  0  0  0  0  0
    4.5970    1.2920   19.2530 C   0  0  0  0  0  0  0  0  0  0  0  0
    5.2260    1.2670   18.0190 C   0  0  0  0  0  0  0  0  0  0  0  0
    6.3740    0.6070   17.7730 N   0  0  0  0  0  0  0  0  0  0  0  0
    6.9860   -0.0840   18.7580 C   0  0  0  0  0  0  0  0  0  0  0  0
    9.2450   -1.3160   22.1900 N   0  0  0  0  0  0  0  0  0  0  0  0
   10.5320   -0.8100   22.7730 C   0  0  1  0  0  0  0  0  0  0  0  0
   11.6410   -1.4190   22.2750 C   0  0  0  0  0  0  0  0  0  0  0  0
   12.6030   -0.2220   22.5180 C   0  0  0  0  0  0  0  0  0  0  0  0
   12.2290    0.7060   23.4650 C   0  0  0  0  0  0  0  0  0  0  0  0
   11.6670    2.0750   23.5650 C   0  0  1  0  0  0  0  0  0  0  0  0
   11.9480    3.2710   22.9600 C   0  0  0  0  0  0  0  0  0  0  0  0
   10.7640    4.2580   23.1380 C   0  0  0  0  0  0  0  0  0  0  0  0
   11.3890    5.4500   22.4370 C   0  0  0  0  0  0  0  0  0  0  0  0
   12.7170    5.5440   21.7940 C   0  0  0  0  0  0  0  0  0  0  0  0
   13.5730    4.5270   21.7590 C   0  0  0  0  0  0  0  0  0  0  0  0
   13.1950    3.3680   22.3610 C   0  0  0  0  0  0  0  0  0  0  0  0
   10.3280    1.4810   23.2730 C   0  0  0  0  0  0  0  0  0  0  0  0
   10.6090    0.6070   22.3390 C   0  0  0  0  0  0  0  0  0  0  0  0
  1  2  2  0
  2  3  1  0
  3  4  1  0
  4  5  2  0
  5  6  1  0
  6  7  2  0
  7  8  1  0
  4  9  1  0
  8  9  2  0
  2 10  1  0
 11 10  1  6
 11 12  1  0
 12 13  1  0
 13 14  1  0
 14 15  1  0
 15 16  1  6
 16 17  2  0
 17 18  1  0
 18 19  2  0
 19 20  1  0
 16 21  1  0
 20 21  2  0
 15 22  1  0
 11 23  1  0
 22 23  1  0
M  END
