pyridine_urea_15142
     RDKit          3D

 19 20  0  0  0  0  0  0  0  0999 V2000
    8.9090    1.1840   21.1720 O   0  0  0  0  0  0  0  0  0  0  0  0
    8.4200    0.0860   21.4800 C   0  0  0  0  0  0  0  0  0  0  0  0
    8.9380   -0.6890   22.4790 N   0  0  0  0  0  0  0  0  0  0  0  0
    9.4690    0.0080   23.6120 C   0  0  0  0  0  0  0  0  0  0  0  0
   10.6980   -0.6580   24.1530 C   0  0  2  0  0  0  0  0  0  0  0  0
   10.8350   -0.3930   25.4630 F   0  0  0  0  0  0  0  0  0  0  0  0
   11.9340   -0.2240   23.4060 C   0  0  0  0  0  0  0  0  0  0  0  0
   12.5950    0.9630   23.5150 C   0  0  0  0  0  0  0  0  0  0  0  0
   12.9940   -0.2530   22.5450 C   0  0  0  0  0  0  0  0  0  0  0  0
   12.0490   -1.6440   22.5300 C   0  0  0  0  0  0  0  0  0  0  0  0
   13.0600   -1.8050   21.6540 C   0  0  0  0  0  0  0  0  0  0  0  0
   12.7580   -0.8000   22.4410 C   0  0  0  0  0  0  0  0  0  0  0  0
    7.3120   -0.5080   20.9430 N   0  0  0  0  0  0  0  0  0  0  0  0
    6.4920    0.1350   20.0180 C   0  0  0  0  0  0  0  0  0  0  0  0
    5.3150    0.8230   20.3180 C   0  0  0  0  0  0  0  0  0  0  0  0
    4.6040    1.4430   19.2980 C   0  0  0  0  0  0  0  0  0  0  0  0
    5.1570    1.3280   17.9280 C   0  0  0  0  0  0  0  0  0  0  0  0
    6.2790    0.6550   17.6640 N   0  0  0  0  0  0  0  0  0  0  0  0
    6.9090    0.0820   18.7010 C   0  0  0  0  0  0  0  0  0  0  0  0
  1  2  2  0
  2  3  1  0
  3  4  1  0
  4  5  1  0
  5  6  1  1
  5  7  1  0
  7  8  2  0
  8  9  1  0
  9 10  2  0
 10 11  1  0
  7 12  1  0
 11 12  2  0
  2 13  1  0
 13 14  1  0
 14 15  2  0
 15 16  1  0
 16 17  2  0
 17 18  1  0
 14 19  1  0
 18 19  2  0
M  END
