pyridine_urea_2745
     RDKit          3D

 23 25  0  0  0  0  0  0  0  0999 V2000
    8.6110   -1.0620   20.3970 O   0  0  0  0  0  0  0  0  0  0  0  0
    8.2560   -0.7690   21.4670 C   0  0  0  0  0  0  0  0  0  0  0  0
    6.9670   -0.2960   21.5900 N   0  0  0  0  0  0  0  0  0  0  0  0
    6.3670    0.2220   20.3510 C   0  0  0  0  0  0  0  0  0  0  0  0
    5.0510    1.0550   20.4650 C   0  0  0  0  0  0  0  0  0  0  0  0
    4.5040    1.5520   19.2880 C   0  0  0  0  0  0  0  0  0  0  0  0
    5.2370    1.2390   17.9830 C   0  0  0  0  0  0  0  0  0  0  0  0
    6.3710    0.5080   17.9160 N   0  0  0  0  0  0  0  0  0  0  0  0
    6.9000    0.0220   19.0720 C   0  0  0  0  0  0  0  0  0  0  0  0
    9.0560   -0.8640   22.6170 N   0  0  0  0  0  0  0  0  0  0  0  0
   10.5570   -0.7400   22.4550 C   0  0  1  0  0  0  0  0  0  0  0  0
   10.9810    0.3350   23.4160 C   0  0  0  0  0  0  0  0  0  0  0  0
   10.4830    1.7140   22.8680 C   0  0  0  0  0  0  0  0  0  0  0  0
   11.6010    2.7560   22.8570 C   0  0  0  0  0  0  0  0  0  0  0  0
   10.9530    4.0050   23.4180 C   0  0  0  0  0  0  0  0  0  0  0  0
    9.6070    3.4940   23.9350 C   0  0  0  0  0  0  0  0  0  0  0  0
    9.2820    2.2090   23.4290 C   0  0  0  0  0  0  0  0  0  0  0  0
   11.2770   -1.9720   22.5140 C   0  0  0  0  0  0  0  0  0  0  0  0
   12.2780   -1.0560   22.6990 C   0  0  0  0  0  0  0  0  0  0  0  0
   12.0540    0.3190   22.7280 C   0  0  0  0  0  0  0  0  0  0  0  0
   10.5860    0.1670   22.5100 C   0  0  0  0  0  0  0  0  0  0  0  0
    9.6030   -0.8920   22.3220 C   0  0  0  0  0  0  0  0  0  0  0  0
   10.0090   -2.1830   22.3220 C   0  0  0  0  0  0  0  0  0  0  0  0
  1  2  2  0
  2  3  1  0
  3  4  1  0
  4  5  2  0
  5  6  1  0
  6  7  2  0
  7  8  1  0
  4  9  1  0
  8  9  2  0
  2 10  1  0
 10 11  1  0
 11 12  1  1
 12 13  1  0
 13 14  1  0
 14 15  1  0
 15 16  1  0
 13 17  1  0
 16 17  1  0
 11 18  1  0
 18 19  2  0
 19 20  1  0
 20 21  2  0
 21 22  1  0
 18 23  1  0
 22 23  2  0
M  END
