pyridine_urea_6634
     RDKit          3D

 22 23  0  0  0  0  0  0  0  0999 V2000
   15.3790   -5.1840   20.2800 C   0  0  0  0  0  0  0  0  0  0  0  0
   14.6960   -3.9670   19.8820 O   0  0  0  0  0  0  0  0  0  0  0  0
   13.4560   -4.0190   20.3670 C   0  0  0  0  0  0  0  0  0  0  0  0
   12.8120   -2.8370   21.1260 C   0  0  0  0  0  0  0  0  0  0  0  0
   13.3780   -1.7740   20.9620 O   0  0  0  0  0  0  0  0  0  0  0  0
   13.5320   -1.2280   22.1840 C   0  0  0  0  0  0  0  0  0  0  0  0
   12.3510   -0.5780   22.6870 C   0  0  0  0  0  0  0  0  0  0  0  0
   12.4570    0.5170   23.4500 C   0  0  0  0  0  0  0  0  0  0  0  0
   11.3670    1.1460   23.9320 C   0  0  0  0  0  0  0  0  0  0  0  0
   10.0810    0.7080   23.6670 C   0  0  0  0  0  0  0  0  0  0  0  0
    9.7660   -0.4140   22.8770 C   0  0  0  0  0  0  0  0  0  0  0  0
    8.4390   -0.7980   22.6070 N   0  0  0  0  0  0  0  0  0  0  0  0
    8.0120   -0.0850   21.5220 C   0  0  0  0  0  0  0  0  0  0  0  0
    8.6820    1.1460   21.1190 O   0  0  0  0  0  0  0  0  0  0  0  0
    6.9350   -0.6610   20.9370 N   0  0  0  0  0  0  0  0  0  0  0  0
    6.2250    0.0510   19.9880 C   0  0  0  0  0  0  0  0  0  0  0  0
    4.9930    0.7190   20.2440 C   0  0  0  0  0  0  0  0  0  0  0  0
    4.4960    1.4280   18.9910 C   0  0  0  0  0  0  0  0  0  0  0  0
    5.1900    1.3850   17.8150 C   0  0  0  0  0  0  0  0  0  0  0  0
    6.3350    0.7340   17.6390 N   0  0  0  0  0  0  0  0  0  0  0  0
    6.7900    0.1050   18.7260 C   0  0  0  0  0  0  0  0  0  0  0  0
   11.0440   -1.1170   22.3460 C   0  0  0  0  0  0  0  0  0  0  0  0
  1  2  1  0
  2  3  1  0
  3  4  1  0
  4  5  1  0
  5  6  1  0
  6  7  1  0
  7  8  2  0
  8  9  1  0
  9 10  2  0
 10 11  1  0
 11 12  1  0
 12 13  1  0
 13 14  2  0
 13 15  1  0
 15 16  1  0
 16 17  2  0
 17 18  1  0
 18 19  2  0
 19 20  1  0
 16 21  1  0
 20 21  2  0
  7 22  1  0
 11 22  2  0
M  END
