pyridine_urea_5299
     RDKit          3D

 19 21  0  0  0  0  0  0  0  0999 V2000
    8.7240    1.2620   21.1320 O   0  0  0  0  0  0  0  0  0  0  0  0
    8.0660    0.3140   21.5900 C   0  0  0  0  0  0  0  0  0  0  0  0
    7.0390   -0.3500   21.0020 N   0  0  0  0  0  0  0  0  0  0  0  0
    6.3970    0.2190   19.9340 C   0  0  0  0  0  0  0  0  0  0  0  0
    5.2260    0.9320   20.1650 C   0  0  0  0  0  0  0  0  0  0  0  0
    4.5780    1.5360   19.0980 C   0  0  0  0  0  0  0  0  0  0  0  0
    5.1370    1.3950   17.8490 C   0  0  0  0  0  0  0  0  0  0  0  0
    6.2580    0.7010   17.6140 N   0  0  0  0  0  0  0  0  0  0  0  0
    6.8630    0.1280   18.6560 C   0  0  0  0  0  0  0  0  0  0  0  0
    8.3140   -0.2020   22.8100 N   0  0  0  0  0  0  0  0  0  0  0  0
    9.6620   -0.5790   22.9390 C   0  0  0  0  0  0  0  0  0  0  0  0
   10.2150   -1.4250   21.8030 C   0  0  0  0  0  0  0  0  0  0  0  0
   11.5270   -1.8240   21.8570 C   0  0  0  0  0  0  0  0  0  0  0  0
   12.1690   -1.4020   22.9480 C   0  0  0  0  0  0  0  0  0  0  0  0
   11.7070   -0.6600   23.9500 C   0  0  0  0  0  0  0  0  0  0  0  0
   10.4300   -0.2010   24.0180 C   0  0  0  0  0  0  0  0  0  0  0  0
   12.6930   -0.4810   24.7990 C   0  0  0  0  0  0  0  0  0  0  0  0
   13.7230   -1.3710   24.3270 O   0  0  0  0  0  0  0  0  0  0  0  0
   13.4430   -1.8190   22.9890 C   0  0  0  0  0  0  0  0  0  0  0  0
  1  2  2  0
  2  3  1  0
  3  4  1  0
  4  5  2  0
  5  6  1  0
  6  7  2  0
  7  8  1  0
  4  9  1  0
  8  9  2  0
  2 10  1  0
 10 11  1  0
 11 12  2  0
 12 13  1  0
 13 14  2  0
 14 15  1  0
 11 16  1  0
 15 16  2  0
 15 17  1  0
 17 18  1  0
 14 19  1  0
 18 19  1  0
M  END
