pyridine_urea_6709
     RDKit          3D

 21 22  0  0  0  0  0  0  0  0999 V2000
   12.9410    2.0450   22.9220 C   0  0  0  0  0  0  0  0  0  0  0  0
   13.4190    0.5730   23.0340 C   0  0  0  0  0  0  0  0  0  0  0  0
   12.1410    0.0020   22.9740 C   0  0  0  0  0  0  0  0  0  0  0  0
   11.0800    0.7060   23.7530 C   0  0  0  0  0  0  0  0  0  0  0  0
    9.7610    0.1570   23.6430 C   0  0  0  0  0  0  0  0  0  0  0  0
    8.8840    0.7260   24.2650 O   0  0  0  0  0  0  0  0  0  0  0  0
    8.8950    0.1770   25.5930 C   0  0  0  0  0  0  0  0  0  0  0  0
    9.5610   -1.0380   22.7710 C   0  0  0  0  0  0  0  0  0  0  0  0
    8.2710   -1.5340   22.5810 N   0  0  0  0  0  0  0  0  0  0  0  0
    7.8020   -0.6660   21.6250 C   0  0  0  0  0  0  0  0  0  0  0  0
    8.4600    0.3210   21.2930 O   0  0  0  0  0  0  0  0  0  0  0  0
    6.5970   -0.9750   21.1000 N   0  0  0  0  0  0  0  0  0  0  0  0
    6.1250   -0.1990   20.0500 C   0  0  0  0  0  0  0  0  0  0  0  0
    4.9550    0.5510   20.1170 C   0  0  0  0  0  0  0  0  0  0  0  0
    4.4970    1.3340   19.0680 C   0  0  0  0  0  0  0  0  0  0  0  0
    5.1980    1.4140   17.8650 C   0  0  0  0  0  0  0  0  0  0  0  0
    6.3350    0.7460   17.6580 N   0  0  0  0  0  0  0  0  0  0  0  0
    6.7890   -0.0230   18.6810 C   0  0  0  0  0  0  0  0  0  0  0  0
   10.6000   -1.6650   22.0980 C   0  0  0  0  0  0  0  0  0  0  0  0
   11.9060   -1.2590   22.1260 C   0  0  0  0  0  0  0  0  0  0  0  0
   12.9820   -1.8400   21.4740 C   0  0  0  0  0  0  0  0  0  0  0  0
  1  2  1  0
  2  3  1  0
  3  4  2  0
  4  5  1  0
  5  6  1  0
  6  7  1  0
  5  8  2  0
  8  9  1  0
  9 10  1  0
 10 11  2  0
 10 12  1  0
 12 13  1  0
 13 14  2  0
 14 15  1  0
 15 16  2  0
 16 17  1  0
 13 18  1  0
 17 18  2  0
  8 19  1  0
  3 20  1  0
 19 20  2  0
 20 21  1  0
M  END
