pyridine_urea_751
     RDKit          3D

 23 25  0  0  0  0  0  0  0  0999 V2000
   10.0940    0.4360   23.7750 C   0  0  0  0  0  0  0  0  0  0  0  0
   11.2710    1.3180   23.3650 C   0  0  0  0  0  0  0  0  0  0  0  0
   11.2030    2.6030   23.3560 C   0  0  0  0  0  0  0  0  0  0  0  0
   12.3510    1.9540   23.0130 C   0  0  0  0  0  0  0  0  0  0  0  0
   11.5600    0.6550   23.2190 C   0  0  0  0  0  0  0  0  0  0  0  0
   10.2030    0.3650   23.5490 C   0  0  0  0  0  0  0  0  0  0  0  0
    9.5670   -0.3670   22.4010 N   0  0  0  0  0  0  0  0  0  0  0  0
    8.6390    0.2420   21.5620 C   0  0  0  0  0  0  0  0  0  0  0  0
    8.7470    1.3780   21.0960 O   0  0  0  0  0  0  0  0  0  0  0  0
    7.4420   -0.5920   21.2360 N   0  0  0  0  0  0  0  0  0  0  0  0
    6.6880    0.0140   20.1330 C   0  0  0  0  0  0  0  0  0  0  0  0
    5.5670    0.8010   20.4270 C   0  0  0  0  0  0  0  0  0  0  0  0
    4.8190    1.4130   19.4360 C   0  0  0  0  0  0  0  0  0  0  0  0
    5.1490    1.2740   18.1020 C   0  0  0  0  0  0  0  0  0  0  0  0
    6.1980    0.5370   17.7030 N   0  0  0  0  0  0  0  0  0  0  0  0
    6.9730   -0.1050   18.7810 C   0  0  0  0  0  0  0  0  0  0  0  0
   12.3140   -0.5110   23.0320 C   0  0  0  0  0  0  0  0  0  0  0  0
   13.3920   -0.9080   22.7510 O   0  0  0  0  0  0  0  0  0  0  0  0
   13.2600   -2.2630   22.5030 C   0  0  0  0  0  0  0  0  0  0  0  0
   13.2860   -2.3960   21.1170 C   0  0  0  0  0  0  0  0  0  0  0  0
   13.4960   -3.5560   20.8070 C   0  0  0  0  0  0  0  0  0  0  0  0
   12.1360   -3.3170   20.5250 C   0  0  0  0  0  0  0  0  0  0  0  0
   12.6440    0.7220   22.9420 C   0  0  0  0  0  0  0  0  0  0  0  0
  1  2  1  0
  2  3  2  0
  3  4  1  0
  4  5  2  0
  5  6  1  0
  6  7  1  0
  7  8  1  0
  8  9  2  0
  8 10  1  0
 10 11  1  0
 11 12  2  0
 12 13  1  0
 13 14  2  0
 14 15  1  0
 11 16  1  0
 15 16  2  0
  5 17  1  0
 17 18  1  0
 18 19  1  0
 19 20  1  0
 20 21  1  0
 20 22  1  0
 21 22  1  0
  2 23  1  0
 17 23  2  0
M  END
