pyridine_urea_4418
     RDKit          3D

 23 25  0  0  0  0  0  0  0  0999 V2000
    8.9780    1.1900   21.1550 O   0  0  0  0  0  0  0  0  0  0  0  0
    8.5070    0.0930   21.4710 C   0  0  0  0  0  0  0  0  0  0  0  0
    9.1480   -0.7590   22.3510 N   0  0  0  0  0  0  0  0  0  0  0  0
   10.5020   -0.4330   22.7590 C   0  0  0  0  0  0  0  0  0  0  0  0
   10.7150    1.0750   22.8890 C   0  0  0  0  0  0  0  0  0  0  0  0
   11.9330    1.6470   22.7020 N   0  0  0  0  0  0  0  0  0  0  0  0
   11.8140    3.0100   22.8810 C   0  0  0  0  0  0  0  0  0  0  0  0
   12.8380    4.1080   22.7840 C   0  0  0  0  0  0  0  0  0  0  0  0
   12.3800    5.5420   23.0540 C   0  0  0  0  0  0  0  0  0  0  0  0
   10.8740    5.7500   23.4080 C   0  0  0  0  0  0  0  0  0  0  0  0
   10.3750    6.9840   23.6690 N   0  0  0  0  0  0  0  0  0  0  0  0
    9.2650    7.2530   23.1840 O   0  0  0  0  0  0  0  0  0  0  0  0
   10.7930    7.5400   24.6950 O   0  0  0  0  0  0  0  0  0  0  0  0
   10.0430    4.5950   23.4500 C   0  0  0  0  0  0  0  0  0  0  0  0
   10.5030    3.2970   23.1950 C   0  0  0  0  0  0  0  0  0  0  0  0
    9.8110    2.0970   23.1970 N   0  0  0  0  0  0  0  0  0  0  0  0
    7.3170   -0.4280   21.0210 N   0  0  0  0  0  0  0  0  0  0  0  0
    6.6200    0.1050   19.9930 C   0  0  0  0  0  0  0  0  0  0  0  0
    5.4510    0.7690   20.3700 C   0  0  0  0  0  0  0  0  0  0  0  0
    4.6740    1.3680   19.3780 C   0  0  0  0  0  0  0  0  0  0  0  0
    5.1460    1.2530   17.9770 C   0  0  0  0  0  0  0  0  0  0  0  0
    6.2670    0.6000   17.6550 N   0  0  0  0  0  0  0  0  0  0  0  0
    6.9730    0.0420   18.6620 C   0  0  0  0  0  0  0  0  0  0  0  0
  1  2  2  0
  2  3  1  0
  3  4  1  0
  4  5  1  0
  5  6  2  0
  6  7  1  0
  7  8  2  0
  8  9  1  0
  9 10  2  0
 10 11  1  0
 11 12  2  0
 11 13  1  0
 10 14  1  0
  7 15  1  0
 14 15  2  0
  5 16  1  0
 15 16  1  0
  2 17  1  0
 17 18  1  0
 18 19  2  0
 19 20  1  0
 20 21  2  0
 21 22  1  0
 18 23  1  0
 22 23  2  0
M  CHG  2  11   1  13  -1
M  END
