pyridine_urea_528
     RDKit          3D

 25 27  0  0  0  0  0  0  0  0999 V2000
    8.7880    1.0050   21.3120 O   0  0  0  0  0  0  0  0  0  0  0  0
    8.3700   -0.1450   21.3130 C   0  0  0  0  0  0  0  0  0  0  0  0
    7.0720   -0.5010   21.0370 N   0  0  0  0  0  0  0  0  0  0  0  0
    6.3350    0.1370   20.0430 C   0  0  0  0  0  0  0  0  0  0  0  0
    5.1400    0.8200   20.2240 C   0  0  0  0  0  0  0  0  0  0  0  0
    4.5320    1.4300   19.1250 C   0  0  0  0  0  0  0  0  0  0  0  0
    5.1520    1.3270   17.8960 C   0  0  0  0  0  0  0  0  0  0  0  0
    6.2990    0.6630   17.6980 N   0  0  0  0  0  0  0  0  0  0  0  0
    6.8570    0.0870   18.7690 C   0  0  0  0  0  0  0  0  0  0  0  0
    9.1360   -1.2460   21.5600 N   0  0  0  0  0  0  0  0  0  0  0  0
    9.8670   -1.4100   22.7310 C   0  0  1  0  0  0  0  0  0  0  0  0
   11.1470   -0.9960   22.5830 C   0  0  0  0  0  0  0  0  0  0  0  0
   12.0880   -1.6870   21.9450 C   0  0  0  0  0  0  0  0  0  0  0  0
   13.2710   -1.0070   21.9530 C   0  0  0  0  0  0  0  0  0  0  0  0
   13.4490    0.2750   22.5780 C   0  0  0  0  0  0  0  0  0  0  0  0
   12.4900    1.1680   23.3390 C   0  0  0  0  0  0  0  0  0  0  0  0
   11.6120    0.1730   23.0670 C   0  0  0  0  0  0  0  0  0  0  0  0
    9.4740   -0.8280   23.9320 C   0  0  0  0  0  0  0  0  0  0  0  0
    8.1620   -0.3580   24.0610 C   0  0  0  0  0  0  0  0  0  0  0  0
    7.7440    0.2050   25.2590 C   0  0  0  0  0  0  0  0  0  0  0  0
    6.1270    0.8000   25.4630 Cl  0  0  0  0  0  0  0  0  0  0  0  0
    8.6030    0.3020   26.3300 C   0  0  0  0  0  0  0  0  0  0  0  0
    9.8900   -0.1610   26.1980 C   0  0  0  0  0  0  0  0  0  0  0  0
   10.3710   -0.7290   25.0050 C   0  0  0  0  0  0  0  0  0  0  0  0
   12.0130   -1.3110   24.8710 Cl  0  0  0  0  0  0  0  0  0  0  0  0
  1  2  2  0
  2  3  1  0
  3  4  1  0
  4  5  2  0
  5  6  1  0
  6  7  2  0
  7  8  1  0
  4  9  1  0
  8  9  2  0
  2 10  1  0
 11 10  1  6
 11 12  1  0
 12 13  2  0
 13 14  1  0
 14 15  2  0
 15 16  1  0
 12 17  1  0
 16 17  2  0
 11 18  1  0
 18 19  2  0
 19 20  1  0
 20 21  1  0
 20 22  2  0
 22 23  1  0
 18 24  1  0
 23 24  2  0
 24 25  1  0
M  END
