pyridine_urea_10762
     RDKit          3D

 20 21  0  0  0  0  0  0  0  0999 V2000
   11.9990    3.9940   22.0430 C   0  0  0  0  0  0  0  0  0  0  0  0
   11.6350    2.9810   23.0950 C   0  0  0  0  0  0  0  0  0  0  0  0
   10.0380    2.1670   22.9140 S   0  0  0  0  0  0  0  0  0  0  0  0
    9.1410    2.7310   23.9020 O   0  0  0  0  0  0  0  0  0  0  0  0
   10.5770    0.5730   23.5360 C   0  0  2  0  0  0  0  0  0  0  0  0
   11.8100    0.4930   24.1590 C   0  0  0  0  0  0  0  0  0  0  0  0
   12.9260    0.0020   23.4780 C   0  0  0  0  0  0  0  0  0  0  0  0
   12.7900   -1.1280   22.5040 C   0  0  0  0  0  0  0  0  0  0  0  0
   11.3330   -1.5260   22.3470 C   0  0  0  0  0  0  0  0  0  0  0  0
   10.4060   -0.3330   22.4980 C   0  0  1  0  0  0  0  0  0  0  0  0
    9.0070   -0.6750   22.4440 N   0  0  0  0  0  0  0  0  0  0  0  0
    8.3330    0.0800   21.5090 C   0  0  0  0  0  0  0  0  0  0  0  0
    8.7330    1.1820   21.1080 O   0  0  0  0  0  0  0  0  0  0  0  0
    7.1820   -0.5140   21.0710 N   0  0  0  0  0  0  0  0  0  0  0  0
    6.4800    0.0730   20.0220 C   0  0  0  0  0  0  0  0  0  0  0  0
    5.3120    0.7800   20.2880 C   0  0  0  0  0  0  0  0  0  0  0  0
    4.6150    1.3910   19.2620 C   0  0  0  0  0  0  0  0  0  0  0  0
    5.1220    1.2720   17.9860 C   0  0  0  0  0  0  0  0  0  0  0  0
    6.2380    0.5910   17.6970 N   0  0  0  0  0  0  0  0  0  0  0  0
    6.8910    0.0070   18.7150 C   0  0  0  0  0  0  0  0  0  0  0  0
  1  2  1  0
  3  2  1  1
  3  4  2  0
  3  5  1  0
  5  6  1  6
  6  7  1  0
  7  8  1  0
  8  9  1  0
  5 10  1  0
  9 10  1  0
 10 11  1  1
 11 12  1  0
 12 13  2  0
 12 14  1  0
 14 15  1  0
 15 16  2  0
 16 17  1  0
 17 18  2  0
 18 19  1  0
 15 20  1  0
 19 20  2  0
M  END
