pyridine_urea_6142
     RDKit          3D

 24 26  0  0  0  0  0  0  0  0999 V2000
    8.6990    0.8070   21.1240 O   0  0  0  0  0  0  0  0  0  0  0  0
    8.2370   -0.2990   21.3720 C   0  0  0  0  0  0  0  0  0  0  0  0
    8.8600   -1.2150   22.1620 N   0  0  0  0  0  0  0  0  0  0  0  0
    9.4380   -0.7160   23.3830 C   0  0  0  0  0  0  0  0  0  0  0  0
    8.5110    0.3040   24.0850 C   0  0  1  0  0  0  0  0  0  0  0  0
    7.8550   -0.3030   24.9360 O   0  0  0  0  0  0  0  0  0  0  0  0
    9.1980    1.5870   24.4240 C   0  0  0  0  0  0  0  0  0  0  0  0
   10.5090    1.4630   24.5130 N   0  0  0  0  0  0  0  0  0  0  0  0
   10.8000    1.8060   23.2600 C   0  0  0  0  0  0  0  0  0  0  0  0
   12.2480    1.4090   23.0110 C   0  0  0  0  0  0  0  0  0  0  0  0
   12.4170   -0.0240   23.1060 C   0  0  0  0  0  0  0  0  0  0  0  0
   13.2820   -0.7300   22.3350 C   0  0  0  0  0  0  0  0  0  0  0  0
   13.2100   -2.2100   22.7070 C   0  0  0  0  0  0  0  0  0  0  0  0
   12.4130   -2.7560   23.6660 C   0  0  0  0  0  0  0  0  0  0  0  0
   11.6150   -1.9890   24.3280 C   0  0  0  0  0  0  0  0  0  0  0  0
   11.5720   -0.7140   24.1030 C   0  0  0  0  0  0  0  0  0  0  0  0
   10.6180    0.0890   24.8670 C   0  0  0  0  0  0  0  0  0  0  0  0
    7.0280   -0.7360   20.8910 N   0  0  0  0  0  0  0  0  0  0  0  0
    6.3470   -0.0330   19.9760 C   0  0  0  0  0  0  0  0  0  0  0  0
    5.0600    0.7050   20.1810 C   0  0  0  0  0  0  0  0  0  0  0  0
    4.4940    1.4010   19.1180 C   0  0  0  0  0  0  0  0  0  0  0  0
    5.1700    1.3720   17.9050 C   0  0  0  0  0  0  0  0  0  0  0  0
    6.3270    0.7130   17.6840 N   0  0  0  0  0  0  0  0  0  0  0  0
    6.8750    0.0370   18.7100 C   0  0  0  0  0  0  0  0  0  0  0  0
  1  2  2  0
  2  3  1  0
  3  4  1  0
  4  5  1  0
  5  6  1  1
  5  7  1  0
  7  8  1  0
  8  9  1  0
  9 10  1  0
 10 11  1  0
 11 12  2  0
 12 13  1  0
 13 14  2  0
 14 15  1  0
 11 16  1  0
 15 16  2  0
  8 17  1  0
 16 17  1  0
  2 18  1  0
 18 19  1  0
 19 20  2  0
 20 21  1  0
 21 22  2  0
 22 23  1  0
 19 24  1  0
 23 24  2  0
M  END
