pyridine_urea_14343
     RDKit          3D

 21 22  0  0  0  0  0  0  0  0999 V2000
    9.0770   -0.3700   27.0280 C   0  0  0  0  0  0  0  0  0  0  0  0
    9.3890    0.3380   25.8280 O   0  0  0  0  0  0  0  0  0  0  0  0
    9.8430   -0.4470   24.8130 C   0  0  0  0  0  0  0  0  0  0  0  0
    9.6370   -1.6520   24.7820 O   0  0  0  0  0  0  0  0  0  0  0  0
   10.5470    0.2370   23.8130 C   0  0  1  0  0  0  0  0  0  0  0  0
    9.9580    1.5150   23.6320 O   0  0  0  0  0  0  0  0  0  0  0  0
   11.8560    0.6010   24.1300 C   0  0  0  0  0  0  0  0  0  0  0  0
   12.7220    0.4110   23.0440 C   0  0  0  0  0  0  0  0  0  0  0  0
   12.8560   -0.9550   22.4460 C   0  0  0  0  0  0  0  0  0  0  0  0
   11.4460   -1.4740   22.2540 C   0  0  0  0  0  0  0  0  0  0  0  0
   10.4700   -0.3400   22.5490 C   0  0  1  0  0  0  0  0  0  0  0  0
    9.0970   -0.7500   22.3710 N   0  0  0  0  0  0  0  0  0  0  0  0
    8.3950    0.0490   21.4950 C   0  0  0  0  0  0  0  0  0  0  0  0
    8.7370    1.1760   21.0780 O   0  0  0  0  0  0  0  0  0  0  0  0
    7.2120   -0.4920   21.0610 N   0  0  0  0  0  0  0  0  0  0  0  0
    6.5020    0.0980   20.0220 C   0  0  0  0  0  0  0  0  0  0  0  0
    5.3350    0.8080   20.3060 C   0  0  0  0  0  0  0  0  0  0  0  0
    4.6540    1.4090   19.2640 C   0  0  0  0  0  0  0  0  0  0  0  0
    5.1450    1.2910   17.9840 C   0  0  0  0  0  0  0  0  0  0  0  0
    6.2530    0.6080   17.6910 N   0  0  0  0  0  0  0  0  0  0  0  0
    6.9050    0.0290   18.7120 C   0  0  0  0  0  0  0  0  0  0  0  0
  1  2  1  0
  2  3  1  0
  3  4  2  0
  3  5  1  0
  5  6  1  6
  5  7  1  0
  7  8  1  0
  8  9  1  0
  9 10  1  0
  5 11  1  0
 10 11  1  0
 11 12  1  1
 12 13  1  0
 13 14  2  0
 13 15  1  0
 15 16  1  0
 16 17  2  0
 17 18  1  0
 18 19  2  0
 19 20  1  0
 16 21  1  0
 20 21  2  0
M  END
