pyridine_urea_10158
     RDKit          3D

 23 25  0  0  0  0  0  0  0  0999 V2000
    8.8920    1.0500   21.6160 O   0  0  0  0  0  0  0  0  0  0  0  0
    8.6620   -0.1290   21.4160 C   0  0  0  0  0  0  0  0  0  0  0  0
    9.6210   -1.1300   21.5220 N   0  0  0  0  0  0  0  0  0  0  0  0
   10.6450   -1.2800   22.5040 C   0  0  0  0  0  0  0  0  0  0  0  0
   11.8390   -0.5190   22.5530 C   0  0  1  0  0  0  0  0  0  0  0  0
   11.5980    0.8830   22.5950 C   0  0  0  0  0  0  0  0  0  0  0  0
   11.3060    1.2390   23.8520 C   0  0  0  0  0  0  0  0  0  0  0  0
   10.7890    0.1090   24.3580 C   0  0  2  0  0  0  0  0  0  0  0  0
    9.4200    0.1430   25.0490 C   0  0  0  0  0  0  0  0  0  0  0  0
    8.2100    0.4950   24.4360 C   0  0  0  0  0  0  0  0  0  0  0  0
    7.0020    0.4720   25.1570 C   0  0  0  0  0  0  0  0  0  0  0  0
    6.9710    0.0980   26.5030 C   0  0  0  0  0  0  0  0  0  0  0  0
    8.1660   -0.2500   27.1240 C   0  0  0  0  0  0  0  0  0  0  0  0
    9.4430   -0.2280   26.3820 C   0  0  0  0  0  0  0  0  0  0  0  0
   11.9750   -0.6660   24.7900 C   0  0  0  0  0  0  0  0  0  0  0  0
   12.6520   -0.9240   23.6130 C   0  0  0  0  0  0  0  0  0  0  0  0
    7.4300   -0.6240   21.0190 N   0  0  0  0  0  0  0  0  0  0  0  0
    6.5870    0.0310   20.0960 C   0  0  0  0  0  0  0  0  0  0  0  0
    5.4220    0.7400   20.3920 C   0  0  0  0  0  0  0  0  0  0  0  0
    4.6950    1.3540   19.3650 C   0  0  0  0  0  0  0  0  0  0  0  0
    5.1560    1.2400   18.0700 C   0  0  0  0  0  0  0  0  0  0  0  0
    6.2630    0.5620   17.7410 N   0  0  0  0  0  0  0  0  0  0  0  0
    6.9260   -0.0110   18.7610 C   0  0  0  0  0  0  0  0  0  0  0  0
  1  2  2  0
  2  3  1  0
  3  4  1  0
  5  4  1  1
  5  6  1  0
  6  7  1  0
  7  8  1  0
  8  9  1  1
  9 10  2  0
 10 11  1  0
 11 12  2  0
 12 13  1  0
  9 14  1  0
 13 14  2  0
  8 15  1  0
  5 16  1  0
 15 16  1  0
  2 17  1  0
 17 18  1  0
 18 19  2  0
 19 20  1  0
 20 21  2  0
 21 22  1  0
 18 23  1  0
 22 23  2  0
M  END
