pyridine_urea_1992
     RDKit          3D

 25 27  0  0  0  0  0  0  0  0999 V2000
    9.0500   -0.3690   21.2950 O   0  0  0  0  0  0  0  0  0  0  0  0
    8.0320    0.2830   21.3100 C   0  0  0  0  0  0  0  0  0  0  0  0
    7.9150    1.6420   21.5810 N   0  0  0  0  0  0  0  0  0  0  0  0
    8.9320    2.3730   22.1880 C   0  0  0  0  0  0  0  0  0  0  0  0
    9.7930    1.2970   22.7100 C   0  0  0  0  0  0  0  0  0  0  0  0
   11.2600    1.2900   22.9240 C   0  0  0  0  0  0  0  0  0  0  0  0
   11.5460    0.0530   23.3840 N   0  0  0  0  0  0  0  0  0  0  0  0
   12.7030   -0.5640   23.7740 C   0  0  0  0  0  0  0  0  0  0  0  0
   12.5960   -1.8550   24.2100 C   0  0  0  0  0  0  0  0  0  0  0  0
   13.5310   -2.6730   24.6550 C   0  0  0  0  0  0  0  0  0  0  0  0
   14.3160   -2.2730   25.6580 F   0  0  0  0  0  0  0  0  0  0  0  0
   12.8750   -3.6330   25.2350 F   0  0  0  0  0  0  0  0  0  0  0  0
   14.1880   -3.1440   23.5970 F   0  0  0  0  0  0  0  0  0  0  0  0
   11.2490   -2.5760   24.2010 C   0  0  0  0  0  0  0  0  0  0  0  0
   10.1580   -1.8960   23.7880 C   0  0  0  0  0  0  0  0  0  0  0  0
    8.4340   -2.7750   23.7030 Br  0  0  0  0  0  0  0  0  0  0  0  0
   10.2760   -0.6000   23.4050 C   0  0  0  0  0  0  0  0  0  0  0  0
    9.2500    0.1450   23.0260 N   0  0  0  0  0  0  0  0  0  0  0  0
    6.8900   -0.3140   20.9720 N   0  0  0  0  0  0  0  0  0  0  0  0
    6.2670    0.2460   19.8460 C   0  0  0  0  0  0  0  0  0  0  0  0
    5.0700    0.8970   20.2220 C   0  0  0  0  0  0  0  0  0  0  0  0
    4.4520    1.5440   18.9850 C   0  0  0  0  0  0  0  0  0  0  0  0
    5.0770    1.4250   17.7630 C   0  0  0  0  0  0  0  0  0  0  0  0
    6.2070    0.7590   17.5460 N   0  0  0  0  0  0  0  0  0  0  0  0
    6.7690    0.1920   18.5900 C   0  0  0  0  0  0  0  0  0  0  0  0
  1  2  2  0
  2  3  1  0
  3  4  1  0
  4  5  1  0
  5  6  2  0
  6  7  1  0
  7  8  1  0
  8  9  2  0
  9 10  1  0
 10 11  1  0
 10 12  1  0
 10 13  1  0
  9 14  1  0
 14 15  2  0
 15 16  1  0
  7 17  1  0
 15 17  1  0
  5 18  1  0
 17 18  2  0
  2 19  1  0
 19 20  1  0
 20 21  2  0
 21 22  1  0
 22 23  2  0
 23 24  1  0
 20 25  1  0
 24 25  2  0
M  END
