pyridine_urea_2189
     RDKit          3D

 28 30  0  0  0  0  0  0  0  0999 V2000
    8.7090   -3.2260   23.1200 C   0  0  0  0  0  0  0  0  0  0  0  0
    9.7580   -2.8650   24.0280 O   0  0  0  0  0  0  0  0  0  0  0  0
   10.5610   -1.8010   23.6440 C   0  0  0  0  0  0  0  0  0  0  0  0
   11.9850   -2.2140   23.2170 C   0  0  0  0  0  0  0  0  0  0  0  0
   12.7410   -1.0370   22.8420 C   0  0  0  0  0  0  0  0  0  0  0  0
   11.3380   -0.6210   23.1800 C   0  0  0  0  0  0  0  0  0  0  0  0
   10.3080   -1.3500   22.5300 C   0  0  0  0  0  0  0  0  0  0  0  0
    9.8980   -0.7340   21.3860 N   0  0  0  0  0  0  0  0  0  0  0  0
    8.7580    0.0500   21.4520 C   0  0  0  0  0  0  0  0  0  0  0  0
    8.7680    1.2190   21.7890 O   0  0  0  0  0  0  0  0  0  0  0  0
    7.5700   -0.5400   21.0420 N   0  0  0  0  0  0  0  0  0  0  0  0
    6.7320    0.0430   20.0690 C   0  0  0  0  0  0  0  0  0  0  0  0
    5.5880    0.7500   20.4690 C   0  0  0  0  0  0  0  0  0  0  0  0
    4.8030    1.3260   19.4860 C   0  0  0  0  0  0  0  0  0  0  0  0
    5.1500    1.2000   18.1530 C   0  0  0  0  0  0  0  0  0  0  0  0
    6.2220    0.5310   17.7320 N   0  0  0  0  0  0  0  0  0  0  0  0
    6.9890   -0.0350   18.7050 C   0  0  0  0  0  0  0  0  0  0  0  0
   12.4900    0.3750   22.7730 C   0  0  0  0  0  0  0  0  0  0  0  0
   11.1810    0.6790   23.1640 C   0  0  0  0  0  0  0  0  0  0  0  0
   10.9390    2.0950   23.0820 O   0  0  0  0  0  0  0  0  0  0  0  0
   11.9830    2.9440   22.7970 C   0  0  0  0  0  0  0  0  0  0  0  0
    9.9290   -0.2340   23.6820 C   0  0  0  0  0  0  0  0  0  0  0  0
    8.9770   -1.1520   24.1020 O   0  0  0  0  0  0  0  0  0  0  0  0
    7.6550   -0.6780   24.3870 C   0  0  0  0  0  0  0  0  0  0  0  0
    6.8710   -1.8250   25.0580 C   0  0  0  0  0  0  0  0  0  0  0  0
    5.3940   -1.8990   24.7380 C   0  0  0  0  0  0  0  0  0  0  0  0
    5.0240   -1.6950   25.9890 C   0  0  0  0  0  0  0  0  0  0  0  0
    6.3000   -1.5820   26.5530 C   0  0  0  0  0  0  0  0  0  0  0  0
  1  2  1  0
  2  3  1  0
  3  4  2  0
  4  5  1  0
  5  6  1  0
  6  7  1  0
  7  8  1  0
  8  9  1  0
  9 10  2  0
  9 11  1  0
 11 12  1  0
 12 13  2  0
 13 14  1  0
 14 15  2  0
 15 16  1  0
 12 17  1  0
 16 17  2  0
  5 18  2  0
 18 19  1  0
 19 20  1  0
 20 21  1  0
  3 22  1  0
 19 22  2  0
 22 23  1  0
 23 24  1  0
 24 25  1  0
 25 26  1  0
 26 27  1  0
 25 28  1  0
 27 28  1  0
M  END
