pyridine_urea_2188
     RDKit          3D

 26 28  0  0  0  0  0  0  0  0999 V2000
    7.0960    1.1480   24.5930 C   0  0  0  0  0  0  0  0  0  0  0  0
    7.7220    0.5770   23.3040 C   0  0  0  0  0  0  0  0  0  0  0  0
    9.1540    1.1400   23.2050 C   0  0  0  0  0  0  0  0  0  0  0  0
    9.4590    2.6380   23.1890 N   0  0  0  0  0  0  0  0  0  0  0  0
   10.8930    2.6760   23.1110 N   0  0  0  0  0  0  0  0  0  0  0  0
   11.5290    3.9310   23.0750 C   0  0  0  0  0  0  0  0  0  0  0  0
   11.2900    4.9120   24.1940 C   0  0  0  0  0  0  0  0  0  0  0  0
   11.8580    6.1680   24.2260 C   0  0  0  0  0  0  0  0  0  0  0  0
   12.6870    6.5240   23.1670 C   0  0  0  0  0  0  0  0  0  0  0  0
   12.9440    5.6460   22.1050 C   0  0  0  0  0  0  0  0  0  0  0  0
   12.3780    4.3740   22.0530 C   0  0  0  0  0  0  0  0  0  0  0  0
   11.5890    1.4190   23.0820 C   0  0  0  0  0  0  0  0  0  0  0  0
   12.8400    0.7530   23.0500 C   0  0  0  0  0  0  0  0  0  0  0  0
   12.8430   -0.4940   22.3810 C   0  0  0  0  0  0  0  0  0  0  0  0
   10.4990    0.3870   23.1110 C   0  0  0  0  0  0  0  0  0  0  0  0
    9.9130   -0.8680   23.1140 C   0  0  0  0  0  0  0  0  0  0  0  0
    9.1750   -1.2760   22.0550 N   0  0  0  0  0  0  0  0  0  0  0  0
    8.3860   -0.3750   21.4260 C   0  0  0  0  0  0  0  0  0  0  0  0
    8.7550    0.7520   21.1290 O   0  0  0  0  0  0  0  0  0  0  0  0
    7.1560   -0.8700   21.1790 N   0  0  0  0  0  0  0  0  0  0  0  0
    6.4520   -0.1040   20.1270 C   0  0  0  0  0  0  0  0  0  0  0  0
    5.2980    0.5770   20.4830 C   0  0  0  0  0  0  0  0  0  0  0  0
    4.6030    1.3720   19.3710 C   0  0  0  0  0  0  0  0  0  0  0  0
    5.2060    1.3660   17.9800 C   0  0  0  0  0  0  0  0  0  0  0  0
    6.3220    0.6930   17.6590 N   0  0  0  0  0  0  0  0  0  0  0  0
    6.9060    0.0020   18.6650 C   0  0  0  0  0  0  0  0  0  0  0  0
  1  2  1  0
  2  3  1  0
  3  4  2  0
  4  5  1  0
  5  6  1  0
  6  7  2  0
  7  8  1  0
  8  9  2  0
  9 10  1  0
  6 11  1  0
 10 11  2  0
  5 12  1  0
 12 13  1  0
 13 14  1  0
  3 15  1  0
 12 15  2  0
 15 16  1  0
 16 17  1  0
 17 18  1  0
 18 19  2  0
 18 20  1  0
 20 21  1  0
 21 22  2  0
 22 23  1  0
 23 24  2  0
 24 25  1  0
 21 26  1  0
 25 26  2  0
M  END
