pyridine_urea_5955
     RDKit          3D

 26 28  0  0  0  0  0  0  0  0999 V2000
   11.0440   -0.3840   24.4890 C   0  0  0  0  0  0  0  0  0  0  0  0
   10.7060   -0.4160   23.0050 C   0  0  2  0  0  0  0  0  0  0  0  0
    9.2600   -0.1560   22.7440 N   0  0  0  0  0  0  0  0  0  0  0  0
    8.7400    0.5260   21.6410 C   0  0  0  0  0  0  0  0  0  0  0  0
    9.1880    1.5910   21.2370 O   0  0  0  0  0  0  0  0  0  0  0  0
    7.6600   -0.1370   21.1000 N   0  0  0  0  0  0  0  0  0  0  0  0
    6.7750    0.3480   20.0270 C   0  0  0  0  0  0  0  0  0  0  0  0
    5.6860    1.1320   20.4030 C   0  0  0  0  0  0  0  0  0  0  0  0
    4.7680    1.6750   19.3790 C   0  0  0  0  0  0  0  0  0  0  0  0
    5.1490    1.2880   17.9770 C   0  0  0  0  0  0  0  0  0  0  0  0
    6.2050    0.5160   17.6660 N   0  0  0  0  0  0  0  0  0  0  0  0
    6.9820    0.0690   18.6880 C   0  0  0  0  0  0  0  0  0  0  0  0
   10.9460   -1.7900   22.4250 C   0  0  0  0  0  0  0  0  0  0  0  0
   12.2150   -1.2710   22.3610 C   0  0  0  0  0  0  0  0  0  0  0  0
   12.2250    0.0040   22.8830 C   0  0  0  0  0  0  0  0  0  0  0  0
   13.3470    0.7200   22.9320 F   0  0  0  0  0  0  0  0  0  0  0  0
   10.9920    0.5210   23.3650 C   0  0  0  0  0  0  0  0  0  0  0  0
    9.7250   -0.2200   23.3390 C   0  0  0  0  0  0  0  0  0  0  0  0
    9.6580   -1.5440   22.8070 C   0  0  0  0  0  0  0  0  0  0  0  0
    8.5770   -2.4040   22.6930 N   0  0  0  0  0  0  0  0  0  0  0  0
    7.3110   -1.9150   22.5590 C   0  0  0  0  0  0  0  0  0  0  0  0
    6.3140   -2.6260   23.2440 C   0  0  0  0  0  0  0  0  0  0  0  0
    6.3370   -3.9750   23.1630 N   0  0  0  0  0  0  0  0  0  0  0  0
    5.4640   -4.5350   22.2890 C   0  0  0  0  0  0  0  0  0  0  0  0
    7.6070   -4.4340   23.0990 C   0  0  0  0  0  0  0  0  0  0  0  0
    8.5320   -3.4700   23.5780 C   0  0  0  0  0  0  0  0  0  0  0  0
  2  1  1  1
  2  3  1  0
  3  4  1  0
  4  5  2  0
  4  6  1  0
  6  7  1  0
  7  8  2  0
  8  9  1  0
  9 10  2  0
 10 11  1  0
  7 12  1  0
 11 12  2  0
  2 13  1  0
 13 14  2  0
 14 15  1  0
 15 16  1  0
 15 17  2  0
 17 18  1  0
 13 19  1  0
 18 19  2  0
 19 20  1  0
 20 21  1  0
 21 22  1  0
 22 23  1  0
 23 24  1  0
 23 25  1  0
 20 26  1  0
 25 26  1  0
M  END
