pyridine_urea_10720
     RDKit          3D

 20 22  0  0  0  0  0  0  0  0999 V2000
    8.7380    0.8130   21.1390 O   0  0  0  0  0  0  0  0  0  0  0  0
    8.4720   -0.2920   21.6020 C   0  0  0  0  0  0  0  0  0  0  0  0
    7.2460   -0.9450   21.1310 N   0  0  0  0  0  0  0  0  0  0  0  0
    6.5440   -0.2270   20.1390 C   0  0  0  0  0  0  0  0  0  0  0  0
    5.3660    0.4740   20.4390 C   0  0  0  0  0  0  0  0  0  0  0  0
    4.7130    1.1790   19.4140 C   0  0  0  0  0  0  0  0  0  0  0  0
    5.2510    1.1680   18.1250 C   0  0  0  0  0  0  0  0  0  0  0  0
    6.3750    0.5010   17.8220 N   0  0  0  0  0  0  0  0  0  0  0  0
    6.9930   -0.1820   18.8290 C   0  0  0  0  0  0  0  0  0  0  0  0
    9.2690   -0.9820   22.5810 N   0  0  0  0  0  0  0  0  0  0  0  0
   10.5710   -0.2850   22.7920 C   0  0  0  0  0  0  0  0  0  0  0  0
    9.2760    0.4180   23.1920 C   0  0  0  0  0  0  0  0  0  0  0  0
    8.5880   -0.6470   22.9030 N   0  0  0  0  0  0  0  0  0  0  0  0
    9.6630   -1.4450   22.4960 C   0  0  0  0  0  0  0  0  0  0  0  0
    9.9870   -0.0640   22.9020 C   0  0  0  0  0  0  0  0  0  0  0  0
   11.0540    0.9290   23.0600 C   0  0  0  0  0  0  0  0  0  0  0  0
   12.6120    1.8950   23.1300 Br  0  0  0  0  0  0  0  0  0  0  0  0
   12.1990    0.2050   22.7010 C   0  0  0  0  0  0  0  0  0  0  0  0
   12.2390   -1.0470   22.3090 C   0  0  0  0  0  0  0  0  0  0  0  0
   11.0160   -1.5500   22.2910 C   0  0  0  0  0  0  0  0  0  0  0  0
  1  2  2  0
  2  3  1  0
  3  4  1  0
  4  5  2  0
  5  6  1  0
  6  7  2  0
  7  8  1  0
  4  9  1  0
  8  9  2  0
  2 10  1  0
 10 11  1  0
 11 12  2  0
 12 13  1  0
 13 14  1  0
 14 15  1  0
 15 16  2  0
 16 17  1  0
 16 18  1  0
 18 19  2  0
 11 20  1  0
 14 20  2  0
 19 20  1  0
M  END
