pyridine_urea_8821
     RDKit          3D

 20 22  0  0  0  0  0  0  0  0999 V2000
    8.7410    1.6260   21.0250 O   0  0  0  0  0  0  0  0  0  0  0  0
    8.7470    0.4620   21.4080 C   0  0  0  0  0  0  0  0  0  0  0  0
    7.6770   -0.3570   21.0640 N   0  0  0  0  0  0  0  0  0  0  0  0
    6.8650    0.0980   19.9440 C   0  0  0  0  0  0  0  0  0  0  0  0
    5.5260    0.7800   20.3120 C   0  0  0  0  0  0  0  0  0  0  0  0
    4.6780    1.2730   19.3160 C   0  0  0  0  0  0  0  0  0  0  0  0
    5.0670    1.1300   17.9930 C   0  0  0  0  0  0  0  0  0  0  0  0
    6.2610    0.5110   17.6970 N   0  0  0  0  0  0  0  0  0  0  0  0
    7.1740   -0.0110   18.6310 C   0  0  0  0  0  0  0  0  0  0  0  0
    9.7880   -0.1180   22.1740 N   0  0  0  0  0  0  0  0  0  0  0  0
   10.8650   -0.6250   22.9330 C   0  0  0  0  0  0  0  0  0  0  0  0
   10.9810   -1.1260   21.5920 C   0  0  0  0  0  0  0  0  0  0  0  0
    9.8980   -0.3850   21.4310 N   0  0  0  0  0  0  0  0  0  0  0  0
    9.7170    0.1240   22.6510 C   0  0  0  0  0  0  0  0  0  0  0  0
   10.7800   -0.5590   22.8980 C   0  0  0  0  0  0  0  0  0  0  0  0
   11.8560   -1.2510   23.1450 C   0  0  0  0  0  0  0  0  0  0  0  0
   12.3430   -1.2350   24.4270 C   0  0  0  0  0  0  0  0  0  0  0  0
   13.8320   -2.1510   25.1600 Br  0  0  0  0  0  0  0  0  0  0  0  0
   11.3620   -0.3480   24.9960 C   0  0  0  0  0  0  0  0  0  0  0  0
   10.2710    0.1330   23.9840 C   0  0  0  0  0  0  0  0  0  0  0  0
  1  2  2  0
  2  3  1  0
  3  4  1  0
  4  5  2  0
  5  6  1  0
  6  7  2  0
  7  8  1  0
  4  9  1  0
  8  9  2  0
  2 10  1  0
 10 11  1  0
 11 12  2  0
 12 13  1  0
 13 14  1  0
 14 15  1  0
 15 16  2  0
 16 17  1  0
 17 18  1  0
 17 19  2  0
 11 20  1  0
 14 20  2  0
 19 20  1  0
M  END
