pyridine_urea_2214
     RDKit          3D

 27 29  0  0  0  0  0  0  0  0999 V2000
    9.4510    5.7940   22.8680 C   0  0  0  0  0  0  0  0  0  0  0  0
   10.8200    5.0810   22.7680 C   0  0  0  0  0  0  0  0  0  0  0  0
   10.8940    3.5560   22.5610 C   0  0  0  0  0  0  0  0  0  0  0  0
   12.2770    2.8840   22.4710 C   0  0  0  0  0  0  0  0  0  0  0  0
   12.4170    1.6370   22.3240 O   0  0  0  0  0  0  0  0  0  0  0  0
   11.2480    1.1950   22.7120 C   0  0  0  0  0  0  0  0  0  0  0  0
   10.6230    2.2870   23.2060 C   0  0  0  0  0  0  0  0  0  0  0  0
    9.3380    2.2640   23.7350 C   0  0  0  0  0  0  0  0  0  0  0  0
    8.5410    3.6230   24.3690 Cl  0  0  0  0  0  0  0  0  0  0  0  0
    8.7130    1.0370   23.7310 C   0  0  0  0  0  0  0  0  0  0  0  0
    9.2450   -0.1170   23.2520 C   0  0  0  0  0  0  0  0  0  0  0  0
   10.4960   -0.1540   22.7130 C   0  0  0  0  0  0  0  0  0  0  0  0
   10.8410   -1.3850   22.2500 C   0  0  0  0  0  0  0  0  0  0  0  0
    9.5830   -1.6750   21.5530 N   0  0  0  0  0  0  0  0  0  0  0  0
    8.6940   -0.6160   21.2870 C   0  0  0  0  0  0  0  0  0  0  0  0
    9.0990    0.7530   21.3040 O   0  0  0  0  0  0  0  0  0  0  0  0
    7.3990   -0.9760   20.9810 N   0  0  0  0  0  0  0  0  0  0  0  0
    6.6590   -0.2570   20.0500 C   0  0  0  0  0  0  0  0  0  0  0  0
    5.5210    0.4470   20.3850 C   0  0  0  0  0  0  0  0  0  0  0  0
    4.7400    1.1990   19.5000 C   0  0  0  0  0  0  0  0  0  0  0  0
    5.1690    1.2230   18.1700 C   0  0  0  0  0  0  0  0  0  0  0  0
    6.2740    0.5460   17.7840 N   0  0  0  0  0  0  0  0  0  0  0  0
    6.9650   -0.1560   18.7190 C   0  0  0  0  0  0  0  0  0  0  0  0
   13.4830    3.7790   22.5700 C   0  0  0  0  0  0  0  0  0  0  0  0
   13.3610    5.2860   22.7720 C   0  0  0  0  0  0  0  0  0  0  0  0
   12.1250    5.8930   22.8740 C   0  0  0  0  0  0  0  0  0  0  0  0
   12.0770    7.2190   23.0740 F   0  0  0  0  0  0  0  0  0  0  0  0
  1  2  1  0
  2  3  2  0
  3  4  1  0
  4  5  1  0
  5  6  1  0
  6  7  2  0
  7  8  1  0
  8  9  1  0
  8 10  2  0
 10 11  1  0
  6 12  1  0
 11 12  2  0
 12 13  1  0
 13 14  1  0
 14 15  1  0
 15 16  2  0
 15 17  1  0
 17 18  1  0
 18 19  2  0
 19 20  1  0
 20 21  2  0
 21 22  1  0
 18 23  1  0
 22 23  2  0
  4 24  2  0
 24 25  1  0
  2 26  1  0
 25 26  2  0
 26 27  1  0
M  END
