pyridine_urea_11611
     RDKit          3D

 20 22  0  0  0  0  0  0  0  0999 V2000
    8.9030    0.9250   21.5780 O   0  0  0  0  0  0  0  0  0  0  0  0
    8.6410   -0.2550   21.3870 C   0  0  0  0  0  0  0  0  0  0  0  0
    9.5280   -1.3080   21.4710 N   0  0  0  0  0  0  0  0  0  0  0  0
   10.4800   -1.5980   22.4820 C   0  0  0  0  0  0  0  0  0  0  0  0
   11.7790   -1.0590   22.3780 C   0  0  2  0  0  0  0  0  0  0  0  0
   12.6420   -1.1000   23.3420 C   0  0  0  0  0  0  0  0  0  0  0  0
   12.2860    0.1430   23.4070 C   0  0  2  0  0  0  0  0  0  0  0  0
   11.1310    0.5190   24.0700 C   0  0  0  0  0  0  0  0  0  0  0  0
   10.6360   -0.3240   25.0830 C   0  0  0  0  0  0  0  0  0  0  0  0
    9.3650    0.0090   25.8090 C   0  0  0  0  0  0  0  0  0  0  0  0
    8.8180    1.1390   25.3760 C   0  0  0  0  0  0  0  0  0  0  0  0
    9.4060    1.8630   24.3950 N   0  0  0  0  0  0  0  0  0  0  0  0
   10.5890    1.7450   23.5790 C   0  0  0  0  0  0  0  0  0  0  0  0
    7.3660   -0.6450   21.0080 N   0  0  0  0  0  0  0  0  0  0  0  0
    6.5720    0.0030   20.1070 C   0  0  0  0  0  0  0  0  0  0  0  0
    5.3910    0.6920   20.4150 C   0  0  0  0  0  0  0  0  0  0  0  0
    4.6370    1.3420   19.4340 C   0  0  0  0  0  0  0  0  0  0  0  0
    5.2140    1.2270   18.0520 C   0  0  0  0  0  0  0  0  0  0  0  0
    6.3360    0.5620   17.7650 N   0  0  0  0  0  0  0  0  0  0  0  0
    6.9700   -0.0220   18.7860 C   0  0  0  0  0  0  0  0  0  0  0  0
  1  2  2  0
  2  3  1  0
  3  4  1  0
  5  4  1  1
  5  6  1  0
  5  7  1  0
  6  7  1  0
  7  8  1  1
  8  9  2  0
  9 10  1  0
 10 11  2  0
 11 12  1  0
  8 13  1  0
 12 13  2  0
  2 14  1  0
 14 15  1  0
 15 16  2  0
 16 17  1  0
 17 18  2  0
 18 19  1  0
 15 20  1  0
 19 20  2  0
M  END
