pyridine_urea_1115
     RDKit          3D

 21 22  0  0  0  0  0  0  0  0999 V2000
    9.0680    0.6130   21.2870 O   0  0  0  0  0  0  0  0  0  0  0  0
    8.5030   -0.4270   21.5860 C   0  0  0  0  0  0  0  0  0  0  0  0
    9.0570   -1.4180   22.5430 N   0  0  0  0  0  0  0  0  0  0  0  0
   10.4250   -1.8320   22.6120 C   0  0  0  0  0  0  0  0  0  0  0  0
   11.4550   -0.8800   22.6190 C   0  0  0  0  0  0  0  0  0  0  0  0
   10.1860   -0.3380   22.8310 C   0  0  0  0  0  0  0  0  0  0  0  0
    9.9390    0.9540   23.0000 C   0  0  0  0  0  0  0  0  0  0  0  0
   10.4600    2.2600   23.0770 C   0  0  0  0  0  0  0  0  0  0  0  0
   11.8860    1.9130   22.8830 C   0  0  0  0  0  0  0  0  0  0  0  0
   12.6380    3.1520   22.9300 N   0  0  0  0  0  0  0  0  0  0  0  0
   11.8810    4.3130   23.1150 O   0  0  0  0  0  0  0  0  0  0  0  0
   13.7720    3.1490   22.5020 O   0  0  0  0  0  0  0  0  0  0  0  0
   12.2480    0.3760   22.6820 C   0  0  0  0  0  0  0  0  0  0  0  0
   13.5490    0.1380   22.5280 F   0  0  0  0  0  0  0  0  0  0  0  0
    7.2670   -0.7820   21.0900 N   0  0  0  0  0  0  0  0  0  0  0  0
    6.5560   -0.1080   20.0740 C   0  0  0  0  0  0  0  0  0  0  0  0
    5.3900    0.6100   20.4050 C   0  0  0  0  0  0  0  0  0  0  0  0
    4.7090    1.2810   19.3880 C   0  0  0  0  0  0  0  0  0  0  0  0
    5.1990    1.2160   18.1110 C   0  0  0  0  0  0  0  0  0  0  0  0
    6.2960    0.5440   17.7510 N   0  0  0  0  0  0  0  0  0  0  0  0
    6.9480   -0.1050   18.7460 C   0  0  0  0  0  0  0  0  0  0  0  0
  1  2  2  0
  2  3  1  0
  3  4  1  0
  4  5  1  0
  5  6  2  0
  6  7  1  0
  7  8  2  0
  8  9  1  0
  9 10  1  0
 10 11  2  0
 10 12  1  0
  5 13  1  0
  9 13  2  0
 13 14  1  0
  2 15  1  0
 15 16  1  0
 16 17  2  0
 17 18  1  0
 18 19  2  0
 19 20  1  0
 16 21  1  0
 20 21  2  0
M  CHG  2  10   1  12  -1
M  END
