pyridine_urea_9164
     RDKit          3D

 18 20  0  0  0  0  0  0  0  0999 V2000
    8.3020    1.5540   20.7930 O   0  0  0  0  0  0  0  0  0  0  0  0
    8.2710    0.5160   21.4300 C   0  0  0  0  0  0  0  0  0  0  0  0
    7.3110   -0.4170   21.1620 N   0  0  0  0  0  0  0  0  0  0  0  0
    6.6120    0.0530   20.0070 C   0  0  0  0  0  0  0  0  0  0  0  0
    5.3520    0.8890   20.2920 C   0  0  0  0  0  0  0  0  0  0  0  0
    4.6200    1.4260   19.2420 C   0  0  0  0  0  0  0  0  0  0  0  0
    5.0770    1.1780   17.9540 C   0  0  0  0  0  0  0  0  0  0  0  0
    6.1940    0.4180   17.7420 N   0  0  0  0  0  0  0  0  0  0  0  0
    6.9780   -0.1580   18.7400 C   0  0  0  0  0  0  0  0  0  0  0  0
    9.1840    0.2620   22.3790 N   0  0  0  0  0  0  0  0  0  0  0  0
   10.2460    0.2410   23.1680 C   0  0  2  0  0  0  0  0  0  0  0  0
   11.3160   -0.2800   22.6070 C   0  0  0  0  0  0  0  0  0  0  0  0
   11.4930   -0.8490   23.7800 C   0  0  0  0  0  0  0  0  0  0  0  0
   12.7880   -0.6520   24.2740 C   0  0  0  0  0  0  0  0  0  0  0  0
   13.2830   -1.7280   23.7140 C   0  0  2  0  0  0  0  0  0  0  0  0
   13.7060   -1.5040   22.5950 O   0  0  0  0  0  0  0  0  0  0  0  0
   11.9870   -2.3330   23.8650 C   0  0  0  0  0  0  0  0  0  0  0  0
   10.3110   -0.3870   24.4430 C   0  0  0  0  0  0  0  0  0  0  0  0
  1  2  2  0
  2  3  1  0
  3  4  1  0
  4  5  2  0
  5  6  1  0
  6  7  2  0
  7  8  1  0
  4  9  1  0
  8  9  2  0
  2 10  1  0
 11 10  1  6
 11 12  1  0
 13 12  1  0
 13 14  1  0
 14 15  1  0
 15 16  1  6
 13 17  1  0
 15 17  1  0
 11 18  1  0
 13 18  1  0
M  END
