pyridine_urea_7308
     RDKit          3D

 18 19  0  0  0  0  0  0  0  0999 V2000
    8.7570    0.4700   21.3450 O   0  0  0  0  0  0  0  0  0  0  0  0
    8.0940   -0.5080   21.6710 C   0  0  0  0  0  0  0  0  0  0  0  0
    8.4590   -1.5000   22.5670 N   0  0  0  0  0  0  0  0  0  0  0  0
    9.7620   -1.7710   23.0250 C   0  0  0  0  0  0  0  0  0  0  0  0
   10.6710   -0.8660   22.5700 C   0  0  0  0  0  0  0  0  0  0  0  0
   10.3390   -0.8820   21.2760 F   0  0  0  0  0  0  0  0  0  0  0  0
   10.3550    0.4200   22.9640 C   0  0  0  0  0  0  0  0  0  0  0  0
   10.8850    0.5380   24.1910 C   0  0  0  0  0  0  0  0  0  0  0  0
   12.2530    0.6300   24.1530 C   0  0  0  0  0  0  0  0  0  0  0  0
   12.8760   -0.0530   23.1230 C   0  0  0  0  0  0  0  0  0  0  0  0
   12.0300   -1.1870   22.5900 C   0  0  0  0  0  0  0  0  0  0  0  0
    6.8440   -0.7630   21.1820 N   0  0  0  0  0  0  0  0  0  0  0  0
    6.2950   -0.0640   20.1060 C   0  0  0  0  0  0  0  0  0  0  0  0
    5.1050    0.6680   20.2350 C   0  0  0  0  0  0  0  0  0  0  0  0
    4.5710    1.3730   19.1550 C   0  0  0  0  0  0  0  0  0  0  0  0
    5.2320    1.3450   17.9390 C   0  0  0  0  0  0  0  0  0  0  0  0
    6.3620    0.6870   17.6900 N   0  0  0  0  0  0  0  0  0  0  0  0
    6.8960   -0.0020   18.7100 C   0  0  0  0  0  0  0  0  0  0  0  0
  1  2  2  0
  2  3  1  0
  3  4  1  0
  4  5  1  0
  5  6  1  0
  5  7  1  0
  7  8  1  0
  8  9  1  0
  9 10  1  0
  5 11  1  0
 10 11  1  0
  2 12  1  0
 12 13  1  0
 13 14  2  0
 14 15  1  0
 15 16  2  0
 16 17  1  0
 13 18  1  0
 17 18  2  0
M  END
