pyridine_urea_13700
     RDKit          3D

 25 27  0  0  0  0  0  0  0  0999 V2000
   12.2820   -1.8210   21.9970 C   0  0  0  0  0  0  0  0  0  0  0  0
   11.5010   -1.0970   22.9620 O   0  0  0  0  0  0  0  0  0  0  0  0
   11.6780    0.2680   22.9730 C   0  0  0  0  0  0  0  0  0  0  0  0
   12.9850   -0.4960   22.8510 C   0  0  0  0  0  0  0  0  0  0  0  0
   12.5930    0.8640   22.9130 C   0  0  0  0  0  0  0  0  0  0  0  0
   11.0820    1.2750   23.0510 C   0  0  0  0  0  0  0  0  0  0  0  0
    9.7610    0.7360   23.1620 C   0  0  0  0  0  0  0  0  0  0  0  0
    9.5610   -0.6590   23.2010 C   0  0  0  0  0  0  0  0  0  0  0  0
    8.1930   -0.9700   22.8990 N   0  0  0  0  0  0  0  0  0  0  0  0
    7.9030   -0.7760   21.5880 C   0  0  0  0  0  0  0  0  0  0  0  0
    8.7590   -0.5860   20.7880 O   0  0  0  0  0  0  0  0  0  0  0  0
    6.5810   -0.7940   21.2830 N   0  0  0  0  0  0  0  0  0  0  0  0
    6.1230   -0.0890   20.1680 C   0  0  0  0  0  0  0  0  0  0  0  0
    4.9670    0.6850   20.1980 C   0  0  0  0  0  0  0  0  0  0  0  0
    4.4890    1.4120   19.1010 C   0  0  0  0  0  0  0  0  0  0  0  0
    5.1950    1.3780   17.8830 C   0  0  0  0  0  0  0  0  0  0  0  0
    6.3160    0.6670   17.7310 N   0  0  0  0  0  0  0  0  0  0  0  0
    6.7730   -0.0320   18.7870 C   0  0  0  0  0  0  0  0  0  0  0  0
    9.2910    1.4250   21.8830 C   0  0  0  0  0  0  0  0  0  0  0  0
    9.6430    2.7480   22.1710 C   0  0  0  0  0  0  0  0  0  0  0  0
    8.5440    3.4530   22.6190 C   0  0  0  0  0  0  0  0  0  0  0  0
    7.7650    2.5670   23.3320 C   0  0  0  0  0  0  0  0  0  0  0  0
    8.6070    1.4490   23.9950 C   0  0  0  0  0  0  0  0  0  0  0  0
   11.4100    2.3880   23.0410 N   0  0  0  0  0  0  0  0  0  0  0  0
   12.5540    1.6030   22.9270 C   0  0  0  0  0  0  0  0  0  0  0  0
  1  2  1  0
  2  3  1  0
  3  4  2  0
  4  5  1  0
  5  6  2  0
  6  7  1  0
  7  8  1  0
  8  9  1  0
  9 10  1  0
 10 11  2  0
 10 12  1  0
 12 13  1  0
 13 14  2  0
 14 15  1  0
 15 16  2  0
 16 17  1  0
 13 18  1  0
 17 18  2  0
  7 19  1  0
 19 20  1  0
 20 21  1  0
 21 22  1  0
  7 23  1  0
 22 23  1  0
  6 24  1  0
  3 25  1  0
 24 25  2  0
M  END
