pyridine_urea_4174
     RDKit          3D

 25 27  0  0  0  0  0  0  0  0999 V2000
    8.9210    1.2140   21.1250 O   0  0  0  0  0  0  0  0  0  0  0  0
    8.4080    0.2360   21.6740 C   0  0  0  0  0  0  0  0  0  0  0  0
    8.7570   -0.2480   22.9230 N   0  0  0  0  0  0  0  0  0  0  0  0
    9.4820   -1.4130   23.2520 C   0  0  0  0  0  0  0  0  0  0  0  0
   10.8600   -1.3940   23.5100 C   0  0  0  0  0  0  0  0  0  0  0  0
   12.2330   -1.0910   23.6810 C   0  0  0  0  0  0  0  0  0  0  0  0
   12.8850    0.0730   23.4540 C   0  0  0  0  0  0  0  0  0  0  0  0
   12.3370    1.2070   23.0280 C   0  0  0  0  0  0  0  0  0  0  0  0
   11.0090    1.1060   22.8300 C   0  0  0  0  0  0  0  0  0  0  0  0
   10.1960    2.1500   22.4080 N   0  0  0  0  0  0  0  0  0  0  0  0
   10.1200    3.5000   23.0030 C   0  0  0  0  0  0  0  0  0  0  0  0
    8.8860    4.1440   23.3510 O   0  0  0  0  0  0  0  0  0  0  0  0
   11.1820    4.3180   23.3310 C   0  0  1  0  0  0  0  0  0  0  0  0
   12.1450    4.4680   22.3350 C   0  0  0  0  0  0  0  0  0  0  0  0
   12.4970    5.7870   22.3180 C   0  0  0  0  0  0  0  0  0  0  0  0
   11.4700    6.4350   22.9680 C   0  0  0  0  0  0  0  0  0  0  0  0
   10.6850    5.4390   23.4800 O   0  0  0  0  0  0  0  0  0  0  0  0
   10.3360   -0.1500   23.0630 C   0  0  0  0  0  0  0  0  0  0  0  0
    7.3720   -0.4580   21.0820 N   0  0  0  0  0  0  0  0  0  0  0  0
    6.6610    0.0630   20.0660 C   0  0  0  0  0  0  0  0  0  0  0  0
    5.3890    0.8610   20.3620 C   0  0  0  0  0  0  0  0  0  0  0  0
    4.6580    1.4220   19.3250 C   0  0  0  0  0  0  0  0  0  0  0  0
    5.1250    1.2280   18.0360 C   0  0  0  0  0  0  0  0  0  0  0  0
    6.2240    0.5320   17.7040 N   0  0  0  0  0  0  0  0  0  0  0  0
    6.9820   -0.0470   18.7310 C   0  0  0  0  0  0  0  0  0  0  0  0
  1  2  2  0
  2  3  1  0
  3  4  1  0
  4  5  1  0
  5  6  2  0
  6  7  1  0
  7  8  2  0
  8  9  1  0
  9 10  1  0
 10 11  1  0
 11 12  2  0
 13 11  1  6
 13 14  1  0
 14 15  1  0
 15 16  1  0
 13 17  1  0
 16 17  1  0
  5 18  1  0
  9 18  2  0
  2 19  1  0
 19 20  1  0
 20 21  2  0
 21 22  1  0
 22 23  2  0
 23 24  1  0
 20 25  1  0
 24 25  2  0
M  END
