pyridine_urea_5468
     RDKit          3D

 18 19  0  0  0  0  0  0  0  0999 V2000
    9.1780   -5.2030   27.9170 C   0  0  0  0  0  0  0  0  0  0  0  0
    9.0720   -5.5270   26.4310 C   0  0  0  0  0  0  0  0  0  0  0  0
    9.6610   -4.3150   25.6200 C   0  0  0  0  0  0  0  0  0  0  0  0
    8.9350   -3.4880   24.7110 N   0  0  0  0  0  0  0  0  0  0  0  0
    9.9150   -2.6630   24.3300 C   0  0  0  0  0  0  0  0  0  0  0  0
    9.6760   -1.5270   23.3100 C   0  0  0  0  0  0  0  0  0  0  0  0
    8.8970   -1.6780   22.2210 N   0  0  0  0  0  0  0  0  0  0  0  0
    8.4410   -0.5570   21.6040 C   0  0  0  0  0  0  0  0  0  0  0  0
    9.0920    0.4770   21.5090 O   0  0  0  0  0  0  0  0  0  0  0  0
    7.1670   -0.7800   21.1260 N   0  0  0  0  0  0  0  0  0  0  0  0
    6.4910   -0.0540   20.0550 C   0  0  0  0  0  0  0  0  0  0  0  0
    5.2150    0.7110   20.4630 C   0  0  0  0  0  0  0  0  0  0  0  0
    4.5530    1.4650   19.2900 C   0  0  0  0  0  0  0  0  0  0  0  0
    5.2120    1.3720   17.9230 C   0  0  0  0  0  0  0  0  0  0  0  0
    6.3490    0.6350   17.7540 N   0  0  0  0  0  0  0  0  0  0  0  0
    6.9790   -0.0620   18.7640 C   0  0  0  0  0  0  0  0  0  0  0  0
   11.1990   -2.7880   24.8310 N   0  0  0  0  0  0  0  0  0  0  0  0
   11.0490   -3.9160   25.7190 O   0  0  0  0  0  0  0  0  0  0  0  0
  1  2  1  0
  2  3  1  0
  3  4  2  0
  4  5  1  0
  5  6  1  0
  6  7  1  0
  7  8  1  0
  8  9  2  0
  8 10  1  0
 10 11  1  0
 11 12  2  0
 12 13  1  0
 13 14  2  0
 14 15  1  0
 11 16  1  0
 15 16  2  0
  5 17  2  0
  3 18  1  0
 17 18  1  0
M  END
