pyridine_urea_8675
     RDKit          3D

 21 23  0  0  0  0  0  0  0  0999 V2000
    8.7280    0.6660   21.1920 O   0  0  0  0  0  0  0  0  0  0  0  0
    8.3180   -0.4730   21.3720 C   0  0  0  0  0  0  0  0  0  0  0  0
    7.0820   -0.8960   20.9700 N   0  0  0  0  0  0  0  0  0  0  0  0
    6.4170   -0.1640   19.9810 C   0  0  0  0  0  0  0  0  0  0  0  0
    5.1960    0.4660   20.2470 C   0  0  0  0  0  0  0  0  0  0  0  0
    4.5640    1.2050   19.2420 C   0  0  0  0  0  0  0  0  0  0  0  0
    5.1800    1.2880   18.0080 C   0  0  0  0  0  0  0  0  0  0  0  0
    6.3480    0.6860   17.7370 N   0  0  0  0  0  0  0  0  0  0  0  0
    6.9330   -0.0190   18.7170 C   0  0  0  0  0  0  0  0  0  0  0  0
    9.1030   -1.4080   22.0100 N   0  0  0  0  0  0  0  0  0  0  0  0
   10.3100   -0.7780   22.4720 C   0  0  0  0  0  0  0  0  0  0  0  0
   11.6940   -1.3830   22.2360 C   0  0  0  0  0  0  0  0  0  0  0  0
   12.8030   -0.6700   22.7090 C   0  0  0  0  0  0  0  0  0  0  0  0
   12.6090    0.5470   23.3660 C   0  0  0  0  0  0  0  0  0  0  0  0
   11.3200    1.0550   23.5630 C   0  0  0  0  0  0  0  0  0  0  0  0
   10.1690    0.4240   23.1340 C   0  0  0  0  0  0  0  0  0  0  0  0
    8.8680    0.8480   23.2670 O   0  0  0  0  0  0  0  0  0  0  0  0
    8.3380    0.9600   24.5660 C   0  0  0  0  0  0  0  0  0  0  0  0
    8.8870    2.1140   25.0530 C   0  0  0  0  0  0  0  0  0  0  0  0
    9.8050    2.7180   24.1820 C   0  0  0  0  0  0  0  0  0  0  0  0
   11.1280    2.3190   24.2400 O   0  0  0  0  0  0  0  0  0  0  0  0
  1  2  2  0
  2  3  1  0
  3  4  1  0
  4  5  2  0
  5  6  1  0
  6  7  2  0
  7  8  1  0
  4  9  1  0
  8  9  2  0
  2 10  1  0
 10 11  1  0
 11 12  2  0
 12 13  1  0
 13 14  2  0
 14 15  1  0
 11 16  1  0
 15 16  2  0
 16 17  1  0
 17 18  1  0
 18 19  1  0
 19 20  1  0
 15 21  1  0
 20 21  1  0
M  END
