pyridine_urea_7014
     RDKit          3D

 20 21  0  0  0  0  0  0  0  0999 V2000
   13.5910   -0.2440   22.5470 C   0  0  0  0  0  0  0  0  0  0  0  0
   13.3220   -0.9480   23.8580 C   0  0  0  0  0  0  0  0  0  0  0  0
   13.5550   -2.3070   24.0970 C   0  0  0  0  0  0  0  0  0  0  0  0
   11.9200   -0.8230   23.7180 C   0  0  0  0  0  0  0  0  0  0  0  0
   11.5420   -1.0960   22.4550 C   0  0  0  0  0  0  0  0  0  0  0  0
   10.2600   -1.0190   22.1260 C   0  0  0  0  0  0  0  0  0  0  0  0
    9.2790   -0.6240   23.2040 C   0  0  0  0  0  0  0  0  0  0  0  0
    7.9950   -0.5650   22.7760 N   0  0  0  0  0  0  0  0  0  0  0  0
    7.7260   -0.1240   21.5230 C   0  0  0  0  0  0  0  0  0  0  0  0
    8.2500    0.8130   20.9210 O   0  0  0  0  0  0  0  0  0  0  0  0
    6.6880   -0.9090   20.9150 N   0  0  0  0  0  0  0  0  0  0  0  0
    6.1340   -0.0740   19.8610 C   0  0  0  0  0  0  0  0  0  0  0  0
    4.9530    0.6090   20.1170 C   0  0  0  0  0  0  0  0  0  0  0  0
    4.4640    1.3970   19.0960 C   0  0  0  0  0  0  0  0  0  0  0  0
    5.1950    1.4740   17.8200 C   0  0  0  0  0  0  0  0  0  0  0  0
    6.3360    0.7870   17.6230 N   0  0  0  0  0  0  0  0  0  0  0  0
    6.7810    0.0300   18.6450 C   0  0  0  0  0  0  0  0  0  0  0  0
    9.7230   -0.3580   24.4870 C   0  0  0  0  0  0  0  0  0  0  0  0
    8.8460   -0.0070   25.4680 F   0  0  0  0  0  0  0  0  0  0  0  0
   11.0660   -0.4620   24.7400 C   0  0  0  0  0  0  0  0  0  0  0  0
  1  2  1  0
  2  3  1  0
  2  4  1  0
  4  5  2  0
  5  6  1  0
  6  7  2  0
  7  8  1  0
  8  9  1  0
  9 10  2  0
  9 11  1  0
 11 12  1  0
 12 13  2  0
 13 14  1  0
 14 15  2  0
 15 16  1  0
 12 17  1  0
 16 17  2  0
  7 18  1  0
 18 19  1  0
  4 20  1  0
 18 20  2  0
M  END
