pyridine_urea_8
     RDKit          3D

 19 21  0  0  0  0  0  0  0  0999 V2000
    8.9680    0.8300   21.3660 O   0  0  0  0  0  0  0  0  0  0  0  0
    8.4920   -0.2790   21.5630 C   0  0  0  0  0  0  0  0  0  0  0  0
    9.1050   -1.2260   22.3710 N   0  0  0  0  0  0  0  0  0  0  0  0
   10.5660   -1.3750   22.4010 C   0  0  0  0  0  0  0  0  0  0  0  0
   11.2490   -0.3520   23.3030 C   0  0  0  0  0  0  0  0  0  0  0  0
   10.7390    0.9560   23.0330 C   0  0  0  0  0  0  0  0  0  0  0  0
   11.8620    1.6820   22.9390 C   0  0  0  0  0  0  0  0  0  0  0  0
   12.0270    3.2380   22.8930 C   0  0  0  0  0  0  0  0  0  0  0  0
   13.1430    4.1310   22.7580 C   0  0  0  0  0  0  0  0  0  0  0  0
   12.4790    5.2510   22.4910 C   0  0  0  0  0  0  0  0  0  0  0  0
   11.1910    4.5020   22.9490 C   0  0  0  0  0  0  0  0  0  0  0  0
   12.6410    0.3240   22.9040 C   0  0  0  0  0  0  0  0  0  0  0  0
    7.2980   -0.7260   21.0400 N   0  0  0  0  0  0  0  0  0  0  0  0
    6.5910   -0.0730   20.0110 C   0  0  0  0  0  0  0  0  0  0  0  0
    5.4380    0.6300   20.3190 C   0  0  0  0  0  0  0  0  0  0  0  0
    4.4790    1.4380   19.4230 C   0  0  0  0  0  0  0  0  0  0  0  0
    5.1970    1.2230   18.0960 C   0  0  0  0  0  0  0  0  0  0  0  0
    6.3110    0.5420   17.7850 N   0  0  0  0  0  0  0  0  0  0  0  0
    6.9800   -0.0890   18.7290 C   0  0  0  0  0  0  0  0  0  0  0  0
  1  2  2  0
  2  3  1  0
  3  4  1  0
  4  5  1  0
  5  6  1  0
  6  7  1  0
  7  8  2  3
  8  9  1  0
  9 10  1  0
  8 11  1  0
 10 11  1  0
  5 12  1  0
  7 12  1  0
  2 13  1  0
 13 14  1  0
 14 15  2  0
 15 16  1  0
 16 17  2  0
 17 18  1  0
 14 19  1  0
 18 19  2  0
M  END
