pyridine_urea_4695
     RDKit          3D

 22 24  0  0  0  0  0  0  0  0999 V2000
    8.7490   -3.6550   23.6730 C   0  0  0  0  0  0  0  0  0  0  0  0
   10.0830   -3.8610   24.1510 O   0  0  0  0  0  0  0  0  0  0  0  0
   10.8780   -2.8150   23.9400 C   0  0  0  0  0  0  0  0  0  0  0  0
   12.3950   -2.8010   24.1490 C   0  0  0  0  0  0  0  0  0  0  0  0
   13.0700   -1.6550   23.8810 C   0  0  0  0  0  0  0  0  0  0  0  0
   12.3770   -0.5530   23.4540 C   0  0  0  0  0  0  0  0  0  0  0  0
   12.9670    0.6680   23.1720 C   0  0  0  0  0  0  0  0  0  0  0  0
   12.1440    1.7050   22.7930 C   0  0  0  0  0  0  0  0  0  0  0  0
   10.7830    1.5380   22.6740 C   0  0  0  0  0  0  0  0  0  0  0  0
   10.2000    0.3510   22.9180 C   0  0  0  0  0  0  0  0  0  0  0  0
    8.7860    0.1500   22.7750 N   0  0  0  0  0  0  0  0  0  0  0  0
    8.2980    0.5530   21.5830 C   0  0  0  0  0  0  0  0  0  0  0  0
    8.8250    1.6520   20.9590 O   0  0  0  0  0  0  0  0  0  0  0  0
    7.2740   -0.2280   21.1160 N   0  0  0  0  0  0  0  0  0  0  0  0
    6.5640    0.2400   20.0220 C   0  0  0  0  0  0  0  0  0  0  0  0
    5.3130    1.0210   20.2400 C   0  0  0  0  0  0  0  0  0  0  0  0
    4.5750    1.5410   19.2090 C   0  0  0  0  0  0  0  0  0  0  0  0
    5.1130    1.2700   17.9230 C   0  0  0  0  0  0  0  0  0  0  0  0
    6.2300    0.5610   17.6800 N   0  0  0  0  0  0  0  0  0  0  0  0
    6.9280    0.0610   18.7170 C   0  0  0  0  0  0  0  0  0  0  0  0
   10.9660   -0.6720   23.3050 C   0  0  0  0  0  0  0  0  0  0  0  0
   10.2750   -1.7590   23.5330 N   0  0  0  0  0  0  0  0  0  0  0  0
  1  2  1  0
  2  3  1  0
  3  4  2  0
  4  5  1  0
  5  6  2  0
  6  7  1  0
  7  8  2  0
  8  9  1  0
  9 10  2  0
 10 11  1  0
 11 12  1  0
 12 13  2  0
 12 14  1  0
 14 15  1  0
 15 16  2  0
 16 17  1  0
 17 18  2  0
 18 19  1  0
 15 20  1  0
 19 20  2  0
  6 21  1  0
 10 21  1  0
  3 22  1  0
 21 22  2  0
M  END
