pyridine_urea_4348
     RDKit          3D

 23 24  0  0  0  0  0  0  0  0999 V2000
    7.6450    2.6690   25.0550 C   0  0  0  0  0  0  0  0  0  0  0  0
    7.7700    1.2210   25.5370 C   0  0  0  0  0  0  0  0  0  0  0  0
    9.1150    0.8140   25.2500 O   0  0  0  0  0  0  0  0  0  0  0  0
    9.2080   -0.5270   24.7770 C   0  0  0  0  0  0  0  0  0  0  0  0
    8.2960   -1.4790   25.1490 O   0  0  0  0  0  0  0  0  0  0  0  0
   10.3450   -0.8490   23.8270 C   0  0  0  0  0  0  0  0  0  0  0  0
   10.1090   -1.3310   22.5030 C   0  0  0  0  0  0  0  0  0  0  0  0
    8.7680   -1.5020   22.0520 N   0  0  0  0  0  0  0  0  0  0  0  0
    8.1880   -0.4230   21.4430 C   0  0  0  0  0  0  0  0  0  0  0  0
    8.8110    0.6310   21.3080 O   0  0  0  0  0  0  0  0  0  0  0  0
    6.9110   -0.6740   21.0370 N   0  0  0  0  0  0  0  0  0  0  0  0
    6.3360    0.0140   19.9770 C   0  0  0  0  0  0  0  0  0  0  0  0
    5.1570    0.7250   20.1570 C   0  0  0  0  0  0  0  0  0  0  0  0
    4.5890    1.4200   19.1130 C   0  0  0  0  0  0  0  0  0  0  0  0
    5.1890    1.4140   17.8800 C   0  0  0  0  0  0  0  0  0  0  0  0
    6.3300    0.7280   17.6710 N   0  0  0  0  0  0  0  0  0  0  0  0
    6.8760    0.0480   18.7100 C   0  0  0  0  0  0  0  0  0  0  0  0
   11.5640   -1.6090   21.7190 S   0  0  0  0  0  0  0  0  0  0  0  0
   12.8610   -1.1630   22.7960 C   0  0  0  0  0  0  0  0  0  0  0  0
   13.4760   -1.4980   21.7860 O   0  0  0  0  0  0  0  0  0  0  0  0
   13.0120   -2.6670   21.1410 C   0  0  0  0  0  0  0  0  0  0  0  0
   11.8740   -0.8030   23.9010 C   0  0  0  0  0  0  0  0  0  0  0  0
   12.4360   -0.3860   25.1200 C   0  0  0  0  0  0  0  0  0  0  0  0
  1  2  1  0
  2  3  1  0
  3  4  1  0
  4  5  2  0
  4  6  1  0
  6  7  2  0
  7  8  1  0
  8  9  1  0
  9 10  2  0
  9 11  1  0
 11 12  1  0
 12 13  2  0
 13 14  1  0
 14 15  2  0
 15 16  1  0
 12 17  1  0
 16 17  2  0
  7 18  1  0
 18 19  1  0
 19 20  1  0
 20 21  1  0
  6 22  1  0
 19 22  2  0
 22 23  1  0
M  END
