pyridine_urea_1763
     RDKit          3D

 17 17  0  0  0  0  0  0  0  0999 V2000
   12.9840   -1.0770   22.3740 C   0  0  0  0  0  0  0  0  0  0  0  0
   13.0340   -0.3420   23.6770 C   0  0  0  0  0  0  0  0  0  0  0  0
   11.9540   -0.1630   24.5420 C   0  0  0  0  0  0  0  0  0  0  0  0
   10.7140   -0.6920   24.2280 C   0  0  0  0  0  0  0  0  0  0  0  0
   10.4000   -0.4990   22.9270 C   0  0  0  0  0  0  0  0  0  0  0  0
   10.8310   -1.4610   22.0190 C   0  0  0  0  0  0  0  0  0  0  0  0
   11.0620    0.8710   22.6870 C   0  0  0  0  0  0  0  0  0  0  0  0
    8.9660   -0.3630   22.7280 N   0  0  0  0  0  0  0  0  0  0  0  0
    8.4490    0.2900   21.6370 C   0  0  0  0  0  0  0  0  0  0  0  0
    8.9320    1.3440   21.2050 O   0  0  0  0  0  0  0  0  0  0  0  0
    7.2930   -0.3770   21.0830 N   0  0  0  0  0  0  0  0  0  0  0  0
    6.5720    0.1360   20.0630 C   0  0  0  0  0  0  0  0  0  0  0  0
    5.4040    0.8450   20.3510 C   0  0  0  0  0  0  0  0  0  0  0  0
    4.6750    1.3990   19.3050 C   0  0  0  0  0  0  0  0  0  0  0  0
    5.1280    1.2290   18.0140 C   0  0  0  0  0  0  0  0  0  0  0  0
    6.2360    0.5440   17.7150 N   0  0  0  0  0  0  0  0  0  0  0  0
    6.9310    0.0140   18.7380 C   0  0  0  0  0  0  0  0  0  0  0  0
  1  2  1  0
  2  3  1  0
  3  4  1  0
  4  5  1  0
  5  6  1  0
  5  7  1  0
  5  8  1  0
  8  9  1  0
  9 10  2  0
  9 11  1  0
 11 12  1  0
 12 13  2  0
 13 14  1  0
 14 15  2  0
 15 16  1  0
 12 17  1  0
 16 17  2  0
M  END
