pyridine_urea_1927
     RDKit          3D

 23 25  0  0  0  0  0  0  0  0999 V2000
    8.2530    1.5400   24.5480 C   0  0  0  0  0  0  0  0  0  0  0  0
    9.3500    0.8060   25.0890 O   0  0  0  0  0  0  0  0  0  0  0  0
    9.4140   -0.4820   24.6460 C   0  0  0  0  0  0  0  0  0  0  0  0
    8.6060   -1.3460   24.9840 O   0  0  0  0  0  0  0  0  0  0  0  0
   10.5900   -0.6970   23.6730 C   0  0  2  0  0  0  0  0  0  0  0  0
   10.2050   -0.2570   22.3040 C   0  0  0  0  0  0  0  0  0  0  0  0
    8.9220   -0.7710   21.9500 N   0  0  0  0  0  0  0  0  0  0  0  0
    8.1130    0.0960   21.2920 C   0  0  0  0  0  0  0  0  0  0  0  0
    8.4790    1.2320   20.9590 O   0  0  0  0  0  0  0  0  0  0  0  0
    6.9190   -0.4690   21.0720 N   0  0  0  0  0  0  0  0  0  0  0  0
    6.2940    0.1500   20.0750 C   0  0  0  0  0  0  0  0  0  0  0  0
    5.1130    0.8710   20.1860 C   0  0  0  0  0  0  0  0  0  0  0  0
    4.5590    1.4950   19.0730 C   0  0  0  0  0  0  0  0  0  0  0  0
    5.1890    1.3990   17.8500 C   0  0  0  0  0  0  0  0  0  0  0  0
    6.3270    0.7170   17.6460 N   0  0  0  0  0  0  0  0  0  0  0  0
    6.8760    0.1030   18.7110 C   0  0  0  0  0  0  0  0  0  0  0  0
   11.0320   -2.1840   23.5110 C   0  0  0  0  0  0  0  0  0  0  0  0
   12.4400   -2.1960   23.2790 C   0  0  2  0  0  0  0  0  0  0  0  0
   12.8870   -1.9470   24.6940 C   0  0  0  0  0  0  0  0  0  0  0  0
   12.3080   -0.7920   25.1280 C   0  0  0  0  0  0  0  0  0  0  0  0
   11.8540    0.0630   24.1550 C   0  0  1  0  0  0  0  0  0  0  0  0
   12.6520    0.1830   23.0380 C   0  0  0  0  0  0  0  0  0  0  0  0
   12.8900   -1.0270   22.4030 C   0  0  0  0  0  0  0  0  0  0  0  0
  1  2  1  0
  2  3  1  0
  3  4  2  0
  5  3  1  0
  5  6  1  6
  6  7  1  0
  7  8  1  0
  8  9  2  0
  8 10  1  0
 10 11  1  0
 11 12  2  0
 12 13  1  0
 13 14  2  0
 14 15  1  0
 11 16  1  0
 15 16  2  0
  5 17  1  0
 18 17  1  1
 18 19  1  0
 19 20  1  0
  5 21  1  0
 21 20  1  1
 21 22  1  0
 18 23  1  0
 22 23  1  0
M  END
