pyridine_urea_14055
     RDKit          3D

 23 24  0  0  0  0  0  0  0  0999 V2000
    8.8970    1.3140   21.2040 O   0  0  0  0  0  0  0  0  0  0  0  0
    8.4450    0.2150   21.5430 C   0  0  0  0  0  0  0  0  0  0  0  0
    9.0020   -0.5100   22.5760 N   0  0  0  0  0  0  0  0  0  0  0  0
   10.3910   -0.2750   22.9500 C   0  0  0  0  0  0  0  0  0  0  0  0
   11.2140   -1.5460   22.8240 C   0  0  0  0  0  0  0  0  0  0  0  0
   12.9010   -1.4920   22.6100 S   0  0  0  0  0  0  0  0  0  0  0  0
   13.5140   -2.5430   23.3900 O   0  0  0  0  0  0  0  0  0  0  0  0
   13.3640   -0.1240   22.6680 O   0  0  0  0  0  0  0  0  0  0  0  0
   12.7640   -1.9970   20.9840 C   0  0  0  0  0  0  0  0  0  0  0  0
   12.7950   -3.3070   20.5770 C   0  0  0  0  0  0  0  0  0  0  0  0
   14.0380   -4.1050   20.1640 C   0  0  0  0  0  0  0  0  0  0  0  0
   15.0970   -3.6440   19.3270 C   0  0  0  0  0  0  0  0  0  0  0  0
   16.2100   -4.1880   18.9420 C   0  0  0  0  0  0  0  0  0  0  0  0
   16.1700   -5.4040   19.6260 C   0  0  0  0  0  0  0  0  0  0  0  0
   15.2580   -5.8470   20.3240 C   0  0  0  0  0  0  0  0  0  0  0  0
   14.2360   -5.2570   20.5740 C   0  0  0  0  0  0  0  0  0  0  0  0
    7.3550   -0.4300   20.9950 N   0  0  0  0  0  0  0  0  0  0  0  0
    6.5180    0.1740   20.0460 C   0  0  0  0  0  0  0  0  0  0  0  0
    5.2850    0.8730   20.6620 C   0  0  0  0  0  0  0  0  0  0  0  0
    4.6830    1.4020   19.3720 C   0  0  0  0  0  0  0  0  0  0  0  0
    5.1560    1.2650   17.9700 C   0  0  0  0  0  0  0  0  0  0  0  0
    6.2380    0.6110   17.6630 N   0  0  0  0  0  0  0  0  0  0  0  0
    6.8640    0.1000   18.7090 C   0  0  0  0  0  0  0  0  0  0  0  0
  1  2  2  0
  2  3  1  0
  3  4  1  0
  4  5  1  0
  6  5  1  0
  6  7  2  0
  6  8  2  0
  6  9  1  0
  9 10  1  0
 10 11  1  0
 11 12  2  0
 12 13  1  0
 13 14  2  0
 14 15  1  0
 11 16  1  0
 15 16  2  0
  2 17  1  0
 17 18  1  0
 18 19  2  0
 19 20  1  0
 20 21  2  0
 21 22  1  0
 18 23  1  0
 22 23  2  0
M  END
