pyridine_urea_1185
     RDKit          3D

 21 22  0  0  0  0  0  0  0  0999 V2000
   13.1360   -1.9720   21.1350 C   0  0  0  0  0  0  0  0  0  0  0  0
   12.4980   -1.4390   22.4160 C   0  0  0  0  0  0  0  0  0  0  0  0
   13.3130   -1.8610   23.6190 C   0  0  0  0  0  0  0  0  0  0  0  0
   12.9610   -1.5420   24.8520 C   0  0  0  0  0  0  0  0  0  0  0  0
   11.8370   -0.8200   24.9870 C   0  0  0  0  0  0  0  0  0  0  0  0
   11.1550   -0.4770   23.7420 N   0  0  0  0  0  0  0  0  0  0  0  0
   11.3580   -0.7070   22.3630 C   0  0  0  0  0  0  0  0  0  0  0  0
   10.2380    0.0380   22.6020 C   0  0  1  0  0  0  0  0  0  0  0  0
    9.0350   -0.5030   22.3380 N   0  0  0  0  0  0  0  0  0  0  0  0
    8.2050    0.0490   21.4150 C   0  0  0  0  0  0  0  0  0  0  0  0
    8.5470    1.1590   20.9690 O   0  0  0  0  0  0  0  0  0  0  0  0
    7.0970   -0.6190   21.0540 N   0  0  0  0  0  0  0  0  0  0  0  0
    6.4490    0.0050   20.0510 C   0  0  0  0  0  0  0  0  0  0  0  0
    5.2570    0.6900   20.3340 C   0  0  0  0  0  0  0  0  0  0  0  0
    4.5850    1.3580   19.2990 C   0  0  0  0  0  0  0  0  0  0  0  0
    5.1870    1.3030   17.9350 C   0  0  0  0  0  0  0  0  0  0  0  0
    6.3220    0.6340   17.7060 N   0  0  0  0  0  0  0  0  0  0  0  0
    6.9110    0.0120   18.7460 C   0  0  0  0  0  0  0  0  0  0  0  0
   10.3350    0.7050   23.8110 C   0  0  0  0  0  0  0  0  0  0  0  0
   11.4620    1.4980   23.8610 C   0  0  0  0  0  0  0  0  0  0  0  0
    9.1530    1.6610   23.9230 C   0  0  0  0  0  0  0  0  0  0  0  0
  1  2  1  0
  2  3  2  0
  3  4  1  0
  4  5  2  0
  5  6  1  0
  2  7  1  0
  6  7  2  0
  7  8  1  0
  8  9  1  1
  9 10  1  0
 10 11  2  0
 10 12  1  0
 12 13  1  0
 13 14  2  0
 14 15  1  0
 15 16  2  0
 16 17  1  0
 13 18  1  0
 17 18  2  0
  8 19  1  0
 19 20  1  0
 19 21  1  0
M  END
