pyridine_urea_15006
     RDKit          3D

 19 20  0  0  0  0  0  0  0  0999 V2000
   13.3310   -2.3960   25.0590 C   0  0  0  0  0  0  0  0  0  0  0  0
   12.1540   -1.7270   24.3420 C   0  0  1  0  0  0  0  0  0  0  0  0
   11.7590   -0.4190   24.9980 C   0  0  0  0  0  0  0  0  0  0  0  0
   11.1390    0.6300   24.0950 C   0  0  0  0  0  0  0  0  0  0  0  0
   12.1760    1.0250   23.0680 C   0  0  0  0  0  0  0  0  0  0  0  0
   13.0870   -0.1040   22.6230 C   0  0  0  0  0  0  0  0  0  0  0  0
   12.4950   -1.4740   22.8770 C   0  0  2  0  0  0  0  0  0  0  0  0
   11.3480   -1.6890   22.1390 C   0  0  0  0  0  0  0  0  0  0  0  0
   10.3280   -0.8290   22.5150 C   0  0  0  0  0  0  0  0  0  0  0  0
    9.0380   -1.2310   22.0280 N   0  0  0  0  0  0  0  0  0  0  0  0
    8.3010   -0.2550   21.4160 C   0  0  0  0  0  0  0  0  0  0  0  0
    8.7090    0.8910   21.2820 O   0  0  0  0  0  0  0  0  0  0  0  0
    7.0920   -0.7170   20.9820 N   0  0  0  0  0  0  0  0  0  0  0  0
    6.3550   -0.0070   20.0350 C   0  0  0  0  0  0  0  0  0  0  0  0
    5.1570    0.6640   20.2710 C   0  0  0  0  0  0  0  0  0  0  0  0
    4.5310    1.3850   19.1310 C   0  0  0  0  0  0  0  0  0  0  0  0
    5.1770    1.3500   17.8980 C   0  0  0  0  0  0  0  0  0  0  0  0
    6.3290    0.6860   17.7060 N   0  0  0  0  0  0  0  0  0  0  0  0
    6.8740    0.0390   18.7510 C   0  0  0  0  0  0  0  0  0  0  0  0
  2  1  1  1
  2  3  1  0
  3  4  1  0
  4  5  1  0
  5  6  1  0
  2  7  1  0
  6  7  1  0
  7  8  1  6
  8  9  1  0
  9 10  1  0
 10 11  1  0
 11 12  2  0
 11 13  1  0
 13 14  1  0
 14 15  2  0
 15 16  1  0
 16 17  2  0
 17 18  1  0
 14 19  1  0
 18 19  2  0
M  END
