pyridine_urea_10867
     RDKit          3D

 20 21  0  0  0  0  0  0  0  0999 V2000
   11.4300    2.2350   22.9980 C   0  0  0  0  0  0  0  0  0  0  0  0
   11.0350    0.8730   23.4960 C   0  0  1  0  0  0  0  0  0  0  0  0
    9.6820    0.5560   23.6700 C   0  0  0  0  0  0  0  0  0  0  0  0
    9.1930   -0.3130   22.5670 N   0  0  0  0  0  0  0  0  0  0  0  0
    8.4650    0.1830   21.5420 C   0  0  0  0  0  0  0  0  0  0  0  0
    8.8190    1.2950   21.1180 O   0  0  0  0  0  0  0  0  0  0  0  0
    7.3350   -0.5940   21.0500 N   0  0  0  0  0  0  0  0  0  0  0  0
    6.6170    0.0190   20.0590 C   0  0  0  0  0  0  0  0  0  0  0  0
    5.3600    0.7740   20.4330 C   0  0  0  0  0  0  0  0  0  0  0  0
    4.5710    1.4740   19.3270 C   0  0  0  0  0  0  0  0  0  0  0  0
    5.1410    1.3410   17.9290 C   0  0  0  0  0  0  0  0  0  0  0  0
    6.2730    0.6280   17.7210 N   0  0  0  0  0  0  0  0  0  0  0  0
    6.9850   -0.0110   18.7300 C   0  0  0  0  0  0  0  0  0  0  0  0
   11.6940   -0.1500   22.6010 C   0  0  0  0  0  0  0  0  0  0  0  0
   11.9470   -1.3490   23.1130 N   0  0  0  0  0  0  0  0  0  0  0  0
   11.6490   -1.5230   24.5230 C   0  0  0  0  0  0  0  0  0  0  0  0
   12.8940   -1.2330   24.9880 C   0  0  0  0  0  0  0  0  0  0  0  0
   13.5250   -2.4250   24.9260 C   0  0  0  0  0  0  0  0  0  0  0  0
   13.3870   -2.8560   23.6390 C   0  0  0  0  0  0  0  0  0  0  0  0
   13.0840   -1.9200   22.6780 C   0  0  0  0  0  0  0  0  0  0  0  0
  2  1  1  6
  2  3  1  0
  3  4  1  0
  4  5  1  0
  5  6  2  0
  5  7  1  0
  7  8  1  0
  8  9  2  0
  9 10  1  0
 10 11  2  0
 11 12  1  0
  8 13  1  0
 12 13  2  0
  2 14  1  0
 14 15  1  0
 15 16  1  0
 16 17  1  0
 17 18  1  0
 18 19  1  0
 15 20  1  0
 19 20  1  0
M  END
