pyridine_urea_12624
     RDKit          3D

 21 22  0  0  0  0  0  0  0  0999 V2000
   12.8320   -2.1290   21.2930 C   0  0  0  0  0  0  0  0  0  0  0  0
   12.4730   -2.7080   22.6820 C   0  0  0  0  0  0  0  0  0  0  0  0
   13.6790   -2.4790   23.5860 C   0  0  0  0  0  0  0  0  0  0  0  0
   13.9700   -1.1040   23.4290 O   0  0  0  0  0  0  0  0  0  0  0  0
   12.6960   -0.6500   23.3520 C   0  0  0  0  0  0  0  0  0  0  0  0
   12.0980    0.5560   23.1510 C   0  0  0  0  0  0  0  0  0  0  0  0
   10.6540    0.5510   23.1650 C   0  0  0  0  0  0  0  0  0  0  0  0
    9.8690   -0.6620   23.3800 C   0  0  0  0  0  0  0  0  0  0  0  0
    8.5300   -0.8050   23.4200 C   0  0  0  0  0  0  0  0  0  0  0  0
    7.9950    0.4030   22.9630 N   0  0  0  0  0  0  0  0  0  0  0  0
    8.0850    0.6170   21.6500 C   0  0  0  0  0  0  0  0  0  0  0  0
    8.9360    1.5860   21.1030 O   0  0  0  0  0  0  0  0  0  0  0  0
    7.2110   -0.2340   20.9760 N   0  0  0  0  0  0  0  0  0  0  0  0
    6.5410    0.2540   19.9170 C   0  0  0  0  0  0  0  0  0  0  0  0
    5.3930    0.9580   20.2850 C   0  0  0  0  0  0  0  0  0  0  0  0
    4.6490    1.5470   19.1400 C   0  0  0  0  0  0  0  0  0  0  0  0
    5.1080    1.3710   17.8640 C   0  0  0  0  0  0  0  0  0  0  0  0
    6.2110    0.6710   17.5580 N   0  0  0  0  0  0  0  0  0  0  0  0
    6.9240    0.1110   18.6190 C   0  0  0  0  0  0  0  0  0  0  0  0
   10.3970   -1.9860   23.5950 C   0  0  0  0  0  0  0  0  0  0  0  0
   11.7760   -1.7760   23.5470 C   0  0  0  0  0  0  0  0  0  0  0  0
  1  2  3  0
  2  3  1  0
  3  4  1  0
  4  5  1  0
  5  6  2  0
  6  7  1  0
  7  8  2  0
  8  9  1  0
  9 10  1  0
 10 11  1  0
 11 12  2  0
 11 13  1  0
 13 14  1  0
 14 15  2  0
 15 16  1  0
 16 17  2  0
 17 18  1  0
 14 19  1  0
 18 19  2  0
  8 20  1  0
  5 21  1  0
 20 21  2  0
M  END
