pyridine_urea_1723
     RDKit          3D

 18 18  0  0  0  0  0  0  0  0999 V2000
   12.7390   -1.8550   21.5740 C   0  0  0  0  0  0  0  0  0  0  0  0
   12.7270   -0.6220   22.2990 O   0  0  0  0  0  0  0  0  0  0  0  0
   11.4700   -0.0920   22.5780 C   0  0  0  0  0  0  0  0  0  0  0  0
   11.2600    1.1130   22.6440 O   0  0  0  0  0  0  0  0  0  0  0  0
   10.4570   -1.0100   22.8110 C   0  0  1  0  0  0  0  0  0  0  0  0
   10.5160   -1.5400   24.0860 C   0  0  0  0  0  0  0  0  0  0  0  0
   11.7150   -2.7730   24.2190 S   0  0  0  0  0  0  0  0  0  0  0  0
   12.9830   -1.7140   24.6010 C   0  0  0  0  0  0  0  0  0  0  0  0
    9.0980   -0.5910   22.6890 N   0  0  0  0  0  0  0  0  0  0  0  0
    8.6240    0.1750   21.6370 C   0  0  0  0  0  0  0  0  0  0  0  0
    9.1410    1.2410   21.2880 O   0  0  0  0  0  0  0  0  0  0  0  0
    7.4300   -0.4250   21.0330 N   0  0  0  0  0  0  0  0  0  0  0  0
    6.6720    0.1060   20.0430 C   0  0  0  0  0  0  0  0  0  0  0  0
    5.3950    0.8950   20.3910 C   0  0  0  0  0  0  0  0  0  0  0  0
    4.6760    1.4290   19.3380 C   0  0  0  0  0  0  0  0  0  0  0  0
    5.1320    1.2340   18.0410 C   0  0  0  0  0  0  0  0  0  0  0  0
    6.2350    0.5430   17.7150 N   0  0  0  0  0  0  0  0  0  0  0  0
    6.9740   -0.0030   18.7020 C   0  0  0  0  0  0  0  0  0  0  0  0
  1  2  1  0
  2  3  1  0
  3  4  2  0
  3  5  1  0
  5  6  1  1
  6  7  1  0
  7  8  1  0
  5  9  1  0
  9 10  1  0
 10 11  2  0
 10 12  1  0
 12 13  1  0
 13 14  2  0
 14 15  1  0
 15 16  2  0
 16 17  1  0
 13 18  1  0
 17 18  2  0
M  END
