pyridine_urea_10331
     RDKit          3D

 22 23  0  0  0  0  0  0  0  0999 V2000
   13.1560   -2.2630   21.0490 C   0  0  0  0  0  0  0  0  0  0  0  0
   13.2780   -1.6910   22.4520 C   0  0  0  0  0  0  0  0  0  0  0  0
   13.2480   -2.5700   23.9280 S   0  0  0  0  0  0  0  0  0  0  0  0
   12.1570   -3.4730   24.1060 O   0  0  0  0  0  0  0  0  0  0  0  0
   14.1540   -2.2170   24.9700 O   0  0  0  0  0  0  0  0  0  0  0  0
   12.2190   -1.2370   23.7830 C   0  0  0  0  0  0  0  0  0  0  0  0
   10.8520   -1.4440   23.9930 C   0  0  0  0  0  0  0  0  0  0  0  0
    9.8720   -0.4110   23.8860 C   0  0  0  0  0  0  0  0  0  0  0  0
    9.7900    0.9420   23.5890 C   0  0  0  0  0  0  0  0  0  0  0  0
    8.5810    0.3600   23.8840 C   0  0  0  0  0  0  0  0  0  0  0  0
    7.7430    0.2240   22.7430 N   0  0  0  0  0  0  0  0  0  0  0  0
    8.2220   -0.2920   21.5960 C   0  0  0  0  0  0  0  0  0  0  0  0
    9.3950   -0.1770   21.3200 O   0  0  0  0  0  0  0  0  0  0  0  0
    7.1960   -0.8600   20.9050 N   0  0  0  0  0  0  0  0  0  0  0  0
    6.4830   -0.1210   19.9740 C   0  0  0  0  0  0  0  0  0  0  0  0
    5.2420    0.4780   20.2100 C   0  0  0  0  0  0  0  0  0  0  0  0
    4.5740    1.2230   19.2390 C   0  0  0  0  0  0  0  0  0  0  0  0
    5.1270    1.4070   17.9730 C   0  0  0  0  0  0  0  0  0  0  0  0
    6.2990    0.8860   17.6180 N   0  0  0  0  0  0  0  0  0  0  0  0
    6.9400    0.1610   18.5620 C   0  0  0  0  0  0  0  0  0  0  0  0
   11.3990    1.0920   23.3530 C   0  0  0  0  0  0  0  0  0  0  0  0
   12.4660    0.2000   23.4300 C   0  0  0  0  0  0  0  0  0  0  0  0
  1  2  1  0
  3  2  1  0
  3  4  2  0
  3  5  2  0
  3  6  1  0
  6  7  2  0
  7  8  1  0
  8  9  2  0
  9 10  1  0
 10 11  1  0
 11 12  1  0
 12 13  2  0
 12 14  1  0
 14 15  1  0
 15 16  2  0
 16 17  1  0
 17 18  2  0
 18 19  1  0
 15 20  1  0
 19 20  2  0
  9 21  1  0
  6 22  1  0
 21 22  2  0
M  END
