pyridine_urea_12106
     RDKit          3D

 23 24  0  0  0  0  0  0  0  0999 V2000
   11.0300    4.0860   24.0940 C   0  0  0  0  0  0  0  0  0  0  0  0
   11.8270    3.3830   23.0250 C   0  0  0  0  0  0  0  0  0  0  0  0
   11.2170    3.7600   21.8890 C   0  0  0  0  0  0  0  0  0  0  0  0
   13.2150    4.0250   22.8550 C   0  0  0  0  0  0  0  0  0  0  0  0
   11.7280    1.8080   23.1480 C   0  0  0  0  0  0  0  0  0  0  0  0
   12.8950    1.6710   22.8590 C   0  0  0  0  0  0  0  0  0  0  0  0
   12.9380    0.3280   22.9090 C   0  0  0  0  0  0  0  0  0  0  0  0
   11.3170    0.5890   23.3090 C   0  0  0  0  0  0  0  0  0  0  0  0
    9.9560    0.3270   23.6790 C   0  0  0  0  0  0  0  0  0  0  0  0
    9.1570    1.4670   23.5820 C   0  0  0  0  0  0  0  0  0  0  0  0
    9.9450   -0.2460   24.9350 C   0  0  0  0  0  0  0  0  0  0  0  0
    9.1800   -0.6930   22.9670 N   0  0  0  0  0  0  0  0  0  0  0  0
    8.5950   -0.5960   21.7220 C   0  0  0  0  0  0  0  0  0  0  0  0
    9.2280   -0.7900   20.7850 O   0  0  0  0  0  0  0  0  0  0  0  0
    7.2400   -0.2890   21.6200 N   0  0  0  0  0  0  0  0  0  0  0  0
    6.5900    0.1660   20.4220 C   0  0  0  0  0  0  0  0  0  0  0  0
    5.4340    0.9550   20.5480 C   0  0  0  0  0  0  0  0  0  0  0  0
    4.7710    1.4260   19.4060 C   0  0  0  0  0  0  0  0  0  0  0  0
    5.3010    1.0860   18.1790 C   0  0  0  0  0  0  0  0  0  0  0  0
    6.3900    0.3420   17.9810 N   0  0  0  0  0  0  0  0  0  0  0  0
    7.0140   -0.1090   19.1080 C   0  0  0  0  0  0  0  0  0  0  0  0
   11.6310   -0.6820   23.3060 C   0  0  0  0  0  0  0  0  0  0  0  0
   12.3770    0.4300   23.0610 C   0  0  0  0  0  0  0  0  0  0  0  0
  2  1  1  0
  2  3  1  0
  2  4  1  0
  2  5  1  0
  5  6  2  0
  6  7  1  0
  7  8  2  0
  8  9  1  0
  9 10  1  0
  9 11  1  0
  9 12  1  0
 12 13  1  0
 13 14  2  0
 13 15  1  0
 15 16  1  0
 16 17  2  0
 17 18  1  0
 18 19  2  0
 19 20  1  0
 16 21  1  0
 20 21  2  0
  8 22  1  0
  5 23  1  0
 22 23  2  0
M  END
