pyridine_urea_13077
     RDKit          3D

 18 19  0  0  0  0  0  0  0  0999 V2000
   13.9230   -2.7960   25.5210 C   0  0  0  0  0  0  0  0  0  0  0  0
   13.3260   -2.2430   24.2730 C   0  0  0  0  0  0  0  0  0  0  0  0
   13.6650   -2.8110   23.0090 O   0  0  0  0  0  0  0  0  0  0  0  0
   12.3920   -1.1770   24.4390 N   0  0  0  0  0  0  0  0  0  0  0  0
   12.1660   -0.3000   23.2820 C   0  0  0  0  0  0  0  0  0  0  0  0
   10.8550   -0.5100   23.3580 C   0  0  0  0  0  0  0  0  0  0  0  0
   10.2710   -1.0410   22.2490 C   0  0  0  0  0  0  0  0  0  0  0  0
    8.9450   -1.1530   22.2550 N   0  0  0  0  0  0  0  0  0  0  0  0
    8.2940   -0.2180   21.5400 C   0  0  0  0  0  0  0  0  0  0  0  0
    8.7980    0.8650   21.2690 O   0  0  0  0  0  0  0  0  0  0  0  0
    6.9760   -0.6910   21.1600 N   0  0  0  0  0  0  0  0  0  0  0  0
    6.3930   -0.0190   20.0330 C   0  0  0  0  0  0  0  0  0  0  0  0
    5.1030    0.7780   20.2710 C   0  0  0  0  0  0  0  0  0  0  0  0
    4.5830    1.4190   19.1610 C   0  0  0  0  0  0  0  0  0  0  0  0
    5.1960    1.3360   17.9330 C   0  0  0  0  0  0  0  0  0  0  0  0
    6.3240    0.6400   17.7030 N   0  0  0  0  0  0  0  0  0  0  0  0
    6.8940   -0.0180   18.7430 C   0  0  0  0  0  0  0  0  0  0  0  0
   10.9990   -1.4460   24.3860 C   0  0  0  0  0  0  0  0  0  0  0  0
  1  2  1  0
  2  3  2  0
  2  4  1  0
  4  5  1  0
  5  6  1  0
  6  7  1  0
  7  8  1  0
  8  9  1  0
  9 10  2  0
  9 11  1  0
 11 12  1  0
 12 13  2  0
 13 14  1  0
 14 15  2  0
 15 16  1  0
 12 17  1  0
 16 17  2  0
  4 18  1  0
  6 18  1  0
M  END
