pyridine_urea_271
     RDKit          3D

 23 25  0  0  0  0  0  0  0  0999 V2000
    8.8540    1.1160   21.1190 O   0  0  0  0  0  0  0  0  0  0  0  0
    8.4460    0.0010   21.4770 C   0  0  0  0  0  0  0  0  0  0  0  0
    7.2410   -0.5550   21.0940 N   0  0  0  0  0  0  0  0  0  0  0  0
    6.5420    0.0700   20.0030 C   0  0  0  0  0  0  0  0  0  0  0  0
    5.2790    0.8420   20.3700 C   0  0  0  0  0  0  0  0  0  0  0  0
    4.5970    1.4840   19.2180 C   0  0  0  0  0  0  0  0  0  0  0  0
    5.1490    1.3320   17.9600 C   0  0  0  0  0  0  0  0  0  0  0  0
    6.2630    0.6310   17.6880 N   0  0  0  0  0  0  0  0  0  0  0  0
    6.9250    0.0250   18.6930 C   0  0  0  0  0  0  0  0  0  0  0  0
    9.1520   -0.8490   22.3070 N   0  0  0  0  0  0  0  0  0  0  0  0
   10.5660   -0.5520   22.6190 C   0  0  2  0  0  0  0  0  0  0  0  0
   11.3560   -1.6470   22.4470 C   0  0  0  0  0  0  0  0  0  0  0  0
   12.6670   -0.8750   22.4520 C   0  0  0  0  0  0  0  0  0  0  0  0
   12.6750    0.3230   23.1370 C   0  0  0  0  0  0  0  0  0  0  0  0
   11.8900    0.3900   24.2620 C   0  0  0  0  0  0  0  0  0  0  0  0
   10.6520   -0.1740   24.0830 C   0  0  1  0  0  0  0  0  0  0  0  0
    9.5970    0.5890   24.5700 N   0  0  0  0  0  0  0  0  0  0  0  0
    8.3160    0.0180   25.4750 S   0  0  0  0  0  0  0  0  0  0  0  0
    7.2330    0.9540   25.2370 O   0  0  0  0  0  0  0  0  0  0  0  0
    8.1270   -1.3900   25.1890 O   0  0  0  0  0  0  0  0  0  0  0  0
    8.7880    0.1760   27.1860 C   0  0  0  0  0  0  0  0  0  0  0  0
    7.9880    0.9940   27.9200 C   0  0  0  0  0  0  0  0  0  0  0  0
    7.8150   -0.5010   28.2980 C   0  0  0  0  0  0  0  0  0  0  0  0
  1  2  2  0
  2  3  1  0
  3  4  1  0
  4  5  2  0
  5  6  1  0
  6  7  2  0
  7  8  1  0
  4  9  1  0
  8  9  2  0
  2 10  1  0
 11 10  1  1
 11 12  1  0
 12 13  1  0
 13 14  1  0
 14 15  1  0
 11 16  1  0
 15 16  1  0
 16 17  1  6
 18 17  1  0
 18 19  2  0
 18 20  2  0
 18 21  1  0
 21 22  1  0
 21 23  1  0
 22 23  1  0
M  END
