pyridine_urea_6181
     RDKit          3D

 24 26  0  0  0  0  0  0  0  0999 V2000
    9.0110    1.2300   21.1840 O   0  0  0  0  0  0  0  0  0  0  0  0
    8.5320    0.1490   21.5480 C   0  0  0  0  0  0  0  0  0  0  0  0
    9.2230   -0.7860   22.3000 N   0  0  0  0  0  0  0  0  0  0  0  0
   10.6250   -0.5590   22.5480 C   0  0  0  0  0  0  0  0  0  0  0  0
   10.9060    0.9040   22.9880 C   0  0  0  0  0  0  0  0  0  0  0  0
   12.3410    1.1610   23.2430 C   0  0  0  0  0  0  0  0  0  0  0  0
   13.0040    0.0260   23.0200 C   0  0  0  0  0  0  0  0  0  0  0  0
   12.9900   -1.2380   22.6720 N   0  0  0  0  0  0  0  0  0  0  0  0
   11.6770   -1.5170   22.4200 C   0  0  0  0  0  0  0  0  0  0  0  0
    7.2580   -0.2730   21.2760 N   0  0  0  0  0  0  0  0  0  0  0  0
    6.5010    0.3050   20.1400 C   0  0  1  0  0  0  0  0  0  0  0  0
    6.5350    1.6500   20.2450 C   0  0  0  0  0  0  0  0  0  0  0  0
    5.4360    1.9270   19.2150 C   0  0  0  0  0  0  0  0  0  0  0  0
    5.5410    1.2390   18.0200 C   0  0  0  0  0  0  0  0  0  0  0  0
    5.8700    0.0030   18.1440 N   0  0  0  0  0  0  0  0  0  0  0  0
    4.8190   -0.5770   18.6240 C   0  0  0  0  0  0  0  0  0  0  0  0
    4.5090   -0.3870   19.9680 C   0  0  0  0  0  0  0  0  0  0  0  0
    3.5110    0.7700   20.2520 C   0  0  0  0  0  0  0  0  0  0  0  0
    3.4510    0.6340   21.7630 C   0  0  0  0  0  0  0  0  0  0  0  0
    4.1400   -0.3180   22.6900 C   0  0  0  0  0  0  0  0  0  0  0  0
    4.9860   -1.2640   22.1860 C   0  0  0  0  0  0  0  0  0  0  0  0
    5.1780   -1.3090   20.8290 C   0  0  0  0  0  0  0  0  0  0  0  0
    6.8600   -0.2980   18.9230 C   0  0  0  0  0  0  0  0  0  0  0  0
    7.9410   -1.0490   18.6990 O   0  0  0  0  0  0  0  0  0  0  0  0
  1  2  2  0
  2  3  1  0
  3  4  1  0
  4  5  2  0
  5  6  1  0
  6  7  2  0
  7  8  1  0
  4  9  1  0
  8  9  2  0
  2 10  1  0
 11 10  1  1
 11 12  1  0
 12 13  1  0
 13 14  1  0
 14 15  1  0
 15 16  1  0
 16 17  1  0
 17 18  2  0
 18 19  1  0
 19 20  2  0
 20 21  1  0
 17 22  1  0
 21 22  2  0
 11 23  1  0
 15 23  1  0
 23 24  2  0
M  END
