pyridine_urea_4115
     RDKit          3D

 25 27  0  0  0  0  0  0  0  0999 V2000
    8.6820    0.7390   21.1090 O   0  0  0  0  0  0  0  0  0  0  0  0
    8.1300   -0.3170   21.3910 C   0  0  0  0  0  0  0  0  0  0  0  0
    6.8860   -0.6670   20.9890 N   0  0  0  0  0  0  0  0  0  0  0  0
    6.2910    0.0080   19.9420 C   0  0  0  0  0  0  0  0  0  0  0  0
    5.0910    0.6840   20.1490 C   0  0  0  0  0  0  0  0  0  0  0  0
    4.5100    1.3820   19.0950 C   0  0  0  0  0  0  0  0  0  0  0  0
    5.1570    1.3730   17.8750 C   0  0  0  0  0  0  0  0  0  0  0  0
    6.3080    0.7190   17.6620 N   0  0  0  0  0  0  0  0  0  0  0  0
    6.8450    0.0550   18.6910 C   0  0  0  0  0  0  0  0  0  0  0  0
    8.7330   -1.2530   22.1580 N   0  0  0  0  0  0  0  0  0  0  0  0
    9.8140   -0.7460   22.9640 C   0  0  2  0  0  0  0  0  0  0  0  0
    9.5280    0.7700   23.0800 C   0  0  0  0  0  0  0  0  0  0  0  0
    9.9730    2.0640   23.1030 C   0  0  0  0  0  0  0  0  0  0  0  0
   10.8550    3.1050   23.0710 C   0  0  0  0  0  0  0  0  0  0  0  0
   12.1020    2.6480   22.9420 C   0  0  0  0  0  0  0  0  0  0  0  0
   12.1320    1.2690   22.8810 C   0  0  0  0  0  0  0  0  0  0  0  0
   13.5360    0.3970   22.7360 Cl  0  0  0  0  0  0  0  0  0  0  0  0
   11.0390    0.4190   22.9320 C   0  0  0  0  0  0  0  0  0  0  0  0
   11.1220   -0.9390   22.5370 C   0  0  0  0  0  0  0  0  0  0  0  0
   12.6110   -1.3700   22.4610 C   0  0  0  0  0  0  0  0  0  0  0  0
   13.3610   -2.0810   23.3590 C   0  0  0  0  0  0  0  0  0  0  0  0
   12.8620   -2.5420   24.5080 C   0  0  0  0  0  0  0  0  0  0  0  0
   11.5760   -2.2650   24.7140 C   0  0  0  0  0  0  0  0  0  0  0  0
   10.8110   -1.5490   23.8240 C   0  0  0  0  0  0  0  0  0  0  0  0
    9.2050   -1.4300   24.4680 Cl  0  0  0  0  0  0  0  0  0  0  0  0
  1  2  2  0
  2  3  1  0
  3  4  1  0
  4  5  2  0
  5  6  1  0
  6  7  2  0
  7  8  1  0
  4  9  1  0
  8  9  2  0
  2 10  1  0
 11 10  1  6
 11 12  1  0
 12 13  2  0
 13 14  1  0
 14 15  2  0
 15 16  1  0
 16 17  1  0
 12 18  1  0
 16 18  2  0
 11 19  1  0
 19 20  2  0
 20 21  1  0
 21 22  2  0
 22 23  1  0
 19 24  1  0
 23 24  2  0
 24 25  1  0
M  END
