pyridine_urea_7303
     RDKit          3D

 18 18  0  0  0  0  0  0  0  0999 V2000
   12.8690   -0.6750   24.7100 C   0  0  0  0  0  0  0  0  0  0  0  0
   11.3880   -0.6550   24.4470 C   0  0  0  0  0  0  0  0  0  0  0  0
   11.0500    0.4620   23.6780 C   0  0  0  0  0  0  0  0  0  0  0  0
   11.1060   -1.9150   23.7900 N   0  0  0  0  0  0  0  0  0  0  0  0
   11.8170   -2.9530   24.3070 C   0  0  0  0  0  0  0  0  0  0  0  0
   10.7800   -1.9300   22.4740 C   0  0  0  0  0  0  0  0  0  0  0  0
    9.3930   -1.9490   22.4050 C   0  0  1  0  0  0  0  0  0  0  0  0
    8.7700   -2.9790   23.1180 C   0  0  0  0  0  0  0  0  0  0  0  0
    8.9420   -0.5740   22.6270 N   0  0  0  0  0  0  0  0  0  0  0  0
    8.3870    0.1600   21.5960 C   0  0  0  0  0  0  0  0  0  0  0  0
    8.9050    1.1910   21.1430 O   0  0  0  0  0  0  0  0  0  0  0  0
    7.2230   -0.4190   21.2160 N   0  0  0  0  0  0  0  0  0  0  0  0
    6.5690    0.1250   20.1760 C   0  0  0  0  0  0  0  0  0  0  0  0
    5.4470    0.8970   20.3530 C   0  0  0  0  0  0  0  0  0  0  0  0
    4.7830    1.4730   19.2950 C   0  0  0  0  0  0  0  0  0  0  0  0
    5.1430    1.3550   17.9610 C   0  0  0  0  0  0  0  0  0  0  0  0
    6.2530    0.5870   17.6700 N   0  0  0  0  0  0  0  0  0  0  0  0
    6.9300    0.0020   18.7130 C   0  0  0  0  0  0  0  0  0  0  0  0
  1  2  1  0
  2  3  1  0
  2  4  1  0
  4  5  1  0
  4  6  1  0
  6  7  1  0
  7  8  1  1
  7  9  1  0
  9 10  1  0
 10 11  2  0
 10 12  1  0
 12 13  1  0
 13 14  2  0
 14 15  1  0
 15 16  2  0
 16 17  1  0
 13 18  1  0
 17 18  2  0
M  END
