pyridine_urea_4556
     RDKit          3D

 23 24  0  0  0  0  0  0  0  0999 V2000
    8.5750    0.6850   21.2200 O   0  0  0  0  0  0  0  0  0  0  0  0
    8.1420   -0.3970   21.6050 C   0  0  0  0  0  0  0  0  0  0  0  0
    7.0140   -0.9680   21.0740 N   0  0  0  0  0  0  0  0  0  0  0  0
    6.3970   -0.1900   20.0260 C   0  0  0  0  0  0  0  0  0  0  0  0
    5.1170    0.5690   20.3600 C   0  0  0  0  0  0  0  0  0  0  0  0
    4.4750    1.4030   19.2510 C   0  0  0  0  0  0  0  0  0  0  0  0
    5.2040    1.3830   17.9060 C   0  0  0  0  0  0  0  0  0  0  0  0
    6.3710    0.6260   17.7610 N   0  0  0  0  0  0  0  0  0  0  0  0
    6.9350   -0.1180   18.7620 C   0  0  0  0  0  0  0  0  0  0  0  0
    8.7600   -1.1330   22.6010 N   0  0  0  0  0  0  0  0  0  0  0  0
   10.0760   -0.7190   22.7540 C   0  0  0  0  0  0  0  0  0  0  0  0
   11.1630   -1.3190   22.1390 C   0  0  0  0  0  0  0  0  0  0  0  0
   12.4430   -0.8630   22.2700 C   0  0  0  0  0  0  0  0  0  0  0  0
   12.6160    0.2410   23.0430 C   0  0  0  0  0  0  0  0  0  0  0  0
   13.8620    0.6290   23.0730 F   0  0  0  0  0  0  0  0  0  0  0  0
   11.6030    0.9010   23.7200 C   0  0  0  0  0  0  0  0  0  0  0  0
   10.3180    0.4050   23.5730 C   0  0  0  0  0  0  0  0  0  0  0  0
    9.4560    1.0310   24.1950 O   0  0  0  0  0  0  0  0  0  0  0  0
    8.9740    0.3040   25.3670 C   0  0  0  0  0  0  0  0  0  0  0  0
    7.7960    0.9120   25.8240 C   0  0  0  0  0  0  0  0  0  0  0  0
    6.6760    0.6020   25.1340 F   0  0  0  0  0  0  0  0  0  0  0  0
    7.8830    2.2680   25.8190 F   0  0  0  0  0  0  0  0  0  0  0  0
    7.5580    0.5460   27.1100 F   0  0  0  0  0  0  0  0  0  0  0  0
  1  2  2  0
  2  3  1  0
  3  4  1  0
  4  5  2  0
  5  6  1  0
  6  7  2  0
  7  8  1  0
  4  9  1  0
  8  9  2  0
  2 10  1  0
 10 11  1  0
 11 12  2  0
 12 13  1  0
 13 14  2  0
 14 15  1  0
 14 16  1  0
 11 17  1  0
 16 17  2  0
 17 18  1  0
 18 19  1  0
 19 20  1  0
 20 21  1  0
 20 22  1  0
 20 23  1  0
M  END
