pyridine_urea_727
     RDKit          3D

 23 24  0  0  0  0  0  0  0  0999 V2000
   12.9760   -2.3360   21.5420 C   0  0  0  0  0  0  0  0  0  0  0  0
   13.6100   -1.3120   21.3770 O   0  0  0  0  0  0  0  0  0  0  0  0
   13.4740   -0.2530   22.2420 C   0  0  0  0  0  0  0  0  0  0  0  0
   14.3160    0.5140   22.5720 O   0  0  0  0  0  0  0  0  0  0  0  0
   12.3260    0.0650   22.7590 C   0  0  0  0  0  0  0  0  0  0  0  0
   12.1980    1.2250   23.3770 C   0  0  0  0  0  0  0  0  0  0  0  0
   11.0360    1.6300   23.9290 C   0  0  0  0  0  0  0  0  0  0  0  0
    9.7520    1.0410   24.0200 C   0  0  0  0  0  0  0  0  0  0  0  0
    8.6180    0.0520   23.8640 C   0  0  0  0  0  0  0  0  0  0  0  0
    7.7030    0.4190   22.9160 N   0  0  0  0  0  0  0  0  0  0  0  0
    7.9630    0.4630   21.5750 C   0  0  0  0  0  0  0  0  0  0  0  0
    8.7050    1.2850   21.0280 O   0  0  0  0  0  0  0  0  0  0  0  0
    7.1980   -0.5910   20.9420 N   0  0  0  0  0  0  0  0  0  0  0  0
    6.4340    0.0920   19.9150 C   0  0  0  0  0  0  0  0  0  0  0  0
    5.2530    0.7410   20.2690 C   0  0  0  0  0  0  0  0  0  0  0  0
    4.5610    1.4060   19.2670 C   0  0  0  0  0  0  0  0  0  0  0  0
    5.1330    1.3720   17.9060 C   0  0  0  0  0  0  0  0  0  0  0  0
    6.2710    0.7250   17.6070 N   0  0  0  0  0  0  0  0  0  0  0  0
    6.8890    0.1010   18.6220 C   0  0  0  0  0  0  0  0  0  0  0  0
   10.0620   -0.2800   23.2650 C   0  0  0  0  0  0  0  0  0  0  0  0
   11.1720   -0.7960   22.6800 C   0  0  0  0  0  0  0  0  0  0  0  0
   11.1270   -2.0100   22.0960 O   0  0  0  0  0  0  0  0  0  0  0  0
    9.7890   -2.3020   21.7250 C   0  0  0  0  0  0  0  0  0  0  0  0
  1  2  1  0
  2  3  1  0
  3  4  2  0
  3  5  1  0
  5  6  2  0
  6  7  1  0
  7  8  2  0
  8  9  1  0
  9 10  1  0
 10 11  1  0
 11 12  2  0
 11 13  1  0
 13 14  1  0
 14 15  2  0
 15 16  1  0
 16 17  2  0
 17 18  1  0
 14 19  1  0
 18 19  2  0
  8 20  1  0
  5 21  1  0
 20 21  2  0
 21 22  1  0
 22 23  1  0
M  END
