pyridine_urea_11294
     RDKit          3D

 16 17  0  0  0  0  0  0  0  0999 V2000
   10.8100    0.6580   22.6820 C   0  0  0  0  0  0  0  0  0  0  0  0
   10.6670   -0.5340   22.7580 C   0  0  0  0  0  0  0  0  0  0  0  0
    9.2730   -0.9210   22.4750 N   0  0  0  0  0  0  0  0  0  0  0  0
    8.5590    0.0010   21.5950 C   0  0  0  0  0  0  0  0  0  0  0  0
    9.0690    1.3040   21.2580 O   0  0  0  0  0  0  0  0  0  0  0  0
    7.3030   -0.5150   21.1160 N   0  0  0  0  0  0  0  0  0  0  0  0
    6.6550    0.0220   20.0640 C   0  0  0  0  0  0  0  0  0  0  0  0
    5.5440    0.7630   20.3610 C   0  0  0  0  0  0  0  0  0  0  0  0
    4.6880    1.4810   19.3260 C   0  0  0  0  0  0  0  0  0  0  0  0
    5.1230    1.3460   17.9290 C   0  0  0  0  0  0  0  0  0  0  0  0
    6.2480    0.5710   17.7230 N   0  0  0  0  0  0  0  0  0  0  0  0
    6.9990   -0.0790   18.7320 C   0  0  0  0  0  0  0  0  0  0  0  0
   11.6300   -1.5380   21.9810 C   0  0  0  0  0  0  0  0  0  0  0  0
   12.7580   -0.9790   22.5630 C   0  0  0  0  0  0  0  0  0  0  0  0
   12.5110   -0.7290   23.8750 C   0  0  0  0  0  0  0  0  0  0  0  0
   11.2060   -1.1530   24.0650 C   0  0  0  0  0  0  0  0  0  0  0  0
  1  2  1  0
  2  3  1  0
  3  4  1  0
  4  5  2  0
  4  6  1  0
  6  7  1  0
  7  8  2  0
  8  9  1  0
  9 10  2  0
 10 11  1  0
  7 12  1  0
 11 12  2  0
  2 13  1  0
 13 14  1  0
 14 15  1  0
  2 16  1  0
 15 16  1  0
M  END
