pyridine_urea_2094
     RDKit          3D

 22 23  0  0  0  0  0  0  0  0999 V2000
    8.6990    1.1850   21.0890 O   0  0  0  0  0  0  0  0  0  0  0  0
    8.1950    0.1170   21.4760 C   0  0  0  0  0  0  0  0  0  0  0  0
    7.1330   -0.5340   20.9290 N   0  0  0  0  0  0  0  0  0  0  0  0
    6.3590    0.1190   20.0000 C   0  0  0  0  0  0  0  0  0  0  0  0
    5.0270    0.8080   20.3040 C   0  0  0  0  0  0  0  0  0  0  0  0
    4.4040    1.4830   19.0900 C   0  0  0  0  0  0  0  0  0  0  0  0
    5.1490    1.3890   17.7980 C   0  0  0  0  0  0  0  0  0  0  0  0
    6.3140    0.7400   17.6540 N   0  0  0  0  0  0  0  0  0  0  0  0
    6.8630    0.1450   18.7200 C   0  0  0  0  0  0  0  0  0  0  0  0
    8.6870   -0.5540   22.5410 N   0  0  0  0  0  0  0  0  0  0  0  0
   10.0400   -0.2750   22.8270 C   0  0  0  0  0  0  0  0  0  0  0  0
   10.5960    0.9570   22.6910 C   0  0  0  0  0  0  0  0  0  0  0  0
   11.8990    1.2100   22.9490 C   0  0  0  0  0  0  0  0  0  0  0  0
   12.4390    3.0530   22.6740 Br  0  0  0  0  0  0  0  0  0  0  0  0
   12.7670    0.2120   23.3850 C   0  0  0  0  0  0  0  0  0  0  0  0
   12.4150   -1.1570   23.6250 C   0  0  0  0  0  0  0  0  0  0  0  0
   13.1000   -2.2940   24.0820 C   0  0  0  0  0  0  0  0  0  0  0  0
   13.8540   -2.8250   23.1230 F   0  0  0  0  0  0  0  0  0  0  0  0
   12.1630   -3.2050   24.4150 F   0  0  0  0  0  0  0  0  0  0  0  0
   13.8110   -2.0850   25.1970 F   0  0  0  0  0  0  0  0  0  0  0  0
   10.9240   -1.3620   23.2970 C   0  0  0  0  0  0  0  0  0  0  0  0
   10.3640   -2.4250   23.4070 O   0  0  0  0  0  0  0  0  0  0  0  0
  1  2  2  0
  2  3  1  0
  3  4  1  0
  4  5  2  0
  5  6  1  0
  6  7  2  0
  7  8  1  0
  4  9  1  0
  8  9  2  0
  2 10  1  0
 10 11  1  0
 11 12  2  0
 12 13  1  0
 13 14  1  0
 13 15  2  0
 15 16  1  0
 16 17  1  0
 17 18  1  0
 17 19  1  0
 17 20  1  0
 11 21  1  0
 16 21  2  0
 21 22  1  0
M  END
