pyridine_urea_13879
     RDKit          3D

 24 25  0  0  0  0  0  0  0  0999 V2000
   13.4160   -1.6680   20.9350 C   0  0  0  0  0  0  0  0  0  0  0  0
   12.4370   -1.7360   21.5670 C   0  0  0  0  0  0  0  0  0  0  0  0
   11.3260   -1.2890   22.4660 C   0  0  0  0  0  0  0  0  0  0  0  0
   10.5800   -0.0230   22.2630 C   0  0  0  0  0  0  0  0  0  0  0  0
   11.2770    1.1110   22.7030 C   0  0  0  0  0  0  0  0  0  0  0  0
    9.9720   -1.9530   22.5460 C   0  0  0  0  0  0  0  0  0  0  0  0
    9.1290   -1.5880   21.3800 N   0  0  0  0  0  0  0  0  0  0  0  0
    8.3600   -0.4460   21.3140 C   0  0  0  0  0  0  0  0  0  0  0  0
    8.7010    0.9440   21.3690 O   0  0  0  0  0  0  0  0  0  0  0  0
    6.9420   -0.6540   21.1140 N   0  0  0  0  0  0  0  0  0  0  0  0
    6.3850    0.0220   19.9620 C   0  0  0  0  0  0  0  0  0  0  0  0
    5.1290    0.8060   20.1930 C   0  0  0  0  0  0  0  0  0  0  0  0
    4.5460    1.4950   19.1500 C   0  0  0  0  0  0  0  0  0  0  0  0
    5.1190    1.4640   17.8950 C   0  0  0  0  0  0  0  0  0  0  0  0
    6.3300    0.7030   17.6540 N   0  0  0  0  0  0  0  0  0  0  0  0
    6.9070    0.0160   18.6900 C   0  0  0  0  0  0  0  0  0  0  0  0
   11.7550   -0.9750   23.8280 C   0  0  0  0  0  0  0  0  0  0  0  0
   11.6390   -0.5990   25.2330 C   0  0  0  0  0  0  0  0  0  0  0  0
   10.3890   -0.2990   26.0120 C   0  0  0  0  0  0  0  0  0  0  0  0
    9.1850   -0.3430   25.4940 C   0  0  0  0  0  0  0  0  0  0  0  0
    7.7640    0.0020   26.4070 Cl  0  0  0  0  0  0  0  0  0  0  0  0
    9.1400   -0.6790   24.2440 C   0  0  0  0  0  0  0  0  0  0  0  0
    7.5950   -0.7870   23.4790 Cl  0  0  0  0  0  0  0  0  0  0  0  0
   10.3250   -0.9530   23.5290 C   0  0  0  0  0  0  0  0  0  0  0  0
  1  2  1  0
  3  2  1  0
  3  4  1  0
  4  5  1  0
  3  6  1  0
  6  7  1  0
  7  8  1  0
  8  9  2  0
  8 10  1  0
 10 11  1  0
 11 12  2  0
 12 13  1  0
 13 14  2  0
 14 15  1  0
 11 16  1  0
 15 16  2  0
  3 17  1  0
 17 18  2  0
 18 19  1  0
 19 20  2  0
 20 21  1  0
 20 22  1  0
 22 23  1  0
 17 24  1  0
 22 24  2  0
M  END
