pyridine_urea_13574
     RDKit          3D

 28 31  0  0  0  0  0  0  0  0999 V2000
    8.8930    1.1780   21.1650 O   0  0  0  0  0  0  0  0  0  0  0  0
    8.4390    0.0960   21.5580 C   0  0  0  0  0  0  0  0  0  0  0  0
    8.9760   -0.6370   22.5850 N   0  0  0  0  0  0  0  0  0  0  0  0
    9.8310   -0.0980   23.5630 C   0  0  0  0  0  0  0  0  0  0  0  0
   10.3640    1.3350   23.3690 C   0  0  0  0  0  0  0  0  0  0  0  0
   11.3340    0.1500   23.2200 C   0  0  0  0  0  0  0  0  0  0  0  0
   12.7530    0.1110   22.9130 C   0  0  0  0  0  0  0  0  0  0  0  0
   13.4410    1.2260   22.7000 C   0  0  0  0  0  0  0  0  0  0  0  0
   12.8710    2.5050   22.7350 C   0  0  0  0  0  0  0  0  0  0  0  0
   13.6870    3.8130   22.4890 C   0  0  0  0  0  0  0  0  0  0  0  0
   14.9430    3.7860   22.7990 N   0  0  0  0  0  0  0  0  0  0  0  0
   15.7180    4.8480   22.8790 C   0  0  0  0  0  0  0  0  0  0  0  0
   17.2140    4.8740   23.5260 C   0  0  0  0  0  0  0  0  0  0  0  0
   18.3870    5.8380   23.5040 C   0  0  0  0  0  0  0  0  0  0  0  0
   19.6190    5.7090   24.2500 C   0  0  0  0  0  0  0  0  0  0  0  0
   19.9350    4.7050   25.0950 N   0  0  0  0  0  0  0  0  0  0  0  0
   18.9910    3.7110   25.1790 C   0  0  0  0  0  0  0  0  0  0  0  0
   17.6860    3.7930   24.4400 C   0  0  0  0  0  0  0  0  0  0  0  0
   14.6360    5.6580   22.3460 N   0  0  0  0  0  0  0  0  0  0  0  0
   13.3450    4.8970   22.1170 O   0  0  0  0  0  0  0  0  0  0  0  0
   11.4650    2.5230   23.0550 C   0  0  0  0  0  0  0  0  0  0  0  0
    7.3160   -0.5250   21.0590 N   0  0  0  0  0  0  0  0  0  0  0  0
    6.5400    0.0780   20.1430 C   0  0  0  0  0  0  0  0  0  0  0  0
    5.3770    0.7690   20.4660 C   0  0  0  0  0  0  0  0  0  0  0  0
    4.5940    1.4400   19.3210 C   0  0  0  0  0  0  0  0  0  0  0  0
    5.1570    1.2960   17.9180 C   0  0  0  0  0  0  0  0  0  0  0  0
    6.2650    0.6070   17.7260 N   0  0  0  0  0  0  0  0  0  0  0  0
    6.9910   -0.0060   18.6860 C   0  0  0  0  0  0  0  0  0  0  0  0
  1  2  2  0
  2  3  1  0
  3  4  1  0
  4  5  1  0
  5  6  2  0
  6  7  1  0
  7  8  2  0
  8  9  1  0
  9 10  1  0
 10 11  2  0
 11 12  1  0
 12 13  1  0
 13 14  2  0
 14 15  1  0
 15 16  2  0
 16 17  1  0
 13 18  1  0
 17 18  2  0
 12 19  2  0
 10 20  1  0
 19 20  1  0
  5 21  1  0
  9 21  2  0
  2 22  1  0
 22 23  1  0
 23 24  2  0
 24 25  1  0
 25 26  2  0
 26 27  1  0
 23 28  1  0
 27 28  2  0
M  END
