pyridine_urea_12540
     RDKit          3D

 21 23  0  0  0  0  0  0  0  0999 V2000
    8.4550    0.4500   21.1940 O   0  0  0  0  0  0  0  0  0  0  0  0
    8.0170   -0.6120   21.6250 C   0  0  0  0  0  0  0  0  0  0  0  0
    6.8390   -1.0950   21.1300 N   0  0  0  0  0  0  0  0  0  0  0  0
    6.2760   -0.2720   20.0650 C   0  0  0  0  0  0  0  0  0  0  0  0
    4.9740    0.5470   20.3310 C   0  0  0  0  0  0  0  0  0  0  0  0
    4.4770    1.3250   19.2910 C   0  0  0  0  0  0  0  0  0  0  0  0
    5.2600    1.3040   17.9730 C   0  0  0  0  0  0  0  0  0  0  0  0
    6.3830    0.5770   17.7880 N   0  0  0  0  0  0  0  0  0  0  0  0
    6.8600   -0.1780   18.8100 C   0  0  0  0  0  0  0  0  0  0  0  0
    8.6430   -1.3770   22.5960 N   0  0  0  0  0  0  0  0  0  0  0  0
    9.8990   -0.7060   22.7050 C   0  0  0  0  0  0  0  0  0  0  0  0
   11.2740   -1.3490   22.5530 C   0  0  0  0  0  0  0  0  0  0  0  0
   12.4370   -0.3840   22.6320 C   0  0  0  0  0  0  0  0  0  0  0  0
   13.6680   -0.9050   22.4870 F   0  0  0  0  0  0  0  0  0  0  0  0
   12.0940    1.0840   22.8400 C   0  0  0  0  0  0  0  0  0  0  0  0
   13.2150    2.0380   22.8440 C   0  0  0  0  0  0  0  0  0  0  0  0
   12.8630    3.5180   23.0240 C   0  0  0  0  0  0  0  0  0  0  0  0
   11.5530    3.9120   23.1940 C   0  0  0  0  0  0  0  0  0  0  0  0
   10.5530    2.9500   23.1830 C   0  0  0  0  0  0  0  0  0  0  0  0
   10.8420    1.5950   22.9980 C   0  0  0  0  0  0  0  0  0  0  0  0
    9.7780    0.7920   22.9550 C   0  0  0  0  0  0  0  0  0  0  0  0
  1  2  2  0
  2  3  1  0
  3  4  1  0
  4  5  2  0
  5  6  1  0
  6  7  2  0
  7  8  1  0
  4  9  1  0
  8  9  2  0
  2 10  1  0
 10 11  1  0
 11 12  2  0
 12 13  1  0
 13 14  1  0
 13 15  2  0
 15 16  1  0
 16 17  2  0
 17 18  1  0
 18 19  2  0
 15 20  1  0
 19 20  1  0
 11 21  1  0
 20 21  2  0
M  END
