pyridine_urea_8414
     RDKit          3D

 22 24  0  0  0  0  0  0  0  0999 V2000
    9.2920    0.0130   21.3220 O   0  0  0  0  0  0  0  0  0  0  0  0
    8.1450    0.1340   21.6950 C   0  0  0  0  0  0  0  0  0  0  0  0
    7.7390    0.8820   22.7760 N   0  0  0  0  0  0  0  0  0  0  0  0
    6.6990    0.6150   23.7070 C   0  0  0  0  0  0  0  0  0  0  0  0
    6.8560   -0.5770   24.3920 C   0  0  0  0  0  0  0  0  0  0  0  0
    7.7070   -1.4760   23.8400 N   0  0  0  0  0  0  0  0  0  0  0  0
    7.3470   -2.8200   23.5860 C   0  0  0  0  0  0  0  0  0  0  0  0
    8.4380   -3.3840   23.0180 C   0  0  0  0  0  0  0  0  0  0  0  0
    9.4920   -2.3080   22.9360 C   0  0  0  0  0  0  0  0  0  0  0  0
   10.7580   -2.3540   22.4460 C   0  0  0  0  0  0  0  0  0  0  0  0
   11.6780   -1.1580   22.4620 C   0  0  0  0  0  0  0  0  0  0  0  0
   13.2470   -1.3950   21.8190 Cl  0  0  0  0  0  0  0  0  0  0  0  0
   11.1800    0.0290   22.9990 C   0  0  0  0  0  0  0  0  0  0  0  0
    9.8620    0.0480   23.4950 C   0  0  0  0  0  0  0  0  0  0  0  0
    9.0440   -1.1130   23.4560 C   0  0  0  0  0  0  0  0  0  0  0  0
    7.0920   -0.4570   21.0370 N   0  0  0  0  0  0  0  0  0  0  0  0
    6.3870    0.1450   20.0690 C   0  0  0  0  0  0  0  0  0  0  0  0
    5.1930    0.8460   20.2470 C   0  0  0  0  0  0  0  0  0  0  0  0
    4.6040    1.4250   19.1520 C   0  0  0  0  0  0  0  0  0  0  0  0
    5.1760    1.3200   17.9070 C   0  0  0  0  0  0  0  0  0  0  0  0
    6.3190    0.6490   17.6890 N   0  0  0  0  0  0  0  0  0  0  0  0
    6.8880    0.0800   18.7740 C   0  0  0  0  0  0  0  0  0  0  0  0
  1  2  2  0
  2  3  1  0
  3  4  1  0
  4  5  1  0
  5  6  1  0
  6  7  1  0
  7  8  2  0
  8  9  1  0
  9 10  1  0
 10 11  2  0
 11 12  1  0
 11 13  1  0
 13 14  2  0
  6 15  1  0
  9 15  2  0
 14 15  1  0
  2 16  1  0
 16 17  1  0
 17 18  2  0
 18 19  1  0
 19 20  2  0
 20 21  1  0
 17 22  1  0
 21 22  2  0
M  END
