pyridine_urea_1318
     RDKit          3D

 20 21  0  0  0  0  0  0  0  0999 V2000
    8.3510   -2.1500   24.1290 C   0  0  0  0  0  0  0  0  0  0  0  0
    9.4840   -3.0460   23.5790 C   0  0  0  0  0  0  0  0  0  0  0  0
   10.7990   -2.2550   23.4980 C   0  0  0  0  0  0  0  0  0  0  0  0
   12.0380   -2.9840   23.8720 N   0  0  0  0  0  0  0  0  0  0  0  0
   13.1330   -2.1310   23.7320 O   0  0  0  0  0  0  0  0  0  0  0  0
   12.5160   -0.9330   23.2920 C   0  0  0  0  0  0  0  0  0  0  0  0
   12.9500    0.3190   22.9530 C   0  0  0  0  0  0  0  0  0  0  0  0
   12.1010    1.2790   23.4910 C   0  0  0  0  0  0  0  0  0  0  0  0
   11.0230   -0.9250   23.1220 C   0  0  0  0  0  0  0  0  0  0  0  0
   10.1380    0.0340   22.7360 C   0  0  0  0  0  0  0  0  0  0  0  0
    9.0680   -0.5950   22.1710 N   0  0  0  0  0  0  0  0  0  0  0  0
    8.2140    0.1000   21.3630 C   0  0  0  0  0  0  0  0  0  0  0  0
    8.5410    1.4020   20.9340 O   0  0  0  0  0  0  0  0  0  0  0  0
    7.1000   -0.5820   21.0520 N   0  0  0  0  0  0  0  0  0  0  0  0
    6.4600    0.0310   20.0570 C   0  0  0  0  0  0  0  0  0  0  0  0
    5.2680    0.7240   20.3110 C   0  0  0  0  0  0  0  0  0  0  0  0
    4.6430    1.3940   19.1500 C   0  0  0  0  0  0  0  0  0  0  0  0
    5.1530    1.3700   17.8940 C   0  0  0  0  0  0  0  0  0  0  0  0
    6.3070    0.6770   17.6850 N   0  0  0  0  0  0  0  0  0  0  0  0
    6.9090    0.0440   18.7380 C   0  0  0  0  0  0  0  0  0  0  0  0
  1  2  1  0
  2  3  1  0
  3  4  2  0
  4  5  1  0
  5  6  1  0
  6  7  1  0
  7  8  1  0
  3  9  1  0
  6  9  2  0
  9 10  1  0
 10 11  1  0
 11 12  1  0
 12 13  2  0
 12 14  1  0
 14 15  1  0
 15 16  2  0
 16 17  1  0
 17 18  2  0
 18 19  1  0
 15 20  1  0
 19 20  2  0
M  END
