pyridine_urea_6246
     RDKit          3D

 24 25  0  0  0  0  0  0  0  0999 V2000
   11.1950   -0.6230   25.2470 C   0  0  0  0  0  0  0  0  0  0  0  0
   12.3360   -0.3220   25.0600 C   0  0  0  0  0  0  0  0  0  0  0  0
   12.9910   -1.0890   24.0640 N   0  0  0  0  0  0  0  0  0  0  0  0
   13.2550   -2.4310   24.4040 C   0  0  0  0  0  0  0  0  0  0  0  0
   13.6010   -2.8500   23.0710 C   0  0  0  0  0  0  0  0  0  0  0  0
   12.6260   -0.8500   22.7550 C   0  0  0  0  0  0  0  0  0  0  0  0
   11.2390   -1.3690   22.3300 C   0  0  0  0  0  0  0  0  0  0  0  0
   10.1110   -0.7650   23.0710 C   0  0  2  0  0  0  0  0  0  0  0  0
    8.8520   -1.0080   22.4090 N   0  0  0  0  0  0  0  0  0  0  0  0
    8.2420   -0.0540   21.4780 C   0  0  0  0  0  0  0  0  0  0  0  0
    8.8280    1.2030   21.1130 O   0  0  0  0  0  0  0  0  0  0  0  0
    7.0640   -0.5660   21.0660 N   0  0  0  0  0  0  0  0  0  0  0  0
    6.4880    0.0480   20.0230 C   0  0  0  0  0  0  0  0  0  0  0  0
    5.3260    0.8010   20.2100 C   0  0  0  0  0  0  0  0  0  0  0  0
    4.6840    1.4720   19.1730 C   0  0  0  0  0  0  0  0  0  0  0  0
    5.1810    1.4190   17.8970 C   0  0  0  0  0  0  0  0  0  0  0  0
    6.3120    0.6820   17.6900 N   0  0  0  0  0  0  0  0  0  0  0  0
    6.9580    0.0040   18.7260 C   0  0  0  0  0  0  0  0  0  0  0  0
   10.5380    0.7310   23.2070 C   0  0  0  0  0  0  0  0  0  0  0  0
    9.6320    1.7680   23.4930 C   0  0  0  0  0  0  0  0  0  0  0  0
   10.6650    2.8420   23.4580 C   0  0  0  0  0  0  0  0  0  0  0  0
   12.1370    2.4980   23.1710 C   0  0  0  0  0  0  0  0  0  0  0  0
   12.5260    1.1260   22.9390 C   0  0  0  0  0  0  0  0  0  0  0  0
   11.4350    1.6960   23.1920 C   0  0  0  0  0  0  0  0  0  0  0  0
  1  2  1  0
  2  3  1  0
  3  4  1  0
  4  5  1  0
  3  6  1  0
  6  7  1  0
  8  7  1  6
  8  9  1  0
  9 10  1  0
 10 11  2  0
 10 12  1  0
 12 13  1  0
 13 14  2  0
 14 15  1  0
 15 16  2  0
 16 17  1  0
 13 18  1  0
 17 18  2  0
  8 19  1  0
 19 20  2  0
 20 21  1  0
 21 22  2  0
 22 23  1  0
 19 24  1  0
 23 24  2  0
M  END
