pyridine_urea_15138
     RDKit          3D

 18 19  0  0  0  0  0  0  0  0999 V2000
   13.7280   -2.4170   24.0050 C   0  0  0  0  0  0  0  0  0  0  0  0
   12.5000   -1.6130   23.7440 C   0  0  0  0  0  0  0  0  0  0  0  0
   11.8240   -1.9490   22.4560 C   0  0  0  0  0  0  0  0  0  0  0  0
   10.5450   -1.2540   22.1440 C   0  0  0  0  0  0  0  0  0  0  0  0
    9.9830   -0.2380   23.1280 C   0  0  0  0  0  0  0  0  0  0  0  0
    8.7370    0.3890   22.8600 N   0  0  0  0  0  0  0  0  0  0  0  0
    8.4100    0.6880   21.5830 C   0  0  0  0  0  0  0  0  0  0  0  0
    8.9600    1.6160   21.0180 O   0  0  0  0  0  0  0  0  0  0  0  0
    7.4300   -0.1380   21.0920 N   0  0  0  0  0  0  0  0  0  0  0  0
    6.6590    0.2930   20.0290 C   0  0  0  0  0  0  0  0  0  0  0  0
    5.5100    1.0360   20.2790 C   0  0  0  0  0  0  0  0  0  0  0  0
    4.7420    1.5020   19.2400 C   0  0  0  0  0  0  0  0  0  0  0  0
    5.1120    1.2320   17.9570 C   0  0  0  0  0  0  0  0  0  0  0  0
    6.2050    0.5080   17.6750 N   0  0  0  0  0  0  0  0  0  0  0  0
    6.9540    0.0500   18.7050 C   0  0  0  0  0  0  0  0  0  0  0  0
   10.6170    0.1160   24.3010 C   0  0  0  0  0  0  0  0  0  0  0  0
   11.8880   -0.5680   24.6210 C   0  0  0  0  0  0  0  0  0  0  0  0
   12.6310   -0.3570   25.7260 O   0  0  0  0  0  0  0  0  0  0  0  0
  1  2  1  0
  2  3  2  0
  3  4  1  0
  4  5  2  0
  5  6  1  0
  6  7  1  0
  7  8  2  0
  7  9  1  0
  9 10  1  0
 10 11  2  0
 11 12  1  0
 12 13  2  0
 13 14  1  0
 10 15  1  0
 14 15  2  0
  5 16  1  0
  2 17  1  0
 16 17  2  0
 17 18  1  0
M  END
