pyridine_urea_6374
     RDKit          3D

 23 25  0  0  0  0  0  0  0  0999 V2000
    8.8580    0.6060   21.6380 O   0  0  0  0  0  0  0  0  0  0  0  0
    7.7870    0.0200   21.7610 C   0  0  0  0  0  0  0  0  0  0  0  0
    7.0440   -0.0230   22.9270 N   0  0  0  0  0  0  0  0  0  0  0  0
    6.2840   -1.2340   23.2710 C   0  0  0  0  0  0  0  0  0  0  0  0
    7.3800   -2.2430   23.3850 C   0  0  0  0  0  0  0  0  0  0  0  0
    8.5990   -1.7280   23.3720 N   0  0  0  0  0  0  0  0  0  0  0  0
    9.3630   -2.7490   23.4610 C   0  0  0  0  0  0  0  0  0  0  0  0
   10.5850   -2.1550   23.4340 C   0  0  0  0  0  0  0  0  0  0  0  0
   11.0220   -0.8920   22.7650 C   0  0  0  0  0  0  0  0  0  0  0  0
   12.3900   -0.4810   22.9470 C   0  0  0  0  0  0  0  0  0  0  0  0
   13.2680   -1.1840   23.6830 C   0  0  0  0  0  0  0  0  0  0  0  0
   12.7400   -2.4650   24.3160 C   0  0  0  0  0  0  0  0  0  0  0  0
   13.5910   -3.0680   24.9690 O   0  0  0  0  0  0  0  0  0  0  0  0
   11.4650   -3.0030   24.2450 C   0  0  0  0  0  0  0  0  0  0  0  0
    8.6130   -3.9690   23.5400 N   0  0  0  0  0  0  0  0  0  0  0  0
    7.3330   -3.6650   23.5000 O   0  0  0  0  0  0  0  0  0  0  0  0
    7.1130   -0.6630   20.8010 N   0  0  0  0  0  0  0  0  0  0  0  0
    6.4260    0.0040   19.8800 C   0  0  0  0  0  0  0  0  0  0  0  0
    5.2450    0.6790   20.0870 C   0  0  0  0  0  0  0  0  0  0  0  0
    4.3450    1.4980   19.1610 C   0  0  0  0  0  0  0  0  0  0  0  0
    5.2000    1.3240   17.9120 C   0  0  0  0  0  0  0  0  0  0  0  0
    6.3480    0.6750   17.6660 N   0  0  0  0  0  0  0  0  0  0  0  0
    6.9280    0.0320   18.6500 C   0  0  0  0  0  0  0  0  0  0  0  0
  1  2  2  0
  2  3  1  0
  3  4  1  0
  4  5  1  0
  5  6  2  0
  6  7  1  0
  7  8  1  0
  8  9  2  0
  9 10  1  0
 10 11  2  0
 11 12  1  0
 12 13  1  0
  8 14  1  0
 12 14  2  0
  7 15  2  0
  5 16  1  0
 15 16  1  0
  2 17  1  0
 17 18  1  0
 18 19  2  0
 19 20  1  0
 20 21  2  0
 21 22  1  0
 18 23  1  0
 22 23  2  0
M  END
