pyridine_urea_604
     RDKit          3D

 24 26  0  0  0  0  0  0  0  0999 V2000
    8.8300    1.3520   21.1580 O   0  0  0  0  0  0  0  0  0  0  0  0
    8.6100    0.1640   21.4110 C   0  0  0  0  0  0  0  0  0  0  0  0
    9.2780   -0.5820   22.3560 N   0  0  0  0  0  0  0  0  0  0  0  0
   10.6390   -0.4140   22.6120 C   0  0  0  0  0  0  0  0  0  0  0  0
   11.1630    0.8590   22.9200 C   0  0  0  0  0  0  0  0  0  0  0  0
   12.5240    0.9690   23.1580 C   0  0  0  0  0  0  0  0  0  0  0  0
   13.0460   -0.2500   23.0310 C   0  0  0  0  0  0  0  0  0  0  0  0
   12.8410   -1.5160   22.7750 N   0  0  0  0  0  0  0  0  0  0  0  0
   11.4990   -1.5570   22.5480 C   0  0  0  0  0  0  0  0  0  0  0  0
    7.6870   -0.6270   20.7860 N   0  0  0  0  0  0  0  0  0  0  0  0
    6.6620   -0.2170   19.9320 C   0  0  1  0  0  0  0  0  0  0  0  0
    5.5330    0.1020   20.6440 C   0  0  0  0  0  0  0  0  0  0  0  0
    4.4650    0.1660   19.8060 C   0  0  0  0  0  0  0  0  0  0  0  0
    4.8720   -0.1950   18.5330 C   0  0  0  0  0  0  0  0  0  0  0  0
    5.7080    0.7650   18.1290 N   0  0  0  0  0  0  0  0  0  0  0  0
    5.0690    1.9550   17.9730 C   0  0  0  0  0  0  0  0  0  0  0  0
    5.0330    2.5390   16.9290 O   0  0  0  0  0  0  0  0  0  0  0  0
    4.2700    2.4730   19.1670 C   0  0  0  0  0  0  0  0  0  0  0  0
    3.1580    1.7090   19.5220 C   0  0  0  0  0  0  0  0  0  0  0  0
    2.3090    2.0430   20.5930 C   0  0  0  0  0  0  0  0  0  0  0  0
    2.5610    3.1780   21.3530 C   0  0  0  0  0  0  0  0  0  0  0  0
    3.6630    3.9250   20.9970 C   0  0  0  0  0  0  0  0  0  0  0  0
    4.5050    3.6110   19.9490 C   0  0  0  0  0  0  0  0  0  0  0  0
    6.8250    0.7540   18.9390 C   0  0  0  0  0  0  0  0  0  0  0  0
  1  2  2  0
  2  3  1  0
  3  4  1  0
  4  5  2  0
  5  6  1  0
  6  7  2  0
  7  8  1  0
  4  9  1  0
  8  9  2  0
  2 10  1  0
 11 10  1  1
 11 12  1  0
 12 13  1  0
 13 14  1  0
 14 15  1  0
 15 16  1  0
 16 17  2  0
 16 18  1  0
 18 19  2  0
 19 20  1  0
 20 21  2  0
 21 22  1  0
 18 23  1  0
 22 23  2  0
 11 24  1  0
 15 24  1  0
M  END
