pyridine_urea_6237
     RDKit          3D

 24 26  0  0  0  0  0  0  0  0999 V2000
    8.9690    1.1980   23.9180 C   0  0  0  0  0  0  0  0  0  0  0  0
    9.8670    0.5040   24.3220 C   0  0  0  0  0  0  0  0  0  0  0  0
   10.5840   -0.4620   25.2720 C   0  0  0  0  0  0  0  0  0  0  0  0
    9.9500   -0.3780   23.0470 C   0  0  0  0  0  0  0  0  0  0  0  0
    8.5320   -0.3170   22.7690 N   0  0  0  0  0  0  0  0  0  0  0  0
    8.1460    0.2200   21.5670 C   0  0  0  0  0  0  0  0  0  0  0  0
    8.7640    1.4330   21.0270 O   0  0  0  0  0  0  0  0  0  0  0  0
    7.1590   -0.5140   21.0210 N   0  0  0  0  0  0  0  0  0  0  0  0
    6.5150    0.0670   19.9910 C   0  0  0  0  0  0  0  0  0  0  0  0
    5.2810    0.8400   20.2720 C   0  0  0  0  0  0  0  0  0  0  0  0
    4.5070    1.5000   19.3740 C   0  0  0  0  0  0  0  0  0  0  0  0
    5.1720    1.2790   18.0320 C   0  0  0  0  0  0  0  0  0  0  0  0
    6.2750    0.5900   17.7180 N   0  0  0  0  0  0  0  0  0  0  0  0
    6.9340   -0.0100   18.7040 C   0  0  0  0  0  0  0  0  0  0  0  0
   10.9580    1.5280   24.1020 C   0  0  0  0  0  0  0  0  0  0  0  0
   12.2740    1.4530   23.4880 C   0  0  0  0  0  0  0  0  0  0  0  0
   13.4240    0.7050   22.7740 C   0  0  0  0  0  0  0  0  0  0  0  0
   12.8200   -0.5660   22.7010 C   0  0  0  0  0  0  0  0  0  0  0  0
   11.5630   -0.7890   23.2290 C   0  0  0  0  0  0  0  0  0  0  0  0
   10.8180    0.1560   23.8170 C   0  0  0  0  0  0  0  0  0  0  0  0
   11.1700   -2.1100   23.0560 O   0  0  0  0  0  0  0  0  0  0  0  0
   11.5200   -2.2330   21.7000 C   0  0  0  0  0  0  0  0  0  0  0  0
   12.9050   -2.4570   21.6840 C   0  0  0  0  0  0  0  0  0  0  0  0
   13.6060   -1.5370   22.0560 O   0  0  0  0  0  0  0  0  0  0  0  0
  2  1  1  0
  2  3  1  0
  2  4  1  0
  4  5  1  0
  5  6  1  0
  6  7  2  0
  6  8  1  0
  8  9  1  0
  9 10  2  0
 10 11  1  0
 11 12  2  0
 12 13  1  0
  9 14  1  0
 13 14  2  0
  2 15  1  0
 15 16  2  0
 16 17  1  0
 17 18  2  0
 18 19  1  0
 15 20  1  0
 19 20  2  0
 19 21  1  0
 21 22  1  0
 22 23  1  0
 18 24  1  0
 23 24  1  0
M  END
