pyridine_urea_709
     RDKit          3D

 23 24  0  0  0  0  0  0  0  0999 V2000
   12.0650   -1.7590   21.8980 C   0  0  0  0  0  0  0  0  0  0  0  0
   11.8820   -0.4550   23.1230 S   0  0  0  0  0  0  0  0  0  0  0  0
   10.7510   -0.6320   24.0080 O   0  0  0  0  0  0  0  0  0  0  0  0
   12.1600    0.8360   22.5200 O   0  0  0  0  0  0  0  0  0  0  0  0
   13.2220   -0.7680   24.1240 C   0  0  0  0  0  0  0  0  0  0  0  0
   12.3700   -1.7110   24.4140 C   0  0  0  0  0  0  0  0  0  0  0  0
   11.1830   -1.6020   23.6650 C   0  0  0  0  0  0  0  0  0  0  0  0
   10.7930   -0.5960   22.6410 C   0  0  0  0  0  0  0  0  0  0  0  0
    9.7890   -1.5390   22.8440 C   0  0  1  0  0  0  0  0  0  0  0  0
    8.8590   -1.2040   24.0340 C   0  0  0  0  0  0  0  0  0  0  0  0
    7.9810   -2.0540   24.1650 O   0  0  0  0  0  0  0  0  0  0  0  0
    9.0120   -1.3820   21.6180 N   0  0  0  0  0  0  0  0  0  0  0  0
    8.2440   -0.2690   21.3750 C   0  0  0  0  0  0  0  0  0  0  0  0
    8.7140    0.8630   21.3010 O   0  0  0  0  0  0  0  0  0  0  0  0
    6.8460   -0.6370   21.2220 N   0  0  0  0  0  0  0  0  0  0  0  0
    6.2630    0.0590   20.0630 C   0  0  0  0  0  0  0  0  0  0  0  0
    5.0890    0.7740   20.2720 C   0  0  0  0  0  0  0  0  0  0  0  0
    4.5550    1.4370   19.1800 C   0  0  0  0  0  0  0  0  0  0  0  0
    5.2340    1.3630   17.8760 C   0  0  0  0  0  0  0  0  0  0  0  0
    6.3660    0.6560   17.7170 N   0  0  0  0  0  0  0  0  0  0  0  0
    6.8590    0.0150   18.8050 C   0  0  0  0  0  0  0  0  0  0  0  0
   12.1100    0.3030   22.6450 C   0  0  0  0  0  0  0  0  0  0  0  0
   13.2830    0.2520   23.3280 C   0  0  0  0  0  0  0  0  0  0  0  0
  2  1  1  0
  2  3  2  0
  2  4  2  0
  2  5  1  0
  5  6  2  0
  6  7  1  0
  7  8  2  0
  8  9  1  0
  9 10  1  1
 10 11  1  0
  9 12  1  0
 12 13  1  0
 13 14  2  0
 13 15  1  0
 15 16  1  0
 16 17  2  0
 17 18  1  0
 18 19  2  0
 19 20  1  0
 16 21  1  0
 20 21  2  0
  8 22  1  0
  5 23  1  0
 22 23  2  0
M  END
