pyridine_urea_2089
     RDKit          3D

 18 19  0  0  0  0  0  0  0  0999 V2000
   10.9320   -2.0230   24.1570 C   0  0  0  0  0  0  0  0  0  0  0  0
   11.3980   -0.9690   23.1180 C   0  0  1  0  0  0  0  0  0  0  0  0
   10.2950    0.0740   23.0490 C   0  0  0  0  0  0  0  0  0  0  0  0
    9.0210   -0.5020   22.4960 N   0  0  0  0  0  0  0  0  0  0  0  0
    8.4010    0.2150   21.5120 C   0  0  0  0  0  0  0  0  0  0  0  0
    8.8410    1.3140   21.1540 O   0  0  0  0  0  0  0  0  0  0  0  0
    7.2830   -0.4150   21.0330 N   0  0  0  0  0  0  0  0  0  0  0  0
    6.5380    0.1520   20.0030 C   0  0  0  0  0  0  0  0  0  0  0  0
    5.3770    0.8510   20.3120 C   0  0  0  0  0  0  0  0  0  0  0  0
    4.6530    1.4360   19.2760 C   0  0  0  0  0  0  0  0  0  0  0  0
    5.1400    1.2830   17.9840 C   0  0  0  0  0  0  0  0  0  0  0  0
    6.2410    0.6100   17.6620 N   0  0  0  0  0  0  0  0  0  0  0  0
    6.9140    0.0590   18.6840 C   0  0  0  0  0  0  0  0  0  0  0  0
   12.7540   -0.3250   23.4970 C   0  0  0  0  0  0  0  0  0  0  0  0
   13.6300   -1.3900   23.6430 O   0  0  0  0  0  0  0  0  0  0  0  0
   13.3060   -2.5190   22.9290 C   0  0  0  0  0  0  0  0  0  0  0  0
   12.8280   -2.1260   21.6460 C   0  0  0  0  0  0  0  0  0  0  0  0
   11.5210   -1.5940   21.8370 O   0  0  0  0  0  0  0  0  0  0  0  0
  2  1  1  1
  2  3  1  0
  3  4  1  0
  4  5  1  0
  5  6  2  0
  5  7  1  0
  7  8  1  0
  8  9  2  0
  9 10  1  0
 10 11  2  0
 11 12  1  0
  8 13  1  0
 12 13  2  0
  2 14  1  0
 14 15  1  0
 15 16  1  0
 16 17  1  0
  2 18  1  0
 17 18  1  0
M  END
