pyridine_urea_4175
     RDKit          3D

 25 26  0  0  0  0  0  0  0  0999 V2000
   12.5500   -1.7040   24.8690 C   0  0  0  0  0  0  0  0  0  0  0  0
   11.9190   -0.4280   25.0310 O   0  0  0  0  0  0  0  0  0  0  0  0
   10.5480   -0.4390   25.2770 C   0  0  0  0  0  0  0  0  0  0  0  0
   10.0510   -0.1070   26.3500 O   0  0  0  0  0  0  0  0  0  0  0  0
    9.7130   -0.8720   24.2510 C   0  0  0  0  0  0  0  0  0  0  0  0
    9.9960   -0.4110   23.0060 C   0  0  2  0  0  0  0  0  0  0  0  0
    9.2610   -0.8370   21.9010 N   0  0  0  0  0  0  0  0  0  0  0  0
    8.3500   -0.0120   21.2740 C   0  0  0  0  0  0  0  0  0  0  0  0
    8.6130    1.1610   20.9910 O   0  0  0  0  0  0  0  0  0  0  0  0
    7.1870   -0.6360   21.0210 N   0  0  0  0  0  0  0  0  0  0  0  0
    6.5070   -0.0090   20.0370 C   0  0  0  0  0  0  0  0  0  0  0  0
    5.3360    0.6800   20.3600 C   0  0  0  0  0  0  0  0  0  0  0  0
    4.6000    1.4000   19.2190 C   0  0  0  0  0  0  0  0  0  0  0  0
    5.1560    1.3070   17.9720 C   0  0  0  0  0  0  0  0  0  0  0  0
    6.2820    0.6250   17.7110 N   0  0  0  0  0  0  0  0  0  0  0  0
    6.9190   -0.0060   18.7220 C   0  0  0  0  0  0  0  0  0  0  0  0
   11.3480   -0.4330   22.8970 C   0  0  0  0  0  0  0  0  0  0  0  0
   12.7060   -0.0930   22.7910 C   0  0  0  0  0  0  0  0  0  0  0  0
   13.3290    1.1270   22.7420 C   0  0  0  0  0  0  0  0  0  0  0  0
   12.5160    2.3560   22.7710 C   0  0  0  0  0  0  0  0  0  0  0  0
   13.1190    3.7660   22.6900 C   0  0  0  0  0  0  0  0  0  0  0  0
   12.4770    4.9400   23.0660 C   0  0  0  0  0  0  0  0  0  0  0  0
   12.7180    4.6400   21.6730 C   0  0  0  0  0  0  0  0  0  0  0  0
   11.2240    2.1520   22.8600 C   0  0  0  0  0  0  0  0  0  0  0  0
   10.7410    0.8710   22.9190 C   0  0  0  0  0  0  0  0  0  0  0  0
  1  2  1  0
  2  3  1  0
  3  4  2  0
  3  5  1  0
  6  5  1  1
  6  7  1  0
  7  8  1  0
  8  9  2  0
  8 10  1  0
 10 11  1  0
 11 12  2  0
 12 13  1  0
 13 14  2  0
 14 15  1  0
 11 16  1  0
 15 16  2  0
  6 17  1  0
 17 18  2  0
 18 19  1  0
 19 20  2  0
 20 21  1  0
 21 22  1  0
 21 23  1  0
 20 24  1  0
 17 25  1  0
 24 25  2  0
M  END
