pyridine_urea_1274
     RDKit          3D

 20 22  0  0  0  0  0  0  0  0999 V2000
    8.6700    1.3370   20.9530 O   0  0  0  0  0  0  0  0  0  0  0  0
    8.5990    0.2130   21.4500 C   0  0  0  0  0  0  0  0  0  0  0  0
    7.5660   -0.6170   21.0880 N   0  0  0  0  0  0  0  0  0  0  0  0
    6.7820   -0.0570   20.0070 C   0  0  0  0  0  0  0  0  0  0  0  0
    5.5330    0.7540   20.4000 C   0  0  0  0  0  0  0  0  0  0  0  0
    4.7370    1.3510   19.4200 C   0  0  0  0  0  0  0  0  0  0  0  0
    5.1200    1.1830   18.0920 C   0  0  0  0  0  0  0  0  0  0  0  0
    6.2320    0.4470   17.7830 N   0  0  0  0  0  0  0  0  0  0  0  0
    7.0730   -0.1810   18.7100 C   0  0  0  0  0  0  0  0  0  0  0  0
    9.4870   -0.2540   22.3920 N   0  0  0  0  0  0  0  0  0  0  0  0
   10.3860   -0.4890   23.3910 C   0  0  2  0  0  0  0  0  0  0  0  0
   10.2380    0.6370   24.1710 C   0  0  0  0  0  0  0  0  0  0  0  0
   11.2170    1.5000   23.7340 C   0  0  0  0  0  0  0  0  0  0  0  0
   12.2880    0.7130   23.3170 C   0  0  0  0  0  0  0  0  0  0  0  0
   11.7980   -0.6030   23.3490 C   0  0  0  0  0  0  0  0  0  0  0  0
   12.1430   -1.3200   24.6240 C   0  0  0  0  0  0  0  0  0  0  0  0
   12.2700   -2.6740   24.6010 C   0  0  0  0  0  0  0  0  0  0  0  0
   12.3550   -3.1300   23.4880 O   0  0  0  0  0  0  0  0  0  0  0  0
   13.0900   -2.3270   22.5940 C   0  0  0  0  0  0  0  0  0  0  0  0
   12.3570   -1.2230   22.2370 C   0  0  0  0  0  0  0  0  0  0  0  0
  1  2  2  0
  2  3  1  0
  3  4  1  0
  4  5  2  0
  5  6  1  0
  6  7  2  0
  7  8  1  0
  4  9  1  0
  8  9  2  0
  2 10  1  0
 11 10  1  6
 11 12  1  0
 12 13  1  0
 13 14  1  0
 11 15  1  0
 15 14  1  0
 15 16  1  0
 16 17  1  0
 17 18  1  0
 18 19  1  0
 15 20  1  0
 19 20  1  0
M  END
