pyridine_urea_14321
     RDKit          3D

 22 24  0  0  0  0  0  0  0  0999 V2000
    8.9980    1.3460   21.2150 O   0  0  0  0  0  0  0  0  0  0  0  0
    8.5470    0.2540   21.5800 C   0  0  0  0  0  0  0  0  0  0  0  0
    9.1410   -0.4970   22.6780 N   0  0  0  0  0  0  0  0  0  0  0  0
   10.4530   -0.2020   23.0830 C   0  0  0  0  0  0  0  0  0  0  0  0
   11.4260   -1.0810   22.6390 C   0  0  0  0  0  0  0  0  0  0  0  0
   11.0260   -1.9410   21.6700 C   0  0  0  0  0  0  0  0  0  0  0  0
   11.9290   -2.8530   21.1880 C   0  0  0  0  0  0  0  0  0  0  0  0
   11.6430   -3.6650   20.0370 C   0  0  0  0  0  0  0  0  0  0  0  0
   12.5530   -4.5560   19.5280 C   0  0  0  0  0  0  0  0  0  0  0  0
   13.8010   -4.7890   20.1980 C   0  0  0  0  0  0  0  0  0  0  0  0
   13.9760   -4.0760   21.2390 C   0  0  0  0  0  0  0  0  0  0  0  0
   13.1110   -3.0710   21.7660 C   0  0  0  0  0  0  0  0  0  0  0  0
   13.4150   -2.2940   22.8860 N   0  0  0  0  0  0  0  0  0  0  0  0
   12.6800   -1.1260   23.1220 C   0  0  0  0  0  0  0  0  0  0  0  0
   13.1350   -0.1810   23.7320 O   0  0  0  0  0  0  0  0  0  0  0  0
    7.4480   -0.3960   21.0530 N   0  0  0  0  0  0  0  0  0  0  0  0
    6.6480    0.1570   20.1120 C   0  0  0  0  0  0  0  0  0  0  0  0
    5.5120    0.9340   20.3790 C   0  0  0  0  0  0  0  0  0  0  0  0
    4.7490    1.4890   19.3400 C   0  0  0  0  0  0  0  0  0  0  0  0
    5.1480    1.2500   18.0350 C   0  0  0  0  0  0  0  0  0  0  0  0
    6.2190    0.5060   17.7230 N   0  0  0  0  0  0  0  0  0  0  0  0
    6.9800   -0.0520   18.7870 C   0  0  0  0  0  0  0  0  0  0  0  0
  1  2  2  0
  2  3  1  0
  3  4  1  0
  4  5  1  0
  5  6  2  0
  6  7  1  0
  7  8  2  0
  8  9  1  0
  9 10  2  0
 10 11  1  0
  7 12  1  0
 11 12  2  0
 12 13  1  0
  5 14  1  0
 13 14  1  0
 14 15  2  0
  2 16  1  0
 16 17  1  0
 17 18  2  0
 18 19  1  0
 19 20  2  0
 20 21  1  0
 17 22  1  0
 21 22  2  0
M  END
