pyridine_urea_14475
     RDKit          3D

 21 23  0  0  0  0  0  0  0  0999 V2000
   10.0390   -2.4980   23.2850 C   0  0  0  0  0  0  0  0  0  0  0  0
   10.8280   -1.8010   22.2730 N   0  0  0  0  0  0  0  0  0  0  0  0
   12.0510   -2.3600   21.9870 C   0  0  0  0  0  0  0  0  0  0  0  0
   13.3320   -1.7900   22.1700 C   0  0  0  0  0  0  0  0  0  0  0  0
   13.4820   -0.6920   22.7060 O   0  0  0  0  0  0  0  0  0  0  0  0
   12.3740   -0.0220   22.9060 C   0  0  0  0  0  0  0  0  0  0  0  0
   12.4810    1.2680   23.3390 C   0  0  0  0  0  0  0  0  0  0  0  0
   11.3030    2.1460   23.6230 C   0  0  0  0  0  0  0  0  0  0  0  0
    9.9270    1.5410   23.3860 C   0  0  0  0  0  0  0  0  0  0  0  0
    9.9410    0.1140   22.8850 C   0  0  0  0  0  0  0  0  0  0  0  0
    8.6940   -0.5430   22.5860 N   0  0  0  0  0  0  0  0  0  0  0  0
    7.9620   -0.1240   21.5090 C   0  0  0  0  0  0  0  0  0  0  0  0
    8.3700    0.9360   21.0460 O   0  0  0  0  0  0  0  0  0  0  0  0
    6.9550   -0.8880   21.1520 N   0  0  0  0  0  0  0  0  0  0  0  0
    6.3970   -0.1570   20.0760 C   0  0  0  0  0  0  0  0  0  0  0  0
    5.2250    0.5770   20.3050 C   0  0  0  0  0  0  0  0  0  0  0  0
    4.6540    1.3100   19.2710 C   0  0  0  0  0  0  0  0  0  0  0  0
    5.2690    1.2910   18.0360 C   0  0  0  0  0  0  0  0  0  0  0  0
    6.3900    0.5970   17.7850 N   0  0  0  0  0  0  0  0  0  0  0  0
    6.9280   -0.1120   18.8020 C   0  0  0  0  0  0  0  0  0  0  0  0
   11.1460   -0.4900   22.7170 C   0  0  0  0  0  0  0  0  0  0  0  0
  1  2  1  0
  2  3  1  0
  3  4  1  0
  4  5  1  0
  5  6  1  0
  6  7  1  0
  7  8  2  0
  8  9  1  0
  9 10  2  0
 10 11  1  0
 11 12  1  0
 12 13  2  0
 12 14  1  0
 14 15  1  0
 15 16  2  0
 16 17  1  0
 17 18  2  0
 18 19  1  0
 15 20  1  0
 19 20  2  0
  2 21  1  0
  6 21  2  0
 10 21  1  0
M  END
