pyridine_urea_6846
     RDKit          3D

 21 22  0  0  0  0  0  0  0  0999 V2000
    9.0080    1.2460   21.1690 O   0  0  0  0  0  0  0  0  0  0  0  0
    8.4290    0.2560   21.6270 C   0  0  0  0  0  0  0  0  0  0  0  0
    8.7110   -0.3030   22.8530 N   0  0  0  0  0  0  0  0  0  0  0  0
    9.2960   -1.5400   23.1780 C   0  0  0  0  0  0  0  0  0  0  0  0
   10.4220   -2.2090   22.3610 C   0  0  1  0  0  0  0  0  0  0  0  0
    9.8230   -2.7190   21.4280 O   0  0  0  0  0  0  0  0  0  0  0  0
   11.5620   -1.2200   22.2480 C   0  0  0  0  0  0  0  0  0  0  0  0
   12.5860   -0.7650   22.8870 C   0  0  0  0  0  0  0  0  0  0  0  0
   13.6850    0.3770   22.5650 Cl  0  0  0  0  0  0  0  0  0  0  0  0
   12.5150   -1.5160   24.0340 C   0  0  0  0  0  0  0  0  0  0  0  0
   11.5440   -2.5960   24.5010 C   0  0  0  0  0  0  0  0  0  0  0  0
   12.5300   -2.0090   24.8420 C   0  0  0  0  0  0  0  0  0  0  0  0
   12.2630   -1.4510   23.5660 C   0  0  0  0  0  0  0  0  0  0  0  0
   11.0020   -2.6240   23.7840 Cl  0  0  0  0  0  0  0  0  0  0  0  0
    7.3910   -0.4160   21.0140 N   0  0  0  0  0  0  0  0  0  0  0  0
    6.5770    0.1770   20.0410 C   0  0  0  0  0  0  0  0  0  0  0  0
    5.3970    0.9200   20.3240 C   0  0  0  0  0  0  0  0  0  0  0  0
    4.5700    1.5500   19.3270 C   0  0  0  0  0  0  0  0  0  0  0  0
    5.1350    1.3120   17.9310 C   0  0  0  0  0  0  0  0  0  0  0  0
    6.2570    0.5880   17.7110 N   0  0  0  0  0  0  0  0  0  0  0  0
    6.9690    0.0260   18.7390 C   0  0  0  0  0  0  0  0  0  0  0  0
  1  2  2  0
  2  3  1  0
  3  4  1  0
  4  5  1  0
  5  6  1  6
  5  7  1  0
  7  8  2  0
  8  9  1  0
  8 10  1  0
 10 11  2  0
 11 12  1  0
  7 13  1  0
 12 13  2  0
 13 14  1  0
  2 15  1  0
 15 16  1  0
 16 17  2  0
 17 18  1  0
 18 19  2  0
 19 20  1  0
 16 21  1  0
 20 21  2  0
M  END
