pyridine_urea_3914
     RDKit          3D

 27 29  0  0  0  0  0  0  0  0999 V2000
    8.7480    1.4810   21.2000 O   0  0  0  0  0  0  0  0  0  0  0  0
    8.4460    0.2900   21.1340 C   0  0  0  0  0  0  0  0  0  0  0  0
    7.1900   -0.2100   21.0360 N   0  0  0  0  0  0  0  0  0  0  0  0
    6.4470    0.2780   19.9950 C   0  0  0  0  0  0  0  0  0  0  0  0
    5.2630    0.9560   20.2480 C   0  0  0  0  0  0  0  0  0  0  0  0
    4.5470    1.4770   19.1810 C   0  0  0  0  0  0  0  0  0  0  0  0
    5.0630    1.2850   17.9170 C   0  0  0  0  0  0  0  0  0  0  0  0
    6.1870    0.6220   17.6550 N   0  0  0  0  0  0  0  0  0  0  0  0
    6.8560    0.1330   18.6980 C   0  0  0  0  0  0  0  0  0  0  0  0
    9.4070   -0.6580   21.1000 N   0  0  0  0  0  0  0  0  0  0  0  0
   10.0320   -0.9270   22.2790 C   0  0  0  0  0  0  0  0  0  0  0  0
   11.5050   -1.2510   22.4010 C   0  0  0  0  0  0  0  0  0  0  0  0
   11.8660   -1.4760   23.6890 C   0  0  0  0  0  0  0  0  0  0  0  0
   13.4540   -1.8860   24.1150 Cl  0  0  0  0  0  0  0  0  0  0  0  0
   10.9220   -1.3950   24.7280 C   0  0  0  0  0  0  0  0  0  0  0  0
    9.5360   -1.0930   24.5120 C   0  0  0  0  0  0  0  0  0  0  0  0
    8.3920   -1.0170   25.3620 C   0  0  0  0  0  0  0  0  0  0  0  0
    8.0820   -0.0230   26.3070 C   0  0  0  0  0  0  0  0  0  0  0  0
    6.7880   -0.2410   27.0440 C   0  0  0  0  0  0  0  0  0  0  0  0
    5.8910   -1.4310   26.7810 C   0  0  0  0  0  0  0  0  0  0  0  0
    6.2880   -2.3360   25.8270 C   0  0  0  0  0  0  0  0  0  0  0  0
    5.5080   -3.4590   25.5310 C   0  0  0  0  0  0  0  0  0  0  0  0
    5.3660   -4.2810   26.6080 F   0  0  0  0  0  0  0  0  0  0  0  0
    4.2420   -3.1380   25.1440 F   0  0  0  0  0  0  0  0  0  0  0  0
    6.0160   -4.2380   24.5340 F   0  0  0  0  0  0  0  0  0  0  0  0
    7.5000   -2.1150   25.1520 C   0  0  0  0  0  0  0  0  0  0  0  0
    9.1710   -0.8650   23.2750 C   0  0  0  0  0  0  0  0  0  0  0  0
  1  2  2  0
  2  3  1  0
  3  4  1  0
  4  5  2  0
  5  6  1  0
  6  7  2  0
  7  8  1  0
  4  9  1  0
  8  9  2  0
  2 10  1  0
 10 11  1  0
 11 12  2  0
 12 13  1  0
 13 14  1  0
 13 15  2  0
 15 16  1  0
 16 17  1  0
 17 18  2  0
 18 19  1  0
 19 20  2  0
 20 21  1  0
 21 22  1  0
 22 23  1  0
 22 24  1  0
 22 25  1  0
 17 26  1  0
 21 26  2  0
 11 27  1  0
 16 27  2  0
M  END
