pyridine_urea_8820
     RDKit          3D

 20 22  0  0  0  0  0  0  0  0999 V2000
    8.6150    0.7980   21.2190 O   0  0  0  0  0  0  0  0  0  0  0  0
    8.2820   -0.3850   21.2370 C   0  0  0  0  0  0  0  0  0  0  0  0
    9.1770   -1.3360   21.6060 N   0  0  0  0  0  0  0  0  0  0  0  0
   10.2930   -0.7240   22.2580 C   0  0  0  0  0  0  0  0  0  0  0  0
   11.5700   -1.5340   22.4690 C   0  0  0  0  0  0  0  0  0  0  0  0
   12.2600   -0.9540   23.5070 C   0  0  1  0  0  0  0  0  0  0  0  0
   12.4730    0.3750   23.3010 C   0  0  0  0  0  0  0  0  0  0  0  0
   11.3140    0.9190   23.8170 C   0  0  0  0  0  0  0  0  0  0  0  0
   10.6340   -0.1690   24.4150 C   0  0  0  0  0  0  0  0  0  0  0  0
    9.8740    0.1020   25.5530 C   0  0  0  0  0  0  0  0  0  0  0  0
    8.7760   -0.4400   24.9950 C   0  0  0  0  0  0  0  0  0  0  0  0
    9.4570   -0.7240   23.8240 C   0  0  0  0  0  0  0  0  0  0  0  0
   11.5360   -1.0350   24.5210 O   0  0  0  0  0  0  0  0  0  0  0  0
    7.0560   -0.8390   20.8850 N   0  0  0  0  0  0  0  0  0  0  0  0
    6.3870   -0.1090   19.9180 C   0  0  0  0  0  0  0  0  0  0  0  0
    5.0950    0.5950   20.1820 C   0  0  0  0  0  0  0  0  0  0  0  0
    4.4750    1.3300   19.2050 C   0  0  0  0  0  0  0  0  0  0  0  0
    5.1250    1.3820   17.9460 C   0  0  0  0  0  0  0  0  0  0  0  0
    6.2840    0.7620   17.6490 N   0  0  0  0  0  0  0  0  0  0  0  0
    6.8560    0.0480   18.6410 C   0  0  0  0  0  0  0  0  0  0  0  0
  1  2  2  0
  2  3  1  0
  3  4  1  0
  4  5  1  0
  6  5  1  6
  6  7  1  0
  7  8  1  0
  8  9  1  0
  9 10  1  0
 10 11  1  0
  9 12  1  0
 11 12  1  0
  6 13  1  0
  9 13  1  0
  2 14  1  0
 14 15  1  0
 15 16  2  0
 16 17  1  0
 17 18  2  0
 18 19  1  0
 15 20  1  0
 19 20  2  0
M  END
