pyridine_urea_1265
     RDKit          3D

 21 23  0  0  0  0  0  0  0  0999 V2000
   13.6050   -2.8970   23.0950 C   0  0  0  0  0  0  0  0  0  0  0  0
   13.3990   -1.6610   23.4680 N   0  0  0  0  0  0  0  0  0  0  0  0
   13.3130   -1.5530   24.8850 C   0  0  0  0  0  0  0  0  0  0  0  0
   13.9470   -2.3000   25.9200 O   0  0  0  0  0  0  0  0  0  0  0  0
   12.3310   -0.4500   25.1000 C   0  0  0  0  0  0  0  0  0  0  0  0
   11.5630   -0.5300   24.0800 C   0  0  0  0  0  0  0  0  0  0  0  0
   10.3370    0.0190   24.1040 C   0  0  0  0  0  0  0  0  0  0  0  0
    9.6460   -0.1850   22.9630 C   0  0  0  0  0  0  0  0  0  0  0  0
    8.4130    0.2290   22.7400 N   0  0  0  0  0  0  0  0  0  0  0  0
    7.9990    0.5060   21.4700 C   0  0  0  0  0  0  0  0  0  0  0  0
    8.4800    1.4460   20.8450 O   0  0  0  0  0  0  0  0  0  0  0  0
    7.0640   -0.3330   21.0060 N   0  0  0  0  0  0  0  0  0  0  0  0
    6.4420    0.2050   19.9660 C   0  0  0  0  0  0  0  0  0  0  0  0
    5.2840    0.9150   20.1630 C   0  0  0  0  0  0  0  0  0  0  0  0
    4.5920    1.5250   19.1370 C   0  0  0  0  0  0  0  0  0  0  0  0
    5.1420    1.3810   17.8630 C   0  0  0  0  0  0  0  0  0  0  0  0
    6.2670    0.6830   17.6300 N   0  0  0  0  0  0  0  0  0  0  0  0
    6.8940    0.1090   18.6750 C   0  0  0  0  0  0  0  0  0  0  0  0
   10.3000   -0.9560   21.8040 C   0  0  0  0  0  0  0  0  0  0  0  0
   11.5930   -1.4760   21.8850 C   0  0  0  0  0  0  0  0  0  0  0  0
   12.1640   -1.2350   23.0580 C   0  0  0  0  0  0  0  0  0  0  0  0
  1  2  1  0
  2  3  1  0
  3  4  2  0
  3  5  1  0
  5  6  1  0
  6  7  2  0
  7  8  1  0
  8  9  1  0
  9 10  1  0
 10 11  2  0
 10 12  1  0
 12 13  1  0
 13 14  2  0
 14 15  1  0
 15 16  2  0
 16 17  1  0
 13 18  1  0
 17 18  2  0
  8 19  2  0
 19 20  1  0
  2 21  1  0
  6 21  1  0
 20 21  2  0
M  END
