pyridine_urea_2427
     RDKit          3D

 25 27  0  0  0  0  0  0  0  0999 V2000
    8.6450    0.9610   21.3790 O   0  0  0  0  0  0  0  0  0  0  0  0
    8.2920   -0.1950   21.5450 C   0  0  0  0  0  0  0  0  0  0  0  0
    7.1320   -0.7210   21.0560 N   0  0  0  0  0  0  0  0  0  0  0  0
    6.4560   -0.0600   20.0280 C   0  0  0  0  0  0  0  0  0  0  0  0
    5.2680    0.6280   20.3000 C   0  0  0  0  0  0  0  0  0  0  0  0
    4.6040    1.3050   19.2710 C   0  0  0  0  0  0  0  0  0  0  0  0
    5.1600    1.2650   18.0070 C   0  0  0  0  0  0  0  0  0  0  0  0
    6.2950    0.6070   17.7270 N   0  0  0  0  0  0  0  0  0  0  0  0
    6.9120   -0.0380   18.7320 C   0  0  0  0  0  0  0  0  0  0  0  0
    9.0710   -1.0740   22.2450 N   0  0  0  0  0  0  0  0  0  0  0  0
   10.4170   -0.5490   22.4710 C   0  0  0  0  0  0  0  0  0  0  0  0
   11.6460   -1.4110   22.2540 C   0  0  0  0  0  0  0  0  0  0  0  0
   12.9110   -0.8420   22.4740 C   0  0  0  0  0  0  0  0  0  0  0  0
   13.0400    0.4960   22.8830 C   0  0  0  0  0  0  0  0  0  0  0  0
   11.9290    1.3010   23.0890 C   0  0  0  0  0  0  0  0  0  0  0  0
   12.1750    2.6380   23.5140 O   0  0  0  0  0  0  0  0  0  0  0  0
   12.0690    3.7330   22.6100 C   0  0  0  0  0  0  0  0  0  0  0  0
   11.2080    4.7070   23.1460 C   0  0  0  0  0  0  0  0  0  0  0  0
   10.5370    4.4650   24.3370 C   0  0  0  0  0  0  0  0  0  0  0  0
    9.6820    5.4270   24.8550 C   0  0  0  0  0  0  0  0  0  0  0  0
    9.5050    6.6190   24.1700 C   0  0  0  0  0  0  0  0  0  0  0  0
    8.6450    7.5100   24.7400 F   0  0  0  0  0  0  0  0  0  0  0  0
   10.1720    6.8640   22.9820 C   0  0  0  0  0  0  0  0  0  0  0  0
   11.0420    5.9040   22.4580 C   0  0  0  0  0  0  0  0  0  0  0  0
   10.6230    0.8590   22.9100 C   0  0  0  0  0  0  0  0  0  0  0  0
  1  2  2  0
  2  3  1  0
  3  4  1  0
  4  5  2  0
  5  6  1  0
  6  7  2  0
  7  8  1  0
  4  9  1  0
  8  9  2  0
  2 10  1  0
 10 11  1  0
 11 12  2  0
 12 13  1  0
 13 14  2  0
 14 15  1  0
 15 16  1  0
 16 17  1  0
 17 18  1  0
 18 19  2  0
 19 20  1  0
 20 21  2  0
 21 22  1  0
 21 23  1  0
 18 24  1  0
 23 24  2  0
 11 25  1  0
 15 25  2  0
M  END
