pyridine_urea_3259
     RDKit          3D

 20 21  0  0  0  0  0  0  0  0999 V2000
   10.4470    1.0780   22.6350 C   0  0  0  0  0  0  0  0  0  0  0  0
   10.3380   -0.4310   22.6850 C   0  0  0  0  0  0  0  0  0  0  0  0
   10.6090   -1.2160   21.6080 C   0  0  0  0  0  0  0  0  0  0  0  0
    8.9220   -0.6960   22.8840 N   0  0  0  0  0  0  0  0  0  0  0  0
    8.2850   -0.0740   21.7940 C   0  0  0  0  0  0  0  0  0  0  0  0
    8.6510    1.0000   21.3330 O   0  0  0  0  0  0  0  0  0  0  0  0
    7.1400   -0.7930   21.2180 N   0  0  0  0  0  0  0  0  0  0  0  0
    6.4890   -0.1380   20.1780 C   0  0  0  0  0  0  0  0  0  0  0  0
    5.1980    0.6210   20.4770 C   0  0  0  0  0  0  0  0  0  0  0  0
    4.5830    1.2780   19.4120 C   0  0  0  0  0  0  0  0  0  0  0  0
    5.2480    1.1860   18.0360 C   0  0  0  0  0  0  0  0  0  0  0  0
    6.3850    0.4990   17.8250 N   0  0  0  0  0  0  0  0  0  0  0  0
    6.9700   -0.1390   18.8730 C   0  0  0  0  0  0  0  0  0  0  0  0
   11.3690   -1.0300   23.6380 C   0  0  0  0  0  0  0  0  0  0  0  0
   11.2750   -2.0300   24.3560 C   0  0  0  0  0  0  0  0  0  0  0  0
   12.5090   -1.6990   24.6590 C   0  0  0  0  0  0  0  0  0  0  0  0
   12.0160   -0.6240   23.5990 C   0  0  0  0  0  0  0  0  0  0  0  0
   10.7990   -0.6880   23.0840 F   0  0  0  0  0  0  0  0  0  0  0  0
   12.9360    0.3950   23.2360 C   0  0  0  0  0  0  0  0  0  0  0  0
   12.7830   -0.6070   23.9540 C   0  0  0  0  0  0  0  0  0  0  0  0
  1  2  1  0
  2  3  1  0
  2  4  1  0
  4  5  1  0
  5  6  2  0
  5  7  1  0
  7  8  1  0
  8  9  2  0
  9 10  1  0
 10 11  2  0
 11 12  1  0
  8 13  1  0
 12 13  2  0
  2 14  1  0
 14 15  2  0
 15 16  1  0
 16 17  2  0
 17 18  1  0
 17 19  1  0
 14 20  1  0
 19 20  2  0
M  END
