pyridine_urea_2441
     RDKit          3D

 24 26  0  0  0  0  0  0  0  0999 V2000
    9.0150    0.8890   21.4100 O   0  0  0  0  0  0  0  0  0  0  0  0
    8.5200   -0.2020   21.6460 C   0  0  0  0  0  0  0  0  0  0  0  0
    9.0660   -1.1690   22.4570 N   0  0  0  0  0  0  0  0  0  0  0  0
    9.4780   -1.0020   23.8020 C   0  0  0  0  0  0  0  0  0  0  0  0
    9.8640   -2.1430   24.5170 C   0  0  0  0  0  0  0  0  0  0  0  0
   11.1840   -2.4260   24.7540 N   0  0  0  0  0  0  0  0  0  0  0  0
   11.2190   -3.5890   25.4700 N   0  0  0  0  0  0  0  0  0  0  0  0
    9.9780   -3.9960   25.6590 C   0  0  0  0  0  0  0  0  0  0  0  0
    9.1030   -3.1260   25.0820 N   0  0  0  0  0  0  0  0  0  0  0  0
    7.6670   -3.2980   25.1180 C   0  0  0  0  0  0  0  0  0  0  0  0
    7.3060   -4.1150   26.2020 C   0  0  1  0  0  0  0  0  0  0  0  0
    5.9590   -4.5040   26.2060 C   0  0  0  0  0  0  0  0  0  0  0  0
    5.5440   -4.8380   24.9660 F   0  0  0  0  0  0  0  0  0  0  0  0
    5.1720   -3.4980   26.6410 F   0  0  0  0  0  0  0  0  0  0  0  0
    5.7430   -5.5650   27.0090 F   0  0  0  0  0  0  0  0  0  0  0  0
    8.1530   -5.4030   26.0770 C   0  0  0  0  0  0  0  0  0  0  0  0
    9.5130   -5.1350   26.3340 C   0  0  0  0  0  0  0  0  0  0  0  0
    7.2960   -0.6200   21.1280 N   0  0  0  0  0  0  0  0  0  0  0  0
    6.5360    0.0500   20.0610 C   0  0  0  0  0  0  0  0  0  0  0  0
    5.4090    0.7500   20.4170 C   0  0  0  0  0  0  0  0  0  0  0  0
    4.7380    1.3660   19.3980 C   0  0  0  0  0  0  0  0  0  0  0  0
    5.1770    1.2840   18.0890 C   0  0  0  0  0  0  0  0  0  0  0  0
    6.2940    0.5860   17.6920 N   0  0  0  0  0  0  0  0  0  0  0  0
    6.9020    0.0120   18.7240 C   0  0  0  0  0  0  0  0  0  0  0  0
  1  2  2  0
  2  3  1  0
  3  4  1  0
  4  5  1  0
  5  6  2  0
  6  7  1  0
  7  8  2  0
  5  9  1  0
  8  9  1  0
  9 10  1  0
 10 11  1  0
 11 12  1  6
 12 13  1  0
 12 14  1  0
 12 15  1  0
 11 16  1  0
  8 17  1  0
 16 17  1  0
  2 18  1  0
 18 19  1  0
 19 20  2  0
 20 21  1  0
 21 22  2  0
 22 23  1  0
 19 24  1  0
 23 24  2  0
M  END
