pyridine_urea_14615
     RDKit          3D

 21 22  0  0  0  0  0  0  0  0999 V2000
   12.6650    5.9740   22.1920 C   0  0  0  0  0  0  0  0  0  0  0  0
   12.8770    4.5040   21.8920 C   0  0  0  0  0  0  0  0  0  0  0  0
   12.5010    3.5870   22.8670 C   0  0  0  0  0  0  0  0  0  0  0  0
   11.3860    3.9100   23.7150 O   0  0  0  0  0  0  0  0  0  0  0  0
   13.2490    2.3190   23.0300 N   0  0  0  0  0  0  0  0  0  0  0  0
   12.3770    1.1790   22.8650 C   0  0  0  0  0  0  0  0  0  0  0  0
   11.0890    1.5760   22.9850 C   0  0  0  0  0  0  0  0  0  0  0  0
   10.0910    0.6990   22.8410 C   0  0  0  0  0  0  0  0  0  0  0  0
   10.3390   -0.7510   22.5300 C   0  0  0  0  0  0  0  0  0  0  0  0
    9.1200   -1.5430   22.3520 N   0  0  0  0  0  0  0  0  0  0  0  0
    8.3230   -0.6190   21.5300 C   0  0  0  0  0  0  0  0  0  0  0  0
    8.6790    0.5150   21.2230 O   0  0  0  0  0  0  0  0  0  0  0  0
    7.1050   -0.9560   21.0270 N   0  0  0  0  0  0  0  0  0  0  0  0
    6.3920   -0.2000   20.0750 C   0  0  0  0  0  0  0  0  0  0  0  0
    5.1950    0.4980   20.2770 C   0  0  0  0  0  0  0  0  0  0  0  0
    4.5380    1.2530   19.2920 C   0  0  0  0  0  0  0  0  0  0  0  0
    5.1690    1.3070   17.9560 C   0  0  0  0  0  0  0  0  0  0  0  0
    6.3600    0.5970   17.7770 N   0  0  0  0  0  0  0  0  0  0  0  0
    6.9280   -0.1170   18.7960 C   0  0  0  0  0  0  0  0  0  0  0  0
   11.6720   -1.1700   22.4250 C   0  0  0  0  0  0  0  0  0  0  0  0
   12.6940   -0.1950   22.5970 C   0  0  0  0  0  0  0  0  0  0  0  0
  1  2  1  0
  2  3  1  0
  3  4  2  0
  3  5  1  0
  5  6  1  0
  6  7  2  0
  7  8  1  0
  8  9  2  0
  9 10  1  0
 10 11  1  0
 11 12  2  0
 11 13  1  0
 13 14  1  0
 14 15  2  0
 15 16  1  0
 16 17  2  0
 17 18  1  0
 14 19  1  0
 18 19  2  0
  9 20  1  0
  6 21  1  0
 20 21  2  0
M  END
