pyridine_urea_12601
     RDKit          3D

 21 23  0  0  0  0  0  0  0  0999 V2000
   13.8000   -3.0970   24.9510 C   0  0  0  0  0  0  0  0  0  0  0  0
   12.7040   -2.2700   24.4860 C   0  0  0  0  0  0  0  0  0  0  0  0
   11.3740   -2.8640   24.5790 N   0  0  0  0  0  0  0  0  0  0  0  0
   10.3380   -1.9720   24.1470 C   0  0  0  0  0  0  0  0  0  0  0  0
   10.6510   -0.7320   23.7040 C   0  0  0  0  0  0  0  0  0  0  0  0
   12.0960   -0.3270   23.6560 C   0  0  0  0  0  0  0  0  0  0  0  0
   13.0800   -1.0920   24.0450 N   0  0  0  0  0  0  0  0  0  0  0  0
   12.4210    0.9130   23.2020 C   0  0  0  0  0  0  0  0  0  0  0  0
   11.3310    1.8490   23.6510 C   0  0  0  0  0  0  0  0  0  0  0  0
   10.0270    1.5470   22.9580 C   0  0  0  0  0  0  0  0  0  0  0  0
    9.6550    0.1110   23.3380 C   0  0  1  0  0  0  0  0  0  0  0  0
    9.0180   -0.5930   22.3770 N   0  0  0  0  0  0  0  0  0  0  0  0
    8.3290    0.0960   21.4070 C   0  0  0  0  0  0  0  0  0  0  0  0
    8.7220    1.4030   20.9570 O   0  0  0  0  0  0  0  0  0  0  0  0
    7.2080   -0.5460   20.9370 N   0  0  0  0  0  0  0  0  0  0  0  0
    6.4780    0.0560   19.9390 C   0  0  0  0  0  0  0  0  0  0  0  0
    5.1880    0.7850   20.2540 C   0  0  0  0  0  0  0  0  0  0  0  0
    4.5250    1.3960   19.2050 C   0  0  0  0  0  0  0  0  0  0  0  0
    5.0870    1.3030   17.9330 C   0  0  0  0  0  0  0  0  0  0  0  0
    6.2240    0.6470   17.6470 N   0  0  0  0  0  0  0  0  0  0  0  0
    6.8880    0.0440   18.6420 C   0  0  0  0  0  0  0  0  0  0  0  0
  1  2  1  0
  2  3  2  0
  3  4  1  0
  4  5  2  0
  5  6  1  0
  2  7  1  0
  6  7  2  0
  6  8  1  0
  8  9  1  0
  9 10  1  0
  5 11  1  0
 10 11  1  0
 11 12  1  6
 12 13  1  0
 13 14  2  0
 13 15  1  0
 15 16  1  0
 16 17  2  0
 17 18  1  0
 18 19  2  0
 19 20  1  0
 16 21  1  0
 20 21  2  0
M  END
