pyridine_urea_33
     RDKit          3D

 18 19  0  0  0  0  0  0  0  0999 V2000
    9.0230    0.5210   21.4950 O   0  0  0  0  0  0  0  0  0  0  0  0
    8.3440   -0.4670   21.7320 C   0  0  0  0  0  0  0  0  0  0  0  0
    8.7210   -1.4660   22.6270 N   0  0  0  0  0  0  0  0  0  0  0  0
   10.1070   -1.6900   23.0440 C   0  0  0  0  0  0  0  0  0  0  0  0
   11.0960   -1.0240   22.1090 C   0  0  2  0  0  0  0  0  0  0  0  0
   12.5280   -1.1630   22.4790 C   0  0  0  0  0  0  0  0  0  0  0  0
   12.8090   -0.3630   23.5430 C   0  0  2  0  0  0  0  0  0  0  0  0
   13.3290   -1.2060   24.2660 O   0  0  0  0  0  0  0  0  0  0  0  0
   11.7470    0.5140   24.2240 C   0  0  0  0  0  0  0  0  0  0  0  0
   10.5740    0.8820   23.4190 C   0  0  0  0  0  0  0  0  0  0  0  0
   10.6970    0.3470   22.1180 O   0  0  0  0  0  0  0  0  0  0  0  0
    7.1090   -0.7520   21.1870 N   0  0  0  0  0  0  0  0  0  0  0  0
    6.5180   -0.0680   20.0280 C   0  0  0  0  0  0  0  0  0  0  0  0
    5.2690    0.7190   20.2960 C   0  0  0  0  0  0  0  0  0  0  0  0
    4.6220    1.4250   19.2800 C   0  0  0  0  0  0  0  0  0  0  0  0
    5.1530    1.3960   17.9860 C   0  0  0  0  0  0  0  0  0  0  0  0
    6.3610    0.6220   17.7430 N   0  0  0  0  0  0  0  0  0  0  0  0
    6.9840   -0.0690   18.7440 C   0  0  0  0  0  0  0  0  0  0  0  0
  1  2  2  0
  2  3  1  0
  3  4  1  0
  5  4  1  1
  5  6  1  0
  6  7  1  0
  7  8  1  1
  7  9  1  0
  9 10  1  0
  5 11  1  0
 10 11  1  0
  2 12  1  0
 12 13  1  0
 13 14  2  0
 14 15  1  0
 15 16  2  0
 16 17  1  0
 13 18  1  0
 17 18  2  0
M  END
