pyridine_urea_297
     RDKit          3D

 27 29  0  0  0  0  0  0  0  0999 V2000
   12.4450    1.8210   23.0070 N   0  0  0  0  0  0  0  0  0  0  0  0
   11.8920    0.8150   23.0360 C   0  0  0  0  0  0  0  0  0  0  0  0
   11.1080    0.0530   22.8560 C   0  0  0  0  0  0  0  0  0  0  0  0
   10.5190   -1.2510   22.9610 C   0  0  0  0  0  0  0  0  0  0  0  0
    9.2250   -1.5140   22.3330 N   0  0  0  0  0  0  0  0  0  0  0  0
    8.5070   -0.5740   21.6010 C   0  0  0  0  0  0  0  0  0  0  0  0
    8.9610    0.7700   21.4890 O   0  0  0  0  0  0  0  0  0  0  0  0
    7.3380   -1.0270   21.0110 N   0  0  0  0  0  0  0  0  0  0  0  0
    6.5410   -0.2650   20.1070 C   0  0  0  0  0  0  0  0  0  0  0  0
    5.3500    0.6420   20.5010 C   0  0  0  0  0  0  0  0  0  0  0  0
    4.6770    1.3490   19.3980 C   0  0  0  0  0  0  0  0  0  0  0  0
    5.1300    1.1660   18.1670 C   0  0  0  0  0  0  0  0  0  0  0  0
    6.1590    0.3820   17.7930 N   0  0  0  0  0  0  0  0  0  0  0  0
    6.8400   -0.3140   18.7440 C   0  0  0  0  0  0  0  0  0  0  0  0
   11.5210   -2.1010   23.7960 C   0  0  0  0  0  0  0  0  0  0  0  0
   12.7230   -1.3940   24.2350 C   0  0  0  0  0  0  0  0  0  0  0  0
   13.7130   -2.1980   25.0950 C   0  0  0  0  0  0  0  0  0  0  0  0
   12.8490   -3.2970   25.3590 O   0  0  0  0  0  0  0  0  0  0  0  0
   15.1280   -2.4280   25.6180 N   0  0  0  0  0  0  0  0  0  0  0  0
   16.4470   -1.7880   26.1660 C   0  0  0  0  0  0  0  0  0  0  0  0
   18.2160   -1.6270   25.6890 C   0  0  0  0  0  0  0  0  0  0  0  0
   18.9200   -1.0640   24.4050 C   0  0  0  0  0  0  0  0  0  0  0  0
   20.2700   -0.9650   24.1210 C   0  0  0  0  0  0  0  0  0  0  0  0
   21.1660   -1.3890   25.0230 C   0  0  0  0  0  0  0  0  0  0  0  0
   20.7680   -1.8900   26.1640 N   0  0  0  0  0  0  0  0  0  0  0  0
   19.4560   -1.9920   26.4510 C   0  0  0  0  0  0  0  0  0  0  0  0
   12.7790   -0.0070   23.7950 C   0  0  0  0  0  0  0  0  0  0  0  0
  1  2  1  0
  2  3  2  0
  3  4  1  0
  4  5  1  0
  5  6  1  0
  6  7  2  0
  6  8  1  0
  8  9  1  0
  9 10  2  0
 10 11  1  0
 11 12  2  0
 12 13  1  0
  9 14  1  0
 13 14  2  0
  4 15  2  0
 15 16  1  0
 16 17  1  0
 17 18  2  0
 17 19  1  0
 19 20  1  0
 20 21  1  0
 21 22  2  0
 22 23  1  0
 23 24  2  0
 24 25  1  0
 21 26  1  0
 25 26  2  0
  2 27  1  0
 16 27  2  0
M  END
