pyridine_urea_9169
     RDKit          3D

 19 20  0  0  0  0  0  0  0  0999 V2000
   13.4510   -2.8500   24.4220 C   0  0  0  0  0  0  0  0  0  0  0  0
   13.1210   -1.6250   25.2690 C   0  0  0  0  0  0  0  0  0  0  0  0
   13.2670   -0.3790   24.5630 O   0  0  0  0  0  0  0  0  0  0  0  0
   12.4690   -0.7640   23.5950 C   0  0  0  0  0  0  0  0  0  0  0  0
   12.9610   -1.4350   22.5570 C   0  0  0  0  0  0  0  0  0  0  0  0
   12.1860   -1.9020   21.5770 C   0  0  0  0  0  0  0  0  0  0  0  0
   10.8280   -1.6660   21.6500 C   0  0  0  0  0  0  0  0  0  0  0  0
   10.2850   -0.9630   22.6530 C   0  0  0  0  0  0  0  0  0  0  0  0
    8.9140   -0.7020   22.6720 N   0  0  0  0  0  0  0  0  0  0  0  0
    8.3530    0.0800   21.6670 C   0  0  0  0  0  0  0  0  0  0  0  0
    8.8890    1.3520   21.2390 O   0  0  0  0  0  0  0  0  0  0  0  0
    7.2220   -0.5070   21.1200 N   0  0  0  0  0  0  0  0  0  0  0  0
    6.5230    0.0810   20.0770 C   0  0  0  0  0  0  0  0  0  0  0  0
    5.3430    0.7760   20.3830 C   0  0  0  0  0  0  0  0  0  0  0  0
    4.6320    1.3970   19.3470 C   0  0  0  0  0  0  0  0  0  0  0  0
    5.1780    1.2830   17.9680 C   0  0  0  0  0  0  0  0  0  0  0  0
    6.2980    0.6080   17.7110 N   0  0  0  0  0  0  0  0  0  0  0  0
    6.9350    0.0280   18.7520 C   0  0  0  0  0  0  0  0  0  0  0  0
   11.0980   -0.5100   23.6440 C   0  0  0  0  0  0  0  0  0  0  0  0
  1  2  1  0
  2  3  1  0
  3  4  1  0
  4  5  2  0
  5  6  1  0
  6  7  2  0
  7  8  1  0
  8  9  1  0
  9 10  1  0
 10 11  2  0
 10 12  1  0
 12 13  1  0
 13 14  2  0
 14 15  1  0
 15 16  2  0
 16 17  1  0
 13 18  1  0
 17 18  2  0
  4 19  1  0
  8 19  2  0
M  END
