pyridine_urea_3617
     RDKit          3D

 16 17  0  0  0  0  0  0  0  0999 V2000
    9.0880    1.1180   21.1910 O   0  0  0  0  0  0  0  0  0  0  0  0
    8.6890   -0.0230   21.4730 C   0  0  0  0  0  0  0  0  0  0  0  0
    9.4500   -0.9370   22.2310 N   0  0  0  0  0  0  0  0  0  0  0  0
   10.6200   -0.4280   23.0070 C   0  0  0  0  0  0  0  0  0  0  0  0
   10.3700    1.0460   23.0870 C   0  0  0  0  0  0  0  0  0  0  0  0
   11.7810    0.7750   22.9380 C   0  0  0  0  0  0  0  0  0  0  0  0
   12.0900   -0.7490   22.9310 C   0  0  0  0  0  0  0  0  0  0  0  0
   10.3150   -1.2000   23.1330 S   0  0  0  0  0  0  0  0  0  0  0  0
    9.3410    0.2490   23.2090 C   0  0  0  0  0  0  0  0  0  0  0  0
    7.4580   -0.5230   21.0930 N   0  0  0  0  0  0  0  0  0  0  0  0
    6.6730    0.0490   20.0760 C   0  0  0  0  0  0  0  0  0  0  0  0
    5.5210    0.7710   20.3850 C   0  0  0  0  0  0  0  0  0  0  0  0
    4.7590    1.3540   19.3900 C   0  0  0  0  0  0  0  0  0  0  0  0
    5.1350    1.2260   18.0790 C   0  0  0  0  0  0  0  0  0  0  0  0
    6.2330    0.5310   17.7340 N   0  0  0  0  0  0  0  0  0  0  0  0
    6.9720   -0.0400   18.7270 C   0  0  0  0  0  0  0  0  0  0  0  0
  1  2  2  0
  2  3  1  0
  3  4  1  0
  4  5  1  0
  5  6  1  0
  6  7  2  0
  7  8  1  0
  5  9  2  0
  8  9  1  0
  2 10  1  0
 10 11  1  0
 11 12  2  0
 12 13  1  0
 13 14  2  0
 14 15  1  0
 11 16  1  0
 15 16  2  0
M  END
