pyridine_urea_14275
     RDKit          3D

 22 24  0  0  0  0  0  0  0  0999 V2000
   13.4430   -3.2900   25.5530 C   0  0  0  0  0  0  0  0  0  0  0  0
   14.0160   -2.4180   24.2350 S   0  0  0  0  0  0  0  0  0  0  0  0
   14.3080   -3.3320   23.2200 O   0  0  0  0  0  0  0  0  0  0  0  0
   12.6760   -1.7970   23.6770 C   0  0  0  0  0  0  0  0  0  0  0  0
   12.0270   -0.7020   24.1880 N   0  0  0  0  0  0  0  0  0  0  0  0
   11.0070   -0.7040   23.4060 C   0  0  0  0  0  0  0  0  0  0  0  0
    9.9780    0.1340   23.4590 C   0  0  0  0  0  0  0  0  0  0  0  0
    9.0090   -0.0430   22.6000 C   0  0  0  0  0  0  0  0  0  0  0  0
    7.9820    0.6760   22.5910 N   0  0  0  0  0  0  0  0  0  0  0  0
    7.6710    0.6580   21.3550 C   0  0  0  0  0  0  0  0  0  0  0  0
    8.1260    1.3870   20.4970 O   0  0  0  0  0  0  0  0  0  0  0  0
    6.7840   -0.2170   20.9260 N   0  0  0  0  0  0  0  0  0  0  0  0
    6.2020    0.3320   19.8010 C   0  0  0  0  0  0  0  0  0  0  0  0
    4.9170    1.1070   19.9620 C   0  0  0  0  0  0  0  0  0  0  0  0
    4.4010    1.6960   18.8330 C   0  0  0  0  0  0  0  0  0  0  0  0
    5.0670    1.5560   17.6210 C   0  0  0  0  0  0  0  0  0  0  0  0
    6.2220    0.8320   17.4770 N   0  0  0  0  0  0  0  0  0  0  0  0
    6.8000    0.2040   18.6030 C   0  0  0  0  0  0  0  0  0  0  0  0
    9.1430   -1.1540   21.5960 C   0  0  0  0  0  0  0  0  0  0  0  0
   10.1990   -1.9350   21.6090 C   0  0  0  0  0  0  0  0  0  0  0  0
   11.0980   -1.7200   22.4910 C   0  0  0  0  0  0  0  0  0  0  0  0
   12.1500   -2.4040   22.6450 N   0  0  0  0  0  0  0  0  0  0  0  0
  2  1  1  1
  2  3  2  0
  2  4  1  0
  4  5  2  0
  5  6  1  0
  6  7  2  0
  7  8  1  0
  8  9  1  0
  9 10  1  0
 10 11  2  0
 10 12  1  0
 12 13  1  0
 13 14  2  0
 14 15  1  0
 15 16  2  0
 16 17  1  0
 13 18  1  0
 17 18  2  0
  8 19  2  0
 19 20  1  0
  6 21  1  0
 20 21  2  0
  4 22  1  0
 21 22  1  0
M  END
