pyridine_urea_189
     RDKit          3D

 23 24  0  0  0  0  0  0  0  0999 V2000
   11.5340   -3.0330   24.4220 C   0  0  0  0  0  0  0  0  0  0  0  0
   12.3470   -2.1980   24.3070 C   0  0  0  0  0  0  0  0  0  0  0  0
   13.0340   -0.8790   24.2170 C   0  0  0  0  0  0  0  0  0  0  0  0
   13.4260   -2.8030   25.1900 C   0  0  0  0  0  0  0  0  0  0  0  0
   12.6220   -2.6520   22.9760 O   0  0  0  0  0  0  0  0  0  0  0  0
   12.3150   -1.8910   21.9070 C   0  0  0  0  0  0  0  0  0  0  0  0
   13.0560   -1.7700   20.9410 O   0  0  0  0  0  0  0  0  0  0  0  0
   10.9250   -1.2050   22.0700 C   0  0  1  0  0  0  0  0  0  0  0  0
    9.7520   -1.9390   22.5200 C   0  0  0  0  0  0  0  0  0  0  0  0
    8.6530   -0.9880   22.6330 N   0  0  0  0  0  0  0  0  0  0  0  0
    8.2610   -0.1580   21.5880 C   0  0  0  0  0  0  0  0  0  0  0  0
    8.9170    1.1040   21.2210 O   0  0  0  0  0  0  0  0  0  0  0  0
    7.1530   -0.6770   20.9700 N   0  0  0  0  0  0  0  0  0  0  0  0
    6.4070    0.0210   20.0140 C   0  0  0  0  0  0  0  0  0  0  0  0
    5.2210    0.7110   20.2490 C   0  0  0  0  0  0  0  0  0  0  0  0
    4.5980    1.3780   19.1920 C   0  0  0  0  0  0  0  0  0  0  0  0
    5.1870    1.3290   17.9450 C   0  0  0  0  0  0  0  0  0  0  0  0
    6.3240    0.6640   17.7000 N   0  0  0  0  0  0  0  0  0  0  0  0
    6.9020    0.0300   18.7270 C   0  0  0  0  0  0  0  0  0  0  0  0
   11.4480   -0.2050   23.1230 C   0  0  0  0  0  0  0  0  0  0  0  0
   10.7570    1.0610   22.9450 C   0  0  0  0  0  0  0  0  0  0  0  0
   11.9850    1.6830   22.9500 C   0  0  0  0  0  0  0  0  0  0  0  0
   12.8140    0.5170   22.9810 C   0  0  0  0  0  0  0  0  0  0  0  0
  1  2  1  0
  2  3  1  0
  2  4  1  0
  2  5  1  0
  5  6  1  0
  6  7  2  0
  6  8  1  0
  8  9  1  1
  9 10  1  0
 10 11  1  0
 11 12  2  0
 11 13  1  0
 13 14  1  0
 14 15  2  0
 15 16  1  0
 16 17  2  0
 17 18  1  0
 14 19  1  0
 18 19  2  0
  8 20  1  0
 20 21  1  0
 21 22  1  0
 20 23  1  0
 22 23  1  0
M  END
