pyridine_urea_2708
     RDKit          3D

 23 25  0  0  0  0  0  0  0  0999 V2000
    8.7760    0.8620   21.2760 O   0  0  0  0  0  0  0  0  0  0  0  0
    8.5300   -0.3170   21.4930 C   0  0  0  0  0  0  0  0  0  0  0  0
    9.2190   -1.0290   22.4360 N   0  0  0  0  0  0  0  0  0  0  0  0
   10.5600   -0.5410   22.5820 C   0  0  0  0  0  0  0  0  0  0  0  0
   11.7600   -1.5100   22.4230 C   0  0  0  0  0  0  0  0  0  0  0  0
   13.0190   -0.9640   22.5630 C   0  0  0  0  0  0  0  0  0  0  0  0
   13.0970    0.5400   22.8530 C   0  0  0  0  0  0  0  0  0  0  0  0
   12.0330    1.3490   22.9820 N   0  0  0  0  0  0  0  0  0  0  0  0
   10.8020    0.7940   22.8500 C   0  0  0  0  0  0  0  0  0  0  0  0
    7.5830   -1.0420   20.8400 N   0  0  0  0  0  0  0  0  0  0  0  0
    6.6980   -0.1690   20.1100 C   0  0  0  0  0  0  0  0  0  0  0  0
    5.6830    0.4760   20.9930 C   0  0  0  0  0  0  0  0  0  0  0  0
    4.7800    1.3990   20.2560 C   0  0  0  0  0  0  0  0  0  0  0  0
    5.0120    1.5430   18.7690 C   0  0  0  0  0  0  0  0  0  0  0  0
    4.1030    2.4240   18.2290 N   0  0  0  0  0  0  0  0  0  0  0  0
    2.8640    2.7770   18.8400 C   0  0  0  0  0  0  0  0  0  0  0  0
    2.0770    3.9630   18.3360 C   0  0  0  0  0  0  0  0  0  0  0  0
    0.8810    4.3080   18.9150 C   0  0  0  0  0  0  0  0  0  0  0  0
    0.3430    3.5920   19.9790 C   0  0  0  0  0  0  0  0  0  0  0  0
    1.0390    2.4800   20.4800 C   0  0  0  0  0  0  0  0  0  0  0  0
    2.2650    2.0850   19.9270 C   0  0  0  0  0  0  0  0  0  0  0  0
    5.9850    0.8850   18.0380 N   0  0  0  0  0  0  0  0  0  0  0  0
    6.7950    0.0520   18.7460 C   0  0  0  0  0  0  0  0  0  0  0  0
  1  2  2  0
  2  3  1  0
  3  4  1  0
  4  5  2  0
  5  6  1  0
  6  7  2  0
  7  8  1  0
  4  9  1  0
  8  9  2  0
  2 10  1  0
 10 11  1  0
 11 12  2  0
 12 13  1  0
 13 14  2  0
 14 15  1  0
 15 16  1  0
 16 17  2  0
 17 18  1  0
 18 19  2  0
 19 20  1  0
 16 21  1  0
 20 21  2  0
 14 22  1  0
 11 23  1  0
 22 23  2  0
M  END
