pyridine_urea_8771
     RDKit          3D

 21 22  0  0  0  0  0  0  0  0999 V2000
    8.9940    1.3250   21.1860 O   0  0  0  0  0  0  0  0  0  0  0  0
    8.5750    0.2230   21.5550 C   0  0  0  0  0  0  0  0  0  0  0  0
    9.0990   -0.5450   22.5700 N   0  0  0  0  0  0  0  0  0  0  0  0
    9.6140   -1.8520   22.4720 C   0  0  0  0  0  0  0  0  0  0  0  0
    8.9640   -2.8310   23.2250 C   0  0  0  0  0  0  0  0  0  0  0  0
    7.8800   -2.3570   23.9660 C   0  0  0  0  0  0  0  0  0  0  0  0
    6.7100   -2.3490   23.2310 C   0  0  0  0  0  0  0  0  0  0  0  0
    5.9900   -3.4830   23.2520 N   0  0  0  0  0  0  0  0  0  0  0  0
    5.3390   -3.7760   22.0990 C   0  0  0  0  0  0  0  0  0  0  0  0
    5.4210   -5.0810   21.6160 C   0  0  0  0  0  0  0  0  0  0  0  0
    6.4390   -5.9160   22.3930 C   0  0  0  0  0  0  0  0  0  0  0  0
    6.4570   -5.7180   23.7710 C   0  0  0  0  0  0  0  0  0  0  0  0
    6.1260   -4.4630   24.2520 C   0  0  0  0  0  0  0  0  0  0  0  0
    5.9500   -4.2410   25.5960 O   0  0  0  0  0  0  0  0  0  0  0  0
    7.4690   -0.3810   20.9750 N   0  0  0  0  0  0  0  0  0  0  0  0
    6.6490    0.1900   20.0630 C   0  0  0  0  0  0  0  0  0  0  0  0
    5.5000    0.9340   20.3720 C   0  0  0  0  0  0  0  0  0  0  0  0
    4.7410    1.4880   19.3370 C   0  0  0  0  0  0  0  0  0  0  0  0
    5.1860    1.2570   18.0570 C   0  0  0  0  0  0  0  0  0  0  0  0
    6.2650    0.5490   17.7090 N   0  0  0  0  0  0  0  0  0  0  0  0
    6.9770    0.0250   18.7250 C   0  0  0  0  0  0  0  0  0  0  0  0
  1  2  2  0
  2  3  1  0
  3  4  1  0
  4  5  1  0
  5  6  1  0
  6  7  1  0
  7  8  1  0
  8  9  1  0
  9 10  1  0
 10 11  1  0
 11 12  1  0
  8 13  1  0
 12 13  1  0
 13 14  2  0
  2 15  1  0
 15 16  1  0
 16 17  2  0
 17 18  1  0
 18 19  2  0
 19 20  1  0
 16 21  1  0
 20 21  2  0
M  END
