pyridine_urea_9795
     RDKit          3D

 25 27  0  0  0  0  0  0  0  0999 V2000
    8.5320    0.8430   21.2210 O   0  0  0  0  0  0  0  0  0  0  0  0
    8.2040   -0.2490   21.6570 C   0  0  0  0  0  0  0  0  0  0  0  0
    7.1360   -0.9280   21.1150 N   0  0  0  0  0  0  0  0  0  0  0  0
    6.4710   -0.1810   20.0620 C   0  0  0  0  0  0  0  0  0  0  0  0
    5.1880    0.5660   20.4210 C   0  0  0  0  0  0  0  0  0  0  0  0
    4.4980    1.3660   19.3110 C   0  0  0  0  0  0  0  0  0  0  0  0
    5.1860    1.3260   17.9460 C   0  0  0  0  0  0  0  0  0  0  0  0
    6.3610    0.5860   17.7800 N   0  0  0  0  0  0  0  0  0  0  0  0
    6.9660   -0.1290   18.7800 C   0  0  0  0  0  0  0  0  0  0  0  0
    8.8740   -0.8720   22.7140 N   0  0  0  0  0  0  0  0  0  0  0  0
   10.1760   -0.3670   22.9250 C   0  0  0  0  0  0  0  0  0  0  0  0
   10.4430    0.9030   22.4430 C   0  0  0  0  0  0  0  0  0  0  0  0
    9.9910    2.1040   23.0250 C   0  0  0  0  0  0  0  0  0  0  0  0
    8.7530    2.2730   23.6290 C   0  0  0  0  0  0  0  0  0  0  0  0
    7.9430    1.1740   23.6630 F   0  0  0  0  0  0  0  0  0  0  0  0
    8.3420    3.4920   24.1710 C   0  0  0  0  0  0  0  0  0  0  0  0
    9.1970    4.5990   24.1150 C   0  0  0  0  0  0  0  0  0  0  0  0
   10.5370    4.4410   23.4760 C   0  0  0  0  0  0  0  0  0  0  0  0
   10.8860    3.1930   22.9520 C   0  0  0  0  0  0  0  0  0  0  0  0
   12.1050    3.1060   22.3820 F   0  0  0  0  0  0  0  0  0  0  0  0
   11.2160   -1.3410   22.2860 C   0  0  0  0  0  0  0  0  0  0  0  0
   12.5410   -1.0390   22.6170 C   0  0  0  0  0  0  0  0  0  0  0  0
   12.6720    0.1480   23.2860 C   0  0  0  0  0  0  0  0  0  0  0  0
   11.8800    0.2680   24.4220 C   0  0  0  0  0  0  0  0  0  0  0  0
   10.6170   -0.3110   24.3900 C   0  0  0  0  0  0  0  0  0  0  0  0
  1  2  2  0
  2  3  1  0
  3  4  1  0
  4  5  2  0
  5  6  1  0
  6  7  2  0
  7  8  1  0
  4  9  1  0
  8  9  2  0
  2 10  1  0
 11 10  1  0
 11 12  1  0
 12 13  1  0
 13 14  2  0
 14 15  1  0
 14 16  1  0
 16 17  2  0
 17 18  1  0
 13 19  1  0
 18 19  2  0
 19 20  1  0
 11 21  1  0
 21 22  1  0
 22 23  1  0
 23 24  1  0
 11 25  1  0
 24 25  1  0
M  END
