pyridine_urea_14295
     RDKit          3D

 22 24  0  0  0  0  0  0  0  0999 V2000
    9.9220    0.9130   22.6580 C   0  0  0  0  0  0  0  0  0  0  0  0
    9.9200   -0.4320   23.2050 N   0  0  0  0  0  0  0  0  0  0  0  0
    8.9560   -1.3650   23.4790 C   0  0  0  0  0  0  0  0  0  0  0  0
    7.6380   -1.2040   23.2800 C   0  0  0  0  0  0  0  0  0  0  0  0
    7.4020    0.0260   22.8220 N   0  0  0  0  0  0  0  0  0  0  0  0
    7.7400    0.3800   21.4510 C   0  0  0  0  0  0  0  0  0  0  0  0
    8.4580    1.3150   21.0450 O   0  0  0  0  0  0  0  0  0  0  0  0
    7.1250   -0.4660   20.7030 N   0  0  0  0  0  0  0  0  0  0  0  0
    6.4740    0.1320   19.8240 C   0  0  0  0  0  0  0  0  0  0  0  0
    5.1580    0.8090   20.1380 C   0  0  0  0  0  0  0  0  0  0  0  0
    4.4150    1.5540   19.0370 C   0  0  0  0  0  0  0  0  0  0  0  0
    5.1100    1.5360   17.6940 C   0  0  0  0  0  0  0  0  0  0  0  0
    6.2770    0.8750   17.5710 N   0  0  0  0  0  0  0  0  0  0  0  0
    6.9450    0.2020   18.5620 C   0  0  0  0  0  0  0  0  0  0  0  0
    9.3960   -2.5650   24.0170 N   0  0  0  0  0  0  0  0  0  0  0  0
   10.7370   -2.3040   24.0910 C   0  0  0  0  0  0  0  0  0  0  0  0
   11.6740   -3.1270   24.5820 C   0  0  0  0  0  0  0  0  0  0  0  0
   12.9420   -2.6620   24.5870 C   0  0  0  0  0  0  0  0  0  0  0  0
   13.8620   -3.4250   25.0970 F   0  0  0  0  0  0  0  0  0  0  0  0
   13.2700   -1.4230   24.0850 C   0  0  0  0  0  0  0  0  0  0  0  0
   12.3460   -0.5700   23.5710 C   0  0  0  0  0  0  0  0  0  0  0  0
   11.1010   -1.0680   23.6180 C   0  0  0  0  0  0  0  0  0  0  0  0
  1  2  1  0
  2  3  1  0
  3  4  1  0
  4  5  1  0
  5  6  1  0
  6  7  2  0
  6  8  1  0
  8  9  1  0
  9 10  2  0
 10 11  1  0
 11 12  2  0
 12 13  1  0
  9 14  1  0
 13 14  2  0
  3 15  2  0
 15 16  1  0
 16 17  1  0
 17 18  2  0
 18 19  1  0
 18 20  1  0
 20 21  2  0
  2 22  1  0
 16 22  2  0
 21 22  1  0
M  END
