pyridine_urea_8614
     RDKit          3D

 21 22  0  0  0  0  0  0  0  0999 V2000
   13.2670   -0.0280   22.3690 C   0  0  0  0  0  0  0  0  0  0  0  0
   12.5960   -1.2550   22.8020 C   0  0  0  0  0  0  0  0  0  0  0  0
   13.3240   -2.3210   23.3120 C   0  0  0  0  0  0  0  0  0  0  0  0
   11.7850   -1.8740   21.6390 C   0  0  0  0  0  0  0  0  0  0  0  0
   11.7050   -0.8570   23.9390 C   0  0  0  0  0  0  0  0  0  0  0  0
   11.7760   -0.7290   25.3270 C   0  0  0  0  0  0  0  0  0  0  0  0
   10.4520   -0.3120   25.8090 C   0  0  0  0  0  0  0  0  0  0  0  0
    9.2630   -0.0490   24.8940 N   0  0  0  0  0  0  0  0  0  0  0  0
    9.3890   -0.2190   23.5050 C   0  0  0  0  0  0  0  0  0  0  0  0
   10.1510   -0.5590   22.4320 C   0  0  0  0  0  0  0  0  0  0  0  0
    9.2640   -0.8070   21.4440 N   0  0  0  0  0  0  0  0  0  0  0  0
    8.2530    0.0950   21.1470 C   0  0  0  0  0  0  0  0  0  0  0  0
    8.5350    1.2930   21.0370 O   0  0  0  0  0  0  0  0  0  0  0  0
    7.0560   -0.4940   20.9920 N   0  0  0  0  0  0  0  0  0  0  0  0
    6.3540    0.1240   20.0390 C   0  0  0  0  0  0  0  0  0  0  0  0
    5.1570    0.8130   20.2370 C   0  0  0  0  0  0  0  0  0  0  0  0
    4.5420    1.4340   19.1500 C   0  0  0  0  0  0  0  0  0  0  0  0
    5.1590    1.3300   17.9180 C   0  0  0  0  0  0  0  0  0  0  0  0
    6.3070    0.6630   17.7020 N   0  0  0  0  0  0  0  0  0  0  0  0
    6.8830    0.0730   18.7570 C   0  0  0  0  0  0  0  0  0  0  0  0
   10.4690   -0.4640   24.1650 C   0  0  0  0  0  0  0  0  0  0  0  0
  2  1  1  0
  2  3  1  0
  2  4  1  0
  2  5  1  0
  5  6  2  0
  6  7  1  0
  7  8  2  0
  8  9  1  0
  9 10  1  0
 10 11  1  0
 11 12  1  0
 12 13  2  0
 12 14  1  0
 14 15  1  0
 15 16  2  0
 16 17  1  0
 17 18  2  0
 18 19  1  0
 15 20  1  0
 19 20  2  0
  5 21  1  0
  9 21  2  0
M  END
