pyridine_urea_11658
     RDKit          3D

 28 30  0  0  0  0  0  0  0  0999 V2000
    9.5240    6.9890   22.6720 C   0  0  0  0  0  0  0  0  0  0  0  0
    9.7200    6.9290   24.1650 C   0  0  2  0  0  0  0  0  0  0  0  0
    9.8640    8.1000   24.9070 C   0  0  0  0  0  0  0  0  0  0  0  0
    9.7720    7.9630   26.2820 C   0  0  0  0  0  0  0  0  0  0  0  0
   10.2880    6.7900   26.7910 C   0  0  0  0  0  0  0  0  0  0  0  0
   10.8790    5.8670   25.9180 C   0  0  0  0  0  0  0  0  0  0  0  0
   10.8240    6.0360   24.5080 N   0  0  0  0  0  0  0  0  0  0  0  0
   11.5160    5.2590   23.5770 C   0  0  0  0  0  0  0  0  0  0  0  0
   11.0060    3.7990   23.5880 C   0  0  0  0  0  0  0  0  0  0  0  0
    9.8590    3.5460   23.9300 O   0  0  0  0  0  0  0  0  0  0  0  0
   12.0080    2.8220   23.1810 N   0  0  0  0  0  0  0  0  0  0  0  0
   11.8090    1.4850   22.9890 C   0  0  0  0  0  0  0  0  0  0  0  0
   12.9040    0.6450   22.9690 C   0  0  0  0  0  0  0  0  0  0  0  0
   12.7140   -0.7120   22.7670 C   0  0  0  0  0  0  0  0  0  0  0  0
   11.4290   -1.2160   22.5830 C   0  0  0  0  0  0  0  0  0  0  0  0
   11.2630   -2.5240   22.3870 F   0  0  0  0  0  0  0  0  0  0  0  0
   10.3240   -0.3760   22.5990 C   0  0  0  0  0  0  0  0  0  0  0  0
    9.0620   -0.8080   22.4090 N   0  0  0  0  0  0  0  0  0  0  0  0
    8.3820   -0.0600   21.4880 C   0  0  0  0  0  0  0  0  0  0  0  0
    8.7920    1.2580   21.1010 O   0  0  0  0  0  0  0  0  0  0  0  0
    7.2870   -0.7120   21.0240 N   0  0  0  0  0  0  0  0  0  0  0  0
    6.5410   -0.0400   20.1080 C   0  0  0  0  0  0  0  0  0  0  0  0
    5.3740    0.6850   20.3930 C   0  0  0  0  0  0  0  0  0  0  0  0
    4.6970    1.3420   19.3630 C   0  0  0  0  0  0  0  0  0  0  0  0
    5.2120    1.2470   18.0850 C   0  0  0  0  0  0  0  0  0  0  0  0
    6.3180    0.5650   17.7640 N   0  0  0  0  0  0  0  0  0  0  0  0
    6.9520   -0.0620   18.7810 C   0  0  0  0  0  0  0  0  0  0  0  0
   10.5380    0.9710   22.8110 C   0  0  0  0  0  0  0  0  0  0  0  0
  2  1  1  6
  2  3  1  0
  3  4  1  0
  4  5  1  0
  5  6  1  0
  2  7  1  0
  6  7  1  0
  7  8  1  0
  8  9  1  0
  9 10  2  0
  9 11  1  0
 11 12  1  0
 12 13  2  0
 13 14  1  0
 14 15  2  0
 15 16  1  0
 15 17  1  0
 17 18  1  0
 18 19  1  0
 19 20  2  0
 19 21  1  0
 21 22  1  0
 22 23  2  0
 23 24  1  0
 24 25  2  0
 25 26  1  0
 22 27  1  0
 26 27  2  0
 12 28  1  0
 17 28  2  0
M  END
