pyridine_urea_12673
     RDKit          3D

 21 22  0  0  0  0  0  0  0  0999 V2000
    7.2490   -0.5830   20.8170 N   0  0  0  0  0  0  0  0  0  0  0  0
    8.1070   -0.0420   21.3720 C   0  0  0  0  0  0  0  0  0  0  0  0
    8.5110    1.2810   21.0140 O   0  0  0  0  0  0  0  0  0  0  0  0
    8.6440   -0.8270   22.3580 N   0  0  0  0  0  0  0  0  0  0  0  0
    9.9390   -0.9450   22.5820 C   0  0  0  0  0  0  0  0  0  0  0  0
   10.6560   -0.1290   23.5690 C   0  0  0  0  0  0  0  0  0  0  0  0
   12.0200   -0.2420   23.7940 C   0  0  0  0  0  0  0  0  0  0  0  0
   12.8170   -1.0490   23.1930 C   0  0  0  0  0  0  0  0  0  0  0  0
   12.2320   -1.8250   22.2620 C   0  0  0  0  0  0  0  0  0  0  0  0
   12.9560   -2.6280   21.5850 C   0  0  0  0  0  0  0  0  0  0  0  0
   13.4770   -2.0360   20.6090 N   0  0  0  0  0  0  0  0  0  0  0  0
   13.8370   -0.7870   20.7550 C   0  0  0  0  0  0  0  0  0  0  0  0
   13.6940   -0.1420   22.0030 O   0  0  0  0  0  0  0  0  0  0  0  0
   14.4110   -0.2760   19.6270 N   0  0  0  0  0  0  0  0  0  0  0  0
   14.7200    1.1170   19.6270 C   0  0  0  0  0  0  0  0  0  0  0  0
   14.9220    1.8340   18.4430 C   0  0  0  0  0  0  0  0  0  0  0  0
   15.1570    3.1750   18.4580 C   0  0  0  0  0  0  0  0  0  0  0  0
   15.1730    3.8230   19.7370 C   0  0  0  0  0  0  0  0  0  0  0  0
   14.9830    3.1750   20.8580 N   0  0  0  0  0  0  0  0  0  0  0  0
   14.7670    1.8350   20.7660 C   0  0  0  0  0  0  0  0  0  0  0  0
   10.7260   -1.8150   21.9070 C   0  0  0  0  0  0  0  0  0  0  0  0
  1  2  1  0
  2  3  2  0
  2  4  1  0
  4  5  1  0
  5  6  2  0
  6  7  1  0
  7  8  2  0
  8  9  1  0
  9 10  1  0
 10 11  1  0
 11 12  1  0
 12 13  2  0
 12 14  1  0
 14 15  1  0
 15 16  2  0
 16 17  1  0
 17 18  2  0
 18 19  1  0
 15 20  1  0
 19 20  2  0
  5 21  1  0
  9 21  2  0
M  END
