pyridine_urea_9196
     RDKit          3D

 18 20  0  0  0  0  0  0  0  0999 V2000
   12.9590    0.6170   23.2110 C   0  0  0  0  0  0  0  0  0  0  0  0
   12.6380   -0.7240   23.8040 C   0  0  0  0  0  0  0  0  0  0  0  0
   13.3030   -1.4300   24.7880 C   0  0  0  0  0  0  0  0  0  0  0  0
   11.4080   -0.5960   24.4900 C   0  0  1  0  0  0  0  0  0  0  0  0
   10.2830    0.0220   24.0620 C   0  0  0  0  0  0  0  0  0  0  0  0
    9.6470   -0.8000   23.1840 C   0  0  1  0  0  0  0  0  0  0  0  0
    8.4360   -0.4080   22.6710 N   0  0  0  0  0  0  0  0  0  0  0  0
    8.2290    0.2320   21.5030 C   0  0  0  0  0  0  0  0  0  0  0  0
    8.8440    1.2270   21.0980 O   0  0  0  0  0  0  0  0  0  0  0  0
    7.2040   -0.4210   20.8710 N   0  0  0  0  0  0  0  0  0  0  0  0
    6.3880    0.2440   19.8980 C   0  0  0  0  0  0  0  0  0  0  0  0
    5.2130    0.9160   20.1480 C   0  0  0  0  0  0  0  0  0  0  0  0
    4.5530    1.5320   19.0960 C   0  0  0  0  0  0  0  0  0  0  0  0
    5.1200    1.4340   17.8380 C   0  0  0  0  0  0  0  0  0  0  0  0
    6.2530    0.7700   17.5820 N   0  0  0  0  0  0  0  0  0  0  0  0
    6.8560    0.1950   18.6180 C   0  0  0  0  0  0  0  0  0  0  0  0
   10.6290   -1.2320   22.3100 C   0  0  0  0  0  0  0  0  0  0  0  0
   11.8070   -1.5080   23.1610 C   0  0  1  0  0  0  0  0  0  0  0  0
  2  1  1  0
  2  3  1  0
  2  4  1  0
  4  5  1  6
  5  6  1  0
  6  7  1  6
  7  8  1  0
  8  9  2  0
  8 10  1  0
 10 11  1  0
 11 12  2  0
 12 13  1  0
 13 14  2  0
 14 15  1  0
 11 16  1  0
 15 16  2  0
  6 17  1  0
  2 18  1  0
  4 18  1  0
 18 17  1  6
M  END
