pyridine_urea_11194
     RDKit          3D

 17 18  0  0  0  0  0  0  0  0999 V2000
   12.7570   -1.6830   22.0940 C   0  0  0  0  0  0  0  0  0  0  0  0
   11.5790   -1.5560   22.2810 C   0  0  0  0  0  0  0  0  0  0  0  0
   10.2830   -0.9420   22.7910 C   0  0  2  0  0  0  0  0  0  0  0  0
    9.2770   -1.2080   21.7290 N   0  0  0  0  0  0  0  0  0  0  0  0
    8.4230   -0.0360   21.3840 C   0  0  0  0  0  0  0  0  0  0  0  0
    8.9110    1.2980   21.1630 O   0  0  0  0  0  0  0  0  0  0  0  0
    7.1010   -0.4410   21.3030 N   0  0  0  0  0  0  0  0  0  0  0  0
    6.6120    0.0350   20.1690 C   0  0  0  0  0  0  0  0  0  0  0  0
    5.3530    0.8810   20.4110 C   0  0  0  0  0  0  0  0  0  0  0  0
    4.6910    1.4910   19.2370 C   0  0  0  0  0  0  0  0  0  0  0  0
    5.2420    1.2600   18.0340 C   0  0  0  0  0  0  0  0  0  0  0  0
    6.3560    0.5060   17.8220 N   0  0  0  0  0  0  0  0  0  0  0  0
    7.0160   -0.0910   18.8590 C   0  0  0  0  0  0  0  0  0  0  0  0
   10.6140    0.5260   23.0790 C   0  0  2  0  0  0  0  0  0  0  0  0
   11.8680    0.7830   22.8060 C   0  0  0  0  0  0  0  0  0  0  0  0
   11.9080    0.6890   24.0680 C   0  0  2  0  0  0  0  0  0  0  0  0
   12.5270   -0.5260   24.7310 C   0  0  0  0  0  0  0  0  0  0  0  0
  1  2  1  0
  3  2  1  6
  3  4  1  0
  4  5  1  0
  5  6  2  0
  5  7  1  0
  7  8  1  0
  8  9  2  0
  9 10  1  0
 10 11  2  0
 11 12  1  0
  8 13  1  0
 12 13  2  0
  3 14  1  0
 14 15  1  6
 14 16  1  0
 15 16  1  0
 16 17  1  6
M  END
