pyridine_urea_2505
     RDKit          3D

 24 26  0  0  0  0  0  0  0  0999 V2000
    9.1360   -2.7230   23.6060 C   0  0  0  0  0  0  0  0  0  0  0  0
    9.2040   -1.4690   24.1770 N   0  0  0  0  0  0  0  0  0  0  0  0
    8.6540   -1.0030   25.3930 C   0  0  0  0  0  0  0  0  0  0  0  0
    8.9390    0.3210   25.6290 C   0  0  0  0  0  0  0  0  0  0  0  0
    9.6710    0.7900   24.5890 N   0  0  0  0  0  0  0  0  0  0  0  0
    9.8290   -0.3430   23.6770 C   0  0  0  0  0  0  0  0  0  0  0  0
   10.4630   -0.3400   22.4580 C   0  0  1  0  0  0  0  0  0  0  0  0
   11.6330   -1.0550   22.1240 C   0  0  0  0  0  0  0  0  0  0  0  0
   12.0290   -2.1430   22.8220 C   0  0  0  0  0  0  0  0  0  0  0  0
   12.3130   -1.1170   23.8490 C   0  0  0  0  0  0  0  0  0  0  0  0
   12.2190    0.2150   24.0230 C   0  0  0  0  0  0  0  0  0  0  0  0
   12.7210   -0.5110   25.1090 C   0  0  0  0  0  0  0  0  0  0  0  0
   12.8910   -1.8940   25.0900 C   0  0  0  0  0  0  0  0  0  0  0  0
   12.5530   -2.6660   23.9940 C   0  0  0  0  0  0  0  0  0  0  0  0
    9.4830   -0.8100   21.6600 N   0  0  0  0  0  0  0  0  0  0  0  0
    8.5580    0.1020   21.3070 C   0  0  0  0  0  0  0  0  0  0  0  0
    8.7780    1.3120   21.1680 O   0  0  0  0  0  0  0  0  0  0  0  0
    7.2940   -0.3210   21.0280 N   0  0  0  0  0  0  0  0  0  0  0  0
    6.5480    0.1950   20.0220 C   0  0  0  0  0  0  0  0  0  0  0  0
    5.3740    0.8860   20.3130 C   0  0  0  0  0  0  0  0  0  0  0  0
    4.6410    1.4360   19.2680 C   0  0  0  0  0  0  0  0  0  0  0  0
    5.1100    1.2730   17.9770 C   0  0  0  0  0  0  0  0  0  0  0  0
    6.2250    0.6030   17.6770 N   0  0  0  0  0  0  0  0  0  0  0  0
    6.9140    0.0810   18.7030 C   0  0  0  0  0  0  0  0  0  0  0  0
  1  2  1  0
  2  3  1  0
  3  4  2  0
  4  5  1  0
  2  6  1  0
  5  6  2  0
  6  7  1  0
  7  8  1  1
  8  9  1  0
  9 10  2  0
 10 11  1  0
 11 12  2  0
 12 13  1  0
  9 14  1  0
 13 14  2  0
  7 15  1  0
 15 16  1  0
 16 17  2  0
 16 18  1  0
 18 19  1  0
 19 20  2  0
 20 21  1  0
 21 22  2  0
 22 23  1  0
 19 24  1  0
 23 24  2  0
M  END
