pyridine_urea_7943
     RDKit          3D

 25 27  0  0  0  0  0  0  0  0999 V2000
    8.9290    1.4680   21.1890 O   0  0  0  0  0  0  0  0  0  0  0  0
    8.2270    0.6250   21.7520 C   0  0  0  0  0  0  0  0  0  0  0  0
    7.2510   -0.1350   21.1640 N   0  0  0  0  0  0  0  0  0  0  0  0
    6.5370    0.3030   20.0570 C   0  0  0  0  0  0  0  0  0  0  0  0
    5.3730    1.0400   20.2830 C   0  0  0  0  0  0  0  0  0  0  0  0
    4.6490    1.5200   19.2020 C   0  0  0  0  0  0  0  0  0  0  0  0
    5.1220    1.2420   17.9430 C   0  0  0  0  0  0  0  0  0  0  0  0
    6.2240    0.5300   17.6970 N   0  0  0  0  0  0  0  0  0  0  0  0
    6.9100    0.0710   18.7580 C   0  0  0  0  0  0  0  0  0  0  0  0
    8.3140    0.3710   23.1030 N   0  0  0  0  0  0  0  0  0  0  0  0
    9.3590   -0.5180   23.5810 C   0  0  1  0  0  0  0  0  0  0  0  0
    9.4660   -1.5200   22.4180 C   0  0  0  0  0  0  0  0  0  0  0  0
   10.1040   -0.8510   21.3160 O   0  0  0  0  0  0  0  0  0  0  0  0
   10.4500    0.2370   23.8740 C   0  0  0  0  0  0  0  0  0  0  0  0
   11.8600    0.4450   23.8680 C   0  0  0  0  0  0  0  0  0  0  0  0
   12.9050   -0.3330   23.4090 C   0  0  0  0  0  0  0  0  0  0  0  0
   12.6280   -1.5360   22.8620 C   0  0  0  0  0  0  0  0  0  0  0  0
   13.3940   -2.5160   22.3150 C   0  0  0  0  0  0  0  0  0  0  0  0
   13.3190   -2.6320   20.9890 C   0  0  0  0  0  0  0  0  0  0  0  0
   14.0670   -3.6180   20.3030 C   0  0  0  0  0  0  0  0  0  0  0  0
   15.0020   -4.6410   20.6960 C   0  0  0  0  0  0  0  0  0  0  0  0
   15.0900   -4.5360   22.0820 C   0  0  0  0  0  0  0  0  0  0  0  0
   14.2040   -3.3820   22.9930 C   0  0  0  0  0  0  0  0  0  0  0  0
   11.3770   -1.9140   22.7950 C   0  0  0  0  0  0  0  0  0  0  0  0
   10.4660   -1.0430   23.2750 C   0  0  0  0  0  0  0  0  0  0  0  0
  1  2  2  0
  2  3  1  0
  3  4  1  0
  4  5  2  0
  5  6  1  0
  6  7  2  0
  7  8  1  0
  4  9  1  0
  8  9  2  0
  2 10  1  0
 10 11  1  0
 11 12  1  6
 12 13  1  0
 11 14  1  0
 14 15  2  0
 15 16  1  0
 16 17  2  0
 17 18  1  0
 18 19  2  0
 19 20  1  0
 20 21  2  0
 21 22  1  0
 18 23  1  0
 22 23  2  0
 17 24  1  0
 14 25  1  0
 24 25  2  0
M  END
