pyridine_urea_6095
     RDKit          3D

 25 27  0  0  0  0  0  0  0  0999 V2000
   13.4260   -3.1280   20.9170 C   0  0  0  0  0  0  0  0  0  0  0  0
   12.6190   -2.0760   21.4950 C   0  0  0  0  0  0  0  0  0  0  0  0
   11.2770   -2.2460   21.3030 C   0  0  0  0  0  0  0  0  0  0  0  0
   10.3120   -1.3630   21.6920 C   0  0  0  0  0  0  0  0  0  0  0  0
   10.6720   -0.2120   22.3270 C   0  0  0  0  0  0  0  0  0  0  0  0
    9.6020    0.7020   22.6760 C   0  0  1  0  0  0  0  0  0  0  0  0
    8.4320    0.0220   22.3150 N   0  0  0  0  0  0  0  0  0  0  0  0
    7.8320    0.2950   21.2110 C   0  0  0  0  0  0  0  0  0  0  0  0
    8.1780    1.2830   20.5720 O   0  0  0  0  0  0  0  0  0  0  0  0
    6.7730   -0.5870   20.8420 N   0  0  0  0  0  0  0  0  0  0  0  0
    6.1840    0.0650   19.8370 C   0  0  0  0  0  0  0  0  0  0  0  0
    4.9670    0.6760   20.0450 C   0  0  0  0  0  0  0  0  0  0  0  0
    4.4040    1.3780   18.9900 C   0  0  0  0  0  0  0  0  0  0  0  0
    5.0950    1.4260   17.7900 C   0  0  0  0  0  0  0  0  0  0  0  0
    6.2690    0.8250   17.5890 N   0  0  0  0  0  0  0  0  0  0  0  0
    6.7880    0.1560   18.6170 C   0  0  0  0  0  0  0  0  0  0  0  0
    9.5250    0.5000   24.0480 C   0  0  0  0  0  0  0  0  0  0  0  0
    8.5340    0.8400   24.9440 C   0  0  0  0  0  0  0  0  0  0  0  0
    8.7990    0.4480   26.2680 C   0  0  0  0  0  0  0  0  0  0  0  0
    9.9910   -0.2410   26.6350 C   0  0  0  0  0  0  0  0  0  0  0  0
   10.9820   -0.5630   25.6310 C   0  0  0  0  0  0  0  0  0  0  0  0
   10.5240   -0.1170   24.5650 C   0  0  0  0  0  0  0  0  0  0  0  0
   12.0030   -0.0680   22.5560 C   0  0  0  0  0  0  0  0  0  0  0  0
   12.9690    0.7440   23.1090 C   0  0  0  0  0  0  0  0  0  0  0  0
   13.0940   -0.9620   22.1750 C   0  0  0  0  0  0  0  0  0  0  0  0
  1  2  1  0
  2  3  2  0
  3  4  1  0
  4  5  2  0
  5  6  1  0
  6  7  1  6
  7  8  1  0
  8  9  2  0
  8 10  1  0
 10 11  1  0
 11 12  2  0
 12 13  1  0
 13 14  2  0
 14 15  1  0
 11 16  1  0
 15 16  2  0
  6 17  1  0
 17 18  2  0
 18 19  1  0
 19 20  2  0
 20 21  1  0
 17 22  1  0
 21 22  2  0
  5 23  1  0
 23 24  1  0
  2 25  1  0
 23 25  2  0
M  END
