pyridine_urea_1041
     RDKit          3D

 22 23  0  0  0  0  0  0  0  0999 V2000
   12.3800   -2.8900   24.5340 C   0  0  0  0  0  0  0  0  0  0  0  0
   13.6640   -2.4920   23.9090 C   0  0  0  0  0  0  0  0  0  0  0  0
   13.4470   -1.5530   22.8410 N   0  0  0  0  0  0  0  0  0  0  0  0
   13.2490   -2.1010   21.6230 C   0  0  0  0  0  0  0  0  0  0  0  0
   11.9300   -2.2570   21.3220 C   0  0  0  0  0  0  0  0  0  0  0  0
   12.4790   -0.7170   23.1190 C   0  0  0  0  0  0  0  0  0  0  0  0
   11.1190   -1.1290   23.2550 C   0  0  0  0  0  0  0  0  0  0  0  0
   10.0660   -0.1910   23.5730 C   0  0  0  0  0  0  0  0  0  0  0  0
   10.1370    1.2970   23.8100 C   0  0  0  0  0  0  0  0  0  0  0  0
    8.8960    0.7310   23.9040 C   0  0  0  0  0  0  0  0  0  0  0  0
    8.5730   -0.1370   22.8790 N   0  0  0  0  0  0  0  0  0  0  0  0
    8.2210    0.2380   21.5750 C   0  0  0  0  0  0  0  0  0  0  0  0
    8.7950    1.2300   21.0850 O   0  0  0  0  0  0  0  0  0  0  0  0
    7.2610   -0.5160   20.9930 N   0  0  0  0  0  0  0  0  0  0  0  0
    6.5710    0.0830   20.0090 C   0  0  0  0  0  0  0  0  0  0  0  0
    5.4330    0.8190   20.3300 C   0  0  0  0  0  0  0  0  0  0  0  0
    4.7250    1.4500   19.3200 C   0  0  0  0  0  0  0  0  0  0  0  0
    5.1890    1.3160   18.0280 C   0  0  0  0  0  0  0  0  0  0  0  0
    6.2690    0.6140   17.6760 N   0  0  0  0  0  0  0  0  0  0  0  0
    6.9310    0.0140   18.6810 C   0  0  0  0  0  0  0  0  0  0  0  0
   11.5580    1.5080   23.6290 C   0  0  0  0  0  0  0  0  0  0  0  0
   12.6320    0.6260   23.3170 C   0  0  0  0  0  0  0  0  0  0  0  0
  1  2  1  0
  2  3  1  0
  3  4  1  0
  4  5  1  0
  3  6  1  0
  6  7  2  0
  7  8  1  0
  8  9  2  0
  9 10  1  0
 10 11  1  0
 11 12  1  0
 12 13  2  0
 12 14  1  0
 14 15  1  0
 15 16  2  0
 16 17  1  0
 17 18  2  0
 18 19  1  0
 15 20  1  0
 19 20  2  0
  9 21  1  0
  6 22  1  0
 21 22  2  0
M  END
