pyridine_urea_12816
     RDKit          3D

 20 21  0  0  0  0  0  0  0  0999 V2000
    8.3100    1.4770   20.8950 O   0  0  0  0  0  0  0  0  0  0  0  0
    8.2280    0.3490   21.3770 C   0  0  0  0  0  0  0  0  0  0  0  0
    7.1880   -0.4750   21.0810 N   0  0  0  0  0  0  0  0  0  0  0  0
    6.5350    0.0590   19.9410 C   0  0  0  0  0  0  0  0  0  0  0  0
    5.2720    0.8810   20.2250 C   0  0  0  0  0  0  0  0  0  0  0  0
    4.5850    1.4720   19.1780 C   0  0  0  0  0  0  0  0  0  0  0  0
    5.0910    1.2870   17.8980 C   0  0  0  0  0  0  0  0  0  0  0  0
    6.2150    0.5360   17.6900 N   0  0  0  0  0  0  0  0  0  0  0  0
    6.9520   -0.0900   18.6880 C   0  0  0  0  0  0  0  0  0  0  0  0
    9.1570   -0.1520   22.1900 N   0  0  0  0  0  0  0  0  0  0  0  0
   10.2190   -0.5120   22.8800 C   0  0  0  0  0  0  0  0  0  0  0  0
   10.2190   -0.2510   24.2520 C   0  0  0  0  0  0  0  0  0  0  0  0
   11.2790   -0.5550   25.0860 C   0  0  0  0  0  0  0  0  0  0  0  0
   12.4540   -1.1390   24.6390 C   0  0  0  0  0  0  0  0  0  0  0  0
   12.5160   -1.4230   23.3070 C   0  0  0  0  0  0  0  0  0  0  0  0
   13.4220   -1.9010   22.7270 O   0  0  0  0  0  0  0  0  0  0  0  0
   13.4010   -1.0980   21.5990 C   0  0  0  0  0  0  0  0  0  0  0  0
   13.3800    0.1930   22.1520 C   0  0  0  0  0  0  0  0  0  0  0  0
   13.9810    1.0590   21.5570 O   0  0  0  0  0  0  0  0  0  0  0  0
   11.3600   -1.1030   22.4130 C   0  0  0  0  0  0  0  0  0  0  0  0
  1  2  2  0
  2  3  1  0
  3  4  1  0
  4  5  2  0
  5  6  1  0
  6  7  2  0
  7  8  1  0
  4  9  1  0
  8  9  2  0
  2 10  1  0
 10 11  1  0
 11 12  2  0
 12 13  1  0
 13 14  2  0
 14 15  1  0
 15 16  1  0
 16 17  1  0
 17 18  1  0
 18 19  1  0
 11 20  1  0
 15 20  2  0
M  END
