pyridine_urea_6580
     RDKit          3D

 22 23  0  0  0  0  0  0  0  0999 V2000
   13.0330   -2.2390   21.3570 C   0  0  0  0  0  0  0  0  0  0  0  0
   13.0160   -1.3480   22.4730 O   0  0  0  0  0  0  0  0  0  0  0  0
   11.9060   -1.4730   23.2820 C   0  0  0  0  0  0  0  0  0  0  0  0
   11.7870   -2.4190   24.0720 O   0  0  0  0  0  0  0  0  0  0  0  0
   10.8540   -0.3200   23.1150 C   0  0  1  0  0  0  0  0  0  0  0  0
    9.6670   -0.7260   22.1840 N   0  0  0  0  0  0  0  0  0  0  0  0
    8.8160    0.1800   21.5200 C   0  0  0  0  0  0  0  0  0  0  0  0
    9.1400    1.3520   21.3080 O   0  0  0  0  0  0  0  0  0  0  0  0
    7.6050   -0.3860   21.1360 N   0  0  0  0  0  0  0  0  0  0  0  0
    6.7760    0.1290   20.1150 C   0  0  0  0  0  0  0  0  0  0  0  0
    5.6530    0.8800   20.4620 C   0  0  0  0  0  0  0  0  0  0  0  0
    4.8530    1.3980   19.4580 C   0  0  0  0  0  0  0  0  0  0  0  0
    5.1720    1.1670   18.1350 C   0  0  0  0  0  0  0  0  0  0  0  0
    6.2320    0.4490   17.7630 N   0  0  0  0  0  0  0  0  0  0  0  0
    7.0100   -0.0570   18.7560 C   0  0  0  0  0  0  0  0  0  0  0  0
   10.1700    0.1720   24.4360 C   0  0  0  0  0  0  0  0  0  0  0  0
   11.2650    0.8700   23.9570 C   0  0  0  0  0  0  0  0  0  0  0  0
   11.8880    0.3560   22.7930 C   0  0  0  0  0  0  0  0  0  0  0  0
   11.1380   -0.9550   22.2950 C   0  0  0  0  0  0  0  0  0  0  0  0
    9.9920   -1.5300   22.9430 C   0  0  0  0  0  0  0  0  0  0  0  0
    9.4760   -0.9340   24.0800 C   0  0  0  0  0  0  0  0  0  0  0  0
    8.3340   -1.5550   24.6920 O   0  0  0  0  0  0  0  0  0  0  0  0
  1  2  1  0
  2  3  1  0
  3  4  2  0
  3  5  1  0
  5  6  1  6
  6  7  1  0
  7  8  2  0
  7  9  1  0
  9 10  1  0
 10 11  2  0
 11 12  1  0
 12 13  2  0
 13 14  1  0
 10 15  1  0
 14 15  2  0
  5 16  1  0
 16 17  2  0
 17 18  1  0
 18 19  2  0
 19 20  1  0
 16 21  1  0
 20 21  2  0
 21 22  1  0
M  END
