pyridine_urea_13287
     RDKit          3D

 20 22  0  0  0  0  0  0  0  0999 V2000
   12.7190    1.8320   23.0620 C   0  0  0  0  0  0  0  0  0  0  0  0
   13.4210    0.6330   23.4050 O   0  0  0  0  0  0  0  0  0  0  0  0
   12.6760   -0.4690   23.6770 C   0  0  1  0  0  0  0  0  0  0  0  0
   13.1350   -1.5290   24.4760 C   0  0  0  0  0  0  0  0  0  0  0  0
   11.4110    0.0340   24.4510 C   0  0  0  0  0  0  0  0  0  0  0  0
   10.3540   -0.0530   23.5960 C   0  0  1  0  0  0  0  0  0  0  0  0
   11.0860    0.1800   22.3630 C   0  0  0  0  0  0  0  0  0  0  0  0
   11.9940   -0.8350   22.5040 C   0  0  2  0  0  0  0  0  0  0  0  0
   10.9940   -1.9510   22.6880 C   0  0  0  0  0  0  0  0  0  0  0  0
    9.9030   -1.3620   23.3690 C   0  0  2  0  0  0  0  0  0  0  0  0
    8.7420   -1.3830   22.4770 N   0  0  0  0  0  0  0  0  0  0  0  0
    8.2620   -0.3710   21.6570 C   0  0  0  0  0  0  0  0  0  0  0  0
    8.8760    0.8380   21.4300 O   0  0  0  0  0  0  0  0  0  0  0  0
    7.0510   -0.7290   21.0940 N   0  0  0  0  0  0  0  0  0  0  0  0
    6.4230   -0.0440   20.0450 C   0  0  0  0  0  0  0  0  0  0  0  0
    5.2350    0.6610   20.3060 C   0  0  0  0  0  0  0  0  0  0  0  0
    4.6510    1.3380   19.2420 C   0  0  0  0  0  0  0  0  0  0  0  0
    5.2210    1.3100   17.9950 C   0  0  0  0  0  0  0  0  0  0  0  0
    6.3500    0.6420   17.7150 N   0  0  0  0  0  0  0  0  0  0  0  0
    6.9280   -0.0240   18.7440 C   0  0  0  0  0  0  0  0  0  0  0  0
  1  2  1  0
  3  2  1  0
  3  4  1  1
  3  5  1  0
  6  5  1  1
  6  7  1  0
  3  8  1  0
  7  8  1  0
  8  9  1  1
  6 10  1  0
  9 10  1  0
 10 11  1  6
 11 12  1  0
 12 13  2  0
 12 14  1  0
 14 15  1  0
 15 16  2  0
 16 17  1  0
 17 18  2  0
 18 19  1  0
 15 20  1  0
 19 20  2  0
M  END
