pyridine_urea_1471
     RDKit          3D

 19 21  0  0  0  0  0  0  0  0999 V2000
   14.0480   -2.7440   25.8070 C   0  0  0  0  0  0  0  0  0  0  0  0
   13.1760   -2.4210   24.5940 C   0  0  0  0  0  0  0  0  0  0  0  0
   12.5680   -1.1810   24.9190 O   0  0  0  0  0  0  0  0  0  0  0  0
   12.7960   -0.4010   23.8210 C   0  0  2  0  0  0  0  0  0  0  0  0
   12.2710    0.8490   23.6860 C   0  0  0  0  0  0  0  0  0  0  0  0
   11.3670    0.4580   22.7580 C   0  0  2  0  0  0  0  0  0  0  0  0
   11.9530   -0.8070   22.6300 C   0  0  0  0  0  0  0  0  0  0  0  0
   10.1030    0.7450   23.1550 C   0  0  0  0  0  0  0  0  0  0  0  0
   10.1220   -0.5050   23.1510 C   0  0  1  0  0  0  0  0  0  0  0  0
    9.1010   -0.9870   22.2540 N   0  0  0  0  0  0  0  0  0  0  0  0
    8.4300   -0.0770   21.4820 C   0  0  0  0  0  0  0  0  0  0  0  0
    8.9770    1.1810   21.1350 O   0  0  0  0  0  0  0  0  0  0  0  0
    7.1560   -0.5140   21.0860 N   0  0  0  0  0  0  0  0  0  0  0  0
    6.5150    0.0620   20.0260 C   0  0  0  0  0  0  0  0  0  0  0  0
    5.3750    0.7860   20.3730 C   0  0  0  0  0  0  0  0  0  0  0  0
    4.6670    1.4510   19.2500 C   0  0  0  0  0  0  0  0  0  0  0  0
    5.1360    1.3340   17.9730 C   0  0  0  0  0  0  0  0  0  0  0  0
    6.2330    0.6210   17.6480 N   0  0  0  0  0  0  0  0  0  0  0  0
    6.9180   -0.0160   18.7060 C   0  0  0  0  0  0  0  0  0  0  0  0
  1  2  1  0
  2  3  1  0
  4  3  1  1
  4  5  1  0
  6  5  1  6
  4  7  1  0
  6  7  1  0
  6  8  1  0
  6  9  1  0
  8  9  1  0
  9 10  1  6
 10 11  1  0
 11 12  2  0
 11 13  1  0
 13 14  1  0
 14 15  2  0
 15 16  1  0
 16 17  2  0
 17 18  1  0
 14 19  1  0
 18 19  2  0
M  END
