pyridine_urea_8558
     RDKit          3D

 22 23  0  0  0  0  0  0  0  0999 V2000
    9.9780   -1.3390   21.5120 C   0  0  0  0  0  0  0  0  0  0  0  0
    9.7090   -1.0140   22.9090 C   0  0  2  0  0  0  0  0  0  0  0  0
    9.2040    0.3200   23.0010 N   0  0  0  0  0  0  0  0  0  0  0  0
    8.5740    0.7030   21.7100 C   0  0  0  0  0  0  0  0  0  0  0  0
    9.0190    1.7140   21.1350 O   0  0  0  0  0  0  0  0  0  0  0  0
    7.5330   -0.0990   21.2670 N   0  0  0  0  0  0  0  0  0  0  0  0
    6.7340    0.2870   20.1750 C   0  0  0  0  0  0  0  0  0  0  0  0
    5.6070    1.0400   20.4270 C   0  0  0  0  0  0  0  0  0  0  0  0
    4.7410    1.4980   19.2760 C   0  0  0  0  0  0  0  0  0  0  0  0
    5.1330    1.1320   18.0070 C   0  0  0  0  0  0  0  0  0  0  0  0
    6.2270    0.3900   17.7850 N   0  0  0  0  0  0  0  0  0  0  0  0
    6.9920   -0.0170   18.8380 C   0  0  0  0  0  0  0  0  0  0  0  0
   10.9910   -1.4650   23.6410 C   0  0  0  0  0  0  0  0  0  0  0  0
   10.9370   -2.5670   24.0440 C   0  0  0  0  0  0  0  0  0  0  0  0
   12.0160   -1.6060   24.1360 C   0  0  0  0  0  0  0  0  0  0  0  0
   11.2490   -0.4220   23.3340 C   0  0  0  0  0  0  0  0  0  0  0  0
   12.4430    0.0690   23.6580 C   0  0  0  0  0  0  0  0  0  0  0  0
   12.3330   -1.0690   24.0480 C   0  0  0  0  0  0  0  0  0  0  0  0
   13.0750   -2.0500   24.7080 C   0  0  0  0  0  0  0  0  0  0  0  0
   13.6930   -1.7980   25.8480 F   0  0  0  0  0  0  0  0  0  0  0  0
   12.4000   -3.1700   24.9780 F   0  0  0  0  0  0  0  0  0  0  0  0
   14.0120   -2.5560   23.8770 F   0  0  0  0  0  0  0  0  0  0  0  0
  2  1  1  6
  2  3  1  0
  3  4  1  0
  4  5  2  0
  4  6  1  0
  6  7  1  0
  7  8  2  0
  8  9  1  0
  9 10  2  0
 10 11  1  0
  7 12  1  0
 11 12  2  0
  2 13  1  0
 13 14  2  0
 14 15  1  0
 15 16  2  0
 16 17  1  0
 13 18  1  0
 17 18  2  0
 18 19  1  0
 19 20  1  0
 19 21  1  0
 19 22  1  0
M  END
