pyridine_urea_7655
     RDKit          3D

 18 18  0  0  0  0  0  0  0  0999 V2000
    8.9350    1.1730   21.2070 O   0  0  0  0  0  0  0  0  0  0  0  0
    8.4320    0.0850   21.5200 C   0  0  0  0  0  0  0  0  0  0  0  0
    8.9680   -0.8180   22.3990 N   0  0  0  0  0  0  0  0  0  0  0  0
   10.3230   -1.1600   22.5210 C   0  0  0  0  0  0  0  0  0  0  0  0
   11.0710   -0.4110   23.4170 C   0  0  0  0  0  0  0  0  0  0  0  0
   12.7930   -0.4450   23.4450 S   0  0  0  0  0  0  0  0  0  0  0  0
   13.1900   -0.5740   22.0650 O   0  0  0  0  0  0  0  0  0  0  0  0
   12.7910   -2.0730   24.1460 C   0  0  0  0  0  0  0  0  0  0  0  0
   13.4580   -2.9080   23.3180 F   0  0  0  0  0  0  0  0  0  0  0  0
   13.4220   -2.1390   25.3400 F   0  0  0  0  0  0  0  0  0  0  0  0
   11.5550   -2.6040   24.3110 F   0  0  0  0  0  0  0  0  0  0  0  0
    7.2380   -0.4090   21.0590 N   0  0  0  0  0  0  0  0  0  0  0  0
    6.4910    0.1790   20.0270 C   0  0  0  0  0  0  0  0  0  0  0  0
    5.3360    0.8890   20.3760 C   0  0  0  0  0  0  0  0  0  0  0  0
    4.6090    1.4910   19.3540 C   0  0  0  0  0  0  0  0  0  0  0  0
    5.1590    1.3070   17.9600 C   0  0  0  0  0  0  0  0  0  0  0  0
    6.2560    0.6170   17.6550 N   0  0  0  0  0  0  0  0  0  0  0  0
    6.8960    0.0660   18.7050 C   0  0  0  0  0  0  0  0  0  0  0  0
  1  2  2  0
  2  3  1  0
  3  4  1  0
  4  5  1  0
  6  5  1  6
  6  7  2  0
  6  8  1  0
  8  9  1  0
  8 10  1  0
  8 11  1  0
  2 12  1  0
 12 13  1  0
 13 14  2  0
 14 15  1  0
 15 16  2  0
 16 17  1  0
 13 18  1  0
 17 18  2  0
M  END
