pyridine_urea_10188
     RDKit          3D

 23 25  0  0  0  0  0  0  0  0999 V2000
    8.8250   -4.2930   25.1100 C   0  0  0  0  0  0  0  0  0  0  0  0
    8.7900   -3.4890   24.1830 O   0  0  0  0  0  0  0  0  0  0  0  0
    8.9210   -2.1580   24.4870 C   0  0  0  0  0  0  0  0  0  0  0  0
    8.7120   -1.7060   25.6070 O   0  0  0  0  0  0  0  0  0  0  0  0
    9.3160   -1.3450   23.4170 C   0  0  0  0  0  0  0  0  0  0  0  0
    8.1120   -0.7000   22.9550 N   0  0  0  0  0  0  0  0  0  0  0  0
    8.0830   -0.1610   21.6080 C   0  0  0  0  0  0  0  0  0  0  0  0
    8.8690    0.9970   21.2200 O   0  0  0  0  0  0  0  0  0  0  0  0
    7.2050   -0.8420   20.8110 N   0  0  0  0  0  0  0  0  0  0  0  0
    6.4650   -0.0530   19.8740 C   0  0  0  0  0  0  0  0  0  0  0  0
    5.2620    0.5940   20.2090 C   0  0  0  0  0  0  0  0  0  0  0  0
    4.5870    1.4210   19.0910 C   0  0  0  0  0  0  0  0  0  0  0  0
    5.1540    1.5080   17.8350 C   0  0  0  0  0  0  0  0  0  0  0  0
    6.3090    0.8350   17.6310 N   0  0  0  0  0  0  0  0  0  0  0  0
    6.9540    0.0810   18.5920 C   0  0  0  0  0  0  0  0  0  0  0  0
   10.1390   -0.3340   23.9300 C   0  0  0  0  0  0  0  0  0  0  0  0
   11.2650   -0.4140   23.2110 C   0  0  0  0  0  0  0  0  0  0  0  0
   12.4490    0.6150   23.3780 C   0  0  0  0  0  0  0  0  0  0  0  0
   13.6480    0.5200   22.6420 C   0  0  0  0  0  0  0  0  0  0  0  0
   13.4850   -0.5440   21.9090 C   0  0  0  0  0  0  0  0  0  0  0  0
   12.3430   -0.6560   22.4290 C   0  0  0  0  0  0  0  0  0  0  0  0
   11.4330   -1.4730   22.2380 C   0  0  0  0  0  0  0  0  0  0  0  0
   10.1490   -1.9940   22.4810 C   0  0  0  0  0  0  0  0  0  0  0  0
  1  2  1  0
  2  3  1  0
  3  4  2  0
  5  3  1  0
  5  6  1  0
  6  7  1  0
  7  8  2  0
  7  9  1  0
  9 10  1  0
 10 11  2  0
 11 12  1  0
 12 13  2  0
 13 14  1  0
 10 15  1  0
 14 15  2  0
  5 16  1  0
 16 17  1  0
 17 18  1  0
 18 19  2  0
 19 20  1  0
 20 21  2  0
 17 22  2  0
 21 22  1  0
  5 23  1  0
 22 23  1  0
M  END
