pyridine_urea_3409
     RDKit          3D

 19 20  0  0  0  0  0  0  0  0999 V2000
    8.9150    0.7160   21.5180 O   0  0  0  0  0  0  0  0  0  0  0  0
    8.4140   -0.3890   21.3520 C   0  0  0  0  0  0  0  0  0  0  0  0
    9.0850   -1.5820   21.3750 N   0  0  0  0  0  0  0  0  0  0  0  0
    9.9400   -2.0440   22.3960 C   0  0  0  0  0  0  0  0  0  0  0  0
   11.2300   -1.6470   22.1900 C   0  0  0  0  0  0  0  0  0  0  0  0
   12.5010   -0.9820   22.2450 C   0  0  0  0  0  0  0  0  0  0  0  0
   13.3340   -1.4060   21.4540 O   0  0  0  0  0  0  0  0  0  0  0  0
   13.0360    0.0500   22.9790 C   0  0  0  0  0  0  0  0  0  0  0  0
   12.2100    0.6900   23.9990 C   0  0  0  0  0  0  0  0  0  0  0  0
   11.0100    0.1550   24.0970 C   0  0  0  0  0  0  0  0  0  0  0  0
   10.5460   -0.9520   23.2340 C   0  0  0  0  0  0  0  0  0  0  0  0
    8.9120   -1.3830   23.6600 Cl  0  0  0  0  0  0  0  0  0  0  0  0
    7.0890   -0.6110   21.0750 N   0  0  0  0  0  0  0  0  0  0  0  0
    6.3760    0.0640   20.0770 C   0  0  0  0  0  0  0  0  0  0  0  0
    5.1940    0.7630   20.2720 C   0  0  0  0  0  0  0  0  0  0  0  0
    4.5990    1.4020   19.1830 C   0  0  0  0  0  0  0  0  0  0  0  0
    5.2080    1.3230   17.9340 C   0  0  0  0  0  0  0  0  0  0  0  0
    6.3480    0.6460   17.7310 N   0  0  0  0  0  0  0  0  0  0  0  0
    6.8970    0.0360   18.7960 C   0  0  0  0  0  0  0  0  0  0  0  0
  1  2  2  0
  2  3  1  0
  3  4  1  0
  4  5  1  0
  5  6  2  0
  6  7  1  0
  6  8  1  0
  8  9  2  0
  9 10  1  0
  5 11  1  0
 10 11  2  0
 11 12  1  0
  2 13  1  0
 13 14  1  0
 14 15  2  0
 15 16  1  0
 16 17  2  0
 17 18  1  0
 14 19  1  0
 18 19  2  0
M  END
