pyridine_urea_5915
     RDKit          3D

 28 30  0  0  0  0  0  0  0  0999 V2000
   12.4250    3.4940   22.6070 C   0  0  0  0  0  0  0  0  0  0  0  0
   11.2830    2.7490   23.0300 O   0  0  0  0  0  0  0  0  0  0  0  0
   11.4110    1.3910   22.9240 C   0  0  0  0  0  0  0  0  0  0  0  0
   12.4680    0.8590   22.6350 O   0  0  0  0  0  0  0  0  0  0  0  0
   10.2330    0.6660   23.1940 C   0  0  0  0  0  0  0  0  0  0  0  0
    9.6390    0.0330   22.0930 C   0  0  2  0  0  0  0  0  0  0  0  0
    8.5740   -0.6890   22.2550 N   0  0  0  0  0  0  0  0  0  0  0  0
    7.8280   -0.0380   21.3560 C   0  0  0  0  0  0  0  0  0  0  0  0
    8.1000    1.0970   20.9870 O   0  0  0  0  0  0  0  0  0  0  0  0
    6.7970   -0.7570   20.9300 N   0  0  0  0  0  0  0  0  0  0  0  0
    6.2540   -0.0690   19.9200 C   0  0  0  0  0  0  0  0  0  0  0  0
    4.9410    0.6030   20.2030 C   0  0  0  0  0  0  0  0  0  0  0  0
    4.3960    1.3790   19.0350 C   0  0  0  0  0  0  0  0  0  0  0  0
    5.1360    1.3930   17.8680 C   0  0  0  0  0  0  0  0  0  0  0  0
    6.2950    0.8070   17.5910 N   0  0  0  0  0  0  0  0  0  0  0  0
    6.8080    0.0770   18.6770 C   0  0  0  0  0  0  0  0  0  0  0  0
   10.4640   -0.8710   21.5120 C   0  0  0  0  0  0  0  0  0  0  0  0
   10.6690   -0.7190   22.7660 C   0  0  0  0  0  0  0  0  0  0  0  0
   11.2070   -0.9100   23.8730 C   0  0  0  0  0  0  0  0  0  0  0  0
   12.0860   -1.7610   23.6760 C   0  0  0  0  0  0  0  0  0  0  0  0
   12.7720   -2.1660   24.5660 C   0  0  0  0  0  0  0  0  0  0  0  0
   12.6930   -3.3640   24.7220 C   0  0  0  0  0  0  0  0  0  0  0  0
   13.4680   -3.9020   25.6630 C   0  0  0  0  0  0  0  0  0  0  0  0
   14.1740   -3.3290   26.3300 C   0  0  0  0  0  0  0  0  0  0  0  0
   14.2830   -2.1100   26.2320 C   0  0  0  0  0  0  0  0  0  0  0  0
   13.5170   -1.4690   25.2830 C   0  0  0  0  0  0  0  0  0  0  0  0
   12.2850   -2.2630   22.4490 C   0  0  0  0  0  0  0  0  0  0  0  0
   11.5200   -1.8500   21.4230 C   0  0  0  0  0  0  0  0  0  0  0  0
  1  2  1  0
  2  3  1  0
  3  4  2  0
  3  5  1  0
  6  5  1  1
  6  7  1  0
  7  8  1  0
  8  9  2  0
  8 10  1  0
 10 11  1  0
 11 12  2  0
 12 13  1  0
 13 14  2  0
 14 15  1  0
 11 16  1  0
 15 16  2  0
  6 17  1  0
 17 18  2  0
 18 19  1  0
 19 20  2  0
 20 21  1  0
 21 22  2  0
 22 23  1  0
 23 24  2  0
 24 25  1  0
 21 26  1  0
 25 26  2  0
 20 27  1  0
 17 28  1  0
 27 28  2  0
M  END
