pyridine_urea_12799
     RDKit          3D

 20 21  0  0  0  0  0  0  0  0999 V2000
   11.0880   -3.7440   25.5650 C   0  0  0  0  0  0  0  0  0  0  0  0
   11.1920   -2.5230   24.8340 O   0  0  0  0  0  0  0  0  0  0  0  0
   10.0780   -2.1210   24.1470 C   0  0  0  0  0  0  0  0  0  0  0  0
    8.9630   -2.5780   24.3650 O   0  0  0  0  0  0  0  0  0  0  0  0
   10.3390   -1.0400   23.0630 C   0  0  0  0  0  0  0  0  0  0  0  0
    9.1690   -1.1040   22.1800 N   0  0  0  0  0  0  0  0  0  0  0  0
    8.5750   -0.0550   21.4880 C   0  0  0  0  0  0  0  0  0  0  0  0
    9.1650    1.1500   21.2220 O   0  0  0  0  0  0  0  0  0  0  0  0
    7.2980   -0.4140   21.1080 N   0  0  0  0  0  0  0  0  0  0  0  0
    6.5770    0.1550   20.0480 C   0  0  0  0  0  0  0  0  0  0  0  0
    5.4070    0.8780   20.3390 C   0  0  0  0  0  0  0  0  0  0  0  0
    4.7260    1.4370   19.2720 C   0  0  0  0  0  0  0  0  0  0  0  0
    5.1980    1.2900   17.9960 C   0  0  0  0  0  0  0  0  0  0  0  0
    6.2870    0.6040   17.6690 N   0  0  0  0  0  0  0  0  0  0  0  0
    6.9560    0.0510   18.7130 C   0  0  0  0  0  0  0  0  0  0  0  0
   11.5820   -1.4110   22.2760 C   0  0  0  0  0  0  0  0  0  0  0  0
   12.7100   -0.5890   22.5010 C   0  0  0  0  0  0  0  0  0  0  0  0
   12.7760   -0.3950   23.6960 O   0  0  0  0  0  0  0  0  0  0  0  0
   11.6970    0.3860   24.1950 C   0  0  0  0  0  0  0  0  0  0  0  0
   10.5290    0.2750   23.4670 C   0  0  0  0  0  0  0  0  0  0  0  0
  1  2  1  0
  2  3  1  0
  3  4  2  0
  5  3  1  0
  5  6  1  0
  6  7  1  0
  7  8  2  0
  7  9  1  0
  9 10  1  0
 10 11  2  0
 11 12  1  0
 12 13  2  0
 13 14  1  0
 10 15  1  0
 14 15  2  0
  5 16  1  0
 16 17  1  0
 17 18  1  0
 18 19  1  0
  5 20  1  0
 19 20  1  0
M  END
