pyridine_urea_171
     RDKit          3D

 18 19  0  0  0  0  0  0  0  0999 V2000
   10.5220   -2.4280   23.9460 C   0  0  0  0  0  0  0  0  0  0  0  0
   11.8720   -2.7340   24.2800 O   0  0  0  0  0  0  0  0  0  0  0  0
   12.6760   -1.5950   24.5990 C   0  0  0  0  0  0  0  0  0  0  0  0
   13.4130   -1.5600   25.5600 O   0  0  0  0  0  0  0  0  0  0  0  0
   12.4850   -0.5020   23.5750 C   0  0  1  0  0  0  0  0  0  0  0  0
   13.0800   -0.7100   22.4040 C   0  0  0  0  0  0  0  0  0  0  0  0
   11.6480   -0.8680   22.2550 C   0  0  2  0  0  0  0  0  0  0  0  0
   10.4670   -0.0760   22.8460 C   0  0  0  0  0  0  0  0  0  0  0  0
    9.1590   -0.6230   22.4430 N   0  0  0  0  0  0  0  0  0  0  0  0
    8.4280    0.1060   21.5440 C   0  0  0  0  0  0  0  0  0  0  0  0
    8.8650    1.4090   21.1210 O   0  0  0  0  0  0  0  0  0  0  0  0
    7.2230   -0.5730   21.1230 N   0  0  0  0  0  0  0  0  0  0  0  0
    6.5540    0.0520   19.9920 C   0  0  0  0  0  0  0  0  0  0  0  0
    5.3240    0.8420   20.3290 C   0  0  0  0  0  0  0  0  0  0  0  0
    4.6720    1.4760   19.2850 C   0  0  0  0  0  0  0  0  0  0  0  0
    5.0970    1.4150   17.9650 C   0  0  0  0  0  0  0  0  0  0  0  0
    6.2830    0.6320   17.6770 N   0  0  0  0  0  0  0  0  0  0  0  0
    6.9540   -0.0100   18.6810 C   0  0  0  0  0  0  0  0  0  0  0  0
  1  2  1  0
  2  3  1  0
  3  4  2  0
  5  3  1  1
  5  6  1  0
  5  7  1  0
  6  7  1  0
  7  8  1  6
  8  9  1  0
  9 10  1  0
 10 11  2  0
 10 12  1  0
 12 13  1  0
 13 14  2  0
 14 15  1  0
 15 16  2  0
 16 17  1  0
 13 18  1  0
 17 18  2  0
M  END
