pyridine_urea_6717
     RDKit          3D

 21 22  0  0  0  0  0  0  0  0999 V2000
    9.1200   -0.7920   20.8750 O   0  0  0  0  0  0  0  0  0  0  0  0
    8.2490   -0.3640   21.5540 C   0  0  0  0  0  0  0  0  0  0  0  0
    8.4770    0.3210   22.7040 N   0  0  0  0  0  0  0  0  0  0  0  0
    9.7700    0.6380   23.1470 C   0  0  0  0  0  0  0  0  0  0  0  0
   10.6370   -0.4660   23.7160 C   0  0  0  0  0  0  0  0  0  0  0  0
    9.9930   -1.0610   24.7920 N   0  0  0  0  0  0  0  0  0  0  0  0
    8.9100   -1.8240   24.3290 O   0  0  0  0  0  0  0  0  0  0  0  0
    9.4150   -2.9140   23.7220 C   0  0  0  0  0  0  0  0  0  0  0  0
   10.8640   -2.6080   23.5590 C   0  0  0  0  0  0  0  0  0  0  0  0
   11.9840   -2.5080   24.3540 C   0  0  0  0  0  0  0  0  0  0  0  0
   13.1690   -2.1510   23.7200 C   0  0  0  0  0  0  0  0  0  0  0  0
   13.2070   -1.9110   22.3270 C   0  0  0  0  0  0  0  0  0  0  0  0
   12.0960   -2.0290   21.5220 C   0  0  0  0  0  0  0  0  0  0  0  0
   10.8880   -2.3690   22.0600 C   0  0  0  0  0  0  0  0  0  0  0  0
    6.9200   -0.5210   21.2390 N   0  0  0  0  0  0  0  0  0  0  0  0
    6.2890    0.1120   20.2240 C   0  0  0  0  0  0  0  0  0  0  0  0
    5.0740    0.8480   20.3880 C   0  0  0  0  0  0  0  0  0  0  0  0
    4.5860    1.4710   19.0810 C   0  0  0  0  0  0  0  0  0  0  0  0
    5.2500    1.3330   17.8920 C   0  0  0  0  0  0  0  0  0  0  0  0
    6.3790    0.6470   17.7340 N   0  0  0  0  0  0  0  0  0  0  0  0
    6.8540    0.0470   18.9520 C   0  0  0  0  0  0  0  0  0  0  0  0
  1  2  2  0
  2  3  1  0
  3  4  1  0
  4  5  1  0
  5  6  1  0
  6  7  1  0
  7  8  1  0
  8  9  1  0
  9 10  2  0
 10 11  1  0
 11 12  2  0
 12 13  1  0
  9 14  1  0
 13 14  2  0
  2 15  1  0
 15 16  1  0
 16 17  2  0
 17 18  1  0
 18 19  2  0
 19 20  1  0
 16 21  1  0
 20 21  2  0
M  END
