pyridine_urea_10172
     RDKit          3D

 23 24  0  0  0  0  0  0  0  0999 V2000
    9.2900    3.5150   22.2010 C   0  0  0  0  0  0  0  0  0  0  0  0
   10.6650    3.3410   22.8160 C   0  0  0  0  0  0  0  0  0  0  0  0
   10.7450    3.8140   24.0930 C   0  0  0  0  0  0  0  0  0  0  0  0
   11.8230    4.0190   22.0270 C   0  0  0  0  0  0  0  0  0  0  0  0
   10.9260    1.9490   22.9790 O   0  0  0  0  0  0  0  0  0  0  0  0
   10.1040    1.0580   22.3510 C   0  0  0  0  0  0  0  0  0  0  0  0
    9.2410    1.4780   21.2810 O   0  0  0  0  0  0  0  0  0  0  0  0
   10.2010   -0.2590   22.8600 C   0  0  0  0  0  0  0  0  0  0  0  0
    8.8710   -0.8350   22.5940 N   0  0  0  0  0  0  0  0  0  0  0  0
    8.1150   -0.2900   21.5620 C   0  0  0  0  0  0  0  0  0  0  0  0
    8.4350    0.7240   20.9850 O   0  0  0  0  0  0  0  0  0  0  0  0
    6.8840   -1.0100   21.2060 N   0  0  0  0  0  0  0  0  0  0  0  0
    6.3290   -0.2490   20.0850 C   0  0  0  0  0  0  0  0  0  0  0  0
    5.1360    0.4670   20.2980 C   0  0  0  0  0  0  0  0  0  0  0  0
    4.5730    1.2220   19.2610 C   0  0  0  0  0  0  0  0  0  0  0  0
    5.1970    1.2650   18.0180 C   0  0  0  0  0  0  0  0  0  0  0  0
    6.3330    0.6080   17.7380 N   0  0  0  0  0  0  0  0  0  0  0  0
    6.9020   -0.1760   18.8300 C   0  0  0  0  0  0  0  0  0  0  0  0
   11.1890   -1.1580   22.1730 C   0  0  0  0  0  0  0  0  0  0  0  0
   12.5280   -0.8960   22.4690 C   0  0  0  0  0  0  0  0  0  0  0  0
   12.6910    0.3400   23.0500 C   0  0  0  0  0  0  0  0  0  0  0  0
   11.9440    0.4910   24.2050 C   0  0  0  0  0  0  0  0  0  0  0  0
   10.6440   -0.0340   24.1530 C   0  0  0  0  0  0  0  0  0  0  0  0
  1  2  1  0
  2  3  1  0
  2  4  1  0
  2  5  1  0
  5  6  1  0
  6  7  2  0
  8  6  1  0
  8  9  1  0
  9 10  1  0
 10 11  2  0
 10 12  1  0
 12 13  1  0
 13 14  2  0
 14 15  1  0
 15 16  2  0
 16 17  1  0
 13 18  1  0
 17 18  2  0
  8 19  1  0
 19 20  1  0
 20 21  1  0
 21 22  1  0
  8 23  1  0
 22 23  1  0
M  END
