pyridine_urea_3918
     RDKit          3D

 28 31  0  0  0  0  0  0  0  0999 V2000
    9.1800   -0.7030   20.9730 O   0  0  0  0  0  0  0  0  0  0  0  0
    8.2990   -0.2320   21.6260 C   0  0  0  0  0  0  0  0  0  0  0  0
    8.5080    0.4160   22.8190 N   0  0  0  0  0  0  0  0  0  0  0  0
    9.5290    1.3670   23.1070 C   0  0  0  0  0  0  0  0  0  0  0  0
   10.8670    0.9960   22.9240 C   0  0  0  0  0  0  0  0  0  0  0  0
   11.9880    1.7400   22.9610 C   0  0  0  0  0  0  0  0  0  0  0  0
   11.8460    3.0060   23.2130 C   0  0  0  0  0  0  0  0  0  0  0  0
   12.3470    4.2220   23.0670 C   0  0  0  0  0  0  0  0  0  0  0  0
   11.4040    5.2000   23.7750 C   0  0  0  0  0  0  0  0  0  0  0  0
    9.9200    4.9900   24.6540 C   0  0  0  0  0  0  0  0  0  0  0  0
   10.3020    6.2950   24.5990 F   0  0  0  0  0  0  0  0  0  0  0  0
    9.9960    3.6400   24.4220 C   0  0  0  0  0  0  0  0  0  0  0  0
   11.0290    3.6990   23.8020 C   0  0  0  0  0  0  0  0  0  0  0  0
   13.1030    1.0430   22.7370 N   0  0  0  0  0  0  0  0  0  0  0  0
   12.4840   -0.1820   22.5470 C   0  0  0  0  0  0  0  0  0  0  0  0
   13.0960   -1.3130   22.2270 C   0  0  0  0  0  0  0  0  0  0  0  0
   12.4000   -2.4470   22.0360 C   0  0  0  0  0  0  0  0  0  0  0  0
   10.8930   -2.3460   22.2650 C   0  0  0  0  0  0  0  0  0  0  0  0
    9.9390   -3.2370   22.2410 F   0  0  0  0  0  0  0  0  0  0  0  0
   10.3610   -1.0950   22.6060 C   0  0  0  0  0  0  0  0  0  0  0  0
   11.1550   -0.1480   22.6940 N   0  0  0  0  0  0  0  0  0  0  0  0
    6.9750   -0.2710   21.2640 N   0  0  0  0  0  0  0  0  0  0  0  0
    6.4010    0.2280   20.1460 C   0  0  0  0  0  0  0  0  0  0  0  0
    5.2220    0.9560   20.2860 C   0  0  0  0  0  0  0  0  0  0  0  0
    4.6090    1.4980   19.1620 C   0  0  0  0  0  0  0  0  0  0  0  0
    5.1970    1.2970   17.9230 C   0  0  0  0  0  0  0  0  0  0  0  0
    6.3260    0.5960   17.7620 N   0  0  0  0  0  0  0  0  0  0  0  0
    6.8970    0.0780   18.8640 C   0  0  0  0  0  0  0  0  0  0  0  0
  1  2  2  0
  2  3  1  0
  3  4  1  0
  4  5  1  0
  5  6  2  0
  6  7  1  0
  7  8  2  0
  8  9  1  0
  9 10  2  0
 10 11  1  0
 10 12  1  0
  7 13  1  0
 12 13  2  0
  6 14  1  0
 14 15  2  0
 15 16  1  0
 16 17  2  0
 17 18  1  0
 18 19  1  0
 18 20  2  0
  5 21  1  0
 15 21  1  0
 20 21  1  0
  2 22  1  0
 22 23  1  0
 23 24  2  0
 24 25  1  0
 25 26  2  0
 26 27  1  0
 23 28  1  0
 27 28  2  0
M  END
