pyridine_urea_8782
     RDKit          3D

 21 22  0  0  0  0  0  0  0  0999 V2000
   14.0420   -2.7710   25.6900 C   0  0  0  0  0  0  0  0  0  0  0  0
   13.3920   -2.0030   24.6170 C   0  0  0  0  0  0  0  0  0  0  0  0
   12.6910   -0.8830   24.8650 C   0  0  0  0  0  0  0  0  0  0  0  0
   12.2260   -0.4220   23.7180 C   0  0  0  0  0  0  0  0  0  0  0  0
   12.0360   -0.4140   22.3960 C   0  0  0  0  0  0  0  0  0  0  0  0
   11.3260    0.7550   23.0330 C   0  0  1  0  0  0  0  0  0  0  0  0
   11.1720    1.8080   22.4480 O   0  0  0  0  0  0  0  0  0  0  0  0
   10.0760    0.2970   23.4770 C   0  0  2  0  0  0  0  0  0  0  0  0
   10.0220   -0.4590   24.8080 C   0  0  0  0  0  0  0  0  0  0  0  0
    9.3740   -0.4420   22.4400 N   0  0  0  0  0  0  0  0  0  0  0  0
    8.6180    0.2630   21.5220 C   0  0  0  0  0  0  0  0  0  0  0  0
    8.9530    1.3940   21.1700 O   0  0  0  0  0  0  0  0  0  0  0  0
    7.4910   -0.4070   21.0920 N   0  0  0  0  0  0  0  0  0  0  0  0
    6.6860    0.1260   20.0730 C   0  0  0  0  0  0  0  0  0  0  0  0
    5.5280    0.8390   20.3850 C   0  0  0  0  0  0  0  0  0  0  0  0
    4.7700    1.3770   19.3600 C   0  0  0  0  0  0  0  0  0  0  0  0
    5.1260    1.2290   18.0400 C   0  0  0  0  0  0  0  0  0  0  0  0
    6.2270    0.5400   17.7100 N   0  0  0  0  0  0  0  0  0  0  0  0
    6.9720    0.0090   18.7180 C   0  0  0  0  0  0  0  0  0  0  0  0
   12.8110   -1.6020   22.2180 C   0  0  0  0  0  0  0  0  0  0  0  0
   13.4390   -2.3480   23.2600 C   0  0  0  0  0  0  0  0  0  0  0  0
  1  2  1  0
  2  3  2  0
  3  4  1  0
  4  5  2  0
  5  6  1  0
  6  7  1  6
  6  8  1  0
  8  9  1  1
  8 10  1  0
 10 11  1  0
 11 12  2  0
 11 13  1  0
 13 14  1  0
 14 15  2  0
 15 16  1  0
 16 17  2  0
 17 18  1  0
 14 19  1  0
 18 19  2  0
  5 20  1  0
  2 21  1  0
 20 21  2  0
M  END
