pyridine_urea_13171
     RDKit          3D

 17 17  0  0  0  0  0  0  0  0999 V2000
   13.2750   -2.5070   24.7520 C   0  0  0  0  0  0  0  0  0  0  0  0
   12.4060   -1.3940   24.5750 O   0  0  0  0  0  0  0  0  0  0  0  0
   12.4230   -0.7380   23.3740 C   0  0  0  0  0  0  0  0  0  0  0  0
   13.4120   -0.1090   23.0380 O   0  0  0  0  0  0  0  0  0  0  0  0
   11.3200   -0.7720   22.5260 C   0  0  1  0  0  0  0  0  0  0  0  0
   11.4120   -1.7790   21.6520 F   0  0  0  0  0  0  0  0  0  0  0  0
   10.0920   -0.8080   23.1780 C   0  0  0  0  0  0  0  0  0  0  0  0
    8.9940   -1.1640   22.4650 N   0  0  0  0  0  0  0  0  0  0  0  0
    8.4200   -0.2770   21.6000 C   0  0  0  0  0  0  0  0  0  0  0  0
    8.8980    0.8250   21.3720 O   0  0  0  0  0  0  0  0  0  0  0  0
    7.2730   -0.7990   21.0840 N   0  0  0  0  0  0  0  0  0  0  0  0
    6.5640   -0.0840   20.1490 C   0  0  0  0  0  0  0  0  0  0  0  0
    5.3990    0.6880   20.4120 C   0  0  0  0  0  0  0  0  0  0  0  0
    4.6930    1.4500   19.2540 C   0  0  0  0  0  0  0  0  0  0  0  0
    5.2650    1.3240   18.0040 C   0  0  0  0  0  0  0  0  0  0  0  0
    6.3690    0.5800   17.8070 N   0  0  0  0  0  0  0  0  0  0  0  0
    7.0100   -0.1140   18.8300 C   0  0  0  0  0  0  0  0  0  0  0  0
  1  2  1  0
  2  3  1  0
  3  4  2  0
  3  5  1  0
  5  6  1  1
  5  7  1  0
  7  8  1  0
  8  9  1  0
  9 10  2  0
  9 11  1  0
 11 12  1  0
 12 13  2  0
 13 14  1  0
 14 15  2  0
 15 16  1  0
 12 17  1  0
 16 17  2  0
M  END
