pyridine_urea_6126
     RDKit          3D

 25 27  0  0  0  0  0  0  0  0999 V2000
    8.9010    1.2080   21.2360 O   0  0  0  0  0  0  0  0  0  0  0  0
    8.2230    0.2540   21.6560 C   0  0  0  0  0  0  0  0  0  0  0  0
    8.2720   -0.2620   22.9350 N   0  0  0  0  0  0  0  0  0  0  0  0
    9.4990   -0.3760   23.6920 C   0  0  0  0  0  0  0  0  0  0  0  0
   10.1840    0.9500   23.8470 C   0  0  0  0  0  0  0  0  0  0  0  0
   11.3020    1.9300   23.7470 C   0  0  0  0  0  0  0  0  0  0  0  0
   12.5470    1.8460   23.2900 C   0  0  0  0  0  0  0  0  0  0  0  0
   13.3140    0.7640   22.7110 C   0  0  0  0  0  0  0  0  0  0  0  0
   12.5250   -0.3730   22.6340 C   0  0  0  0  0  0  0  0  0  0  0  0
   13.1830   -1.4730   22.0690 O   0  0  0  0  0  0  0  0  0  0  0  0
   12.9330   -2.6220   22.7180 C   0  0  0  0  0  0  0  0  0  0  0  0
   11.5040   -2.7150   23.1780 C   0  0  0  0  0  0  0  0  0  0  0  0
   10.9050   -2.2970   21.9490 C   0  0  0  0  0  0  0  0  0  0  0  0
    9.5230   -2.1660   21.6770 C   0  0  0  0  0  0  0  0  0  0  0  0
    8.5960   -2.4460   22.6060 C   0  0  0  0  0  0  0  0  0  0  0  0
    9.1090   -2.8750   23.8960 C   0  0  0  0  0  0  0  0  0  0  0  0
   10.5330   -2.9870   24.1330 N   0  0  0  0  0  0  0  0  0  0  0  0
   11.0590   -0.2060   23.1940 C   0  0  0  0  0  0  0  0  0  0  0  0
    7.2880   -0.4230   20.9120 N   0  0  0  0  0  0  0  0  0  0  0  0
    6.5050    0.1700   20.0050 C   0  0  0  0  0  0  0  0  0  0  0  0
    5.3220    0.8700   20.2830 C   0  0  0  0  0  0  0  0  0  0  0  0
    4.6410    1.4470   19.2210 C   0  0  0  0  0  0  0  0  0  0  0  0
    5.1340    1.3200   17.9430 C   0  0  0  0  0  0  0  0  0  0  0  0
    6.2540    0.6490   17.6480 N   0  0  0  0  0  0  0  0  0  0  0  0
    6.9070    0.0920   18.6870 C   0  0  0  0  0  0  0  0  0  0  0  0
  1  2  2  0
  2  3  1  0
  3  4  1  0
  4  5  1  0
  5  6  2  0
  6  7  1  0
  7  8  2  0
  8  9  1  0
  9 10  1  0
 10 11  1  0
 11 12  1  0
 12 13  2  0
 13 14  1  0
 14 15  2  0
 15 16  1  0
 12 17  1  0
 16 17  2  0
  5 18  1  0
  9 18  2  0
  2 19  1  0
 19 20  1  0
 20 21  2  0
 21 22  1  0
 22 23  2  0
 23 24  1  0
 20 25  1  0
 24 25  2  0
M  END
