pyridine_urea_8048
     RDKit          3D

 24 25  0  0  0  0  0  0  0  0999 V2000
    9.0350    1.4710   21.2890 O   0  0  0  0  0  0  0  0  0  0  0  0
    8.8580    0.2700   21.5000 C   0  0  0  0  0  0  0  0  0  0  0  0
    7.6000   -0.3080   21.2820 N   0  0  0  0  0  0  0  0  0  0  0  0
    6.7580    0.1850   20.1890 C   0  0  0  0  0  0  0  0  0  0  0  0
    5.4890    1.0320   20.5310 C   0  0  0  0  0  0  0  0  0  0  0  0
    4.7210    1.4990   19.4730 C   0  0  0  0  0  0  0  0  0  0  0  0
    5.1940    1.1400   18.0620 C   0  0  0  0  0  0  0  0  0  0  0  0
    6.2880    0.4010   17.8090 N   0  0  0  0  0  0  0  0  0  0  0  0
    7.0300   -0.0550   18.8490 C   0  0  0  0  0  0  0  0  0  0  0  0
    9.8340   -0.6570   21.9090 N   0  0  0  0  0  0  0  0  0  0  0  0
   10.7080   -0.5710   23.1720 C   0  0  2  0  0  0  0  0  0  0  0  0
   10.0710    0.4790   24.1020 C   0  0  0  0  0  0  0  0  0  0  0  0
   11.3590    0.9230   23.5260 C   0  0  0  0  0  0  0  0  0  0  0  0
   11.8780   -0.2560   22.7030 C   0  0  0  0  0  0  0  0  0  0  0  0
   10.9710   -1.5710   22.6720 C   0  0  0  0  0  0  0  0  0  0  0  0
    9.5790   -1.6760   23.4520 C   0  0  0  0  0  0  0  0  0  0  0  0
    8.8000   -2.8000   23.4320 N   0  0  0  0  0  0  0  0  0  0  0  0
    8.1290   -3.1430   24.6080 O   0  0  0  0  0  0  0  0  0  0  0  0
    8.5950   -3.3770   22.3630 O   0  0  0  0  0  0  0  0  0  0  0  0
    9.1900   -0.5550   24.1720 C   0  0  0  0  0  0  0  0  0  0  0  0
   12.1240   -0.4830   23.0000 C   0  0  0  0  0  0  0  0  0  0  0  0
   12.5620    0.7830   22.7200 F   0  0  0  0  0  0  0  0  0  0  0  0
   12.6240   -1.3020   22.0180 F   0  0  0  0  0  0  0  0  0  0  0  0
   12.8040   -0.8480   24.1310 F   0  0  0  0  0  0  0  0  0  0  0  0
  1  2  2  0
  2  3  1  0
  3  4  1  0
  4  5  2  0
  5  6  1  0
  6  7  2  0
  7  8  1  0
  4  9  1  0
  8  9  2  0
  2 10  1  0
 11 10  1  6
 11 12  1  0
 12 13  2  0
 13 14  1  0
 14 15  2  0
 15 16  1  0
 16 17  1  0
 17 18  2  0
 17 19  1  0
 12 20  1  0
 16 20  2  0
 11 21  1  0
 21 22  1  0
 21 23  1  0
 21 24  1  0
M  CHG  2  17   1  19  -1
M  END
