pyridine_urea_14632
     RDKit          3D

 21 23  0  0  0  0  0  0  0  0999 V2000
    9.1290    0.5920   21.3920 O   0  0  0  0  0  0  0  0  0  0  0  0
    8.2090   -0.1900   21.1910 C   0  0  0  0  0  0  0  0  0  0  0  0
    8.2630   -1.5120   20.8910 N   0  0  0  0  0  0  0  0  0  0  0  0
    7.7120   -2.4450   21.7650 C   0  0  0  0  0  0  0  0  0  0  0  0
    8.1630   -2.1750   22.9740 C   0  0  0  0  0  0  0  0  0  0  0  0
    7.5290   -1.9440   24.1800 N   0  0  0  0  0  0  0  0  0  0  0  0
    8.6210   -1.6950   24.9410 N   0  0  0  0  0  0  0  0  0  0  0  0
    9.8600   -1.7770   24.3000 C   0  0  0  0  0  0  0  0  0  0  0  0
   11.1750   -1.6180   24.6850 C   0  0  0  0  0  0  0  0  0  0  0  0
   12.2180   -1.7210   23.7770 C   0  0  0  0  0  0  0  0  0  0  0  0
   11.8460   -2.0370   22.3380 C   0  0  0  0  0  0  0  0  0  0  0  0
   13.0450   -2.1560   21.1430 Cl  0  0  0  0  0  0  0  0  0  0  0  0
   10.5140   -2.2240   22.0410 C   0  0  0  0  0  0  0  0  0  0  0  0
    9.5700   -2.0880   22.9840 N   0  0  0  0  0  0  0  0  0  0  0  0
    6.8800    0.0910   21.2240 N   0  0  0  0  0  0  0  0  0  0  0  0
    6.2110    0.5940   20.1010 C   0  0  0  0  0  0  0  0  0  0  0  0
    5.0550    1.3420   20.1690 C   0  0  0  0  0  0  0  0  0  0  0  0
    4.4810    1.8160   19.0070 C   0  0  0  0  0  0  0  0  0  0  0  0
    5.1400    1.4960   17.7300 C   0  0  0  0  0  0  0  0  0  0  0  0
    6.2740    0.7460   17.6610 N   0  0  0  0  0  0  0  0  0  0  0  0
    6.7860    0.3040   18.8710 C   0  0  0  0  0  0  0  0  0  0  0  0
  1  2  2  0
  2  3  1  0
  3  4  1  0
  4  5  1  0
  5  6  2  0
  6  7  1  0
  7  8  2  0
  8  9  1  0
  9 10  2  0
 10 11  1  0
 11 12  1  0
 11 13  2  0
  5 14  1  0
  8 14  1  0
 13 14  1  0
  2 15  1  0
 15 16  1  0
 16 17  2  0
 17 18  1  0
 18 19  2  0
 19 20  1  0
 16 21  1  0
 20 21  2  0
M  END
