pyridine_urea_3815
     RDKit          3D

 18 19  0  0  0  0  0  0  0  0999 V2000
   11.5640    2.7160   22.8140 N   0  0  0  0  0  0  0  0  0  0  0  0
   10.3520    1.7570   22.6850 S   0  0  0  0  0  0  0  0  0  0  0  0
    9.5130    1.7680   21.4880 O   0  0  0  0  0  0  0  0  0  0  0  0
    9.5710    2.0710   23.8540 O   0  0  0  0  0  0  0  0  0  0  0  0
   11.0310    0.0610   22.8770 C   0  0  0  0  0  0  0  0  0  0  0  0
    9.8920   -0.9560   23.0650 C   0  0  0  0  0  0  0  0  0  0  0  0
    9.3090   -1.1230   21.8340 N   0  0  0  0  0  0  0  0  0  0  0  0
    8.4340   -0.2630   21.3360 C   0  0  0  0  0  0  0  0  0  0  0  0
    8.7260    1.1330   21.0840 O   0  0  0  0  0  0  0  0  0  0  0  0
    7.2020   -0.8070   21.0260 N   0  0  0  0  0  0  0  0  0  0  0  0
    6.5170   -0.1390   20.0410 C   0  0  0  0  0  0  0  0  0  0  0  0
    5.2150    0.6060   20.3740 C   0  0  0  0  0  0  0  0  0  0  0  0
    4.4710    1.3720   19.2770 C   0  0  0  0  0  0  0  0  0  0  0  0
    5.1400    1.3070   17.9100 C   0  0  0  0  0  0  0  0  0  0  0  0
    6.2910    0.6040   17.7420 N   0  0  0  0  0  0  0  0  0  0  0  0
    6.9570   -0.0900   18.7410 C   0  0  0  0  0  0  0  0  0  0  0  0
   12.2970   -0.0150   23.7090 C   0  0  0  0  0  0  0  0  0  0  0  0
   12.4260   -0.3050   22.3870 C   0  0  0  0  0  0  0  0  0  0  0  0
  2  1  1  0
  2  3  2  0
  2  4  2  0
  2  5  1  0
  5  6  1  0
  6  7  1  0
  7  8  1  0
  8  9  2  0
  8 10  1  0
 10 11  1  0
 11 12  2  0
 12 13  1  0
 13 14  2  0
 14 15  1  0
 11 16  1  0
 15 16  2  0
  5 17  1  0
  5 18  1  0
 17 18  1  0
M  END
