pyridine_urea_947
     RDKit          3D

 22 24  0  0  0  0  0  0  0  0999 V2000
    8.7770    0.8960   21.2630 O   0  0  0  0  0  0  0  0  0  0  0  0
    8.4840   -0.2690   21.4880 C   0  0  0  0  0  0  0  0  0  0  0  0
    9.2410   -1.0520   22.4430 N   0  0  0  0  0  0  0  0  0  0  0  0
   10.5380   -0.6090   22.5790 C   0  0  0  0  0  0  0  0  0  0  0  0
   10.7370    0.7250   22.9010 C   0  0  0  0  0  0  0  0  0  0  0  0
   12.0380    1.1930   23.0240 C   0  0  0  0  0  0  0  0  0  0  0  0
   13.0900    0.3170   22.8310 C   0  0  0  0  0  0  0  0  0  0  0  0
   12.9330   -0.9780   22.5230 N   0  0  0  0  0  0  0  0  0  0  0  0
   11.6520   -1.4230   22.3990 C   0  0  0  0  0  0  0  0  0  0  0  0
    7.4620   -0.9730   20.9080 N   0  0  0  0  0  0  0  0  0  0  0  0
    6.3660   -0.2070   20.3430 C   0  0  2  0  0  0  0  0  0  0  0  0
    5.6070   -0.9990   19.3210 C   0  0  0  0  0  0  0  0  0  0  0  0
    5.3270   -0.1310   18.3030 C   0  0  0  0  0  0  0  0  0  0  0  0
    5.5870    1.1110   18.6840 N   0  0  0  0  0  0  0  0  0  0  0  0
    4.4100    1.5950   19.1630 C   0  0  0  0  0  0  0  0  0  0  0  0
    4.3100    2.9680   19.0850 C   0  0  0  0  0  0  0  0  0  0  0  0
    3.1860    3.3950   19.7760 C   0  0  0  0  0  0  0  0  0  0  0  0
    3.3880    3.2240   21.1380 C   0  0  0  0  0  0  0  0  0  0  0  0
    3.8550    1.9460   21.4210 C   0  0  0  0  0  0  0  0  0  0  0  0
    3.8790    1.0550   20.3540 C   0  0  0  0  0  0  0  0  0  0  0  0
    6.6010    1.0050   19.7380 C   0  0  0  0  0  0  0  0  0  0  0  0
    7.5210    1.9690   19.9760 O   0  0  0  0  0  0  0  0  0  0  0  0
  1  2  2  0
  2  3  1  0
  3  4  1  0
  4  5  2  0
  5  6  1  0
  6  7  2  0
  7  8  1  0
  4  9  1  0
  8  9  2  0
  2 10  1  0
 11 10  1  6
 11 12  1  0
 12 13  1  0
 13 14  1  0
 14 15  1  0
 15 16  1  0
 16 17  1  0
 17 18  1  0
 18 19  1  0
 15 20  1  0
 19 20  1  0
 11 21  1  0
 14 21  1  0
 21 22  2  0
M  END
