pyridine_urea_8749
     RDKit          3D

 21 22  0  0  0  0  0  0  0  0999 V2000
   12.8770   -0.6820   25.4790 C   0  0  0  0  0  0  0  0  0  0  0  0
   13.5290   -1.5260   24.7130 N   0  0  0  0  0  0  0  0  0  0  0  0
   13.5480   -2.9070   24.8760 C   0  0  0  0  0  0  0  0  0  0  0  0
   12.5410   -1.1040   23.8780 C   0  0  0  0  0  0  0  0  0  0  0  0
   12.6010    0.0460   23.3000 C   0  0  0  0  0  0  0  0  0  0  0  0
   11.5960    0.4110   22.5550 C   0  0  0  0  0  0  0  0  0  0  0  0
   10.2920   -0.4040   22.2500 C   0  0  0  0  0  0  0  0  0  0  0  0
    9.2860   -1.3140   22.1620 C   0  0  0  0  0  0  0  0  0  0  0  0
    8.6280   -0.9940   20.9990 N   0  0  0  0  0  0  0  0  0  0  0  0
    7.9770    0.1680   21.0370 C   0  0  0  0  0  0  0  0  0  0  0  0
    8.5240    1.2820   20.9880 O   0  0  0  0  0  0  0  0  0  0  0  0
    6.6850   -0.1180   21.1090 N   0  0  0  0  0  0  0  0  0  0  0  0
    6.0960    0.4200   20.0630 C   0  0  0  0  0  0  0  0  0  0  0  0
    4.9250    1.1350   20.0910 C   0  0  0  0  0  0  0  0  0  0  0  0
    4.4500    1.6610   18.9140 C   0  0  0  0  0  0  0  0  0  0  0  0
    5.1620    1.4560   17.7440 C   0  0  0  0  0  0  0  0  0  0  0  0
    6.3010    0.7590   17.6600 N   0  0  0  0  0  0  0  0  0  0  0  0
    6.7270    0.2610   18.8320 C   0  0  0  0  0  0  0  0  0  0  0  0
   10.4790   -1.5790   22.9720 C   0  0  0  0  0  0  0  0  0  0  0  0
   11.5170   -1.8760   23.7180 C   0  0  0  0  0  0  0  0  0  0  0  0
   11.4990   -3.0450   24.3450 F   0  0  0  0  0  0  0  0  0  0  0  0
  1  2  1  0
  2  3  1  0
  2  4  1  0
  4  5  2  0
  5  6  1  0
  6  7  2  0
  7  8  1  0
  8  9  1  0
  9 10  1  0
 10 11  2  0
 10 12  1  0
 12 13  1  0
 13 14  2  0
 14 15  1  0
 15 16  2  0
 16 17  1  0
 13 18  1  0
 17 18  2  0
  7 19  1  0
  4 20  1  0
 19 20  2  0
 20 21  1  0
M  END
