pyridine_urea_92
     RDKit          3D

 21 22  0  0  0  0  0  0  0  0999 V2000
    9.4260   -0.0780   26.1150 C   0  0  0  0  0  0  0  0  0  0  0  0
   10.6760   -0.2790   25.4630 O   0  0  0  0  0  0  0  0  0  0  0  0
   10.7490    0.4550   24.2410 C   0  0  0  0  0  0  0  0  0  0  0  0
    9.7680    0.7360   23.5690 O   0  0  0  0  0  0  0  0  0  0  0  0
   12.1810    0.8150   23.8730 C   0  0  0  0  0  0  0  0  0  0  0  0
   12.0850   -0.2280   23.0830 C   0  0  0  0  0  0  0  0  0  0  0  0
   11.3610   -1.1470   22.6720 C   0  0  0  0  0  0  0  0  0  0  0  0
   10.0440   -1.9330   22.6280 C   0  0  0  0  0  0  0  0  0  0  0  0
    9.2580   -1.5040   21.4530 N   0  0  0  0  0  0  0  0  0  0  0  0
    8.4810   -0.3680   21.4190 C   0  0  0  0  0  0  0  0  0  0  0  0
    9.0210    0.9480   21.5410 O   0  0  0  0  0  0  0  0  0  0  0  0
    7.0880   -0.6830   21.1870 N   0  0  0  0  0  0  0  0  0  0  0  0
    6.4920   -0.0200   20.0300 C   0  0  0  0  0  0  0  0  0  0  0  0
    5.2440    0.7700   20.2830 C   0  0  0  0  0  0  0  0  0  0  0  0
    4.6050    1.4580   19.2560 C   0  0  0  0  0  0  0  0  0  0  0  0
    5.1370    1.4110   17.9720 C   0  0  0  0  0  0  0  0  0  0  0  0
    6.3440    0.6390   17.7240 N   0  0  0  0  0  0  0  0  0  0  0  0
    6.9590   -0.0370   18.7430 C   0  0  0  0  0  0  0  0  0  0  0  0
   12.6020   -1.2430   22.0550 C   0  0  0  0  0  0  0  0  0  0  0  0
   13.1030   -2.2100   21.0740 C   0  0  0  0  0  0  0  0  0  0  0  0
   13.4480    0.1870   22.7960 S   0  0  0  0  0  0  0  0  0  0  0  0
  1  2  1  0
  2  3  1  0
  3  4  2  0
  3  5  1  0
  5  6  2  0
  6  7  1  0
  7  8  1  0
  8  9  1  0
  9 10  1  0
 10 11  2  0
 10 12  1  0
 12 13  1  0
 13 14  2  0
 14 15  1  0
 15 16  2  0
 16 17  1  0
 13 18  1  0
 17 18  2  0
  7 19  2  0
 19 20  1  0
  5 21  1  0
 19 21  1  0
M  END
