pyridine_urea_11426
     RDKit          3D

 19 21  0  0  0  0  0  0  0  0999 V2000
    8.7100    0.9190   21.3090 O   0  0  0  0  0  0  0  0  0  0  0  0
    8.2720   -0.2130   21.4670 C   0  0  0  0  0  0  0  0  0  0  0  0
    9.0610   -1.2080   21.9630 N   0  0  0  0  0  0  0  0  0  0  0  0
   10.3160   -0.6870   22.4190 C   0  0  0  0  0  0  0  0  0  0  0  0
   11.3410   -1.6900   22.9010 C   0  0  1  0  0  0  0  0  0  0  0  0
   10.9280   -2.8200   22.7080 O   0  0  0  0  0  0  0  0  0  0  0  0
   12.7030   -1.2250   22.5190 C   0  0  0  0  0  0  0  0  0  0  0  0
   12.9120   -0.3130   23.5140 C   0  0  1  0  0  0  0  0  0  0  0  0
   11.7990    0.5970   23.9200 C   0  0  0  0  0  0  0  0  0  0  0  0
   10.9490   -0.3860   24.6570 C   0  0  0  0  0  0  0  0  0  0  0  0
   11.3950   -1.6330   24.2910 C   0  0  2  0  0  0  0  0  0  0  0  0
   12.7920   -1.1550   24.6170 C   0  0  0  0  0  0  0  0  0  0  0  0
    7.0050   -0.6000   21.1580 N   0  0  0  0  0  0  0  0  0  0  0  0
    6.3380    0.0500   20.0360 C   0  0  0  0  0  0  0  0  0  0  0  0
    5.1600    0.7290   20.3400 C   0  0  0  0  0  0  0  0  0  0  0  0
    4.5210    1.3820   19.2970 C   0  0  0  0  0  0  0  0  0  0  0  0
    5.1340    1.3140   17.9230 C   0  0  0  0  0  0  0  0  0  0  0  0
    6.2650    0.6410   17.6540 N   0  0  0  0  0  0  0  0  0  0  0  0
    6.8640    0.0190   18.6790 C   0  0  0  0  0  0  0  0  0  0  0  0
  1  2  2  0
  2  3  1  0
  3  4  1  0
  4  5  1  0
  5  6  1  1
  5  7  1  0
  8  7  1  6
  8  9  1  0
  9 10  1  0
  5 11  1  0
 11 10  1  6
  8 12  1  0
 11 12  1  0
  2 13  1  0
 13 14  1  0
 14 15  2  0
 15 16  1  0
 16 17  2  0
 17 18  1  0
 14 19  1  0
 18 19  2  0
M  END
