pyridine_urea_2077
     RDKit          3D

 22 24  0  0  0  0  0  0  0  0999 V2000
    7.7630   -0.6890   26.1220 C   0  0  0  0  0  0  0  0  0  0  0  0
    8.7260    0.3620   26.7200 C   0  0  0  0  0  0  0  0  0  0  0  0
   10.0950   -0.0890   26.8700 O   0  0  0  0  0  0  0  0  0  0  0  0
   10.8070   -0.3780   25.7270 C   0  0  0  0  0  0  0  0  0  0  0  0
    9.9380   -0.4100   24.5860 C   0  0  0  0  0  0  0  0  0  0  0  0
   10.8160   -0.7430   23.5940 C   0  0  0  0  0  0  0  0  0  0  0  0
   11.9900   -1.0160   23.2200 C   0  0  0  0  0  0  0  0  0  0  0  0
   11.9090   -1.2680   22.0180 C   0  0  1  0  0  0  0  0  0  0  0  0
   11.0390   -2.1880   21.8280 C   0  0  0  0  0  0  0  0  0  0  0  0
   10.3360   -1.0400   21.5620 C   0  0  1  0  0  0  0  0  0  0  0  0
    9.1710   -0.7740   22.3500 N   0  0  0  0  0  0  0  0  0  0  0  0
    8.3760    0.0640   21.5850 C   0  0  0  0  0  0  0  0  0  0  0  0
    8.8540    1.3680   21.2760 O   0  0  0  0  0  0  0  0  0  0  0  0
    7.1930   -0.4940   21.1540 N   0  0  0  0  0  0  0  0  0  0  0  0
    6.4220    0.1200   20.1590 C   0  0  0  0  0  0  0  0  0  0  0  0
    5.1990    0.8090   20.4050 C   0  0  0  0  0  0  0  0  0  0  0  0
    4.5930    1.4000   19.1440 C   0  0  0  0  0  0  0  0  0  0  0  0
    5.1900    1.2620   17.9250 C   0  0  0  0  0  0  0  0  0  0  0  0
    6.3340    0.5960   17.7520 N   0  0  0  0  0  0  0  0  0  0  0  0
    6.9040    0.0530   18.8480 C   0  0  0  0  0  0  0  0  0  0  0  0
   12.8630   -0.9570   24.2270 C   0  0  0  0  0  0  0  0  0  0  0  0
   12.2690   -0.6430   25.4510 C   0  0  0  0  0  0  0  0  0  0  0  0
  1  2  1  0
  2  3  1  0
  3  4  1  0
  4  5  2  0
  5  6  1  0
  6  7  2  0
  8  7  1  1
  8  9  1  0
  8 10  1  0
  9 10  1  0
 10 11  1  1
 11 12  1  0
 12 13  2  0
 12 14  1  0
 14 15  1  0
 15 16  2  0
 16 17  1  0
 17 18  2  0
 18 19  1  0
 15 20  1  0
 19 20  2  0
  7 21  1  0
  4 22  1  0
 21 22  2  0
M  END
