pyridine_urea_11063
     RDKit          3D

 19 20  0  0  0  0  0  0  0  0999 V2000
    9.9090   -3.1030   23.8920 N   0  0  0  0  0  0  0  0  0  0  0  0
   11.1280   -2.4980   23.8740 C   0  0  0  0  0  0  0  0  0  0  0  0
   12.1740   -2.8790   24.7710 O   0  0  0  0  0  0  0  0  0  0  0  0
   11.2480   -1.4450   22.8290 C   0  0  0  0  0  0  0  0  0  0  0  0
   10.3200   -1.5060   21.8420 C   0  0  0  0  0  0  0  0  0  0  0  0
    9.0460   -1.1220   22.1600 N   0  0  0  0  0  0  0  0  0  0  0  0
    8.2410   -0.1270   21.4120 C   0  0  0  0  0  0  0  0  0  0  0  0
    8.6220    1.2260   21.0360 O   0  0  0  0  0  0  0  0  0  0  0  0
    7.0540   -0.5670   21.0590 N   0  0  0  0  0  0  0  0  0  0  0  0
    6.4760    0.0300   20.0760 C   0  0  0  0  0  0  0  0  0  0  0  0
    5.2100    0.8380   20.3150 C   0  0  0  0  0  0  0  0  0  0  0  0
    4.5060    1.5730   19.1750 C   0  0  0  0  0  0  0  0  0  0  0  0
    5.2100    1.3960   17.8490 C   0  0  0  0  0  0  0  0  0  0  0  0
    6.3270    0.6510   17.7420 N   0  0  0  0  0  0  0  0  0  0  0  0
    6.9590   -0.0170   18.7790 C   0  0  0  0  0  0  0  0  0  0  0  0
   11.0650   -0.1040   23.4930 C   0  0  0  0  0  0  0  0  0  0  0  0
   12.1600    0.7210   23.1890 C   0  0  0  0  0  0  0  0  0  0  0  0
   13.1980   -0.1180   22.8480 C   0  0  0  0  0  0  0  0  0  0  0  0
   12.6940   -1.3030   22.3480 C   0  0  0  0  0  0  0  0  0  0  0  0
  1  2  1  0
  2  3  2  0
  4  2  1  0
  4  5  1  0
  5  6  1  0
  6  7  1  0
  7  8  2  0
  7  9  1  0
  9 10  1  0
 10 11  2  0
 11 12  1  0
 12 13  2  0
 13 14  1  0
 10 15  1  0
 14 15  2  0
  4 16  1  0
 16 17  1  0
 17 18  1  0
  4 19  1  0
 18 19  1  0
M  END
