pyridine_urea_14342
     RDKit          3D

 22 24  0  0  0  0  0  0  0  0999 V2000
    8.9020    1.4440   21.1850 O   0  0  0  0  0  0  0  0  0  0  0  0
    8.2070    0.5340   21.6470 C   0  0  0  0  0  0  0  0  0  0  0  0
    8.3310    0.0770   23.0220 N   0  0  0  0  0  0  0  0  0  0  0  0
    7.3740   -0.8240   23.4710 C   0  0  0  0  0  0  0  0  0  0  0  0
    7.5570   -2.1270   23.0360 C   0  0  0  0  0  0  0  0  0  0  0  0
    8.8430   -2.5350   22.8100 N   0  0  0  0  0  0  0  0  0  0  0  0
    9.5180   -3.5390   23.6800 C   0  0  0  0  0  0  0  0  0  0  0  0
   10.7770   -3.3690   24.1240 N   0  0  0  0  0  0  0  0  0  0  0  0
   11.4510   -2.3210   23.8230 C   0  0  0  0  0  0  0  0  0  0  0  0
   12.9770   -1.9830   24.5530 S   0  0  0  0  0  0  0  0  0  0  0  0
   13.0680   -0.5260   23.6190 C   0  0  0  0  0  0  0  0  0  0  0  0
   11.9060   -0.3100   22.7440 C   0  0  0  0  0  0  0  0  0  0  0  0
   10.8040   -1.3930   22.7780 C   0  0  0  0  0  0  0  0  0  0  0  0
    9.6160   -1.6140   22.1810 C   0  0  0  0  0  0  0  0  0  0  0  0
    9.1650   -1.0860   21.1900 O   0  0  0  0  0  0  0  0  0  0  0  0
    7.2290   -0.1940   21.0070 N   0  0  0  0  0  0  0  0  0  0  0  0
    6.5220    0.3090   19.9900 C   0  0  0  0  0  0  0  0  0  0  0  0
    5.3780    1.0500   20.2750 C   0  0  0  0  0  0  0  0  0  0  0  0
    4.6910    1.5680   19.1980 C   0  0  0  0  0  0  0  0  0  0  0  0
    5.1600    1.3300   17.9350 C   0  0  0  0  0  0  0  0  0  0  0  0
    6.2470    0.6120   17.6430 N   0  0  0  0  0  0  0  0  0  0  0  0
    6.9190    0.1050   18.6890 C   0  0  0  0  0  0  0  0  0  0  0  0
  1  2  2  0
  2  3  1  0
  3  4  1  0
  4  5  1  0
  5  6  1  0
  6  7  1  0
  7  8  2  0
  8  9  1  0
  9 10  1  0
 10 11  1  0
 11 12  2  0
  9 13  2  0
 12 13  1  0
  6 14  1  0
 13 14  1  0
 14 15  2  0
  2 16  1  0
 16 17  1  0
 17 18  2  0
 18 19  1  0
 19 20  2  0
 20 21  1  0
 17 22  1  0
 21 22  2  0
M  END
