pyridine_urea_782
     RDKit          3D

 23 25  0  0  0  0  0  0  0  0999 V2000
   10.4910   -1.6300   24.3130 C   0  0  0  0  0  0  0  0  0  0  0  0
    9.6960   -1.7600   23.0470 C   0  0  0  0  0  0  0  0  0  0  0  0
   10.4050   -2.1360   21.9170 C   0  0  0  0  0  0  0  0  0  0  0  0
    9.0380   -0.4970   22.7320 N   0  0  0  0  0  0  0  0  0  0  0  0
    8.4620    0.0700   21.6310 C   0  0  0  0  0  0  0  0  0  0  0  0
    8.9530    1.1420   21.2330 O   0  0  0  0  0  0  0  0  0  0  0  0
    7.3140   -0.6210   21.0520 N   0  0  0  0  0  0  0  0  0  0  0  0
    6.6200    0.0170   20.0550 C   0  0  0  0  0  0  0  0  0  0  0  0
    5.3680    0.7960   20.4200 C   0  0  0  0  0  0  0  0  0  0  0  0
    4.6060    1.5200   19.3090 C   0  0  0  0  0  0  0  0  0  0  0  0
    5.1850    1.3890   17.9160 C   0  0  0  0  0  0  0  0  0  0  0  0
    6.3120    0.6530   17.7160 N   0  0  0  0  0  0  0  0  0  0  0  0
    7.0010   -0.0080   18.7280 C   0  0  0  0  0  0  0  0  0  0  0  0
    8.5450   -2.7530   23.3700 C   0  0  0  0  0  0  0  0  0  0  0  0
    7.7680   -2.8900   24.4720 N   0  0  0  0  0  0  0  0  0  0  0  0
    6.8710   -3.9640   24.2460 C   0  0  0  0  0  0  0  0  0  0  0  0
    6.0270   -4.2150   25.3110 C   0  0  0  0  0  0  0  0  0  0  0  0
    5.8390   -3.2920   26.3130 C   0  0  0  0  0  0  0  0  0  0  0  0
    4.9780   -3.7090   27.2960 C   0  0  0  0  0  0  0  0  0  0  0  0
    4.4780   -4.9840   27.0670 C   0  0  0  0  0  0  0  0  0  0  0  0
    5.1090   -5.6370   25.6020 S   0  0  0  0  0  0  0  0  0  0  0  0
    7.0360   -4.5150   23.0480 N   0  0  0  0  0  0  0  0  0  0  0  0
    8.0670   -3.7560   22.5320 N   0  0  0  0  0  0  0  0  0  0  0  0
  1  2  1  0
  2  3  1  0
  2  4  1  0
  4  5  1  0
  5  6  2  0
  5  7  1  0
  7  8  1  0
  8  9  2  0
  9 10  1  0
 10 11  2  0
 11 12  1  0
  8 13  1  0
 12 13  2  0
  2 14  1  0
 14 15  2  0
 15 16  1  0
 16 17  1  0
 17 18  2  0
 18 19  1  0
 19 20  2  0
 17 21  1  0
 20 21  1  0
 16 22  2  0
 14 23  1  0
 22 23  1  0
M  END
