pyridine_urea_12111
     RDKit          3D

 23 25  0  0  0  0  0  0  0  0999 V2000
    9.0900    0.8500   21.4360 O   0  0  0  0  0  0  0  0  0  0  0  0
    8.5570   -0.2310   21.6190 C   0  0  0  0  0  0  0  0  0  0  0  0
    7.3240   -0.6210   21.1250 N   0  0  0  0  0  0  0  0  0  0  0  0
    6.6000    0.0100   20.0890 C   0  0  0  0  0  0  0  0  0  0  0  0
    5.4540    0.7540   20.4060 C   0  0  0  0  0  0  0  0  0  0  0  0
    4.7310    1.3940   19.3950 C   0  0  0  0  0  0  0  0  0  0  0  0
    5.1770    1.2710   18.0980 C   0  0  0  0  0  0  0  0  0  0  0  0
    6.2640    0.5610   17.7620 N   0  0  0  0  0  0  0  0  0  0  0  0
    6.9470   -0.0510   18.7560 C   0  0  0  0  0  0  0  0  0  0  0  0
    9.1360   -1.2410   22.3710 N   0  0  0  0  0  0  0  0  0  0  0  0
   10.3400   -1.0650   23.2360 C   0  0  0  0  0  0  0  0  0  0  0  0
   10.2630   -2.2520   24.2060 C   0  0  0  0  0  0  0  0  0  0  0  0
    9.0490   -2.9230   24.4920 C   0  0  0  0  0  0  0  0  0  0  0  0
    9.0400   -4.0060   25.3800 C   0  0  0  0  0  0  0  0  0  0  0  0
   10.2160   -4.4190   25.9760 C   0  0  0  0  0  0  0  0  0  0  0  0
   11.4250   -3.7980   25.7300 C   0  0  0  0  0  0  0  0  0  0  0  0
   12.5530   -4.2260   26.3370 F   0  0  0  0  0  0  0  0  0  0  0  0
   11.4320   -2.7210   24.8450 C   0  0  0  0  0  0  0  0  0  0  0  0
   12.6450   -2.1670   24.6540 F   0  0  0  0  0  0  0  0  0  0  0  0
   11.6320   -1.2320   22.4180 C   0  0  0  0  0  0  0  0  0  0  0  0
   12.4860   -0.2710   22.8730 C   0  0  0  0  0  0  0  0  0  0  0  0
   11.8310    0.2840   23.9620 C   0  0  0  0  0  0  0  0  0  0  0  0
   10.4170    0.2440   23.8230 C   0  0  0  0  0  0  0  0  0  0  0  0
  1  2  2  0
  2  3  1  0
  3  4  1  0
  4  5  2  0
  5  6  1  0
  6  7  2  0
  7  8  1  0
  4  9  1  0
  8  9  2  0
  2 10  1  0
 11 10  1  0
 11 12  1  0
 12 13  2  0
 13 14  1  0
 14 15  2  0
 15 16  1  0
 16 17  1  0
 12 18  1  0
 16 18  2  0
 18 19  1  0
 11 20  1  0
 20 21  1  0
 21 22  1  0
 11 23  1  0
 22 23  1  0
M  END
