pyridine_urea_11535
     RDKit          3D

 21 22  0  0  0  0  0  0  0  0999 V2000
   13.1500    5.9320   22.0790 C   0  0  0  0  0  0  0  0  0  0  0  0
   13.0720    4.7760   23.0160 C   0  0  0  0  0  0  0  0  0  0  0  0
   12.6550    3.6280   22.2600 O   0  0  0  0  0  0  0  0  0  0  0  0
   11.7070    2.9100   22.8940 C   0  0  0  0  0  0  0  0  0  0  0  0
   10.6440    3.4430   23.7090 O   0  0  0  0  0  0  0  0  0  0  0  0
   11.6640    1.5130   22.8190 C   0  0  0  0  0  0  0  0  0  0  0  0
   12.8800    0.8480   22.8680 C   0  0  0  0  0  0  0  0  0  0  0  0
   12.7760   -0.8670   22.7730 S   0  0  0  0  0  0  0  0  0  0  0  0
   11.0810   -0.6150   22.6670 C   0  0  0  0  0  0  0  0  0  0  0  0
   10.2440   -1.7260   22.5390 C   0  0  0  0  0  0  0  0  0  0  0  0
    8.8560   -1.2840   22.5340 N   0  0  0  0  0  0  0  0  0  0  0  0
    8.3980   -0.3500   21.6280 C   0  0  0  0  0  0  0  0  0  0  0  0
    8.9900    0.6860   21.3640 O   0  0  0  0  0  0  0  0  0  0  0  0
    7.1240   -0.7260   21.0490 N   0  0  0  0  0  0  0  0  0  0  0  0
    6.4890   -0.0690   20.0410 C   0  0  0  0  0  0  0  0  0  0  0  0
    5.2980    0.6130   20.3050 C   0  0  0  0  0  0  0  0  0  0  0  0
    4.6570    1.2970   19.2690 C   0  0  0  0  0  0  0  0  0  0  0  0
    5.2210    1.2790   18.0090 C   0  0  0  0  0  0  0  0  0  0  0  0
    6.3600    0.6250   17.7370 N   0  0  0  0  0  0  0  0  0  0  0  0
    6.9640   -0.0310   18.7480 C   0  0  0  0  0  0  0  0  0  0  0  0
   10.6030    0.7530   22.7100 N   0  0  0  0  0  0  0  0  0  0  0  0
  1  2  1  0
  2  3  1  0
  3  4  1  0
  4  5  2  0
  4  6  1  0
  6  7  2  0
  7  8  1  0
  8  9  1  0
  9 10  1  0
 10 11  1  0
 11 12  1  0
 12 13  2  0
 12 14  1  0
 14 15  1  0
 15 16  2  0
 16 17  1  0
 17 18  2  0
 18 19  1  0
 15 20  1  0
 19 20  2  0
  6 21  1  0
  9 21  2  0
M  END
