pyridine_urea_9999
     RDKit          3D

 24 27  0  0  0  0  0  0  0  0999 V2000
   12.9040   -0.2240   23.5480 C   0  0  0  0  0  0  0  0  0  0  0  0
   12.5480   -1.2850   24.5930 C   0  0  0  0  0  0  0  0  0  0  0  0
   13.5120   -1.8750   25.3540 C   0  0  0  0  0  0  0  0  0  0  0  0
   12.2150   -2.6690   24.0100 C   0  0  0  0  0  0  0  0  0  0  0  0
   11.7920   -2.4930   22.7960 C   0  0  0  0  0  0  0  0  0  0  0  0
   11.3270   -1.2530   22.8290 C   0  0  1  0  0  0  0  0  0  0  0  0
   10.2160   -1.0180   21.8550 C   0  0  0  0  0  0  0  0  0  0  0  0
    9.0850   -0.8940   22.5770 C   0  0  2  0  0  0  0  0  0  0  0  0
    8.3780    0.3140   22.4530 N   0  0  0  0  0  0  0  0  0  0  0  0
    7.9420    0.6110   21.1650 C   0  0  0  0  0  0  0  0  0  0  0  0
    8.3760    1.5690   20.5680 O   0  0  0  0  0  0  0  0  0  0  0  0
    6.9620   -0.3580   20.7680 N   0  0  0  0  0  0  0  0  0  0  0  0
    6.2830    0.2580   19.7990 C   0  0  0  0  0  0  0  0  0  0  0  0
    5.0670    0.8930   20.0120 C   0  0  0  0  0  0  0  0  0  0  0  0
    4.4080    1.6010   18.8890 C   0  0  0  0  0  0  0  0  0  0  0  0
    5.0570    1.5920   17.6540 C   0  0  0  0  0  0  0  0  0  0  0  0
    6.2670    0.9090   17.5350 N   0  0  0  0  0  0  0  0  0  0  0  0
    6.8250    0.2870   18.5610 C   0  0  0  0  0  0  0  0  0  0  0  0
    9.5240   -0.7040   23.8890 C   0  0  0  0  0  0  0  0  0  0  0  0
    8.5960   -0.3160   24.7540 C   0  0  0  0  0  0  0  0  0  0  0  0
    9.0210   -0.1340   25.9490 C   0  0  0  0  0  0  0  0  0  0  0  0
   10.3300   -0.3850   26.1740 C   0  0  0  0  0  0  0  0  0  0  0  0
   11.5020   -0.8480   25.3950 C   0  0  0  0  0  0  0  0  0  0  0  0
   10.8460   -0.9290   24.1480 C   0  0  0  0  0  0  0  0  0  0  0  0
  2  1  1  0
  2  3  1  0
  2  4  1  0
  4  5  1  0
  6  5  1  1
  6  7  1  0
  7  8  1  0
  8  9  1  6
  9 10  1  0
 10 11  2  0
 10 12  1  0
 12 13  1  0
 13 14  2  0
 14 15  1  0
 15 16  2  0
 16 17  1  0
 13 18  1  0
 17 18  2  0
  8 19  1  0
 19 20  1  0
 20 21  2  0
 21 22  1  0
  2 23  1  0
 22 23  2  0
  6 24  1  0
 19 24  2  0
 23 24  1  0
M  END
