pyridine_urea_2019
     RDKit          3D

 19 20  0  0  0  0  0  0  0  0999 V2000
   13.5620   -2.6340   23.0660 N   0  0  0  0  0  0  0  0  0  0  0  0
   12.8270   -2.0470   24.4690 S   0  0  0  0  0  0  0  0  0  0  0  0
   13.7490   -2.3270   25.5330 O   0  0  0  0  0  0  0  0  0  0  0  0
   11.5010   -2.6030   24.4490 O   0  0  0  0  0  0  0  0  0  0  0  0
   12.7850   -0.2890   24.1090 C   0  0  0  0  0  0  0  0  0  0  0  0
   11.6200    0.0270   23.1880 C   0  0  2  0  0  0  0  0  0  0  0  0
   10.3780    0.0760   24.0060 C   0  0  0  0  0  0  0  0  0  0  0  0
    9.8730   -1.1490   23.2710 C   0  0  1  0  0  0  0  0  0  0  0  0
    8.6820   -1.1380   22.6120 N   0  0  0  0  0  0  0  0  0  0  0  0
    8.2660   -0.2210   21.6440 C   0  0  0  0  0  0  0  0  0  0  0  0
    8.8850    0.7950   21.3640 O   0  0  0  0  0  0  0  0  0  0  0  0
    7.0160   -0.6610   21.0640 N   0  0  0  0  0  0  0  0  0  0  0  0
    6.3390    0.0380   20.0670 C   0  0  0  0  0  0  0  0  0  0  0  0
    5.1640    0.7860   20.2280 C   0  0  0  0  0  0  0  0  0  0  0  0
    4.5630    1.4710   19.1560 C   0  0  0  0  0  0  0  0  0  0  0  0
    5.1820    1.3800   17.9200 C   0  0  0  0  0  0  0  0  0  0  0  0
    6.3030    0.6860   17.6560 N   0  0  0  0  0  0  0  0  0  0  0  0
    6.9090    0.0010   18.6970 C   0  0  0  0  0  0  0  0  0  0  0  0
   11.1190   -1.1650   22.3160 C   0  0  0  0  0  0  0  0  0  0  0  0
  2  1  1  0
  2  3  2  0
  2  4  2  0
  2  5  1  0
  6  5  1  1
  6  7  1  0
  7  8  1  0
  8  9  1  6
  9 10  1  0
 10 11  2  0
 10 12  1  0
 12 13  1  0
 13 14  2  0
 14 15  1  0
 15 16  2  0
 16 17  1  0
 13 18  1  0
 17 18  2  0
  6 19  1  0
  8 19  1  0
M  END
