pyridine_urea_1096
     RDKit          3D

 21 23  0  0  0  0  0  0  0  0999 V2000
   13.8870   -4.1980   25.9890 C   0  0  0  0  0  0  0  0  0  0  0  0
   13.4840   -3.1130   25.1230 N   0  0  0  0  0  0  0  0  0  0  0  0
   13.6100   -1.8780   25.5350 C   0  0  0  0  0  0  0  0  0  0  0  0
   13.1920   -1.0120   24.6260 C   0  0  0  0  0  0  0  0  0  0  0  0
   12.7750   -1.7290   23.6040 C   0  0  0  0  0  0  0  0  0  0  0  0
   12.2590   -0.9820   22.5370 N   0  0  0  0  0  0  0  0  0  0  0  0
   12.0350    0.3430   22.8520 C   0  0  0  0  0  0  0  0  0  0  0  0
   10.5550    0.4960   22.8480 C   0  0  0  0  0  0  0  0  0  0  0  0
   10.0570   -0.9280   22.7910 C   0  0  1  0  0  0  0  0  0  0  0  0
    8.7760   -1.1510   22.4780 N   0  0  0  0  0  0  0  0  0  0  0  0
    8.2390   -0.3030   21.5800 C   0  0  0  0  0  0  0  0  0  0  0  0
    8.6990    0.7850   21.2600 O   0  0  0  0  0  0  0  0  0  0  0  0
    7.0730   -0.6830   20.9910 N   0  0  0  0  0  0  0  0  0  0  0  0
    6.3560    0.0130   20.0200 C   0  0  0  0  0  0  0  0  0  0  0  0
    5.1550    0.7000   20.2240 C   0  0  0  0  0  0  0  0  0  0  0  0
    4.5560    1.3700   19.1600 C   0  0  0  0  0  0  0  0  0  0  0  0
    5.1820    1.3260   17.9320 C   0  0  0  0  0  0  0  0  0  0  0  0
    6.3300    0.6650   17.7150 N   0  0  0  0  0  0  0  0  0  0  0  0
    6.8880    0.0270   18.7510 C   0  0  0  0  0  0  0  0  0  0  0  0
   11.0630   -1.5130   22.0220 C   0  0  0  0  0  0  0  0  0  0  0  0
   12.9340   -3.0710   23.8420 N   0  0  0  0  0  0  0  0  0  0  0  0
  1  2  1  0
  2  3  1  0
  3  4  2  0
  4  5  1  0
  5  6  1  0
  6  7  1  0
  7  8  1  0
  8  9  1  0
  9 10  1  6
 10 11  1  0
 11 12  2  0
 11 13  1  0
 13 14  1  0
 14 15  2  0
 15 16  1  0
 16 17  2  0
 17 18  1  0
 14 19  1  0
 18 19  2  0
  6 20  1  0
  9 20  1  0
  2 21  1  0
  5 21  2  0
M  END
