pyridine_urea_9288
     RDKit          3D

 17 18  0  0  0  0  0  0  0  0999 V2000
    8.5650    1.4200   20.9650 O   0  0  0  0  0  0  0  0  0  0  0  0
    8.4120    0.2660   21.3680 C   0  0  0  0  0  0  0  0  0  0  0  0
    9.3170   -0.3860   22.1160 N   0  0  0  0  0  0  0  0  0  0  0  0
   10.3240    0.3950   22.6690 C   0  0  0  0  0  0  0  0  0  0  0  0
   11.6170   -0.0620   22.6900 C   0  0  0  0  0  0  0  0  0  0  0  0
   12.6650   -0.8330   23.1970 C   0  0  0  0  0  0  0  0  0  0  0  0
   12.4200   -1.6200   24.2440 C   0  0  0  0  0  0  0  0  0  0  0  0
   13.6280   -2.7240   25.1050 Br  0  0  0  0  0  0  0  0  0  0  0  0
   11.2140   -1.5690   24.6410 N   0  0  0  0  0  0  0  0  0  0  0  0
   10.7280   -0.6410   23.7270 O   0  0  0  0  0  0  0  0  0  0  0  0
    7.2770   -0.3990   21.0440 N   0  0  0  0  0  0  0  0  0  0  0  0
    6.4970    0.1240   20.0280 C   0  0  0  0  0  0  0  0  0  0  0  0
    5.3010    0.7560   20.3520 C   0  0  0  0  0  0  0  0  0  0  0  0
    4.5080    1.3590   19.1920 C   0  0  0  0  0  0  0  0  0  0  0  0
    5.0570    1.2130   17.9510 C   0  0  0  0  0  0  0  0  0  0  0  0
    6.2190    0.5760   17.6720 N   0  0  0  0  0  0  0  0  0  0  0  0
    6.8870    0.0610   18.7060 C   0  0  0  0  0  0  0  0  0  0  0  0
  1  2  2  0
  2  3  1  0
  3  4  1  0
  4  5  1  0
  5  6  2  0
  6  7  1  0
  7  8  1  0
  7  9  2  0
  5 10  1  0
  9 10  1  0
  2 11  1  0
 11 12  1  0
 12 13  2  0
 13 14  1  0
 14 15  2  0
 15 16  1  0
 12 17  1  0
 16 17  2  0
M  END
