pyridine_urea_12511
     RDKit          3D

 21 22  0  0  0  0  0  0  0  0999 V2000
   13.4060   -3.1310   25.5200 C   0  0  0  0  0  0  0  0  0  0  0  0
   11.9290   -3.1010   25.1430 C   0  0  0  0  0  0  0  0  0  0  0  0
   10.9160   -4.0290   25.8960 C   0  0  0  0  0  0  0  0  0  0  0  0
    9.5760   -4.0390   25.5960 C   0  0  0  0  0  0  0  0  0  0  0  0
    8.7700   -4.8360   26.0560 O   0  0  0  0  0  0  0  0  0  0  0  0
    9.2320   -3.0340   24.7020 N   0  0  0  0  0  0  0  0  0  0  0  0
   10.0730   -2.2740   23.9200 C   0  0  0  0  0  0  0  0  0  0  0  0
    9.6680   -1.4890   22.8610 C   0  0  0  0  0  0  0  0  0  0  0  0
    9.4680   -2.3640   21.6610 C   0  0  0  0  0  0  0  0  0  0  0  0
   10.8660   -0.6370   22.3910 C   0  0  0  0  0  0  0  0  0  0  0  0
    8.6300   -0.5680   23.0220 N   0  0  0  0  0  0  0  0  0  0  0  0
    8.3370    0.0120   21.7930 C   0  0  0  0  0  0  0  0  0  0  0  0
    8.9420    0.9570   21.3070 O   0  0  0  0  0  0  0  0  0  0  0  0
    7.2680   -0.5890   21.1590 N   0  0  0  0  0  0  0  0  0  0  0  0
    6.5080    0.0390   20.1570 C   0  0  0  0  0  0  0  0  0  0  0  0
    5.2130    0.8020   20.3970 C   0  0  0  0  0  0  0  0  0  0  0  0
    4.5710    1.4200   19.1720 C   0  0  0  0  0  0  0  0  0  0  0  0
    5.1960    1.2510   17.9480 C   0  0  0  0  0  0  0  0  0  0  0  0
    6.3430    0.5580   17.7810 N   0  0  0  0  0  0  0  0  0  0  0  0
    6.9550   -0.0180   18.8440 C   0  0  0  0  0  0  0  0  0  0  0  0
   11.4310   -2.3360   24.1850 N   0  0  0  0  0  0  0  0  0  0  0  0
  1  2  1  0
  2  3  2  0
  3  4  1  0
  4  5  2  0
  4  6  1  0
  6  7  1  0
  7  8  1  0
  8  9  1  0
  8 10  1  0
  8 11  1  0
 11 12  1  0
 12 13  2  0
 12 14  1  0
 14 15  1  0
 15 16  2  0
 16 17  1  0
 17 18  2  0
 18 19  1  0
 15 20  1  0
 19 20  2  0
  2 21  1  0
  7 21  2  0
M  END
