pyridine_urea_9759
     RDKit          3D

 26 28  0  0  0  0  0  0  0  0999 V2000
    8.8460    0.4370   21.3920 O   0  0  0  0  0  0  0  0  0  0  0  0
    8.3330   -0.6390   21.6720 C   0  0  0  0  0  0  0  0  0  0  0  0
    8.8160   -1.4790   22.6490 N   0  0  0  0  0  0  0  0  0  0  0  0
   10.2030   -1.3740   23.0160 C   0  0  0  0  0  0  0  0  0  0  0  0
   11.2110   -1.2490   21.9660 C   0  0  0  0  0  0  0  0  0  0  0  0
   12.6860   -1.1230   22.3380 C   0  0  0  0  0  0  0  0  0  0  0  0
   13.2630   -1.1260   23.7900 C   0  0  0  0  0  0  0  0  0  0  0  0
   12.0320   -1.2740   24.4990 N   0  0  0  0  0  0  0  0  0  0  0  0
   10.6910   -1.3770   24.2470 C   0  0  0  0  0  0  0  0  0  0  0  0
    7.1970   -1.1310   21.0470 N   0  0  0  0  0  0  0  0  0  0  0  0
    6.6620   -0.2500   20.1050 C   0  0  2  0  0  0  0  0  0  0  0  0
    6.0820    0.9050   20.5430 C   0  0  0  0  0  0  0  0  0  0  0  0
    6.2340    1.8230   19.5440 C   0  0  0  0  0  0  0  0  0  0  0  0
    6.1360    1.1690   18.3150 C   0  0  0  0  0  0  0  0  0  0  0  0
    5.2030    0.3070   18.4400 N   0  0  0  0  0  0  0  0  0  0  0  0
    4.2300    1.1330   18.9260 C   0  0  0  0  0  0  0  0  0  0  0  0
    3.4220    0.7940   19.9520 C   0  0  0  0  0  0  0  0  0  0  0  0
    2.3760    1.7100   20.4600 C   0  0  0  0  0  0  0  0  0  0  0  0
    2.2310    2.9570   19.8590 C   0  0  0  0  0  0  0  0  0  0  0  0
    1.2930    3.8820   20.2410 O   0  0  0  0  0  0  0  0  0  0  0  0
    1.6910    5.2550   20.1070 C   0  0  0  0  0  0  0  0  0  0  0  0
    0.7290    5.9090   19.4150 F   0  0  0  0  0  0  0  0  0  0  0  0
    1.7800    5.8700   21.3170 F   0  0  0  0  0  0  0  0  0  0  0  0
    3.0330    3.3440   18.8270 C   0  0  0  0  0  0  0  0  0  0  0  0
    4.0020    2.4220   18.4000 C   0  0  0  0  0  0  0  0  0  0  0  0
    5.6250   -0.7680   19.1640 C   0  0  0  0  0  0  0  0  0  0  0  0
  1  2  2  0
  2  3  1  0
  3  4  1  0
  4  5  2  0
  5  6  1  0
  6  7  2  0
  7  8  1  0
  4  9  1  0
  8  9  2  0
  2 10  1  0
 11 10  1  1
 11 12  1  0
 12 13  1  0
 13 14  1  0
 14 15  1  0
 15 16  1  0
 16 17  2  0
 17 18  1  0
 18 19  2  0
 19 20  1  0
 20 21  1  0
 21 22  1  0
 21 23  1  0
 19 24  1  0
 16 25  1  0
 24 25  2  0
 11 26  1  0
 15 26  1  0
M  END
