pyridine_urea_8962
     RDKit          3D

 20 21  0  0  0  0  0  0  0  0999 V2000
   11.9160    0.8920   24.0850 C   0  0  0  0  0  0  0  0  0  0  0  0
   10.3910    0.6850   24.1260 C   0  0  0  0  0  0  0  0  0  0  0  0
    9.9120   -0.1530   25.3350 C   0  0  0  0  0  0  0  0  0  0  0  0
   10.0590    0.0370   22.7850 C   0  0  2  0  0  0  0  0  0  0  0  0
    8.7230   -0.4010   22.5700 N   0  0  0  0  0  0  0  0  0  0  0  0
    8.1720    0.2040   21.4850 C   0  0  0  0  0  0  0  0  0  0  0  0
    8.6300    1.2710   21.0550 O   0  0  0  0  0  0  0  0  0  0  0  0
    7.1030   -0.4760   20.9830 N   0  0  0  0  0  0  0  0  0  0  0  0
    6.3550    0.1430   19.9970 C   0  0  0  0  0  0  0  0  0  0  0  0
    5.1470    0.8040   20.1860 C   0  0  0  0  0  0  0  0  0  0  0  0
    4.5260    1.4060   19.0980 C   0  0  0  0  0  0  0  0  0  0  0  0
    5.1420    1.3190   17.8670 C   0  0  0  0  0  0  0  0  0  0  0  0
    6.2990    0.6740   17.6650 N   0  0  0  0  0  0  0  0  0  0  0  0
    6.8700    0.1080   18.7260 C   0  0  0  0  0  0  0  0  0  0  0  0
   10.9060   -0.9400   22.3190 C   0  0  0  0  0  0  0  0  0  0  0  0
   11.0080   -2.1480   21.6840 C   0  0  0  0  0  0  0  0  0  0  0  0
   12.4140   -2.4010   21.6310 C   0  0  0  0  0  0  0  0  0  0  0  0
   13.3330   -1.2990   22.2730 C   0  0  0  0  0  0  0  0  0  0  0  0
   12.7160   -0.1360   22.8480 C   0  0  0  0  0  0  0  0  0  0  0  0
   12.1910   -1.2220   22.2440 C   0  0  0  0  0  0  0  0  0  0  0  0
  1  2  1  0
  2  3  1  0
  2  4  1  0
  4  5  1  1
  5  6  1  0
  6  7  2  0
  6  8  1  0
  8  9  1  0
  9 10  2  0
 10 11  1  0
 11 12  2  0
 12 13  1  0
  9 14  1  0
 13 14  2  0
  4 15  1  0
 15 16  2  0
 16 17  1  0
 17 18  2  0
 18 19  1  0
 15 20  1  0
 19 20  2  0
M  END
