pyridine_urea_4643
     RDKit          3D

 22 24  0  0  0  0  0  0  0  0999 V2000
   10.3900   -1.7900   22.0540 C   0  0  0  0  0  0  0  0  0  0  0  0
   10.8320   -0.3260   22.4910 C   0  0  0  0  0  0  0  0  0  0  0  0
   10.1540    1.0170   22.7550 C   0  0  0  0  0  0  0  0  0  0  0  0
   11.0810    2.0610   23.1160 C   0  0  0  0  0  0  0  0  0  0  0  0
   12.5370    1.9240   23.2520 C   0  0  0  0  0  0  0  0  0  0  0  0
   13.0680    0.6260   23.0160 C   0  0  0  0  0  0  0  0  0  0  0  0
   12.1600   -0.4880   22.6140 C   0  0  0  0  0  0  0  0  0  0  0  0
   10.7730   -0.4190   22.4030 C   0  0  0  0  0  0  0  0  0  0  0  0
    9.8920   -0.9870   23.3160 C   0  0  0  0  0  0  0  0  0  0  0  0
    8.4880   -0.8620   22.8920 N   0  0  0  0  0  0  0  0  0  0  0  0
    8.1520   -0.2180   21.7020 C   0  0  0  0  0  0  0  0  0  0  0  0
    8.7740    0.7320   21.2510 O   0  0  0  0  0  0  0  0  0  0  0  0
    7.0370   -0.7460   21.1090 N   0  0  0  0  0  0  0  0  0  0  0  0
    6.4320   -0.0860   20.0390 C   0  0  0  0  0  0  0  0  0  0  0  0
    5.1590    0.6760   20.2330 C   0  0  0  0  0  0  0  0  0  0  0  0
    4.5250    1.3600   19.2200 C   0  0  0  0  0  0  0  0  0  0  0  0
    5.1900    1.2830   17.9610 C   0  0  0  0  0  0  0  0  0  0  0  0
    6.3370    0.6020   17.7470 N   0  0  0  0  0  0  0  0  0  0  0  0
    6.9310   -0.0620   18.7600 C   0  0  0  0  0  0  0  0  0  0  0  0
   12.7780   -1.5730   22.4280 C   0  0  0  0  0  0  0  0  0  0  0  0
   13.4860   -0.6040   22.7710 N   0  0  0  0  0  0  0  0  0  0  0  0
   12.0890    0.3230   22.8150 C   0  0  0  0  0  0  0  0  0  0  0  0
  1  2  1  0
  2  3  2  0
  3  4  1  0
  4  5  2  0
  5  6  1  0
  6  7  1  0
  7  8  1  0
  8  9  1  0
  9 10  1  0
 10 11  1  0
 11 12  2  0
 11 13  1  0
 13 14  1  0
 14 15  2  0
 15 16  1  0
 16 17  2  0
 17 18  1  0
 14 19  1  0
 18 19  2  0
  7 20  2  0
 20 21  1  0
  2 22  1  0
  6 22  2  0
 21 22  1  0
M  END
