pyridine_urea_1004
     RDKit          3D

 22 23  0  0  0  0  0  0  0  0999 V2000
   13.9320   -2.6470   25.8720 C   0  0  0  0  0  0  0  0  0  0  0  0
   13.7460   -2.8640   24.4130 C   0  0  0  0  0  0  0  0  0  0  0  0
   12.5670   -2.5040   23.8170 C   0  0  0  0  0  0  0  0  0  0  0  0
   12.8540   -1.7020   22.9160 O   0  0  0  0  0  0  0  0  0  0  0  0
   11.9910   -0.6610   22.8750 C   0  0  0  0  0  0  0  0  0  0  0  0
   11.6940   -1.9030   22.7580 C   0  0  0  0  0  0  0  0  0  0  0  0
   13.0910   -1.5930   22.9050 C   0  0  0  0  0  0  0  0  0  0  0  0
   11.7870   -0.5100   22.8870 C   0  0  0  0  0  0  0  0  0  0  0  0
   10.7460    0.5760   22.8910 C   0  0  0  0  0  0  0  0  0  0  0  0
    9.6340   -0.0390   23.3860 C   0  0  0  0  0  0  0  0  0  0  0  0
    8.9050   -0.6470   22.3870 N   0  0  0  0  0  0  0  0  0  0  0  0
    8.3070    0.1370   21.4560 C   0  0  0  0  0  0  0  0  0  0  0  0
    8.8420    1.4170   21.0930 O   0  0  0  0  0  0  0  0  0  0  0  0
    7.1630   -0.4260   20.9720 N   0  0  0  0  0  0  0  0  0  0  0  0
    6.5890    0.0840   19.8630 C   0  0  0  0  0  0  0  0  0  0  0  0
    5.6460    0.8380   19.3260 C   0  0  0  0  0  0  0  0  0  0  0  0
    4.6440    1.5760   19.5600 C   0  0  0  0  0  0  0  0  0  0  0  0
    5.0080    1.4410   18.1220 C   0  0  0  0  0  0  0  0  0  0  0  0
    6.1090    0.6490   17.5780 N   0  0  0  0  0  0  0  0  0  0  0  0
    6.7620    0.0630   18.5960 C   0  0  0  0  0  0  0  0  0  0  0  0
   12.3920    0.8100   23.0340 C   0  0  0  0  0  0  0  0  0  0  0  0
   13.2780   -0.0220   23.0450 C   0  0  0  0  0  0  0  0  0  0  0  0
  1  2  3  0
  2  3  1  0
  3  4  1  0
  4  5  1  0
  5  6  2  0
  6  7  1  0
  7  8  2  0
  8  9  1  0
  9 10  1  0
 10 11  1  0
 11 12  1  0
 12 13  2  0
 12 14  1  0
 14 15  1  0
 15 16  2  0
 16 17  1  0
 17 18  2  0
 18 19  1  0
 15 20  1  0
 19 20  2  0
  8 21  1  0
  5 22  1  0
 21 22  2  0
M  END
