pyridine_urea_12211
     RDKit          3D

 22 23  0  0  0  0  0  0  0  0999 V2000
    8.6490    0.7650   21.2640 O   0  0  0  0  0  0  0  0  0  0  0  0
    8.2620   -0.3930   21.3040 C   0  0  0  0  0  0  0  0  0  0  0  0
    9.0010   -1.4730   21.6810 N   0  0  0  0  0  0  0  0  0  0  0  0
    9.7610   -1.4020   22.8420 C   0  0  0  0  0  0  0  0  0  0  0  0
   10.2490   -0.1300   22.9870 C   0  0  0  0  0  0  0  0  0  0  0  0
   11.0150    1.0900   23.0830 C   0  0  0  0  0  0  0  0  0  0  0  0
   12.3770    1.3880   22.9600 C   0  0  0  0  0  0  0  0  0  0  0  0
   12.7160    2.5600   23.1030 O   0  0  0  0  0  0  0  0  0  0  0  0
   11.9930    3.5800   22.4920 C   0  0  0  0  0  0  0  0  0  0  0  0
   11.7920    4.7340   23.2650 C   0  0  0  0  0  0  0  0  0  0  0  0
   11.8300    5.8510   22.5120 F   0  0  0  0  0  0  0  0  0  0  0  0
   10.5880    4.6880   23.8920 F   0  0  0  0  0  0  0  0  0  0  0  0
   13.2190    0.4020   22.6950 C   0  0  0  0  0  0  0  0  0  0  0  0
   12.5020   -0.7020   22.6080 C   0  0  0  0  0  0  0  0  0  0  0  0
   11.2480   -1.0700   22.7100 N   0  0  0  0  0  0  0  0  0  0  0  0
    6.9910   -0.7410   20.9430 N   0  0  0  0  0  0  0  0  0  0  0  0
    6.3350   -0.0410   20.0080 C   0  0  0  0  0  0  0  0  0  0  0  0
    5.1430    0.6760   20.1960 C   0  0  0  0  0  0  0  0  0  0  0  0
    4.5530    1.3880   19.1370 C   0  0  0  0  0  0  0  0  0  0  0  0
    5.1630    1.3820   17.8830 C   0  0  0  0  0  0  0  0  0  0  0  0
    6.3050    0.6750   17.7430 N   0  0  0  0  0  0  0  0  0  0  0  0
    6.8840   -0.0160   18.7430 C   0  0  0  0  0  0  0  0  0  0  0  0
  1  2  2  0
  2  3  1  0
  3  4  1  0
  4  5  1  0
  5  6  2  0
  6  7  1  0
  7  8  1  0
  8  9  1  0
  9 10  1  0
 10 11  1  0
 10 12  1  0
  7 13  2  0
 13 14  1  0
  5 15  1  0
 14 15  2  0
  2 16  1  0
 16 17  1  0
 17 18  2  0
 18 19  1  0
 19 20  2  0
 20 21  1  0
 17 22  1  0
 21 22  2  0
M  END
