pyridine_urea_3412
     RDKit          3D

 19 21  0  0  0  0  0  0  0  0999 V2000
    8.7790    0.7180   21.2230 O   0  0  0  0  0  0  0  0  0  0  0  0
    8.3140   -0.3710   21.5220 C   0  0  0  0  0  0  0  0  0  0  0  0
    7.0940   -0.8030   21.0870 N   0  0  0  0  0  0  0  0  0  0  0  0
    6.4300   -0.1310   20.0480 C   0  0  0  0  0  0  0  0  0  0  0  0
    5.2340    0.5490   20.3090 C   0  0  0  0  0  0  0  0  0  0  0  0
    4.5840    1.2360   19.2770 C   0  0  0  0  0  0  0  0  0  0  0  0
    5.1560    1.2170   18.0220 C   0  0  0  0  0  0  0  0  0  0  0  0
    6.2960    0.5660   17.7500 N   0  0  0  0  0  0  0  0  0  0  0  0
    6.9040   -0.0910   18.7580 C   0  0  0  0  0  0  0  0  0  0  0  0
    9.0310   -1.2310   22.3320 N   0  0  0  0  0  0  0  0  0  0  0  0
   10.3250   -0.6470   22.5950 C   0  0  0  0  0  0  0  0  0  0  0  0
   11.6320   -1.4400   22.4980 C   0  0  0  0  0  0  0  0  0  0  0  0
   12.8340   -0.7520   22.7550 C   0  0  0  0  0  0  0  0  0  0  0  0
   12.8110    0.6090   23.0760 C   0  0  0  0  0  0  0  0  0  0  0  0
   11.5860    1.2830   23.1490 C   0  0  0  0  0  0  0  0  0  0  0  0
   10.3810    0.6910   22.9330 C   0  0  0  0  0  0  0  0  0  0  0  0
    9.2730    1.3990   23.0410 O   0  0  0  0  0  0  0  0  0  0  0  0
    9.7050    2.4270   23.8620 C   0  0  0  0  0  0  0  0  0  0  0  0
   11.0090    2.7570   23.4190 C   0  0  0  0  0  0  0  0  0  0  0  0
  1  2  2  0
  2  3  1  0
  3  4  1  0
  4  5  2  0
  5  6  1  0
  6  7  2  0
  7  8  1  0
  4  9  1  0
  8  9  2  0
  2 10  1  0
 10 11  1  0
 11 12  2  0
 12 13  1  0
 13 14  2  0
 14 15  1  0
 11 16  1  0
 15 16  2  0
 16 17  1  0
 17 18  1  0
 15 19  1  0
 18 19  1  0
M  END
