pyridine_urea_7839
     RDKit          3D

 26 28  0  0  0  0  0  0  0  0999 V2000
   11.6340    5.4200   22.2530 C   0  0  0  0  0  0  0  0  0  0  0  0
   11.6130    4.0150   22.8420 C   0  0  0  0  0  0  0  0  0  0  0  0
   10.5690    3.4430   23.5590 C   0  0  0  0  0  0  0  0  0  0  0  0
   10.5830    2.1530   24.1250 C   0  0  0  0  0  0  0  0  0  0  0  0
   11.7500    1.3920   23.9440 C   0  0  0  0  0  0  0  0  0  0  0  0
   11.9020   -0.2360   24.7020 S   0  0  0  0  0  0  0  0  0  0  0  0
   12.9960   -0.2720   25.6190 O   0  0  0  0  0  0  0  0  0  0  0  0
   10.6000   -0.6880   25.1250 O   0  0  0  0  0  0  0  0  0  0  0  0
   12.5200   -1.2110   23.5200 N   0  0  0  0  0  0  0  0  0  0  0  0
   12.3430   -0.6760   22.3340 C   0  0  0  0  0  0  0  0  0  0  0  0
   11.0640   -0.1480   22.5260 C   0  0  0  0  0  0  0  0  0  0  0  0
    9.9930   -1.2250   22.5140 C   0  0  0  0  0  0  0  0  0  0  0  0
    8.7370   -0.7080   22.4960 N   0  0  0  0  0  0  0  0  0  0  0  0
    8.1270   -0.0590   21.4240 C   0  0  0  0  0  0  0  0  0  0  0  0
    8.6920    1.2320   21.0460 O   0  0  0  0  0  0  0  0  0  0  0  0
    7.0700   -0.6790   20.8700 N   0  0  0  0  0  0  0  0  0  0  0  0
    6.4010    0.0270   19.9580 C   0  0  0  0  0  0  0  0  0  0  0  0
    5.2200    0.7600   20.1660 C   0  0  0  0  0  0  0  0  0  0  0  0
    4.6450    1.4580   19.1040 C   0  0  0  0  0  0  0  0  0  0  0  0
    5.1900    1.4660   17.8280 C   0  0  0  0  0  0  0  0  0  0  0  0
    6.3220    0.7380   17.6880 N   0  0  0  0  0  0  0  0  0  0  0  0
    6.9160    0.0450   18.6800 C   0  0  0  0  0  0  0  0  0  0  0  0
   10.4030   -2.0750   23.6770 C   0  0  0  0  0  0  0  0  0  0  0  0
   11.7470   -2.3950   23.6370 C   0  0  0  0  0  0  0  0  0  0  0  0
   12.8230    1.8680   23.2110 C   0  0  0  0  0  0  0  0  0  0  0  0
   12.8100    3.1400   22.6630 C   0  0  0  0  0  0  0  0  0  0  0  0
  1  2  1  0
  2  3  2  0
  3  4  1  0
  4  5  2  0
  6  5  1  0
  6  7  2  0
  6  8  2  0
  6  9  1  0
  9 10  1  0
 10 11  1  0
 11 12  1  0
 12 13  1  0
 13 14  1  0
 14 15  2  0
 14 16  1  0
 16 17  1  0
 17 18  2  0
 18 19  1  0
 19 20  2  0
 20 21  1  0
 17 22  1  0
 21 22  2  0
 12 23  1  0
  9 24  1  0
 23 24  1  0
  5 25  1  0
  2 26  1  0
 25 26  2  0
M  END
