pyridine_urea_15026
     RDKit          3D

 18 19  0  0  0  0  0  0  0  0999 V2000
    8.9320    1.2310   21.2230 O   0  0  0  0  0  0  0  0  0  0  0  0
    8.4150    0.1720   21.6050 C   0  0  0  0  0  0  0  0  0  0  0  0
    8.8740   -0.5720   22.6710 N   0  0  0  0  0  0  0  0  0  0  0  0
   10.0960   -0.1470   23.3240 C   0  0  0  0  0  0  0  0  0  0  0  0
   11.2850   -0.9040   22.7580 C   0  0  0  0  0  0  0  0  0  0  0  0
   11.0680   -2.2260   22.2340 C   0  0  0  0  0  0  0  0  0  0  0  0
   12.0230   -1.1920   22.4840 N   0  0  0  0  0  0  0  0  0  0  0  0
   11.4760    0.0750   23.1600 C   0  0  0  0  0  0  0  0  0  0  0  0
   12.6280    0.9180   23.2630 C   0  0  0  0  0  0  0  0  0  0  0  0
   12.8200   -0.3600   22.6740 C   0  0  0  0  0  0  0  0  0  0  0  0
   13.8280   -0.8480   22.2500 O   0  0  0  0  0  0  0  0  0  0  0  0
    7.2920   -0.3950   21.0370 N   0  0  0  0  0  0  0  0  0  0  0  0
    6.5900    0.1480   20.0210 C   0  0  0  0  0  0  0  0  0  0  0  0
    5.4350    0.8710   20.2880 C   0  0  0  0  0  0  0  0  0  0  0  0
    4.6950    1.4600   19.2890 C   0  0  0  0  0  0  0  0  0  0  0  0
    5.1500    1.3050   17.9900 C   0  0  0  0  0  0  0  0  0  0  0  0
    6.2560    0.6060   17.6830 N   0  0  0  0  0  0  0  0  0  0  0  0
    6.9470    0.0430   18.7000 C   0  0  0  0  0  0  0  0  0  0  0  0
  1  2  2  0
  2  3  1  0
  3  4  1  0
  4  5  1  0
  5  6  2  0
  6  7  1  0
  7  8  2  0
  8  9  1  0
  5 10  1  0
  9 10  2  0
 10 11  1  0
  2 12  1  0
 12 13  1  0
 13 14  2  0
 14 15  1  0
 15 16  2  0
 16 17  1  0
 13 18  1  0
 17 18  2  0
M  END
