pyridine_urea_7647
     RDKit          3D

 18 20  0  0  0  0  0  0  0  0999 V2000
    8.9680    1.2860   21.2320 O   0  0  0  0  0  0  0  0  0  0  0  0
    8.4570    0.2320   21.6220 C   0  0  0  0  0  0  0  0  0  0  0  0
    7.3600   -0.3960   21.0750 N   0  0  0  0  0  0  0  0  0  0  0  0
    6.6060    0.1540   20.0350 C   0  0  0  0  0  0  0  0  0  0  0  0
    5.4450    0.8730   20.3370 C   0  0  0  0  0  0  0  0  0  0  0  0
    4.6980    1.4440   19.3080 C   0  0  0  0  0  0  0  0  0  0  0  0
    5.1430    1.2730   18.0180 C   0  0  0  0  0  0  0  0  0  0  0  0
    6.2450    0.5810   17.7030 N   0  0  0  0  0  0  0  0  0  0  0  0
    6.9480    0.0380   18.7120 C   0  0  0  0  0  0  0  0  0  0  0  0
    8.9470   -0.4650   22.7050 N   0  0  0  0  0  0  0  0  0  0  0  0
   10.3590   -0.8940   22.7200 C   0  0  2  0  0  0  0  0  0  0  0  0
   10.3940   -0.3010   24.1030 C   0  0  0  0  0  0  0  0  0  0  0  0
   11.6580    0.1160   24.0140 C   0  0  1  0  0  0  0  0  0  0  0  0
   12.6180   -0.5860   24.7090 C   0  0  0  0  0  0  0  0  0  0  0  0
   12.6480   -1.9580   24.4960 C   0  0  0  0  0  0  0  0  0  0  0  0
   12.8210   -2.2210   23.1420 C   0  0  0  0  0  0  0  0  0  0  0  0
   12.8480   -1.0570   22.3570 C   0  0  0  0  0  0  0  0  0  0  0  0
   11.8120   -0.1790   22.6590 C   0  0  1  0  0  0  0  0  0  0  0  0
  1  2  2  0
  2  3  1  0
  3  4  1  0
  4  5  2  0
  5  6  1  0
  6  7  2  0
  7  8  1  0
  4  9  1  0
  8  9  2  0
  2 10  1  0
 11 10  1  6
 11 12  1  0
 13 12  1  1
 13 14  1  0
 14 15  1  0
 15 16  1  0
 16 17  1  0
 11 18  1  0
 13 18  1  0
 18 17  1  1
M  END
