pyridine_urea_7428
     RDKit          3D

 17 17  0  0  0  0  0  0  0  0999 V2000
   10.7570    5.0740   23.8190 C   0  0  0  0  0  0  0  0  0  0  0  0
   11.1250    4.2610   22.5790 C   0  0  0  0  0  0  0  0  0  0  0  0
   11.9680    3.1870   22.8390 C   0  0  0  0  0  0  0  0  0  0  0  0
   11.4570    2.1250   23.5850 C   0  0  0  0  0  0  0  0  0  0  0  0
   10.7810    1.2570   23.0630 O   0  0  0  0  0  0  0  0  0  0  0  0
   10.5590    0.1610   23.8300 C   0  0  0  0  0  0  0  0  0  0  0  0
   10.3350   -0.9660   23.0350 C   0  0  0  0  0  0  0  0  0  0  0  0
    8.9910   -0.9640   22.5060 N   0  0  0  0  0  0  0  0  0  0  0  0
    8.6150    0.0160   21.6540 C   0  0  0  0  0  0  0  0  0  0  0  0
    9.3410    1.2290   21.4430 O   0  0  0  0  0  0  0  0  0  0  0  0
    7.5150   -0.1650   20.9870 N   0  0  0  0  0  0  0  0  0  0  0  0
    6.6690    0.2310   20.0130 C   0  0  0  0  0  0  0  0  0  0  0  0
    5.4880    0.9100   20.3110 C   0  0  0  0  0  0  0  0  0  0  0  0
    4.6330    1.3630   19.3310 C   0  0  0  0  0  0  0  0  0  0  0  0
    5.0170    1.1020   18.0310 C   0  0  0  0  0  0  0  0  0  0  0  0
    6.1330    0.4390   17.7010 N   0  0  0  0  0  0  0  0  0  0  0  0
    6.9340    0.0160   18.6870 C   0  0  0  0  0  0  0  0  0  0  0  0
  1  2  1  0
  2  3  1  0
  3  4  1  0
  4  5  1  0
  5  6  1  0
  6  7  1  0
  7  8  1  0
  8  9  1  0
  9 10  2  0
  9 11  1  0
 11 12  1  0
 12 13  2  0
 13 14  1  0
 14 15  2  0
 15 16  1  0
 12 17  1  0
 16 17  2  0
M  END
