pyridine_urea_8350
     RDKit          3D

 22 23  0  0  0  0  0  0  0  0999 V2000
   13.2610    4.5990   21.6850 C   0  0  0  0  0  0  0  0  0  0  0  0
   12.0020    4.0470   21.5630 N   0  0  0  0  0  0  0  0  0  0  0  0
   11.3470    3.5510   23.0330 S   0  0  0  0  0  0  0  0  0  0  0  0
    9.9170    3.7990   23.0110 O   0  0  0  0  0  0  0  0  0  0  0  0
   12.1830    4.2220   23.9690 O   0  0  0  0  0  0  0  0  0  0  0  0
   11.5700    1.7700   22.9170 C   0  0  0  0  0  0  0  0  0  0  0  0
   10.3080    0.8910   22.8300 C   0  0  0  0  0  0  0  0  0  0  0  0
   10.2900   -0.4780   22.6730 C   0  0  0  0  0  0  0  0  0  0  0  0
    8.9770   -1.0390   22.5600 N   0  0  0  0  0  0  0  0  0  0  0  0
    8.2830   -0.3250   21.6080 C   0  0  0  0  0  0  0  0  0  0  0  0
    8.7070    0.7590   21.2390 O   0  0  0  0  0  0  0  0  0  0  0  0
    7.1360   -0.8760   21.1160 N   0  0  0  0  0  0  0  0  0  0  0  0
    6.4910   -0.1740   20.0870 C   0  0  0  0  0  0  0  0  0  0  0  0
    5.1860    0.5650   20.3890 C   0  0  0  0  0  0  0  0  0  0  0  0
    4.4830    1.3550   19.2940 C   0  0  0  0  0  0  0  0  0  0  0  0
    5.1500    1.3580   17.9280 C   0  0  0  0  0  0  0  0  0  0  0  0
    6.3950    0.6070   17.7560 N   0  0  0  0  0  0  0  0  0  0  0  0
    6.9860   -0.1010   18.8030 C   0  0  0  0  0  0  0  0  0  0  0  0
   11.6370   -1.1700   22.6080 C   0  0  0  0  0  0  0  0  0  0  0  0
   12.8860   -0.2890   22.7150 C   0  0  0  0  0  0  0  0  0  0  0  0
   12.7910    1.1020   22.8500 C   0  0  0  0  0  0  0  0  0  0  0  0
   14.0180    1.7730   22.8850 O   0  0  0  0  0  0  0  0  0  0  0  0
  1  2  1  0
  3  2  1  0
  3  4  2  0
  3  5  2  0
  3  6  1  0
  6  7  2  0
  7  8  1  0
  8  9  1  0
  9 10  1  0
 10 11  2  0
 10 12  1  0
 12 13  1  0
 13 14  2  0
 14 15  1  0
 15 16  2  0
 16 17  1  0
 13 18  1  0
 17 18  2  0
  8 19  2  0
 19 20  1  0
  6 21  1  0
 20 21  2  0
 21 22  1  0
M  END
