pyridine_urea_8029
     RDKit          3D

 24 26  0  0  0  0  0  0  0  0999 V2000
    8.8890    1.6520   20.9700 O   0  0  0  0  0  0  0  0  0  0  0  0
    8.4920    0.7160   21.6440 C   0  0  0  0  0  0  0  0  0  0  0  0
    7.5250   -0.1780   21.1900 N   0  0  0  0  0  0  0  0  0  0  0  0
    6.6870    0.2880   20.1080 C   0  0  0  0  0  0  0  0  0  0  0  0
    5.4050    1.1210   20.4430 C   0  0  0  0  0  0  0  0  0  0  0  0
    4.6430    1.5670   19.3770 C   0  0  0  0  0  0  0  0  0  0  0  0
    5.1410    1.1960   17.9790 C   0  0  0  0  0  0  0  0  0  0  0  0
    6.2430    0.4690   17.7380 N   0  0  0  0  0  0  0  0  0  0  0  0
    6.9770    0.0350   18.7800 C   0  0  0  0  0  0  0  0  0  0  0  0
    8.9310    0.4640   22.9190 N   0  0  0  0  0  0  0  0  0  0  0  0
   10.3810    0.2870   23.1530 C   0  0  1  0  0  0  0  0  0  0  0  0
   11.2850    1.4790   22.9430 C   0  0  0  0  0  0  0  0  0  0  0  0
   11.9500    0.6780   23.9770 C   0  0  2  0  0  0  0  0  0  0  0  0
   12.6280   -0.2670   23.1210 C   0  0  0  0  0  0  0  0  0  0  0  0
   12.5190   -1.5900   22.3590 C   0  0  0  0  0  0  0  0  0  0  0  0
   11.2560   -2.4620   22.3850 C   0  0  0  0  0  0  0  0  0  0  0  0
   10.1180   -2.1890   23.0910 C   0  0  0  0  0  0  0  0  0  0  0  0
    8.9230   -2.9290   23.1730 C   0  0  0  0  0  0  0  0  0  0  0  0
    8.9810   -4.0100   23.9700 F   0  0  0  0  0  0  0  0  0  0  0  0
    8.4330   -3.3600   22.0010 F   0  0  0  0  0  0  0  0  0  0  0  0
    7.8960   -2.2130   23.7130 F   0  0  0  0  0  0  0  0  0  0  0  0
   10.1760   -0.9930   23.8280 C   0  0  0  0  0  0  0  0  0  0  0  0
   11.3330   -0.2550   23.7360 C   0  0  0  0  0  0  0  0  0  0  0  0
   10.8500   -0.0580   24.4790 C   0  0  0  0  0  0  0  0  0  0  0  0
  1  2  2  0
  2  3  1  0
  3  4  1  0
  4  5  2  0
  5  6  1  0
  6  7  2  0
  7  8  1  0
  4  9  1  0
  8  9  2  0
  2 10  1  0
 11 10  1  1
 11 12  1  0
 12 13  1  0
 13 14  1  6
 14 15  2  0
 15 16  1  0
 16 17  2  0
 17 18  1  0
 18 19  1  0
 18 20  1  0
 18 21  1  0
 17 22  1  0
 14 23  1  0
 22 23  2  0
 11 24  1  0
 13 24  1  0
M  END
