pyridine_urea_9725
     RDKit          3D

 27 30  0  0  0  0  0  0  0  0999 V2000
    8.2420    0.4080   20.9470 O   0  0  0  0  0  0  0  0  0  0  0  0
    7.6510   -0.5410   21.4460 C   0  0  0  0  0  0  0  0  0  0  0  0
    6.5270   -1.0470   20.9150 N   0  0  0  0  0  0  0  0  0  0  0  0
    6.0600   -0.2000   19.8750 C   0  0  0  0  0  0  0  0  0  0  0  0
    4.8140    0.6180   20.1590 C   0  0  0  0  0  0  0  0  0  0  0  0
    4.3220    1.5360   19.0520 C   0  0  0  0  0  0  0  0  0  0  0  0
    5.1560    1.5210   17.7710 C   0  0  0  0  0  0  0  0  0  0  0  0
    6.2850    0.7000   17.6680 N   0  0  0  0  0  0  0  0  0  0  0  0
    6.7140   -0.1180   18.6720 C   0  0  0  0  0  0  0  0  0  0  0  0
    8.0640   -1.1560   22.5800 N   0  0  0  0  0  0  0  0  0  0  0  0
    9.2920   -0.6420   22.8280 C   0  0  0  0  0  0  0  0  0  0  0  0
   10.4560   -1.3680   22.9950 C   0  0  0  0  0  0  0  0  0  0  0  0
   11.6770   -0.7930   23.2120 C   0  0  0  0  0  0  0  0  0  0  0  0
   11.6680    0.5560   23.2450 C   0  0  0  0  0  0  0  0  0  0  0  0
   10.5660    1.2190   23.0890 C   0  0  0  0  0  0  0  0  0  0  0  0
    9.3360    0.7630   22.8860 C   0  0  0  0  0  0  0  0  0  0  0  0
   10.0170    2.5970   23.0240 C   0  0  0  0  0  0  0  0  0  0  0  0
   11.1550    3.3880   22.8940 C   0  0  0  0  0  0  0  0  0  0  0  0
   12.5070    2.7050   22.9230 C   0  0  0  0  0  0  0  0  0  0  0  0
   13.4570    3.3950   22.5600 O   0  0  0  0  0  0  0  0  0  0  0  0
   12.6630    1.2800   23.3960 N   0  0  0  0  0  0  0  0  0  0  0  0
   13.4930    0.4480   22.6260 C   0  0  0  0  0  0  0  0  0  0  0  0
   13.3790   -0.8630   23.0640 C   0  0  0  0  0  0  0  0  0  0  0  0
   12.8010   -1.1520   24.2940 C   0  0  0  0  0  0  0  0  0  0  0  0
   12.4610   -2.4620   24.1910 C   0  0  0  0  0  0  0  0  0  0  0  0
   12.4930   -2.7080   22.8270 C   0  0  0  0  0  0  0  0  0  0  0  0
   12.7000   -1.5570   22.0880 C   0  0  0  0  0  0  0  0  0  0  0  0
  1  2  2  0
  2  3  1  0
  3  4  1  0
  4  5  2  0
  5  6  1  0
  6  7  2  0
  7  8  1  0
  4  9  1  0
  8  9  2  0
  2 10  1  0
 10 11  1  0
 11 12  2  0
 12 13  1  0
 13 14  2  0
 14 15  1  0
 11 16  1  0
 15 16  2  0
 15 17  1  0
 17 18  1  0
 18 19  1  0
 19 20  2  0
 14 21  1  0
 19 21  1  0
 21 22  1  0
 22 23  1  0
 23 24  1  0
 24 25  1  0
 25 26  1  0
 23 27  1  0
 26 27  1  0
M  END
