pyridine_urea_8654
     RDKit          3D

 21 22  0  0  0  0  0  0  0  0999 V2000
   13.0910    0.5590   22.9170 C   0  0  0  0  0  0  0  0  0  0  0  0
   11.6240    0.8080   22.9800 C   0  0  0  0  0  0  0  0  0  0  0  0
   12.4090    1.6250   22.5500 C   0  0  0  0  0  0  0  0  0  0  0  0
   13.4920    0.6800   22.8150 C   0  0  0  0  0  0  0  0  0  0  0  0
   13.2530   -0.7330   23.4550 C   0  0  0  0  0  0  0  0  0  0  0  0
   11.8560   -1.3550   23.8990 C   0  0  0  0  0  0  0  0  0  0  0  0
   10.5360   -1.0690   23.9220 C   0  0  0  0  0  0  0  0  0  0  0  0
    9.9440   -0.9870   22.5540 C   0  0  1  0  0  0  0  0  0  0  0  0
    9.7790   -2.1460   21.8670 C   0  0  0  0  0  0  0  0  0  0  0  0
    9.0970   -2.9340   22.5160 O   0  0  0  0  0  0  0  0  0  0  0  0
    8.6090   -0.3490   22.6920 N   0  0  0  0  0  0  0  0  0  0  0  0
    8.1980    0.3260   21.5940 C   0  0  0  0  0  0  0  0  0  0  0  0
    8.7890    1.4790   21.1160 O   0  0  0  0  0  0  0  0  0  0  0  0
    7.1140   -0.3100   21.0420 N   0  0  0  0  0  0  0  0  0  0  0  0
    6.4540    0.2310   19.9610 C   0  0  0  0  0  0  0  0  0  0  0  0
    5.3030    0.9720   20.1730 C   0  0  0  0  0  0  0  0  0  0  0  0
    4.5960    1.5690   19.1500 C   0  0  0  0  0  0  0  0  0  0  0  0
    5.1160    1.3770   17.8870 C   0  0  0  0  0  0  0  0  0  0  0  0
    6.2240    0.6580   17.6220 N   0  0  0  0  0  0  0  0  0  0  0  0
    6.8780    0.0950   18.6570 C   0  0  0  0  0  0  0  0  0  0  0  0
   12.1170   -0.2690   23.3920 C   0  0  0  0  0  0  0  0  0  0  0  0
  1  2  1  0
  2  3  2  0
  3  4  1  0
  4  5  2  0
  5  6  1  0
  6  7  1  0
  8  7  1  1
  8  9  1  0
  9 10  1  0
  8 11  1  0
 11 12  1  0
 12 13  2  0
 12 14  1  0
 14 15  1  0
 15 16  2  0
 16 17  1  0
 17 18  2  0
 18 19  1  0
 15 20  1  0
 19 20  2  0
  2 21  1  0
  6 21  2  0
M  END
