pyridine_urea_4570
     RDKit          3D

 23 25  0  0  0  0  0  0  0  0999 V2000
   13.5980   -3.8430   20.6390 C   0  0  0  0  0  0  0  0  0  0  0  0
   12.8740   -2.9390   21.3940 N   0  0  0  0  0  0  0  0  0  0  0  0
   11.8420   -2.2730   20.7750 N   0  0  0  0  0  0  0  0  0  0  0  0
   11.2770   -1.3990   21.7750 C   0  0  0  0  0  0  0  0  0  0  0  0
   12.0080   -1.5590   23.0270 C   0  0  0  0  0  0  0  0  0  0  0  0
   11.8120   -0.8790   24.3150 C   0  0  0  0  0  0  0  0  0  0  0  0
   10.7580    0.1400   24.4230 N   0  0  0  0  0  0  0  0  0  0  0  0
    9.5010   -0.1120   24.9240 C   0  0  0  0  0  0  0  0  0  0  0  0
    8.4180   -0.6940   24.0070 C   0  0  0  0  0  0  0  0  0  0  0  0
    8.9000   -0.6500   22.7110 N   0  0  0  0  0  0  0  0  0  0  0  0
    8.4120    0.1400   21.6420 C   0  0  0  0  0  0  0  0  0  0  0  0
    8.9540    1.1960   21.2770 O   0  0  0  0  0  0  0  0  0  0  0  0
    7.2760   -0.4250   21.1060 N   0  0  0  0  0  0  0  0  0  0  0  0
    6.5460    0.1440   20.0620 C   0  0  0  0  0  0  0  0  0  0  0  0
    5.3880    0.8760   20.3710 C   0  0  0  0  0  0  0  0  0  0  0  0
    4.6970    1.4420   19.3210 C   0  0  0  0  0  0  0  0  0  0  0  0
    5.1550    1.2750   18.0410 C   0  0  0  0  0  0  0  0  0  0  0  0
    6.2530    0.5770   17.6940 N   0  0  0  0  0  0  0  0  0  0  0  0
    6.9220    0.0240   18.7310 C   0  0  0  0  0  0  0  0  0  0  0  0
   12.6700   -1.2990   25.2570 N   0  0  0  0  0  0  0  0  0  0  0  0
   13.6080   -2.2620   24.9690 C   0  0  0  0  0  0  0  0  0  0  0  0
   13.8820   -2.9410   23.8140 N   0  0  0  0  0  0  0  0  0  0  0  0
   13.0670   -2.5770   22.8360 C   0  0  0  0  0  0  0  0  0  0  0  0
  1  2  1  0
  2  3  1  0
  3  4  2  0
  4  5  1  0
  5  6  1  0
  6  7  1  0
  7  8  1  0
  8  9  1  0
  9 10  1  0
 10 11  1  0
 11 12  2  0
 11 13  1  0
 13 14  1  0
 14 15  2  0
 15 16  1  0
 16 17  2  0
 17 18  1  0
 14 19  1  0
 18 19  2  0
  6 20  2  0
 20 21  1  0
 21 22  2  0
  2 23  1  0
  5 23  2  0
 22 23  1  0
M  END
