pyridine_urea_6874
     RDKit          3D

 21 22  0  0  0  0  0  0  0  0999 V2000
    8.6090   -2.3600   25.6830 C   0  0  0  0  0  0  0  0  0  0  0  0
    9.2980   -1.7510   24.4440 C   0  0  0  0  0  0  0  0  0  0  0  0
    8.2040   -0.9980   23.6810 C   0  0  0  0  0  0  0  0  0  0  0  0
   10.3600   -0.7750   24.7100 O   0  0  0  0  0  0  0  0  0  0  0  0
   11.3130   -0.7310   23.8180 C   0  0  0  0  0  0  0  0  0  0  0  0
   12.5780   -0.1430   23.8090 C   0  0  0  0  0  0  0  0  0  0  0  0
   13.2670   -0.3640   22.7800 C   0  0  0  0  0  0  0  0  0  0  0  0
   12.7290   -1.1500   21.7550 C   0  0  0  0  0  0  0  0  0  0  0  0
   11.4790   -1.8770   21.3670 C   0  0  0  0  0  0  0  0  0  0  0  0
   10.1680   -2.1690   21.7950 C   0  0  0  0  0  0  0  0  0  0  0  0
    9.1980   -1.4330   21.0020 N   0  0  0  0  0  0  0  0  0  0  0  0
    8.5090   -0.2930   21.3330 C   0  0  0  0  0  0  0  0  0  0  0  0
    9.1810    0.8780   21.7160 O   0  0  0  0  0  0  0  0  0  0  0  0
    7.1580   -0.4910   21.1660 N   0  0  0  0  0  0  0  0  0  0  0  0
    6.3950    0.1470   20.1750 C   0  0  0  0  0  0  0  0  0  0  0  0
    5.1780    0.8520   20.4270 C   0  0  0  0  0  0  0  0  0  0  0  0
    4.6050    1.4480   19.1440 C   0  0  0  0  0  0  0  0  0  0  0  0
    5.2220    1.2940   17.9340 C   0  0  0  0  0  0  0  0  0  0  0  0
    6.3530    0.6200   17.7470 N   0  0  0  0  0  0  0  0  0  0  0  0
    6.8750    0.0840   18.8650 C   0  0  0  0  0  0  0  0  0  0  0  0
   10.9820   -1.4500   22.6540 C   0  0  0  0  0  0  0  0  0  0  0  0
  1  2  1  0
  2  3  1  0
  2  4  1  0
  4  5  1  0
  5  6  2  0
  6  7  1  0
  7  8  2  0
  8  9  1  0
  9 10  1  0
 10 11  1  0
 11 12  1  0
 12 13  2  0
 12 14  1  0
 14 15  1  0
 15 16  2  0
 16 17  1  0
 17 18  2  0
 18 19  1  0
 15 20  1  0
 19 20  2  0
  5 21  1  0
  9 21  2  0
M  END
