pyridine_urea_3790
     RDKit          3D

 18 19  0  0  0  0  0  0  0  0999 V2000
   13.0360   -2.5560   24.6870 C   0  0  0  0  0  0  0  0  0  0  0  0
   13.8010   -2.1420   23.5660 O   0  0  0  0  0  0  0  0  0  0  0  0
   13.1690   -1.1480   22.7580 C   0  0  0  0  0  0  0  0  0  0  0  0
   12.7970    0.0970   23.5360 C   0  0  0  0  0  0  0  0  0  0  0  0
   11.3910    0.4390   23.1970 C   0  0  2  0  0  0  0  0  0  0  0  0
   10.4360    0.2000   24.3020 C   0  0  0  0  0  0  0  0  0  0  0  0
    9.7950   -0.7660   23.3780 C   0  0  1  0  0  0  0  0  0  0  0  0
    8.4570   -0.3780   22.9420 N   0  0  0  0  0  0  0  0  0  0  0  0
    8.2560    0.1690   21.6800 C   0  0  0  0  0  0  0  0  0  0  0  0
    8.8800    1.1550   21.2500 O   0  0  0  0  0  0  0  0  0  0  0  0
    7.2100   -0.5780   20.9890 N   0  0  0  0  0  0  0  0  0  0  0  0
    6.4480    0.0910   20.0260 C   0  0  0  0  0  0  0  0  0  0  0  0
    5.2630    0.7920   20.2730 C   0  0  0  0  0  0  0  0  0  0  0  0
    4.6350    1.4150   19.2060 C   0  0  0  0  0  0  0  0  0  0  0  0
    5.1910    1.3290   17.9440 C   0  0  0  0  0  0  0  0  0  0  0  0
    6.3210    0.6560   17.6920 N   0  0  0  0  0  0  0  0  0  0  0  0
    6.9160    0.0560   18.7340 C   0  0  0  0  0  0  0  0  0  0  0  0
   10.8340   -0.5010   22.2520 C   0  0  0  0  0  0  0  0  0  0  0  0
  1  2  1  0
  2  3  1  0
  3  4  1  0
  5  4  1  1
  5  6  1  0
  6  7  1  0
  7  8  1  6
  8  9  1  0
  9 10  2  0
  9 11  1  0
 11 12  1  0
 12 13  2  0
 13 14  1  0
 14 15  2  0
 15 16  1  0
 12 17  1  0
 16 17  2  0
  5 18  1  0
  7 18  1  0
M  END
