pyridine_urea_1707
     RDKit          3D

 18 18  0  0  0  0  0  0  0  0999 V2000
   12.0440   -0.0770   24.6260 C   0  0  0  0  0  0  0  0  0  0  0  0
   10.5960   -0.0530   24.2370 C   0  0  0  0  0  0  0  0  0  0  0  0
   10.1240   -1.0250   23.3640 C   0  0  1  0  0  0  0  0  0  0  0  0
    8.7880   -0.8190   22.9000 N   0  0  0  0  0  0  0  0  0  0  0  0
    8.3790   -0.0730   21.7840 C   0  0  0  0  0  0  0  0  0  0  0  0
    8.9520    0.9310   21.3840 O   0  0  0  0  0  0  0  0  0  0  0  0
    7.2320   -0.5860   21.1790 N   0  0  0  0  0  0  0  0  0  0  0  0
    6.5290    0.0310   20.1170 C   0  0  0  0  0  0  0  0  0  0  0  0
    5.3560    0.7430   20.4270 C   0  0  0  0  0  0  0  0  0  0  0  0
    4.6460    1.3770   19.4120 C   0  0  0  0  0  0  0  0  0  0  0  0
    5.2000    1.2580   17.9930 C   0  0  0  0  0  0  0  0  0  0  0  0
    6.3120    0.5660   17.7420 N   0  0  0  0  0  0  0  0  0  0  0  0
    6.9410   -0.0240   18.7890 C   0  0  0  0  0  0  0  0  0  0  0  0
   11.0100   -1.3320   22.3390 C   0  0  1  0  0  0  0  0  0  0  0  0
   10.4450   -0.6390   21.3340 O   0  0  0  0  0  0  0  0  0  0  0  0
   12.4020   -1.1730   22.5000 C   0  0  0  0  0  0  0  0  0  0  0  0
   13.0390   -1.8430   21.4710 C   0  0  0  0  0  0  0  0  0  0  0  0
   12.6750    0.2580   22.8250 C   0  0  0  0  0  0  0  0  0  0  0  0
  1  2  1  0
  3  2  1  6
  3  4  1  0
  4  5  1  0
  5  6  2  0
  5  7  1  0
  7  8  1  0
  8  9  2  0
  9 10  1  0
 10 11  2  0
 11 12  1  0
  8 13  1  0
 12 13  2  0
  3 14  1  0
 14 15  1  6
 14 16  1  0
 16 17  1  0
 16 18  1  0
M  END
