pyridine_urea_8181
     RDKit          3D

 23 24  0  0  0  0  0  0  0  0999 V2000
   13.2530   -2.6290   22.7780 C   0  0  0  0  0  0  0  0  0  0  0  0
   12.8160   -1.5000   21.8630 C   0  0  0  0  0  0  0  0  0  0  0  0
   12.6480   -0.0550   22.8670 S   0  0  0  0  0  0  0  0  0  0  0  0
   12.4120    1.1820   22.2050 O   0  0  0  0  0  0  0  0  0  0  0  0
   13.7250   -0.1750   23.7540 O   0  0  0  0  0  0  0  0  0  0  0  0
   11.2910   -0.3790   23.9160 C   0  0  0  0  0  0  0  0  0  0  0  0
   12.5110   -0.1460   24.5660 C   0  0  0  0  0  0  0  0  0  0  0  0
   11.2370   -0.4200   25.0380 C   0  0  0  0  0  0  0  0  0  0  0  0
   10.2320   -0.6200   24.0790 C   0  0  0  0  0  0  0  0  0  0  0  0
   10.0810   -0.6400   22.5740 C   0  0  1  0  0  0  0  0  0  0  0  0
   10.8070   -1.9140   22.1850 C   0  0  0  0  0  0  0  0  0  0  0  0
    9.4620   -0.7180   21.6280 N   0  0  0  0  0  0  0  0  0  0  0  0
    8.5560    0.2490   21.3230 C   0  0  0  0  0  0  0  0  0  0  0  0
    8.8660    1.4370   21.2160 O   0  0  0  0  0  0  0  0  0  0  0  0
    7.2760   -0.2760   21.1060 N   0  0  0  0  0  0  0  0  0  0  0  0
    6.5560    0.2120   20.0650 C   0  0  0  0  0  0  0  0  0  0  0  0
    5.2820    1.0070   20.3450 C   0  0  0  0  0  0  0  0  0  0  0  0
    4.5490    1.5650   19.1340 C   0  0  0  0  0  0  0  0  0  0  0  0
    5.0770    1.3180   17.8820 C   0  0  0  0  0  0  0  0  0  0  0  0
    6.2090    0.5860   17.7080 N   0  0  0  0  0  0  0  0  0  0  0  0
    6.9330    0.0440   18.7520 C   0  0  0  0  0  0  0  0  0  0  0  0
    9.2920   -0.8300   24.8310 C   0  0  0  0  0  0  0  0  0  0  0  0
   10.6290   -0.5560   25.3210 C   0  0  0  0  0  0  0  0  0  0  0  0
  1  2  1  0
  3  2  1  0
  3  4  2  0
  3  5  2  0
  3  6  1  0
  6  7  2  0
  7  8  1  0
  8  9  2  0
  9 10  1  0
 10 11  1  1
 10 12  1  0
 12 13  1  0
 13 14  2  0
 13 15  1  0
 15 16  1  0
 16 17  2  0
 17 18  1  0
 18 19  2  0
 19 20  1  0
 16 21  1  0
 20 21  2  0
  9 22  1  0
  6 23  1  0
 22 23  2  0
M  END
