pyridine_urea_6894
     RDKit          3D

 20 21  0  0  0  0  0  0  0  0999 V2000
   13.1790   -2.0580   21.0220 C   0  0  0  0  0  0  0  0  0  0  0  0
   12.9850   -2.2470   22.5030 C   0  0  0  0  0  0  0  0  0  0  0  0
   12.3460   -1.2440   23.1970 C   0  0  0  0  0  0  0  0  0  0  0  0
   12.9640    0.0680   23.4540 N   0  0  0  0  0  0  0  0  0  0  0  0
   12.0490    0.8310   24.1780 N   0  0  0  0  0  0  0  0  0  0  0  0
   10.8570   -0.0090   24.3810 C   0  0  0  0  0  0  0  0  0  0  0  0
    9.3180    0.4220   25.2710 S   0  0  0  0  0  0  0  0  0  0  0  0
   11.1680   -1.2200   23.7340 N   0  0  0  0  0  0  0  0  0  0  0  0
   10.4030   -2.3540   23.5920 C   0  0  0  0  0  0  0  0  0  0  0  0
    9.3090   -2.0500   22.7730 C   0  0  0  0  0  0  0  0  0  0  0  0
    8.5300   -0.9300   22.9370 N   0  0  0  0  0  0  0  0  0  0  0  0
    8.2300   -0.3610   21.6820 C   0  0  0  0  0  0  0  0  0  0  0  0
    8.9160    0.5490   21.2400 O   0  0  0  0  0  0  0  0  0  0  0  0
    7.1650   -0.7850   20.9800 N   0  0  0  0  0  0  0  0  0  0  0  0
    6.5010   -0.0670   19.9730 C   0  0  0  0  0  0  0  0  0  0  0  0
    5.3060    0.6110   20.2710 C   0  0  0  0  0  0  0  0  0  0  0  0
    4.6850    1.3140   19.2410 C   0  0  0  0  0  0  0  0  0  0  0  0
    5.2520    1.3360   17.9790 C   0  0  0  0  0  0  0  0  0  0  0  0
    6.3850    0.7010   17.6650 N   0  0  0  0  0  0  0  0  0  0  0  0
    6.9510    0.0310   18.6740 C   0  0  0  0  0  0  0  0  0  0  0  0
  1  2  1  0
  2  3  1  0
  3  4  2  0
  4  5  1  0
  5  6  2  0
  6  7  1  0
  3  8  1  0
  6  8  1  0
  8  9  1  0
  9 10  1  0
 10 11  1  0
 11 12  1  0
 12 13  2  0
 12 14  1  0
 14 15  1  0
 15 16  2  0
 16 17  1  0
 17 18  2  0
 18 19  1  0
 15 20  1  0
 19 20  2  0
M  END
