pyridine_urea_1310
     RDKit          3D

 20 20  0  0  0  0  0  0  0  0999 V2000
   13.2650   -1.8730   25.1240 C   0  0  0  0  0  0  0  0  0  0  0  0
   12.6420   -0.6080   25.3760 O   0  0  0  0  0  0  0  0  0  0  0  0
   12.2680    0.1920   24.3220 C   0  0  0  0  0  0  0  0  0  0  0  0
   13.0450    0.7660   23.5800 O   0  0  0  0  0  0  0  0  0  0  0  0
   10.7620    0.3020   24.1180 C   0  0  0  0  0  0  0  0  0  0  0  0
   10.4080   -0.2990   22.9420 C   0  0  2  0  0  0  0  0  0  0  0  0
    8.9980   -0.4780   22.6320 N   0  0  0  0  0  0  0  0  0  0  0  0
    8.4510    0.2130   21.5710 C   0  0  0  0  0  0  0  0  0  0  0  0
    8.9270    1.2920   21.1960 O   0  0  0  0  0  0  0  0  0  0  0  0
    7.3570   -0.4240   21.0350 N   0  0  0  0  0  0  0  0  0  0  0  0
    6.5420    0.1700   20.0680 C   0  0  0  0  0  0  0  0  0  0  0  0
    5.3710    0.8830   20.3360 C   0  0  0  0  0  0  0  0  0  0  0  0
    4.6690    1.4430   19.2710 C   0  0  0  0  0  0  0  0  0  0  0  0
    5.1750    1.2610   18.0090 C   0  0  0  0  0  0  0  0  0  0  0  0
    6.2800    0.5800   17.7070 N   0  0  0  0  0  0  0  0  0  0  0  0
    6.9370    0.0480   18.7480 C   0  0  0  0  0  0  0  0  0  0  0  0
   11.0450   -1.5190   22.7290 C   0  0  0  0  0  0  0  0  0  0  0  0
   11.2100   -2.5160   23.8410 C   0  0  0  0  0  0  0  0  0  0  0  0
   12.3490   -1.3190   22.2150 C   0  0  0  0  0  0  0  0  0  0  0  0
   10.2310   -2.2830   21.7070 C   0  0  0  0  0  0  0  0  0  0  0  0
  1  2  1  0
  2  3  1  0
  3  4  2  0
  3  5  1  0
  6  5  1  1
  6  7  1  0
  7  8  1  0
  8  9  2  0
  8 10  1  0
 10 11  1  0
 11 12  2  0
 12 13  1  0
 13 14  2  0
 14 15  1  0
 11 16  1  0
 15 16  2  0
  6 17  1  0
 17 18  1  0
 17 19  1  0
 17 20  1  0
M  END
