pyridine_urea_9128
     RDKit          3D

 19 20  0  0  0  0  0  0  0  0999 V2000
   12.0630   -3.2590   24.7810 N   0  0  0  0  0  0  0  0  0  0  0  0
   13.0790   -1.9840   24.5070 S   0  0  0  0  0  0  0  0  0  0  0  0
   13.8440   -2.3850   23.3550 O   0  0  0  0  0  0  0  0  0  0  0  0
   13.6760   -1.6930   25.7660 O   0  0  0  0  0  0  0  0  0  0  0  0
   12.0390   -0.6230   24.0050 C   0  0  0  0  0  0  0  0  0  0  0  0
   10.8770   -0.0450   23.0890 C   0  0  0  0  0  0  0  0  0  0  0  0
   10.2080   -0.9220   22.0660 C   0  0  0  0  0  0  0  0  0  0  0  0
    9.2280   -0.8010   21.1660 N   0  0  0  0  0  0  0  0  0  0  0  0
    8.3800    0.1580   21.5680 C   0  0  0  0  0  0  0  0  0  0  0  0
    8.7530    1.3180   22.1480 O   0  0  0  0  0  0  0  0  0  0  0  0
    7.1040   -0.2220   21.2560 N   0  0  0  0  0  0  0  0  0  0  0  0
    6.4490    0.2860   20.1330 C   0  0  0  0  0  0  0  0  0  0  0  0
    5.3120    1.0470   20.3210 C   0  0  0  0  0  0  0  0  0  0  0  0
    4.7090    1.5460   19.1910 C   0  0  0  0  0  0  0  0  0  0  0  0
    5.1920    1.3150   17.9190 C   0  0  0  0  0  0  0  0  0  0  0  0
    6.2600    0.5920   17.6860 N   0  0  0  0  0  0  0  0  0  0  0  0
    6.8720    0.0850   18.8250 C   0  0  0  0  0  0  0  0  0  0  0  0
   10.8170   -2.1830   22.1050 C   0  0  0  0  0  0  0  0  0  0  0  0
   11.9960   -2.2190   23.2670 S   0  0  0  0  0  0  0  0  0  0  0  0
  2  1  1  0
  2  3  2  0
  2  4  2  0
  2  5  1  0
  5  6  2  0
  6  7  1  0
  7  8  1  0
  8  9  1  0
  9 10  2  0
  9 11  1  0
 11 12  1  0
 12 13  2  0
 13 14  1  0
 14 15  2  0
 15 16  1  0
 12 17  1  0
 16 17  2  0
  7 18  2  0
  5 19  1  0
 18 19  1  0
M  END
