pyridine_urea_1616
     RDKit          3D

 18 19  0  0  0  0  0  0  0  0999 V2000
   11.3870    1.5140   23.8270 C   0  0  0  0  0  0  0  0  0  0  0  0
   10.4400    0.3560   23.8600 C   0  0  0  0  0  0  0  0  0  0  0  0
   10.3350   -0.4000   22.7070 C   0  0  2  0  0  0  0  0  0  0  0  0
    9.0310   -0.7360   22.3530 N   0  0  0  0  0  0  0  0  0  0  0  0
    8.3510    0.0860   21.4850 C   0  0  0  0  0  0  0  0  0  0  0  0
    8.7810    1.1870   21.1150 O   0  0  0  0  0  0  0  0  0  0  0  0
    7.1470   -0.4400   21.0760 N   0  0  0  0  0  0  0  0  0  0  0  0
    6.4410    0.1380   20.0260 C   0  0  0  0  0  0  0  0  0  0  0  0
    5.2490    0.8120   20.3240 C   0  0  0  0  0  0  0  0  0  0  0  0
    4.5460    1.4210   19.2940 C   0  0  0  0  0  0  0  0  0  0  0  0
    5.1410    1.3060   17.8920 C   0  0  0  0  0  0  0  0  0  0  0  0
    6.2720    0.6420   17.6630 N   0  0  0  0  0  0  0  0  0  0  0  0
    6.8870    0.0810   18.7190 C   0  0  0  0  0  0  0  0  0  0  0  0
   11.3680   -1.3070   22.4890 C   0  0  2  0  0  0  0  0  0  0  0  0
   11.6130   -2.2690   23.1810 C   0  0  0  0  0  0  0  0  0  0  0  0
   12.6310   -1.1890   23.3130 C   0  0  0  0  0  0  0  0  0  0  0  0
   13.2430   -0.5000   22.3100 C   0  0  0  0  0  0  0  0  0  0  0  0
   12.6470   -0.4570   24.6070 C   0  0  0  0  0  0  0  0  0  0  0  0
  1  2  1  0
  3  2  1  1
  3  4  1  0
  4  5  1  0
  5  6  2  0
  5  7  1  0
  7  8  1  0
  8  9  2  0
  9 10  1  0
 10 11  2  0
 11 12  1  0
  8 13  1  0
 12 13  2  0
  3 14  1  0
 14 15  1  1
 14 16  1  0
 15 16  1  0
 16 17  1  0
 16 18  1  0
M  END
