pyridine_urea_1479
     RDKit          3D

 19 20  0  0  0  0  0  0  0  0999 V2000
    8.8890    0.5140   21.3490 O   0  0  0  0  0  0  0  0  0  0  0  0
    8.0680   -0.3160   21.7170 C   0  0  0  0  0  0  0  0  0  0  0  0
    8.1020   -0.9370   22.9360 N   0  0  0  0  0  0  0  0  0  0  0  0
    9.0470   -1.9790   23.2130 C   0  0  0  0  0  0  0  0  0  0  0  0
   10.4120   -1.3600   23.2090 C   0  0  0  0  0  0  0  0  0  0  0  0
   11.2420   -1.7420   22.2240 C   0  0  0  0  0  0  0  0  0  0  0  0
   12.4700   -1.2000   22.1820 C   0  0  0  0  0  0  0  0  0  0  0  0
   13.4510   -1.7440   20.9420 Cl  0  0  0  0  0  0  0  0  0  0  0  0
   12.8980   -0.2580   23.1010 C   0  0  0  0  0  0  0  0  0  0  0  0
   12.0410    0.1310   24.1210 C   0  0  0  0  0  0  0  0  0  0  0  0
   10.7680   -0.4490   24.1770 C   0  0  0  0  0  0  0  0  0  0  0  0
    9.2890   -0.0770   25.6340 I   0  0  0  0  0  0  0  0  0  0  0  0
    6.9830   -0.7490   21.0090 N   0  0  0  0  0  0  0  0  0  0  0  0
    6.3820   -0.0420   19.9930 C   0  0  0  0  0  0  0  0  0  0  0  0
    5.1890    0.6420   20.2670 C   0  0  0  0  0  0  0  0  0  0  0  0
    4.5710    1.3720   19.2390 C   0  0  0  0  0  0  0  0  0  0  0  0
    5.2290    1.3770   17.9010 C   0  0  0  0  0  0  0  0  0  0  0  0
    6.3690    0.7020   17.6840 N   0  0  0  0  0  0  0  0  0  0  0  0
    6.9040    0.0210   18.7200 C   0  0  0  0  0  0  0  0  0  0  0  0
  1  2  2  0
  2  3  1  0
  3  4  1  0
  4  5  1  0
  5  6  2  0
  6  7  1  0
  7  8  1  0
  7  9  2  0
  9 10  1  0
  5 11  1  0
 10 11  2  0
 11 12  1  0
  2 13  1  0
 13 14  1  0
 14 15  2  0
 15 16  1  0
 16 17  2  0
 17 18  1  0
 14 19  1  0
 18 19  2  0
M  END
