pyridine_urea_1842
     RDKit          3D

 16 16  0  0  0  0  0  0  0  0999 V2000
   12.4850   -0.5990   25.1950 C   0  0  0  0  0  0  0  0  0  0  0  0
   12.3980   -1.2850   23.9150 C   0  0  0  0  0  0  0  0  0  0  0  0
   13.3300   -2.0740   23.2490 C   0  0  0  0  0  0  0  0  0  0  0  0
   11.0420   -1.0510   23.2640 C   0  0  0  0  0  0  0  0  0  0  0  0
   11.9510   -2.1130   21.9500 Br  0  0  0  0  0  0  0  0  0  0  0  0
   10.1160   -1.1960   22.2800 C   0  0  0  0  0  0  0  0  0  0  0  0
    8.9290   -0.4590   22.6100 N   0  0  0  0  0  0  0  0  0  0  0  0
    8.4310    0.3020   21.5980 C   0  0  0  0  0  0  0  0  0  0  0  0
    8.9620    1.3660   21.2370 O   0  0  0  0  0  0  0  0  0  0  0  0
    7.2360   -0.3000   21.0400 N   0  0  0  0  0  0  0  0  0  0  0  0
    6.5390    0.2040   20.0150 C   0  0  0  0  0  0  0  0  0  0  0  0
    5.2500    0.9880   20.2970 C   0  0  0  0  0  0  0  0  0  0  0  0
    4.5940    1.5070   19.2060 C   0  0  0  0  0  0  0  0  0  0  0  0
    5.1170    1.3000   17.9370 C   0  0  0  0  0  0  0  0  0  0  0  0
    6.2330    0.6080   17.6730 N   0  0  0  0  0  0  0  0  0  0  0  0
    6.9200    0.0750   18.6970 C   0  0  0  0  0  0  0  0  0  0  0  0
  1  2  1  0
  2  3  1  0
  2  4  2  3
  4  5  1  0
  4  6  1  0
  6  7  1  0
  7  8  1  0
  8  9  2  0
  8 10  1  0
 10 11  1  0
 11 12  2  0
 12 13  1  0
 13 14  2  0
 14 15  1  0
 11 16  1  0
 15 16  2  0
M  END
