pyridine_urea_1495
     RDKit          3D

 19 21  0  0  0  0  0  0  0  0999 V2000
    8.3230    1.8420   21.0790 O   0  0  0  0  0  0  0  0  0  0  0  0
    8.2780    0.6870   21.4660 C   0  0  0  0  0  0  0  0  0  0  0  0
    7.2110   -0.1310   21.2240 N   0  0  0  0  0  0  0  0  0  0  0  0
    6.5730    0.2640   20.0150 C   0  0  0  0  0  0  0  0  0  0  0  0
    5.3430    1.1560   20.2160 C   0  0  0  0  0  0  0  0  0  0  0  0
    4.6530    1.6380   19.1210 C   0  0  0  0  0  0  0  0  0  0  0  0
    5.1240    1.2820   17.8670 C   0  0  0  0  0  0  0  0  0  0  0  0
    6.2170    0.4730   17.7260 N   0  0  0  0  0  0  0  0  0  0  0  0
    6.9640   -0.0560   18.7770 C   0  0  0  0  0  0  0  0  0  0  0  0
    9.2750    0.0820   22.1000 N   0  0  0  0  0  0  0  0  0  0  0  0
   10.3200   -0.5510   22.5600 C   0  0  0  0  0  0  0  0  0  0  0  0
   10.9170   -1.2380   21.6300 C   0  0  0  0  0  0  0  0  0  0  0  0
   12.0230   -1.9910   21.8040 C   0  0  0  0  0  0  0  0  0  0  0  0
   12.5390   -2.0550   23.0410 C   0  0  0  0  0  0  0  0  0  0  0  0
   13.5940   -2.8100   23.2470 N   0  0  0  0  0  0  0  0  0  0  0  0
   13.9640   -2.7350   24.7720 S   0  0  0  0  0  0  0  0  0  0  0  0
   12.7820   -1.7040   25.0350 C   0  0  0  0  0  0  0  0  0  0  0  0
   11.8440   -1.2850   23.9790 C   0  0  0  0  0  0  0  0  0  0  0  0
   10.7650   -0.5360   23.7800 C   0  0  0  0  0  0  0  0  0  0  0  0
  1  2  2  0
  2  3  1  0
  3  4  1  0
  4  5  2  0
  5  6  1  0
  6  7  2  0
  7  8  1  0
  4  9  1  0
  8  9  2  0
  2 10  1  0
 10 11  1  0
 11 12  1  0
 12 13  2  0
 13 14  1  0
 14 15  2  0
 15 16  1  0
 16 17  1  0
 14 18  1  0
 17 18  2  0
 11 19  2  0
 18 19  1  0
M  END
