pyridine_urea_2694
     RDKit          3D

 23 24  0  0  0  0  0  0  0  0999 V2000
   13.7290   -2.6010   25.5620 C   0  0  0  0  0  0  0  0  0  0  0  0
   12.4110   -2.0590   25.4870 O   0  0  0  0  0  0  0  0  0  0  0  0
   12.0840   -1.8940   24.1310 C   0  0  0  0  0  0  0  0  0  0  0  0
   13.1950   -2.6360   23.3560 C   0  0  0  0  0  0  0  0  0  0  0  0
   13.1690   -2.6710   22.0480 C   0  0  0  0  0  0  0  0  0  0  0  0
   12.0960   -2.0040   21.4000 C   0  0  0  0  0  0  0  0  0  0  0  0
   11.1400   -1.3580   22.1130 C   0  0  0  0  0  0  0  0  0  0  0  0
   10.9280   -1.1610   23.6590 C   0  0  0  0  0  0  0  0  0  0  0  0
   10.0040   -0.5750   22.6670 C   0  0  2  0  0  0  0  0  0  0  0  0
   10.6540    0.7450   22.8100 C   0  0  0  0  0  0  0  0  0  0  0  0
   12.1520    0.4790   22.8650 C   0  0  0  0  0  0  0  0  0  0  0  0
   12.8660    1.7700   22.8650 C   0  0  0  0  0  0  0  0  0  0  0  0
   12.5430   -0.2610   24.1330 C   0  0  0  0  0  0  0  0  0  0  0  0
    8.5820   -0.5060   22.8230 N   0  0  0  0  0  0  0  0  0  0  0  0
    8.1050    0.1440   21.6970 C   0  0  0  0  0  0  0  0  0  0  0  0
    8.7040    1.3000   21.2160 O   0  0  0  0  0  0  0  0  0  0  0  0
    7.0290   -0.4850   21.1280 N   0  0  0  0  0  0  0  0  0  0  0  0
    6.3260    0.1260   20.0870 C   0  0  0  0  0  0  0  0  0  0  0  0
    5.1190    0.8050   20.2390 C   0  0  0  0  0  0  0  0  0  0  0  0
    4.5330    1.3910   19.1330 C   0  0  0  0  0  0  0  0  0  0  0  0
    5.1830    1.2780   17.8990 C   0  0  0  0  0  0  0  0  0  0  0  0
    6.3380    0.6230   17.7330 N   0  0  0  0  0  0  0  0  0  0  0  0
    6.8750    0.0640   18.8240 C   0  0  0  0  0  0  0  0  0  0  0  0
  1  2  1  0
  2  3  1  0
  3  4  2  0
  4  5  1  0
  5  6  2  0
  6  7  1  0
  3  8  1  0
  7  8  2  0
  8  9  1  0
  9 10  1  1
 10 11  1  0
 11 12  1  0
 11 13  1  0
  9 14  1  0
 14 15  1  0
 15 16  2  0
 15 17  1  0
 17 18  1  0
 18 19  2  0
 19 20  1  0
 20 21  2  0
 21 22  1  0
 18 23  1  0
 22 23  2  0
M  END
