pyridine_urea_15236
     RDKit          3D

 15 15  0  0  0  0  0  0  0  0999 V2000
   12.8120    0.6340   23.0240 C   0  0  0  0  0  0  0  0  0  0  0  0
   11.4330    0.8660   22.7480 O   0  0  0  0  0  0  0  0  0  0  0  0
   10.5440   -0.0780   23.3590 C   0  0  0  0  0  0  0  0  0  0  0  0
   10.3570   -1.3170   22.5280 C   0  0  2  0  0  0  0  0  0  0  0  0
   11.6970   -1.7940   21.9920 C   0  0  0  0  0  0  0  0  0  0  0  0
    9.4290   -1.2780   21.5400 N   0  0  0  0  0  0  0  0  0  0  0  0
    8.5810   -0.1940   21.4010 C   0  0  0  0  0  0  0  0  0  0  0  0
    8.9640    0.9630   21.5190 O   0  0  0  0  0  0  0  0  0  0  0  0
    7.2680   -0.6070   21.0700 N   0  0  0  0  0  0  0  0  0  0  0  0
    6.5010    0.0330   20.1100 C   0  0  0  0  0  0  0  0  0  0  0  0
    5.2040    0.8020   20.3830 C   0  0  0  0  0  0  0  0  0  0  0  0
    4.6090    1.3840   19.2570 C   0  0  0  0  0  0  0  0  0  0  0  0
    5.1890    1.2520   18.0020 C   0  0  0  0  0  0  0  0  0  0  0  0
    6.3230    0.5740   17.7640 N   0  0  0  0  0  0  0  0  0  0  0  0
    6.9400   -0.0130   18.8030 C   0  0  0  0  0  0  0  0  0  0  0  0
  1  2  1  0
  2  3  1  0
  3  4  1  0
  4  5  1  6
  4  6  1  0
  6  7  1  0
  7  8  2  0
  7  9  1  0
  9 10  1  0
 10 11  2  0
 11 12  1  0
 12 13  2  0
 13 14  1  0
 10 15  1  0
 14 15  2  0
M  END
