pyridine_urea_12063
     RDKit          3D

 23 24  0  0  0  0  0  0  0  0999 V2000
   10.2210    1.7800   22.5610 C   0  0  0  0  0  0  0  0  0  0  0  0
   10.0000    0.2940   22.5630 C   0  0  2  0  0  0  0  0  0  0  0  0
    8.6370   -0.1120   22.5210 N   0  0  0  0  0  0  0  0  0  0  0  0
    8.0470    0.3530   21.4310 C   0  0  0  0  0  0  0  0  0  0  0  0
    8.4550    1.3810   20.8900 O   0  0  0  0  0  0  0  0  0  0  0  0
    6.9950   -0.3940   21.0210 N   0  0  0  0  0  0  0  0  0  0  0  0
    6.3410    0.1850   19.9110 C   0  0  0  0  0  0  0  0  0  0  0  0
    5.1690    0.8860   20.0930 C   0  0  0  0  0  0  0  0  0  0  0  0
    4.5010    1.5180   19.0500 C   0  0  0  0  0  0  0  0  0  0  0  0
    5.0810    1.4110   17.7890 C   0  0  0  0  0  0  0  0  0  0  0  0
    6.2350    0.7040   17.6030 N   0  0  0  0  0  0  0  0  0  0  0  0
    6.8660    0.0880   18.6610 C   0  0  0  0  0  0  0  0  0  0  0  0
   10.5360   -0.2190   23.7770 C   0  0  0  0  0  0  0  0  0  0  0  0
   10.3060   -0.5670   24.9130 C   0  0  0  0  0  0  0  0  0  0  0  0
   11.6300   -0.6680   24.4880 C   0  0  0  0  0  0  0  0  0  0  0  0
   12.3310   -0.3140   23.1640 C   0  0  0  0  0  0  0  0  0  0  0  0
   13.2200   -0.7680   23.8770 C   0  0  0  0  0  0  0  0  0  0  0  0
   13.2480   -1.3930   25.4150 S   0  0  0  0  0  0  0  0  0  0  0  0
   13.1670   -2.9050   24.7110 C   0  0  0  0  0  0  0  0  0  0  0  0
   13.7590   -2.9250   23.4980 F   0  0  0  0  0  0  0  0  0  0  0  0
   11.8760   -3.2810   24.5200 F   0  0  0  0  0  0  0  0  0  0  0  0
   13.7720   -3.7700   25.5400 F   0  0  0  0  0  0  0  0  0  0  0  0
   11.8000   -0.6500   24.3150 C   0  0  0  0  0  0  0  0  0  0  0  0
  2  1  1  1
  2  3  1  0
  3  4  1  0
  4  5  2  0
  4  6  1  0
  6  7  1  0
  7  8  2  0
  8  9  1  0
  9 10  2  0
 10 11  1  0
  7 12  1  0
 11 12  2  0
  2 13  1  0
 13 14  2  0
 14 15  1  0
 15 16  2  0
 16 17  1  0
 17 18  1  0
 18 19  1  0
 19 20  1  0
 19 21  1  0
 19 22  1  0
 13 23  1  0
 17 23  2  0
M  END
