pyridine_urea_10656
     RDKit          3D

 21 22  0  0  0  0  0  0  0  0999 V2000
    7.7940    0.0040   26.4660 C   0  0  0  0  0  0  0  0  0  0  0  0
    8.7730   -1.1670   26.7070 C   0  0  0  0  0  0  0  0  0  0  0  0
    9.8660   -1.1200   25.7700 O   0  0  0  0  0  0  0  0  0  0  0  0
    9.4690   -1.0880   24.4720 C   0  0  0  0  0  0  0  0  0  0  0  0
   10.4820   -1.4100   23.2920 C   0  0  0  0  0  0  0  0  0  0  0  0
   12.0260   -1.2190   22.9610 C   0  0  0  0  0  0  0  0  0  0  0  0
   12.6830   -1.5810   21.9420 C   0  0  0  0  0  0  0  0  0  0  0  0
   11.8360   -2.1850   21.1760 C   0  0  0  0  0  0  0  0  0  0  0  0
   10.4540   -2.3280   21.5110 C   0  0  0  0  0  0  0  0  0  0  0  0
    9.6070   -1.9600   22.5700 C   0  0  0  0  0  0  0  0  0  0  0  0
    8.9780   -2.5580   21.6330 C   0  0  0  0  0  0  0  0  0  0  0  0
    8.5410   -1.5150   20.7710 N   0  0  0  0  0  0  0  0  0  0  0  0
    8.2150   -0.2190   21.3120 C   0  0  0  0  0  0  0  0  0  0  0  0
    9.1880    0.7200   21.7300 O   0  0  0  0  0  0  0  0  0  0  0  0
    6.8730   -0.0950   21.2760 N   0  0  0  0  0  0  0  0  0  0  0  0
    6.3020    0.3930   20.1160 C   0  0  0  0  0  0  0  0  0  0  0  0
    5.0250    1.1980   20.1730 C   0  0  0  0  0  0  0  0  0  0  0  0
    4.5390    1.6640   18.9940 C   0  0  0  0  0  0  0  0  0  0  0  0
    5.1740    1.4200   17.7950 C   0  0  0  0  0  0  0  0  0  0  0  0
    6.3050    0.6980   17.6960 N   0  0  0  0  0  0  0  0  0  0  0  0
    6.8370    0.2020   18.8440 C   0  0  0  0  0  0  0  0  0  0  0  0
  1  2  1  0
  2  3  1  0
  3  4  1  0
  4  5  1  0
  5  6  2  0
  6  7  1  0
  7  8  2  0
  8  9  1  0
  5 10  1  0
  9 10  2  0
 10 11  1  0
 11 12  1  0
 12 13  1  0
 13 14  2  0
 13 15  1  0
 15 16  1  0
 16 17  2  0
 17 18  1  0
 18 19  2  0
 19 20  1  0
 16 21  1  0
 20 21  2  0
M  END
