pyridine_urea_328
     RDKit          3D

 26 28  0  0  0  0  0  0  0  0999 V2000
    8.2980    1.9480   21.1270 O   0  0  0  0  0  0  0  0  0  0  0  0
    7.9700    0.8480   21.5540 C   0  0  0  0  0  0  0  0  0  0  0  0
    8.7240    0.1890   22.4190 N   0  0  0  0  0  0  0  0  0  0  0  0
    9.6970   -0.4200   21.6250 C   0  0  0  0  0  0  0  0  0  0  0  0
    9.9600   -1.7870   21.9450 C   0  0  0  0  0  0  0  0  0  0  0  0
   11.3490   -1.9930   22.2840 C   0  0  0  0  0  0  0  0  0  0  0  0
   12.2590   -1.9620   23.3200 C   0  0  0  0  0  0  0  0  0  0  0  0
   12.1290   -1.6620   24.7880 C   0  0  0  0  0  0  0  0  0  0  0  0
   10.7710   -1.3410   25.2280 C   0  0  0  0  0  0  0  0  0  0  0  0
    9.8500   -1.3450   24.3840 C   0  0  0  0  0  0  0  0  0  0  0  0
    8.5440   -0.9600   25.1420 C   0  0  0  0  0  0  0  0  0  0  0  0
    7.8740    0.0420   24.5080 F   0  0  0  0  0  0  0  0  0  0  0  0
    8.6650   -0.4970   26.4160 F   0  0  0  0  0  0  0  0  0  0  0  0
    7.6350   -1.9760   25.1930 F   0  0  0  0  0  0  0  0  0  0  0  0
   10.0690   -1.6170   23.1190 C   0  0  0  0  0  0  0  0  0  0  0  0
    9.0540   -2.7260   21.2900 C   0  0  0  0  0  0  0  0  0  0  0  0
    8.3280   -3.2920   22.3440 C   0  0  0  0  0  0  0  0  0  0  0  0
    9.0310   -3.4400   23.6940 C   0  0  0  0  0  0  0  0  0  0  0  0
    9.1070   -2.0290   23.2050 C   0  0  0  0  0  0  0  0  0  0  0  0
    6.8820    0.1120   21.1900 N   0  0  0  0  0  0  0  0  0  0  0  0
    6.2610    0.5210   20.0990 C   0  0  0  0  0  0  0  0  0  0  0  0
    5.0930    1.2690   20.1100 C   0  0  0  0  0  0  0  0  0  0  0  0
    4.5210    1.7020   18.9350 C   0  0  0  0  0  0  0  0  0  0  0  0
    5.1420    1.3700   17.7500 C   0  0  0  0  0  0  0  0  0  0  0  0
    6.2500    0.6450   17.6170 N   0  0  0  0  0  0  0  0  0  0  0  0
    6.8290    0.2010   18.8790 C   0  0  0  0  0  0  0  0  0  0  0  0
  1  2  2  0
  2  3  1  0
  3  4  1  0
  5  4  1  0
  5  6  1  0
  6  7  2  0
  7  8  1  0
  8  9  2  0
  9 10  1  0
 10 11  1  0
 11 12  1  0
 11 13  1  0
 11 14  1  0
  6 15  1  0
 10 15  2  0
  5 16  1  0
 16 17  1  0
 17 18  1  0
  5 19  1  0
 18 19  1  0
  2 20  1  0
 20 21  1  0
 21 22  2  0
 22 23  1  0
 23 24  2  0
 24 25  1  0
 21 26  1  0
 25 26  2  0
M  END
