pyridine_urea_10126
     RDKit          3D

 23 25  0  0  0  0  0  0  0  0999 V2000
    9.0930   -0.8640   20.6980 O   0  0  0  0  0  0  0  0  0  0  0  0
    8.4730   -0.9180   21.6570 C   0  0  0  0  0  0  0  0  0  0  0  0
    9.1940   -1.0520   22.8360 N   0  0  0  0  0  0  0  0  0  0  0  0
   10.1890   -0.0550   22.9240 C   0  0  0  0  0  0  0  0  0  0  0  0
    9.6140    1.1610   23.0970 C   0  0  0  0  0  0  0  0  0  0  0  0
   10.0820    2.4730   23.2120 C   0  0  0  0  0  0  0  0  0  0  0  0
   11.4720    2.2930   23.1010 C   0  0  0  0  0  0  0  0  0  0  0  0
   11.9270    3.6450   23.1940 C   0  0  0  0  0  0  0  0  0  0  0  0
   11.2960    4.5040   24.3480 C   0  0  0  0  0  0  0  0  0  0  0  0
   10.3660    5.4350   23.9390 O   0  0  0  0  0  0  0  0  0  0  0  0
   13.2890    3.9520   22.9190 C   0  0  0  0  0  0  0  0  0  0  0  0
   13.4570    4.8600   21.9160 C   0  0  0  0  0  0  0  0  0  0  0  0
   12.2450    5.0730   21.4570 C   0  0  0  0  0  0  0  0  0  0  0  0
   11.3760    4.2710   22.0950 C   0  0  0  0  0  0  0  0  0  0  0  0
   12.2190    1.0780   22.9290 C   0  0  0  0  0  0  0  0  0  0  0  0
   11.5710   -0.1510   22.8360 C   0  0  0  0  0  0  0  0  0  0  0  0
    7.1000   -0.7590   21.6020 N   0  0  0  0  0  0  0  0  0  0  0  0
    6.4880   -0.1320   20.3910 C   0  0  0  0  0  0  0  0  0  0  0  0
    5.3140    0.6140   20.5510 C   0  0  0  0  0  0  0  0  0  0  0  0
    4.6900    1.2400   19.4650 C   0  0  0  0  0  0  0  0  0  0  0  0
    5.2450    1.1240   18.1970 C   0  0  0  0  0  0  0  0  0  0  0  0
    6.3690    0.4230   17.9640 N   0  0  0  0  0  0  0  0  0  0  0  0
    6.9750   -0.2040   19.0800 C   0  0  0  0  0  0  0  0  0  0  0  0
  1  2  2  0
  2  3  1  0
  3  4  1  0
  4  5  2  0
  5  6  1  0
  6  7  2  0
  7  8  1  0
  8  9  1  0
  9 10  1  0
  8 11  1  0
 11 12  1  0
 12 13  1  0
  8 14  1  0
 13 14  1  0
  7 15  1  0
  4 16  1  0
 15 16  2  0
  2 17  1  0
 17 18  1  0
 18 19  2  0
 19 20  1  0
 20 21  2  0
 21 22  1  0
 18 23  1  0
 22 23  2  0
M  END
