pyridine_urea_2230
     RDKit          3D

 27 29  0  0  0  0  0  0  0  0999 V2000
   12.4730    3.9910   21.8600 C   0  0  0  0  0  0  0  0  0  0  0  0
   11.7300    2.8540   23.0900 S   0  0  0  0  0  0  0  0  0  0  0  0
   12.3680    1.2230   22.5660 C   0  0  0  0  0  0  0  0  0  0  0  0
   12.9030    2.5050   22.7960 C   0  0  0  0  0  0  0  0  0  0  0  0
   11.4700    3.1130   23.2620 C   0  0  0  0  0  0  0  0  0  0  0  0
   10.0470    2.2670   23.3090 C   0  0  0  0  0  0  0  0  0  0  0  0
    9.7880    0.8580   22.9330 C   0  0  0  0  0  0  0  0  0  0  0  0
   10.1640   -0.4040   22.4520 C   0  0  2  0  0  0  0  0  0  0  0  0
    8.9020   -1.0170   22.1990 N   0  0  0  0  0  0  0  0  0  0  0  0
    8.1130   -0.1980   21.4670 C   0  0  0  0  0  0  0  0  0  0  0  0
    8.4860    0.9250   21.1470 O   0  0  0  0  0  0  0  0  0  0  0  0
    6.9180   -0.7180   21.1050 N   0  0  0  0  0  0  0  0  0  0  0  0
    6.2950   -0.0450   20.0710 C   0  0  0  0  0  0  0  0  0  0  0  0
    5.0820    0.6270   20.1890 C   0  0  0  0  0  0  0  0  0  0  0  0
    4.4850    1.3280   19.1270 C   0  0  0  0  0  0  0  0  0  0  0  0
    5.1310    1.3620   17.8780 C   0  0  0  0  0  0  0  0  0  0  0  0
    6.2930    0.7450   17.6560 N   0  0  0  0  0  0  0  0  0  0  0  0
    6.8510    0.0790   18.6720 C   0  0  0  0  0  0  0  0  0  0  0  0
   10.9750   -1.1800   23.1640 C   0  0  0  0  0  0  0  0  0  0  0  0
   10.6240   -2.3790   23.7620 C   0  0  0  0  0  0  0  0  0  0  0  0
   11.5410   -3.1510   24.5130 C   0  0  0  0  0  0  0  0  0  0  0  0
   12.8870   -2.8310   24.7570 C   0  0  0  0  0  0  0  0  0  0  0  0
   13.6820   -3.6000   25.4940 F   0  0  0  0  0  0  0  0  0  0  0  0
   13.3640   -1.5460   24.1190 C   0  0  0  0  0  0  0  0  0  0  0  0
   12.2610   -0.9460   23.4170 C   0  0  0  0  0  0  0  0  0  0  0  0
   11.9590   -2.1240   24.0330 F   0  0  0  0  0  0  0  0  0  0  0  0
   10.9620    1.3820   22.8680 C   0  0  0  0  0  0  0  0  0  0  0  0
  1  2  1  0
  2  3  1  0
  3  4  2  0
  4  5  1  0
  5  6  2  0
  6  7  1  0
  7  8  1  0
  8  9  1  1
  9 10  1  0
 10 11  2  0
 10 12  1  0
 12 13  1  0
 13 14  2  0
 14 15  1  0
 15 16  2  0
 16 17  1  0
 13 18  1  0
 17 18  2  0
  8 19  1  0
 19 20  2  0
 20 21  1  0
 21 22  2  0
 22 23  1  0
 22 24  1  0
 19 25  1  0
 24 25  2  0
 25 26  1  0
  3 27  1  0
  7 27  2  0
M  END
