pyridine_urea_8447
     RDKit          3D

 22 24  0  0  0  0  0  0  0  0999 V2000
   10.1340   -2.6000   23.5400 C   0  0  0  0  0  0  0  0  0  0  0  0
    9.0850   -2.1050   22.5900 C   0  0  2  0  0  0  0  0  0  0  0  0
    8.9720   -0.6670   22.7950 N   0  0  0  0  0  0  0  0  0  0  0  0
    8.4720    0.0860   21.6140 C   0  0  0  0  0  0  0  0  0  0  0  0
    9.0510    1.1490   21.2510 O   0  0  0  0  0  0  0  0  0  0  0  0
    7.3610   -0.4870   21.0540 N   0  0  0  0  0  0  0  0  0  0  0  0
    6.6150    0.1120   20.0360 C   0  0  0  0  0  0  0  0  0  0  0  0
    5.4780    0.8200   20.3590 C   0  0  0  0  0  0  0  0  0  0  0  0
    4.6840    1.4870   19.2570 C   0  0  0  0  0  0  0  0  0  0  0  0
    5.1530    1.3470   17.9650 C   0  0  0  0  0  0  0  0  0  0  0  0
    6.2620    0.6400   17.6870 N   0  0  0  0  0  0  0  0  0  0  0  0
    6.9550    0.0490   18.6990 C   0  0  0  0  0  0  0  0  0  0  0  0
    7.7050   -2.8470   22.7930 C   0  0  0  0  0  0  0  0  0  0  0  0
    7.5100   -3.6990   23.8050 N   0  0  0  0  0  0  0  0  0  0  0  0
    6.2400   -4.1620   23.7000 C   0  0  0  0  0  0  0  0  0  0  0  0
    5.5820   -5.0740   24.5370 C   0  0  0  0  0  0  0  0  0  0  0  0
    5.6050   -5.0010   25.9360 C   0  0  0  0  0  0  0  0  0  0  0  0
    4.8790   -6.0070   26.5340 C   0  0  0  0  0  0  0  0  0  0  0  0
    4.2890   -6.8640   25.6390 C   0  0  0  0  0  0  0  0  0  0  0  0
    4.6320   -6.4310   24.0060 S   0  0  0  0  0  0  0  0  0  0  0  0
    5.6350   -3.6010   22.6200 N   0  0  0  0  0  0  0  0  0  0  0  0
    6.5530   -2.7920   22.0700 N   0  0  0  0  0  0  0  0  0  0  0  0
  2  1  1  1
  2  3  1  0
  3  4  1  0
  4  5  2  0
  4  6  1  0
  6  7  1  0
  7  8  2  0
  8  9  1  0
  9 10  2  0
 10 11  1  0
  7 12  1  0
 11 12  2  0
  2 13  1  0
 13 14  2  0
 14 15  1  0
 15 16  1  0
 16 17  2  0
 17 18  1  0
 18 19  2  0
 16 20  1  0
 19 20  1  0
 15 21  2  0
 13 22  1  0
 21 22  1  0
M  END
