pyridine_urea_11845
     RDKit          3D

 24 26  0  0  0  0  0  0  0  0999 V2000
    8.7140    0.4970   21.2840 O   0  0  0  0  0  0  0  0  0  0  0  0
    8.1280   -0.5570   21.5230 C   0  0  0  0  0  0  0  0  0  0  0  0
    6.9170   -0.8980   20.9930 N   0  0  0  0  0  0  0  0  0  0  0  0
    6.3270   -0.1560   19.9700 C   0  0  0  0  0  0  0  0  0  0  0  0
    5.1350    0.5290   20.2050 C   0  0  0  0  0  0  0  0  0  0  0  0
    4.5610    1.2810   19.1800 C   0  0  0  0  0  0  0  0  0  0  0  0
    5.1990    1.3220   17.9590 C   0  0  0  0  0  0  0  0  0  0  0  0
    6.3420    0.6670   17.7140 N   0  0  0  0  0  0  0  0  0  0  0  0
    6.8730   -0.0540   18.7160 C   0  0  0  0  0  0  0  0  0  0  0  0
    8.6920   -1.4820   22.3700 N   0  0  0  0  0  0  0  0  0  0  0  0
   10.0110   -1.0370   22.7250 C   0  0  0  0  0  0  0  0  0  0  0  0
   11.1580   -1.5540   21.8620 C   0  0  0  0  0  0  0  0  0  0  0  0
   12.3970   -1.0900   22.1590 C   0  0  0  0  0  0  0  0  0  0  0  0
   13.4620   -1.4850   21.4530 F   0  0  0  0  0  0  0  0  0  0  0  0
   12.5090   -0.2060   23.1900 C   0  0  0  0  0  0  0  0  0  0  0  0
   13.7110    0.2170   23.4020 F   0  0  0  0  0  0  0  0  0  0  0  0
   11.4990    0.2680   24.0020 C   0  0  0  0  0  0  0  0  0  0  0  0
   10.2040   -0.1670   23.7780 C   0  0  0  0  0  0  0  0  0  0  0  0
    9.0570    0.1350   24.4550 N   0  0  0  0  0  0  0  0  0  0  0  0
    8.2220    1.1620   24.1560 C   0  0  0  0  0  0  0  0  0  0  0  0
    7.4350    1.7520   25.3040 C   0  0  0  0  0  0  0  0  0  0  0  0
    6.8660    0.7200   26.1180 O   0  0  0  0  0  0  0  0  0  0  0  0
    7.7800   -0.3850   26.2740 C   0  0  0  0  0  0  0  0  0  0  0  0
    9.0690   -0.1140   25.7960 C   0  0  0  0  0  0  0  0  0  0  0  0
  1  2  2  0
  2  3  1  0
  3  4  1  0
  4  5  2  0
  5  6  1  0
  6  7  2  0
  7  8  1  0
  4  9  1  0
  8  9  2  0
  2 10  1  0
 10 11  1  0
 11 12  2  0
 12 13  1  0
 13 14  1  0
 13 15  2  0
 15 16  1  0
 15 17  1  0
 11 18  1  0
 17 18  2  0
 18 19  1  0
 19 20  1  0
 20 21  1  0
 21 22  1  0
 22 23  1  0
 19 24  1  0
 23 24  1  0
M  END
