pyridine_urea_5069
     RDKit          3D

 20 21  0  0  0  0  0  0  0  0999 V2000
    9.0320    0.6090   21.3970 O   0  0  0  0  0  0  0  0  0  0  0  0
    8.2910   -0.3320   21.6640 C   0  0  0  0  0  0  0  0  0  0  0  0
    7.0960   -0.6560   21.0620 N   0  0  0  0  0  0  0  0  0  0  0  0
    6.4680    0.0200   20.0090 C   0  0  0  0  0  0  0  0  0  0  0  0
    5.3050    0.7560   20.2660 C   0  0  0  0  0  0  0  0  0  0  0  0
    4.6670    1.4410   19.2270 C   0  0  0  0  0  0  0  0  0  0  0  0
    5.2220    1.3600   17.9660 C   0  0  0  0  0  0  0  0  0  0  0  0
    6.3360    0.6550   17.7030 N   0  0  0  0  0  0  0  0  0  0  0  0
    6.9270    0.0070   18.7180 C   0  0  0  0  0  0  0  0  0  0  0  0
    8.5680   -1.2380   22.6680 N   0  0  0  0  0  0  0  0  0  0  0  0
    7.4720   -2.1190   23.0910 C   0  0  2  0  0  0  0  0  0  0  0  0
    6.6070   -1.3810   24.1360 C   0  0  0  0  0  0  0  0  0  0  0  0
    6.7910   -1.6370   25.4340 N   0  0  0  0  0  0  0  0  0  0  0  0
    5.9160   -0.8740   26.2570 C   0  0  0  0  0  0  0  0  0  0  0  0
    5.0950   -0.0570   25.4700 C   0  0  0  0  0  0  0  0  0  0  0  0
    5.3980   -0.2330   23.7690 S   0  0  0  0  0  0  0  0  0  0  0  0
    7.6940   -3.4410   23.4650 C   0  0  0  0  0  0  0  0  0  0  0  0
    6.9280   -3.7880   24.5240 F   0  0  0  0  0  0  0  0  0  0  0  0
    7.3990   -4.3180   22.4910 F   0  0  0  0  0  0  0  0  0  0  0  0
    8.9830   -3.6400   23.8100 F   0  0  0  0  0  0  0  0  0  0  0  0
  1  2  2  0
  2  3  1  0
  3  4  1  0
  4  5  2  0
  5  6  1  0
  6  7  2  0
  7  8  1  0
  4  9  1  0
  8  9  2  0
  2 10  1  0
 11 10  1  1
 11 12  1  0
 12 13  2  0
 13 14  1  0
 14 15  2  0
 12 16  1  0
 15 16  1  0
 11 17  1  0
 17 18  1  0
 17 19  1  0
 17 20  1  0
M  END
