pyridine_urea_6942
     RDKit          3D

 21 22  0  0  0  0  0  0  0  0999 V2000
    5.5100   -4.1150   23.0010 O   0  0  0  0  0  0  0  0  0  0  0  0
    6.6380   -4.1780   23.4840 C   0  0  0  0  0  0  0  0  0  0  0  0
    6.9000   -4.9050   24.7940 C   0  0  0  0  0  0  0  0  0  0  0  0
    6.4960   -4.3210   25.9950 C   0  0  0  0  0  0  0  0  0  0  0  0
    6.0790   -5.2600   26.9830 C   0  0  0  0  0  0  0  0  0  0  0  0
    7.1250   -5.5880   27.8290 C   0  0  0  0  0  0  0  0  0  0  0  0
    8.1320   -4.6870   27.7010 C   0  0  0  0  0  0  0  0  0  0  0  0
    7.7440   -3.6580   26.6390 C   0  0  0  0  0  0  0  0  0  0  0  0
    7.7770   -3.6230   22.9160 N   0  0  0  0  0  0  0  0  0  0  0  0
    8.6420   -2.7440   23.5580 C   0  0  0  0  0  0  0  0  0  0  0  0
    9.2910   -2.0720   22.5100 C   0  0  0  0  0  0  0  0  0  0  0  0
    9.1150   -0.6250   22.6100 N   0  0  0  0  0  0  0  0  0  0  0  0
    8.4840    0.1110   21.5780 C   0  0  0  0  0  0  0  0  0  0  0  0
    8.9100    1.2110   21.1880 O   0  0  0  0  0  0  0  0  0  0  0  0
    7.3810   -0.5420   21.1380 N   0  0  0  0  0  0  0  0  0  0  0  0
    6.6510    0.0790   20.0470 C   0  0  0  0  0  0  0  0  0  0  0  0
    5.4440    0.9100   20.3830 C   0  0  0  0  0  0  0  0  0  0  0  0
    4.7600    1.5070   19.3060 C   0  0  0  0  0  0  0  0  0  0  0  0
    5.1890    1.3310   18.0020 C   0  0  0  0  0  0  0  0  0  0  0  0
    6.2730    0.5720   17.7350 N   0  0  0  0  0  0  0  0  0  0  0  0
    7.0140   -0.0590   18.7240 C   0  0  0  0  0  0  0  0  0  0  0  0
  1  2  2  0
  2  3  1  0
  3  4  1  0
  4  5  1  0
  5  6  1  0
  6  7  1  0
  4  8  1  0
  7  8  1  0
  2  9  1  0
  9 10  1  0
 10 11  1  0
 11 12  1  0
 12 13  1  0
 13 14  2  0
 13 15  1  0
 15 16  1  0
 16 17  2  0
 17 18  1  0
 18 19  2  0
 19 20  1  0
 16 21  1  0
 20 21  2  0
M  END
