pyridine_urea_7883
     RDKit          3D

 27 29  0  0  0  0  0  0  0  0999 V2000
    8.8980    1.3810   21.1780 O   0  0  0  0  0  0  0  0  0  0  0  0
    8.5400    0.2450   21.4930 C   0  0  0  0  0  0  0  0  0  0  0  0
    9.2240   -0.5540   22.3720 N   0  0  0  0  0  0  0  0  0  0  0  0
   10.6310   -0.6530   22.3680 C   0  0  0  0  0  0  0  0  0  0  0  0
   11.3460   -0.8620   23.5700 C   0  0  0  0  0  0  0  0  0  0  0  0
   11.3080    0.1940   24.4260 C   0  0  0  0  0  0  0  0  0  0  0  0
   12.3850    0.3930   23.6000 C   0  0  0  0  0  0  0  0  0  0  0  0
   12.4990   -0.6970   22.7260 C   0  0  0  0  0  0  0  0  0  0  0  0
   13.4850   -0.7820   21.7950 F   0  0  0  0  0  0  0  0  0  0  0  0
   11.5520   -1.7630   22.8110 C   0  0  0  0  0  0  0  0  0  0  0  0
   10.3680   -1.7970   23.8460 C   0  0  0  0  0  0  0  0  0  0  0  0
    9.4680   -2.9470   23.8510 O   0  0  0  0  0  0  0  0  0  0  0  0
    8.0650   -2.6430   23.9310 C   0  0  0  0  0  0  0  0  0  0  0  0
    7.3130   -3.5420   23.1520 C   0  0  0  0  0  0  0  0  0  0  0  0
    7.5160   -4.9260   23.2690 C   0  0  0  0  0  0  0  0  0  0  0  0
    6.7790   -5.8260   22.4970 C   0  0  0  0  0  0  0  0  0  0  0  0
    5.8440   -5.3070   21.6170 C   0  0  0  0  0  0  0  0  0  0  0  0
    5.6030   -3.9500   21.4660 C   0  0  0  0  0  0  0  0  0  0  0  0
    6.3480   -3.0600   22.2440 C   0  0  0  0  0  0  0  0  0  0  0  0
   10.2730   -0.6850   24.7220 C   0  0  0  0  0  0  0  0  0  0  0  0
    7.4110   -0.3820   21.0200 N   0  0  0  0  0  0  0  0  0  0  0  0
    6.5670    0.1950   20.0620 C   0  0  0  0  0  0  0  0  0  0  0  0
    5.3850    0.8880   20.3330 C   0  0  0  0  0  0  0  0  0  0  0  0
    4.6520    1.4380   19.2690 C   0  0  0  0  0  0  0  0  0  0  0  0
    5.1510    1.2570   18.0060 C   0  0  0  0  0  0  0  0  0  0  0  0
    6.2660    0.5920   17.6990 N   0  0  0  0  0  0  0  0  0  0  0  0
    6.9450    0.0760   18.7370 C   0  0  0  0  0  0  0  0  0  0  0  0
  1  2  2  0
  2  3  1  0
  3  4  1  0
  4  5  1  0
  5  6  1  0
  6  7  2  0
  7  8  1  0
  8  9  1  0
  8 10  2  0
 10 11  1  0
 11 12  1  0
 12 13  1  0
 13 14  1  0
 14 15  2  0
 15 16  1  0
 16 17  2  0
 17 18  1  0
 14 19  1  0
 18 19  2  0
  6 20  1  0
 11 20  2  0
  2 21  1  0
 21 22  1  0
 22 23  2  0
 23 24  1  0
 24 25  2  0
 25 26  1  0
 22 27  1  0
 26 27  2  0
M  END
