pyridine_urea_4179
     RDKit          3D

 25 27  0  0  0  0  0  0  0  0999 V2000
    8.9360   -2.3360   21.8560 C   0  0  0  0  0  0  0  0  0  0  0  0
   10.1710   -2.8480   21.3810 O   0  0  0  0  0  0  0  0  0  0  0  0
   11.2780   -2.0530   21.5320 C   0  0  0  0  0  0  0  0  0  0  0  0
   12.4600   -2.2400   20.9790 C   0  0  0  0  0  0  0  0  0  0  0  0
   13.4090   -1.3870   21.2480 C   0  0  0  0  0  0  0  0  0  0  0  0
   13.1040   -0.3490   22.1000 C   0  0  0  0  0  0  0  0  0  0  0  0
   11.9340    0.0720   22.7950 C   0  0  0  0  0  0  0  0  0  0  0  0
   11.0590   -0.9930   22.3430 C   0  0  0  0  0  0  0  0  0  0  0  0
    9.6470   -0.9520   22.8880 C   0  0  2  0  0  0  0  0  0  0  0  0
    8.7750    0.1240   22.6210 N   0  0  0  0  0  0  0  0  0  0  0  0
    8.2900    0.5610   21.4750 C   0  0  0  0  0  0  0  0  0  0  0  0
    8.8140    1.5620   20.9990 O   0  0  0  0  0  0  0  0  0  0  0  0
    7.2560   -0.1510   20.9710 N   0  0  0  0  0  0  0  0  0  0  0  0
    6.4540    0.3710   19.9840 C   0  0  0  0  0  0  0  0  0  0  0  0
    5.2770    1.0670   20.1980 C   0  0  0  0  0  0  0  0  0  0  0  0
    4.5870    1.5660   19.1130 C   0  0  0  0  0  0  0  0  0  0  0  0
    5.1120    1.3420   17.8620 C   0  0  0  0  0  0  0  0  0  0  0  0
    6.2350    0.6620   17.6270 N   0  0  0  0  0  0  0  0  0  0  0  0
    6.8770    0.1930   18.6900 C   0  0  0  0  0  0  0  0  0  0  0  0
   10.4100   -0.7370   24.0510 C   0  0  0  0  0  0  0  0  0  0  0  0
    9.5960   -0.6360   24.9590 C   0  0  0  0  0  0  0  0  0  0  0  0
   10.6830   -0.4620   25.8590 C   0  0  0  0  0  0  0  0  0  0  0  0
   12.2180   -0.4630   25.4430 C   0  0  0  0  0  0  0  0  0  0  0  0
   12.6860   -0.6320   24.0970 C   0  0  0  0  0  0  0  0  0  0  0  0
   11.5370   -0.6140   24.5400 C   0  0  0  0  0  0  0  0  0  0  0  0
  1  2  1  0
  2  3  1  0
  3  4  2  0
  4  5  1  0
  5  6  2  0
  6  7  1  0
  3  8  1  0
  7  8  2  0
  8  9  1  0
  9 10  1  6
 10 11  1  0
 11 12  2  0
 11 13  1  0
 13 14  1  0
 14 15  2  0
 15 16  1  0
 16 17  2  0
 17 18  1  0
 14 19  1  0
 18 19  2  0
  9 20  1  0
 20 21  2  0
 21 22  1  0
 22 23  2  0
 23 24  1  0
 20 25  1  0
 24 25  2  0
M  END
