pyridine_urea_11088
     RDKit          3D

 18 18  0  0  0  0  0  0  0  0999 V2000
    8.0290   -0.1020   26.6090 C   0  0  0  0  0  0  0  0  0  0  0  0
    8.3200    0.5620   25.4370 N   0  0  0  0  0  0  0  0  0  0  0  0
    7.7160    1.8530   25.1450 C   0  0  0  0  0  0  0  0  0  0  0  0
    9.7250    0.4120   25.1100 C   0  0  0  0  0  0  0  0  0  0  0  0
   10.5200   -0.5900   25.7290 O   0  0  0  0  0  0  0  0  0  0  0  0
   10.2270    1.1560   24.2850 O   0  0  0  0  0  0  0  0  0  0  0  0
   10.8740    0.5050   23.3070 C   0  0  0  0  0  0  0  0  0  0  0  0
   10.4200   -0.6570   22.7110 C   0  0  0  0  0  0  0  0  0  0  0  0
    9.1110   -0.8380   22.4240 N   0  0  0  0  0  0  0  0  0  0  0  0
    8.5290    0.0290   21.5430 C   0  0  0  0  0  0  0  0  0  0  0  0
    9.0300    1.1260   21.2540 O   0  0  0  0  0  0  0  0  0  0  0  0
    7.3430   -0.4840   21.0720 N   0  0  0  0  0  0  0  0  0  0  0  0
    6.5290    0.1560   20.0190 C   0  0  0  0  0  0  0  0  0  0  0  0
    5.4240    0.8010   20.4960 C   0  0  0  0  0  0  0  0  0  0  0  0
    4.7410    1.4060   19.2840 C   0  0  0  0  0  0  0  0  0  0  0  0
    5.1720    1.3060   17.9840 C   0  0  0  0  0  0  0  0  0  0  0  0
    6.2590    0.6380   17.6650 N   0  0  0  0  0  0  0  0  0  0  0  0
    6.9010    0.0860   18.6890 C   0  0  0  0  0  0  0  0  0  0  0  0
  1  2  1  0
  2  3  1  0
  2  4  1  0
  4  5  2  0
  4  6  1  0
  6  7  1  0
  7  8  1  0
  8  9  1  0
  9 10  1  0
 10 11  2  0
 10 12  1  0
 12 13  1  0
 13 14  2  0
 14 15  1  0
 15 16  2  0
 16 17  1  0
 13 18  1  0
 17 18  2  0
M  END
