pyridine_urea_6338
     RDKit          3D

 23 25  0  0  0  0  0  0  0  0999 V2000
   13.1920    5.6290   21.8030 C   0  0  0  0  0  0  0  0  0  0  0  0
   12.9530    5.2920   23.1070 N   0  0  0  0  0  0  0  0  0  0  0  0
   12.3120    6.3130   23.9320 C   0  0  0  0  0  0  0  0  0  0  0  0
   12.2410    4.0460   23.0470 C   0  0  0  0  0  0  0  0  0  0  0  0
   10.7930    4.2190   23.1670 C   0  0  0  0  0  0  0  0  0  0  0  0
   10.0990    3.0990   23.0800 C   0  0  0  0  0  0  0  0  0  0  0  0
   10.7040    1.7240   22.8800 C   0  0  0  0  0  0  0  0  0  0  0  0
    9.7680    0.6670   22.7630 C   0  0  0  0  0  0  0  0  0  0  0  0
   10.1730   -0.5450   22.5500 C   0  0  0  0  0  0  0  0  0  0  0  0
    9.0860   -1.3460   22.3740 N   0  0  0  0  0  0  0  0  0  0  0  0
    8.1980   -0.6480   21.4720 C   0  0  0  0  0  0  0  0  0  0  0  0
    8.5160    0.4600   21.0630 O   0  0  0  0  0  0  0  0  0  0  0  0
    7.0360   -1.2100   21.0970 N   0  0  0  0  0  0  0  0  0  0  0  0
    6.3660   -0.4050   20.1940 C   0  0  0  0  0  0  0  0  0  0  0  0
    5.1830    0.2970   20.4550 C   0  0  0  0  0  0  0  0  0  0  0  0
    4.6160    1.0810   19.4560 C   0  0  0  0  0  0  0  0  0  0  0  0
    5.2870    1.1620   18.1130 C   0  0  0  0  0  0  0  0  0  0  0  0
    6.4240    0.4960   17.8340 N   0  0  0  0  0  0  0  0  0  0  0  0
    6.9420   -0.2600   18.8400 C   0  0  0  0  0  0  0  0  0  0  0  0
   11.6940   -0.8430   22.4920 C   0  0  0  0  0  0  0  0  0  0  0  0
   12.5860    0.2610   22.6290 C   0  0  0  0  0  0  0  0  0  0  0  0
   12.0900    1.5790   22.8000 C   0  0  0  0  0  0  0  0  0  0  0  0
   12.8610    2.7580   22.8750 C   0  0  0  0  0  0  0  0  0  0  0  0
  1  2  1  0
  2  3  1  0
  2  4  1  0
  4  5  2  0
  5  6  1  0
  6  7  2  0
  7  8  1  0
  8  9  2  0
  9 10  1  0
 10 11  1  0
 11 12  2  0
 11 13  1  0
 13 14  1  0
 14 15  2  0
 15 16  1  0
 16 17  2  0
 17 18  1  0
 14 19  1  0
 18 19  2  0
  9 20  1  0
 20 21  2  0
  7 22  1  0
 21 22  1  0
  4 23  1  0
 22 23  2  0
M  END
