pyridine_urea_286
     RDKit          3D

 18 19  0  0  0  0  0  0  0  0999 V2000
   12.3300   -0.4290   24.7070 C   0  0  0  0  0  0  0  0  0  0  0  0
   12.6600   -0.3230   23.5940 C   0  0  0  0  0  0  0  0  0  0  0  0
   13.2130    0.3610   22.4130 C   0  0  0  0  0  0  0  0  0  0  0  0
   13.7220   -1.3220   23.7640 O   0  0  0  0  0  0  0  0  0  0  0  0
   12.9950   -2.4760   24.2320 C   0  0  0  0  0  0  0  0  0  0  0  0
   11.7700   -2.2490   23.7400 C   0  0  0  0  0  0  0  0  0  0  0  0
   11.5180   -0.9350   22.9800 C   0  0  1  0  0  0  0  0  0  0  0  0
   10.2100   -0.2930   23.2000 C   0  0  0  0  0  0  0  0  0  0  0  0
    9.1930   -0.8160   22.3090 N   0  0  0  0  0  0  0  0  0  0  0  0
    8.5290    0.0570   21.4760 C   0  0  0  0  0  0  0  0  0  0  0  0
    8.9610    1.1860   21.2100 O   0  0  0  0  0  0  0  0  0  0  0  0
    7.3530   -0.4900   21.0140 N   0  0  0  0  0  0  0  0  0  0  0  0
    6.5450    0.1310   20.0540 C   0  0  0  0  0  0  0  0  0  0  0  0
    5.3780    0.8380   20.2830 C   0  0  0  0  0  0  0  0  0  0  0  0
    4.6610    1.4320   19.2600 C   0  0  0  0  0  0  0  0  0  0  0  0
    5.1410    1.3050   17.9800 C   0  0  0  0  0  0  0  0  0  0  0  0
    6.2640    0.6200   17.6990 N   0  0  0  0  0  0  0  0  0  0  0  0
    6.9300    0.0540   18.7300 C   0  0  0  0  0  0  0  0  0  0  0  0
  2  1  1  0
  2  3  1  0
  2  4  1  0
  4  5  1  0
  5  6  1  0
  2  7  1  0
  6  7  1  0
  7  8  1  1
  8  9  1  0
  9 10  1  0
 10 11  2  0
 10 12  1  0
 12 13  1  0
 13 14  2  0
 14 15  1  0
 15 16  2  0
 16 17  1  0
 13 18  1  0
 17 18  2  0
M  END
