pyridine_urea_4502
     RDKit          3D

 23 24  0  0  0  0  0  0  0  0999 V2000
   13.0630    0.2470   23.0020 C   0  0  0  0  0  0  0  0  0  0  0  0
   13.2700   -1.1110   22.9580 N   0  0  0  0  0  0  0  0  0  0  0  0
   13.0840   -1.7930   21.6900 C   0  0  0  0  0  0  0  0  0  0  0  0
   12.9000   -1.7410   24.1310 C   0  0  0  0  0  0  0  0  0  0  0  0
   13.3960   -1.5690   25.2280 O   0  0  0  0  0  0  0  0  0  0  0  0
   11.7770   -2.7170   23.9560 C   0  0  0  0  0  0  0  0  0  0  0  0
   10.4620   -2.1380   23.9210 N   0  0  0  0  0  0  0  0  0  0  0  0
   10.1550   -1.2610   22.9350 C   0  0  0  0  0  0  0  0  0  0  0  0
    9.0150   -1.7860   22.0610 C   0  0  0  0  0  0  0  0  0  0  0  0
    7.6660   -1.8300   22.8130 C   0  0  0  0  0  0  0  0  0  0  0  0
    7.3830   -0.5900   23.3510 C   0  0  0  0  0  0  0  0  0  0  0  0
    8.1810    0.4020   22.9500 N   0  0  0  0  0  0  0  0  0  0  0  0
    8.1370    0.6560   21.6300 C   0  0  0  0  0  0  0  0  0  0  0  0
    8.8050    1.5100   21.0410 O   0  0  0  0  0  0  0  0  0  0  0  0
    7.2370   -0.1690   21.0420 N   0  0  0  0  0  0  0  0  0  0  0  0
    6.6080    0.2980   19.9610 C   0  0  0  0  0  0  0  0  0  0  0  0
    5.4910    1.0400   20.3270 C   0  0  0  0  0  0  0  0  0  0  0  0
    4.7200    1.6160   19.3250 C   0  0  0  0  0  0  0  0  0  0  0  0
    5.1750    1.3830   17.9310 C   0  0  0  0  0  0  0  0  0  0  0  0
    6.2520    0.6540   17.6210 N   0  0  0  0  0  0  0  0  0  0  0  0
    6.9470    0.1250   18.6440 C   0  0  0  0  0  0  0  0  0  0  0  0
    8.2320   -2.7050   23.9540 C   0  0  0  0  0  0  0  0  0  0  0  0
    9.5120   -3.1220   23.6750 C   0  0  0  0  0  0  0  0  0  0  0  0
  1  2  1  0
  2  3  1  0
  2  4  1  0
  4  5  2  0
  4  6  1  0
  6  7  1  0
  7  8  1  0
  8  9  1  0
  9 10  1  0
 10 11  1  0
 11 12  1  0
 12 13  1  0
 13 14  2  0
 13 15  1  0
 15 16  1  0
 16 17  2  0
 17 18  1  0
 18 19  2  0
 19 20  1  0
 16 21  1  0
 20 21  2  0
 10 22  1  0
  7 23  1  0
 22 23  1  0
M  END
