pyridine_urea_6198
     RDKit          3D

 24 26  0  0  0  0  0  0  0  0999 V2000
    8.6440    0.8300   21.0950 O   0  0  0  0  0  0  0  0  0  0  0  0
    8.2220   -0.2560   21.4760 C   0  0  0  0  0  0  0  0  0  0  0  0
    7.0270   -0.7830   21.0500 N   0  0  0  0  0  0  0  0  0  0  0  0
    6.4060   -0.0680   19.9690 C   0  0  0  0  0  0  0  0  0  0  0  0
    5.1080    0.6630   20.2840 C   0  0  0  0  0  0  0  0  0  0  0  0
    4.5240    1.3970   19.1280 C   0  0  0  0  0  0  0  0  0  0  0  0
    5.1850    1.3570   17.9150 C   0  0  0  0  0  0  0  0  0  0  0  0
    6.3310    0.6860   17.6950 N   0  0  0  0  0  0  0  0  0  0  0  0
    6.9060    0.0020   18.6990 C   0  0  0  0  0  0  0  0  0  0  0  0
    8.8920   -1.0490   22.3640 N   0  0  0  0  0  0  0  0  0  0  0  0
   10.3030   -0.7320   22.6260 C   0  0  0  0  0  0  0  0  0  0  0  0
   11.2840   -1.4530   22.0090 C   0  0  0  0  0  0  0  0  0  0  0  0
   12.6320   -0.9100   22.4200 C   0  0  0  0  0  0  0  0  0  0  0  0
   12.8820    0.1300   23.2720 C   0  0  0  0  0  0  0  0  0  0  0  0
   11.8530    0.8020   23.8640 C   0  0  0  0  0  0  0  0  0  0  0  0
   10.5860    0.4190   23.5860 C   0  0  0  0  0  0  0  0  0  0  0  0
    9.4710    1.2220   24.2640 C   0  0  1  0  0  0  0  0  0  0  0  0
    8.7380    2.0270   23.3070 O   0  0  0  0  0  0  0  0  0  0  0  0
    9.1340   -0.1900   24.7040 C   0  0  0  0  0  0  0  0  0  0  0  0
    8.8160   -0.4090   26.1530 C   0  0  0  0  0  0  0  0  0  0  0  0
    8.4630   -1.6580   26.6470 C   0  0  0  0  0  0  0  0  0  0  0  0
    8.4100   -2.7270   25.7600 C   0  0  0  0  0  0  0  0  0  0  0  0
    8.7190   -2.4840   24.4250 C   0  0  0  0  0  0  0  0  0  0  0  0
    9.0680   -1.2750   23.9040 N   0  0  0  0  0  0  0  0  0  0  0  0
  1  2  2  0
  2  3  1  0
  3  4  1  0
  4  5  2  0
  5  6  1  0
  6  7  2  0
  7  8  1  0
  4  9  1  0
  8  9  2  0
  2 10  1  0
 10 11  1  0
 11 12  2  0
 12 13  1  0
 13 14  2  0
 14 15  1  0
 11 16  1  0
 15 16  2  0
 16 17  1  0
 17 18  1  6
 17 19  1  0
 19 20  2  0
 20 21  1  0
 21 22  2  0
 22 23  1  0
 19 24  1  0
 23 24  2  0
M  END
