pyridine_urea_13750
     RDKit          3D

 25 27  0  0  0  0  0  0  0  0999 V2000
   13.3040    4.6900   22.7310 C   0  0  0  0  0  0  0  0  0  0  0  0
   11.8210    4.3020   22.9130 C   0  0  0  0  0  0  0  0  0  0  0  0
   10.8880    5.4900   22.6750 C   0  0  0  0  0  0  0  0  0  0  0  0
    9.4100    5.1860   22.8320 C   0  0  0  0  0  0  0  0  0  0  0  0
    9.0210    3.7860   23.1910 C   0  0  0  0  0  0  0  0  0  0  0  0
    9.9480    2.7700   23.3910 C   0  0  0  0  0  0  0  0  0  0  0  0
   11.3360    3.0130   23.2620 C   0  0  0  0  0  0  0  0  0  0  0  0
   12.1560    2.1170   23.4670 O   0  0  0  0  0  0  0  0  0  0  0  0
   11.9180    0.7360   23.1140 C   0  0  0  0  0  0  0  0  0  0  0  0
   13.1050    0.3000   22.6510 C   0  0  0  0  0  0  0  0  0  0  0  0
   13.2650   -0.9370   22.2160 C   0  0  0  0  0  0  0  0  0  0  0  0
   12.2170   -1.7610   22.2500 C   0  0  0  0  0  0  0  0  0  0  0  0
   10.9620   -1.3870   22.7240 C   0  0  0  0  0  0  0  0  0  0  0  0
   10.6560    0.0580   23.2620 C   0  0  0  0  0  0  0  0  0  0  0  0
    9.6470   -0.8680   23.2650 C   0  0  0  0  0  0  0  0  0  0  0  0
    8.3890   -0.4720   22.8650 N   0  0  0  0  0  0  0  0  0  0  0  0
    8.1220    0.1520   21.6890 C   0  0  0  0  0  0  0  0  0  0  0  0
    8.8610    1.2880   21.1490 O   0  0  0  0  0  0  0  0  0  0  0  0
    7.0480   -0.4460   21.1060 N   0  0  0  0  0  0  0  0  0  0  0  0
    6.4300    0.1320   20.0790 C   0  0  0  0  0  0  0  0  0  0  0  0
    5.2620    0.8160   20.3580 C   0  0  0  0  0  0  0  0  0  0  0  0
    4.5320    1.5140   19.2160 C   0  0  0  0  0  0  0  0  0  0  0  0
    5.1500    1.4060   17.8400 C   0  0  0  0  0  0  0  0  0  0  0  0
    6.2770    0.7260   17.6040 N   0  0  0  0  0  0  0  0  0  0  0  0
    6.8960    0.1210   18.6290 C   0  0  0  0  0  0  0  0  0  0  0  0
  1  2  1  0
  2  3  2  0
  3  4  1  0
  4  5  2  0
  5  6  1  0
  2  7  1  0
  6  7  2  0
  7  8  1  0
  8  9  1  0
  9 10  2  0
 10 11  1  0
 11 12  2  0
 12 13  1  0
  9 14  1  0
 13 14  2  0
 14 15  1  0
 15 16  1  0
 16 17  1  0
 17 18  2  0
 17 19  1  0
 19 20  1  0
 20 21  2  0
 21 22  1  0
 22 23  2  0
 23 24  1  0
 20 25  1  0
 24 25  2  0
M  END
