pyridine_urea_5173
     RDKit          3D

 20 21  0  0  0  0  0  0  0  0999 V2000
    4.0940    2.3860   18.7000 C   0  0  0  0  0  0  0  0  0  0  0  0
    5.2720    1.4740   18.5540 C   0  0  0  0  0  0  0  0  0  0  0  0
    5.8520    1.3270   17.3510 C   0  0  0  0  0  0  0  0  0  0  0  0
    6.3130    1.8290   19.6510 C   0  0  0  0  0  0  0  0  0  0  0  0
    4.8970    0.1980   18.9190 N   0  0  0  0  0  0  0  0  0  0  0  0
    5.9980   -0.6340   18.9000 C   0  0  0  0  0  0  0  0  0  0  0  0
    6.4580   -1.0010   20.2950 C   0  0  1  0  0  0  0  0  0  0  0  0
    7.8260   -0.7800   20.4920 N   0  0  0  0  0  0  0  0  0  0  0  0
    8.5300    0.0540   21.3800 C   0  0  0  0  0  0  0  0  0  0  0  0
    8.6620    1.2710   21.1940 O   0  0  0  0  0  0  0  0  0  0  0  0
    9.0750   -0.6700   22.3840 N   0  0  0  0  0  0  0  0  0  0  0  0
   10.4020   -0.4390   22.5360 C   0  0  0  0  0  0  0  0  0  0  0  0
   11.4400   -1.3580   22.3710 C   0  0  0  0  0  0  0  0  0  0  0  0
   12.7470   -0.9520   22.5560 C   0  0  0  0  0  0  0  0  0  0  0  0
   13.0130    0.3610   22.8990 C   0  0  0  0  0  0  0  0  0  0  0  0
   12.0510    1.2700   23.0650 N   0  0  0  0  0  0  0  0  0  0  0  0
   10.7720    0.8490   22.8840 C   0  0  0  0  0  0  0  0  0  0  0  0
    5.5600   -0.1700   21.1410 C   0  0  0  0  0  0  0  0  0  0  0  0
    4.6520    0.4760   20.3400 C   0  0  0  0  0  0  0  0  0  0  0  0
    3.7120    1.3190   20.9970 O   0  0  0  0  0  0  0  0  0  0  0  0
  2  1  1  0
  2  3  1  0
  2  4  1  0
  2  5  1  0
  5  6  1  0
  6  7  1  0
  7  8  1  6
  8  9  1  0
  9 10  2  0
  9 11  1  0
 11 12  1  0
 12 13  2  0
 13 14  1  0
 14 15  2  0
 15 16  1  0
 12 17  1  0
 16 17  2  0
  7 18  1  0
  5 19  1  0
 18 19  1  0
 19 20  2  0
M  END
