pyridine_urea_3336
     RDKit          3D

 20 21  0  0  0  0  0  0  0  0999 V2000
   11.5970    0.9290   23.0450 C   0  0  0  0  0  0  0  0  0  0  0  0
   11.8900   -0.3890   22.4780 C   0  0  0  0  0  0  0  0  0  0  0  0
   13.0810    0.3140   22.6910 C   0  0  0  0  0  0  0  0  0  0  0  0
   12.9990   -0.8280   22.2130 C   0  0  0  0  0  0  0  0  0  0  0  0
   11.6230   -1.1700   22.1950 C   0  0  0  0  0  0  0  0  0  0  0  0
   10.3770   -0.4370   22.6530 C   0  0  2  0  0  0  0  0  0  0  0  0
    9.9080   -1.0180   23.8210 C   0  0  0  0  0  0  0  0  0  0  0  0
    9.3680   -0.7870   21.6920 N   0  0  0  0  0  0  0  0  0  0  0  0
    8.4710    0.1700   21.3330 C   0  0  0  0  0  0  0  0  0  0  0  0
    8.8270    1.3510   21.2340 O   0  0  0  0  0  0  0  0  0  0  0  0
    7.2240   -0.3260   21.0730 N   0  0  0  0  0  0  0  0  0  0  0  0
    6.4290    0.2320   20.0800 C   0  0  0  0  0  0  0  0  0  0  0  0
    5.2630    0.9360   20.2890 C   0  0  0  0  0  0  0  0  0  0  0  0
    4.5730    1.4720   19.2140 C   0  0  0  0  0  0  0  0  0  0  0  0
    5.0950    1.2750   17.9380 C   0  0  0  0  0  0  0  0  0  0  0  0
    6.2160    0.5850   17.7000 N   0  0  0  0  0  0  0  0  0  0  0  0
    6.8510    0.0800   18.7700 C   0  0  0  0  0  0  0  0  0  0  0  0
   11.5510   -2.2960   21.7030 C   0  0  0  0  0  0  0  0  0  0  0  0
   12.7450   -1.5780   21.9080 C   0  0  0  0  0  0  0  0  0  0  0  0
   13.0790   -2.8130   21.3590 C   0  0  0  0  0  0  0  0  0  0  0  0
  1  2  1  0
  2  3  2  0
  3  4  1  0
  4  5  2  0
  5  6  1  0
  6  7  1  1
  6  8  1  0
  8  9  1  0
  9 10  2  0
  9 11  1  0
 11 12  1  0
 12 13  2  0
 13 14  1  0
 14 15  2  0
 15 16  1  0
 12 17  1  0
 16 17  2  0
  5 18  1  0
  2 19  1  0
 18 19  2  0
 19 20  1  0
M  END
