pyridine_urea_5879
     RDKit          3D

 30 32  0  0  0  0  0  0  0  0999 V2000
    8.4430    0.8370   21.0940 O   0  0  0  0  0  0  0  0  0  0  0  0
    8.1480   -0.3580   21.1170 C   0  0  0  0  0  0  0  0  0  0  0  0
    6.8110   -0.8140   20.8490 N   0  0  0  0  0  0  0  0  0  0  0  0
    6.2120   -0.0540   19.8840 C   0  0  0  0  0  0  0  0  0  0  0  0
    5.0170    0.6150   20.1230 C   0  0  0  0  0  0  0  0  0  0  0  0
    4.4810    1.3780   19.0880 C   0  0  0  0  0  0  0  0  0  0  0  0
    5.1610    1.4390   17.8680 C   0  0  0  0  0  0  0  0  0  0  0  0
    6.3120    0.7880   17.6400 N   0  0  0  0  0  0  0  0  0  0  0  0
    6.8070    0.0560   18.6560 C   0  0  0  0  0  0  0  0  0  0  0  0
    9.0040   -1.3690   21.3820 N   0  0  0  0  0  0  0  0  0  0  0  0
    9.7920   -0.9990   22.5020 C   0  0  1  0  0  0  0  0  0  0  0  0
    8.8120   -0.3830   23.5390 C   0  0  0  0  0  0  0  0  0  0  0  0
    7.7110   -0.9310   23.5290 O   0  0  0  0  0  0  0  0  0  0  0  0
    7.3300   -1.1740   24.8290 C   0  0  0  0  0  0  0  0  0  0  0  0
    7.6560   -0.2140   25.7840 C   0  0  0  0  0  0  0  0  0  0  0  0
    7.4090   -0.1640   27.1960 C   0  0  0  0  0  0  0  0  0  0  0  0
    6.7130   -1.4080   27.3570 C   0  0  0  0  0  0  0  0  0  0  0  0
    6.3580   -2.4050   26.4490 C   0  0  0  0  0  0  0  0  0  0  0  0
    6.6670   -2.3060   25.1420 C   0  0  0  0  0  0  0  0  0  0  0  0
   10.4350   -2.1090   23.2600 C   0  0  0  0  0  0  0  0  0  0  0  0
    9.5230   -2.9270   23.6170 C   0  0  0  0  0  0  0  0  0  0  0  0
   10.8570   -2.9980   23.8930 C   0  0  0  0  0  0  0  0  0  0  0  0
   11.0900   -1.6760   23.0590 C   0  0  0  0  0  0  0  0  0  0  0  0
   10.1570   -0.9810   22.4140 F   0  0  0  0  0  0  0  0  0  0  0  0
   12.4680   -1.3860   23.1240 C   0  0  0  0  0  0  0  0  0  0  0  0
   13.1300   -2.3390   23.8920 C   0  0  0  0  0  0  0  0  0  0  0  0
   13.7250   -1.8380   24.9930 F   0  0  0  0  0  0  0  0  0  0  0  0
   12.2780   -3.2320   24.4520 F   0  0  0  0  0  0  0  0  0  0  0  0
   14.0320   -3.0500   23.2220 F   0  0  0  0  0  0  0  0  0  0  0  0
   11.8360   -2.4200   23.6850 C   0  0  0  0  0  0  0  0  0  0  0  0
  1  2  2  0
  2  3  1  0
  3  4  1  0
  4  5  2  0
  5  6  1  0
  6  7  2  0
  7  8  1  0
  4  9  1  0
  8  9  2  0
  2 10  1  0
 10 11  1  0
 11 12  1  1
 12 13  1  0
 13 14  1  0
 14 15  2  0
 15 16  1  0
 16 17  2  0
 17 18  1  0
 14 19  1  0
 18 19  2  0
 11 20  1  0
 20 21  2  0
 21 22  1  0
 22 23  2  0
 23 24  1  0
 23 25  1  0
 25 26  1  0
 26 27  1  0
 26 28  1  0
 26 29  1  0
 20 30  1  0
 25 30  2  0
M  END
