pyridine_urea_8963
     RDKit          3D

 20 21  0  0  0  0  0  0  0  0999 V2000
   12.7520   -0.5170   24.6560 C   0  0  0  0  0  0  0  0  0  0  0  0
   12.6090   -1.9510   24.1390 C   0  0  0  0  0  0  0  0  0  0  0  0
   13.5180   -2.1670   22.9510 C   0  0  0  0  0  0  0  0  0  0  0  0
   13.0270   -2.9390   25.2470 C   0  0  0  0  0  0  0  0  0  0  0  0
   11.2220   -2.0110   23.5490 C   0  0  0  0  0  0  0  0  0  0  0  0
   10.9710   -2.4040   22.2480 C   0  0  0  0  0  0  0  0  0  0  0  0
    9.3070   -2.3090   21.9410 S   0  0  0  0  0  0  0  0  0  0  0  0
    9.0760   -1.7480   23.5360 C   0  0  0  0  0  0  0  0  0  0  0  0
    7.8170   -1.4140   23.9280 C   0  0  0  0  0  0  0  0  0  0  0  0
    7.6210   -0.1770   23.2130 N   0  0  0  0  0  0  0  0  0  0  0  0
    7.9770   -0.0490   21.8920 C   0  0  0  0  0  0  0  0  0  0  0  0
    8.9940    0.5190   21.5080 O   0  0  0  0  0  0  0  0  0  0  0  0
    7.0050   -0.6410   21.0720 N   0  0  0  0  0  0  0  0  0  0  0  0
    6.4430   -0.0060   20.0000 C   0  0  0  0  0  0  0  0  0  0  0  0
    5.2800    0.6940   20.3100 C   0  0  0  0  0  0  0  0  0  0  0  0
    4.6660    1.4020   19.1610 C   0  0  0  0  0  0  0  0  0  0  0  0
    5.1720    1.3920   17.8920 C   0  0  0  0  0  0  0  0  0  0  0  0
    6.3070    0.6880   17.6410 N   0  0  0  0  0  0  0  0  0  0  0  0
    6.9270   -0.0060   18.7080 C   0  0  0  0  0  0  0  0  0  0  0  0
   10.1320   -1.6410   24.2910 N   0  0  0  0  0  0  0  0  0  0  0  0
  2  1  1  0
  2  3  1  0
  2  4  1  0
  2  5  1  0
  5  6  2  0
  6  7  1  0
  7  8  1  0
  8  9  1  0
  9 10  1  0
 10 11  1  0
 11 12  2  0
 11 13  1  0
 13 14  1  0
 14 15  2  0
 15 16  1  0
 16 17  2  0
 17 18  1  0
 14 19  1  0
 18 19  2  0
  5 20  1  0
  8 20  2  0
M  END
