pyridine_urea_116
     RDKit          3D

 16 17  0  0  0  0  0  0  0  0999 V2000
    8.9240    1.2650   21.1900 O   0  0  0  0  0  0  0  0  0  0  0  0
    8.4210    0.1870   21.5380 C   0  0  0  0  0  0  0  0  0  0  0  0
    8.9160   -0.5540   22.5910 N   0  0  0  0  0  0  0  0  0  0  0  0
   10.1750   -1.2560   22.4260 C   0  0  0  0  0  0  0  0  0  0  0  0
   11.2410   -0.9060   23.4630 C   0  0  2  0  0  0  0  0  0  0  0  0
   10.9890    0.1060   24.2870 C   0  0  0  0  0  0  0  0  0  0  0  0
   12.0390    0.4880   23.3670 C   0  0  1  0  0  0  0  0  0  0  0  0
   13.2670   -0.2990   22.8950 C   0  0  0  0  0  0  0  0  0  0  0  0
   12.9060   -1.3060   22.0480 O   0  0  0  0  0  0  0  0  0  0  0  0
    7.3250   -0.4300   20.9750 N   0  0  0  0  0  0  0  0  0  0  0  0
    6.4600    0.1920   20.0600 C   0  0  0  0  0  0  0  0  0  0  0  0
    5.3200    0.8200   20.4620 C   0  0  0  0  0  0  0  0  0  0  0  0
    4.6560    1.3920   19.2230 C   0  0  0  0  0  0  0  0  0  0  0  0
    5.1630    1.2640   17.9520 C   0  0  0  0  0  0  0  0  0  0  0  0
    6.2760    0.6200   17.6870 N   0  0  0  0  0  0  0  0  0  0  0  0
    6.8820    0.1080   18.7460 C   0  0  0  0  0  0  0  0  0  0  0  0
  1  2  2  0
  2  3  1  0
  3  4  1  0
  5  4  1  6
  5  6  1  0
  5  7  1  0
  6  7  1  0
  7  8  1  1
  8  9  1  0
  2 10  1  0
 10 11  1  0
 11 12  2  0
 12 13  1  0
 13 14  2  0
 14 15  1  0
 11 16  1  0
 15 16  2  0
M  END
