pyridine_urea_3154
     RDKit          3D

 20 20  0  0  0  0  0  0  0  0999 V2000
   11.2180    2.8650   22.9300 C   0  0  0  0  0  0  0  0  0  0  0  0
   10.1690    1.8320   23.2590 C   0  0  0  0  0  0  0  0  0  0  0  0
   10.5970    0.5950   23.7520 C   0  0  0  0  0  0  0  0  0  0  0  0
   11.9430    0.5410   24.0830 C   0  0  0  0  0  0  0  0  0  0  0  0
   12.7800   -0.0750   23.1790 C   0  0  0  0  0  0  0  0  0  0  0  0
   10.3700   -0.5630   22.7320 C   0  0  0  0  0  0  0  0  0  0  0  0
    9.0040   -0.8220   22.3690 N   0  0  0  0  0  0  0  0  0  0  0  0
    8.3730    0.0110   21.4710 C   0  0  0  0  0  0  0  0  0  0  0  0
    8.8380    1.1030   21.1140 O   0  0  0  0  0  0  0  0  0  0  0  0
    7.1230   -0.5680   21.0350 N   0  0  0  0  0  0  0  0  0  0  0  0
    6.4720    0.0560   20.0110 C   0  0  0  0  0  0  0  0  0  0  0  0
    5.3060    0.7760   20.2740 C   0  0  0  0  0  0  0  0  0  0  0  0
    4.6520    1.4180   19.2430 C   0  0  0  0  0  0  0  0  0  0  0  0
    5.1630    1.3410   17.9580 C   0  0  0  0  0  0  0  0  0  0  0  0
    6.2790    0.6480   17.6830 N   0  0  0  0  0  0  0  0  0  0  0  0
    6.9040    0.0250   18.7040 C   0  0  0  0  0  0  0  0  0  0  0  0
    9.7400    0.1760   24.9580 C   0  0  0  0  0  0  0  0  0  0  0  0
    8.7930    1.0100   25.6170 O   0  0  0  0  0  0  0  0  0  0  0  0
    9.9820   -1.1120   25.3230 O   0  0  0  0  0  0  0  0  0  0  0  0
    9.0390   -2.1010   24.9290 C   0  0  0  0  0  0  0  0  0  0  0  0
  1  2  1  0
  2  3  1  0
  3  4  1  0
  4  5  1  0
  3  6  1  0
  6  7  1  0
  7  8  1  0
  8  9  2  0
  8 10  1  0
 10 11  1  0
 11 12  2  0
 12 13  1  0
 13 14  2  0
 14 15  1  0
 11 16  1  0
 15 16  2  0
  3 17  1  0
 17 18  2  0
 17 19  1  0
 19 20  1  0
M  END
