pyridine_urea_3975
     RDKit          3D

 23 25  0  0  0  0  0  0  0  0999 V2000
   11.7110   -3.3410   24.5880 C   0  0  0  0  0  0  0  0  0  0  0  0
   12.9290   -2.5640   24.8170 C   0  0  0  0  0  0  0  0  0  0  0  0
   13.9000   -2.6780   25.7920 C   0  0  0  0  0  0  0  0  0  0  0  0
   13.6050   -2.5800   23.4540 C   0  0  0  0  0  0  0  0  0  0  0  0
   12.1730   -1.4130   24.9810 O   0  0  0  0  0  0  0  0  0  0  0  0
   11.4350   -1.4670   23.8150 C   0  0  1  0  0  0  0  0  0  0  0  0
   10.1260   -1.5080   23.4550 C   0  0  0  0  0  0  0  0  0  0  0  0
   10.2990   -0.5920   22.4870 C   0  0  1  0  0  0  0  0  0  0  0  0
    9.5590    0.7050   22.7040 C   0  0  0  0  0  0  0  0  0  0  0  0
    8.2160    0.4240   22.3560 N   0  0  0  0  0  0  0  0  0  0  0  0
    7.8620   -0.4160   21.3820 C   0  0  0  0  0  0  0  0  0  0  0  0
    8.7590   -0.9590   20.8120 O   0  0  0  0  0  0  0  0  0  0  0  0
    6.5700   -0.5530   21.0920 N   0  0  0  0  0  0  0  0  0  0  0  0
    6.0220    0.1390   20.0290 C   0  0  0  0  0  0  0  0  0  0  0  0
    4.8560    0.8800   20.0910 C   0  0  0  0  0  0  0  0  0  0  0  0
    4.4270    1.5430   18.9550 C   0  0  0  0  0  0  0  0  0  0  0  0
    5.1770    1.4360   17.8030 C   0  0  0  0  0  0  0  0  0  0  0  0
    6.3070    0.7180   17.7110 N   0  0  0  0  0  0  0  0  0  0  0  0
    6.7000    0.0890   18.8230 C   0  0  0  0  0  0  0  0  0  0  0  0
   11.7660   -0.4090   22.7980 C   0  0  0  0  0  0  0  0  0  0  0  0
   12.9790   -0.7800   22.2880 C   0  0  0  0  0  0  0  0  0  0  0  0
   13.5150    0.2410   22.8610 C   0  0  0  0  0  0  0  0  0  0  0  0
   12.3990    0.9810   23.0320 C   0  0  0  0  0  0  0  0  0  0  0  0
  1  2  1  0
  2  3  1  0
  2  4  1  0
  2  5  1  0
  6  5  1  1
  6  7  1  0
  7  8  1  0
  8  9  1  1
  9 10  1  0
 10 11  1  0
 11 12  2  0
 11 13  1  0
 13 14  1  0
 14 15  2  0
 15 16  1  0
 16 17  2  0
 17 18  1  0
 14 19  1  0
 18 19  2  0
  6 20  1  0
  8 20  1  0
 20 21  1  0
 21 22  1  0
 20 23  1  0
 22 23  1  0
M  END
