pyridine_urea_4814
     RDKit          3D

 21 23  0  0  0  0  0  0  0  0999 V2000
    8.8410    1.3170   21.1340 O   0  0  0  0  0  0  0  0  0  0  0  0
    8.1670    0.3750   21.5670 C   0  0  0  0  0  0  0  0  0  0  0  0
    8.3020   -0.0870   22.8160 N   0  0  0  0  0  0  0  0  0  0  0  0
    9.5910   -0.5010   23.1940 C   0  0  0  0  0  0  0  0  0  0  0  0
   10.6310   -0.4350   22.0950 C   0  0  0  0  0  0  0  0  0  0  0  0
   11.9270   -0.8160   22.3300 C   0  0  0  0  0  0  0  0  0  0  0  0
   12.1680   -1.2420   23.5670 C   0  0  0  0  0  0  0  0  0  0  0  0
   13.3420   -1.6790   23.9120 C   0  0  2  0  0  0  0  0  0  0  0  0
   13.6070   -2.8380   23.5270 C   0  0  0  0  0  0  0  0  0  0  0  0
   13.0730   -2.9040   24.8530 C   0  0  0  0  0  0  0  0  0  0  0  0
   11.8710   -3.5400   24.9030 F   0  0  0  0  0  0  0  0  0  0  0  0
   13.9110   -3.3180   25.8360 F   0  0  0  0  0  0  0  0  0  0  0  0
   11.2360   -1.2970   24.5520 C   0  0  0  0  0  0  0  0  0  0  0  0
    9.9420   -0.9360   24.4060 C   0  0  0  0  0  0  0  0  0  0  0  0
    7.2000   -0.3370   20.9430 N   0  0  0  0  0  0  0  0  0  0  0  0
    6.5100    0.2170   19.9030 C   0  0  0  0  0  0  0  0  0  0  0  0
    5.2640    1.0020   20.1660 C   0  0  0  0  0  0  0  0  0  0  0  0
    4.5570    1.5980   19.1560 C   0  0  0  0  0  0  0  0  0  0  0  0
    5.1330    1.3860   17.8760 C   0  0  0  0  0  0  0  0  0  0  0  0
    6.2400    0.6770   17.5950 N   0  0  0  0  0  0  0  0  0  0  0  0
    6.9010    0.1110   18.6100 C   0  0  0  0  0  0  0  0  0  0  0  0
  1  2  2  0
  2  3  1  0
  3  4  1  0
  4  5  2  0
  5  6  1  0
  6  7  2  0
  8  7  1  6
  8  9  1  0
  8 10  1  0
  9 10  1  0
 10 11  1  0
 10 12  1  0
  7 13  1  0
  4 14  1  0
 13 14  2  0
  2 15  1  0
 15 16  1  0
 16 17  2  0
 17 18  1  0
 18 19  2  0
 19 20  1  0
 16 21  1  0
 20 21  2  0
M  END
