pyridine_urea_2200
     RDKit          3D

 26 28  0  0  0  0  0  0  0  0999 V2000
    9.0380    1.1060   21.2640 O   0  0  0  0  0  0  0  0  0  0  0  0
    8.6000   -0.0310   21.4980 C   0  0  0  0  0  0  0  0  0  0  0  0
    9.2990   -1.0430   22.1320 N   0  0  0  0  0  0  0  0  0  0  0  0
    9.0320   -1.6670   23.3700 C   0  0  0  0  0  0  0  0  0  0  0  0
    7.6000   -1.8800   23.8850 C   0  0  0  0  0  0  0  0  0  0  0  0
    7.4390   -3.0900   24.5220 N   0  0  0  0  0  0  0  0  0  0  0  0
    6.7540   -4.2200   24.0360 C   0  0  0  0  0  0  0  0  0  0  0  0
    7.0630   -4.6640   22.7850 N   0  0  0  0  0  0  0  0  0  0  0  0
    6.4430   -5.7900   22.1850 C   0  0  0  0  0  0  0  0  0  0  0  0
    5.4900   -6.5150   22.8030 N   0  0  0  0  0  0  0  0  0  0  0  0
    5.0720   -6.1640   24.1110 C   0  0  0  0  0  0  0  0  0  0  0  0
    4.0980   -6.8420   24.8510 C   0  0  0  0  0  0  0  0  0  0  0  0
    3.6840   -6.5030   26.1320 C   0  0  0  0  0  0  0  0  0  0  0  0
    4.2220   -5.4280   26.7970 C   0  0  0  0  0  0  0  0  0  0  0  0
    3.8370   -5.0460   28.0660 N   0  0  0  0  0  0  0  0  0  0  0  0
    3.0410   -5.7830   28.6640 O   0  0  0  0  0  0  0  0  0  0  0  0
    4.0170   -3.8620   28.3710 O   0  0  0  0  0  0  0  0  0  0  0  0
    5.2000   -4.6790   26.1660 C   0  0  0  0  0  0  0  0  0  0  0  0
    5.6960   -4.9370   24.8640 C   0  0  0  0  0  0  0  0  0  0  0  0
    7.3370   -0.4430   21.1320 N   0  0  0  0  0  0  0  0  0  0  0  0
    6.6070    0.1210   20.0780 C   0  0  0  0  0  0  0  0  0  0  0  0
    5.3490    0.9310   20.3930 C   0  0  0  0  0  0  0  0  0  0  0  0
    4.7000    1.4680   19.3060 C   0  0  0  0  0  0  0  0  0  0  0  0
    5.1730    1.2720   18.0240 C   0  0  0  0  0  0  0  0  0  0  0  0
    6.2620    0.5630   17.7100 N   0  0  0  0  0  0  0  0  0  0  0  0
    6.9510    0.0040   18.7390 C   0  0  0  0  0  0  0  0  0  0  0  0
  1  2  2  0
  2  3  1  0
  3  4  1  0
  4  5  1  0
  5  6  1  0
  6  7  1  0
  7  8  2  0
  8  9  1  0
  9 10  2  0
 10 11  1  0
 11 12  1  0
 12 13  2  0
 13 14  1  0
 14 15  1  0
 15 16  2  0
 15 17  1  0
 14 18  2  0
  7 19  1  0
 11 19  2  0
 18 19  1  0
  2 20  1  0
 20 21  1  0
 21 22  2  0
 22 23  1  0
 23 24  2  0
 24 25  1  0
 21 26  1  0
 25 26  2  0
M  CHG  2  15   1  17  -1
M  END
