pyridine_urea_10441
     RDKit          3D

 22 23  0  0  0  0  0  0  0  0999 V2000
    8.6550   -3.5210   23.4860 C   0  0  0  0  0  0  0  0  0  0  0  0
    8.4400   -2.0660   23.9160 C   0  0  0  0  0  0  0  0  0  0  0  0
    9.7050   -1.3530   23.9480 O   0  0  0  0  0  0  0  0  0  0  0  0
   10.4900   -1.4700   22.7920 C   0  0  0  0  0  0  0  0  0  0  0  0
   10.1100   -2.1190   21.8040 O   0  0  0  0  0  0  0  0  0  0  0  0
   11.8690   -0.7590   22.9050 C   0  0  0  0  0  0  0  0  0  0  0  0
   13.0450   -1.4210   22.9320 C   0  0  0  0  0  0  0  0  0  0  0  0
   13.0590   -0.0290   23.0240 C   0  0  0  0  0  0  0  0  0  0  0  0
   11.5180    0.0420   22.9040 C   0  0  0  0  0  0  0  0  0  0  0  0
   10.5930   -0.9850   22.7290 C   0  0  0  0  0  0  0  0  0  0  0  0
    9.2010   -0.4670   22.6750 N   0  0  0  0  0  0  0  0  0  0  0  0
    8.6110    0.2110   21.6120 C   0  0  0  0  0  0  0  0  0  0  0  0
    9.0900    1.4870   21.1780 O   0  0  0  0  0  0  0  0  0  0  0  0
    7.5180   -0.4520   21.0590 N   0  0  0  0  0  0  0  0  0  0  0  0
    6.6660    0.1300   20.0980 C   0  0  0  0  0  0  0  0  0  0  0  0
    5.4930    0.8860   20.4050 C   0  0  0  0  0  0  0  0  0  0  0  0
    4.6350    1.5000   19.4160 C   0  0  0  0  0  0  0  0  0  0  0  0
    5.1650    1.2260   18.0180 C   0  0  0  0  0  0  0  0  0  0  0  0
    6.2680    0.5000   17.7520 N   0  0  0  0  0  0  0  0  0  0  0  0
    7.0080   -0.0440   18.7770 C   0  0  0  0  0  0  0  0  0  0  0  0
   11.1190    1.3970   22.9790 C   0  0  0  0  0  0  0  0  0  0  0  0
   12.2550    0.8020   23.0220 C   0  0  0  0  0  0  0  0  0  0  0  0
  1  2  1  0
  2  3  1  0
  3  4  1  0
  4  5  2  0
  4  6  1  0
  6  7  2  0
  7  8  1  0
  8  9  2  0
  9 10  1  0
 10 11  1  0
 11 12  1  0
 12 13  2  0
 12 14  1  0
 14 15  1  0
 15 16  2  0
 16 17  1  0
 17 18  2  0
 18 19  1  0
 15 20  1  0
 19 20  2  0
  9 21  1  0
  6 22  1  0
 21 22  2  0
M  END
