pyridine_urea_6995
     RDKit          3D

 21 23  0  0  0  0  0  0  0  0999 V2000
    8.7790    1.2030   21.1360 O   0  0  0  0  0  0  0  0  0  0  0  0
    8.4690    0.0360   21.4190 C   0  0  0  0  0  0  0  0  0  0  0  0
    9.1600   -0.7290   22.3250 N   0  0  0  0  0  0  0  0  0  0  0  0
   10.4950   -0.4100   22.5250 C   0  0  0  0  0  0  0  0  0  0  0  0
   10.8760    0.8550   22.9060 C   0  0  0  0  0  0  0  0  0  0  0  0
   12.2180    1.1510   23.0710 C   0  0  0  0  0  0  0  0  0  0  0  0
   13.1230    0.1590   22.8520 C   0  0  0  0  0  0  0  0  0  0  0  0
   12.8050   -1.0910   22.4850 N   0  0  0  0  0  0  0  0  0  0  0  0
   11.4940   -1.3510   22.3270 C   0  0  0  0  0  0  0  0  0  0  0  0
    7.4030   -0.6370   20.8740 N   0  0  0  0  0  0  0  0  0  0  0  0
    6.3070    0.0380   20.3360 C   0  0  2  0  0  0  0  0  0  0  0  0
    5.3110   -0.6660   19.7050 C   0  0  0  0  0  0  0  0  0  0  0  0
    5.1330   -0.2630   18.3800 C   0  0  0  0  0  0  0  0  0  0  0  0
    5.6720    1.0470   18.4230 N   0  0  0  0  0  0  0  0  0  0  0  0
    4.7010    2.0670   18.5730 C   0  0  0  0  0  0  0  0  0  0  0  0
    4.5310    2.5060   19.8950 C   0  0  0  0  0  0  0  0  0  0  0  0
    3.8910    3.8310   20.0490 C   0  0  0  0  0  0  0  0  0  0  0  0
    2.7690    3.7060   20.8410 C   0  0  0  0  0  0  0  0  0  0  0  0
    2.6770    2.3580   21.1240 C   0  0  0  0  0  0  0  0  0  0  0  0
    3.7110    1.5740   20.5630 C   0  0  0  0  0  0  0  0  0  0  0  0
    6.8210    0.9000   19.2030 C   0  0  0  0  0  0  0  0  0  0  0  0
  1  2  2  0
  2  3  1  0
  3  4  1  0
  4  5  2  0
  5  6  1  0
  6  7  2  0
  7  8  1  0
  4  9  1  0
  8  9  2  0
  2 10  1  0
 11 10  1  6
 11 12  1  0
 12 13  1  0
 13 14  1  0
 14 15  1  0
 15 16  1  0
 16 17  1  0
 17 18  1  0
 18 19  1  0
 16 20  1  0
 19 20  1  0
 11 21  1  0
 14 21  1  0
M  END
