pyridine_urea_10844
     RDKit          3D

 20 21  0  0  0  0  0  0  0  0999 V2000
    4.7000   -3.7870   22.5790 C   0  0  0  0  0  0  0  0  0  0  0  0
    5.7930   -2.7820   22.3730 C   0  0  0  0  0  0  0  0  0  0  0  0
    6.7230   -2.6190   23.4010 C   0  0  1  0  0  0  0  0  0  0  0  0
    6.3850   -3.1330   24.6540 C   0  0  0  0  0  0  0  0  0  0  0  0
    6.0990   -4.3200   24.8080 O   0  0  0  0  0  0  0  0  0  0  0  0
    6.7470   -5.2120   24.0000 C   0  0  0  0  0  0  0  0  0  0  0  0
    7.9460   -4.7590   23.2200 C   0  0  0  0  0  0  0  0  0  0  0  0
    7.9800   -3.3270   23.0230 N   0  0  0  0  0  0  0  0  0  0  0  0
    9.0390   -2.7070   22.4020 C   0  0  0  0  0  0  0  0  0  0  0  0
    8.9860   -1.4900   23.3230 C   0  0  0  0  0  0  0  0  0  0  0  0
    9.0830   -0.2280   22.5990 N   0  0  0  0  0  0  0  0  0  0  0  0
    8.3660    0.2040   21.4990 C   0  0  0  0  0  0  0  0  0  0  0  0
    8.7730    1.2910   21.0710 O   0  0  0  0  0  0  0  0  0  0  0  0
    7.3800   -0.6030   21.1250 N   0  0  0  0  0  0  0  0  0  0  0  0
    6.6530    0.0430   20.0930 C   0  0  0  0  0  0  0  0  0  0  0  0
    5.5240    0.8030   20.4240 C   0  0  0  0  0  0  0  0  0  0  0  0
    4.8020    1.4430   19.4210 C   0  0  0  0  0  0  0  0  0  0  0  0
    5.2280    1.3070   18.1160 C   0  0  0  0  0  0  0  0  0  0  0  0
    6.3000    0.5820   17.7670 N   0  0  0  0  0  0  0  0  0  0  0  0
    6.9880   -0.0320   18.7570 C   0  0  0  0  0  0  0  0  0  0  0  0
  1  2  1  0
  3  2  1  6
  3  4  1  0
  4  5  1  0
  5  6  1  0
  6  7  1  0
  3  8  1  0
  7  8  1  0
  8  9  1  0
  9 10  1  0
 10 11  1  0
 11 12  1  0
 12 13  2  0
 12 14  1  0
 14 15  1  0
 15 16  2  0
 16 17  1  0
 17 18  2  0
 18 19  1  0
 15 20  1  0
 19 20  2  0
M  END
