pyridine_urea_159
     RDKit          3D

 21 23  0  0  0  0  0  0  0  0999 V2000
    8.3860    0.9790   21.1130 O   0  0  0  0  0  0  0  0  0  0  0  0
    8.0000   -0.1630   21.3470 C   0  0  0  0  0  0  0  0  0  0  0  0
    6.7640   -0.6220   21.0380 N   0  0  0  0  0  0  0  0  0  0  0  0
    6.2250    0.0640   19.9210 C   0  0  0  0  0  0  0  0  0  0  0  0
    4.9270    0.8090   20.1580 C   0  0  0  0  0  0  0  0  0  0  0  0
    4.4250    1.5320   18.9680 C   0  0  0  0  0  0  0  0  0  0  0  0
    5.1560    1.4640   17.7960 C   0  0  0  0  0  0  0  0  0  0  0  0
    6.3040    0.7760   17.6450 N   0  0  0  0  0  0  0  0  0  0  0  0
    6.8070    0.1010   18.6850 C   0  0  0  0  0  0  0  0  0  0  0  0
    8.7570   -1.1000   21.9270 N   0  0  0  0  0  0  0  0  0  0  0  0
   10.0920   -0.6650   22.2570 C   0  0  2  0  0  0  0  0  0  0  0  0
   10.8770   -1.7670   22.2410 C   0  0  0  0  0  0  0  0  0  0  0  0
   12.0230   -1.0120   22.7540 C   0  0  0  0  0  0  0  0  0  0  0  0
   11.8000   -0.8010   24.0660 C   0  0  2  0  0  0  0  0  0  0  0  0
   10.9930    0.2180   24.3560 C   0  0  0  0  0  0  0  0  0  0  0  0
    9.8890    0.0380   23.6070 C   0  0  0  0  0  0  0  0  0  0  0  0
   13.1070   -0.5740   24.6290 C   0  0  0  0  0  0  0  0  0  0  0  0
   13.9020   -1.7450   24.4220 O   0  0  0  0  0  0  0  0  0  0  0  0
   13.3430   -2.8820   25.0130 C   0  0  0  0  0  0  0  0  0  0  0  0
   11.9700   -3.0380   24.4410 C   0  0  0  0  0  0  0  0  0  0  0  0
   11.2630   -1.8180   24.6270 O   0  0  0  0  0  0  0  0  0  0  0  0
  1  2  2  0
  2  3  1  0
  3  4  1  0
  4  5  2  0
  5  6  1  0
  6  7  2  0
  7  8  1  0
  4  9  1  0
  8  9  2  0
  2 10  1  0
 11 10  1  1
 11 12  1  0
 12 13  1  0
 14 13  1  6
 14 15  1  0
 11 16  1  0
 15 16  1  0
 14 17  1  0
 17 18  1  0
 18 19  1  0
 19 20  1  0
 14 21  1  0
 20 21  1  0
M  END
