pyridine_urea_14787
     RDKit          3D

 20 21  0  0  0  0  0  0  0  0999 V2000
    8.8040    1.0470   21.5900 O   0  0  0  0  0  0  0  0  0  0  0  0
    8.6060   -0.1500   21.4670 C   0  0  0  0  0  0  0  0  0  0  0  0
    9.5580   -1.1260   21.7290 N   0  0  0  0  0  0  0  0  0  0  0  0
   10.4100   -1.1920   22.8760 C   0  0  0  0  0  0  0  0  0  0  0  0
   11.8190   -1.0300   22.8520 C   0  0  0  0  0  0  0  0  0  0  0  0
   12.6950   -2.0830   22.7150 C   0  0  0  0  0  0  0  0  0  0  0  0
   12.1570   -0.8740   22.8600 N   0  0  0  0  0  0  0  0  0  0  0  0
   12.6860    0.2300   22.9690 C   0  0  0  0  0  0  0  0  0  0  0  0
   11.4160    1.0170   23.0750 C   0  0  0  0  0  0  0  0  0  0  0  0
   11.3310    2.5520   23.2210 C   0  0  0  0  0  0  0  0  0  0  0  0
   10.1980    3.0570   22.6640 F   0  0  0  0  0  0  0  0  0  0  0  0
   12.3610    3.2220   22.6430 F   0  0  0  0  0  0  0  0  0  0  0  0
   12.5430    0.4520   22.9940 C   0  0  0  0  0  0  0  0  0  0  0  0
    7.3890   -0.6710   21.0210 N   0  0  0  0  0  0  0  0  0  0  0  0
    6.5750   -0.0010   20.0890 C   0  0  0  0  0  0  0  0  0  0  0  0
    5.3900    0.7050   20.3840 C   0  0  0  0  0  0  0  0  0  0  0  0
    4.6580    1.3600   19.3760 C   0  0  0  0  0  0  0  0  0  0  0  0
    5.1560    1.3000   17.9860 C   0  0  0  0  0  0  0  0  0  0  0  0
    6.3250    0.5810   17.7580 N   0  0  0  0  0  0  0  0  0  0  0  0
    6.9930   -0.0380   18.7660 C   0  0  0  0  0  0  0  0  0  0  0  0
  1  2  2  0
  2  3  1  0
  3  4  1  0
  4  5  1  0
  5  6  2  0
  6  7  1  0
  7  8  2  0
  8  9  1  0
  9 10  1  0
 10 11  1  0
 10 12  1  0
  5 13  1  0
  9 13  2  0
  2 14  1  0
 14 15  1  0
 15 16  2  0
 16 17  1  0
 17 18  2  0
 18 19  1  0
 15 20  1  0
 19 20  2  0
M  END
