pyridine_urea_766
     RDKit          3D

 23 25  0  0  0  0  0  0  0  0999 V2000
   11.2750   -2.4020   22.1750 C   0  0  0  0  0  0  0  0  0  0  0  0
   11.6250   -0.9550   22.4610 C   0  0  0  0  0  0  0  0  0  0  0  0
   13.0090   -0.6070   22.5180 C   0  0  0  0  0  0  0  0  0  0  0  0
   13.2690    0.7290   22.7490 C   0  0  0  0  0  0  0  0  0  0  0  0
   12.0900    1.3710   22.8530 C   0  0  0  0  0  0  0  0  0  0  0  0
   12.0400    0.0450   22.6550 C   0  0  0  0  0  0  0  0  0  0  0  0
   11.1000   -1.1460   22.4690 C   0  0  0  0  0  0  0  0  0  0  0  0
    9.7290   -0.9820   23.1500 C   0  0  0  0  0  0  0  0  0  0  0  0
    8.6610   -1.3230   22.2390 N   0  0  0  0  0  0  0  0  0  0  0  0
    8.1390   -0.3150   21.4810 C   0  0  0  0  0  0  0  0  0  0  0  0
    8.7100    0.7480   21.2760 O   0  0  0  0  0  0  0  0  0  0  0  0
    6.9080   -0.6650   21.0080 N   0  0  0  0  0  0  0  0  0  0  0  0
    6.3150    0.0160   19.9580 C   0  0  0  0  0  0  0  0  0  0  0  0
    5.1260    0.7100   20.1790 C   0  0  0  0  0  0  0  0  0  0  0  0
    4.5470    1.4020   19.1280 C   0  0  0  0  0  0  0  0  0  0  0  0
    5.1730    1.3770   17.9000 C   0  0  0  0  0  0  0  0  0  0  0  0
    6.3140    0.7080   17.6740 N   0  0  0  0  0  0  0  0  0  0  0  0
    6.8550    0.0440   18.7040 C   0  0  0  0  0  0  0  0  0  0  0  0
   13.1130    0.8410   22.7800 C   0  0  0  0  0  0  0  0  0  0  0  0
   12.1450    2.0820   22.9420 N   0  0  0  0  0  0  0  0  0  0  0  0
   12.3640    3.5040   23.0940 C   0  0  0  0  0  0  0  0  0  0  0  0
   10.9030    1.3910   22.8620 C   0  0  0  0  0  0  0  0  0  0  0  0
   10.5620    0.0400   22.6570 C   0  0  0  0  0  0  0  0  0  0  0  0
  1  2  1  0
  2  3  2  0
  3  4  1  0
  4  5  2  0
  5  6  1  0
  6  7  1  0
  7  8  1  0
  8  9  1  0
  9 10  1  0
 10 11  2  0
 10 12  1  0
 12 13  1  0
 13 14  2  0
 14 15  1  0
 15 16  2  0
 16 17  1  0
 13 18  1  0
 17 18  2  0
  6 19  2  0
 19 20  1  0
 20 21  1  0
  5 22  1  0
 20 22  1  0
  2 23  1  0
 22 23  2  0
M  END
