pyridine_urea_164
     RDKit          3D

 21 23  0  0  0  0  0  0  0  0999 V2000
   13.3910   -1.5830   25.5700 C   0  0  0  0  0  0  0  0  0  0  0  0
   12.4740   -0.8880   24.7870 N   0  0  0  0  0  0  0  0  0  0  0  0
   11.3250   -0.0130   25.2450 N   0  0  0  0  0  0  0  0  0  0  0  0
   10.4550    0.5780   24.1820 C   0  0  0  0  0  0  0  0  0  0  0  0
   10.3250    0.5720   22.6720 C   0  0  0  0  0  0  0  0  0  0  0  0
    9.0820   -0.0070   22.3300 N   0  0  0  0  0  0  0  0  0  0  0  0
    8.3600    0.4780   21.3940 C   0  0  0  0  0  0  0  0  0  0  0  0
    8.6600    1.8090   20.9300 O   0  0  0  0  0  0  0  0  0  0  0  0
    7.3300   -0.4380   20.9090 N   0  0  0  0  0  0  0  0  0  0  0  0
    6.5460    0.1270   19.8900 C   0  0  0  0  0  0  0  0  0  0  0  0
    5.2200    0.7970   20.1940 C   0  0  0  0  0  0  0  0  0  0  0  0
    4.4960    1.4150   19.0670 C   0  0  0  0  0  0  0  0  0  0  0  0
    5.0440    1.3310   17.8250 C   0  0  0  0  0  0  0  0  0  0  0  0
    6.2600    0.7070   17.5630 N   0  0  0  0  0  0  0  0  0  0  0  0
    6.9760    0.1350   18.6220 C   0  0  0  0  0  0  0  0  0  0  0  0
   11.5130   -0.1960   23.7500 C   0  0  0  0  0  0  0  0  0  0  0  0
   12.4740   -0.8990   23.3580 C   0  0  0  0  0  0  0  0  0  0  0  0
   13.1810   -1.4360   22.3240 C   0  0  0  0  0  0  0  0  0  0  0  0
   12.1870   -2.0690   21.4240 C   0  0  0  0  0  0  0  0  0  0  0  0
   11.0320   -1.2310   21.5610 O   0  0  0  0  0  0  0  0  0  0  0  0
   11.3170   -0.0340   22.2740 C   0  0  0  0  0  0  0  0  0  0  0  0
  1  2  1  0
  2  3  1  0
  3  4  2  0
  4  5  1  0
  5  6  1  0
  6  7  1  0
  7  8  2  0
  7  9  1  0
  9 10  1  0
 10 11  2  0
 11 12  1  0
 12 13  2  0
 13 14  1  0
 10 15  1  0
 14 15  2  0
  4 16  1  0
  2 17  1  0
 16 17  2  0
 17 18  1  0
 18 19  1  0
 19 20  1  0
 16 21  1  0
 20 21  1  0
M  END
