pyridine_urea_9209
     RDKit          3D

 18 20  0  0  0  0  0  0  0  0999 V2000
    8.3170    0.8540   20.7720 O   0  0  0  0  0  0  0  0  0  0  0  0
    8.0420   -0.2840   21.1240 C   0  0  0  0  0  0  0  0  0  0  0  0
    6.8960   -0.8920   20.7770 N   0  0  0  0  0  0  0  0  0  0  0  0
    6.2330   -0.1430   19.8280 C   0  0  0  0  0  0  0  0  0  0  0  0
    4.9940    0.4350   20.0860 C   0  0  0  0  0  0  0  0  0  0  0  0
    4.3990    1.2100   19.0950 C   0  0  0  0  0  0  0  0  0  0  0  0
    5.0690    1.3700   17.8980 C   0  0  0  0  0  0  0  0  0  0  0  0
    6.2600    0.8110   17.6400 N   0  0  0  0  0  0  0  0  0  0  0  0
    6.8040    0.0710   18.6090 C   0  0  0  0  0  0  0  0  0  0  0  0
    8.8950   -0.9470   21.9020 N   0  0  0  0  0  0  0  0  0  0  0  0
    9.6910    0.0310   22.5800 C   0  0  0  0  0  0  0  0  0  0  0  0
    8.9080    1.3990   22.5630 C   0  0  1  0  0  0  0  0  0  0  0  0
    8.7600    2.0840   23.7740 C   0  0  0  0  0  0  0  0  0  0  0  0
    9.4850    3.2770   23.7150 C   0  0  0  0  0  0  0  0  0  0  0  0
   10.2450    3.1860   22.5780 C   0  0  0  0  0  0  0  0  0  0  0  0
    9.6500    2.3120   21.7390 O   0  0  0  0  0  0  0  0  0  0  0  0
   10.2110   -0.4290   23.8040 C   0  0  0  0  0  0  0  0  0  0  0  0
   11.0900    0.0550   22.9150 C   0  0  0  0  0  0  0  0  0  0  0  0
  1  2  2  0
  2  3  1  0
  3  4  1  0
  4  5  2  0
  5  6  1  0
  6  7  2  0
  7  8  1  0
  4  9  1  0
  8  9  2  0
  2 10  1  0
 11 10  1  0
 12 11  1  1
 12 13  1  0
 13 14  1  0
 14 15  1  0
 12 16  1  0
 15 16  1  0
 11 17  1  0
 11 18  1  0
 17 18  1  0
M  END
