pyridine_urea_10956
     RDKit          3D

 19 20  0  0  0  0  0  0  0  0999 V2000
   13.7370   -1.8700   22.8180 N   0  0  0  0  0  0  0  0  0  0  0  0
   12.7630   -0.9800   22.9960 C   0  0  0  0  0  0  0  0  0  0  0  0
   11.5130   -1.5140   23.3250 C   0  0  0  0  0  0  0  0  0  0  0  0
   10.4590   -0.7160   23.5280 C   0  0  0  0  0  0  0  0  0  0  0  0
   10.3100    0.6950   23.4700 C   0  0  0  0  0  0  0  0  0  0  0  0
    9.1800   -0.0400   23.7890 C   0  0  0  0  0  0  0  0  0  0  0  0
    8.7330   -0.8580   22.8120 N   0  0  0  0  0  0  0  0  0  0  0  0
    8.3020   -0.2250   21.6940 C   0  0  0  0  0  0  0  0  0  0  0  0
    8.9080    0.7580   21.3010 O   0  0  0  0  0  0  0  0  0  0  0  0
    7.2020   -0.7020   21.0820 N   0  0  0  0  0  0  0  0  0  0  0  0
    6.5210   -0.0270   20.0050 C   0  0  0  0  0  0  0  0  0  0  0  0
    5.2580    0.7820   20.2890 C   0  0  0  0  0  0  0  0  0  0  0  0
    4.6270    1.4400   19.2430 C   0  0  0  0  0  0  0  0  0  0  0  0
    5.1460    1.3620   17.9510 C   0  0  0  0  0  0  0  0  0  0  0  0
    6.2780    0.6310   17.6810 N   0  0  0  0  0  0  0  0  0  0  0  0
    6.9830   -0.0820   18.7180 C   0  0  0  0  0  0  0  0  0  0  0  0
   11.7940    1.2740   23.0780 C   0  0  0  0  0  0  0  0  0  0  0  0
   12.0960    3.1300   22.8450 Br  0  0  0  0  0  0  0  0  0  0  0  0
   12.8460    0.3640   22.8950 C   0  0  0  0  0  0  0  0  0  0  0  0
  1  2  1  0
  2  3  2  0
  3  4  1  0
  4  5  2  0
  5  6  1  0
  6  7  1  0
  7  8  1  0
  8  9  2  0
  8 10  1  0
 10 11  1  0
 11 12  2  0
 12 13  1  0
 13 14  2  0
 14 15  1  0
 11 16  1  0
 15 16  2  0
  5 17  1  0
 17 18  1  0
  2 19  1  0
 17 19  2  0
M  END
