pyridine_urea_14250
     RDKit          3D

 22 24  0  0  0  0  0  0  0  0999 V2000
    8.7090    1.1860   21.0890 O   0  0  0  0  0  0  0  0  0  0  0  0
    8.1640    0.1840   21.5860 C   0  0  0  0  0  0  0  0  0  0  0  0
    7.0800   -0.5560   20.9650 N   0  0  0  0  0  0  0  0  0  0  0  0
    6.4110    0.0950   19.9660 C   0  0  0  0  0  0  0  0  0  0  0  0
    5.2450    0.8070   20.2380 C   0  0  0  0  0  0  0  0  0  0  0  0
    4.6100    1.4620   19.1830 C   0  0  0  0  0  0  0  0  0  0  0  0
    5.1690    1.3760   17.9050 C   0  0  0  0  0  0  0  0  0  0  0  0
    6.2870    0.6840   17.6450 N   0  0  0  0  0  0  0  0  0  0  0  0
    6.8830    0.0590   18.6780 C   0  0  0  0  0  0  0  0  0  0  0  0
    8.4530   -0.3980   22.7840 N   0  0  0  0  0  0  0  0  0  0  0  0
    9.8340   -0.5660   23.1320 C   0  0  1  0  0  0  0  0  0  0  0  0
   10.2530   -1.9990   23.2540 C   0  0  0  0  0  0  0  0  0  0  0  0
   11.0320   -2.3300   22.1360 C   0  0  0  0  0  0  0  0  0  0  0  0
   11.8730   -1.3240   21.9320 C   0  0  2  0  0  0  0  0  0  0  0  0
   12.3400   -1.1390   23.0610 C   0  0  0  0  0  0  0  0  0  0  0  0
   12.0830    0.0690   23.3910 C   0  0  0  0  0  0  0  0  0  0  0  0
   12.4040    0.3660   24.5490 C   0  0  0  0  0  0  0  0  0  0  0  0
   12.9890   -0.5710   25.4040 C   0  0  0  0  0  0  0  0  0  0  0  0
   13.2960   -1.8400   25.0390 C   0  0  0  0  0  0  0  0  0  0  0  0
   12.9500   -2.1190   23.7830 C   0  0  0  0  0  0  0  0  0  0  0  0
   13.1570   -3.2790   23.2500 F   0  0  0  0  0  0  0  0  0  0  0  0
   10.7370   -0.3090   21.9560 C   0  0  0  0  0  0  0  0  0  0  0  0
  1  2  2  0
  2  3  1  0
  3  4  1  0
  4  5  2  0
  5  6  1  0
  6  7  2  0
  7  8  1  0
  4  9  1  0
  8  9  2  0
  2 10  1  0
 11 10  1  6
 11 12  1  0
 12 13  1  0
 13 14  1  0
 14 15  1  1
 15 16  2  0
 16 17  1  0
 17 18  2  0
 18 19  1  0
 15 20  1  0
 19 20  2  0
 20 21  1  0
 11 22  1  0
 14 22  1  0
M  END
