pyridine_urea_6062
     RDKit          3D

 25 27  0  0  0  0  0  0  0  0999 V2000
   11.3540   -1.9900   22.1860 C   0  0  0  0  0  0  0  0  0  0  0  0
   10.4300   -0.8230   22.1380 C   0  0  1  0  0  0  0  0  0  0  0  0
    9.0300   -1.0500   22.4090 N   0  0  0  0  0  0  0  0  0  0  0  0
    8.2830   -0.2030   21.6250 C   0  0  0  0  0  0  0  0  0  0  0  0
    8.7170    0.8860   21.2810 O   0  0  0  0  0  0  0  0  0  0  0  0
    7.0550   -0.6590   21.2330 N   0  0  0  0  0  0  0  0  0  0  0  0
    6.3820   -0.0030   20.0890 C   0  0  0  0  0  0  0  0  0  0  0  0
    5.1830    0.6620   20.3320 C   0  0  0  0  0  0  0  0  0  0  0  0
    4.4750    1.3660   19.2330 C   0  0  0  0  0  0  0  0  0  0  0  0
    5.1820    1.2760   17.9000 C   0  0  0  0  0  0  0  0  0  0  0  0
    6.3410    0.6100   17.7200 N   0  0  0  0  0  0  0  0  0  0  0  0
    6.9030   -0.0050   18.7950 C   0  0  0  0  0  0  0  0  0  0  0  0
   10.9120    0.4960   22.7500 C   0  0  0  0  0  0  0  0  0  0  0  0
   10.2230    1.4350   23.1390 C   0  0  0  0  0  0  0  0  0  0  0  0
   11.6730    1.4360   23.1730 C   0  0  0  0  0  0  0  0  0  0  0  0
   11.6780    0.0200   22.5930 C   0  0  0  0  0  0  0  0  0  0  0  0
   13.0660    0.1640   22.6880 C   0  0  0  0  0  0  0  0  0  0  0  0
   12.2120    1.0080   23.0080 C   0  0  0  0  0  0  0  0  0  0  0  0
   12.6930    2.2280   23.5290 O   0  0  0  0  0  0  0  0  0  0  0  0
   12.1020    3.5080   23.1810 C   0  0  0  0  0  0  0  0  0  0  0  0
   12.8900    4.3660   22.4160 C   0  0  0  0  0  0  0  0  0  0  0  0
   12.3980    5.6250   22.0630 C   0  0  0  0  0  0  0  0  0  0  0  0
   11.1150    6.0170   22.4800 C   0  0  0  0  0  0  0  0  0  0  0  0
   10.3170    5.1490   23.2520 C   0  0  0  0  0  0  0  0  0  0  0  0
   10.8150    3.8950   23.6030 C   0  0  0  0  0  0  0  0  0  0  0  0
  2  1  1  1
  2  3  1  0
  3  4  1  0
  4  5  2  0
  4  6  1  0
  6  7  1  0
  7  8  2  0
  8  9  1  0
  9 10  2  0
 10 11  1  0
  7 12  1  0
 11 12  2  0
  2 13  1  0
 13 14  2  0
 14 15  1  0
 15 16  2  0
 16 17  1  0
 13 18  1  0
 17 18  2  0
 18 19  1  0
 19 20  1  0
 20 21  2  0
 21 22  1  0
 22 23  2  0
 23 24  1  0
 20 25  1  0
 24 25  2  0
M  END
