pyridine_urea_7790
     RDKit          3D

 27 29  0  0  0  0  0  0  0  0999 V2000
    3.1350    1.2690   20.7450 C   0  0  0  0  0  0  0  0  0  0  0  0
    4.4460    0.8950   20.0550 C   0  0  0  0  0  0  0  0  0  0  0  0
    5.3650    0.0730   20.6500 C   0  0  0  0  0  0  0  0  0  0  0  0
    6.5450   -0.2780   20.0670 C   0  0  0  0  0  0  0  0  0  0  0  0
    7.4500   -1.1260   20.8300 N   0  0  0  0  0  0  0  0  0  0  0  0
    8.4530   -0.4790   21.4830 C   0  0  0  0  0  0  0  0  0  0  0  0
    8.6620    0.7000   21.2330 O   0  0  0  0  0  0  0  0  0  0  0  0
    9.1550   -1.1850   22.3780 N   0  0  0  0  0  0  0  0  0  0  0  0
   10.4330   -0.7700   22.5200 C   0  0  0  0  0  0  0  0  0  0  0  0
   11.5720   -1.4500   22.3610 C   0  0  0  0  0  0  0  0  0  0  0  0
   12.9090   -0.7970   22.5650 C   0  0  0  0  0  0  0  0  0  0  0  0
   13.2820    0.5280   22.9230 C   0  0  0  0  0  0  0  0  0  0  0  0
   11.9930    1.0330   23.0270 N   0  0  0  0  0  0  0  0  0  0  0  0
   10.7320    0.5120   22.8670 C   0  0  0  0  0  0  0  0  0  0  0  0
    6.9250    0.1890   18.7080 C   0  0  0  0  0  0  0  0  0  0  0  0
    6.1120    1.0060   18.0260 N   0  0  0  0  0  0  0  0  0  0  0  0
    4.9310    1.3700   18.6700 C   0  0  0  0  0  0  0  0  0  0  0  0
    4.1170    2.2600   18.0120 N   0  0  0  0  0  0  0  0  0  0  0  0
    3.2060    3.1370   18.6900 C   0  0  0  0  0  0  0  0  0  0  0  0
    2.0160    3.5920   18.1710 O   0  0  0  0  0  0  0  0  0  0  0  0
    3.5940    3.5360   19.9730 C   0  0  0  0  0  0  0  0  0  0  0  0
    4.9000    3.3570   20.4240 C   0  0  0  0  0  0  0  0  0  0  0  0
    5.2820    3.7550   21.7000 C   0  0  0  0  0  0  0  0  0  0  0  0
    4.3480    4.3390   22.5440 C   0  0  0  0  0  0  0  0  0  0  0  0
    3.0320    4.5260   22.1120 C   0  0  0  0  0  0  0  0  0  0  0  0
    2.2150    5.0460   22.8770 O   0  0  0  0  0  0  0  0  0  0  0  0
    2.6450    4.1240   20.8180 C   0  0  0  0  0  0  0  0  0  0  0  0
  1  2  1  0
  2  3  2  0
  3  4  1  0
  4  5  1  0
  5  6  1  0
  6  7  2  0
  6  8  1  0
  8  9  1  0
  9 10  2  0
 10 11  1  0
 11 12  2  0
 12 13  1  0
  9 14  1  0
 13 14  2  0
  4 15  2  0
 15 16  1  0
  2 17  1  0
 16 17  2  0
 17 18  1  0
 18 19  1  0
 19 20  2  0
 19 21  1  0
 21 22  2  0
 22 23  1  0
 23 24  2  0
 24 25  1  0
 25 26  1  0
 21 27  1  0
 25 27  2  0
M  END
