pyridine_urea_6645
     RDKit          3D

 22 23  0  0  0  0  0  0  0  0999 V2000
   12.4150   -2.2160   21.3360 C   0  0  0  0  0  0  0  0  0  0  0  0
   11.4560   -1.3220   21.9260 O   0  0  0  0  0  0  0  0  0  0  0  0
   11.9660   -0.1330   22.3870 C   0  0  2  0  0  0  0  0  0  0  0  0
   13.0910   -1.0900   22.6660 C   0  0  0  0  0  0  0  0  0  0  0  0
   12.2800   -0.9330   23.8430 C   0  0  0  0  0  0  0  0  0  0  0  0
   11.1240   -0.0740   24.0180 C   0  0  0  0  0  0  0  0  0  0  0  0
   11.4450   -0.8250   25.0680 C   0  0  0  0  0  0  0  0  0  0  0  0
   10.6090   -0.6420   26.1050 F   0  0  0  0  0  0  0  0  0  0  0  0
   12.5840   -1.7400   25.0560 C   0  0  0  0  0  0  0  0  0  0  0  0
   13.4630   -1.9280   23.9160 C   0  0  0  0  0  0  0  0  0  0  0  0
   10.5290   -0.0470   23.0320 C   0  0  1  0  0  0  0  0  0  0  0  0
   10.2040    1.2850   23.2490 C   0  0  0  0  0  0  0  0  0  0  0  0
    9.4830   -0.6600   22.2120 N   0  0  0  0  0  0  0  0  0  0  0  0
    8.5620    0.1800   21.4450 C   0  0  0  0  0  0  0  0  0  0  0  0
    8.8830    1.5350   21.1390 O   0  0  0  0  0  0  0  0  0  0  0  0
    7.4080   -0.4600   21.0660 N   0  0  0  0  0  0  0  0  0  0  0  0
    6.6390    0.0950   20.0450 C   0  0  0  0  0  0  0  0  0  0  0  0
    5.3770    0.8830   20.3530 C   0  0  0  0  0  0  0  0  0  0  0  0
    4.6670    1.4330   19.3250 C   0  0  0  0  0  0  0  0  0  0  0  0
    5.1220    1.2530   18.0320 C   0  0  0  0  0  0  0  0  0  0  0  0
    6.2210    0.5580   17.6970 N   0  0  0  0  0  0  0  0  0  0  0  0
    6.9480   -0.0020   18.7000 C   0  0  0  0  0  0  0  0  0  0  0  0
  1  2  1  0
  3  2  1  6
  3  4  1  0
  4  5  2  0
  5  6  1  0
  6  7  2  0
  7  8  1  0
  7  9  1  0
  4 10  1  0
  9 10  2  0
  3 11  1  0
 11 12  1  6
 11 13  1  0
 13 14  1  0
 14 15  2  0
 14 16  1  0
 16 17  1  0
 17 18  2  0
 18 19  1  0
 19 20  2  0
 20 21  1  0
 17 22  1  0
 21 22  2  0
M  END
