pyridine_urea_8922
     RDKit          3D

 20 21  0  0  0  0  0  0  0  0999 V2000
   11.9220   -2.3080   21.4180 C   0  0  0  0  0  0  0  0  0  0  0  0
   13.0730   -2.4640   22.2200 O   0  0  0  0  0  0  0  0  0  0  0  0
   13.0230   -1.7760   23.3750 C   0  0  0  0  0  0  0  0  0  0  0  0
   12.8800   -2.2880   24.4800 O   0  0  0  0  0  0  0  0  0  0  0  0
   13.1670   -0.2770   23.1550 C   0  0  0  0  0  0  0  0  0  0  0  0
   12.8750    1.0250   22.9610 C   0  0  0  0  0  0  0  0  0  0  0  0
   11.6180    1.4070   22.8940 C   0  0  0  0  0  0  0  0  0  0  0  0
   10.6500    0.4700   23.0210 C   0  0  0  0  0  0  0  0  0  0  0  0
   10.0310   -0.7520   23.1920 C   0  0  0  0  0  0  0  0  0  0  0  0
    8.8490   -0.9330   22.4660 N   0  0  0  0  0  0  0  0  0  0  0  0
    8.3300   -0.0420   21.5490 C   0  0  0  0  0  0  0  0  0  0  0  0
    8.9490    1.2170   21.2170 O   0  0  0  0  0  0  0  0  0  0  0  0
    7.1450   -0.5250   21.0360 N   0  0  0  0  0  0  0  0  0  0  0  0
    6.4610    0.0870   20.0180 C   0  0  0  0  0  0  0  0  0  0  0  0
    5.2800    0.7750   20.3290 C   0  0  0  0  0  0  0  0  0  0  0  0
    4.5810    1.4220   19.3010 C   0  0  0  0  0  0  0  0  0  0  0  0
    5.1520    1.3330   17.9280 C   0  0  0  0  0  0  0  0  0  0  0  0
    6.2750    0.6590   17.6720 N   0  0  0  0  0  0  0  0  0  0  0  0
    6.8950    0.0590   18.7090 C   0  0  0  0  0  0  0  0  0  0  0  0
   11.7640   -0.4770   23.1720 O   0  0  0  0  0  0  0  0  0  0  0  0
  1  2  1  0
  2  3  1  0
  3  4  2  0
  3  5  1  0
  5  6  2  0
  6  7  1  0
  7  8  2  0
  8  9  1  0
  9 10  1  0
 10 11  1  0
 11 12  2  0
 11 13  1  0
 13 14  1  0
 14 15  2  0
 15 16  1  0
 16 17  2  0
 17 18  1  0
 14 19  1  0
 18 19  2  0
  5 20  1  0
  8 20  1  0
M  END
