pyridine_urea_9257
     RDKit          3D

 17 18  0  0  0  0  0  0  0  0999 V2000
    7.4480    3.0630   21.7370 C   0  0  0  0  0  0  0  0  0  0  0  0
    8.8340    3.0200   22.3150 C   0  0  0  0  0  0  0  0  0  0  0  0
    9.2200    2.0270   23.2160 C   0  0  0  0  0  0  0  0  0  0  0  0
   10.2800    1.1830   22.8430 C   0  0  0  0  0  0  0  0  0  0  0  0
   10.2200   -0.1960   23.0020 C   0  0  0  0  0  0  0  0  0  0  0  0
    8.8910   -0.6240   22.6170 N   0  0  0  0  0  0  0  0  0  0  0  0
    8.3580    0.0560   21.5530 C   0  0  0  0  0  0  0  0  0  0  0  0
    8.8530    1.1200   21.1370 O   0  0  0  0  0  0  0  0  0  0  0  0
    7.1780   -0.5670   20.9970 N   0  0  0  0  0  0  0  0  0  0  0  0
    6.4970    0.0190   19.9980 C   0  0  0  0  0  0  0  0  0  0  0  0
    5.1930    0.7780   20.3020 C   0  0  0  0  0  0  0  0  0  0  0  0
    4.5630    1.3830   19.2340 C   0  0  0  0  0  0  0  0  0  0  0  0
    5.1250    1.2780   17.9660 C   0  0  0  0  0  0  0  0  0  0  0  0
    6.2550    0.6100   17.6830 N   0  0  0  0  0  0  0  0  0  0  0  0
    6.9130   -0.0010   18.6870 C   0  0  0  0  0  0  0  0  0  0  0  0
   11.2120   -0.7390   23.6910 C   0  0  0  0  0  0  0  0  0  0  0  0
   11.5130   -1.0210   22.4450 C   0  0  0  0  0  0  0  0  0  0  0  0
  1  2  1  0
  2  3  1  0
  3  4  1  0
  4  5  1  0
  5  6  1  0
  6  7  1  0
  7  8  2  0
  7  9  1  0
  9 10  1  0
 10 11  2  0
 11 12  1  0
 12 13  2  0
 13 14  1  0
 10 15  1  0
 14 15  2  0
  5 16  1  0
  5 17  1  0
 16 17  1  0
M  END
