pyridine_urea_5332
     RDKit          3D

 19 20  0  0  0  0  0  0  0  0999 V2000
   12.8850    1.4160   22.9630 C   0  0  0  0  0  0  0  0  0  0  0  0
   11.9880    0.2460   23.0050 C   0  0  0  0  0  0  0  0  0  0  0  0
   10.8590    0.6370   23.4100 C   0  0  0  0  0  0  0  0  0  0  0  0
   10.8090    1.9400   23.6630 N   0  0  0  0  0  0  0  0  0  0  0  0
   12.2270    2.0060   23.2700 C   0  0  0  0  0  0  0  0  0  0  0  0
   13.0610    0.7750   22.8060 C   0  0  0  0  0  0  0  0  0  0  0  0
   12.5860   -0.7530   22.6370 C   0  0  0  0  0  0  0  0  0  0  0  0
   11.5140   -1.6400   22.7520 C   0  0  0  0  0  0  0  0  0  0  0  0
   10.1470   -1.1290   23.2560 C   0  0  0  0  0  0  0  0  0  0  0  0
    9.1690   -1.3190   22.3050 N   0  0  0  0  0  0  0  0  0  0  0  0
    8.4820   -0.3400   21.5590 C   0  0  0  0  0  0  0  0  0  0  0  0
    8.9040    0.7960   21.3700 O   0  0  0  0  0  0  0  0  0  0  0  0
    7.2630   -0.6940   21.0310 N   0  0  0  0  0  0  0  0  0  0  0  0
    6.4910   -0.0000   20.0840 C   0  0  0  0  0  0  0  0  0  0  0  0
    5.3120    0.7170   20.3280 C   0  0  0  0  0  0  0  0  0  0  0  0
    4.6630    1.3690   19.2700 C   0  0  0  0  0  0  0  0  0  0  0  0
    5.1990    1.2950   17.9900 C   0  0  0  0  0  0  0  0  0  0  0  0
    6.3210    0.6110   17.7220 N   0  0  0  0  0  0  0  0  0  0  0  0
    6.9400   -0.0210   18.7730 C   0  0  0  0  0  0  0  0  0  0  0  0
  1  2  1  0
  2  3  2  0
  3  4  1  0
  4  5  2  0
  5  6  1  0
  2  7  1  0
  6  7  2  0
  7  8  1  0
  8  9  1  0
  9 10  1  0
 10 11  1  0
 11 12  2  0
 11 13  1  0
 13 14  1  0
 14 15  2  0
 15 16  1  0
 16 17  2  0
 17 18  1  0
 14 19  1  0
 18 19  2  0
M  END
