pyridine_urea_2533
     RDKit          3D

 24 25  0  0  0  0  0  0  0  0999 V2000
   13.4510   -3.3670   20.6540 C   0  0  0  0  0  0  0  0  0  0  0  0
   12.7960   -2.1100   21.1080 C   0  0  0  0  0  0  0  0  0  0  0  0
   12.0370   -2.3070   22.2880 O   0  0  0  0  0  0  0  0  0  0  0  0
   11.8140   -1.1230   22.8860 C   0  0  0  0  0  0  0  0  0  0  0  0
   13.2410   -1.1630   22.9690 O   0  0  0  0  0  0  0  0  0  0  0  0
   10.5880   -1.6880   22.5160 C   0  0  0  0  0  0  0  0  0  0  0  0
    9.6230   -0.7800   22.1890 C   0  0  1  0  0  0  0  0  0  0  0  0
    8.2730   -1.1220   22.2970 N   0  0  0  0  0  0  0  0  0  0  0  0
    7.6010   -0.3330   21.4700 C   0  0  0  0  0  0  0  0  0  0  0  0
    7.9980    0.7980   21.2150 O   0  0  0  0  0  0  0  0  0  0  0  0
    6.4340   -0.9180   20.8840 N   0  0  0  0  0  0  0  0  0  0  0  0
    5.9400   -0.1270   19.9080 C   0  0  0  0  0  0  0  0  0  0  0  0
    4.6920    0.7190   20.0110 C   0  0  0  0  0  0  0  0  0  0  0  0
    4.3400    1.4950   18.9140 C   0  0  0  0  0  0  0  0  0  0  0  0
    5.1490    1.4540   17.7800 C   0  0  0  0  0  0  0  0  0  0  0  0
    6.2650    0.7000   17.6670 N   0  0  0  0  0  0  0  0  0  0  0  0
    6.6320   -0.0590   18.7150 C   0  0  0  0  0  0  0  0  0  0  0  0
    9.9050    0.6280   22.5950 C   0  0  0  0  0  0  0  0  0  0  0  0
    9.1940    1.8160   22.8450 C   0  0  0  0  0  0  0  0  0  0  0  0
   10.0060    2.9910   23.1860 C   0  0  0  0  0  0  0  0  0  0  0  0
   11.4650    2.9270   23.2650 C   0  0  0  0  0  0  0  0  0  0  0  0
   11.9680    1.6660   23.0010 C   0  0  0  0  0  0  0  0  0  0  0  0
   13.4760    0.6870   22.8680 Br  0  0  0  0  0  0  0  0  0  0  0  0
   11.0820    0.8950   22.7480 C   0  0  0  0  0  0  0  0  0  0  0  0
  1  2  1  0
  2  3  1  0
  3  4  1  0
  4  5  2  0
  4  6  1  0
  7  6  1  1
  7  8  1  0
  8  9  1  0
  9 10  2  0
  9 11  1  0
 11 12  1  0
 12 13  2  0
 13 14  1  0
 14 15  2  0
 15 16  1  0
 12 17  1  0
 16 17  2  0
  7 18  1  0
 18 19  2  0
 19 20  1  0
 20 21  2  0
 21 22  1  0
 22 23  1  0
 18 24  1  0
 22 24  2  0
M  END
