pyridine_urea_1100
     RDKit          3D

 21 23  0  0  0  0  0  0  0  0999 V2000
    8.6420    1.4970   20.9040 O   0  0  0  0  0  0  0  0  0  0  0  0
    8.1950    0.5130   21.4810 C   0  0  0  0  0  0  0  0  0  0  0  0
    7.1710   -0.3640   20.9530 N   0  0  0  0  0  0  0  0  0  0  0  0
    6.4550    0.2150   19.9520 C   0  0  0  0  0  0  0  0  0  0  0  0
    5.2860    0.9180   20.2340 C   0  0  0  0  0  0  0  0  0  0  0  0
    4.6140    1.5100   19.1730 C   0  0  0  0  0  0  0  0  0  0  0  0
    5.1360    1.3720   17.8860 C   0  0  0  0  0  0  0  0  0  0  0  0
    6.2530    0.6840   17.6170 N   0  0  0  0  0  0  0  0  0  0  0  0
    6.8890    0.1200   18.6600 C   0  0  0  0  0  0  0  0  0  0  0  0
    8.5620    0.0940   22.6930 N   0  0  0  0  0  0  0  0  0  0  0  0
    9.7580   -0.6540   22.7840 C   0  0  0  0  0  0  0  0  0  0  0  0
   10.0630   -1.5950   21.6730 C   0  0  0  0  0  0  0  0  0  0  0  0
   11.1510   -1.9470   22.2920 N   0  0  0  0  0  0  0  0  0  0  0  0
   11.8830   -1.7340   23.4150 C   0  0  0  0  0  0  0  0  0  0  0  0
   13.0200   -2.5650   23.3740 C   0  0  0  0  0  0  0  0  0  0  0  0
   12.7710   -1.7860   24.3120 C   0  0  0  0  0  0  0  0  0  0  0  0
   13.8280   -2.1590   24.9300 C   0  0  0  0  0  0  0  0  0  0  0  0
   12.8330   -1.3080   25.1160 C   0  0  0  0  0  0  0  0  0  0  0  0
   11.6460   -0.7760   24.6300 C   0  0  0  0  0  0  0  0  0  0  0  0
   10.4750   -0.3350   24.0260 C   0  0  0  0  0  0  0  0  0  0  0  0
    9.6120    0.8520   24.9100 Cl  0  0  0  0  0  0  0  0  0  0  0  0
  1  2  2  0
  2  3  1  0
  3  4  1  0
  4  5  2  0
  5  6  1  0
  6  7  2  0
  7  8  1  0
  4  9  1  0
  8  9  2  0
  2 10  1  0
 10 11  1  0
 11 12  2  0
 12 13  1  0
 13 14  2  0
 14 15  1  0
 15 16  2  0
 16 17  1  0
 17 18  2  0
 14 19  1  0
 18 19  1  0
 11 20  1  0
 19 20  2  0
 20 21  1  0
M  END
