pyridine_urea_7660
     RDKit          3D

 19 21  0  0  0  0  0  0  0  0999 V2000
    8.9150    1.1060   21.2340 O   0  0  0  0  0  0  0  0  0  0  0  0
    8.2740    0.1280   21.6390 C   0  0  0  0  0  0  0  0  0  0  0  0
    7.2270   -0.4840   21.0120 N   0  0  0  0  0  0  0  0  0  0  0  0
    6.5140    0.1130   19.9820 C   0  0  0  0  0  0  0  0  0  0  0  0
    5.3570    0.8370   20.2820 C   0  0  0  0  0  0  0  0  0  0  0  0
    4.6500    1.4560   19.2570 C   0  0  0  0  0  0  0  0  0  0  0  0
    5.1330    1.3230   17.9740 C   0  0  0  0  0  0  0  0  0  0  0  0
    6.2340    0.6240   17.6670 N   0  0  0  0  0  0  0  0  0  0  0  0
    6.8980    0.0370   18.6740 C   0  0  0  0  0  0  0  0  0  0  0  0
    8.5120   -0.5090   22.8350 N   0  0  0  0  0  0  0  0  0  0  0  0
    9.8740   -0.7240   23.3340 C   0  0  2  0  0  0  0  0  0  0  0  0
   10.7690    0.1490   22.9260 C   0  0  0  0  0  0  0  0  0  0  0  0
   10.8040   -1.2570   22.3610 C   0  0  1  0  0  0  0  0  0  0  0  0
   11.8120   -2.0870   22.6310 N   0  0  0  0  0  0  0  0  0  0  0  0
   12.9780   -1.5900   22.2020 C   0  0  0  0  0  0  0  0  0  0  0  0
   13.2320   -0.3350   22.7210 C   0  0  0  0  0  0  0  0  0  0  0  0
   13.2280   -0.4760   24.1290 O   0  0  0  0  0  0  0  0  0  0  0  0
   13.0580   -1.8320   24.5460 C   0  0  0  0  0  0  0  0  0  0  0  0
   11.9450   -2.4430   23.9610 C   0  0  0  0  0  0  0  0  0  0  0  0
  1  2  2  0
  2  3  1  0
  3  4  1  0
  4  5  2  0
  5  6  1  0
  6  7  2  0
  7  8  1  0
  4  9  1  0
  8  9  2  0
  2 10  1  0
 11 10  1  6
 11 12  1  0
 11 13  1  0
 12 13  1  0
 13 14  1  1
 14 15  1  0
 15 16  1  0
 16 17  1  0
 17 18  1  0
 14 19  1  0
 18 19  1  0
M  END
