pyridine_urea_6904
     RDKit          3D

 20 21  0  0  0  0  0  0  0  0999 V2000
    9.0300    1.2310   21.2240 O   0  0  0  0  0  0  0  0  0  0  0  0
    8.4640    0.2070   21.6230 C   0  0  0  0  0  0  0  0  0  0  0  0
    8.8210   -0.5060   22.7400 N   0  0  0  0  0  0  0  0  0  0  0  0
    9.9210   -1.3570   22.8770 C   0  0  0  0  0  0  0  0  0  0  0  0
    9.7970   -2.6930   22.6360 C   0  0  0  0  0  0  0  0  0  0  0  0
    8.7060   -3.3100   23.2240 N   0  0  0  0  0  0  0  0  0  0  0  0
    8.6930   -3.9030   24.5600 C   0  0  0  0  0  0  0  0  0  0  0  0
    9.9340   -3.9910   25.1780 C   0  0  0  0  0  0  0  0  0  0  0  0
   10.0270   -4.5400   26.4350 C   0  0  0  0  0  0  0  0  0  0  0  0
    8.7930   -5.0480   27.1680 C   0  0  0  0  0  0  0  0  0  0  0  0
    8.8810   -5.5890   28.4190 O   0  0  0  0  0  0  0  0  0  0  0  0
    7.5730   -4.9400   26.5170 C   0  0  0  0  0  0  0  0  0  0  0  0
    7.5270   -4.3720   25.2240 C   0  0  0  0  0  0  0  0  0  0  0  0
    7.3670   -0.3660   21.0150 N   0  0  0  0  0  0  0  0  0  0  0  0
    6.5620    0.2190   20.0510 C   0  0  0  0  0  0  0  0  0  0  0  0
    5.4030    0.9490   20.2930 C   0  0  0  0  0  0  0  0  0  0  0  0
    4.6390    1.5540   19.1880 C   0  0  0  0  0  0  0  0  0  0  0  0
    5.1610    1.3380   17.9220 C   0  0  0  0  0  0  0  0  0  0  0  0
    6.2650    0.6320   17.6460 N   0  0  0  0  0  0  0  0  0  0  0  0
    6.9480    0.0790   18.7310 C   0  0  0  0  0  0  0  0  0  0  0  0
  1  2  2  0
  2  3  1  0
  3  4  1  0
  4  5  1  0
  5  6  1  0
  6  7  1  0
  7  8  2  0
  8  9  1  0
  9 10  2  0
 10 11  1  0
 10 12  1  0
  7 13  1  0
 12 13  2  0
  2 14  1  0
 14 15  1  0
 15 16  2  0
 16 17  1  0
 17 18  2  0
 18 19  1  0
 15 20  1  0
 19 20  2  0
M  END
