pyridine_urea_10351
     RDKit          3D

 22 25  0  0  0  0  0  0  0  0999 V2000
    8.7220    1.5370   21.0450 O   0  0  0  0  0  0  0  0  0  0  0  0
    8.5270    0.3690   21.3740 C   0  0  0  0  0  0  0  0  0  0  0  0
    7.4530   -0.3990   20.9840 N   0  0  0  0  0  0  0  0  0  0  0  0
    6.5620    0.1600   20.0780 C   0  0  0  0  0  0  0  0  0  0  0  0
    5.2400    0.8420   20.4550 C   0  0  0  0  0  0  0  0  0  0  0  0
    4.4800    1.4090   19.2620 C   0  0  0  0  0  0  0  0  0  0  0  0
    5.0990    1.2340   17.9160 C   0  0  0  0  0  0  0  0  0  0  0  0
    6.2560    0.6030   17.7020 N   0  0  0  0  0  0  0  0  0  0  0  0
    6.9290    0.1000   18.7480 C   0  0  0  0  0  0  0  0  0  0  0  0
    9.4120   -0.2700   22.1730 N   0  0  0  0  0  0  0  0  0  0  0  0
   10.1130    0.5270   23.1520 C   0  0  2  0  0  0  0  0  0  0  0  0
   11.4780    0.5000   23.1730 C   0  0  0  0  0  0  0  0  0  0  0  0
   11.8220   -0.8350   23.5840 C   0  0  1  0  0  0  0  0  0  0  0  0
   13.1880   -1.2270   23.5600 C   0  0  0  0  0  0  0  0  0  0  0  0
   13.4800   -2.5910   23.8250 C   0  0  0  0  0  0  0  0  0  0  0  0
   13.3520   -2.7400   25.1880 C   0  0  0  0  0  0  0  0  0  0  0  0
   12.2410   -1.8150   24.8220 C   0  0  0  0  0  0  0  0  0  0  0  0
   11.7800   -0.9690   23.9600 C   0  0  0  0  0  0  0  0  0  0  0  0
   12.6040   -0.8790   23.0610 C   0  0  0  0  0  0  0  0  0  0  0  0
   11.3120   -0.1670   23.1420 C   0  0  0  0  0  0  0  0  0  0  0  0
   10.2530   -0.2860   24.3260 C   0  0  0  0  0  0  0  0  0  0  0  0
   11.1390   -1.2690   25.0430 C   0  0  0  0  0  0  0  0  0  0  0  0
  1  2  2  0
  2  3  1  0
  3  4  1  0
  4  5  2  0
  5  6  1  0
  6  7  2  0
  7  8  1  0
  4  9  1  0
  8  9  2  0
  2 10  1  0
 11 10  1  6
 11 12  1  0
 13 12  1  1
 13 14  1  0
 14 15  1  0
 15 16  1  0
 16 17  1  0
 17 18  1  0
 18 19  2  0
 19 20  1  0
 11 21  1  0
 20 21  2  0
 13 22  1  0
 17 22  2  0
 21 22  1  0
M  END
