pyridine_urea_513
     RDKit          3D

 25 27  0  0  0  0  0  0  0  0999 V2000
   13.0300    4.0730   20.5260 N   0  0  0  0  0  0  0  0  0  0  0  0
   13.8500    4.8720   21.2310 C   0  0  0  0  0  0  0  0  0  0  0  0
   13.0060    5.2290   22.3320 C   0  0  0  0  0  0  0  0  0  0  0  0
   12.7640    6.4820   22.8220 C   0  0  0  0  0  0  0  0  0  0  0  0
   11.8810    6.6050   23.8790 C   0  0  0  0  0  0  0  0  0  0  0  0
   11.2930    5.4580   24.4000 C   0  0  0  0  0  0  0  0  0  0  0  0
   11.5730    4.1570   23.8890 C   0  0  0  0  0  0  0  0  0  0  0  0
   11.0780    3.1640   24.3920 O   0  0  0  0  0  0  0  0  0  0  0  0
   10.9580    1.9130   23.8080 C   0  0  0  0  0  0  0  0  0  0  0  0
    9.6790    1.7060   23.7920 C   0  0  0  0  0  0  0  0  0  0  0  0
    9.2980    0.5990   23.2470 C   0  0  0  0  0  0  0  0  0  0  0  0
   10.2040   -0.2740   22.7380 C   0  0  0  0  0  0  0  0  0  0  0  0
    9.3840   -1.2320   22.2030 N   0  0  0  0  0  0  0  0  0  0  0  0
    8.3990   -0.5590   21.4120 C   0  0  0  0  0  0  0  0  0  0  0  0
    8.6170    0.5990   21.0690 O   0  0  0  0  0  0  0  0  0  0  0  0
    7.2520   -1.1740   21.0820 N   0  0  0  0  0  0  0  0  0  0  0  0
    6.5650   -0.3790   20.0320 C   0  0  0  0  0  0  0  0  0  0  0  0
    5.3670    0.3010   20.3890 C   0  0  0  0  0  0  0  0  0  0  0  0
    4.6700    1.0890   19.4370 C   0  0  0  0  0  0  0  0  0  0  0  0
    5.1720    1.1950   18.1420 C   0  0  0  0  0  0  0  0  0  0  0  0
    6.3230    0.5340   17.8100 N   0  0  0  0  0  0  0  0  0  0  0  0
    7.0110   -0.2450   18.7370 C   0  0  0  0  0  0  0  0  0  0  0  0
   11.6530   -0.2230   22.7160 C   0  0  0  0  0  0  0  0  0  0  0  0
   11.8730    1.0320   23.3310 N   0  0  0  0  0  0  0  0  0  0  0  0
   12.4030    4.0080   22.8690 C   0  0  0  0  0  0  0  0  0  0  0  0
  1  2  3  0
  2  3  1  0
  3  4  2  0
  4  5  1  0
  5  6  2  0
  6  7  1  0
  7  8  1  0
  8  9  1  0
  9 10  2  0
 10 11  1  0
 11 12  2  0
 12 13  1  0
 13 14  1  0
 14 15  2  0
 14 16  1  0
 16 17  1  0
 17 18  2  0
 18 19  1  0
 19 20  2  0
 20 21  1  0
 17 22  1  0
 21 22  2  0
 12 23  1  0
  9 24  1  0
 23 24  2  0
  3 25  1  0
  7 25  2  0
M  END
