pyridine_urea_5047
     RDKit          3D

 20 22  0  0  0  0  0  0  0  0999 V2000
    8.8690    0.7560   21.3690 O   0  0  0  0  0  0  0  0  0  0  0  0
    8.3190   -0.3350   21.2820 C   0  0  0  0  0  0  0  0  0  0  0  0
    7.0020   -0.5600   21.0360 N   0  0  0  0  0  0  0  0  0  0  0  0
    6.3680    0.0830   19.9870 C   0  0  0  0  0  0  0  0  0  0  0  0
    5.1840    0.7810   20.2160 C   0  0  0  0  0  0  0  0  0  0  0  0
    4.5620    1.4390   19.1580 C   0  0  0  0  0  0  0  0  0  0  0  0
    5.1550    1.3700   17.9150 C   0  0  0  0  0  0  0  0  0  0  0  0
    6.2890    0.6950   17.6800 N   0  0  0  0  0  0  0  0  0  0  0  0
    6.8660    0.0700   18.7130 C   0  0  0  0  0  0  0  0  0  0  0  0
    8.9990   -1.5040   21.4220 N   0  0  0  0  0  0  0  0  0  0  0  0
   10.2080   -1.3680   22.1430 C   0  0  0  0  0  0  0  0  0  0  0  0
   11.5960   -1.6760   21.5580 C   0  0  0  0  0  0  0  0  0  0  0  0
   12.6840   -1.4960   22.3570 C   0  0  0  0  0  0  0  0  0  0  0  0
   12.4390   -1.0780   23.6210 C   0  0  0  0  0  0  0  0  0  0  0  0
   13.2980   -0.8710   24.5310 N   0  0  0  0  0  0  0  0  0  0  0  0
   12.6510   -0.4890   25.6280 N   0  0  0  0  0  0  0  0  0  0  0  0
   11.3270   -0.4690   25.3530 N   0  0  0  0  0  0  0  0  0  0  0  0
   10.2960   -0.1400   26.2160 O   0  0  0  0  0  0  0  0  0  0  0  0
   11.2060   -0.8190   24.1370 C   0  0  0  0  0  0  0  0  0  0  0  0
   10.0860   -0.9460   23.4200 C   0  0  0  0  0  0  0  0  0  0  0  0
  1  2  2  0
  2  3  1  0
  3  4  1  0
  4  5  2  0
  5  6  1  0
  6  7  2  0
  7  8  1  0
  4  9  1  0
  8  9  2  0
  2 10  1  0
 10 11  1  0
 11 12  2  0
 12 13  1  0
 13 14  2  0
 14 15  1  0
 15 16  2  0
 16 17  1  0
 17 18  1  0
 14 19  1  0
 17 19  1  0
 11 20  1  0
 19 20  2  0
M  END
