pyridine_urea_11525
     RDKit          3D

 19 21  0  0  0  0  0  0  0  0999 V2000
    8.5830    1.2020   21.1210 O   0  0  0  0  0  0  0  0  0  0  0  0
    8.1200    0.1040   21.4800 C   0  0  0  0  0  0  0  0  0  0  0  0
    6.9830   -0.4770   21.0360 N   0  0  0  0  0  0  0  0  0  0  0  0
    6.3430    0.1190   19.9680 C   0  0  0  0  0  0  0  0  0  0  0  0
    5.1530    0.8060   20.1850 C   0  0  0  0  0  0  0  0  0  0  0  0
    4.5260    1.4300   19.1120 C   0  0  0  0  0  0  0  0  0  0  0  0
    5.1230    1.3360   17.8740 C   0  0  0  0  0  0  0  0  0  0  0  0
    6.2640    0.6690   17.6520 N   0  0  0  0  0  0  0  0  0  0  0  0
    6.8480    0.0760   18.6980 C   0  0  0  0  0  0  0  0  0  0  0  0
    8.7950   -0.6380   22.3780 N   0  0  0  0  0  0  0  0  0  0  0  0
   10.1630   -0.2560   22.2880 C   0  0  1  0  0  0  0  0  0  0  0  0
   10.5150    0.8330   23.3020 C   0  0  0  0  0  0  0  0  0  0  0  0
   11.5510    0.3990   24.0540 C   0  0  0  0  0  0  0  0  0  0  0  0
   11.8820   -0.8730   23.6450 C   0  0  0  0  0  0  0  0  0  0  0  0
   13.1960   -1.0490   23.4140 C   0  0  0  0  0  0  0  0  0  0  0  0
   13.5310   -2.2580   24.0120 C   0  0  0  0  0  0  0  0  0  0  0  0
   12.3800   -2.9030   24.4290 C   0  0  0  0  0  0  0  0  0  0  0  0
   11.4310   -1.7640   24.5820 C   0  0  0  0  0  0  0  0  0  0  0  0
   11.1970   -1.3500   22.3830 C   0  0  0  0  0  0  0  0  0  0  0  0
  1  2  2  0
  2  3  1  0
  3  4  1  0
  4  5  2  0
  5  6  1  0
  6  7  2  0
  7  8  1  0
  4  9  1  0
  8  9  2  0
  2 10  1  0
 11 10  1  1
 11 12  1  0
 12 13  1  0
 14 13  1  0
 14 15  1  0
 15 16  1  0
 16 17  1  0
 14 18  1  0
 17 18  1  0
 11 19  1  0
 14 19  1  0
M  END
