pyridine_urea_13809
     RDKit          3D

 25 27  0  0  0  0  0  0  0  0999 V2000
   12.7880    1.6270   22.9980 C   0  0  0  0  0  0  0  0  0  0  0  0
   13.1470    0.2400   23.0080 O   0  0  0  0  0  0  0  0  0  0  0  0
   11.9520   -0.5190   22.8370 C   0  0  0  0  0  0  0  0  0  0  0  0
   12.0470    0.7740   23.6960 C   0  0  0  0  0  0  0  0  0  0  0  0
   12.7590   -0.1170   22.8920 C   0  0  0  0  0  0  0  0  0  0  0  0
   11.6410   -0.9790   22.5850 C   0  0  0  0  0  0  0  0  0  0  0  0
   10.1230   -0.9490   22.9880 C   0  0  1  0  0  0  0  0  0  0  0  0
    9.7330    0.2930   23.7210 C   0  0  0  0  0  0  0  0  0  0  0  0
    9.0040   -0.0710   24.9280 N   0  0  0  0  0  0  0  0  0  0  0  0
    9.5450   -0.9140   25.8450 C   0  0  0  0  0  0  0  0  0  0  0  0
    8.6770   -0.6770   27.0240 C   0  0  0  0  0  0  0  0  0  0  0  0
    7.6490    0.1950   26.6450 C   0  0  0  0  0  0  0  0  0  0  0  0
    7.8710    0.7790   25.3700 C   0  0  0  0  0  0  0  0  0  0  0  0
    9.5000   -0.9700   21.7340 N   0  0  0  0  0  0  0  0  0  0  0  0
    8.5400   -0.0050   21.3520 C   0  0  0  0  0  0  0  0  0  0  0  0
    8.8240    1.4100   21.1720 O   0  0  0  0  0  0  0  0  0  0  0  0
    7.3320   -0.5900   21.1360 N   0  0  0  0  0  0  0  0  0  0  0  0
    6.5860    0.0320   20.1880 C   0  0  0  0  0  0  0  0  0  0  0  0
    5.3390    0.8270   20.4330 C   0  0  0  0  0  0  0  0  0  0  0  0
    4.6540    1.4640   19.2580 C   0  0  0  0  0  0  0  0  0  0  0  0
    5.1840    1.3040   17.9800 C   0  0  0  0  0  0  0  0  0  0  0  0
    6.2960    0.5870   17.7310 N   0  0  0  0  0  0  0  0  0  0  0  0
    6.9800   -0.0450   18.8630 C   0  0  0  0  0  0  0  0  0  0  0  0
   11.8030   -2.0450   21.8180 C   0  0  0  0  0  0  0  0  0  0  0  0
   12.9550   -1.3850   21.9710 C   0  0  0  0  0  0  0  0  0  0  0  0
  1  2  1  0
  2  3  1  0
  3  4  2  0
  4  5  1  0
  5  6  2  0
  6  7  1  0
  7  8  1  6
  8  9  1  0
  9 10  1  0
 10 11  1  0
 11 12  1  0
  9 13  1  0
 12 13  1  0
  7 14  1  0
 14 15  1  0
 15 16  2  0
 15 17  1  0
 17 18  1  0
 18 19  2  0
 19 20  1  0
 20 21  2  0
 21 22  1  0
 18 23  1  0
 22 23  2  0
  6 24  1  0
  3 25  1  0
 24 25  2  0
M  END
