pyridine_urea_6068
     RDKit          3D

 25 27  0  0  0  0  0  0  0  0999 V2000
    9.0600    1.1690   21.3670 O   0  0  0  0  0  0  0  0  0  0  0  0
    8.5860    0.0900   21.7620 C   0  0  0  0  0  0  0  0  0  0  0  0
    9.1860   -0.6870   22.8750 N   0  0  0  0  0  0  0  0  0  0  0  0
   10.5080   -1.1210   22.6240 C   0  0  0  0  0  0  0  0  0  0  0  0
   11.5750   -1.5840   23.5560 C   0  0  2  0  0  0  0  0  0  0  0  0
   12.9630   -1.0800   23.9630 C   0  0  0  0  0  0  0  0  0  0  0  0
   13.4000   -2.0500   24.5900 C   0  0  0  0  0  0  0  0  0  0  0  0
   12.0980   -2.3630   24.3060 C   0  0  0  0  0  0  0  0  0  0  0  0
   10.9410   -1.7760   23.6380 C   0  0  0  0  0  0  0  0  0  0  0  0
   10.4390   -3.0400   24.0390 C   0  0  0  0  0  0  0  0  0  0  0  0
   11.5490   -3.6810   24.7240 C   0  0  0  0  0  0  0  0  0  0  0  0
   12.9680   -3.2580   25.0250 C   0  0  0  0  0  0  0  0  0  0  0  0
   12.1510   -1.6950   22.5980 C   0  0  0  0  0  0  0  0  0  0  0  0
   11.9830   -2.5680   21.7340 C   0  0  0  0  0  0  0  0  0  0  0  0
   12.7850   -2.4890   20.7000 C   0  0  0  0  0  0  0  0  0  0  0  0
   13.6960   -1.4630   20.6220 C   0  0  0  0  0  0  0  0  0  0  0  0
   13.7090   -0.6000   21.6340 C   0  0  0  0  0  0  0  0  0  0  0  0
   13.0060   -0.7340   22.5530 C   0  0  0  0  0  0  0  0  0  0  0  0
    7.4470   -0.5020   21.2130 N   0  0  0  0  0  0  0  0  0  0  0  0
    6.6550    0.0770   20.1140 C   0  0  0  0  0  0  0  0  0  0  0  0
    5.5120    0.8160   20.4300 C   0  0  0  0  0  0  0  0  0  0  0  0
    4.7680    1.3880   19.3920 C   0  0  0  0  0  0  0  0  0  0  0  0
    5.1710    1.2120   18.0770 C   0  0  0  0  0  0  0  0  0  0  0  0
    6.2670    0.4930   17.7570 N   0  0  0  0  0  0  0  0  0  0  0  0
    6.9800   -0.0580   18.7730 C   0  0  0  0  0  0  0  0  0  0  0  0
  1  2  2  0
  2  3  1  0
  3  4  1  0
  5  4  1  6
  5  6  1  0
  6  7  1  0
  7  8  2  0
  8  9  1  0
  9 10  2  0
 10 11  1  0
  7 12  1  0
 11 12  2  0
  5 13  1  0
 13 14  2  0
 14 15  1  0
 15 16  2  0
 16 17  1  0
 13 18  1  0
 17 18  2  0
  2 19  1  0
 19 20  1  0
 20 21  2  0
 21 22  1  0
 22 23  2  0
 23 24  1  0
 20 25  1  0
 24 25  2  0
M  END
