pyridine_urea_3426
     RDKit          3D

 19 20  0  0  0  0  0  0  0  0999 V2000
   12.3620   -1.3830   24.8650 C   0  0  0  0  0  0  0  0  0  0  0  0
   11.2640   -1.0700   24.0980 N   0  0  0  0  0  0  0  0  0  0  0  0
    9.9900   -1.6410   24.2750 C   0  0  0  0  0  0  0  0  0  0  0  0
    9.0400   -1.4910   23.2680 C   0  0  0  0  0  0  0  0  0  0  0  0
    8.4990   -0.2970   22.9040 N   0  0  0  0  0  0  0  0  0  0  0  0
    8.3310    0.2350   21.6190 C   0  0  0  0  0  0  0  0  0  0  0  0
    8.9510    1.2080   21.1700 O   0  0  0  0  0  0  0  0  0  0  0  0
    7.3420   -0.4620   20.9490 N   0  0  0  0  0  0  0  0  0  0  0  0
    6.5610    0.1350   20.1050 C   0  0  0  0  0  0  0  0  0  0  0  0
    5.2720    0.9180   20.3010 C   0  0  0  0  0  0  0  0  0  0  0  0
    4.6160    1.5050   19.2170 C   0  0  0  0  0  0  0  0  0  0  0  0
    5.1480    1.4000   17.7800 C   0  0  0  0  0  0  0  0  0  0  0  0
    6.2830    0.6760   17.6960 N   0  0  0  0  0  0  0  0  0  0  0  0
    6.9480    0.0760   18.7930 C   0  0  0  0  0  0  0  0  0  0  0  0
   11.5440   -0.6970   22.8310 C   0  0  0  0  0  0  0  0  0  0  0  0
   12.8520   -0.3140   22.5830 C   0  0  0  0  0  0  0  0  0  0  0  0
   13.3360   -1.3170   21.7740 C   0  0  0  0  0  0  0  0  0  0  0  0
   12.3500   -2.2150   21.4860 C   0  0  0  0  0  0  0  0  0  0  0  0
   11.1500   -1.7430   21.9810 C   0  0  0  0  0  0  0  0  0  0  0  0
  1  2  1  0
  2  3  1  0
  3  4  1  0
  4  5  1  0
  5  6  1  0
  6  7  2  0
  6  8  1  0
  8  9  1  0
  9 10  2  0
 10 11  1  0
 11 12  2  0
 12 13  1  0
  9 14  1  0
 13 14  2  0
  2 15  1  0
 15 16  1  0
 16 17  1  0
 17 18  1  0
 15 19  1  0
 18 19  1  0
M  END
