pyridine_urea_3533
     RDKit          3D

 17 18  0  0  0  0  0  0  0  0999 V2000
   13.1830    1.0420   23.0710 C   0  0  0  0  0  0  0  0  0  0  0  0
   12.5890   -0.0250   22.5890 N   0  0  0  0  0  0  0  0  0  0  0  0
   11.6620    0.8920   23.1080 N   0  0  0  0  0  0  0  0  0  0  0  0
   10.3250    0.5120   23.0100 C   0  0  0  0  0  0  0  0  0  0  0  0
   10.2660   -0.7560   22.3710 C   0  0  0  0  0  0  0  0  0  0  0  0
    9.1390   -1.4370   22.0600 N   0  0  0  0  0  0  0  0  0  0  0  0
    8.2880   -0.5350   21.4610 C   0  0  0  0  0  0  0  0  0  0  0  0
    8.6110    0.6400   21.3140 O   0  0  0  0  0  0  0  0  0  0  0  0
    7.0780   -0.9950   21.0220 N   0  0  0  0  0  0  0  0  0  0  0  0
    6.3410   -0.2310   20.1130 C   0  0  0  0  0  0  0  0  0  0  0  0
    5.0260    0.5240   20.2700 C   0  0  0  0  0  0  0  0  0  0  0  0
    4.4340    1.3210   19.1030 C   0  0  0  0  0  0  0  0  0  0  0  0
    5.1530    1.3160   17.9140 C   0  0  0  0  0  0  0  0  0  0  0  0
    6.3090    0.6670   17.7160 N   0  0  0  0  0  0  0  0  0  0  0  0
    6.8650   -0.0420   18.7010 C   0  0  0  0  0  0  0  0  0  0  0  0
   11.7190   -1.0350   22.1510 C   0  0  0  0  0  0  0  0  0  0  0  0
   12.6180   -2.6570   21.2730 I   0  0  0  0  0  0  0  0  0  0  0  0
  1  2  1  0
  2  3  1  0
  3  4  2  0
  4  5  1  0
  5  6  1  0
  6  7  1  0
  7  8  2  0
  7  9  1  0
  9 10  1  0
 10 11  2  0
 11 12  1  0
 12 13  2  0
 13 14  1  0
 10 15  1  0
 14 15  2  0
  2 16  1  0
  5 16  2  0
 16 17  1  0
M  END
