pyridine_urea_9602
     RDKit          3D

 29 32  0  0  0  0  0  0  0  0999 V2000
    8.6340    1.3130   20.8990 O   0  0  0  0  0  0  0  0  0  0  0  0
    8.1190    0.3400   21.4680 C   0  0  0  0  0  0  0  0  0  0  0  0
    7.2200   -0.5310   20.9160 N   0  0  0  0  0  0  0  0  0  0  0  0
    6.4940    0.1030   19.8860 C   0  0  0  0  0  0  0  0  0  0  0  0
    5.2730    0.9070   20.3040 C   0  0  0  0  0  0  0  0  0  0  0  0
    4.5140    1.6200   19.1990 C   0  0  0  0  0  0  0  0  0  0  0  0
    5.0910    1.4320   17.8000 C   0  0  0  0  0  0  0  0  0  0  0  0
    6.2190    0.6440   17.5880 N   0  0  0  0  0  0  0  0  0  0  0  0
    6.8840    0.0100   18.5830 C   0  0  0  0  0  0  0  0  0  0  0  0
    8.3900    0.0330   22.7530 N   0  0  0  0  0  0  0  0  0  0  0  0
    9.7240    0.1230   23.0680 C   0  0  0  0  0  0  0  0  0  0  0  0
   10.4200    1.3080   23.2180 C   0  0  0  0  0  0  0  0  0  0  0  0
   11.7590    1.3980   23.5250 C   0  0  0  0  0  0  0  0  0  0  0  0
   12.4320    0.2250   23.7000 C   0  0  0  0  0  0  0  0  0  0  0  0
   11.7410   -0.9660   23.5560 C   0  0  0  0  0  0  0  0  0  0  0  0
   12.2970   -2.1660   23.7090 C   0  0  0  0  0  0  0  0  0  0  0  0
   12.6020   -2.5980   25.1090 C   0  0  0  0  0  0  0  0  0  0  0  0
   13.7820   -2.0480   25.7790 C   0  0  0  0  0  0  0  0  0  0  0  0
   14.9620   -2.2330   25.2380 N   0  0  0  0  0  0  0  0  0  0  0  0
   16.4550   -1.9890   26.0240 C   0  0  0  0  0  0  0  0  0  0  0  0
   18.2270   -1.7870   25.6700 C   0  0  0  0  0  0  0  0  0  0  0  0
   19.0250   -1.3880   24.4440 C   0  0  0  0  0  0  0  0  0  0  0  0
   20.3750   -1.2330   24.1740 C   0  0  0  0  0  0  0  0  0  0  0  0
   21.3080   -1.4530   25.0890 C   0  0  0  0  0  0  0  0  0  0  0  0
   20.8350   -1.8410   26.2740 C   0  0  0  0  0  0  0  0  0  0  0  0
   19.4750   -1.9950   26.5390 C   0  0  0  0  0  0  0  0  0  0  0  0
   14.3530   -2.8440   24.0300 C   0  0  0  0  0  0  0  0  0  0  0  0
   13.5710   -1.9870   23.1120 C   0  0  0  0  0  0  0  0  0  0  0  0
   10.4220   -1.0140   23.2420 C   0  0  0  0  0  0  0  0  0  0  0  0
  1  2  2  0
  2  3  1  0
  3  4  1  0
  4  5  2  0
  5  6  1  0
  6  7  2  0
  7  8  1  0
  4  9  1  0
  8  9  2  0
  2 10  1  0
 10 11  1  0
 11 12  2  0
 12 13  1  0
 13 14  2  0
 14 15  1  0
 15 16  1  0
 16 17  1  0
 17 18  1  0
 18 19  1  0
 19 20  1  0
 20 21  1  0
 21 22  2  0
 22 23  1  0
 23 24  2  0
 24 25  1  0
 21 26  1  0
 25 26  2  0
 19 27  1  0
 16 28  1  0
 27 28  1  0
 11 29  1  0
 15 29  2  0
M  END
