pyridine_urea_1849
     RDKit          3D

 16 18  0  0  0  0  0  0  0  0999 V2000
    8.8800    1.2970   21.2140 O   0  0  0  0  0  0  0  0  0  0  0  0
    8.4610    0.1820   21.5500 C   0  0  0  0  0  0  0  0  0  0  0  0
    7.3240   -0.4250   21.0810 N   0  0  0  0  0  0  0  0  0  0  0  0
    6.5770    0.1300   20.0390 C   0  0  0  0  0  0  0  0  0  0  0  0
    5.4110    0.8390   20.3450 C   0  0  0  0  0  0  0  0  0  0  0  0
    4.6670    1.4170   19.3190 C   0  0  0  0  0  0  0  0  0  0  0  0
    5.1230    1.2610   18.0270 C   0  0  0  0  0  0  0  0  0  0  0  0
    6.2310    0.5780   17.7080 N   0  0  0  0  0  0  0  0  0  0  0  0
    6.9310    0.0280   18.7170 C   0  0  0  0  0  0  0  0  0  0  0  0
    9.1500   -0.5830   22.4520 N   0  0  0  0  0  0  0  0  0  0  0  0
   10.5840   -0.3510   22.5420 C   0  0  2  0  0  0  0  0  0  0  0  0
   11.4110   -1.4830   22.2820 C   0  0  1  0  0  0  0  0  0  0  0  0
   12.7860   -1.4120   22.0550 C   0  0  0  0  0  0  0  0  0  0  0  0
   13.1920   -0.3240   22.4760 O   0  0  0  0  0  0  0  0  0  0  0  0
   12.5560   -0.0030   23.6220 C   0  0  0  0  0  0  0  0  0  0  0  0
   11.2830   -0.5480   23.6190 C   0  0  1  0  0  0  0  0  0  0  0  0
  1  2  2  0
  2  3  1  0
  3  4  1  0
  4  5  2  0
  5  6  1  0
  6  7  2  0
  7  8  1  0
  4  9  1  0
  8  9  2  0
  2 10  1  0
 11 10  1  1
 11 12  1  0
 12 13  1  6
 13 14  1  0
 14 15  1  0
 11 16  1  0
 12 16  1  0
 16 15  1  6
M  END
