pyridine_urea_1617
     RDKit          3D

 19 19  0  0  0  0  0  0  0  0999 V2000
   10.0800    1.8970   23.9730 C   0  0  0  0  0  0  0  0  0  0  0  0
   11.3600    1.6030   23.2390 C   0  0  0  0  0  0  0  0  0  0  0  0
   12.1970    2.6640   22.8820 C   0  0  0  0  0  0  0  0  0  0  0  0
   12.1090    0.5940   23.9780 N   0  0  0  0  0  0  0  0  0  0  0  0
   12.7310   -0.7800   23.2470 S   0  0  0  0  0  0  0  0  0  0  0  0
   13.5980   -0.3140   22.2000 O   0  0  0  0  0  0  0  0  0  0  0  0
   13.2110   -1.6580   24.2900 O   0  0  0  0  0  0  0  0  0  0  0  0
   11.3140   -1.5280   22.4860 C   0  0  0  0  0  0  0  0  0  0  0  0
   10.1540   -0.9200   22.9100 C   0  0  0  0  0  0  0  0  0  0  0  0
    8.9540   -1.2370   22.3910 N   0  0  0  0  0  0  0  0  0  0  0  0
    8.3900   -0.3020   21.5900 C   0  0  0  0  0  0  0  0  0  0  0  0
    8.9150    0.7820   21.3870 O   0  0  0  0  0  0  0  0  0  0  0  0
    7.1810   -0.7310   21.0810 N   0  0  0  0  0  0  0  0  0  0  0  0
    6.4940   -0.0410   20.0070 C   0  0  0  0  0  0  0  0  0  0  0  0
    5.2140    0.7380   20.2870 C   0  0  0  0  0  0  0  0  0  0  0  0
    4.5960    1.3940   19.2520 C   0  0  0  0  0  0  0  0  0  0  0  0
    5.1650    1.3220   17.9820 C   0  0  0  0  0  0  0  0  0  0  0  0
    6.3030    0.6260   17.7140 N   0  0  0  0  0  0  0  0  0  0  0  0
    6.9440   -0.0390   18.7080 C   0  0  0  0  0  0  0  0  0  0  0  0
  1  2  1  0
  2  3  1  0
  2  4  1  0
  5  4  1  0
  5  6  2  0
  5  7  2  0
  5  8  1  0
  8  9  1  0
  9 10  1  0
 10 11  1  0
 11 12  2  0
 11 13  1  0
 13 14  1  0
 14 15  2  0
 15 16  1  0
 16 17  2  0
 17 18  1  0
 14 19  1  0
 18 19  2  0
M  END
