pyridine_urea_14009
     RDKit          3D

 23 25  0  0  0  0  0  0  0  0999 V2000
   13.9020   -2.3430   25.0580 C   0  0  0  0  0  0  0  0  0  0  0  0
   13.4790   -1.8190   24.0630 C   0  0  0  0  0  0  0  0  0  0  0  0
   12.2150   -2.1230   25.0370 N   0  0  0  0  0  0  0  0  0  0  0  0
   10.6290   -1.9410   25.0270 C   0  0  0  0  0  0  0  0  0  0  0  0
    9.2480   -1.5640   24.5330 C   0  0  0  0  0  0  0  0  0  0  0  0
    8.8990   -1.0130   23.4100 C   0  0  0  0  0  0  0  0  0  0  0  0
    7.5730   -0.8080   23.2670 F   0  0  0  0  0  0  0  0  0  0  0  0
    9.9150   -0.6790   22.4490 C   0  0  0  0  0  0  0  0  0  0  0  0
   11.2090   -1.0650   23.0020 C   0  0  0  0  0  0  0  0  0  0  0  0
   11.5360   -1.6540   24.2020 C   0  0  0  0  0  0  0  0  0  0  0  0
   12.3180   -1.3200   23.3060 C   0  0  0  0  0  0  0  0  0  0  0  0
   12.2490   -0.7530   22.1430 C   0  0  0  0  0  0  0  0  0  0  0  0
   10.9870   -0.0600   22.2940 C   0  0  0  0  0  0  0  0  0  0  0  0
    9.8680   -0.5340   21.5530 N   0  0  0  0  0  0  0  0  0  0  0  0
    8.6990    0.2480   21.2830 C   0  0  0  0  0  0  0  0  0  0  0  0
    8.7090    1.4770   21.1800 O   0  0  0  0  0  0  0  0  0  0  0  0
    7.5800   -0.5030   21.0790 N   0  0  0  0  0  0  0  0  0  0  0  0
    6.7450    0.0630   20.1750 C   0  0  0  0  0  0  0  0  0  0  0  0
    5.5170    0.8630   20.4770 C   0  0  0  0  0  0  0  0  0  0  0  0
    4.7040    1.4490   19.3640 C   0  0  0  0  0  0  0  0  0  0  0  0
    5.1440    1.2120   18.0650 C   0  0  0  0  0  0  0  0  0  0  0  0
    6.2320    0.4930   17.7350 N   0  0  0  0  0  0  0  0  0  0  0  0
    7.0300   -0.0840   18.8240 C   0  0  0  0  0  0  0  0  0  0  0  0
  1  2  1  0
  2  3  1  0
  3  4  1  0
  4  5  2  0
  5  6  1  0
  6  7  1  0
  6  8  2  0
  8  9  1  0
  4 10  1  0
  9 10  2  0
  2 11  2  0
 10 11  1  0
 11 12  1  0
 12 13  1  0
 13 14  1  0
 14 15  1  0
 15 16  2  0
 15 17  1  0
 17 18  1  0
 18 19  2  0
 19 20  1  0
 20 21  2  0
 21 22  1  0
 18 23  1  0
 22 23  2  0
M  END
