pyridine_urea_10662
     RDKit          3D

 21 23  0  0  0  0  0  0  0  0999 V2000
    8.8940    1.1840   21.1980 O   0  0  0  0  0  0  0  0  0  0  0  0
    8.5820   -0.0000   21.3760 C   0  0  0  0  0  0  0  0  0  0  0  0
    7.3470   -0.5280   21.0710 N   0  0  0  0  0  0  0  0  0  0  0  0
    6.5080    0.0920   20.1320 C   0  0  0  0  0  0  0  0  0  0  0  0
    5.1910    0.8060   20.4620 C   0  0  0  0  0  0  0  0  0  0  0  0
    4.4950    1.4190   19.2480 C   0  0  0  0  0  0  0  0  0  0  0  0
    5.1610    1.2590   17.9200 C   0  0  0  0  0  0  0  0  0  0  0  0
    6.3140    0.6030   17.7470 N   0  0  0  0  0  0  0  0  0  0  0  0
    6.9320    0.0550   18.8110 C   0  0  0  0  0  0  0  0  0  0  0  0
    9.4610   -0.9640   21.8500 N   0  0  0  0  0  0  0  0  0  0  0  0
   10.3370   -0.8110   23.0290 C   0  0  1  0  0  0  0  0  0  0  0  0
   11.3690   -1.7200   22.9140 C   0  0  0  0  0  0  0  0  0  0  0  0
   12.6280   -1.1010   22.6160 C   0  0  0  0  0  0  0  0  0  0  0  0
   12.8830    0.5950   22.9530 S   0  0  0  0  0  0  0  0  0  0  0  0
   11.3130    1.5840   23.1700 C   0  0  0  0  0  0  0  0  0  0  0  0
   12.5360    2.3910   23.1130 C   0  0  0  0  0  0  0  0  0  0  0  0
   11.5980    3.2580   23.2910 C   0  0  0  0  0  0  0  0  0  0  0  0
   11.4090    1.7040   23.2000 C   0  0  0  0  0  0  0  0  0  0  0  0
    9.5680    1.3160   23.4230 Br  0  0  0  0  0  0  0  0  0  0  0  0
   12.3640    0.5370   22.9940 C   0  0  0  0  0  0  0  0  0  0  0  0
   11.1110    0.3070   23.0750 C   0  0  0  0  0  0  0  0  0  0  0  0
  1  2  2  0
  2  3  1  0
  3  4  1  0
  4  5  2  0
  5  6  1  0
  6  7  2  0
  7  8  1  0
  4  9  1  0
  8  9  2  0
  2 10  1  0
 11 10  1  6
 11 12  1  0
 12 13  1  0
 13 14  1  0
 14 15  1  0
 15 16  2  0
 16 17  1  0
 17 18  2  0
 18 19  1  0
 18 20  1  0
 11 21  1  0
 15 21  1  0
 20 21  2  0
M  END
