pyridine_urea_10128
     RDKit          3D

 23 25  0  0  0  0  0  0  0  0999 V2000
   12.4740   -1.6480   22.0970 C   0  0  0  0  0  0  0  0  0  0  0  0
   11.6900   -0.3870   22.4470 C   0  0  0  0  0  0  0  0  0  0  0  0
   10.3230   -0.4190   22.5550 C   0  0  0  0  0  0  0  0  0  0  0  0
    9.3130   -1.4430   22.3790 N   0  0  0  0  0  0  0  0  0  0  0  0
    8.3310   -0.7030   21.5350 C   0  0  0  0  0  0  0  0  0  0  0  0
    8.7700    0.4210   21.2270 O   0  0  0  0  0  0  0  0  0  0  0  0
    7.0900   -1.1560   21.1320 N   0  0  0  0  0  0  0  0  0  0  0  0
    6.4370   -0.3270   20.1050 C   0  0  0  0  0  0  0  0  0  0  0  0
    5.2570    0.4000   20.3860 C   0  0  0  0  0  0  0  0  0  0  0  0
    4.6470    1.2550   19.2450 C   0  0  0  0  0  0  0  0  0  0  0  0
    5.2290    1.3100   17.9950 C   0  0  0  0  0  0  0  0  0  0  0  0
    6.3570    0.5780   17.8140 N   0  0  0  0  0  0  0  0  0  0  0  0
    6.9590   -0.2160   18.7990 C   0  0  0  0  0  0  0  0  0  0  0  0
    9.9920    0.8770   22.8900 C   0  0  0  0  0  0  0  0  0  0  0  0
   11.1750    1.5630   22.9110 N   0  0  0  0  0  0  0  0  0  0  0  0
   12.3570    0.8530   22.6310 N   0  0  0  0  0  0  0  0  0  0  0  0
   12.2190    2.2100   22.8710 C   0  0  0  0  0  0  0  0  0  0  0  0
   13.2660    3.2590   22.7550 C   0  0  0  0  0  0  0  0  0  0  0  0
   12.9510    4.5980   23.0030 C   0  0  0  0  0  0  0  0  0  0  0  0
   11.6520    4.9330   23.3520 C   0  0  0  0  0  0  0  0  0  0  0  0
   11.4620    6.2630   23.5710 F   0  0  0  0  0  0  0  0  0  0  0  0
   10.6400    3.9860   23.4640 C   0  0  0  0  0  0  0  0  0  0  0  0
   10.9200    2.6370   23.2220 C   0  0  0  0  0  0  0  0  0  0  0  0
  1  2  1  0
  2  3  2  0
  3  4  1  0
  4  5  1  0
  5  6  2  0
  5  7  1  0
  7  8  1  0
  8  9  2  0
  9 10  1  0
 10 11  2  0
 11 12  1  0
  8 13  1  0
 12 13  2  0
  3 14  1  0
 14 15  2  0
  2 16  1  0
 15 16  1  0
 16 17  1  0
 17 18  2  0
 18 19  1  0
 19 20  2  0
 20 21  1  0
 20 22  1  0
 17 23  1  0
 22 23  2  0
M  END
