pyridine_urea_3459
     RDKit          3D

 19 19  0  0  0  0  0  0  0  0999 V2000
    8.9530    1.0930   21.2500 O   0  0  0  0  0  0  0  0  0  0  0  0
    8.3880    0.0290   21.5450 C   0  0  0  0  0  0  0  0  0  0  0  0
    8.8580   -0.8360   22.5060 N   0  0  0  0  0  0  0  0  0  0  0  0
   10.2370   -0.7420   22.8920 C   0  0  0  0  0  0  0  0  0  0  0  0
   10.5080    0.5130   23.6950 C   0  0  0  0  0  0  0  0  0  0  0  0
   11.9430    0.9420   23.5490 C   0  0  0  0  0  0  0  0  0  0  0  0
   12.7920   -0.2000   23.6370 O   0  0  0  0  0  0  0  0  0  0  0  0
   12.5110   -1.0530   24.7580 C   0  0  0  0  0  0  0  0  0  0  0  0
   12.8140   -2.5260   24.5410 C   0  0  0  0  0  0  0  0  0  0  0  0
   13.4560   -2.7220   23.3740 F   0  0  0  0  0  0  0  0  0  0  0  0
   11.6650   -3.2360   24.5050 F   0  0  0  0  0  0  0  0  0  0  0  0
   13.5690   -3.0360   25.5380 F   0  0  0  0  0  0  0  0  0  0  0  0
    7.2250   -0.4700   21.0180 N   0  0  0  0  0  0  0  0  0  0  0  0
    6.5190    0.1330   19.9830 C   0  0  0  0  0  0  0  0  0  0  0  0
    5.3540    0.8520   20.2740 C   0  0  0  0  0  0  0  0  0  0  0  0
    4.6540    1.4730   19.2410 C   0  0  0  0  0  0  0  0  0  0  0  0
    5.1490    1.3480   17.9610 C   0  0  0  0  0  0  0  0  0  0  0  0
    6.2570    0.6550   17.6630 N   0  0  0  0  0  0  0  0  0  0  0  0
    6.9130    0.0660   18.6750 C   0  0  0  0  0  0  0  0  0  0  0  0
  1  2  2  0
  2  3  1  0
  3  4  1  0
  4  5  1  0
  5  6  1  0
  6  7  1  0
  7  8  1  0
  8  9  1  0
  9 10  1  0
  9 11  1  0
  9 12  1  0
  2 13  1  0
 13 14  1  0
 14 15  2  0
 15 16  1  0
 16 17  2  0
 17 18  1  0
 14 19  1  0
 18 19  2  0
M  END
