pyridine_urea_7980
     RDKit          3D

 25 27  0  0  0  0  0  0  0  0999 V2000
   13.5800    0.2750   23.2720 C   0  0  0  0  0  0  0  0  0  0  0  0
   12.6080   -0.2050   22.4220 C   0  0  1  0  0  0  0  0  0  0  0  0
   12.9920   -1.8600   21.8050 S   0  0  0  0  0  0  0  0  0  0  0  0
   12.7680   -2.5340   23.4580 C   0  0  0  0  0  0  0  0  0  0  0  0
   13.6500   -2.7990   24.4320 N   0  0  0  0  0  0  0  0  0  0  0  0
   13.1710   -3.3090   25.6120 C   0  0  0  0  0  0  0  0  0  0  0  0
   11.8220   -3.3520   25.2900 C   0  0  0  0  0  0  0  0  0  0  0  0
   11.6040   -2.9090   24.0580 N   0  0  0  0  0  0  0  0  0  0  0  0
   10.3430   -2.8730   23.5560 C   0  0  0  0  0  0  0  0  0  0  0  0
   11.4980   -0.2240   23.0780 C   0  0  0  0  0  0  0  0  0  0  0  0
   11.6010   -0.1280   24.5690 C   0  0  0  0  0  0  0  0  0  0  0  0
   10.4300   -0.1330   25.2900 C   0  0  0  0  0  0  0  0  0  0  0  0
    9.2320   -0.2200   24.6300 C   0  0  0  0  0  0  0  0  0  0  0  0
    9.1400   -0.3140   23.2580 C   0  0  0  0  0  0  0  0  0  0  0  0
    8.0000   -0.4010   22.6170 N   0  0  0  0  0  0  0  0  0  0  0  0
    8.0160    0.1130   21.3890 C   0  0  0  0  0  0  0  0  0  0  0  0
    8.6170    1.1470   21.0450 O   0  0  0  0  0  0  0  0  0  0  0  0
    7.2610   -0.7120   20.6290 N   0  0  0  0  0  0  0  0  0  0  0  0
    6.4030    0.0220   19.8800 C   0  0  0  0  0  0  0  0  0  0  0  0
    5.1800    0.6460   20.2520 C   0  0  0  0  0  0  0  0  0  0  0  0
    4.5350    1.3340   19.2360 C   0  0  0  0  0  0  0  0  0  0  0  0
    5.2660    1.2250   18.1120 C   0  0  0  0  0  0  0  0  0  0  0  0
    6.1770    0.8270   17.5920 N   0  0  0  0  0  0  0  0  0  0  0  0
    6.8390    0.1460   18.5560 C   0  0  0  0  0  0  0  0  0  0  0  0
   10.2820   -0.3180   22.4910 C   0  0  0  0  0  0  0  0  0  0  0  0
  2  1  1  1
  2  3  1  0
  3  4  1  0
  4  5  2  0
  5  6  1  0
  6  7  2  0
  4  8  1  0
  7  8  1  0
  8  9  1  0
  2 10  1  0
 10 11  2  0
 11 12  1  0
 12 13  2  0
 13 14  1  0
 14 15  1  0
 15 16  1  0
 16 17  2  0
 16 18  1  0
 18 19  1  0
 19 20  2  0
 20 21  1  0
 21 22  2  0
 22 23  1  0
 19 24  1  0
 23 24  2  0
 10 25  1  0
 14 25  2  0
M  END
