pyridine_urea_1658
     RDKit          3D

 18 19  0  0  0  0  0  0  0  0999 V2000
    8.9890    1.2570   21.2040 O   0  0  0  0  0  0  0  0  0  0  0  0
    8.4630    0.1970   21.5720 C   0  0  0  0  0  0  0  0  0  0  0  0
    8.8980   -0.5750   22.6070 N   0  0  0  0  0  0  0  0  0  0  0  0
    9.7490   -1.6840   22.5510 C   0  0  0  0  0  0  0  0  0  0  0  0
    9.7500   -2.4430   23.7070 C   0  0  2  0  0  0  0  0  0  0  0  0
   11.1170   -2.7310   24.0640 O   0  0  0  0  0  0  0  0  0  0  0  0
    8.9620   -3.5880   23.7240 C   0  0  0  0  0  0  0  0  0  0  0  0
    9.2700   -4.7660   24.3110 C   0  0  0  0  0  0  0  0  0  0  0  0
    8.3570   -5.6810   24.1810 N   0  0  0  0  0  0  0  0  0  0  0  0
    7.3740   -5.1090   23.4660 C   0  0  0  0  0  0  0  0  0  0  0  0
    7.6890   -3.7670   23.1390 N   0  0  0  0  0  0  0  0  0  0  0  0
    7.3360   -0.3750   21.0300 N   0  0  0  0  0  0  0  0  0  0  0  0
    6.6350    0.1650   20.0190 C   0  0  0  0  0  0  0  0  0  0  0  0
    5.3770    1.0000   20.3240 C   0  0  0  0  0  0  0  0  0  0  0  0
    4.6880    1.5640   19.2630 C   0  0  0  0  0  0  0  0  0  0  0  0
    5.1330    1.3710   17.9590 C   0  0  0  0  0  0  0  0  0  0  0  0
    6.2340    0.6300   17.6250 N   0  0  0  0  0  0  0  0  0  0  0  0
    6.9780    0.0260   18.6980 C   0  0  0  0  0  0  0  0  0  0  0  0
  1  2  2  0
  2  3  1  0
  3  4  1  0
  4  5  1  0
  5  6  1  6
  5  7  1  0
  7  8  2  0
  8  9  1  0
  9 10  1  0
  7 11  1  0
 10 11  2  0
  2 12  1  0
 12 13  1  0
 13 14  2  0
 14 15  1  0
 15 16  2  0
 16 17  1  0
 13 18  1  0
 17 18  2  0
M  END
