pyridine_urea_13428
     RDKit          3D

 22 24  0  0  0  0  0  0  0  0999 V2000
    8.7570   -1.2980   20.7310 O   0  0  0  0  0  0  0  0  0  0  0  0
    8.0950   -0.7270   21.5240 C   0  0  0  0  0  0  0  0  0  0  0  0
    8.6090   -0.2220   22.6480 N   0  0  0  0  0  0  0  0  0  0  0  0
    9.5840    0.7530   22.5610 C   0  0  0  0  0  0  0  0  0  0  0  0
   11.0210    0.4950   22.9220 C   0  0  0  0  0  0  0  0  0  0  0  0
   11.4810   -0.8940   23.3140 C   0  0  0  0  0  0  0  0  0  0  0  0
   12.8620   -0.9730   23.7210 C   0  0  0  0  0  0  0  0  0  0  0  0
   13.5750   -0.1180   23.1500 N   0  0  0  0  0  0  0  0  0  0  0  0
   12.8280    0.5870   22.3120 N   0  0  0  0  0  0  0  0  0  0  0  0
   12.1310    1.5650   22.9890 C   0  0  0  0  0  0  0  0  0  0  0  0
   13.1590    2.1790   22.8820 O   0  0  0  0  0  0  0  0  0  0  0  0
   13.3090   -1.9720   24.6940 C   0  0  0  0  0  0  0  0  0  0  0  0
   12.5610   -3.0700   24.4680 C   0  0  0  0  0  0  0  0  0  0  0  0
   11.2150   -2.7760   24.4170 C   0  0  0  0  0  0  0  0  0  0  0  0
   10.7650   -2.0600   23.3570 C   0  0  0  0  0  0  0  0  0  0  0  0
    6.7920   -0.5470   21.2440 N   0  0  0  0  0  0  0  0  0  0  0  0
    6.2860    0.0850   20.0540 C   0  0  0  0  0  0  0  0  0  0  0  0
    5.0930    0.7940   20.3330 C   0  0  0  0  0  0  0  0  0  0  0  0
    4.5560    1.4810   19.0900 C   0  0  0  0  0  0  0  0  0  0  0  0
    5.1930    1.3870   17.8800 C   0  0  0  0  0  0  0  0  0  0  0  0
    6.3220    0.6830   17.7040 N   0  0  0  0  0  0  0  0  0  0  0  0
    6.8370    0.0530   18.7820 C   0  0  0  0  0  0  0  0  0  0  0  0
  1  2  2  0
  2  3  1  0
  3  4  1  0
  4  5  1  0
  5  6  2  0
  6  7  1  0
  7  8  2  0
  8  9  1  0
  5 10  1  0
  9 10  1  0
 10 11  2  0
  7 12  1  0
 12 13  1  0
 13 14  1  0
  6 15  1  0
 14 15  1  0
  2 16  1  0
 16 17  1  0
 17 18  2  0
 18 19  1  0
 19 20  2  0
 20 21  1  0
 17 22  1  0
 21 22  2  0
M  END
