pyridine_urea_8858
     RDKit          3D

 20 21  0  0  0  0  0  0  0  0999 V2000
   10.4650    0.1520   23.9940 C   0  0  0  0  0  0  0  0  0  0  0  0
   11.9710   -0.1780   23.6860 C   0  0  0  0  0  0  0  0  0  0  0  0
   12.8020    0.2570   22.4400 C   0  0  0  0  0  0  0  0  0  0  0  0
   13.0530   -0.4090   23.4870 C   0  0  0  0  0  0  0  0  0  0  0  0
   11.8080   -0.3960   24.1460 C   0  0  0  0  0  0  0  0  0  0  0  0
   10.7340    0.2510   23.5360 C   0  0  1  0  0  0  0  0  0  0  0  0
   10.9340    1.4990   22.9650 O   0  0  0  0  0  0  0  0  0  0  0  0
   10.2600   -0.7140   22.6310 C   0  0  0  0  0  0  0  0  0  0  0  0
    8.8920   -0.7760   22.3630 N   0  0  0  0  0  0  0  0  0  0  0  0
    8.2840    0.0810   21.4920 C   0  0  0  0  0  0  0  0  0  0  0  0
    8.8250    1.3590   21.0970 O   0  0  0  0  0  0  0  0  0  0  0  0
    7.0890   -0.4230   21.0450 N   0  0  0  0  0  0  0  0  0  0  0  0
    6.4210    0.1550   20.0040 C   0  0  0  0  0  0  0  0  0  0  0  0
    5.2290    0.8340   20.2730 C   0  0  0  0  0  0  0  0  0  0  0  0
    4.5520    1.4530   19.2190 C   0  0  0  0  0  0  0  0  0  0  0  0
    5.1560    1.3490   17.8590 C   0  0  0  0  0  0  0  0  0  0  0  0
    6.2920    0.6810   17.6480 N   0  0  0  0  0  0  0  0  0  0  0  0
    6.8850    0.1070   18.7070 C   0  0  0  0  0  0  0  0  0  0  0  0
   11.7200   -1.0180   25.2990 C   0  0  0  0  0  0  0  0  0  0  0  0
   12.8970   -1.0610   24.7140 C   0  0  0  0  0  0  0  0  0  0  0  0
  1  2  1  0
  2  3  2  0
  3  4  1  0
  4  5  2  0
  5  6  1  0
  6  7  1  6
  6  8  1  0
  8  9  1  0
  9 10  1  0
 10 11  2  0
 10 12  1  0
 12 13  1  0
 13 14  2  0
 14 15  1  0
 15 16  2  0
 16 17  1  0
 13 18  1  0
 17 18  2  0
  5 19  1  0
  2 20  1  0
 19 20  2  0
M  END
