pyridine_urea_11103
     RDKit          3D

 19 20  0  0  0  0  0  0  0  0999 V2000
   10.1850    3.4410   22.0620 C   0  0  0  0  0  0  0  0  0  0  0  0
   11.8610    3.9890   21.6430 S   0  0  0  0  0  0  0  0  0  0  0  0
   12.4870    2.9780   22.9600 C   0  0  0  0  0  0  0  0  0  0  0  0
   12.1590    1.4860   22.8690 C   0  0  0  0  0  0  0  0  0  0  0  0
   13.1940    0.4440   22.8700 C   0  0  0  0  0  0  0  0  0  0  0  0
   12.8550   -0.8680   22.7610 C   0  0  0  0  0  0  0  0  0  0  0  0
   11.4420   -1.4370   22.6220 C   0  0  0  0  0  0  0  0  0  0  0  0
   10.2970   -0.5100   22.6060 C   0  0  0  0  0  0  0  0  0  0  0  0
    8.9390   -0.9330   22.4550 N   0  0  0  0  0  0  0  0  0  0  0  0
    8.2760   -0.1520   21.5250 C   0  0  0  0  0  0  0  0  0  0  0  0
    8.8390    1.1280   21.1880 O   0  0  0  0  0  0  0  0  0  0  0  0
    7.1270   -0.6920   21.0240 N   0  0  0  0  0  0  0  0  0  0  0  0
    6.3870   -0.0110   20.0480 C   0  0  0  0  0  0  0  0  0  0  0  0
    5.1950    0.6740   20.2500 C   0  0  0  0  0  0  0  0  0  0  0  0
    4.5650    1.3290   19.1990 C   0  0  0  0  0  0  0  0  0  0  0  0
    5.1590    1.2770   17.9650 C   0  0  0  0  0  0  0  0  0  0  0  0
    6.3050    0.6260   17.7140 N   0  0  0  0  0  0  0  0  0  0  0  0
    6.8920   -0.0050   18.7560 C   0  0  0  0  0  0  0  0  0  0  0  0
   10.7260    0.9680   22.7450 C   0  0  0  0  0  0  0  0  0  0  0  0
  1  2  1  0
  2  3  1  0
  3  4  1  0
  4  5  2  0
  5  6  1  0
  6  7  2  0
  7  8  1  0
  8  9  1  0
  9 10  1  0
 10 11  2  0
 10 12  1  0
 12 13  1  0
 13 14  2  0
 14 15  1  0
 15 16  2  0
 16 17  1  0
 13 18  1  0
 17 18  2  0
  4 19  1  0
  8 19  2  0
M  END
