pyridine_urea_313
     RDKit          3D

 30 32  0  0  0  0  0  0  0  0999 V2000
    5.4260   -3.6440   20.3270 C   0  0  0  0  0  0  0  0  0  0  0  0
    5.6890   -4.6590   20.9230 C   0  0  0  0  0  0  0  0  0  0  0  0
    5.6300   -6.1780   21.3310 C   0  0  0  0  0  0  0  0  0  0  0  0
    6.4330   -6.8420   22.3900 C   0  0  0  0  0  0  0  0  0  0  0  0
    7.2650   -6.0490   23.0100 C   0  0  0  0  0  0  0  0  0  0  0  0
    7.4050   -4.6110   22.7010 C   0  0  0  0  0  0  0  0  0  0  0  0
    8.3470   -3.8260   23.4070 N   0  0  0  0  0  0  0  0  0  0  0  0
    8.7150   -2.6890   22.7240 C   0  0  0  0  0  0  0  0  0  0  0  0
    7.9260   -1.5050   22.6860 O   0  0  0  0  0  0  0  0  0  0  0  0
    9.8920   -2.7140   22.0980 C   0  0  0  0  0  0  0  0  0  0  0  0
   10.3870   -1.6140   22.0680 O   0  0  0  0  0  0  0  0  0  0  0  0
   11.7330   -1.6100   22.5590 C   0  0  0  0  0  0  0  0  0  0  0  0
   11.9120   -1.8990   21.1890 C   0  0  0  0  0  0  0  0  0  0  0  0
   12.8320   -1.7790   21.9780 C   0  0  0  0  0  0  0  0  0  0  0  0
   12.1070   -1.5290   23.0990 C   0  0  0  0  0  0  0  0  0  0  0  0
   10.5260   -1.4470   23.1060 C   0  0  0  0  0  0  0  0  0  0  0  0
   10.7790   -0.8740   21.8300 C   0  0  0  0  0  0  0  0  0  0  0  0
    9.4670   -0.8080   21.1990 N   0  0  0  0  0  0  0  0  0  0  0  0
    8.5030    0.1550   21.2340 C   0  0  0  0  0  0  0  0  0  0  0  0
    8.8540    1.5520   21.2460 O   0  0  0  0  0  0  0  0  0  0  0  0
    7.2340   -0.3120   21.1830 N   0  0  0  0  0  0  0  0  0  0  0  0
    6.5530    0.1920   20.1320 C   0  0  0  0  0  0  0  0  0  0  0  0
    5.3990    0.9500   20.3760 C   0  0  0  0  0  0  0  0  0  0  0  0
    4.7180    1.4830   19.2920 C   0  0  0  0  0  0  0  0  0  0  0  0
    5.1440    1.2850   18.0020 C   0  0  0  0  0  0  0  0  0  0  0  0
    6.2160    0.5740   17.6710 N   0  0  0  0  0  0  0  0  0  0  0  0
    6.9350    0.0100   18.8070 C   0  0  0  0  0  0  0  0  0  0  0  0
   13.0390   -1.4160   24.0360 C   0  0  0  0  0  0  0  0  0  0  0  0
   13.2510   -1.6940   22.6620 C   0  0  0  0  0  0  0  0  0  0  0  0
    6.6410   -4.0190   21.7220 C   0  0  0  0  0  0  0  0  0  0  0  0
  1  2  1  0
  2  3  2  0
  3  4  1  0
  4  5  2  0
  5  6  1  0
  6  7  1  0
  7  8  1  0
  8  9  2  0
  8 10  1  0
 10 11  1  0
 11 12  1  0
 12 13  2  0
 13 14  1  0
 14 15  2  0
 15 16  1  0
 16 17  1  0
 17 18  1  0
 18 19  1  0
 19 20  2  0
 19 21  1  0
 21 22  1  0
 22 23  2  0
 23 24  1  0
 24 25  2  0
 25 26  1  0
 22 27  1  0
 26 27  2  0
 15 28  1  0
 12 29  1  0
 28 29  2  0
  2 30  1  0
  6 30  2  0
M  END
