pyridine_urea_11924
     RDKit          3D

 24 26  0  0  0  0  0  0  0  0999 V2000
    8.3620    0.7780   21.1080 O   0  0  0  0  0  0  0  0  0  0  0  0
    7.7600   -0.2570   21.3680 C   0  0  0  0  0  0  0  0  0  0  0  0
    6.6000   -0.6550   20.8450 N   0  0  0  0  0  0  0  0  0  0  0  0
    6.0950    0.0670   19.8030 C   0  0  0  0  0  0  0  0  0  0  0  0
    4.9030    0.7530   19.9740 C   0  0  0  0  0  0  0  0  0  0  0  0
    4.4080    1.5040   18.9200 C   0  0  0  0  0  0  0  0  0  0  0  0
    5.1310    1.5280   17.7480 C   0  0  0  0  0  0  0  0  0  0  0  0
    6.2850    0.8590   17.5720 N   0  0  0  0  0  0  0  0  0  0  0  0
    6.7370    0.1450   18.6040 C   0  0  0  0  0  0  0  0  0  0  0  0
    8.1970   -1.1680   22.2370 N   0  0  0  0  0  0  0  0  0  0  0  0
    9.5470   -0.9680   22.6290 C   0  0  2  0  0  0  0  0  0  0  0  0
    9.7800    0.5240   22.7530 C   0  0  0  0  0  0  0  0  0  0  0  0
   10.7200    0.2980   23.5800 C   0  0  0  0  0  0  0  0  0  0  0  0
   12.0150    0.2700   23.2220 C   0  0  0  0  0  0  0  0  0  0  0  0
   12.9390   -0.0690   24.0940 C   0  0  0  0  0  0  0  0  0  0  0  0
   12.5190   -0.3770   25.3770 C   0  0  0  0  0  0  0  0  0  0  0  0
   11.1460   -0.3150   25.7140 C   0  0  0  0  0  0  0  0  0  0  0  0
   10.2630    0.0220   24.8100 C   0  0  0  0  0  0  0  0  0  0  0  0
   10.6310   -1.6360   21.7540 C   0  0  0  0  0  0  0  0  0  0  0  0
   11.8480   -1.9870   22.3600 C   0  0  0  0  0  0  0  0  0  0  0  0
   11.3190   -1.9910   23.7100 C   0  0  0  0  0  0  0  0  0  0  0  0
   12.4760   -2.3620   24.3160 N   0  0  0  0  0  0  0  0  0  0  0  0
   13.4260   -2.5140   23.4580 C   0  0  0  0  0  0  0  0  0  0  0  0
   12.9860   -2.2630   22.2700 N   0  0  0  0  0  0  0  0  0  0  0  0
  1  2  2  0
  2  3  1  0
  3  4  1  0
  4  5  2  0
  5  6  1  0
  6  7  2  0
  7  8  1  0
  4  9  1  0
  8  9  2  0
  2 10  1  0
 10 11  1  0
 11 12  1  6
 12 13  1  0
 13 14  2  0
 14 15  1  0
 15 16  2  0
 16 17  1  0
 13 18  1  0
 17 18  2  0
 11 19  1  0
 19 20  1  0
 20 21  2  0
 21 22  1  0
 22 23  1  0
 20 24  1  0
 23 24  2  0
M  END
