pyridine_urea_10995
     RDKit          3D

 19 21  0  0  0  0  0  0  0  0999 V2000
    8.7710    1.1980   21.1650 O   0  0  0  0  0  0  0  0  0  0  0  0
    8.2200    0.2070   21.6760 C   0  0  0  0  0  0  0  0  0  0  0  0
    7.1290   -0.5240   21.0510 N   0  0  0  0  0  0  0  0  0  0  0  0
    6.4550    0.1070   20.0280 C   0  0  0  0  0  0  0  0  0  0  0  0
    5.2900    0.8330   20.2880 C   0  0  0  0  0  0  0  0  0  0  0  0
    4.6500    1.4650   19.2210 C   0  0  0  0  0  0  0  0  0  0  0  0
    5.1960    1.3510   17.9420 C   0  0  0  0  0  0  0  0  0  0  0  0
    6.3100    0.6500   17.6870 N   0  0  0  0  0  0  0  0  0  0  0  0
    6.9130    0.0440   18.7320 C   0  0  0  0  0  0  0  0  0  0  0  0
    8.5210   -0.3670   22.8900 N   0  0  0  0  0  0  0  0  0  0  0  0
    9.8290   -0.9440   23.0040 C   0  0  0  0  0  0  0  0  0  0  0  0
   10.5640   -1.1140   21.7210 C   0  0  0  0  0  0  0  0  0  0  0  0
   11.7990   -1.6470   21.7090 N   0  0  0  0  0  0  0  0  0  0  0  0
   12.3370   -2.0060   22.8920 C   0  0  0  0  0  0  0  0  0  0  0  0
   13.5580   -2.5350   23.0450 N   0  0  0  0  0  0  0  0  0  0  0  0
   13.6370   -2.7110   24.3710 C   0  0  0  0  0  0  0  0  0  0  0  0
   12.5010   -2.3050   24.9270 C   0  0  0  0  0  0  0  0  0  0  0  0
   11.6810   -1.8600   24.0410 N   0  0  0  0  0  0  0  0  0  0  0  0
   10.4400   -1.3460   24.1730 C   0  0  0  0  0  0  0  0  0  0  0  0
  1  2  2  0
  2  3  1  0
  3  4  1  0
  4  5  2  0
  5  6  1  0
  6  7  2  0
  7  8  1  0
  4  9  1  0
  8  9  2  0
  2 10  1  0
 10 11  1  0
 11 12  1  0
 12 13  2  0
 13 14  1  0
 14 15  2  0
 15 16  1  0
 16 17  2  0
 14 18  1  0
 17 18  1  0
 11 19  2  0
 18 19  1  0
M  END
