pyridine_urea_12751
     RDKit          3D

 20 21  0  0  0  0  0  0  0  0999 V2000
   13.0370   -2.4220   21.2460 C   0  0  0  0  0  0  0  0  0  0  0  0
   11.6690   -2.0890   21.2780 O   0  0  0  0  0  0  0  0  0  0  0  0
   11.1230   -1.8840   22.5010 C   0  0  0  0  0  0  0  0  0  0  0  0
   10.3870   -0.5530   22.6510 C   0  0  1  0  0  0  0  0  0  0  0  0
    8.9700   -0.7390   22.4700 N   0  0  0  0  0  0  0  0  0  0  0  0
    8.3690    0.0690   21.5420 C   0  0  0  0  0  0  0  0  0  0  0  0
    8.8160    1.1610   21.1540 O   0  0  0  0  0  0  0  0  0  0  0  0
    7.1850   -0.4300   21.0620 N   0  0  0  0  0  0  0  0  0  0  0  0
    6.4890    0.1490   20.0040 C   0  0  0  0  0  0  0  0  0  0  0  0
    5.3160    0.8580   20.2710 C   0  0  0  0  0  0  0  0  0  0  0  0
    4.6320    1.4560   19.2170 C   0  0  0  0  0  0  0  0  0  0  0  0
    5.1460    1.3240   17.9370 C   0  0  0  0  0  0  0  0  0  0  0  0
    6.2600    0.6380   17.6630 N   0  0  0  0  0  0  0  0  0  0  0  0
    6.9040    0.0680   18.6990 C   0  0  0  0  0  0  0  0  0  0  0  0
   10.6630    0.0980   23.9720 C   0  0  0  0  0  0  0  0  0  0  0  0
   10.0670    1.3690   24.1490 C   0  0  0  0  0  0  0  0  0  0  0  0
   10.6980    2.5530   23.4270 C   0  0  0  0  0  0  0  0  0  0  0  0
   12.1220    2.4490   23.3530 O   0  0  0  0  0  0  0  0  0  0  0  0
   12.5640    1.1120   23.1820 C   0  0  0  0  0  0  0  0  0  0  0  0
   12.0450    0.1140   24.0150 C   0  0  0  0  0  0  0  0  0  0  0  0
  1  2  1  0
  2  3  1  0
  4  3  1  1
  4  5  1  0
  5  6  1  0
  6  7  2  0
  6  8  1  0
  8  9  1  0
  9 10  2  0
 10 11  1  0
 11 12  2  0
 12 13  1  0
  9 14  1  0
 13 14  2  0
  4 15  1  0
 15 16  1  0
 16 17  1  0
 17 18  1  0
 18 19  1  0
 15 20  1  0
 19 20  1  0
M  END
