pyridine_urea_4906
     RDKit          3D

 21 22  0  0  0  0  0  0  0  0999 V2000
    8.1160    1.3530   20.5390 O   0  0  0  0  0  0  0  0  0  0  0  0
    8.2660    0.2680   21.0770 C   0  0  0  0  0  0  0  0  0  0  0  0
    7.2860   -0.6590   20.9570 N   0  0  0  0  0  0  0  0  0  0  0  0
    6.5430   -0.0700   19.9080 C   0  0  0  0  0  0  0  0  0  0  0  0
    5.2540    0.6810   20.2700 C   0  0  0  0  0  0  0  0  0  0  0  0
    4.5300    1.3180   19.2670 C   0  0  0  0  0  0  0  0  0  0  0  0
    5.0290    1.2360   17.9690 C   0  0  0  0  0  0  0  0  0  0  0  0
    6.1760    0.5400   17.6980 N   0  0  0  0  0  0  0  0  0  0  0  0
    6.9400   -0.1170   18.6480 C   0  0  0  0  0  0  0  0  0  0  0  0
    9.3480    0.0160   21.7880 N   0  0  0  0  0  0  0  0  0  0  0  0
   10.3910    0.1070   22.5640 C   0  0  1  0  0  0  0  0  0  0  0  0
    9.7600    0.2900   23.7530 C   0  0  0  0  0  0  0  0  0  0  0  0
   10.5330    0.6620   24.7480 C   0  0  0  0  0  0  0  0  0  0  0  0
   10.4640   -0.2970   25.7650 O   0  0  0  0  0  0  0  0  0  0  0  0
   11.3340   -0.8810   22.6410 C   0  0  0  0  0  0  0  0  0  0  0  0
   11.9810   -1.8920   21.9780 C   0  0  0  0  0  0  0  0  0  0  0  0
   12.9790   -2.5250   23.0950 C   0  0  0  0  0  0  0  0  0  0  0  0
   13.1700   -2.1010   24.5270 C   0  0  0  0  0  0  0  0  0  0  0  0
   14.1340   -2.7340   25.7590 Cl  0  0  0  0  0  0  0  0  0  0  0  0
   12.3650   -1.0110   24.7470 C   0  0  0  0  0  0  0  0  0  0  0  0
   12.0680   -1.2430   23.5770 C   0  0  0  0  0  0  0  0  0  0  0  0
  1  2  2  0
  2  3  1  0
  3  4  1  0
  4  5  2  0
  5  6  1  0
  6  7  2  0
  7  8  1  0
  4  9  1  0
  8  9  2  0
  2 10  1  0
 10 11  1  0
 11 12  1  1
 12 13  1  0
 13 14  1  0
 11 15  1  0
 15 16  2  0
 16 17  1  0
 17 18  2  0
 18 19  1  0
 18 20  1  0
 15 21  1  0
 20 21  2  0
M  END
