pyridine_urea_3957
     RDKit          3D

 19 20  0  0  0  0  0  0  0  0999 V2000
    9.1280   -2.8560   22.7650 C   0  0  0  0  0  0  0  0  0  0  0  0
   10.4110   -2.5150   22.0480 C   0  0  0  0  0  0  0  0  0  0  0  0
   10.8590   -1.2110   21.8990 C   0  0  0  0  0  0  0  0  0  0  0  0
   10.3070   -0.4140   22.8520 C   0  0  0  0  0  0  0  0  0  0  0  0
    8.9010   -0.4060   22.7790 N   0  0  0  0  0  0  0  0  0  0  0  0
    8.2980    0.1840   21.6510 C   0  0  0  0  0  0  0  0  0  0  0  0
    8.7320    1.2500   21.1890 O   0  0  0  0  0  0  0  0  0  0  0  0
    7.2410   -0.5270   21.1780 N   0  0  0  0  0  0  0  0  0  0  0  0
    6.5670    0.0500   20.1380 C   0  0  0  0  0  0  0  0  0  0  0  0
    5.4010    0.7690   20.4190 C   0  0  0  0  0  0  0  0  0  0  0  0
    4.6560    1.4260   19.2430 C   0  0  0  0  0  0  0  0  0  0  0  0
    5.1940    1.2600   17.9930 C   0  0  0  0  0  0  0  0  0  0  0  0
    6.3120    0.5560   17.7680 N   0  0  0  0  0  0  0  0  0  0  0  0
    6.9630   -0.0240   18.8090 C   0  0  0  0  0  0  0  0  0  0  0  0
   10.7560    0.8910   23.0510 C   0  0  0  0  0  0  0  0  0  0  0  0
   11.9770    0.9330   23.6980 C   0  0  0  0  0  0  0  0  0  0  0  0
   12.8440    0.0510   23.1140 C   0  0  0  0  0  0  0  0  0  0  0  0
   12.4400   -1.1670   23.8900 C   0  0  0  0  0  0  0  0  0  0  0  0
   10.9040   -1.1290   24.0600 C   0  0  0  0  0  0  0  0  0  0  0  0
  1  2  3  0
  2  3  1  0
  3  4  1  0
  4  5  1  0
  5  6  1  0
  6  7  2  0
  6  8  1  0
  8  9  1  0
  9 10  2  0
 10 11  1  0
 11 12  2  0
 12 13  1  0
  9 14  1  0
 13 14  2  0
  4 15  1  0
 15 16  1  0
 16 17  1  0
 17 18  1  0
  4 19  1  0
 18 19  1  0
M  END
