pyridine_urea_11508
     RDKit          3D

 19 20  0  0  0  0  0  0  0  0999 V2000
   10.0620    3.4040   22.4670 C   0  0  0  0  0  0  0  0  0  0  0  0
   10.0750    1.9910   22.6550 O   0  0  0  0  0  0  0  0  0  0  0  0
   11.3510    1.5290   22.8810 C   0  0  0  0  0  0  0  0  0  0  0  0
   12.3000    2.2820   23.0520 O   0  0  0  0  0  0  0  0  0  0  0  0
   11.5170    0.1550   22.8890 C   0  0  1  0  0  0  0  0  0  0  0  0
   12.5760   -0.2460   23.7110 O   0  0  0  0  0  0  0  0  0  0  0  0
   12.6660   -1.5240   23.2070 C   0  0  0  0  0  0  0  0  0  0  0  0
   11.4350   -1.5160   22.5540 C   0  0  0  0  0  0  0  0  0  0  0  0
   10.3630   -0.8230   23.2280 C   0  0  2  0  0  0  0  0  0  0  0  0
    9.0740   -0.7970   22.6090 N   0  0  0  0  0  0  0  0  0  0  0  0
    8.5460    0.0160   21.6070 C   0  0  0  0  0  0  0  0  0  0  0  0
    9.0940    1.2950   21.2510 O   0  0  0  0  0  0  0  0  0  0  0  0
    7.4160   -0.5690   21.0400 N   0  0  0  0  0  0  0  0  0  0  0  0
    6.5540    0.0950   20.0560 C   0  0  0  0  0  0  0  0  0  0  0  0
    5.3900    0.7940   20.3400 C   0  0  0  0  0  0  0  0  0  0  0  0
    4.6740    1.3960   19.3060 C   0  0  0  0  0  0  0  0  0  0  0  0
    5.1550    1.2780   18.0120 C   0  0  0  0  0  0  0  0  0  0  0  0
    6.2730    0.6020   17.7100 N   0  0  0  0  0  0  0  0  0  0  0  0
    6.9340    0.0320   18.7290 C   0  0  0  0  0  0  0  0  0  0  0  0
  1  2  1  0
  2  3  1  0
  3  4  2  0
  5  3  1  1
  5  6  1  0
  6  7  1  0
  7  8  1  0
  5  9  1  0
  8  9  1  0
  9 10  1  6
 10 11  1  0
 11 12  2  0
 11 13  1  0
 13 14  1  0
 14 15  2  0
 15 16  1  0
 16 17  2  0
 17 18  1  0
 14 19  1  0
 18 19  2  0
M  END
