pyridine_urea_7417
     RDKit          3D

 17 18  0  0  0  0  0  0  0  0999 V2000
   10.5320   -1.7610   24.2330 C   0  0  0  0  0  0  0  0  0  0  0  0
   10.5410   -1.0910   22.8710 C   0  0  0  0  0  0  0  0  0  0  0  0
    9.1700   -1.2310   22.3520 N   0  0  0  0  0  0  0  0  0  0  0  0
    8.5290   -0.2470   21.6030 C   0  0  0  0  0  0  0  0  0  0  0  0
    8.9880    0.8710   21.4220 O   0  0  0  0  0  0  0  0  0  0  0  0
    7.3170   -0.6850   21.1060 N   0  0  0  0  0  0  0  0  0  0  0  0
    6.5740   -0.0150   20.0440 C   0  0  0  0  0  0  0  0  0  0  0  0
    5.4290    0.7180   20.3680 C   0  0  0  0  0  0  0  0  0  0  0  0
    4.7080    1.3840   19.3580 C   0  0  0  0  0  0  0  0  0  0  0  0
    5.1560    1.2990   18.0430 C   0  0  0  0  0  0  0  0  0  0  0  0
    6.2670    0.5780   17.7340 N   0  0  0  0  0  0  0  0  0  0  0  0
    6.9760   -0.0800   18.7280 C   0  0  0  0  0  0  0  0  0  0  0  0
   10.8420    0.3820   22.9790 C   0  0  0  0  0  0  0  0  0  0  0  0
   12.1940    0.6790   23.1690 C   0  0  0  0  0  0  0  0  0  0  0  0
   12.9210    0.1780   22.3570 O   0  0  0  0  0  0  0  0  0  0  0  0
   12.8720   -1.1930   22.4010 C   0  0  0  0  0  0  0  0  0  0  0  0
   11.6430   -1.7300   22.0080 C   0  0  0  0  0  0  0  0  0  0  0  0
  1  2  1  0
  2  3  1  0
  3  4  1  0
  4  5  2  0
  4  6  1  0
  6  7  1  0
  7  8  2  0
  8  9  1  0
  9 10  2  0
 10 11  1  0
  7 12  1  0
 11 12  2  0
  2 13  1  0
 13 14  1  0
 14 15  1  0
 15 16  1  0
  2 17  1  0
 16 17  1  0
M  END
