pyridine_urea_13464
     RDKit          3D

 17 18  0  0  0  0  0  0  0  0999 V2000
   12.2930   -2.0600   24.7420 C   0  0  0  0  0  0  0  0  0  0  0  0
   11.2560   -3.0810   24.2230 C   0  0  0  0  0  0  0  0  0  0  0  0
    9.9530   -2.3520   23.8270 C   0  0  0  0  0  0  0  0  0  0  0  0
   10.3270   -1.3970   22.7030 C   0  0  0  0  0  0  0  0  0  0  0  0
    9.3890   -1.3000   21.5880 N   0  0  0  0  0  0  0  0  0  0  0  0
    8.5400   -0.2180   21.3970 C   0  0  0  0  0  0  0  0  0  0  0  0
    8.9430    0.9370   21.3730 O   0  0  0  0  0  0  0  0  0  0  0  0
    7.2450   -0.5820   21.2260 N   0  0  0  0  0  0  0  0  0  0  0  0
    6.5370    0.0270   20.2320 C   0  0  0  0  0  0  0  0  0  0  0  0
    5.3730    0.7760   20.4300 C   0  0  0  0  0  0  0  0  0  0  0  0
    4.7290    1.3730   19.3410 C   0  0  0  0  0  0  0  0  0  0  0  0
    5.2220    1.2370   18.0620 C   0  0  0  0  0  0  0  0  0  0  0  0
    6.3230    0.5370   17.7610 N   0  0  0  0  0  0  0  0  0  0  0  0
    6.9730   -0.0590   18.7990 C   0  0  0  0  0  0  0  0  0  0  0  0
   10.6880   -0.1360   23.4390 C   0  0  0  0  0  0  0  0  0  0  0  0
   12.0160   -0.0640   23.0170 C   0  0  0  0  0  0  0  0  0  0  0  0
   11.8140   -1.4230   22.2790 C   0  0  0  0  0  0  0  0  0  0  0  0
  1  2  3  0
  2  3  1  0
  3  4  1  0
  4  5  1  0
  5  6  1  0
  6  7  2  0
  6  8  1  0
  8  9  1  0
  9 10  2  0
 10 11  1  0
 11 12  2  0
 12 13  1  0
  9 14  1  0
 13 14  2  0
  4 15  1  0
 15 16  1  0
  4 17  1  0
 16 17  1  0
M  END
