pyridine_urea_2887
     RDKit          3D

 22 23  0  0  0  0  0  0  0  0999 V2000
    9.8030    1.4500   24.1710 C   0  0  0  0  0  0  0  0  0  0  0  0
   10.6300    1.0300   22.9600 C   0  0  0  0  0  0  0  0  0  0  0  0
   12.1410    1.1490   23.4010 C   0  0  0  0  0  0  0  0  0  0  0  0
   10.2580   -0.4220   22.6090 C   0  0  1  0  0  0  0  0  0  0  0  0
    9.3200   -0.5420   21.6010 N   0  0  0  0  0  0  0  0  0  0  0  0
    8.2920    0.2250   21.2360 C   0  0  0  0  0  0  0  0  0  0  0  0
    8.5140    1.4210   21.0390 O   0  0  0  0  0  0  0  0  0  0  0  0
    7.1180   -0.4080   21.0810 N   0  0  0  0  0  0  0  0  0  0  0  0
    6.4280    0.1730   20.1010 C   0  0  0  0  0  0  0  0  0  0  0  0
    5.1290    0.9570   20.2770 C   0  0  0  0  0  0  0  0  0  0  0  0
    4.4080    1.6230   19.1170 C   0  0  0  0  0  0  0  0  0  0  0  0
    5.1420    1.4060   17.8090 C   0  0  0  0  0  0  0  0  0  0  0  0
    6.2970    0.6800   17.7350 N   0  0  0  0  0  0  0  0  0  0  0  0
    6.9210    0.0820   18.8200 C   0  0  0  0  0  0  0  0  0  0  0  0
   11.3720   -1.3460   22.2410 C   0  0  0  0  0  0  0  0  0  0  0  0
   11.5540   -1.0040   23.6670 C   0  0  0  0  0  0  0  0  0  0  0  0
   12.1260   -1.0360   24.8640 C   0  0  0  0  0  0  0  0  0  0  0  0
   13.1390   -1.8810   24.7540 C   0  0  0  0  0  0  0  0  0  0  0  0
   13.9170   -2.1650   25.8280 F   0  0  0  0  0  0  0  0  0  0  0  0
   13.3120   -2.4170   23.4970 C   0  0  0  0  0  0  0  0  0  0  0  0
   14.2940   -3.2310   23.3720 F   0  0  0  0  0  0  0  0  0  0  0  0
   12.5270   -2.1660   22.3570 C   0  0  0  0  0  0  0  0  0  0  0  0
  1  2  1  0
  2  3  1  0
  2  4  1  0
  4  5  1  6
  5  6  1  0
  6  7  2  0
  6  8  1  0
  8  9  1  0
  9 10  2  0
 10 11  1  0
 11 12  2  0
 12 13  1  0
  9 14  1  0
 13 14  2  0
  4 15  1  0
 15 16  2  0
 16 17  1  0
 17 18  2  0
 18 19  1  0
 18 20  1  0
 20 21  1  0
 15 22  1  0
 20 22  2  0
M  END
