pyridine_urea_10738
     RDKit          3D

 20 21  0  0  0  0  0  0  0  0999 V2000
    9.9820    0.0850   23.3800 C   0  0  0  0  0  0  0  0  0  0  0  0
   11.4250   -0.0250   23.0480 C   0  0  0  0  0  0  0  0  0  0  0  0
   12.2600    1.0200   23.2000 C   0  0  0  0  0  0  0  0  0  0  0  0
   12.4840   -0.2200   22.7600 C   0  0  0  0  0  0  0  0  0  0  0  0
   11.2430   -1.0560   22.7680 C   0  0  0  0  0  0  0  0  0  0  0  0
    9.8040   -0.8740   23.1480 C   0  0  0  0  0  0  0  0  0  0  0  0
    8.9800   -1.1430   21.9920 N   0  0  0  0  0  0  0  0  0  0  0  0
    8.1870   -0.2400   21.3770 C   0  0  0  0  0  0  0  0  0  0  0  0
    8.5700    0.8990   21.1460 O   0  0  0  0  0  0  0  0  0  0  0  0
    6.8770   -0.7250   21.0160 N   0  0  0  0  0  0  0  0  0  0  0  0
    6.3120   -0.0400   19.9790 C   0  0  0  0  0  0  0  0  0  0  0  0
    5.1340    0.6540   20.1780 C   0  0  0  0  0  0  0  0  0  0  0  0
    4.5470    1.3700   19.1390 C   0  0  0  0  0  0  0  0  0  0  0  0
    5.1830    1.3660   17.9050 C   0  0  0  0  0  0  0  0  0  0  0  0
    6.3250    0.6940   17.6910 N   0  0  0  0  0  0  0  0  0  0  0  0
    6.8580    0.0110   18.7200 C   0  0  0  0  0  0  0  0  0  0  0  0
   11.5940   -2.3840   22.2680 C   0  0  0  0  0  0  0  0  0  0  0  0
   12.2110   -1.1870   22.5140 C   0  0  0  0  0  0  0  0  0  0  0  0
   13.5080   -0.9750   22.2980 C   0  0  0  0  0  0  0  0  0  0  0  0
   13.8510    0.3110   22.5470 N   0  0  0  0  0  0  0  0  0  0  0  0
  1  2  1  0
  2  3  2  0
  3  4  1  0
  4  5  2  0
  5  6  1  0
  6  7  1  0
  7  8  1  0
  8  9  2  0
  8 10  1  0
 10 11  1  0
 11 12  2  0
 12 13  1  0
 13 14  2  0
 14 15  1  0
 11 16  1  0
 15 16  2  0
  5 17  1  0
  2 18  1  0
 17 18  2  0
 18 19  1  0
 19 20  3  0
M  END
