pyridine_urea_4251
     RDKit          3D

 24 26  0  0  0  0  0  0  0  0999 V2000
   11.0220   -0.9000   25.3990 C   0  0  0  0  0  0  0  0  0  0  0  0
   10.2570   -1.2880   24.1910 C   0  0  2  0  0  0  0  0  0  0  0  0
   11.1860   -2.0450   23.3960 N   0  0  0  0  0  0  0  0  0  0  0  0
   12.4700   -1.5890   23.5750 C   0  0  2  0  0  0  0  0  0  0  0  0
   12.4760   -0.1080   23.9730 C   0  0  1  0  0  0  0  0  0  0  0  0
   13.1540    0.4690   22.8080 C   0  0  0  0  0  0  0  0  0  0  0  0
   13.2710    1.6770   22.8100 O   0  0  0  0  0  0  0  0  0  0  0  0
   13.5040   -0.5590   21.9460 N   0  0  0  0  0  0  0  0  0  0  0  0
   13.1980   -1.7990   22.3860 N   0  0  0  0  0  0  0  0  0  0  0  0
   12.4770   -2.3840   21.3280 C   0  0  0  0  0  0  0  0  0  0  0  0
   11.2410    0.8600   23.8440 C   0  0  1  0  0  0  0  0  0  0  0  0
   11.4560    1.8660   22.9120 C   0  0  0  0  0  0  0  0  0  0  0  0
   10.0170   -0.0050   23.5050 C   0  0  1  0  0  0  0  0  0  0  0  0
    9.9420   -0.1890   22.1850 C   0  0  0  0  0  0  0  0  0  0  0  0
    8.8830   -0.8960   21.8240 N   0  0  0  0  0  0  0  0  0  0  0  0
    8.0080   -0.1010   21.2310 C   0  0  0  0  0  0  0  0  0  0  0  0
    8.3090    1.0630   20.9800 O   0  0  0  0  0  0  0  0  0  0  0  0
    6.8500   -0.6970   20.9600 N   0  0  0  0  0  0  0  0  0  0  0  0
    6.2770   -0.0260   19.9570 C   0  0  0  0  0  0  0  0  0  0  0  0
    5.0020    0.7120   20.2180 C   0  0  0  0  0  0  0  0  0  0  0  0
    4.4760    1.4080   19.1350 C   0  0  0  0  0  0  0  0  0  0  0  0
    5.1840    1.3820   17.8340 C   0  0  0  0  0  0  0  0  0  0  0  0
    6.3100    0.7020   17.6660 N   0  0  0  0  0  0  0  0  0  0  0  0
    6.8500    0.0070   18.7020 C   0  0  0  0  0  0  0  0  0  0  0  0
  2  1  1  1
  2  3  1  0
  4  3  1  6
  4  5  1  0
  5  6  1  6
  6  7  2  0
  6  8  1  0
  4  9  1  0
  8  9  1  0
  9 10  1  0
  5 11  1  0
 11 12  1  6
  2 13  1  0
 11 13  1  0
 13 14  1  6
 14 15  1  0
 15 16  1  0
 16 17  2  0
 16 18  1  0
 18 19  1  0
 19 20  2  0
 20 21  1  0
 21 22  2  0
 22 23  1  0
 19 24  1  0
 23 24  2  0
M  END
