pyridine_urea_6377
     RDKit          3D

 23 25  0  0  0  0  0  0  0  0999 V2000
   12.8430   -0.7170   25.3370 C   0  0  0  0  0  0  0  0  0  0  0  0
   12.5220   -0.9420   24.2760 C   0  0  0  0  0  0  0  0  0  0  0  0
   12.6190   -1.3670   22.8400 C   0  0  0  0  0  0  0  0  0  0  0  0
   11.4710   -1.4110   21.9280 C   0  0  0  0  0  0  0  0  0  0  0  0
   10.1540   -1.0680   22.1930 C   0  0  0  0  0  0  0  0  0  0  0  0
    9.1350   -1.1590   21.2300 N   0  0  0  0  0  0  0  0  0  0  0  0
    8.3010   -0.1000   21.1800 C   0  0  0  0  0  0  0  0  0  0  0  0
    8.7150    1.0470   21.2920 O   0  0  0  0  0  0  0  0  0  0  0  0
    7.0050   -0.4560   20.9780 N   0  0  0  0  0  0  0  0  0  0  0  0
    6.2300    0.1870   20.0280 C   0  0  0  0  0  0  0  0  0  0  0  0
    5.0470    0.7860   20.3200 C   0  0  0  0  0  0  0  0  0  0  0  0
    4.5380    1.3980   19.0440 C   0  0  0  0  0  0  0  0  0  0  0  0
    5.1670    1.3440   17.8300 C   0  0  0  0  0  0  0  0  0  0  0  0
    6.3140    0.7180   17.6590 N   0  0  0  0  0  0  0  0  0  0  0  0
    6.8060    0.1610   18.7600 C   0  0  0  0  0  0  0  0  0  0  0  0
    9.8480   -0.5670   23.6140 C   0  0  0  0  0  0  0  0  0  0  0  0
   11.0660   -0.5860   24.4200 C   0  0  0  0  0  0  0  0  0  0  0  0
   10.0020   -0.0740   25.3880 C   0  0  0  0  0  0  0  0  0  0  0  0
    9.1550    0.5190   24.7480 O   0  0  0  0  0  0  0  0  0  0  0  0
    9.9430   -0.2440   26.7170 N   0  0  0  0  0  0  0  0  0  0  0  0
    8.8770    0.3660   27.4860 C   0  0  0  0  0  0  0  0  0  0  0  0
    7.6700   -0.0510   27.4020 C   0  0  0  0  0  0  0  0  0  0  0  0
    7.7200    1.2480   26.7980 C   0  0  0  0  0  0  0  0  0  0  0  0
  1  2  1  0
  2  3  2  0
  3  4  1  0
  4  5  2  0
  5  6  1  0
  6  7  1  0
  7  8  2  0
  7  9  1  0
  9 10  1  0
 10 11  2  0
 11 12  1  0
 12 13  2  0
 13 14  1  0
 10 15  1  0
 14 15  2  0
  5 16  1  0
  2 17  1  0
 16 17  2  0
 17 18  1  0
 18 19  2  0
 18 20  1  0
 20 21  1  0
 21 22  1  0
 21 23  1  0
 22 23  1  0
M  END
