pyridine_urea_14993
     RDKit          3D

 18 20  0  0  0  0  0  0  0  0999 V2000
    8.8220    0.8570   21.2290 O   0  0  0  0  0  0  0  0  0  0  0  0
    8.4200   -0.2550   21.5500 C   0  0  0  0  0  0  0  0  0  0  0  0
    7.2360   -0.7970   21.0790 N   0  0  0  0  0  0  0  0  0  0  0  0
    6.5440   -0.0830   20.0280 C   0  0  0  0  0  0  0  0  0  0  0  0
    5.2580    0.6560   20.3890 C   0  0  0  0  0  0  0  0  0  0  0  0
    4.5360    1.4160   19.2740 C   0  0  0  0  0  0  0  0  0  0  0  0
    5.2010    1.3580   17.9000 C   0  0  0  0  0  0  0  0  0  0  0  0
    6.3790    0.6260   17.7340 N   0  0  0  0  0  0  0  0  0  0  0  0
    7.0150   -0.0510   18.7370 C   0  0  0  0  0  0  0  0  0  0  0  0
    9.0970   -1.0980   22.4200 N   0  0  0  0  0  0  0  0  0  0  0  0
   10.4500   -0.8190   22.7410 C   0  0  2  0  0  0  0  0  0  0  0  0
   10.8160    0.4830   23.0290 C   0  0  0  0  0  0  0  0  0  0  0  0
   11.6080    0.6870   24.1250 C   0  0  0  0  0  0  0  0  0  0  0  0
   12.7200   -0.1140   24.1640 C   0  0  0  0  0  0  0  0  0  0  0  0
   12.6030   -1.3240   23.6190 N   0  0  0  0  0  0  0  0  0  0  0  0
   12.6990   -1.3040   22.3280 C   0  0  0  0  0  0  0  0  0  0  0  0
   11.3970   -1.5990   22.0140 C   0  0  0  0  0  0  0  0  0  0  0  0
   11.2140   -1.8190   23.6390 C   0  0  0  0  0  0  0  0  0  0  0  0
  1  2  2  0
  2  3  1  0
  3  4  1  0
  4  5  2  0
  5  6  1  0
  6  7  2  0
  7  8  1  0
  4  9  1  0
  8  9  2  0
  2 10  1  0
 11 10  1  6
 11 12  1  0
 12 13  1  0
 13 14  1  0
 14 15  1  0
 15 16  1  0
 11 17  1  0
 16 17  1  0
 11 18  1  0
 15 18  1  0
M  END
