pyridine_urea_8809
     RDKit          3D

 20 22  0  0  0  0  0  0  0  0999 V2000
    7.5230   -2.1740   21.5120 O   0  0  0  0  0  0  0  0  0  0  0  0
    7.8100   -1.0540   21.7320 C   0  0  0  0  0  0  0  0  0  0  0  0
    6.9340   -0.0350   21.5300 N   0  0  0  0  0  0  0  0  0  0  0  0
    6.4760    0.3170   20.2060 C   0  0  0  0  0  0  0  0  0  0  0  0
    5.2380    1.2240   20.2390 C   0  0  0  0  0  0  0  0  0  0  0  0
    4.6590    1.6770   19.0650 C   0  0  0  0  0  0  0  0  0  0  0  0
    5.2370    1.2880   17.8680 C   0  0  0  0  0  0  0  0  0  0  0  0
    6.3420    0.4700   17.8670 N   0  0  0  0  0  0  0  0  0  0  0  0
    6.9820   -0.0360   19.0070 C   0  0  0  0  0  0  0  0  0  0  0  0
    9.0060   -0.6600   22.1700 N   0  0  0  0  0  0  0  0  0  0  0  0
   10.2390   -0.2490   22.3970 C   0  0  0  0  0  0  0  0  0  0  0  0
   11.3150   -1.1260   22.3070 C   0  0  0  0  0  0  0  0  0  0  0  0
   12.5750   -0.6330   22.4990 C   0  0  0  0  0  0  0  0  0  0  0  0
   12.7500    0.7070   22.7730 C   0  0  0  0  0  0  0  0  0  0  0  0
   13.9540    1.1030   22.8980 F   0  0  0  0  0  0  0  0  0  0  0  0
   11.7370    1.6640   22.9060 C   0  0  0  0  0  0  0  0  0  0  0  0
   11.9130    3.1480   23.2140 C   0  0  0  0  0  0  0  0  0  0  0  0
   12.9170    3.8470   22.8710 C   0  0  0  0  0  0  0  0  0  0  0  0
   11.7690    4.0430   21.9630 C   0  0  0  0  0  0  0  0  0  0  0  0
   10.4850    1.1520   22.7150 C   0  0  0  0  0  0  0  0  0  0  0  0
  1  2  2  0
  2  3  1  0
  3  4  1  0
  4  5  2  0
  5  6  1  0
  6  7  2  0
  7  8  1  0
  4  9  1  0
  8  9  2  0
  2 10  1  0
 10 11  1  0
 11 12  2  0
 12 13  1  0
 13 14  2  0
 14 15  1  0
 14 16  1  0
 16 17  1  0
 17 18  1  0
 17 19  1  0
 18 19  1  0
 11 20  1  0
 16 20  2  0
M  END
