pyridine_urea_10702
     RDKit          3D

 20 21  0  0  0  0  0  0  0  0999 V2000
   13.2110   -2.1660   21.1710 C   0  0  0  0  0  0  0  0  0  0  0  0
   12.7820   -2.2900   22.5950 C   0  0  0  0  0  0  0  0  0  0  0  0
   13.5980   -2.5480   23.6840 C   0  0  0  0  0  0  0  0  0  0  0  0
   11.8450   -3.0530   22.6180 O   0  0  0  0  0  0  0  0  0  0  0  0
   12.1080   -1.0090   22.8760 C   0  0  0  0  0  0  0  0  0  0  0  0
   12.7600    0.1590   23.2310 C   0  0  0  0  0  0  0  0  0  0  0  0
   12.0250    1.4160   23.5090 C   0  0  0  0  0  0  0  0  0  0  0  0
   10.5190    1.3290   23.3800 C   0  0  0  0  0  0  0  0  0  0  0  0
    9.9560   -0.0250   22.9720 C   0  0  0  0  0  0  0  0  0  0  0  0
    8.5450   -0.0980   22.8250 N   0  0  0  0  0  0  0  0  0  0  0  0
    8.1750    0.3860   21.6110 C   0  0  0  0  0  0  0  0  0  0  0  0
    8.7250    1.3600   21.0800 O   0  0  0  0  0  0  0  0  0  0  0  0
    7.1430   -0.3270   21.0670 N   0  0  0  0  0  0  0  0  0  0  0  0
    6.4560    0.2090   19.9950 C   0  0  0  0  0  0  0  0  0  0  0  0
    5.2810    0.9110   20.2430 C   0  0  0  0  0  0  0  0  0  0  0  0
    4.6020    1.4740   19.1780 C   0  0  0  0  0  0  0  0  0  0  0  0
    5.1260    1.3100   17.9170 C   0  0  0  0  0  0  0  0  0  0  0  0
    6.2450    0.6300   17.6580 N   0  0  0  0  0  0  0  0  0  0  0  0
    6.8880    0.0920   18.7020 C   0  0  0  0  0  0  0  0  0  0  0  0
   10.7550   -1.0920   22.7480 C   0  0  0  0  0  0  0  0  0  0  0  0
  1  2  1  0
  2  3  1  0
  2  4  1  0
  2  5  1  0
  5  6  2  0
  6  7  1  0
  7  8  2  0
  8  9  1  0
  9 10  1  0
 10 11  1  0
 11 12  2  0
 11 13  1  0
 13 14  1  0
 14 15  2  0
 15 16  1  0
 16 17  2  0
 17 18  1  0
 14 19  1  0
 18 19  2  0
  5 20  1  0
  9 20  2  0
M  END
