pyridine_urea_11914
     RDKit          3D

 25 26  0  0  0  0  0  0  0  0999 V2000
    8.2420    1.7920   23.3880 C   0  0  0  0  0  0  0  0  0  0  0  0
    9.3850    2.1400   22.7040 N   0  0  0  0  0  0  0  0  0  0  0  0
    9.5870    3.3510   22.0600 C   0  0  0  0  0  0  0  0  0  0  0  0
   10.4220    1.2330   22.8170 C   0  0  0  0  0  0  0  0  0  0  0  0
   11.7770    1.5200   23.0440 C   0  0  0  0  0  0  0  0  0  0  0  0
   12.6930    0.5170   23.1350 C   0  0  0  0  0  0  0  0  0  0  0  0
   12.2900   -0.7830   23.0090 C   0  0  0  0  0  0  0  0  0  0  0  0
   13.0510   -2.2490   23.0780 S   0  0  0  0  0  0  0  0  0  0  0  0
   13.8810   -2.3460   24.2550 O   0  0  0  0  0  0  0  0  0  0  0  0
   13.4060   -2.6210   21.7320 O   0  0  0  0  0  0  0  0  0  0  0  0
   11.5290   -2.9190   23.4200 N   0  0  0  0  0  0  0  0  0  0  0  0
   11.7060   -3.2630   24.7340 C   0  0  0  0  0  0  0  0  0  0  0  0
   10.8410   -2.5980   22.2460 C   0  0  0  0  0  0  0  0  0  0  0  0
   10.9660   -1.0870   22.7800 C   0  0  0  0  0  0  0  0  0  0  0  0
    9.9940   -0.1650   22.6710 C   0  0  0  0  0  0  0  0  0  0  0  0
    8.7380   -0.5540   22.4410 N   0  0  0  0  0  0  0  0  0  0  0  0
    8.2010    0.1280   21.4270 C   0  0  0  0  0  0  0  0  0  0  0  0
    8.5130    1.3430   20.8770 O   0  0  0  0  0  0  0  0  0  0  0  0
    7.1700   -0.5980   20.9640 N   0  0  0  0  0  0  0  0  0  0  0  0
    6.4410    0.0600   20.0450 C   0  0  0  0  0  0  0  0  0  0  0  0
    5.2700    0.7750   20.2990 C   0  0  0  0  0  0  0  0  0  0  0  0
    4.6290    1.4160   19.2450 C   0  0  0  0  0  0  0  0  0  0  0  0
    5.1770    1.3260   17.9690 C   0  0  0  0  0  0  0  0  0  0  0  0
    6.2990    0.6360   17.7090 N   0  0  0  0  0  0  0  0  0  0  0  0
    6.8960    0.0250   18.7440 C   0  0  0  0  0  0  0  0  0  0  0  0
  1  2  1  0
  2  3  1  0
  2  4  1  0
  4  5  2  0
  5  6  1  0
  6  7  2  0
  7  8  1  0
  8  9  2  0
  8 10  2  0
  8 11  1  0
 11 12  1  0
 11 13  1  0
  7 14  1  0
  4 15  1  0
 14 15  2  0
 15 16  1  0
 16 17  1  0
 17 18  2  0
 17 19  1  0
 19 20  1  0
 20 21  2  0
 21 22  1  0
 22 23  2  0
 23 24  1  0
 20 25  1  0
 24 25  2  0
M  END
