pyridine_urea_6968
     RDKit          3D

 20 20  0  0  0  0  0  0  0  0999 V2000
   13.3270    2.8380   22.1860 C   0  0  0  0  0  0  0  0  0  0  0  0
   13.8510    1.4230   21.9360 C   0  0  0  0  0  0  0  0  0  0  0  0
   12.8070    0.4670   22.1840 N   0  0  0  0  0  0  0  0  0  0  0  0
   13.1370   -0.9390   22.4160 C   0  0  0  0  0  0  0  0  0  0  0  0
   13.1840   -1.7330   21.2700 C   0  0  0  0  0  0  0  0  0  0  0  0
   11.8510    0.9090   22.9930 C   0  0  0  0  0  0  0  0  0  0  0  0
   10.9320   -0.0300   23.3840 C   0  0  0  0  0  0  0  0  0  0  0  0
   10.3070   -0.9460   22.3450 C   0  0  1  0  0  0  0  0  0  0  0  0
   10.7730   -2.2320   22.1630 C   0  0  0  0  0  0  0  0  0  0  0  0
   11.6590   -2.5130   22.9600 O   0  0  0  0  0  0  0  0  0  0  0  0
    8.8520   -0.9910   22.4800 N   0  0  0  0  0  0  0  0  0  0  0  0
    8.2800   -0.0360   21.5280 C   0  0  0  0  0  0  0  0  0  0  0  0
    8.8300    1.2650   21.1900 O   0  0  0  0  0  0  0  0  0  0  0  0
    7.1240   -0.5370   20.9990 N   0  0  0  0  0  0  0  0  0  0  0  0
    6.3910    0.1150   20.0270 C   0  0  0  0  0  0  0  0  0  0  0  0
    5.2080    0.8100   20.2180 C   0  0  0  0  0  0  0  0  0  0  0  0
    4.5300    1.4910   19.0960 C   0  0  0  0  0  0  0  0  0  0  0  0
    5.1510    1.3910   17.8490 C   0  0  0  0  0  0  0  0  0  0  0  0
    6.2950    0.7100   17.6510 N   0  0  0  0  0  0  0  0  0  0  0  0
    6.8870    0.0860   18.7440 C   0  0  0  0  0  0  0  0  0  0  0  0
  1  2  1  0
  2  3  1  0
  3  4  1  0
  4  5  1  0
  3  6  1  0
  6  7  1  0
  8  7  1  1
  8  9  1  0
  9 10  1  0
  8 11  1  0
 11 12  1  0
 12 13  2  0
 12 14  1  0
 14 15  1  0
 15 16  2  0
 16 17  1  0
 17 18  2  0
 18 19  1  0
 15 20  1  0
 19 20  2  0
M  END
