pyridine_urea_7366
     RDKit          3D

 18 18  0  0  0  0  0  0  0  0999 V2000
   12.6840   -1.6520   25.0810 C   0  0  0  0  0  0  0  0  0  0  0  0
   12.8160   -2.9140   24.3330 C   0  0  0  0  0  0  0  0  0  0  0  0
   13.5580   -2.6490   23.2220 C   0  0  0  0  0  0  0  0  0  0  0  0
   12.9480   -2.3280   22.0350 C   0  0  0  0  0  0  0  0  0  0  0  0
   13.0640   -1.1690   21.7170 O   0  0  0  0  0  0  0  0  0  0  0  0
   12.4870   -0.3090   22.5810 C   0  0  0  0  0  0  0  0  0  0  0  0
   11.1180   -0.3320   22.3390 C   0  0  0  0  0  0  0  0  0  0  0  0
   10.2280   -0.6920   23.3080 C   0  0  0  0  0  0  0  0  0  0  0  0
    8.9260   -0.9350   22.6580 N   0  0  0  0  0  0  0  0  0  0  0  0
    8.4330   -0.0720   21.6960 C   0  0  0  0  0  0  0  0  0  0  0  0
    9.0610    1.1790   21.2950 O   0  0  0  0  0  0  0  0  0  0  0  0
    7.2480   -0.5310   21.1850 N   0  0  0  0  0  0  0  0  0  0  0  0
    6.5640    0.0700   20.1280 C   0  0  0  0  0  0  0  0  0  0  0  0
    5.4020    0.8190   20.3130 C   0  0  0  0  0  0  0  0  0  0  0  0
    4.6930    1.4490   19.2980 C   0  0  0  0  0  0  0  0  0  0  0  0
    5.1670    1.3290   18.0030 C   0  0  0  0  0  0  0  0  0  0  0  0
    6.2680    0.6300   17.6800 N   0  0  0  0  0  0  0  0  0  0  0  0
    6.9520    0.0190   18.6690 C   0  0  0  0  0  0  0  0  0  0  0  0
  1  2  1  0
  2  3  1  0
  3  4  1  0
  4  5  1  0
  5  6  1  0
  6  7  1  0
  7  8  1  0
  8  9  1  0
  9 10  1  0
 10 11  2  0
 10 12  1  0
 12 13  1  0
 13 14  2  0
 14 15  1  0
 15 16  2  0
 16 17  1  0
 13 18  1  0
 17 18  2  0
M  END
