pyridine_urea_13191
     RDKit          3D

 17 18  0  0  0  0  0  0  0  0999 V2000
   10.2620    0.8010   24.6070 C   0  0  0  0  0  0  0  0  0  0  0  0
   11.6040    0.6250   23.9630 C   0  0  1  0  0  0  0  0  0  0  0  0
   12.3850   -0.4200   24.4270 C   0  0  0  0  0  0  0  0  0  0  0  0
   12.4150   -1.3970   23.4500 C   0  0  0  0  0  0  0  0  0  0  0  0
   11.5700   -1.0120   22.4470 C   0  0  1  0  0  0  0  0  0  0  0  0
   10.1610   -1.5690   22.6600 C   0  0  0  0  0  0  0  0  0  0  0  0
    9.3010   -1.3350   21.5190 N   0  0  0  0  0  0  0  0  0  0  0  0
    8.5020   -0.2180   21.4180 C   0  0  0  0  0  0  0  0  0  0  0  0
    8.9340    0.9200   21.5140 O   0  0  0  0  0  0  0  0  0  0  0  0
    7.1220   -0.5680   21.1460 N   0  0  0  0  0  0  0  0  0  0  0  0
    6.4810    0.0350   20.0870 C   0  0  0  0  0  0  0  0  0  0  0  0
    5.3020    0.7520   20.3320 C   0  0  0  0  0  0  0  0  0  0  0  0
    4.6460    1.3780   19.2800 C   0  0  0  0  0  0  0  0  0  0  0  0
    5.1910    1.2700   18.0070 C   0  0  0  0  0  0  0  0  0  0  0  0
    6.3120    0.5860   17.7440 N   0  0  0  0  0  0  0  0  0  0  0  0
    6.9280   -0.0160   18.7810 C   0  0  0  0  0  0  0  0  0  0  0  0
   11.5510    0.3760   22.6200 C   0  0  0  0  0  0  0  0  0  0  0  0
  2  1  1  1
  2  3  1  0
  3  4  1  0
  4  5  1  0
  5  6  1  1
  6  7  1  0
  7  8  1  0
  8  9  2  0
  8 10  1  0
 10 11  1  0
 11 12  2  0
 12 13  1  0
 13 14  2  0
 14 15  1  0
 11 16  1  0
 15 16  2  0
  2 17  1  0
  5 17  1  0
M  END
