pyridine_urea_3753
     RDKit          3D

 24 26  0  0  0  0  0  0  0  0999 V2000
   13.1300    4.4880   23.0110 N   0  0  0  0  0  0  0  0  0  0  0  0
   12.1870    3.6800   22.4730 C   0  0  0  0  0  0  0  0  0  0  0  0
   11.8580    3.8570   21.1230 O   0  0  0  0  0  0  0  0  0  0  0  0
   11.5200    2.6350   23.3950 C   0  0  1  0  0  0  0  0  0  0  0  0
   10.4730    1.7280   22.7580 C   0  0  0  0  0  0  0  0  0  0  0  0
   11.1860    0.5230   23.1730 C   0  0  1  0  0  0  0  0  0  0  0  0
   10.3220   -0.1210   24.2170 C   0  0  0  0  0  0  0  0  0  0  0  0
    9.7110   -1.3720   23.5920 C   0  0  1  0  0  0  0  0  0  0  0  0
    9.2590   -1.1960   22.2660 N   0  0  0  0  0  0  0  0  0  0  0  0
    8.4000   -0.2320   21.6320 C   0  0  0  0  0  0  0  0  0  0  0  0
    8.6990    0.9430   21.5200 O   0  0  0  0  0  0  0  0  0  0  0  0
    7.2380   -0.7770   21.1650 N   0  0  0  0  0  0  0  0  0  0  0  0
    6.5870   -0.1170   20.1450 C   0  0  0  0  0  0  0  0  0  0  0  0
    5.4310    0.6210   20.4380 C   0  0  0  0  0  0  0  0  0  0  0  0
    4.7680    1.2950   19.4150 C   0  0  0  0  0  0  0  0  0  0  0  0
    5.2600    1.2290   18.1210 C   0  0  0  0  0  0  0  0  0  0  0  0
    6.3580    0.5290   17.8130 N   0  0  0  0  0  0  0  0  0  0  0  0
    6.9920   -0.1260   18.8190 C   0  0  0  0  0  0  0  0  0  0  0  0
   10.8690   -2.3850   23.6190 C   0  0  0  0  0  0  0  0  0  0  0  0
   12.1770   -1.9320   23.5400 C   0  0  0  0  0  0  0  0  0  0  0  0
   12.0270   -0.7570   22.2780 S   0  0  0  0  0  0  0  0  0  0  0  0
   13.3830   -0.4120   21.9270 O   0  0  0  0  0  0  0  0  0  0  0  0
   11.1210   -1.4270   21.3810 O   0  0  0  0  0  0  0  0  0  0  0  0
   12.3410    1.2780   23.7630 C   0  0  0  0  0  0  0  0  0  0  0  0
  1  2  1  0
  2  3  2  0
  4  2  1  6
  4  5  1  0
  6  5  1  6
  6  7  1  0
  7  8  1  0
  8  9  1  6
  9 10  1  0
 10 11  2  0
 10 12  1  0
 12 13  1  0
 13 14  2  0
 14 15  1  0
 15 16  2  0
 16 17  1  0
 13 18  1  0
 17 18  2  0
  8 19  1  0
 19 20  1  0
  6 21  1  0
 21 20  1  0
 21 22  2  0
 21 23  2  0
  4 24  1  0
  6 24  1  0
M  END
