pyridine_urea_3732
     RDKit          3D

 21 23  0  0  0  0  0  0  0  0999 V2000
   10.3750    1.7710   23.8330 C   0  0  0  0  0  0  0  0  0  0  0  0
   10.4750    0.2710   24.1390 C   0  0  1  0  0  0  0  0  0  0  0  0
    9.8100    0.0700   25.3960 O   0  0  0  0  0  0  0  0  0  0  0  0
    9.8330   -0.5140   23.0190 C   0  0  0  0  0  0  0  0  0  0  0  0
    8.5250   -0.3720   22.8520 N   0  0  0  0  0  0  0  0  0  0  0  0
    8.1850    0.1470   21.6720 C   0  0  0  0  0  0  0  0  0  0  0  0
    8.8340    1.2960   21.1010 O   0  0  0  0  0  0  0  0  0  0  0  0
    7.0910   -0.6030   21.1060 N   0  0  0  0  0  0  0  0  0  0  0  0
    6.4470    0.0210   20.0890 C   0  0  0  0  0  0  0  0  0  0  0  0
    5.1420    0.7910   20.2960 C   0  0  0  0  0  0  0  0  0  0  0  0
    4.4930    1.4870   19.0940 C   0  0  0  0  0  0  0  0  0  0  0  0
    5.1410    1.3740   17.8690 C   0  0  0  0  0  0  0  0  0  0  0  0
    6.2720    0.7050   17.6480 N   0  0  0  0  0  0  0  0  0  0  0  0
    6.8920    0.0740   18.6460 C   0  0  0  0  0  0  0  0  0  0  0  0
   11.8890   -0.2010   24.1740 C   0  0  2  0  0  0  0  0  0  0  0  0
   12.7400    0.0680   23.1330 C   0  0  0  0  0  0  0  0  0  0  0  0
   13.0320   -1.1530   22.5070 C   0  0  2  0  0  0  0  0  0  0  0  0
   11.8210   -1.8180   21.9950 C   0  0  0  0  0  0  0  0  0  0  0  0
   11.1220   -2.1140   23.0970 C   0  0  0  0  0  0  0  0  0  0  0  0
   11.9390   -1.5970   24.2140 C   0  0  1  0  0  0  0  0  0  0  0  0
   13.2530   -1.8580   23.7570 C   0  0  0  0  0  0  0  0  0  0  0  0
  2  1  1  6
  2  3  1  0
  2  4  1  0
  4  5  1  0
  5  6  1  0
  6  7  2  0
  6  8  1  0
  8  9  1  0
  9 10  2  0
 10 11  1  0
 11 12  2  0
 12 13  1  0
  9 14  1  0
 13 14  2  0
  2 15  1  0
 15 16  1  6
 17 16  1  1
 17 18  1  0
 18 19  2  0
 15 20  1  0
 20 19  1  6
 17 21  1  0
 20 21  1  0
M  END
