pyridine_urea_10552
     RDKit          3D

 21 23  0  0  0  0  0  0  0  0999 V2000
   13.3180    0.3600   23.2910 C   0  0  0  0  0  0  0  0  0  0  0  0
   12.4300   -0.4030   22.6900 N   0  0  0  0  0  0  0  0  0  0  0  0
   11.3000   -1.0910   22.1820 C   0  0  0  0  0  0  0  0  0  0  0  0
    9.9660   -0.7440   22.6210 C   0  0  0  0  0  0  0  0  0  0  0  0
    8.7610   -1.2150   22.2680 N   0  0  0  0  0  0  0  0  0  0  0  0
    8.0730   -0.3600   21.4180 C   0  0  0  0  0  0  0  0  0  0  0  0
    8.5450    0.7340   21.1360 O   0  0  0  0  0  0  0  0  0  0  0  0
    6.8880   -0.8380   20.9610 N   0  0  0  0  0  0  0  0  0  0  0  0
    6.2330   -0.0900   19.9860 C   0  0  0  0  0  0  0  0  0  0  0  0
    5.0300    0.6020   20.1460 C   0  0  0  0  0  0  0  0  0  0  0  0
    4.5000    1.3330   19.0770 C   0  0  0  0  0  0  0  0  0  0  0  0
    5.1670    1.3710   17.8600 C   0  0  0  0  0  0  0  0  0  0  0  0
    6.3280    0.6980   17.6940 N   0  0  0  0  0  0  0  0  0  0  0  0
    6.8540   -0.0250   18.7520 C   0  0  0  0  0  0  0  0  0  0  0  0
   10.2580    0.3260   23.5750 C   0  0  0  0  0  0  0  0  0  0  0  0
    9.1630    0.9340   24.2270 O   0  0  0  0  0  0  0  0  0  0  0  0
    9.2490    2.1630   24.8670 C   0  0  0  0  0  0  0  0  0  0  0  0
    9.9540    3.1920   24.1380 C   0  0  0  0  0  0  0  0  0  0  0  0
    8.6650    3.9160   24.1360 C   0  0  0  0  0  0  0  0  0  0  0  0
    7.8680    2.9810   24.7180 C   0  0  0  0  0  0  0  0  0  0  0  0
   11.7120    0.4960   23.5920 N   0  0  0  0  0  0  0  0  0  0  0  0
  1  2  1  0
  2  3  1  0
  3  4  2  0
  4  5  1  0
  5  6  1  0
  6  7  2  0
  6  8  1  0
  8  9  1  0
  9 10  2  0
 10 11  1  0
 11 12  2  0
 12 13  1  0
  9 14  1  0
 13 14  2  0
  4 15  1  0
 15 16  1  0
 16 17  1  0
 17 18  1  0
 18 19  1  0
 17 20  1  0
 19 20  1  0
  2 21  1  0
 15 21  2  0
M  END
