pyridine_urea_505
     RDKit          3D

 25 26  0  0  0  0  0  0  0  0999 V2000
   10.5320    6.3670   22.8890 C   0  0  0  0  0  0  0  0  0  0  0  0
   11.7030    5.8050   23.6840 C   0  0  0  0  0  0  0  0  0  0  0  0
   11.9650    6.4610   24.8800 C   0  0  0  0  0  0  0  0  0  0  0  0
   12.9890    5.8880   22.8130 C   0  0  0  0  0  0  0  0  0  0  0  0
   11.4570    4.3770   23.9610 N   0  0  0  0  0  0  0  0  0  0  0  0
   10.9420    3.4780   22.6600 S   0  0  0  0  0  0  0  0  0  0  0  0
   11.8050    3.9030   21.5820 O   0  0  0  0  0  0  0  0  0  0  0  0
    9.5150    3.6840   22.5930 O   0  0  0  0  0  0  0  0  0  0  0  0
   11.1990    1.7130   22.8000 C   0  0  0  0  0  0  0  0  0  0  0  0
   10.1190    0.8980   22.7700 C   0  0  0  0  0  0  0  0  0  0  0  0
   10.2030   -0.6080   22.8060 C   0  0  0  0  0  0  0  0  0  0  0  0
    8.9050   -1.2870   22.7040 N   0  0  0  0  0  0  0  0  0  0  0  0
    8.2500   -0.5080   21.6350 C   0  0  0  0  0  0  0  0  0  0  0  0
    8.7580    0.5040   21.1890 O   0  0  0  0  0  0  0  0  0  0  0  0
    7.0510   -0.8890   21.1170 N   0  0  0  0  0  0  0  0  0  0  0  0
    6.3450   -0.1600   20.1390 C   0  0  0  0  0  0  0  0  0  0  0  0
    5.1370    0.5380   20.3300 C   0  0  0  0  0  0  0  0  0  0  0  0
    4.5460    1.2480   19.2790 C   0  0  0  0  0  0  0  0  0  0  0  0
    5.1840    1.2760   17.9580 C   0  0  0  0  0  0  0  0  0  0  0  0
    6.3720    0.5760   17.7830 N   0  0  0  0  0  0  0  0  0  0  0  0
    6.9010   -0.1050   18.8510 C   0  0  0  0  0  0  0  0  0  0  0  0
   11.4590   -1.1990   22.9010 C   0  0  0  0  0  0  0  0  0  0  0  0
   12.5850   -0.3570   22.9480 C   0  0  0  0  0  0  0  0  0  0  0  0
   12.4320    1.0460   22.8900 C   0  0  0  0  0  0  0  0  0  0  0  0
   13.5550    1.7200   22.9010 F   0  0  0  0  0  0  0  0  0  0  0  0
  1  2  1  0
  2  3  1  0
  2  4  1  0
  2  5  1  0
  6  5  1  0
  6  7  2  0
  6  8  2  0
  6  9  1  0
  9 10  2  0
 10 11  1  0
 11 12  1  0
 12 13  1  0
 13 14  2  0
 13 15  1  0
 15 16  1  0
 16 17  2  0
 17 18  1  0
 18 19  2  0
 19 20  1  0
 16 21  1  0
 20 21  2  0
 11 22  2  0
 22 23  1  0
  9 24  1  0
 23 24  2  0
 24 25  1  0
M  END
