pyridine_urea_11143
     RDKit          3D

 18 18  0  0  0  0  0  0  0  0999 V2000
   12.4480   -2.0810   24.7640 C   0  0  0  0  0  0  0  0  0  0  0  0
   11.0940   -1.9090   24.3140 O   0  0  0  0  0  0  0  0  0  0  0  0
   10.4940   -0.6260   24.5770 C   0  0  0  0  0  0  0  0  0  0  0  0
   11.0390   -0.6230   25.6520 O   0  0  0  0  0  0  0  0  0  0  0  0
   10.0280   -1.0350   23.1960 C   0  0  1  0  0  0  0  0  0  0  0  0
    8.6990   -0.3590   23.0620 N   0  0  0  0  0  0  0  0  0  0  0  0
    8.3360    0.0440   21.6560 C   0  0  0  0  0  0  0  0  0  0  0  0
    8.9610    1.1760   21.1470 O   0  0  0  0  0  0  0  0  0  0  0  0
    7.3680   -0.7880   21.1050 N   0  0  0  0  0  0  0  0  0  0  0  0
    6.7720   -0.1670   20.0900 C   0  0  0  0  0  0  0  0  0  0  0  0
    5.5500    0.6650   20.5020 C   0  0  0  0  0  0  0  0  0  0  0  0
    4.8100    1.3940   19.4560 C   0  0  0  0  0  0  0  0  0  0  0  0
    5.2510    1.2860   18.1980 C   0  0  0  0  0  0  0  0  0  0  0  0
    6.3310    0.5490   17.8150 N   0  0  0  0  0  0  0  0  0  0  0  0
    7.0600   -0.1530   18.7450 C   0  0  0  0  0  0  0  0  0  0  0  0
   11.0470   -0.4500   22.2440 C   0  0  2  0  0  0  0  0  0  0  0  0
   12.3690   -0.8600   22.4970 C   0  0  0  0  0  0  0  0  0  0  0  0
   11.0790    0.7690   22.3220 O   0  0  0  0  0  0  0  0  0  0  0  0
  1  2  1  0
  2  3  1  0
  3  4  2  0
  3  5  1  0
  5  6  1  6
  6  7  1  0
  7  8  2  0
  7  9  1  0
  9 10  1  0
 10 11  2  0
 11 12  1  0
 12 13  2  0
 13 14  1  0
 10 15  1  0
 14 15  2  0
  5 16  1  0
 16 17  1  1
 16 18  1  0
M  END
