pyridine_urea_9968
     RDKit          3D

 24 27  0  0  0  0  0  0  0  0999 V2000
    8.5780   -1.1530   20.3640 O   0  0  0  0  0  0  0  0  0  0  0  0
    8.1620   -0.8450   21.3980 C   0  0  0  0  0  0  0  0  0  0  0  0
    6.8840   -0.3540   21.4820 N   0  0  0  0  0  0  0  0  0  0  0  0
    6.2490    0.2180   20.3430 C   0  0  0  0  0  0  0  0  0  0  0  0
    5.0670    0.9500   20.3730 C   0  0  0  0  0  0  0  0  0  0  0  0
    4.5380    1.4740   19.1890 C   0  0  0  0  0  0  0  0  0  0  0  0
    5.2050    1.2550   18.0030 C   0  0  0  0  0  0  0  0  0  0  0  0
    6.3450    0.5550   17.9220 N   0  0  0  0  0  0  0  0  0  0  0  0
    6.8330    0.0550   19.0800 C   0  0  0  0  0  0  0  0  0  0  0  0
    8.9430   -0.9170   22.5360 N   0  0  0  0  0  0  0  0  0  0  0  0
   10.1330   -0.1670   22.5710 C   0  0  2  0  0  0  0  0  0  0  0  0
   11.2780   -0.8460   23.0870 C   0  0  0  0  0  0  0  0  0  0  0  0
   12.5440   -0.2060   23.0030 C   0  0  0  0  0  0  0  0  0  0  0  0
   12.3560    1.1520   22.9680 C   0  0  0  0  0  0  0  0  0  0  0  0
   13.2230    2.2330   22.9260 N   0  0  0  0  0  0  0  0  0  0  0  0
   12.5570    3.4020   22.9020 C   0  0  0  0  0  0  0  0  0  0  0  0
   13.1050    4.7730   22.8560 C   0  0  0  0  0  0  0  0  0  0  0  0
   12.1610    5.8190   22.8520 C   0  0  0  0  0  0  0  0  0  0  0  0
   10.7740    5.5340   22.8880 C   0  0  0  0  0  0  0  0  0  0  0  0
    9.6380    6.8290   22.8900 Cl  0  0  0  0  0  0  0  0  0  0  0  0
   10.3000    4.2060   22.9250 C   0  0  0  0  0  0  0  0  0  0  0  0
   11.2290    3.1800   22.9310 C   0  0  0  0  0  0  0  0  0  0  0  0
   11.0990    1.7690   22.9700 C   0  0  0  0  0  0  0  0  0  0  0  0
    9.9050    1.1300   23.0080 C   0  0  0  0  0  0  0  0  0  0  0  0
  1  2  2  0
  2  3  1  0
  3  4  1  0
  4  5  2  0
  5  6  1  0
  6  7  2  0
  7  8  1  0
  4  9  1  0
  8  9  2  0
  2 10  1  0
 11 10  1  1
 11 12  1  0
 12 13  1  0
 13 14  1  0
 14 15  1  0
 15 16  1  0
 16 17  2  0
 17 18  1  0
 18 19  2  0
 19 20  1  0
 19 21  1  0
 16 22  1  0
 21 22  2  0
 14 23  2  0
 22 23  1  0
 11 24  1  0
 23 24  1  0
M  END
