pyridine_urea_9646
     RDKit          3D

 23 26  0  0  0  0  0  0  0  0999 V2000
    8.5190    0.6950   21.0520 O   0  0  0  0  0  0  0  0  0  0  0  0
    8.0440   -0.3690   21.4280 C   0  0  0  0  0  0  0  0  0  0  0  0
    6.8920   -0.9030   20.9380 N   0  0  0  0  0  0  0  0  0  0  0  0
    6.2960   -0.1180   19.9160 C   0  0  0  0  0  0  0  0  0  0  0  0
    5.0170    0.6330   20.2570 C   0  0  0  0  0  0  0  0  0  0  0  0
    4.4000    1.4840   19.1550 C   0  0  0  0  0  0  0  0  0  0  0  0
    5.1500    1.4820   17.8220 C   0  0  0  0  0  0  0  0  0  0  0  0
    6.3190    0.7230   17.6790 N   0  0  0  0  0  0  0  0  0  0  0  0
    6.8580   -0.0310   18.6720 C   0  0  0  0  0  0  0  0  0  0  0  0
    8.5860   -1.1390   22.4030 N   0  0  0  0  0  0  0  0  0  0  0  0
    9.1910   -0.4280   23.4200 C   0  0  2  0  0  0  0  0  0  0  0  0
    9.3170    0.8180   23.5120 C   0  0  0  0  0  0  0  0  0  0  0  0
   10.4180    0.3280   22.7620 C   0  0  1  0  0  0  0  0  0  0  0  0
   11.3710   -0.2800   23.4210 C   0  0  0  0  0  0  0  0  0  0  0  0
   11.5900    0.1320   24.6200 C   0  0  0  0  0  0  0  0  0  0  0  0
   12.5460   -0.4490   25.4000 C   0  0  0  0  0  0  0  0  0  0  0  0
   13.3240   -1.5590   24.8670 C   0  0  0  0  0  0  0  0  0  0  0  0
   13.0470   -1.9390   23.6010 C   0  0  0  0  0  0  0  0  0  0  0  0
   13.6810   -2.9820   22.8760 C   0  0  0  0  0  0  0  0  0  0  0  0
   13.3380   -3.3120   21.5920 C   0  0  0  0  0  0  0  0  0  0  0  0
   12.3750   -2.6770   20.9550 C   0  0  0  0  0  0  0  0  0  0  0  0
   11.7310   -1.6630   21.6050 C   0  0  0  0  0  0  0  0  0  0  0  0
   12.0660   -1.3060   22.8730 C   0  0  0  0  0  0  0  0  0  0  0  0
  1  2  2  0
  2  3  1  0
  3  4  1  0
  4  5  2  0
  5  6  1  0
  6  7  2  0
  7  8  1  0
  4  9  1  0
  8  9  2  0
  2 10  1  0
 11 10  1  6
 11 12  1  0
 11 13  1  0
 12 13  1  0
 13 14  1  1
 14 15  2  0
 15 16  1  0
 16 17  2  0
 17 18  1  0
 18 19  1  0
 19 20  2  0
 20 21  1  0
 21 22  2  0
 14 23  1  0
 18 23  2  0
 22 23  1  0
M  END
