pyridine_urea_10997
     RDKit          3D

 19 21  0  0  0  0  0  0  0  0999 V2000
    8.4350    1.0000   21.0800 O   0  0  0  0  0  0  0  0  0  0  0  0
    8.1300   -0.1480   21.3760 C   0  0  0  0  0  0  0  0  0  0  0  0
    6.8570   -0.7130   21.0050 N   0  0  0  0  0  0  0  0  0  0  0  0
    6.2640   -0.0150   19.9830 C   0  0  0  0  0  0  0  0  0  0  0  0
    5.0710    0.6710   20.1860 C   0  0  0  0  0  0  0  0  0  0  0  0
    4.5250    1.3760   19.1140 C   0  0  0  0  0  0  0  0  0  0  0  0
    5.1920    1.3670   17.8870 C   0  0  0  0  0  0  0  0  0  0  0  0
    6.3400    0.7020   17.6880 N   0  0  0  0  0  0  0  0  0  0  0  0
    6.8510    0.0230   18.7370 C   0  0  0  0  0  0  0  0  0  0  0  0
    8.8920   -1.0260   22.0590 N   0  0  0  0  0  0  0  0  0  0  0  0
   10.1640   -0.4980   22.4390 C   0  0  0  0  0  0  0  0  0  0  0  0
   11.3060   -1.4200   22.0560 C   0  0  0  0  0  0  0  0  0  0  0  0
   12.4580   -0.9670   22.6010 C   0  0  0  0  0  0  0  0  0  0  0  0
   12.2080   -1.1600   23.9240 C   0  0  0  0  0  0  0  0  0  0  0  0
   11.8460   -2.4840   24.1280 C   0  0  0  0  0  0  0  0  0  0  0  0
   13.0700   -2.6950   24.7080 C   0  0  0  0  0  0  0  0  0  0  0  0
   13.3240   -1.3530   24.6410 C   0  0  0  0  0  0  0  0  0  0  0  0
   11.3830   -0.2400   24.5220 C   0  0  0  0  0  0  0  0  0  0  0  0
   10.1450   -0.2270   23.9160 C   0  0  0  0  0  0  0  0  0  0  0  0
  1  2  2  0
  2  3  1  0
  3  4  1  0
  4  5  2  0
  5  6  1  0
  6  7  2  0
  7  8  1  0
  4  9  1  0
  8  9  2  0
  2 10  1  0
 10 11  1  0
 11 12  1  0
 12 13  1  0
 14 13  1  0
 14 15  1  0
 15 16  1  0
 14 17  1  0
 16 17  1  0
 14 18  1  0
 11 19  1  0
 18 19  1  0
M  END
