pyridine_urea_10923
     RDKit          3D

 19 20  0  0  0  0  0  0  0  0999 V2000
   13.1900   -1.7020   25.1720 C   0  0  0  0  0  0  0  0  0  0  0  0
   12.4770   -0.4550   25.1830 O   0  0  0  0  0  0  0  0  0  0  0  0
   11.9170   -0.1310   23.9810 C   0  0  2  0  0  0  0  0  0  0  0  0
   10.6010    0.3320   23.9370 C   0  0  2  0  0  0  0  0  0  0  0  0
    9.5770   -0.4910   24.4210 C   0  0  0  0  0  0  0  0  0  0  0  0
   10.2410   -0.8410   23.0860 C   0  0  1  0  0  0  0  0  0  0  0  0
    9.6710   -0.7690   21.7600 N   0  0  0  0  0  0  0  0  0  0  0  0
    8.7260    0.1810   21.4100 C   0  0  0  0  0  0  0  0  0  0  0  0
    8.9520    1.3840   21.2820 O   0  0  0  0  0  0  0  0  0  0  0  0
    7.4680   -0.3330   21.1490 N   0  0  0  0  0  0  0  0  0  0  0  0
    6.6230    0.1950   20.1580 C   0  0  0  0  0  0  0  0  0  0  0  0
    5.3480    0.9900   20.3980 C   0  0  0  0  0  0  0  0  0  0  0  0
    4.6710    1.4470   19.3040 C   0  0  0  0  0  0  0  0  0  0  0  0
    5.1410    1.1860   18.0330 C   0  0  0  0  0  0  0  0  0  0  0  0
    6.2480    0.4830   17.7590 N   0  0  0  0  0  0  0  0  0  0  0  0
    6.9570    0.0060   18.8160 C   0  0  0  0  0  0  0  0  0  0  0  0
   11.7250   -1.2490   23.1150 C   0  0  0  0  0  0  0  0  0  0  0  0
   12.6550   -1.2670   22.0960 C   0  0  0  0  0  0  0  0  0  0  0  0
   11.7950   -2.6470   23.7720 C   0  0  0  0  0  0  0  0  0  0  0  0
  1  2  1  0
  3  2  1  1
  3  4  1  0
  4  5  1  1
  4  6  1  0
  6  7  1  6
  7  8  1  0
  8  9  2  0
  8 10  1  0
 10 11  1  0
 11 12  2  0
 12 13  1  0
 13 14  2  0
 14 15  1  0
 11 16  1  0
 15 16  2  0
  3 17  1  0
  6 17  1  0
 17 18  1  0
 17 19  1  0
M  END
