pyridine_urea_4166
     RDKit          3D

 25 27  0  0  0  0  0  0  0  0999 V2000
   11.9760    6.3380   23.2840 C   0  0  0  0  0  0  0  0  0  0  0  0
   11.4600    5.2270   22.6580 N   0  0  0  0  0  0  0  0  0  0  0  0
   10.5220    4.3230   23.1960 C   0  0  0  0  0  0  0  0  0  0  0  0
   10.8850    2.9560   23.2580 C   0  0  0  0  0  0  0  0  0  0  0  0
   12.2270    2.6270   23.1300 N   0  0  0  0  0  0  0  0  0  0  0  0
   12.8760    1.3500   23.2340 C   0  0  0  0  0  0  0  0  0  0  0  0
   13.8590    1.0300   22.6260 O   0  0  0  0  0  0  0  0  0  0  0  0
   12.4620    0.3400   24.0700 C   0  0  0  0  0  0  0  0  0  0  0  0
   11.2000    0.1690   23.8120 N   0  0  0  0  0  0  0  0  0  0  0  0
    9.9690   -0.2440   23.2960 C   0  0  0  0  0  0  0  0  0  0  0  0
    9.9060   -1.1450   22.3190 C   0  0  0  0  0  0  0  0  0  0  0  0
    8.7530   -1.5870   21.7810 N   0  0  0  0  0  0  0  0  0  0  0  0
    8.0740   -0.4400   21.3650 C   0  0  0  0  0  0  0  0  0  0  0  0
    8.6830    0.8470   21.2240 O   0  0  0  0  0  0  0  0  0  0  0  0
    6.7820   -0.6860   21.1070 N   0  0  0  0  0  0  0  0  0  0  0  0
    6.2840   -0.0200   20.0510 C   0  0  0  0  0  0  0  0  0  0  0  0
    5.1100    0.7100   20.2230 C   0  0  0  0  0  0  0  0  0  0  0  0
    4.5930    1.4050   19.1360 C   0  0  0  0  0  0  0  0  0  0  0  0
    5.2380    1.3690   17.9150 C   0  0  0  0  0  0  0  0  0  0  0  0
    6.3670    0.6670   17.7310 N   0  0  0  0  0  0  0  0  0  0  0  0
    6.8620   -0.0080   18.7910 C   0  0  0  0  0  0  0  0  0  0  0  0
   11.1870   -1.4130   22.0960 C   0  0  0  0  0  0  0  0  0  0  0  0
   11.9390   -0.6810   22.9280 N   0  0  0  0  0  0  0  0  0  0  0  0
   13.1010    3.7430   22.7290 C   0  0  0  0  0  0  0  0  0  0  0  0
   12.3770    4.5090   21.8400 C   0  0  0  0  0  0  0  0  0  0  0  0
  1  2  1  0
  2  3  1  0
  3  4  1  0
  4  5  1  0
  5  6  1  0
  6  7  2  0
  6  8  1  0
  8  9  1  0
  9 10  1  0
 10 11  2  0
 11 12  1  0
 12 13  1  0
 13 14  2  0
 13 15  1  0
 15 16  1  0
 16 17  2  0
 17 18  1  0
 18 19  2  0
 19 20  1  0
 16 21  1  0
 20 21  2  0
 11 22  1  0
  9 23  1  0
 22 23  2  0
  5 24  1  0
  2 25  1  0
 24 25  1  0
M  END
