pyridine_urea_5103
     RDKit          3D

 20 22  0  0  0  0  0  0  0  0999 V2000
    8.8250    1.5210   21.0890 O   0  0  0  0  0  0  0  0  0  0  0  0
    8.1890    0.6110   21.6190 C   0  0  0  0  0  0  0  0  0  0  0  0
    7.2170   -0.1690   21.0640 N   0  0  0  0  0  0  0  0  0  0  0  0
    6.5110    0.3020   19.9800 C   0  0  0  0  0  0  0  0  0  0  0  0
    5.3390    1.0110   20.2180 C   0  0  0  0  0  0  0  0  0  0  0  0
    4.6240    1.5250   19.1490 C   0  0  0  0  0  0  0  0  0  0  0  0
    5.1210    1.3010   17.8870 C   0  0  0  0  0  0  0  0  0  0  0  0
    6.2370    0.6120   17.6360 N   0  0  0  0  0  0  0  0  0  0  0  0
    6.9090    0.1250   18.6830 C   0  0  0  0  0  0  0  0  0  0  0  0
    8.4140    0.2770   22.9070 N   0  0  0  0  0  0  0  0  0  0  0  0
    9.6690   -0.3430   23.0500 C   0  0  0  0  0  0  0  0  0  0  0  0
   10.2010   -0.9620   21.7710 C   0  0  0  0  0  0  0  0  0  0  0  0
   11.4080   -1.6020   21.7980 C   0  0  0  0  0  0  0  0  0  0  0  0
   12.0260   -1.6330   22.9750 C   0  0  0  0  0  0  0  0  0  0  0  0
   11.5480   -1.0680   24.1330 C   0  0  0  0  0  0  0  0  0  0  0  0
   10.3600   -0.3920   24.2390 C   0  0  0  0  0  0  0  0  0  0  0  0
   12.4580   -1.3250   25.0980 C   0  0  0  0  0  0  0  0  0  0  0  0
   13.5420   -1.6230   24.3490 C   0  0  2  0  0  0  0  0  0  0  0  0
   13.7850   -0.3410   23.8110 O   0  0  0  0  0  0  0  0  0  0  0  0
   13.2160   -2.2350   23.1990 C   0  0  0  0  0  0  0  0  0  0  0  0
  1  2  2  0
  2  3  1  0
  3  4  1  0
  4  5  2  0
  5  6  1  0
  6  7  2  0
  7  8  1  0
  4  9  1  0
  8  9  2  0
  2 10  1  0
 10 11  1  0
 11 12  2  0
 12 13  1  0
 13 14  2  0
 14 15  1  0
 11 16  1  0
 15 16  2  0
 15 17  1  0
 17 18  1  0
 18 19  1  6
 14 20  1  0
 18 20  1  0
M  END
