pyridine_urea_15064
     RDKit          3D

 19 21  0  0  0  0  0  0  0  0999 V2000
    8.4970    0.7230   21.1170 O   0  0  0  0  0  0  0  0  0  0  0  0
    8.0090   -0.3280   21.5180 C   0  0  0  0  0  0  0  0  0  0  0  0
    6.8830   -0.8810   20.9990 N   0  0  0  0  0  0  0  0  0  0  0  0
    6.3090   -0.1050   19.9530 C   0  0  0  0  0  0  0  0  0  0  0  0
    5.0240    0.6470   20.2680 C   0  0  0  0  0  0  0  0  0  0  0  0
    4.4230    1.4890   19.1500 C   0  0  0  0  0  0  0  0  0  0  0  0
    5.1930    1.4720   17.8280 C   0  0  0  0  0  0  0  0  0  0  0  0
    6.3640    0.7140   17.7030 N   0  0  0  0  0  0  0  0  0  0  0  0
    6.8910   -0.0320   18.7150 C   0  0  0  0  0  0  0  0  0  0  0  0
    8.5240   -1.0780   22.5320 N   0  0  0  0  0  0  0  0  0  0  0  0
    9.8040   -0.7390   22.9150 C   0  0  0  0  0  0  0  0  0  0  0  0
   10.6250   -1.5350   23.5560 C   0  0  0  0  0  0  0  0  0  0  0  0
   10.4030   -2.8080   23.9100 C   0  0  0  0  0  0  0  0  0  0  0  0
   11.4680   -3.2580   24.5730 C   0  0  0  0  0  0  0  0  0  0  0  0
   12.5020   -2.3930   24.7520 C   0  0  0  0  0  0  0  0  0  0  0  0
   14.0100   -2.7720   25.6950 Br  0  0  0  0  0  0  0  0  0  0  0  0
   12.1570   -0.9310   23.9960 S   0  0  0  0  0  0  0  0  0  0  0  0
   10.2620    0.8230   22.7520 C   0  0  0  0  0  0  0  0  0  0  0  0
   10.5820   -0.2340   21.9880 C   0  0  0  0  0  0  0  0  0  0  0  0
  1  2  2  0
  2  3  1  0
  3  4  1  0
  4  5  2  0
  5  6  1  0
  6  7  2  0
  7  8  1  0
  4  9  1  0
  8  9  2  0
  2 10  1  0
 11 10  1  0
 11 12  1  0
 12 13  2  0
 13 14  1  0
 14 15  2  0
 15 16  1  0
 12 17  1  0
 15 17  1  0
 11 18  1  0
 11 19  1  0
 18 19  1  0
M  END
