pyridine_urea_4143
     RDKit          3D

 25 27  0  0  0  0  0  0  0  0999 V2000
   13.5130   -2.0960   25.0930 C   0  0  0  0  0  0  0  0  0  0  0  0
   13.4140   -0.6730   24.8570 O   0  0  0  0  0  0  0  0  0  0  0  0
   13.1150   -0.4170   23.5540 C   0  0  0  0  0  0  0  0  0  0  0  0
   11.8840   -0.7060   24.0080 C   0  0  0  0  0  0  0  0  0  0  0  0
   10.6230   -0.7280   23.2240 C   0  0  0  0  0  0  0  0  0  0  0  0
   10.7070   -0.9640   24.4220 C   0  0  0  0  0  0  0  0  0  0  0  0
   12.0180   -0.7970   24.5600 C   0  0  0  0  0  0  0  0  0  0  0  0
   11.9420   -0.5210   23.0260 C   0  0  0  0  0  0  0  0  0  0  0  0
   10.4490   -0.8720   23.2420 C   0  0  0  0  0  0  0  0  0  0  0  0
    9.6020    0.1660   23.5500 C   0  0  0  0  0  0  0  0  0  0  0  0
    8.3540   -0.1260   22.8830 N   0  0  0  0  0  0  0  0  0  0  0  0
    8.1730    0.3730   21.6190 C   0  0  0  0  0  0  0  0  0  0  0  0
    8.9060    1.4300   21.1120 O   0  0  0  0  0  0  0  0  0  0  0  0
    7.1730   -0.3080   20.9750 N   0  0  0  0  0  0  0  0  0  0  0  0
    6.4050    0.2770   19.9860 C   0  0  0  0  0  0  0  0  0  0  0  0
    5.2180    0.9710   20.2280 C   0  0  0  0  0  0  0  0  0  0  0  0
    4.5130    1.5570   19.1860 C   0  0  0  0  0  0  0  0  0  0  0  0
    5.1750    1.3440   17.8670 C   0  0  0  0  0  0  0  0  0  0  0  0
    6.2990    0.6740   17.6330 N   0  0  0  0  0  0  0  0  0  0  0  0
    6.8810    0.1570   18.7060 C   0  0  0  0  0  0  0  0  0  0  0  0
   10.3380   -1.1750   21.7530 C   0  0  0  0  0  0  0  0  0  0  0  0
    9.2810   -2.0510   21.5190 C   0  0  0  0  0  0  0  0  0  0  0  0
    8.3460   -2.1900   22.5210 O   0  0  0  0  0  0  0  0  0  0  0  0
    8.8910   -2.6150   23.7530 C   0  0  0  0  0  0  0  0  0  0  0  0
   10.2060   -2.1490   23.8230 C   0  0  0  0  0  0  0  0  0  0  0  0
  1  2  1  0
  2  3  1  0
  3  4  2  0
  4  5  1  0
  5  6  2  0
  6  7  1  0
  3  8  1  0
  7  8  2  0
  8  9  1  0
  9 10  1  0
 10 11  1  0
 11 12  1  0
 12 13  2  0
 12 14  1  0
 14 15  1  0
 15 16  2  0
 16 17  1  0
 17 18  2  0
 18 19  1  0
 15 20  1  0
 19 20  2  0
  9 21  1  0
 21 22  1  0
 22 23  1  0
 23 24  1  0
  9 25  1  0
 24 25  1  0
M  END
