pyridine_urea_11059
     RDKit          3D

 19 20  0  0  0  0  0  0  0  0999 V2000
    8.6400    1.1400   21.0710 O   0  0  0  0  0  0  0  0  0  0  0  0
    8.2150    0.0580   21.5030 C   0  0  0  0  0  0  0  0  0  0  0  0
    7.0220   -0.5990   21.0030 N   0  0  0  0  0  0  0  0  0  0  0  0
    6.3800    0.0640   19.9850 C   0  0  0  0  0  0  0  0  0  0  0  0
    5.1950    0.7580   20.2270 C   0  0  0  0  0  0  0  0  0  0  0  0
    4.5930    1.4230   19.1570 C   0  0  0  0  0  0  0  0  0  0  0  0
    5.1970    1.3670   17.9000 C   0  0  0  0  0  0  0  0  0  0  0  0
    6.3350    0.6940   17.6700 N   0  0  0  0  0  0  0  0  0  0  0  0
    6.8990    0.0550   18.7170 C   0  0  0  0  0  0  0  0  0  0  0  0
    8.7730   -0.6900   22.4940 N   0  0  0  0  0  0  0  0  0  0  0  0
   10.1410   -0.4050   22.8040 C   0  0  0  0  0  0  0  0  0  0  0  0
   10.5870    1.0230   22.6860 C   0  0  0  0  0  0  0  0  0  0  0  0
   11.8980    1.3060   22.9580 C   0  0  0  0  0  0  0  0  0  0  0  0
   12.4090    2.9430   22.8010 Cl  0  0  0  0  0  0  0  0  0  0  0  0
   12.7650    0.2780   23.3440 C   0  0  0  0  0  0  0  0  0  0  0  0
   12.2990   -1.0400   23.4600 C   0  0  0  0  0  0  0  0  0  0  0  0
   13.4170   -2.4440   24.0170 Br  0  0  0  0  0  0  0  0  0  0  0  0
   11.0100   -1.3780   23.1870 C   0  0  0  0  0  0  0  0  0  0  0  0
   10.5400   -2.5040   23.2620 O   0  0  0  0  0  0  0  0  0  0  0  0
  1  2  2  0
  2  3  1  0
  3  4  1  0
  4  5  2  0
  5  6  1  0
  6  7  2  0
  7  8  1  0
  4  9  1  0
  8  9  2  0
  2 10  1  0
 10 11  1  0
 11 12  2  0
 12 13  1  0
 13 14  1  0
 13 15  2  0
 15 16  1  0
 16 17  1  0
 11 18  1  0
 16 18  2  0
 18 19  1  0
M  END
