pyridine_urea_14084
     RDKit          3D

 23 25  0  0  0  0  0  0  0  0999 V2000
    6.2860    2.3020   26.0800 C   0  0  0  0  0  0  0  0  0  0  0  0
    7.0100    1.2110   25.6430 N   0  0  0  0  0  0  0  0  0  0  0  0
    8.3130    1.3160   24.9980 C   0  0  0  0  0  0  0  0  0  0  0  0
    8.7150   -0.0750   24.7100 C   0  0  0  0  0  0  0  0  0  0  0  0
    9.9940   -0.4810   24.0590 C   0  0  0  0  0  0  0  0  0  0  0  0
   11.0500   -0.4730   24.7960 C   0  0  0  0  0  0  0  0  0  0  0  0
   12.3880   -0.8150   24.4290 C   0  0  0  0  0  0  0  0  0  0  0  0
   13.2940   -0.7530   25.3830 F   0  0  0  0  0  0  0  0  0  0  0  0
   12.6700   -1.2160   23.0850 C   0  0  0  0  0  0  0  0  0  0  0  0
   11.6830   -1.3020   22.1460 C   0  0  0  0  0  0  0  0  0  0  0  0
   10.1990   -0.9360   22.5640 C   0  0  0  0  0  0  0  0  0  0  0  0
    8.8830   -0.7850   22.3290 N   0  0  0  0  0  0  0  0  0  0  0  0
    8.2340    0.1180   21.3940 C   0  0  0  0  0  0  0  0  0  0  0  0
    8.7080    1.1940   21.0210 O   0  0  0  0  0  0  0  0  0  0  0  0
    7.0500   -0.3890   21.0160 N   0  0  0  0  0  0  0  0  0  0  0  0
    6.4740    0.1690   19.9540 C   0  0  0  0  0  0  0  0  0  0  0  0
    5.3420    0.9320   20.1460 C   0  0  0  0  0  0  0  0  0  0  0  0
    4.4270    1.7210   19.2020 C   0  0  0  0  0  0  0  0  0  0  0  0
    5.1850    1.3950   17.9260 C   0  0  0  0  0  0  0  0  0  0  0  0
    6.2740    0.6680   17.6380 N   0  0  0  0  0  0  0  0  0  0  0  0
    6.9230    0.0430   18.7040 C   0  0  0  0  0  0  0  0  0  0  0  0
    7.5470   -0.9100   25.2380 C   0  0  0  0  0  0  0  0  0  0  0  0
    6.5560   -0.1120   25.7830 N   0  0  0  0  0  0  0  0  0  0  0  0
  1  2  1  0
  2  3  1  0
  3  4  2  0
  4  5  1  0
  5  6  2  0
  6  7  1  0
  7  8  1  0
  7  9  2  0
  9 10  1  0
  5 11  1  0
 10 11  2  0
 11 12  1  0
 12 13  1  0
 13 14  2  0
 13 15  1  0
 15 16  1  0
 16 17  2  0
 17 18  1  0
 18 19  2  0
 19 20  1  0
 16 21  1  0
 20 21  2  0
  4 22  1  0
  2 23  1  0
 22 23  2  0
M  END
