pyridine_urea_318
     RDKit          3D

 27 30  0  0  0  0  0  0  0  0999 V2000
    8.7450    0.9910   21.3830 O   0  0  0  0  0  0  0  0  0  0  0  0
    8.3900   -0.1620   21.1720 C   0  0  0  0  0  0  0  0  0  0  0  0
    7.0860   -0.5510   21.0500 N   0  0  0  0  0  0  0  0  0  0  0  0
    6.4200    0.0920   19.9650 C   0  0  0  0  0  0  0  0  0  0  0  0
    5.1370    0.8380   20.2890 C   0  0  0  0  0  0  0  0  0  0  0  0
    4.5130    1.5030   19.1180 C   0  0  0  0  0  0  0  0  0  0  0  0
    5.1310    1.3880   17.8870 C   0  0  0  0  0  0  0  0  0  0  0  0
    6.2670    0.7030   17.6610 N   0  0  0  0  0  0  0  0  0  0  0  0
    6.8750    0.0820   18.6800 C   0  0  0  0  0  0  0  0  0  0  0  0
    9.2680   -1.1880   21.0050 N   0  0  0  0  0  0  0  0  0  0  0  0
   10.0930   -1.4280   22.1400 C   0  0  0  0  0  0  0  0  0  0  0  0
   11.3700   -1.8660   22.0780 C   0  0  0  0  0  0  0  0  0  0  0  0
   11.8290   -1.9770   23.5140 C   0  0  0  0  0  0  0  0  0  0  0  0
   11.0690   -1.6780   24.6610 C   0  0  0  0  0  0  0  0  0  0  0  0
    9.7220   -1.2090   24.5540 C   0  0  0  0  0  0  0  0  0  0  0  0
    8.7800   -0.8110   25.5380 C   0  0  0  0  0  0  0  0  0  0  0  0
    7.5770   -1.4720   25.7620 N   0  0  0  0  0  0  0  0  0  0  0  0
    7.2450   -1.0740   27.0110 N   0  0  0  0  0  0  0  0  0  0  0  0
    6.1000   -0.4320   26.8840 C   0  0  0  0  0  0  0  0  0  0  0  0
    5.2500    0.2080   27.9210 C   0  0  0  0  0  0  0  0  0  0  0  0
    3.8530    0.5500   27.5260 C   0  0  0  0  0  0  0  0  0  0  0  0
    3.4310    0.2530   26.2220 C   0  0  0  0  0  0  0  0  0  0  0  0
    4.3700   -0.2240   25.2760 C   0  0  0  0  0  0  0  0  0  0  0  0
    5.6800   -0.4010   25.6030 N   0  0  0  0  0  0  0  0  0  0  0  0
    6.4180   -1.3770   25.0070 C   0  0  0  0  0  0  0  0  0  0  0  0
    6.0850   -2.1240   23.9110 O   0  0  0  0  0  0  0  0  0  0  0  0
    9.2640   -1.0970   23.3230 C   0  0  0  0  0  0  0  0  0  0  0  0
  1  2  2  0
  2  3  1  0
  3  4  1  0
  4  5  2  0
  5  6  1  0
  6  7  2  0
  7  8  1  0
  4  9  1  0
  8  9  2  0
  2 10  1  0
 10 11  1  0
 11 12  2  0
 12 13  1  0
 13 14  2  0
 14 15  1  0
 15 16  1  0
 16 17  1  0
 17 18  1  0
 18 19  2  0
 19 20  1  0
 20 21  2  0
 21 22  1  0
 22 23  2  0
 19 24  1  0
 23 24  1  0
 17 25  1  0
 24 25  1  0
 25 26  2  0
 11 27  1  0
 15 27  2  0
M  END
