pyridine_urea_4730
     RDKit          3D

 22 23  0  0  0  0  0  0  0  0999 V2000
    8.2200    1.0560   23.7080 C   0  0  0  0  0  0  0  0  0  0  0  0
    9.4180    0.7630   22.7840 C   0  0  0  0  0  0  0  0  0  0  0  0
    9.7210    2.1720   22.2330 C   0  0  0  0  0  0  0  0  0  0  0  0
    8.8440   -0.0850   21.8290 N   0  0  0  0  0  0  0  0  0  0  0  0
    7.9530    0.3540   21.0110 C   0  0  0  0  0  0  0  0  0  0  0  0
    8.0970    1.4450   20.4970 O   0  0  0  0  0  0  0  0  0  0  0  0
    6.8970   -0.4560   20.8090 N   0  0  0  0  0  0  0  0  0  0  0  0
    6.2150    0.1540   19.8220 C   0  0  0  0  0  0  0  0  0  0  0  0
    4.9750    0.7330   20.0470 C   0  0  0  0  0  0  0  0  0  0  0  0
    4.3760    1.3880   18.9900 C   0  0  0  0  0  0  0  0  0  0  0  0
    5.0490    1.4250   17.7720 C   0  0  0  0  0  0  0  0  0  0  0  0
    6.2340    0.8510   17.5570 N   0  0  0  0  0  0  0  0  0  0  0  0
    6.7780    0.2330   18.5900 C   0  0  0  0  0  0  0  0  0  0  0  0
   10.4700    0.1230   23.2880 C   0  0  0  0  0  0  0  0  0  0  0  0
   10.1840   -0.5950   24.3860 O   0  0  0  0  0  0  0  0  0  0  0  0
   11.6470    0.0840   22.7260 N   0  0  0  0  0  0  0  0  0  0  0  0
   11.9700   -1.0610   23.4300 C   0  0  0  0  0  0  0  0  0  0  0  0
   13.2430   -1.0960   24.0940 C   0  0  0  0  0  0  0  0  0  0  0  0
   13.7060   -2.1290   24.8610 C   0  0  0  0  0  0  0  0  0  0  0  0
   12.8800   -3.2220   25.0070 C   0  0  0  0  0  0  0  0  0  0  0  0
   11.6450   -3.2650   24.3950 C   0  0  0  0  0  0  0  0  0  0  0  0
   11.1640   -2.1420   23.5650 C   0  0  0  0  0  0  0  0  0  0  0  0
  1  2  1  0
  2  3  1  0
  2  4  1  0
  4  5  1  0
  5  6  2  0
  5  7  1  0
  7  8  1  0
  8  9  2  0
  9 10  1  0
 10 11  2  0
 11 12  1  0
  8 13  1  0
 12 13  2  0
  2 14  1  0
 14 15  2  0
 14 16  1  0
 16 17  1  0
 17 18  2  0
 18 19  1  0
 19 20  2  0
 20 21  1  0
 17 22  1  0
 21 22  2  0
M  END
