pyridine_urea_12627
     RDKit          3D

 21 22  0  0  0  0  0  0  0  0999 V2000
   12.7440   -1.0930   22.3560 C   0  0  0  0  0  0  0  0  0  0  0  0
   11.3180   -1.3660   22.9190 C   0  0  1  0  0  0  0  0  0  0  0  0
   10.4950   -0.0710   22.9050 C   0  0  0  0  0  0  0  0  0  0  0  0
    9.1320   -0.3390   22.5120 N   0  0  0  0  0  0  0  0  0  0  0  0
    8.5320    0.4390   21.5600 C   0  0  0  0  0  0  0  0  0  0  0  0
    8.9940    1.5150   21.1880 O   0  0  0  0  0  0  0  0  0  0  0  0
    7.3650   -0.1400   21.1170 N   0  0  0  0  0  0  0  0  0  0  0  0
    6.6190    0.3370   20.0430 C   0  0  0  0  0  0  0  0  0  0  0  0
    5.4720    1.0920   20.3110 C   0  0  0  0  0  0  0  0  0  0  0  0
    4.7320    1.5900   19.2530 C   0  0  0  0  0  0  0  0  0  0  0  0
    5.1550    1.3250   17.9620 C   0  0  0  0  0  0  0  0  0  0  0  0
    6.2390    0.6010   17.6780 N   0  0  0  0  0  0  0  0  0  0  0  0
    6.9450    0.1200   18.7210 C   0  0  0  0  0  0  0  0  0  0  0  0
   10.7550   -2.2050   22.2310 O   0  0  0  0  0  0  0  0  0  0  0  0
    9.4530   -2.6110   22.5920 C   0  0  0  0  0  0  0  0  0  0  0  0
    9.1410   -3.3420   23.7300 C   0  0  0  0  0  0  0  0  0  0  0  0
    7.7030   -3.6800   23.9430 C   0  0  0  0  0  0  0  0  0  0  0  0
    6.6710   -3.3360   23.1290 C   0  0  0  0  0  0  0  0  0  0  0  0
    7.0340   -2.5850   21.9760 C   0  0  0  0  0  0  0  0  0  0  0  0
    5.7600   -2.1160   20.9020 Cl  0  0  0  0  0  0  0  0  0  0  0  0
    8.3830   -2.2500   21.7410 C   0  0  0  0  0  0  0  0  0  0  0  0
  2  1  1  6
  2  3  1  0
  3  4  1  0
  4  5  1  0
  5  6  2  0
  5  7  1  0
  7  8  1  0
  8  9  2  0
  9 10  1  0
 10 11  2  0
 11 12  1  0
  8 13  1  0
 12 13  2  0
  2 14  1  0
 14 15  1  0
 15 16  2  0
 16 17  1  0
 17 18  2  0
 18 19  1  0
 19 20  1  0
 15 21  1  0
 19 21  2  0
M  END
