pyridine_urea_10574
     RDKit          3D

 21 23  0  0  0  0  0  0  0  0999 V2000
    9.0340    1.4760   21.0640 O   0  0  0  0  0  0  0  0  0  0  0  0
    8.4380    0.5350   21.5670 C   0  0  0  0  0  0  0  0  0  0  0  0
    7.4980   -0.2790   20.9780 N   0  0  0  0  0  0  0  0  0  0  0  0
    6.6080    0.2550   20.0590 C   0  0  0  0  0  0  0  0  0  0  0  0
    5.3110    0.9850   20.4390 C   0  0  0  0  0  0  0  0  0  0  0  0
    4.5340    1.5130   19.2430 C   0  0  0  0  0  0  0  0  0  0  0  0
    5.1130    1.2590   17.8940 C   0  0  0  0  0  0  0  0  0  0  0  0
    6.2470    0.5940   17.6750 N   0  0  0  0  0  0  0  0  0  0  0  0
    6.9400    0.1240   18.7270 C   0  0  0  0  0  0  0  0  0  0  0  0
    8.6340    0.2240   22.8690 N   0  0  0  0  0  0  0  0  0  0  0  0
    9.6840   -0.6050   23.3320 C   0  0  0  0  0  0  0  0  0  0  0  0
    9.1600   -1.5230   24.2300 C   0  0  0  0  0  0  0  0  0  0  0  0
    8.9470   -1.1080   25.5310 C   0  0  0  0  0  0  0  0  0  0  0  0
    8.4060   -1.9460   26.4730 C   0  0  0  0  0  0  0  0  0  0  0  0
    8.0460   -3.2700   26.1550 C   0  0  0  0  0  0  0  0  0  0  0  0
    7.3180   -4.2660   27.5960 Br  0  0  0  0  0  0  0  0  0  0  0  0
    8.2150   -3.8280   24.8480 C   0  0  0  0  0  0  0  0  0  0  0  0
    7.7830   -5.4260   24.4200 Cl  0  0  0  0  0  0  0  0  0  0  0  0
    8.8250   -2.8300   23.8550 C   0  0  0  0  0  0  0  0  0  0  0  0
   10.9290   -0.9400   22.6410 C   0  0  0  0  0  0  0  0  0  0  0  0
   11.0260   -0.0130   23.4710 C   0  0  0  0  0  0  0  0  0  0  0  0
  1  2  2  0
  2  3  1  0
  3  4  1  0
  4  5  2  0
  5  6  1  0
  6  7  2  0
  7  8  1  0
  4  9  1  0
  8  9  2  0
  2 10  1  0
 11 10  1  0
 11 12  1  0
 12 13  2  0
 13 14  1  0
 14 15  2  0
 15 16  1  0
 15 17  1  0
 17 18  1  0
 12 19  1  0
 17 19  2  0
 11 20  1  0
 11 21  1  0
 20 21  1  0
M  END
