pyridine_urea_15261
     RDKit          3D

 17 18  0  0  0  0  0  0  0  0999 V2000
   11.5600   -2.0840   21.5810 C   0  0  0  0  0  0  0  0  0  0  0  0
   11.6250   -0.9280   22.5670 C   0  0  1  0  0  0  0  0  0  0  0  0
   10.2670   -0.2890   22.7670 C   0  0  0  0  0  0  0  0  0  0  0  0
    9.2120   -0.8490   22.1690 N   0  0  0  0  0  0  0  0  0  0  0  0
    8.4590    0.0050   21.4620 C   0  0  0  0  0  0  0  0  0  0  0  0
    8.8550    1.1340   21.1400 O   0  0  0  0  0  0  0  0  0  0  0  0
    7.1690   -0.5730   21.1560 N   0  0  0  0  0  0  0  0  0  0  0  0
    6.4990    0.0330   20.1350 C   0  0  0  0  0  0  0  0  0  0  0  0
    5.1980    0.8060   20.3550 C   0  0  0  0  0  0  0  0  0  0  0  0
    4.5290    1.4720   19.1450 C   0  0  0  0  0  0  0  0  0  0  0  0
    5.1510    1.3310   17.9130 C   0  0  0  0  0  0  0  0  0  0  0  0
    6.2760    0.6610   17.6750 N   0  0  0  0  0  0  0  0  0  0  0  0
    6.9140    0.0530   18.6800 C   0  0  0  0  0  0  0  0  0  0  0  0
   12.0140   -1.5350   23.8590 C   0  0  0  0  0  0  0  0  0  0  0  0
   13.2500   -1.2010   24.3130 C   0  0  0  0  0  0  0  0  0  0  0  0
   13.5790   -0.2280   23.6530 O   0  0  0  0  0  0  0  0  0  0  0  0
   12.8600   -0.0730   22.5100 C   0  0  0  0  0  0  0  0  0  0  0  0
  2  1  1  6
  2  3  1  0
  3  4  1  0
  4  5  1  0
  5  6  2  0
  5  7  1  0
  7  8  1  0
  8  9  2  0
  9 10  1  0
 10 11  2  0
 11 12  1  0
  8 13  1  0
 12 13  2  0
  2 14  1  0
 14 15  1  0
 15 16  1  0
  2 17  1  0
 16 17  1  0
M  END
