pyridine_urea_14781
     RDKit          3D

 20 21  0  0  0  0  0  0  0  0999 V2000
   13.9800   -2.6890   25.4330 C   0  0  0  0  0  0  0  0  0  0  0  0
   13.2460   -1.8020   25.7930 O   0  0  0  0  0  0  0  0  0  0  0  0
   12.6240   -1.0900   24.8350 C   0  0  0  0  0  0  0  0  0  0  0  0
   13.1100   -0.6680   23.6580 C   0  0  0  0  0  0  0  0  0  0  0  0
   12.3530    0.0720   22.7270 C   0  0  0  0  0  0  0  0  0  0  0  0
   10.9750    0.5490   22.7370 C   0  0  0  0  0  0  0  0  0  0  0  0
    9.6860    0.7890   23.1480 C   0  0  0  0  0  0  0  0  0  0  0  0
    8.8930   -0.2650   22.5410 N   0  0  0  0  0  0  0  0  0  0  0  0
    8.2020    0.1680   21.4680 C   0  0  0  0  0  0  0  0  0  0  0  0
    8.5490    1.3680   20.8740 O   0  0  0  0  0  0  0  0  0  0  0  0
    7.1010   -0.7260   21.0880 N   0  0  0  0  0  0  0  0  0  0  0  0
    6.4530   -0.0430   20.0010 C   0  0  0  0  0  0  0  0  0  0  0  0
    5.2890    0.6840   20.2520 C   0  0  0  0  0  0  0  0  0  0  0  0
    4.6410    1.3730   19.2470 C   0  0  0  0  0  0  0  0  0  0  0  0
    5.1270    1.3640   17.9520 C   0  0  0  0  0  0  0  0  0  0  0  0
    6.2370    0.6840   17.6130 N   0  0  0  0  0  0  0  0  0  0  0  0
    6.8990   -0.0350   18.7050 C   0  0  0  0  0  0  0  0  0  0  0  0
   10.4890    0.0910   23.9930 C   0  0  0  0  0  0  0  0  0  0  0  0
   11.2970   -0.5770   24.7520 C   0  0  0  0  0  0  0  0  0  0  0  0
   12.1310   -0.1500   23.3290 Cl  0  0  0  0  0  0  0  0  0  0  0  0
  1  2  1  0
  2  3  1  0
  3  4  2  0
  4  5  1  0
  5  6  2  0
  6  7  1  0
  7  8  1  0
  8  9  1  0
  9 10  2  0
  9 11  1  0
 11 12  1  0
 12 13  2  0
 13 14  1  0
 14 15  2  0
 15 16  1  0
 12 17  1  0
 16 17  2  0
  6 18  1  0
  3 19  1  0
 18 19  2  0
 19 20  1  0
M  END
