pyridine_urea_424
     RDKit          3D

 25 26  0  0  0  0  0  0  0  0999 V2000
   12.6950   -2.6480   24.4630 C   0  0  0  0  0  0  0  0  0  0  0  0
   11.6120   -2.7230   23.8860 O   0  0  0  0  0  0  0  0  0  0  0  0
   11.4770   -2.0820   22.6710 C   0  0  0  0  0  0  0  0  0  0  0  0
   11.9670   -2.4910   21.6230 O   0  0  0  0  0  0  0  0  0  0  0  0
   10.7340   -0.9030   22.7250 C   0  0  2  0  0  0  0  0  0  0  0  0
    9.8530   -0.9370   23.7680 C   0  0  0  0  0  0  0  0  0  0  0  0
    9.8620   -0.9000   21.5140 N   0  0  0  0  0  0  0  0  0  0  0  0
    8.7600   -0.0200   21.3230 C   0  0  0  0  0  0  0  0  0  0  0  0
    8.9480    1.4060   21.2020 O   0  0  0  0  0  0  0  0  0  0  0  0
    7.5320   -0.6030   21.1780 N   0  0  0  0  0  0  0  0  0  0  0  0
    6.7910   -0.0440   20.1740 C   0  0  0  0  0  0  0  0  0  0  0  0
    5.4740    0.7330   20.4120 C   0  0  0  0  0  0  0  0  0  0  0  0
    4.7150    1.3230   19.3930 C   0  0  0  0  0  0  0  0  0  0  0  0
    5.2050    1.1880   18.0890 C   0  0  0  0  0  0  0  0  0  0  0  0
    6.3720    0.4980   17.8450 N   0  0  0  0  0  0  0  0  0  0  0  0
    7.1530   -0.1110   18.8410 C   0  0  0  0  0  0  0  0  0  0  0  0
   11.5930    0.2500   22.7840 C   0  0  0  0  0  0  0  0  0  0  0  0
   12.6080   -0.8550   22.7630 C   0  0  0  0  0  0  0  0  0  0  0  0
   12.8930    0.3850   22.8230 C   0  0  0  0  0  0  0  0  0  0  0  0
   11.6860    1.1460   22.8340 C   0  0  0  0  0  0  0  0  0  0  0  0
   12.1080    2.3300   22.8860 C   0  0  0  0  0  0  0  0  0  0  0  0
   10.9130    3.0470   22.9040 N   0  0  0  0  0  0  0  0  0  0  0  0
    9.8660    2.4720   22.6070 O   0  0  0  0  0  0  0  0  0  0  0  0
   10.9590    4.1970   23.3690 O   0  0  0  0  0  0  0  0  0  0  0  0
   12.8980    1.1270   22.8440 C   0  0  0  0  0  0  0  0  0  0  0  0
  1  2  1  0
  2  3  1  0
  3  4  2  0
  5  3  1  0
  5  6  1  1
  5  7  1  0
  7  8  1  0
  8  9  2  0
  8 10  1  0
 10 11  1  0
 11 12  2  0
 12 13  1  0
 13 14  2  0
 14 15  1  0
 11 16  1  0
 15 16  2  0
  5 17  1  0
 17 18  2  0
 18 19  1  0
 19 20  2  0
 20 21  1  0
 21 22  1  0
 22 23  2  0
 22 24  1  0
 17 25  1  0
 21 25  2  0
M  CHG  2  22   1  24  -1
M  END
