pyridine_urea_10289
     RDKit          3D

 23 25  0  0  0  0  0  0  0  0999 V2000
    9.0270    0.1610   21.8240 O   0  0  0  0  0  0  0  0  0  0  0  0
    7.8080    0.1350   21.8350 C   0  0  0  0  0  0  0  0  0  0  0  0
    6.9530    0.9450   22.5890 N   0  0  0  0  0  0  0  0  0  0  0  0
    6.4750    0.7860   23.9230 C   0  0  0  0  0  0  0  0  0  0  0  0
    7.4530    0.4430   24.7950 C   0  0  0  0  0  0  0  0  0  0  0  0
    8.5010   -0.0250   24.1450 N   0  0  0  0  0  0  0  0  0  0  0  0
    9.5500   -0.3830   24.9570 C   0  0  0  0  0  0  0  0  0  0  0  0
   10.6210   -0.8690   24.3030 C   0  0  0  0  0  0  0  0  0  0  0  0
   11.9780   -0.8640   24.6210 C   0  0  0  0  0  0  0  0  0  0  0  0
   12.9000   -1.4880   23.5570 C   0  0  0  0  0  0  0  0  0  0  0  0
   12.3280   -2.0000   22.3860 C   0  0  0  0  0  0  0  0  0  0  0  0
   13.2040   -2.6820   21.1210 Cl  0  0  0  0  0  0  0  0  0  0  0  0
   10.9840   -1.9730   22.1800 C   0  0  0  0  0  0  0  0  0  0  0  0
   10.1680   -1.4280   23.1080 C   0  0  0  0  0  0  0  0  0  0  0  0
    9.3160   -0.1720   26.4130 C   0  0  0  0  0  0  0  0  0  0  0  0
    7.6290    0.4910   26.5310 S   0  0  0  0  0  0  0  0  0  0  0  0
    7.0250   -0.6610   21.0450 N   0  0  0  0  0  0  0  0  0  0  0  0
    6.4270   -0.0110   19.9030 C   0  0  0  0  0  0  0  0  0  0  0  0
    5.2360    0.7040   20.1610 C   0  0  0  0  0  0  0  0  0  0  0  0
    4.5910    1.3970   19.1260 C   0  0  0  0  0  0  0  0  0  0  0  0
    5.1480    1.3650   17.8580 C   0  0  0  0  0  0  0  0  0  0  0  0
    6.2970    0.6620   17.6260 N   0  0  0  0  0  0  0  0  0  0  0  0
    6.9330   -0.0250   18.6410 C   0  0  0  0  0  0  0  0  0  0  0  0
  1  2  2  0
  2  3  1  0
  3  4  1  0
  4  5  1  0
  5  6  2  0
  6  7  1  0
  7  8  1  0
  8  9  2  0
  9 10  1  0
 10 11  2  0
 11 12  1  0
 11 13  1  0
  8 14  1  0
 13 14  2  0
  7 15  2  0
  5 16  1  0
 15 16  1  0
  2 17  1  0
 17 18  1  0
 18 19  2  0
 19 20  1  0
 20 21  2  0
 21 22  1  0
 18 23  1  0
 22 23  2  0
M  END
