pyridine_urea_10978
     RDKit          3D

 19 21  0  0  0  0  0  0  0  0999 V2000
    8.7730    0.9260   21.2830 O   0  0  0  0  0  0  0  0  0  0  0  0
    8.2960   -0.1910   21.4280 C   0  0  0  0  0  0  0  0  0  0  0  0
    6.9030   -0.4920   21.1690 N   0  0  0  0  0  0  0  0  0  0  0  0
    6.3120    0.1360   20.0900 C   0  0  0  0  0  0  0  0  0  0  0  0
    5.1430    0.8740   20.2700 C   0  0  0  0  0  0  0  0  0  0  0  0
    4.5800    1.5020   19.1590 C   0  0  0  0  0  0  0  0  0  0  0  0
    5.2040    1.3690   17.9140 C   0  0  0  0  0  0  0  0  0  0  0  0
    6.3270    0.6570   17.7310 N   0  0  0  0  0  0  0  0  0  0  0  0
    6.8590    0.0530   18.8210 C   0  0  0  0  0  0  0  0  0  0  0  0
    8.9170   -1.3300   21.8350 N   0  0  0  0  0  0  0  0  0  0  0  0
   10.1420   -1.2880   22.5970 C   0  0  0  0  0  0  0  0  0  0  0  0
   11.0070   -0.0400   22.5630 C   0  0  0  0  0  0  0  0  0  0  0  0
   12.1770   -0.0710   23.2750 C   0  0  0  0  0  0  0  0  0  0  0  0
   12.4420   -1.2370   23.9770 C   0  0  0  0  0  0  0  0  0  0  0  0
   13.4830   -1.5190   24.7520 N   0  0  0  0  0  0  0  0  0  0  0  0
   13.3180   -2.8200   25.2510 C   0  0  0  0  0  0  0  0  0  0  0  0
   12.1770   -3.3480   24.8050 N   0  0  0  0  0  0  0  0  0  0  0  0
   11.6530   -2.3650   24.0240 N   0  0  0  0  0  0  0  0  0  0  0  0
   10.5060   -2.3970   23.3340 C   0  0  0  0  0  0  0  0  0  0  0  0
  1  2  2  0
  2  3  1  0
  3  4  1  0
  4  5  2  0
  5  6  1  0
  6  7  2  0
  7  8  1  0
  4  9  1  0
  8  9  2  0
  2 10  1  0
 10 11  1  0
 11 12  1  0
 12 13  2  0
 13 14  1  0
 14 15  2  0
 15 16  1  0
 16 17  2  0
 14 18  1  0
 17 18  1  0
 11 19  2  0
 18 19  1  0
M  END
