pyridine_urea_15112
     RDKit          3D

 17 19  0  0  0  0  0  0  0  0999 V2000
    8.5580    0.9740   21.1310 O   0  0  0  0  0  0  0  0  0  0  0  0
    8.3350   -0.1940   21.3890 C   0  0  0  0  0  0  0  0  0  0  0  0
    7.1500   -0.8020   21.0550 N   0  0  0  0  0  0  0  0  0  0  0  0
    6.4600   -0.0880   20.0200 C   0  0  0  0  0  0  0  0  0  0  0  0
    5.1710    0.6380   20.3860 C   0  0  0  0  0  0  0  0  0  0  0  0
    4.4660    1.4120   19.2720 C   0  0  0  0  0  0  0  0  0  0  0  0
    5.1480    1.3670   17.9060 C   0  0  0  0  0  0  0  0  0  0  0  0
    6.3330    0.6450   17.7420 N   0  0  0  0  0  0  0  0  0  0  0  0
    6.9500   -0.0440   18.7400 C   0  0  0  0  0  0  0  0  0  0  0  0
    9.2330   -1.0130   22.0190 N   0  0  0  0  0  0  0  0  0  0  0  0
   10.4280   -0.4420   22.5090 C   0  0  0  0  0  0  0  0  0  0  0  0
   10.4990    0.8490   22.9980 C   0  0  0  0  0  0  0  0  0  0  0  0
   10.0160    2.0340   22.5040 C   0  0  0  0  0  0  0  0  0  0  0  0
   11.2100    2.6410   22.6900 C   0  0  0  0  0  0  0  0  0  0  0  0
   11.9490    1.4630   22.9600 C   0  0  0  0  0  0  0  0  0  0  0  0
   11.8170   -1.2570   22.2560 C   0  0  0  0  0  0  0  0  0  0  0  0
   11.1020   -1.2470   23.4080 C   0  0  0  0  0  0  0  0  0  0  0  0
  1  2  2  0
  2  3  1  0
  3  4  1  0
  4  5  2  0
  5  6  1  0
  6  7  2  0
  7  8  1  0
  4  9  1  0
  8  9  2  0
  2 10  1  0
 11 10  1  0
 11 12  1  0
 12 13  1  0
 13 14  1  0
 12 15  1  0
 14 15  1  0
 11 16  1  0
 11 17  1  0
 16 17  1  0
M  END
