pyridine_urea_15212
     RDKit          3D

 18 19  0  0  0  0  0  0  0  0999 V2000
    8.7430    0.7460   21.2360 O   0  0  0  0  0  0  0  0  0  0  0  0
    8.3070   -0.3710   21.4950 C   0  0  0  0  0  0  0  0  0  0  0  0
    7.0790   -0.8250   21.0780 N   0  0  0  0  0  0  0  0  0  0  0  0
    6.4420   -0.0840   20.0250 C   0  0  0  0  0  0  0  0  0  0  0  0
    5.1660    0.6780   20.3700 C   0  0  0  0  0  0  0  0  0  0  0  0
    4.4970    1.4720   19.2490 C   0  0  0  0  0  0  0  0  0  0  0  0
    5.1960    1.4130   17.8900 C   0  0  0  0  0  0  0  0  0  0  0  0
    6.3640    0.6560   17.7410 N   0  0  0  0  0  0  0  0  0  0  0  0
    6.9510   -0.0520   18.7490 C   0  0  0  0  0  0  0  0  0  0  0  0
    8.9770   -1.3160   22.2390 N   0  0  0  0  0  0  0  0  0  0  0  0
   10.1510   -0.9570   22.9240 C   0  0  0  0  0  0  0  0  0  0  0  0
   10.3360    0.3800   23.1760 C   0  0  0  0  0  0  0  0  0  0  0  0
   11.3390    0.5620   24.0760 C   0  0  0  0  0  0  0  0  0  0  0  0
   12.5160    0.0280   23.6030 C   0  0  0  0  0  0  0  0  0  0  0  0
   13.1330   -0.4190   24.7240 F   0  0  0  0  0  0  0  0  0  0  0  0
   13.2420    1.0900   23.2120 F   0  0  0  0  0  0  0  0  0  0  0  0
   12.5420   -0.9630   22.6240 C   0  0  0  0  0  0  0  0  0  0  0  0
   11.2940   -1.5220   22.3400 C   0  0  0  0  0  0  0  0  0  0  0  0
  1  2  2  0
  2  3  1  0
  3  4  1  0
  4  5  2  0
  5  6  1  0
  6  7  2  0
  7  8  1  0
  4  9  1  0
  8  9  2  0
  2 10  1  0
 10 11  1  0
 11 12  1  0
 12 13  1  0
 13 14  1  0
 14 15  1  0
 14 16  1  0
 14 17  1  0
 11 18  1  0
 17 18  1  0
M  END
