pyridine_urea_11626
     RDKit          3D

 29 32  0  0  0  0  0  0  0  0999 V2000
   12.0590   -2.7650   24.6680 C   0  0  0  0  0  0  0  0  0  0  0  0
   10.8920   -1.7550   23.7150 S   0  0  0  0  0  0  0  0  0  0  0  0
   12.2900   -0.9930   22.8280 C   0  0  0  0  0  0  0  0  0  0  0  0
   12.8150   -1.8610   22.0900 C   0  0  0  0  0  0  0  0  0  0  0  0
   13.2920   -0.5820   22.2070 C   0  0  0  0  0  0  0  0  0  0  0  0
   12.1400   -0.1290   23.1620 C   0  0  0  0  0  0  0  0  0  0  0  0
   10.9770   -0.7290   23.6560 C   0  0  2  0  0  0  0  0  0  0  0  0
   10.1670   -1.1960   22.5930 C   0  0  0  0  0  0  0  0  0  0  0  0
    8.8620   -0.5850   22.6550 N   0  0  0  0  0  0  0  0  0  0  0  0
    8.4210    0.1490   21.5850 C   0  0  0  0  0  0  0  0  0  0  0  0
    8.9640    1.2030   21.2180 O   0  0  0  0  0  0  0  0  0  0  0  0
    7.2510   -0.4610   20.9840 N   0  0  0  0  0  0  0  0  0  0  0  0
    6.5410    0.1140   19.9930 C   0  0  0  0  0  0  0  0  0  0  0  0
    5.3790    0.8220   20.3050 C   0  0  0  0  0  0  0  0  0  0  0  0
    4.6670    1.4290   19.2740 C   0  0  0  0  0  0  0  0  0  0  0  0
    5.1380    1.3070   17.9810 C   0  0  0  0  0  0  0  0  0  0  0  0
    6.2440    0.6230   17.6680 N   0  0  0  0  0  0  0  0  0  0  0  0
    6.9170    0.0440   18.6760 C   0  0  0  0  0  0  0  0  0  0  0  0
   10.2560    0.3310   24.3860 N   0  0  0  0  0  0  0  0  0  0  0  0
   10.0930    1.5770   23.8370 C   0  0  0  0  0  0  0  0  0  0  0  0
    8.6800    2.1580   23.9840 C   0  0  0  0  0  0  0  0  0  0  0  0
    7.8040    1.4180   24.7730 C   0  0  0  0  0  0  0  0  0  0  0  0
    6.1420    1.7550   24.9710 S   0  0  0  0  0  0  0  0  0  0  0  0
    5.9630    0.4100   26.0230 C   0  0  0  0  0  0  0  0  0  0  0  0
    7.1690   -0.2400   26.1850 C   0  0  0  0  0  0  0  0  0  0  0  0
    8.2190    0.3210   25.4820 C   0  0  0  0  0  0  0  0  0  0  0  0
    9.5100   -0.1790   25.5120 C   0  0  0  0  0  0  0  0  0  0  0  0
   12.3690    1.1620   23.5220 C   0  0  0  0  0  0  0  0  0  0  0  0
   12.9790    0.3090   22.7620 C   0  0  0  0  0  0  0  0  0  0  0  0
  1  2  1  0
  2  3  1  0
  3  4  2  0
  4  5  1  0
  5  6  2  0
  6  7  1  0
  7  8  1  6
  8  9  1  0
  9 10  1  0
 10 11  2  0
 10 12  1  0
 12 13  1  0
 13 14  2  0
 14 15  1  0
 15 16  2  0
 16 17  1  0
 13 18  1  0
 17 18  2  0
  7 19  1  0
 19 20  1  0
 20 21  1  0
 21 22  1  0
 22 23  1  0
 23 24  1  0
 24 25  2  0
 22 26  2  0
 25 26  1  0
 19 27  1  0
 26 27  1  0
  6 28  1  0
  3 29  1  0
 28 29  2  0
M  END
