pyridine_urea_2750
     RDKit          3D

 22 24  0  0  0  0  0  0  0  0999 V2000
    8.4760    0.6980   21.1530 O   0  0  0  0  0  0  0  0  0  0  0  0
    8.1850   -0.4540   21.4430 C   0  0  0  0  0  0  0  0  0  0  0  0
    6.9890   -0.9830   21.0440 N   0  0  0  0  0  0  0  0  0  0  0  0
    6.3470   -0.1930   20.0140 C   0  0  0  0  0  0  0  0  0  0  0  0
    5.0220    0.5790   20.3160 C   0  0  0  0  0  0  0  0  0  0  0  0
    4.4720    1.3270   19.2820 C   0  0  0  0  0  0  0  0  0  0  0  0
    5.2230    1.3220   17.9430 C   0  0  0  0  0  0  0  0  0  0  0  0
    6.3650    0.6320   17.7380 N   0  0  0  0  0  0  0  0  0  0  0  0
    6.8900   -0.0930   18.7500 C   0  0  0  0  0  0  0  0  0  0  0  0
    8.9850   -1.3010   22.1620 N   0  0  0  0  0  0  0  0  0  0  0  0
   10.2140   -0.5950   22.4180 C   0  0  0  0  0  0  0  0  0  0  0  0
   10.0960    0.6830   22.9390 C   0  0  0  0  0  0  0  0  0  0  0  0
   11.2450    1.2320   23.1020 N   0  0  0  0  0  0  0  0  0  0  0  0
   12.3010    0.3510   22.6950 N   0  0  0  0  0  0  0  0  0  0  0  0
   12.8280    1.6160   23.1650 C   0  0  0  0  0  0  0  0  0  0  0  0
   12.1860    3.0040   22.7360 C   0  0  2  0  0  0  0  0  0  0  0  0
   13.2070    4.1360   22.6490 C   0  0  0  0  0  0  0  0  0  0  0  0
   12.4430    5.2710   21.9920 C   0  0  0  0  0  0  0  0  0  0  0  0
   11.3930    5.7130   22.7960 C   0  0  0  0  0  0  0  0  0  0  0  0
   11.3100    4.9500   23.9670 C   0  0  0  0  0  0  0  0  0  0  0  0
   11.1180    3.5210   23.6320 N   0  0  0  0  0  0  0  0  0  0  0  0
   11.5440   -0.8230   22.2720 C   0  0  0  0  0  0  0  0  0  0  0  0
  1  2  2  0
  2  3  1  0
  3  4  1  0
  4  5  2  0
  5  6  1  0
  6  7  2  0
  7  8  1  0
  4  9  1  0
  8  9  2  0
  2 10  1  0
 10 11  1  0
 11 12  1  0
 12 13  2  0
 13 14  1  0
 14 15  1  0
 16 15  1  1
 16 17  1  0
 17 18  1  0
 18 19  1  0
 19 20  1  0
 16 21  1  0
 20 21  1  0
 11 22  2  0
 14 22  1  0
M  END
