pyridine_urea_9067
     RDKit          3D

 19 19  0  0  0  0  0  0  0  0999 V2000
   13.0230   -0.8120   22.2560 C   0  0  0  0  0  0  0  0  0  0  0  0
   11.5480   -1.3230   22.2110 C   0  0  0  0  0  0  0  0  0  0  0  0
   10.5100   -0.2960   22.7460 C   0  0  2  0  0  0  0  0  0  0  0  0
    9.1120   -0.5910   22.4680 N   0  0  0  0  0  0  0  0  0  0  0  0
    8.4630    0.1510   21.5100 C   0  0  0  0  0  0  0  0  0  0  0  0
    8.8680    1.2550   21.1380 O   0  0  0  0  0  0  0  0  0  0  0  0
    7.3270   -0.4730   21.0460 N   0  0  0  0  0  0  0  0  0  0  0  0
    6.5730    0.1000   20.0190 C   0  0  0  0  0  0  0  0  0  0  0  0
    5.4050    0.8060   20.3360 C   0  0  0  0  0  0  0  0  0  0  0  0
    4.6690    1.3970   19.3140 C   0  0  0  0  0  0  0  0  0  0  0  0
    5.1370    1.2550   18.0190 C   0  0  0  0  0  0  0  0  0  0  0  0
    6.2400    0.5800   17.6890 N   0  0  0  0  0  0  0  0  0  0  0  0
    6.9340    0.0140   18.6950 C   0  0  0  0  0  0  0  0  0  0  0  0
   10.8630    1.2010   22.7540 C   0  0  0  0  0  0  0  0  0  0  0  0
   12.1270    1.6710   22.8320 N   0  0  0  0  0  0  0  0  0  0  0  0
    9.8180    2.0890   22.6710 O   0  0  0  0  0  0  0  0  0  0  0  0
   10.7380    0.4170   24.0550 C   0  0  0  0  0  0  0  0  0  0  0  0
   10.0850   -0.2770   25.2300 C   0  0  0  0  0  0  0  0  0  0  0  0
   12.1110    0.4470   24.2790 C   0  0  0  0  0  0  0  0  0  0  0  0
  1  2  1  0
  3  2  1  6
  3  4  1  0
  4  5  1  0
  5  6  2  0
  5  7  1  0
  7  8  1  0
  8  9  2  0
  9 10  1  0
 10 11  2  0
 11 12  1  0
  8 13  1  0
 12 13  2  0
  3 14  1  0
 14 15  1  0
 14 16  2  0
  3 17  1  0
 17 18  1  0
 17 19  1  0
M  END
