pyridine_urea_10933
     RDKit          3D

 19 20  0  0  0  0  0  0  0  0999 V2000
   12.1840    2.7430   22.8190 C   0  0  0  0  0  0  0  0  0  0  0  0
   11.6280    1.3480   22.8240 C   0  0  0  0  0  0  0  0  0  0  0  0
   10.2970    0.9700   22.7800 C   0  0  0  0  0  0  0  0  0  0  0  0
    9.9190   -0.3710   22.7540 C   0  0  0  0  0  0  0  0  0  0  0  0
    8.7180   -0.8930   22.6910 N   0  0  0  0  0  0  0  0  0  0  0  0
    8.1860   -0.2030   21.6280 C   0  0  0  0  0  0  0  0  0  0  0  0
    8.6540    0.8480   21.2150 O   0  0  0  0  0  0  0  0  0  0  0  0
    7.0980   -0.8110   21.1270 N   0  0  0  0  0  0  0  0  0  0  0  0
    6.5050   -0.1410   20.1010 C   0  0  0  0  0  0  0  0  0  0  0  0
    5.2550    0.6330   20.4200 C   0  0  0  0  0  0  0  0  0  0  0  0
    4.6400    1.3630   19.2610 C   0  0  0  0  0  0  0  0  0  0  0  0
    5.2180    1.2970   18.0140 C   0  0  0  0  0  0  0  0  0  0  0  0
    6.3180    0.6190   17.6980 N   0  0  0  0  0  0  0  0  0  0  0  0
    6.9240   -0.0860   18.7800 C   0  0  0  0  0  0  0  0  0  0  0  0
   10.8770   -1.3530   22.7880 C   0  0  0  0  0  0  0  0  0  0  0  0
   12.2080   -1.0900   22.8430 C   0  0  0  0  0  0  0  0  0  0  0  0
   13.2980   -2.3970   22.8940 Cl  0  0  0  0  0  0  0  0  0  0  0  0
   12.6230    0.2060   22.8540 C   0  0  0  0  0  0  0  0  0  0  0  0
   13.8910    0.4650   22.8800 F   0  0  0  0  0  0  0  0  0  0  0  0
  1  2  1  0
  2  3  2  0
  3  4  1  0
  4  5  1  0
  5  6  1  0
  6  7  2  0
  6  8  1  0
  8  9  1  0
  9 10  2  0
 10 11  1  0
 11 12  2  0
 12 13  1  0
  9 14  1  0
 13 14  2  0
  4 15  2  0
 15 16  1  0
 16 17  1  0
  2 18  1  0
 16 18  2  0
 18 19  1  0
M  END
