pyridine_urea_13862
     RDKit          3D

 24 25  0  0  0  0  0  0  0  0999 V2000
    5.8760   -1.5130   27.3300 C   0  0  0  0  0  0  0  0  0  0  0  0
    5.3070   -0.9910   26.1280 O   0  0  0  0  0  0  0  0  0  0  0  0
    6.2470   -0.9410   25.0530 C   0  0  0  0  0  0  0  0  0  0  0  0
    7.4460   -1.8060   25.4290 C   0  0  0  0  0  0  0  0  0  0  0  0
    8.6100   -1.6380   24.4920 C   0  0  0  0  0  0  0  0  0  0  0  0
    9.8880   -1.3770   25.1540 O   0  0  0  0  0  0  0  0  0  0  0  0
   10.6810   -1.3580   24.1410 C   0  0  0  0  0  0  0  0  0  0  0  0
   12.1670   -1.0270   24.0770 C   0  0  0  0  0  0  0  0  0  0  0  0
   12.5410   -1.1870   22.8030 C   0  0  0  0  0  0  0  0  0  0  0  0
   13.4950   -1.1220   22.0010 C   0  0  0  0  0  0  0  0  0  0  0  0
   11.8040   -1.5910   21.6730 C   0  0  0  0  0  0  0  0  0  0  0  0
   10.4860   -1.8210   21.9400 C   0  0  0  0  0  0  0  0  0  0  0  0
    9.7430   -1.7360   23.1610 C   0  0  0  0  0  0  0  0  0  0  0  0
    9.0290   -2.0790   22.0970 C   0  0  0  0  0  0  0  0  0  0  0  0
    9.2520   -0.9780   21.2370 N   0  0  0  0  0  0  0  0  0  0  0  0
    8.3520    0.0400   21.1850 C   0  0  0  0  0  0  0  0  0  0  0  0
    8.7340    1.4190   21.1950 O   0  0  0  0  0  0  0  0  0  0  0  0
    7.0140   -0.4790   21.0700 N   0  0  0  0  0  0  0  0  0  0  0  0
    6.3160    0.1520   20.0550 C   0  0  0  0  0  0  0  0  0  0  0  0
    5.0350    0.9070   20.1970 C   0  0  0  0  0  0  0  0  0  0  0  0
    4.4840    1.5030   19.0680 C   0  0  0  0  0  0  0  0  0  0  0  0
    5.1640    1.3620   17.8620 C   0  0  0  0  0  0  0  0  0  0  0  0
    6.3140    0.6810   17.7030 N   0  0  0  0  0  0  0  0  0  0  0  0
    6.8530    0.0970   18.7840 C   0  0  0  0  0  0  0  0  0  0  0  0
  1  2  1  0
  2  3  1  0
  3  4  1  0
  4  5  1  0
  5  6  1  0
  6  7  1  0
  7  8  2  0
  8  9  1  0
  9 10  1  0
  9 11  2  0
 11 12  1  0
  7 13  1  0
 12 13  2  0
 13 14  1  0
 14 15  1  0
 15 16  1  0
 16 17  2  0
 16 18  1  0
 18 19  1  0
 19 20  2  0
 20 21  1  0
 21 22  2  0
 22 23  1  0
 19 24  1  0
 23 24  2  0
M  END
