pyridine_urea_7209
     RDKit          3D

 19 20  0  0  0  0  0  0  0  0999 V2000
    3.1860    2.3350   21.0150 C   0  0  0  0  0  0  0  0  0  0  0  0
    3.1380    1.9710   19.5420 C   0  0  0  0  0  0  0  0  0  0  0  0
    4.1800    2.3860   18.7160 C   0  0  0  0  0  0  0  0  0  0  0  0
    5.0720    1.4610   18.1690 C   0  0  0  0  0  0  0  0  0  0  0  0
    5.0860    1.4960   19.6430 N   0  0  0  0  0  0  0  0  0  0  0  0
    5.8510    0.7570   20.5060 C   0  0  0  0  0  0  0  0  0  0  0  0
    6.7680   -0.1710   20.1360 C   0  0  0  0  0  0  0  0  0  0  0  0
    7.4600   -0.8000   21.1030 N   0  0  0  0  0  0  0  0  0  0  0  0
    8.5410   -0.1770   21.6480 C   0  0  0  0  0  0  0  0  0  0  0  0
    8.8140    0.9930   21.4090 O   0  0  0  0  0  0  0  0  0  0  0  0
    9.2910   -0.9840   22.4560 N   0  0  0  0  0  0  0  0  0  0  0  0
   10.6600   -0.7510   22.5600 C   0  0  0  0  0  0  0  0  0  0  0  0
   10.8960    0.5750   22.9370 C   0  0  0  0  0  0  0  0  0  0  0  0
   12.1580    1.0260   23.0750 C   0  0  0  0  0  0  0  0  0  0  0  0
   13.0910    0.1140   22.8320 C   0  0  0  0  0  0  0  0  0  0  0  0
   12.8170   -1.1500   22.4770 N   0  0  0  0  0  0  0  0  0  0  0  0
   11.5990   -1.7890   22.2800 C   0  0  0  0  0  0  0  0  0  0  0  0
    6.9150   -0.3750   18.7030 C   0  0  0  0  0  0  0  0  0  0  0  0
    6.0660    0.4500   17.9630 N   0  0  0  0  0  0  0  0  0  0  0  0
  1  2  1  0
  2  3  1  0
  3  4  1  0
  4  5  2  0
  5  6  1  0
  6  7  2  0
  7  8  1  0
  8  9  1  0
  9 10  2  0
  9 11  1  0
 11 12  1  0
 12 13  2  0
 13 14  1  0
 14 15  2  0
 15 16  1  0
 12 17  1  0
 16 17  2  0
  7 18  1  0
  4 19  1  0
 18 19  2  0
M  END
