pyridine_urea_3990
     RDKit          3D

 27 29  0  0  0  0  0  0  0  0999 V2000
   13.0950   -1.9010   21.4340 C   0  0  0  0  0  0  0  0  0  0  0  0
   13.5390   -0.6360   21.7570 N   0  0  0  0  0  0  0  0  0  0  0  0
   13.2530    0.1410   22.8960 C   0  0  0  0  0  0  0  0  0  0  0  0
   13.4790   -0.3780   24.2110 O   0  0  0  0  0  0  0  0  0  0  0  0
   12.5970    1.3960   22.8320 C   0  0  0  0  0  0  0  0  0  0  0  0
   11.2560    1.2820   22.8910 C   0  0  0  0  0  0  0  0  0  0  0  0
   10.3500    2.2760   22.8590 C   0  0  0  0  0  0  0  0  0  0  0  0
    9.3330    1.6800   22.9470 O   0  0  0  0  0  0  0  0  0  0  0  0
   10.2110    0.5630   23.1460 C   0  0  0  0  0  0  0  0  0  0  0  0
   11.3270    0.8710   23.9290 C   0  0  0  0  0  0  0  0  0  0  0  0
   12.3870   -0.1520   24.2300 C   0  0  0  0  0  0  0  0  0  0  0  0
   12.2250   -1.3700   23.7070 C   0  0  0  0  0  0  0  0  0  0  0  0
   11.1050   -1.6660   22.9330 C   0  0  0  0  0  0  0  0  0  0  0  0
   10.0670   -0.8150   22.6070 C   0  0  0  0  0  0  0  0  0  0  0  0
    8.9660   -1.2330   21.8210 N   0  0  0  0  0  0  0  0  0  0  0  0
    8.1060   -0.3140   21.2530 C   0  0  0  0  0  0  0  0  0  0  0  0
    8.4540    0.9800   21.0210 O   0  0  0  0  0  0  0  0  0  0  0  0
    6.9050   -0.8080   20.9520 N   0  0  0  0  0  0  0  0  0  0  0  0
    6.2930   -0.0780   20.0190 C   0  0  0  0  0  0  0  0  0  0  0  0
    5.0390    0.7260   20.1960 C   0  0  0  0  0  0  0  0  0  0  0  0
    4.4820    1.5180   19.0250 C   0  0  0  0  0  0  0  0  0  0  0  0
    5.1640    1.4660   17.8190 C   0  0  0  0  0  0  0  0  0  0  0  0
    6.3110    0.7050   17.7060 N   0  0  0  0  0  0  0  0  0  0  0  0
    6.8600   -0.0390   18.7520 C   0  0  0  0  0  0  0  0  0  0  0  0
   10.7300    3.5880   22.7510 C   0  0  0  0  0  0  0  0  0  0  0  0
   12.1090    3.7580   22.6890 C   0  0  0  0  0  0  0  0  0  0  0  0
   13.0150    2.7350   22.7300 N   0  0  0  0  0  0  0  0  0  0  0  0
  1  2  1  0
  2  3  1  0
  3  4  2  0
  3  5  1  0
  5  6  2  0
  6  7  1  0
  7  8  1  0
  8  9  1  0
  9 10  2  0
 10 11  1  0
 11 12  2  0
 12 13  1  0
  9 14  1  0
 13 14  2  0
 14 15  1  0
 15 16  1  0
 16 17  2  0
 16 18  1  0
 18 19  1  0
 19 20  2  0
 20 21  1  0
 21 22  2  0
 22 23  1  0
 19 24  1  0
 23 24  2  0
  7 25  2  0
 25 26  1  0
  5 27  1  0
 26 27  2  0
M  END
