pyridine_urea_3061
     RDKit          3D

 21 23  0  0  0  0  0  0  0  0999 V2000
   10.2040    1.7150   22.9110 C   0  0  0  0  0  0  0  0  0  0  0  0
   10.8130    0.5670   23.6600 C   0  0  0  0  0  0  0  0  0  0  0  0
   10.2210    0.5070   25.1860 C   0  0  0  0  0  0  0  0  0  0  0  0
   10.1870   -0.7630   25.2300 C   0  0  0  0  0  0  0  0  0  0  0  0
   11.2070   -0.5110   24.5290 C   0  0  0  0  0  0  0  0  0  0  0  0
   10.6600   -1.1000   23.7840 O   0  0  0  0  0  0  0  0  0  0  0  0
   11.6010   -0.6410   23.2640 C   0  0  0  0  0  0  0  0  0  0  0  0
   10.8530   -1.1470   22.1490 C   0  0  0  0  0  0  0  0  0  0  0  0
    9.4070   -0.8840   22.3030 N   0  0  0  0  0  0  0  0  0  0  0  0
    8.7290   -0.0690   21.3840 C   0  0  0  0  0  0  0  0  0  0  0  0
    9.2570    1.2130   20.9340 O   0  0  0  0  0  0  0  0  0  0  0  0
    7.5120   -0.5890   20.9680 N   0  0  0  0  0  0  0  0  0  0  0  0
    6.6540    0.0170   20.0180 C   0  0  0  0  0  0  0  0  0  0  0  0
    5.4110    0.5880   20.2860 C   0  0  0  0  0  0  0  0  0  0  0  0
    4.6710    1.1640   19.2420 C   0  0  0  0  0  0  0  0  0  0  0  0
    5.2030    1.1500   17.9490 C   0  0  0  0  0  0  0  0  0  0  0  0
    6.3970    0.6020   17.6730 N   0  0  0  0  0  0  0  0  0  0  0  0
    7.0830    0.0530   18.6960 C   0  0  0  0  0  0  0  0  0  0  0  0
   12.0270   -0.2330   24.7460 C   0  0  0  0  0  0  0  0  0  0  0  0
   12.4300   -0.2120   23.6870 C   0  0  0  0  0  0  0  0  0  0  0  0
   11.8440   -0.1820   22.6820 C   0  0  0  0  0  0  0  0  0  0  0  0
  1  2  1  0
  2  3  2  0
  3  4  1  0
  4  5  2  0
  5  6  1  0
  6  7  1  0
  7  8  1  0
  8  9  1  0
  9 10  1  0
 10 11  2  0
 10 12  1  0
 12 13  1  0
 13 14  2  0
 14 15  1  0
 15 16  2  0
 16 17  1  0
 13 18  1  0
 17 18  2  0
  7 19  2  0
  5 20  1  0
 19 20  1  0
  2 21  1  0
 20 21  2  0
M  END
