pyridine_urea_11780
     RDKit          3D

 25 27  0  0  0  0  0  0  0  0999 V2000
   10.5710    2.3040   23.8560 C   0  0  0  0  0  0  0  0  0  0  0  0
    9.3040    1.5100   23.9960 C   0  0  0  0  0  0  0  0  0  0  0  0
    9.3630    0.1670   23.7350 C   0  0  1  0  0  0  0  0  0  0  0  0
    8.4990   -0.3410   22.7680 N   0  0  0  0  0  0  0  0  0  0  0  0
    8.2570    0.2270   21.5540 C   0  0  0  0  0  0  0  0  0  0  0  0
    8.8610    1.2050   21.0950 O   0  0  0  0  0  0  0  0  0  0  0  0
    7.2230   -0.4440   20.9460 N   0  0  0  0  0  0  0  0  0  0  0  0
    6.4830    0.1670   19.9480 C   0  0  0  0  0  0  0  0  0  0  0  0
    5.3050    0.8400   20.3010 C   0  0  0  0  0  0  0  0  0  0  0  0
    4.5770    1.4780   19.3090 C   0  0  0  0  0  0  0  0  0  0  0  0
    5.1310    1.3910   17.8910 C   0  0  0  0  0  0  0  0  0  0  0  0
    6.2510    0.7230   17.6120 N   0  0  0  0  0  0  0  0  0  0  0  0
    6.8880    0.1370   18.6350 C   0  0  0  0  0  0  0  0  0  0  0  0
   10.6530   -0.1470   23.5690 C   0  0  0  0  0  0  0  0  0  0  0  0
   11.4000   -1.2350   23.7560 C   0  0  0  0  0  0  0  0  0  0  0  0
   12.7990   -0.9390   23.3690 C   0  0  0  0  0  0  0  0  0  0  0  0
   13.3620    0.3450   22.8510 C   0  0  0  0  0  0  0  0  0  0  0  0
   12.4360    1.5230   22.6810 C   0  0  0  0  0  0  0  0  0  0  0  0
   11.9100    0.3210   23.1700 C   0  0  0  0  0  0  0  0  0  0  0  0
   12.5510   -0.7970   23.4250 C   0  0  0  0  0  0  0  0  0  0  0  0
   12.7390   -0.9910   24.7950 C   0  0  0  0  0  0  0  0  0  0  0  0
   13.3160   -2.1250   25.2400 C   0  0  0  0  0  0  0  0  0  0  0  0
   13.6840   -3.0370   24.3320 C   0  0  0  0  0  0  0  0  0  0  0  0
   13.5310   -2.8570   22.9590 C   0  0  0  0  0  0  0  0  0  0  0  0
   12.9570   -1.7230   22.4790 C   0  0  0  0  0  0  0  0  0  0  0  0
  1  2  1  0
  3  2  1  6
  3  4  1  0
  4  5  1  0
  5  6  2  0
  5  7  1  0
  7  8  1  0
  8  9  2  0
  9 10  1  0
 10 11  2  0
 11 12  1  0
  8 13  1  0
 12 13  2  0
  3 14  1  0
 14 15  2  0
 15 16  1  0
 16 17  2  0
 17 18  1  0
 14 19  1  0
 18 19  2  0
 19 20  1  0
 20 21  2  0
 21 22  1  0
 22 23  2  0
 23 24  1  0
 20 25  1  0
 24 25  2  0
M  END
