pyridine_urea_559
     RDKit          3D

 24 25  0  0  0  0  0  0  0  0999 V2000
   11.3180   -2.8730   24.1450 C   0  0  0  0  0  0  0  0  0  0  0  0
   10.3220   -2.3990   23.5990 O   0  0  0  0  0  0  0  0  0  0  0  0
   10.5000   -1.7580   22.3900 C   0  0  0  0  0  0  0  0  0  0  0  0
   10.5950   -2.8700   21.9280 O   0  0  0  0  0  0  0  0  0  0  0  0
   10.3330   -0.7360   23.2870 C   0  0  2  0  0  0  0  0  0  0  0  0
    8.9760   -0.1580   23.1310 N   0  0  0  0  0  0  0  0  0  0  0  0
    8.5100    0.2200   21.7710 C   0  0  0  0  0  0  0  0  0  0  0  0
    9.0700    1.4010   21.1690 O   0  0  0  0  0  0  0  0  0  0  0  0
    7.5120   -0.5520   21.1690 N   0  0  0  0  0  0  0  0  0  0  0  0
    6.7060    0.0630   20.1060 C   0  0  0  0  0  0  0  0  0  0  0  0
    5.5650    0.8320   20.4130 C   0  0  0  0  0  0  0  0  0  0  0  0
    4.7280    1.4960   19.2940 C   0  0  0  0  0  0  0  0  0  0  0  0
    5.1610    1.2920   18.0010 C   0  0  0  0  0  0  0  0  0  0  0  0
    6.2570    0.5370   17.7670 N   0  0  0  0  0  0  0  0  0  0  0  0
    7.0370   -0.0810   18.7470 C   0  0  0  0  0  0  0  0  0  0  0  0
   11.4780    0.2420   23.2620 C   0  0  0  0  0  0  0  0  0  0  0  0
   11.1400    1.4010   23.9820 C   0  0  0  0  0  0  0  0  0  0  0  0
   12.4280    1.4620   23.4460 C   0  0  0  0  0  0  0  0  0  0  0  0
   11.8960    0.1950   23.0560 C   0  0  0  0  0  0  0  0  0  0  0  0
   12.0330   -1.0020   22.4000 C   0  0  0  0  0  0  0  0  0  0  0  0
   12.8520   -1.7820   21.6370 N   0  0  0  0  0  0  0  0  0  0  0  0
   12.2790   -2.5440   20.8830 O   0  0  0  0  0  0  0  0  0  0  0  0
   13.8550   -1.2030   21.2390 O   0  0  0  0  0  0  0  0  0  0  0  0
   12.8310    0.0180   22.5560 C   0  0  0  0  0  0  0  0  0  0  0  0
  1  2  1  0
  2  3  1  0
  3  4  2  0
  3  5  1  0
  5  6  1  6
  6  7  1  0
  7  8  2  0
  7  9  1  0
  9 10  1  0
 10 11  2  0
 11 12  1  0
 12 13  2  0
 13 14  1  0
 10 15  1  0
 14 15  2  0
  5 16  1  0
 16 17  2  0
 17 18  1  0
 18 19  2  0
 19 20  1  0
 20 21  1  0
 21 22  2  0
 21 23  1  0
 16 24  1  0
 20 24  2  0
M  CHG  2  21   1  23  -1
M  END
