pyridine_urea_8896
     RDKit          3D

 20 21  0  0  0  0  0  0  0  0999 V2000
   13.0110   -0.0890   23.5550 C   0  0  0  0  0  0  0  0  0  0  0  0
   11.8870   -1.0070   23.0700 C   0  0  0  0  0  0  0  0  0  0  0  0
   12.2690   -1.9460   22.0560 N   0  0  0  0  0  0  0  0  0  0  0  0
   11.0570   -2.5470   21.8750 O   0  0  0  0  0  0  0  0  0  0  0  0
   10.1270   -1.9640   22.7270 C   0  0  0  0  0  0  0  0  0  0  0  0
    8.7880   -2.2740   22.8240 C   0  0  2  0  0  0  0  0  0  0  0  0
    8.3660   -0.9750   22.8540 N   0  0  0  0  0  0  0  0  0  0  0  0
    8.1140   -0.1790   21.7370 C   0  0  0  0  0  0  0  0  0  0  0  0
    8.8040    0.7530   21.3390 O   0  0  0  0  0  0  0  0  0  0  0  0
    6.9470   -0.6030   21.1710 N   0  0  0  0  0  0  0  0  0  0  0  0
    6.4320    0.0360   20.0050 C   0  0  0  0  0  0  0  0  0  0  0  0
    5.2850    0.7960   20.2070 C   0  0  0  0  0  0  0  0  0  0  0  0
    4.6830    1.4880   19.1660 C   0  0  0  0  0  0  0  0  0  0  0  0
    5.1640    1.4780   17.8790 C   0  0  0  0  0  0  0  0  0  0  0  0
    6.3470    0.6850   17.6720 N   0  0  0  0  0  0  0  0  0  0  0  0
    6.9400   -0.0100   18.7280 C   0  0  0  0  0  0  0  0  0  0  0  0
    8.3880   -2.9580   23.9750 C   0  0  0  0  0  0  0  0  0  0  0  0
    6.9240   -3.2680   24.1470 C   0  0  0  0  0  0  0  0  0  0  0  0
    8.9240   -4.2410   23.8710 C   0  0  0  0  0  0  0  0  0  0  0  0
   10.6340   -0.9430   23.5500 N   0  0  0  0  0  0  0  0  0  0  0  0
  1  2  1  0
  2  3  2  0
  3  4  1  0
  4  5  1  0
  5  6  1  0
  6  7  1  1
  7  8  1  0
  8  9  2  0
  8 10  1  0
 10 11  1  0
 11 12  2  0
 12 13  1  0
 13 14  2  0
 14 15  1  0
 11 16  1  0
 15 16  2  0
  6 17  1  0
 17 18  1  0
 17 19  1  0
  2 20  1  0
  5 20  2  0
M  END
