pyridine_urea_11721
     RDKit          3D

 26 28  0  0  0  0  0  0  0  0999 V2000
    8.9570    1.0020   21.3770 O   0  0  0  0  0  0  0  0  0  0  0  0
    8.5480   -0.1480   21.4510 C   0  0  0  0  0  0  0  0  0  0  0  0
    7.2820   -0.5520   21.0980 N   0  0  0  0  0  0  0  0  0  0  0  0
    6.5540    0.0490   20.0590 C   0  0  0  0  0  0  0  0  0  0  0  0
    5.3910    0.7670   20.3600 C   0  0  0  0  0  0  0  0  0  0  0  0
    4.6700    1.3820   19.3360 C   0  0  0  0  0  0  0  0  0  0  0  0
    5.1390    1.2580   18.0460 C   0  0  0  0  0  0  0  0  0  0  0  0
    6.2450    0.5700   17.7280 N   0  0  0  0  0  0  0  0  0  0  0  0
    6.9250   -0.0180   18.7310 C   0  0  0  0  0  0  0  0  0  0  0  0
    9.3360   -1.1810   21.8930 N   0  0  0  0  0  0  0  0  0  0  0  0
   10.3760   -1.0000   22.9130 C   0  0  1  0  0  0  0  0  0  0  0  0
   11.7590   -1.3680   22.3140 C   0  0  0  0  0  0  0  0  0  0  0  0
   12.8260   -0.5360   22.6620 C   0  0  0  0  0  0  0  0  0  0  0  0
   12.4240    0.7280   23.0860 C   0  0  0  0  0  0  0  0  0  0  0  0
   11.4920    0.6460   24.1000 C   0  0  0  0  0  0  0  0  0  0  0  0
   10.2710    0.1660   23.6720 C   0  0  2  0  0  0  0  0  0  0  0  0
    9.3430    0.0610   24.6920 C   0  0  0  0  0  0  0  0  0  0  0  0
    8.0700    0.7880   24.4010 C   0  0  0  0  0  0  0  0  0  0  0  0
    7.0040    0.6890   25.4860 C   0  0  0  0  0  0  0  0  0  0  0  0
    7.2230   -0.0360   26.6630 C   0  0  0  0  0  0  0  0  0  0  0  0
    6.2270   -0.1140   27.6420 C   0  0  0  0  0  0  0  0  0  0  0  0
    5.1540   -0.8420   27.2280 F   0  0  0  0  0  0  0  0  0  0  0  0
    6.6550   -0.7180   28.7850 F   0  0  0  0  0  0  0  0  0  0  0  0
    5.7320    1.0970   28.0200 F   0  0  0  0  0  0  0  0  0  0  0  0
    8.4640   -0.6960   26.8640 C   0  0  0  0  0  0  0  0  0  0  0  0
    9.4740   -0.6340   25.9000 C   0  0  0  0  0  0  0  0  0  0  0  0
  1  2  2  0
  2  3  1  0
  3  4  1  0
  4  5  2  0
  5  6  1  0
  6  7  2  0
  7  8  1  0
  4  9  1  0
  8  9  2  0
  2 10  1  0
 11 10  1  6
 11 12  1  0
 12 13  1  0
 13 14  1  0
 14 15  1  0
 11 16  1  0
 15 16  1  0
 16 17  1  1
 17 18  2  0
 18 19  1  0
 19 20  2  0
 20 21  1  0
 21 22  1  0
 21 23  1  0
 21 24  1  0
 20 25  1  0
 17 26  1  0
 25 26  2  0
M  END
