pyridine_urea_8984
     RDKit          3D

 19 20  0  0  0  0  0  0  0  0999 V2000
   13.0550   -0.4200   22.4620 C   0  0  0  0  0  0  0  0  0  0  0  0
   11.7280   -1.1730   22.7260 C   0  0  0  0  0  0  0  0  0  0  0  0
   11.8570   -1.8750   24.1060 C   0  0  0  0  0  0  0  0  0  0  0  0
   11.6540   -2.2400   21.6910 C   0  0  0  0  0  0  0  0  0  0  0  0
   10.4890   -2.5560   21.5330 O   0  0  0  0  0  0  0  0  0  0  0  0
   10.5280   -0.2210   22.7150 C   0  0  1  0  0  0  0  0  0  0  0  0
    9.1730   -0.6800   22.4420 N   0  0  0  0  0  0  0  0  0  0  0  0
    8.4780    0.0980   21.5240 C   0  0  0  0  0  0  0  0  0  0  0  0
    8.8720    1.2290   21.2050 O   0  0  0  0  0  0  0  0  0  0  0  0
    7.3370   -0.5120   21.0490 N   0  0  0  0  0  0  0  0  0  0  0  0
    6.5470    0.1060   20.0740 C   0  0  0  0  0  0  0  0  0  0  0  0
    5.3740    0.8510   20.3050 C   0  0  0  0  0  0  0  0  0  0  0  0
    4.6780    1.4480   19.2620 C   0  0  0  0  0  0  0  0  0  0  0  0
    5.1270    1.3250   17.9580 C   0  0  0  0  0  0  0  0  0  0  0  0
    6.2570    0.5950   17.7130 N   0  0  0  0  0  0  0  0  0  0  0  0
    6.9570   -0.0080   18.7540 C   0  0  0  0  0  0  0  0  0  0  0  0
   10.8000    0.5200   23.8030 C   0  0  0  0  0  0  0  0  0  0  0  0
   11.3360    1.6420   23.7860 C   0  0  0  0  0  0  0  0  0  0  0  0
   12.3200    0.5660   24.0710 C   0  0  0  0  0  0  0  0  0  0  0  0
  2  1  1  0
  2  3  1  0
  2  4  1  0
  4  5  1  0
  2  6  1  0
  6  7  1  1
  7  8  1  0
  8  9  2  0
  8 10  1  0
 10 11  1  0
 11 12  2  0
 12 13  1  0
 13 14  2  0
 14 15  1  0
 11 16  1  0
 15 16  2  0
  6 17  1  0
 17 18  1  0
 17 19  1  0
 18 19  1  0
M  END
