pyridine_urea_7816
     RDKit          3D

 26 28  0  0  0  0  0  0  0  0999 V2000
   10.8790    2.7900   22.5080 C   0  0  0  0  0  0  0  0  0  0  0  0
   11.1010    1.6570   22.9730 O   0  0  0  0  0  0  0  0  0  0  0  0
   12.3030    1.1130   22.6560 C   0  0  0  0  0  0  0  0  0  0  0  0
   12.5090    2.4240   22.9400 C   0  0  0  0  0  0  0  0  0  0  0  0
   11.4220    3.1390   23.2860 C   0  0  0  0  0  0  0  0  0  0  0  0
   11.5040    4.8230   23.6650 Cl  0  0  0  0  0  0  0  0  0  0  0  0
   10.3060    2.2930   23.2700 C   0  0  0  0  0  0  0  0  0  0  0  0
   10.3680    0.8840   22.9150 C   0  0  0  0  0  0  0  0  0  0  0  0
   11.4710   -0.0010   22.5150 C   0  0  0  0  0  0  0  0  0  0  0  0
   10.3200   -1.0170   22.4470 C   0  0  2  0  0  0  0  0  0  0  0  0
    9.4140   -0.9540   21.3370 N   0  0  0  0  0  0  0  0  0  0  0  0
    8.4840    0.0350   21.2150 C   0  0  0  0  0  0  0  0  0  0  0  0
    8.8130    1.3730   21.2100 O   0  0  0  0  0  0  0  0  0  0  0  0
    7.2230   -0.4580   21.0290 N   0  0  0  0  0  0  0  0  0  0  0  0
    6.4270    0.1490   20.0660 C   0  0  0  0  0  0  0  0  0  0  0  0
    5.2480    0.8540   20.3040 C   0  0  0  0  0  0  0  0  0  0  0  0
    4.5800    1.4330   19.2300 C   0  0  0  0  0  0  0  0  0  0  0  0
    5.1220    1.2800   17.9640 C   0  0  0  0  0  0  0  0  0  0  0  0
    6.2330    0.6110   17.6650 N   0  0  0  0  0  0  0  0  0  0  0  0
    6.8750    0.0450   18.7610 C   0  0  0  0  0  0  0  0  0  0  0  0
    9.5340   -0.7210   23.6290 C   0  0  0  0  0  0  0  0  0  0  0  0
   10.6470   -0.6970   24.2620 C   0  0  0  0  0  0  0  0  0  0  0  0
   11.9180   -0.8530   23.9810 C   0  0  0  0  0  0  0  0  0  0  0  0
   12.0880   -0.6520   25.2460 C   0  0  0  0  0  0  0  0  0  0  0  0
   10.6990   -0.4360   25.7910 C   0  0  0  0  0  0  0  0  0  0  0  0
    9.4850   -0.4650   25.0030 C   0  0  0  0  0  0  0  0  0  0  0  0
  1  2  1  0
  2  3  1  0
  3  4  2  0
  4  5  1  0
  5  6  1  0
  5  7  2  0
  7  8  1  0
  3  9  1  0
  8  9  2  0
  9 10  1  0
 10 11  1  6
 11 12  1  0
 12 13  2  0
 12 14  1  0
 14 15  1  0
 15 16  2  0
 16 17  1  0
 17 18  2  0
 18 19  1  0
 15 20  1  0
 19 20  2  0
 10 21  1  0
 21 22  2  0
 22 23  1  0
 23 24  2  0
 24 25  1  0
 21 26  1  0
 25 26  2  0
M  END
