pyridine_urea_9016
     RDKit          3D

 19 20  0  0  0  0  0  0  0  0999 V2000
    4.0600    0.6240   20.5230 C   0  0  0  0  0  0  0  0  0  0  0  0
    5.1970    0.5100   19.5040 C   0  0  0  0  0  0  0  0  0  0  0  0
    5.5250    1.6430   18.6360 C   0  0  0  0  0  0  0  0  0  0  0  0
    6.4710    1.0280   17.9790 C   0  0  0  0  0  0  0  0  0  0  0  0
    6.5170    0.7290   19.4050 C   0  0  0  0  0  0  0  0  0  0  0  0
    7.0060    0.0250   20.6490 N   0  0  0  0  0  0  0  0  0  0  0  0
    8.2130    0.4190   21.2500 C   0  0  0  0  0  0  0  0  0  0  0  0
    8.7250    1.6680   21.0440 O   0  0  0  0  0  0  0  0  0  0  0  0
    8.8610   -0.5470   22.0280 N   0  0  0  0  0  0  0  0  0  0  0  0
   10.2370   -0.3830   22.3290 C   0  0  0  0  0  0  0  0  0  0  0  0
   11.2720   -1.3290   22.2510 C   0  0  0  0  0  0  0  0  0  0  0  0
   12.5910   -1.0450   22.5490 C   0  0  0  0  0  0  0  0  0  0  0  0
   12.9710    0.2210   22.9450 C   0  0  0  0  0  0  0  0  0  0  0  0
   12.0030    1.1810   23.0370 N   0  0  0  0  0  0  0  0  0  0  0  0
   10.6550    0.8840   22.7430 C   0  0  0  0  0  0  0  0  0  0  0  0
    7.2660   -0.2200   18.9350 C   0  0  0  0  0  0  0  0  0  0  0  0
    7.5310   -1.3530   18.5990 O   0  0  0  0  0  0  0  0  0  0  0  0
    5.9990   -0.6300   19.3270 N   0  0  0  0  0  0  0  0  0  0  0  0
    5.4490   -1.5510   18.5580 C   0  0  0  0  0  0  0  0  0  0  0  0
  1  2  1  0
  2  3  2  0
  3  4  1  0
  4  5  2  0
  5  6  1  0
  6  7  1  0
  7  8  2  0
  7  9  1  0
  9 10  1  0
 10 11  2  0
 11 12  1  0
 12 13  2  0
 13 14  1  0
 10 15  1  0
 14 15  2  0
  5 16  1  0
 16 17  2  0
  2 18  1  0
 16 18  1  0
 18 19  1  0
M  END
