pyridine_urea_13010
     RDKit          3D

 18 19  0  0  0  0  0  0  0  0999 V2000
   13.4450   -2.4120   23.7330 C   0  0  0  0  0  0  0  0  0  0  0  0
   12.6970   -1.2980   23.4890 N   0  0  0  0  0  0  0  0  0  0  0  0
   13.0180    0.0390   23.2290 C   0  0  0  0  0  0  0  0  0  0  0  0
   11.8980    0.7700   23.0830 C   0  0  0  0  0  0  0  0  0  0  0  0
   11.6660    2.8640   22.7350 I   0  0  0  0  0  0  0  0  0  0  0  0
   10.8650   -0.1580   23.2410 C   0  0  0  0  0  0  0  0  0  0  0  0
    9.5320    0.0700   23.1810 C   0  0  0  0  0  0  0  0  0  0  0  0
    8.9190   -0.6450   22.2600 N   0  0  0  0  0  0  0  0  0  0  0  0
    8.2590    0.1090   21.3950 C   0  0  0  0  0  0  0  0  0  0  0  0
    8.6850    1.2050   21.0030 O   0  0  0  0  0  0  0  0  0  0  0  0
    7.0190   -0.5440   21.0330 N   0  0  0  0  0  0  0  0  0  0  0  0
    6.3960    0.0990   19.9370 C   0  0  0  0  0  0  0  0  0  0  0  0
    5.1340    0.9120   20.1840 C   0  0  0  0  0  0  0  0  0  0  0  0
    4.5550    1.5480   19.1160 C   0  0  0  0  0  0  0  0  0  0  0  0
    5.1320    1.4260   17.8750 C   0  0  0  0  0  0  0  0  0  0  0  0
    6.2400    0.7150   17.5860 N   0  0  0  0  0  0  0  0  0  0  0  0
    6.8220    0.0850   18.6320 C   0  0  0  0  0  0  0  0  0  0  0  0
   11.3530   -1.4180   23.4870 N   0  0  0  0  0  0  0  0  0  0  0  0
  1  2  1  0
  2  3  1  0
  3  4  2  0
  4  5  1  0
  4  6  1  0
  6  7  1  0
  7  8  1  0
  8  9  1  0
  9 10  2  0
  9 11  1  0
 11 12  1  0
 12 13  2  0
 13 14  1  0
 14 15  2  0
 15 16  1  0
 12 17  1  0
 16 17  2  0
  2 18  1  0
  6 18  2  0
M  END
