pyridine_urea_5186
     RDKit          3D

 20 21  0  0  0  0  0  0  0  0999 V2000
   12.6980    5.9050   22.2090 C   0  0  0  0  0  0  0  0  0  0  0  0
   12.9190    4.4450   21.9500 C   0  0  0  0  0  0  0  0  0  0  0  0
   12.3350    3.5150   22.8110 C   0  0  0  0  0  0  0  0  0  0  0  0
   13.0510    2.5000   23.0830 O   0  0  0  0  0  0  0  0  0  0  0  0
   12.1840    1.4720   22.9210 C   0  0  0  0  0  0  0  0  0  0  0  0
   10.8780    1.7330   23.0020 C   0  0  0  0  0  0  0  0  0  0  0  0
    9.9150    0.6630   22.7920 C   0  0  0  0  0  0  0  0  0  0  0  0
   10.3590   -0.5980   22.5050 C   0  0  0  0  0  0  0  0  0  0  0  0
    9.1190   -1.3020   22.3040 N   0  0  0  0  0  0  0  0  0  0  0  0
    8.3250   -0.4810   21.4940 C   0  0  0  0  0  0  0  0  0  0  0  0
    8.7610    0.8630   21.1580 O   0  0  0  0  0  0  0  0  0  0  0  0
    7.1350   -0.9820   21.0340 N   0  0  0  0  0  0  0  0  0  0  0  0
    6.4000   -0.2310   20.0850 C   0  0  0  0  0  0  0  0  0  0  0  0
    5.2050    0.4370   20.3090 C   0  0  0  0  0  0  0  0  0  0  0  0
    4.5850    1.1620   19.2900 C   0  0  0  0  0  0  0  0  0  0  0  0
    5.1990    1.2020   18.0350 C   0  0  0  0  0  0  0  0  0  0  0  0
    6.3540    0.5620   17.7870 N   0  0  0  0  0  0  0  0  0  0  0  0
    6.9180   -0.1310   18.8020 C   0  0  0  0  0  0  0  0  0  0  0  0
   11.7850   -1.0800   22.4040 C   0  0  0  0  0  0  0  0  0  0  0  0
   12.6900    0.0160   22.6260 C   0  0  0  0  0  0  0  0  0  0  0  0
  1  2  1  0
  2  3  1  0
  3  4  1  0
  4  5  1  0
  5  6  2  0
  6  7  1  0
  7  8  2  0
  8  9  1  0
  9 10  1  0
 10 11  2  0
 10 12  1  0
 12 13  1  0
 13 14  2  0
 14 15  1  0
 15 16  2  0
 16 17  1  0
 13 18  1  0
 17 18  2  0
  8 19  1  0
  5 20  1  0
 19 20  2  0
M  END
