pyridine_urea_3824
     RDKit          3D

 21 23  0  0  0  0  0  0  0  0999 V2000
    8.9760    0.8740   21.4850 O   0  0  0  0  0  0  0  0  0  0  0  0
    8.4200   -0.2140   21.3940 C   0  0  0  0  0  0  0  0  0  0  0  0
    9.0270   -1.4260   21.5330 N   0  0  0  0  0  0  0  0  0  0  0  0
    8.4750   -2.5400   22.2130 C   0  0  0  0  0  0  0  0  0  0  0  0
    8.6740   -2.5820   23.5810 C   0  0  2  0  0  0  0  0  0  0  0  0
    9.9430   -2.1850   23.9440 C   0  0  0  0  0  0  0  0  0  0  0  0
   10.6320   -3.3410   24.2160 C   0  0  0  0  0  0  0  0  0  0  0  0
    9.8960   -4.3400   24.3100 O   0  0  0  0  0  0  0  0  0  0  0  0
    8.5220   -3.9310   24.2810 C   0  0  2  0  0  0  0  0  0  0  0  0
    7.6120   -4.5290   23.4000 C   0  0  0  0  0  0  0  0  0  0  0  0
    6.2150   -4.5370   23.5760 N   0  0  0  0  0  0  0  0  0  0  0  0
    5.6280   -5.2330   22.5240 N   0  0  0  0  0  0  0  0  0  0  0  0
    6.6700   -5.6190   21.7560 C   0  0  0  0  0  0  0  0  0  0  0  0
    7.8560   -5.2140   22.2470 N   0  0  0  0  0  0  0  0  0  0  0  0
    7.0930   -0.4190   21.1110 N   0  0  0  0  0  0  0  0  0  0  0  0
    6.4600    0.1490   20.0690 C   0  0  0  0  0  0  0  0  0  0  0  0
    5.2940    0.8770   20.3100 C   0  0  0  0  0  0  0  0  0  0  0  0
    4.6520    1.4730   19.2310 C   0  0  0  0  0  0  0  0  0  0  0  0
    5.1680    1.3420   17.9580 C   0  0  0  0  0  0  0  0  0  0  0  0
    6.2800    0.6420   17.7040 N   0  0  0  0  0  0  0  0  0  0  0  0
    6.8990    0.0630   18.7570 C   0  0  0  0  0  0  0  0  0  0  0  0
  1  2  2  0
  2  3  1  0
  3  4  1  0
  5  4  1  6
  5  6  1  0
  6  7  1  0
  7  8  1  0
  5  9  1  0
  8  9  1  0
  9 10  1  6
 10 11  2  0
 11 12  1  0
 12 13  2  0
 10 14  1  0
 13 14  1  0
  2 15  1  0
 15 16  1  0
 16 17  2  0
 17 18  1  0
 18 19  2  0
 19 20  1  0
 16 21  1  0
 20 21  2  0
M  END
