pyridine_urea_11560
     RDKit          3D

 21 22  0  0  0  0  0  0  0  0999 V2000
   13.2520   -2.5200   22.3920 C   0  0  0  0  0  0  0  0  0  0  0  0
   12.5940   -2.1790   23.6770 C   0  0  0  0  0  0  0  0  0  0  0  0
   13.2650   -2.0010   24.8850 C   0  0  0  0  0  0  0  0  0  0  0  0
   11.7780   -0.9520   23.2570 C   0  0  0  0  0  0  0  0  0  0  0  0
   12.1600    0.3590   23.0350 C   0  0  0  0  0  0  0  0  0  0  0  0
   13.3480    0.5300   23.2130 C   0  0  0  0  0  0  0  0  0  0  0  0
   12.6360   -0.6940   23.3690 C   0  0  0  0  0  0  0  0  0  0  0  0
   11.3040    0.2240   22.8850 C   0  0  0  0  0  0  0  0  0  0  0  0
   10.0310    0.6160   22.5340 C   0  0  2  0  0  0  0  0  0  0  0  0
    9.1850    1.2470   23.4080 C   0  0  0  0  0  0  0  0  0  0  0  0
    9.2240   -0.4940   22.1340 N   0  0  0  0  0  0  0  0  0  0  0  0
    8.2270    0.0490   21.2730 C   0  0  0  0  0  0  0  0  0  0  0  0
    8.4080    1.1970   20.8470 O   0  0  0  0  0  0  0  0  0  0  0  0
    7.0570   -0.6950   20.9270 N   0  0  0  0  0  0  0  0  0  0  0  0
    6.2630   -0.0090   20.0200 C   0  0  0  0  0  0  0  0  0  0  0  0
    5.0350    0.5750   20.3280 C   0  0  0  0  0  0  0  0  0  0  0  0
    4.4430    1.2810   19.1520 C   0  0  0  0  0  0  0  0  0  0  0  0
    5.1680    1.2970   17.8380 C   0  0  0  0  0  0  0  0  0  0  0  0
    6.3300    0.6930   17.6570 N   0  0  0  0  0  0  0  0  0  0  0  0
    6.8270    0.0720   18.7410 C   0  0  0  0  0  0  0  0  0  0  0  0
   10.4710   -0.9410   22.9950 C   0  0  0  0  0  0  0  0  0  0  0  0
  1  2  1  0
  2  3  1  0
  2  4  1  0
  4  5  2  0
  5  6  1  0
  6  7  2  0
  7  8  1  0
  8  9  1  0
  9 10  1  1
  9 11  1  0
 11 12  1  0
 12 13  2  0
 12 14  1  0
 14 15  1  0
 15 16  2  0
 16 17  1  0
 17 18  2  0
 18 19  1  0
 15 20  1  0
 19 20  2  0
  4 21  1  0
  8 21  2  0
M  END
