pyridine_urea_200
     RDKit          3D

 22 23  0  0  0  0  0  0  0  0999 V2000
    8.6810   -0.9340   24.7900 C   0  0  0  0  0  0  0  0  0  0  0  0
    8.8180    0.1180   24.2400 C   0  0  0  0  0  0  0  0  0  0  0  0
    8.7780    1.6260   23.9740 C   0  0  0  0  0  0  0  0  0  0  0  0
   10.3260   -0.1130   23.9880 C   0  0  2  0  0  0  0  0  0  0  0  0
   10.8200    1.1380   23.7410 C   0  0  0  0  0  0  0  0  0  0  0  0
   12.2400    1.3690   23.2360 C   0  0  0  0  0  0  0  0  0  0  0  0
   12.9450    0.1060   23.0500 C   0  0  1  0  0  0  0  0  0  0  0  0
   12.9360   -0.8640   23.9850 C   0  0  0  0  0  0  0  0  0  0  0  0
   12.1830   -1.1420   22.7060 C   0  0  0  0  0  0  0  0  0  0  0  0
   10.7880   -0.9940   22.7360 C   0  0  2  0  0  0  0  0  0  0  0  0
   10.5660   -0.3280   21.7490 O   0  0  0  0  0  0  0  0  0  0  0  0
   10.0050   -2.0920   22.5520 C   0  0  0  0  0  0  0  0  0  0  0  0
    8.6020   -1.7620   22.2760 N   0  0  0  0  0  0  0  0  0  0  0  0
    8.2420   -0.6450   21.5350 C   0  0  0  0  0  0  0  0  0  0  0  0
    8.9360    0.6120   21.3730 O   0  0  0  0  0  0  0  0  0  0  0  0
    7.0300   -0.9200   20.9530 N   0  0  0  0  0  0  0  0  0  0  0  0
    6.3620   -0.1310   20.0150 C   0  0  0  0  0  0  0  0  0  0  0  0
    5.1130    0.6390   20.2640 C   0  0  0  0  0  0  0  0  0  0  0  0
    4.5510    1.4300   19.1290 C   0  0  0  0  0  0  0  0  0  0  0  0
    5.2360    1.3910   17.9150 C   0  0  0  0  0  0  0  0  0  0  0  0
    6.3680    0.6760   17.7240 N   0  0  0  0  0  0  0  0  0  0  0  0
    6.8870   -0.0450   18.7430 C   0  0  0  0  0  0  0  0  0  0  0  0
  1  2  1  0
  2  3  1  0
  4  2  1  6
  4  5  1  0
  5  6  1  0
  6  7  1  0
  7  8  1  1
  7  9  1  0
  4 10  1  0
  9 10  1  0
 10 11  1  6
 10 12  1  0
 12 13  1  0
 13 14  1  0
 14 15  2  0
 14 16  1  0
 16 17  1  0
 17 18  2  0
 18 19  1  0
 19 20  2  0
 20 21  1  0
 17 22  1  0
 21 22  2  0
M  END
