pyridine_urea_3867
     RDKit          3D

 20 21  0  0  0  0  0  0  0  0999 V2000
    8.9800    1.2750   21.2850 O   0  0  0  0  0  0  0  0  0  0  0  0
    8.3350    0.3150   21.7380 C   0  0  0  0  0  0  0  0  0  0  0  0
    8.5130   -0.2870   22.9810 N   0  0  0  0  0  0  0  0  0  0  0  0
    9.1180    0.2440   24.1640 C   0  0  0  0  0  0  0  0  0  0  0  0
   10.4030    0.7190   24.0150 C   0  0  0  0  0  0  0  0  0  0  0  0
   11.7780    0.9500   23.6840 C   0  0  0  0  0  0  0  0  0  0  0  0
   12.6550    0.2160   22.9240 C   0  0  0  0  0  0  0  0  0  0  0  0
   12.3540   -0.9480   22.3090 C   0  0  0  0  0  0  0  0  0  0  0  0
   13.3610   -1.8740   21.3390 Cl  0  0  0  0  0  0  0  0  0  0  0  0
   11.1360   -1.3970   22.4820 C   0  0  0  0  0  0  0  0  0  0  0  0
   10.7610   -2.5430   21.9230 F   0  0  0  0  0  0  0  0  0  0  0  0
   10.1680   -0.6030   23.3120 C   0  0  0  0  0  0  0  0  0  0  0  0
    8.9510   -1.1550   23.4290 F   0  0  0  0  0  0  0  0  0  0  0  0
    7.3030   -0.3280   21.0830 N   0  0  0  0  0  0  0  0  0  0  0  0
    6.5890    0.1930   20.0540 C   0  0  0  0  0  0  0  0  0  0  0  0
    5.4330    0.9320   20.3450 C   0  0  0  0  0  0  0  0  0  0  0  0
    4.7100    1.4820   19.2950 C   0  0  0  0  0  0  0  0  0  0  0  0
    5.1530    1.2830   18.0060 C   0  0  0  0  0  0  0  0  0  0  0  0
    6.2430    0.5770   17.7000 N   0  0  0  0  0  0  0  0  0  0  0  0
    6.9380    0.0450   18.7250 C   0  0  0  0  0  0  0  0  0  0  0  0
  1  2  2  0
  2  3  1  0
  3  4  1  0
  4  5  1  0
  5  6  2  0
  6  7  1  0
  7  8  2  0
  8  9  1  0
  8 10  1  0
 10 11  1  0
  5 12  1  0
 10 12  2  0
 12 13  1  0
  2 14  1  0
 14 15  1  0
 15 16  2  0
 16 17  1  0
 17 18  2  0
 18 19  1  0
 15 20  1  0
 19 20  2  0
M  END
