pyridine_urea_13040
     RDKit          3D

 18 20  0  0  0  0  0  0  0  0999 V2000
    8.4750    0.9970   20.9080 O   0  0  0  0  0  0  0  0  0  0  0  0
    8.4330   -0.1550   21.2790 C   0  0  0  0  0  0  0  0  0  0  0  0
    9.2590   -0.7360   22.2450 N   0  0  0  0  0  0  0  0  0  0  0  0
   10.5630   -0.2990   22.5160 C   0  0  0  0  0  0  0  0  0  0  0  0
   11.6270   -1.1590   22.1900 C   0  0  0  0  0  0  0  0  0  0  0  0
   12.9430   -0.7560   22.4150 C   0  0  0  0  0  0  0  0  0  0  0  0
   13.1680    0.4890   22.9610 C   0  0  0  0  0  0  0  0  0  0  0  0
   12.2030    1.3260   23.2870 N   0  0  0  0  0  0  0  0  0  0  0  0
   10.9260    0.9180   23.0690 C   0  0  0  0  0  0  0  0  0  0  0  0
    7.5040   -1.0590   20.7590 N   0  0  0  0  0  0  0  0  0  0  0  0
    6.4740   -0.6300   19.8110 C   0  0  1  0  0  0  0  0  0  0  0  0
    5.8240    0.5680   20.2850 C   0  0  0  0  0  0  0  0  0  0  0  0
    5.2220    1.4220   19.3580 C   0  0  0  0  0  0  0  0  0  0  0  0
    4.5700    2.3470   18.3540 N   0  0  0  0  0  0  0  0  0  0  0  0
    4.8400    2.2510   17.0740 C   0  0  0  0  0  0  0  0  0  0  0  0
    5.2830    1.5900   18.0430 C   0  0  0  0  0  0  0  0  0  0  0  0
    6.0170    0.7460   18.1810 N   0  0  0  0  0  0  0  0  0  0  0  0
    6.8880   -0.2900   18.6020 C   0  0  0  0  0  0  0  0  0  0  0  0
  1  2  2  0
  2  3  1  0
  3  4  1  0
  4  5  2  0
  5  6  1  0
  6  7  2  0
  7  8  1  0
  4  9  1  0
  8  9  2  0
  2 10  1  0
 11 10  1  1
 11 12  1  0
 12 13  1  0
 13 14  2  0
 14 15  1  0
 15 16  2  0
 13 17  1  0
 16 17  1  0
 11 18  1  0
 17 18  1  0
M  END
