pyridine_urea_1600
     RDKit          3D

 19 20  0  0  0  0  0  0  0  0999 V2000
    3.1400    2.1370   19.3220 C   0  0  0  0  0  0  0  0  0  0  0  0
    4.2560    2.5030   18.3870 C   0  0  0  0  0  0  0  0  0  0  0  0
    5.0850    1.5190   17.8270 C   0  0  0  0  0  0  0  0  0  0  0  0
    6.0630    1.0930   18.7130 N   0  0  0  0  0  0  0  0  0  0  0  0
    6.5410   -0.1720   18.8590 C   0  0  0  0  0  0  0  0  0  0  0  0
    6.3340   -0.6660   20.1240 C   0  0  1  0  0  0  0  0  0  0  0  0
    7.3760   -1.1580   20.8370 N   0  0  0  0  0  0  0  0  0  0  0  0
    8.2850   -0.2960   21.3670 C   0  0  0  0  0  0  0  0  0  0  0  0
    8.3510    0.8860   21.0410 O   0  0  0  0  0  0  0  0  0  0  0  0
    9.1020   -0.9370   22.2850 N   0  0  0  0  0  0  0  0  0  0  0  0
   10.4920   -0.5620   22.4680 C   0  0  0  0  0  0  0  0  0  0  0  0
   10.7770    0.8710   22.8520 C   0  0  0  0  0  0  0  0  0  0  0  0
   12.0690    1.2900   23.0210 C   0  0  0  0  0  0  0  0  0  0  0  0
   13.0680    0.3500   22.8330 C   0  0  0  0  0  0  0  0  0  0  0  0
   12.8650   -0.9510   22.4920 N   0  0  0  0  0  0  0  0  0  0  0  0
   11.5870   -1.4000   22.3100 C   0  0  0  0  0  0  0  0  0  0  0  0
    5.4860    0.2570   20.7380 C   0  0  0  0  0  0  0  0  0  0  0  0
    5.7720    1.4180   20.0240 C   0  0  0  0  0  0  0  0  0  0  0  0
    5.7370    2.6270   20.6520 O   0  0  0  0  0  0  0  0  0  0  0  0
  1  2  1  0
  2  3  1  0
  3  4  1  0
  4  5  1  0
  5  6  1  0
  6  7  1  1
  7  8  1  0
  8  9  2  0
  8 10  1  0
 10 11  1  0
 11 12  2  0
 12 13  1  0
 13 14  2  0
 14 15  1  0
 11 16  1  0
 15 16  2  0
  6 17  1  0
  4 18  1  0
 17 18  1  0
 18 19  2  0
M  END
