pyridine_urea_13600
     RDKit          3D

 26 28  0  0  0  0  0  0  0  0999 V2000
   16.0270    1.5100   18.7850 C   0  0  0  0  0  0  0  0  0  0  0  0
   15.2160    0.6620   19.8180 C   0  0  0  0  0  0  0  0  0  0  0  0
   14.6210   -0.7250   19.6870 N   0  0  0  0  0  0  0  0  0  0  0  0
   13.9130   -1.0850   20.9500 N   0  0  0  0  0  0  0  0  0  0  0  0
   14.0230   -0.0170   21.8930 C   0  0  0  0  0  0  0  0  0  0  0  0
   13.5430   -0.0770   23.1280 N   0  0  0  0  0  0  0  0  0  0  0  0
   13.5320   -1.5810   23.8900 S   0  0  0  0  0  0  0  0  0  0  0  0
   13.6980   -1.6390   25.3180 O   0  0  0  0  0  0  0  0  0  0  0  0
   13.8180   -2.6410   22.9580 O   0  0  0  0  0  0  0  0  0  0  0  0
   11.9260   -1.1930   23.6470 C   0  0  0  0  0  0  0  0  0  0  0  0
   11.3950   -1.3870   22.2950 C   0  0  0  0  0  0  0  0  0  0  0  0
   10.1000   -1.0750   22.0690 C   0  0  0  0  0  0  0  0  0  0  0  0
    9.3280   -0.5840   23.1270 C   0  0  0  0  0  0  0  0  0  0  0  0
    8.0050   -0.2540   22.9760 N   0  0  0  0  0  0  0  0  0  0  0  0
    7.8790    0.0110   21.5540 C   0  0  0  0  0  0  0  0  0  0  0  0
    8.5850    0.8050   20.9520 O   0  0  0  0  0  0  0  0  0  0  0  0
    6.8960   -0.6960   21.0020 N   0  0  0  0  0  0  0  0  0  0  0  0
    6.3480   -0.0240   19.9980 C   0  0  0  0  0  0  0  0  0  0  0  0
    5.1110    0.6300   20.1060 C   0  0  0  0  0  0  0  0  0  0  0  0
    4.5300    1.3590   19.0480 C   0  0  0  0  0  0  0  0  0  0  0  0
    5.2010    1.4530   17.8140 C   0  0  0  0  0  0  0  0  0  0  0  0
    6.3610    0.8570   17.6470 N   0  0  0  0  0  0  0  0  0  0  0  0
    6.9490    0.1520   18.6290 C   0  0  0  0  0  0  0  0  0  0  0  0
    9.8460   -0.4000   24.3860 C   0  0  0  0  0  0  0  0  0  0  0  0
   11.1330   -0.7030   24.6280 C   0  0  0  0  0  0  0  0  0  0  0  0
   14.8640    1.3400   21.3880 S   0  0  0  0  0  0  0  0  0  0  0  0
  1  2  1  0
  2  3  2  0
  3  4  1  0
  4  5  2  0
  5  6  1  0
  7  6  1  0
  7  8  2  0
  7  9  2  0
  7 10  1  0
 10 11  2  0
 11 12  1  0
 12 13  2  0
 13 14  1  0
 14 15  1  0
 15 16  2  0
 15 17  1  0
 17 18  1  0
 18 19  2  0
 19 20  1  0
 20 21  2  0
 21 22  1  0
 18 23  1  0
 22 23  2  0
 13 24  1  0
 10 25  1  0
 24 25  2  0
  2 26  1  0
  5 26  1  0
M  END
