pyridine_urea_70
     RDKit          3D

 25 27  0  0  0  0  0  0  0  0999 V2000
    8.7530    0.8400   21.3440 O   0  0  0  0  0  0  0  0  0  0  0  0
    8.7050   -0.3790   21.4480 C   0  0  0  0  0  0  0  0  0  0  0  0
    9.3470   -1.0720   22.4360 N   0  0  0  0  0  0  0  0  0  0  0  0
   10.6910   -0.6300   22.5820 C   0  0  0  0  0  0  0  0  0  0  0  0
   10.7760    0.8440   22.8940 C   0  0  0  0  0  0  0  0  0  0  0  0
   12.1520    1.3540   23.0250 C   0  0  0  0  0  0  0  0  0  0  0  0
   13.1860    0.4780   22.8650 C   0  0  0  0  0  0  0  0  0  0  0  0
   13.0790   -0.8350   22.5950 N   0  0  0  0  0  0  0  0  0  0  0  0
   11.8470   -1.3680   22.4560 C   0  0  0  0  0  0  0  0  0  0  0  0
    8.0460   -1.1930   20.5760 N   0  0  0  0  0  0  0  0  0  0  0  0
    6.6210   -1.0010   20.3680 C   0  0  2  0  0  0  0  0  0  0  0  0
    6.3650    0.2600   20.1540 C   0  0  0  0  0  0  0  0  0  0  0  0
    5.7750    0.8690   21.2140 N   0  0  0  0  0  0  0  0  0  0  0  0
    4.9160    1.7970   20.8970 C   0  0  0  0  0  0  0  0  0  0  0  0
    5.1160    1.7980   19.6690 C   0  0  0  0  0  0  0  0  0  0  0  0
    6.2410    1.1420   19.3960 C   0  0  0  0  0  0  0  0  0  0  0  0
    6.7030    0.9890   18.1830 C   0  0  0  0  0  0  0  0  0  0  0  0
    6.1250    1.4900   16.9140 C   0  0  0  0  0  0  0  0  0  0  0  0
    4.9190    2.1790   17.3960 C   0  0  0  0  0  0  0  0  0  0  0  0
    4.4010    2.3260   18.7400 C   0  0  0  0  0  0  0  0  0  0  0  0
    5.0490   -0.1240   21.6480 C   0  0  0  0  0  0  0  0  0  0  0  0
    5.9780   -1.1360   21.7400 C   0  0  1  0  0  0  0  0  0  0  0  0
    5.4200   -2.4110   21.9080 C   0  0  0  0  0  0  0  0  0  0  0  0
    6.2480   -3.2290   22.6040 F   0  0  0  0  0  0  0  0  0  0  0  0
    5.2610   -3.0110   20.6970 F   0  0  0  0  0  0  0  0  0  0  0  0
  1  2  2  0
  2  3  1  0
  3  4  1  0
  4  5  2  0
  5  6  1  0
  6  7  2  0
  7  8  1  0
  4  9  1  0
  8  9  2  0
  2 10  1  0
 11 10  1  1
 11 12  1  0
 12 13  1  0
 13 14  1  0
 14 15  1  0
 15 16  2  0
 16 17  1  0
 17 18  2  0
 18 19  1  0
 15 20  1  0
 19 20  2  0
 13 21  1  0
 11 22  1  0
 21 22  1  0
 22 23  1  6
 23 24  1  0
 23 25  1  0
M  END
