pyridine_urea_7885
     RDKit          3D

 26 28  0  0  0  0  0  0  0  0999 V2000
    8.7140    1.2530   21.1240 O   0  0  0  0  0  0  0  0  0  0  0  0
    8.3870    0.0880   21.3730 C   0  0  0  0  0  0  0  0  0  0  0  0
    9.1560   -0.8550   21.9710 N   0  0  0  0  0  0  0  0  0  0  0  0
   10.4410   -0.5810   22.4300 C   0  0  0  0  0  0  0  0  0  0  0  0
   11.4480   -1.4890   22.0930 C   0  0  0  0  0  0  0  0  0  0  0  0
   12.7100   -1.2280   22.5810 C   0  0  0  0  0  0  0  0  0  0  0  0
   13.4580   -1.2350   21.6170 O   0  0  0  0  0  0  0  0  0  0  0  0
   12.6740   -0.0460   23.2850 C   0  0  0  0  0  0  0  0  0  0  0  0
   11.9470   -0.0940   24.4690 C   0  0  0  0  0  0  0  0  0  0  0  0
   11.6300   -1.5050   24.7290 N   0  0  0  0  0  0  0  0  0  0  0  0
   10.4120   -2.0950   24.3990 C   0  0  0  0  0  0  0  0  0  0  0  0
    9.0750   -1.4770   24.8220 C   0  0  0  0  0  0  0  0  0  0  0  0
    8.9860   -0.3470   25.6550 C   0  0  0  0  0  0  0  0  0  0  0  0
    7.7280    0.1480   26.0000 C   0  0  0  0  0  0  0  0  0  0  0  0
    6.5390   -0.4220   25.5580 C   0  0  0  0  0  0  0  0  0  0  0  0
    6.6040   -1.5410   24.7330 C   0  0  0  0  0  0  0  0  0  0  0  0
    7.8630   -2.0410   24.3850 C   0  0  0  0  0  0  0  0  0  0  0  0
   12.6290   -2.4660   24.5760 C   0  0  0  0  0  0  0  0  0  0  0  0
   13.1810   -2.3400   23.3040 C   0  0  0  0  0  0  0  0  0  0  0  0
    7.1580   -0.4080   21.0380 N   0  0  0  0  0  0  0  0  0  0  0  0
    6.4700    0.1590   20.0200 C   0  0  0  0  0  0  0  0  0  0  0  0
    5.3100    0.8760   20.2870 C   0  0  0  0  0  0  0  0  0  0  0  0
    4.6500    1.4620   19.2300 C   0  0  0  0  0  0  0  0  0  0  0  0
    5.1400    1.3310   17.9440 C   0  0  0  0  0  0  0  0  0  0  0  0
    6.2430    0.6400   17.6500 N   0  0  0  0  0  0  0  0  0  0  0  0
    6.8810    0.0710   18.6970 C   0  0  0  0  0  0  0  0  0  0  0  0
  1  2  2  0
  2  3  1  0
  3  4  1  0
  4  5  1  0
  5  6  1  0
  6  7  1  0
  6  8  1  0
  8  9  1  0
  9 10  1  0
 10 11  1  0
 11 12  1  0
 12 13  2  0
 13 14  1  0
 14 15  2  0
 15 16  1  0
 12 17  1  0
 16 17  2  0
 10 18  1  0
  6 19  1  0
 18 19  1  0
  2 20  1  0
 20 21  1  0
 21 22  2  0
 22 23  1  0
 23 24  2  0
 24 25  1  0
 21 26  1  0
 25 26  2  0
M  END
