pyridine_urea_5384
     RDKit          3D

 18 19  0  0  0  0  0  0  0  0999 V2000
    8.8380    0.6880   21.3360 O   0  0  0  0  0  0  0  0  0  0  0  0
    8.3410   -0.4140   21.5360 C   0  0  0  0  0  0  0  0  0  0  0  0
    7.0580   -0.7460   21.1450 N   0  0  0  0  0  0  0  0  0  0  0  0
    6.4230   -0.0250   20.0600 C   0  0  0  0  0  0  0  0  0  0  0  0
    5.1130    0.7750   20.3390 C   0  0  0  0  0  0  0  0  0  0  0  0
    4.5400    1.4560   19.2700 C   0  0  0  0  0  0  0  0  0  0  0  0
    5.2600    1.3520   17.9220 C   0  0  0  0  0  0  0  0  0  0  0  0
    6.3920    0.6410   17.7350 N   0  0  0  0  0  0  0  0  0  0  0  0
    6.9370   -0.0190   18.7810 C   0  0  0  0  0  0  0  0  0  0  0  0
    8.9160   -1.5000   22.1520 N   0  0  0  0  0  0  0  0  0  0  0  0
    9.8840   -1.3560   23.2380 C   0  0  2  0  0  0  0  0  0  0  0  0
    9.3850   -0.3710   24.2910 C   0  0  0  0  0  0  0  0  0  0  0  0
    8.2300   -0.9070   24.9540 O   0  0  0  0  0  0  0  0  0  0  0  0
   11.1910   -1.2230   22.5460 C   0  0  0  0  0  0  0  0  0  0  0  0
   11.8900   -0.1950   23.4060 C   0  0  0  0  0  0  0  0  0  0  0  0
   11.1300    1.0870   23.5100 C   0  0  0  0  0  0  0  0  0  0  0  0
   12.4410    1.5550   23.0390 C   0  0  0  0  0  0  0  0  0  0  0  0
   13.1080    0.3010   22.9180 C   0  0  0  0  0  0  0  0  0  0  0  0
  1  2  2  0
  2  3  1  0
  3  4  1  0
  4  5  2  0
  5  6  1  0
  6  7  2  0
  7  8  1  0
  4  9  1  0
  8  9  2  0
  2 10  1  0
 10 11  1  0
 11 12  1  6
 12 13  1  0
 11 14  1  0
 14 15  1  0
 15 16  1  0
 16 17  1  0
 15 18  1  0
 17 18  1  0
M  END
