pyridine_urea_12481
     RDKit          3D

 21 22  0  0  0  0  0  0  0  0999 V2000
    8.9590    1.3010   21.1520 O   0  0  0  0  0  0  0  0  0  0  0  0
    8.4010    0.2710   21.5400 C   0  0  0  0  0  0  0  0  0  0  0  0
    9.0400   -0.6680   22.3320 N   0  0  0  0  0  0  0  0  0  0  0  0
   10.4690   -0.5130   22.5010 C   0  0  0  0  0  0  0  0  0  0  0  0
   10.8290    0.9610   22.8570 C   0  0  0  0  0  0  0  0  0  0  0  0
   12.1250    1.2680   23.0360 C   0  0  0  0  0  0  0  0  0  0  0  0
   13.0070    0.0930   22.8630 C   0  0  0  0  0  0  0  0  0  0  0  0
   12.5820   -1.1490   22.5550 N   0  0  0  0  0  0  0  0  0  0  0  0
   11.3060   -1.6620   22.3250 C   0  0  0  0  0  0  0  0  0  0  0  0
    7.0970   -0.1030   21.2780 N   0  0  0  0  0  0  0  0  0  0  0  0
    6.3700    0.5760   20.2010 C   0  0  0  0  0  0  0  0  0  0  0  0
    5.3960    1.6860   20.5880 C   0  0  0  0  0  0  0  0  0  0  0  0
    4.6620    2.3690   19.4160 C   0  0  0  0  0  0  0  0  0  0  0  0
    5.0040    1.8560   18.0230 C   0  0  0  0  0  0  0  0  0  0  0  0
    5.8990    0.8470   17.8490 N   0  0  0  0  0  0  0  0  0  0  0  0
    6.5480    0.2310   18.8910 C   0  0  0  0  0  0  0  0  0  0  0  0
    7.2890   -0.6490   18.7210 O   0  0  0  0  0  0  0  0  0  0  0  0
    6.7590   -1.8670   19.2000 C   0  0  0  0  0  0  0  0  0  0  0  0
    5.4580   -1.7710   19.6530 C   0  0  0  0  0  0  0  0  0  0  0  0
    5.3920   -1.4640   20.9770 F   0  0  0  0  0  0  0  0  0  0  0  0
    4.9330   -3.0250   19.6050 F   0  0  0  0  0  0  0  0  0  0  0  0
  1  2  2  0
  2  3  1  0
  3  4  1  0
  4  5  2  0
  5  6  1  0
  6  7  2  0
  7  8  1  0
  4  9  1  0
  8  9  2  0
  2 10  1  0
 10 11  1  0
 11 12  2  0
 12 13  1  0
 13 14  2  0
 14 15  1  0
 11 16  1  0
 15 16  2  0
 16 17  1  0
 17 18  1  0
 18 19  1  0
 19 20  1  0
 19 21  1  0
M  END
