pyridine_urea_9803
     RDKit          3D

 25 26  0  0  0  0  0  0  0  0999 V2000
    9.7170    0.9760   24.9100 C   0  0  0  0  0  0  0  0  0  0  0  0
   10.7820    0.9180   23.7920 C   0  0  0  0  0  0  0  0  0  0  0  0
   10.8160    2.2900   23.1330 C   0  0  0  0  0  0  0  0  0  0  0  0
   10.3070   -0.1510   22.7970 C   0  0  0  0  0  0  0  0  0  0  0  0
    8.8570   -0.2380   22.5920 N   0  0  0  0  0  0  0  0  0  0  0  0
    8.3390    0.3730   21.4910 C   0  0  0  0  0  0  0  0  0  0  0  0
    8.7950    1.4340   21.0670 O   0  0  0  0  0  0  0  0  0  0  0  0
    7.2620   -0.3530   20.9540 N   0  0  0  0  0  0  0  0  0  0  0  0
    6.4700    0.2180   20.0010 C   0  0  0  0  0  0  0  0  0  0  0  0
    5.1630    0.9510   20.2750 C   0  0  0  0  0  0  0  0  0  0  0  0
    4.5480    1.4790   19.1420 C   0  0  0  0  0  0  0  0  0  0  0  0
    5.1280    1.3150   17.8890 C   0  0  0  0  0  0  0  0  0  0  0  0
    6.2680    0.6580   17.6590 N   0  0  0  0  0  0  0  0  0  0  0  0
    6.9040    0.1290   18.7070 C   0  0  0  0  0  0  0  0  0  0  0  0
   12.1820    0.8950   23.8980 C   0  0  0  0  0  0  0  0  0  0  0  0
   13.0120    0.2870   22.9650 C   0  0  0  0  0  0  0  0  0  0  0  0
   12.0560   -0.6360   23.0440 C   0  0  0  0  0  0  0  0  0  0  0  0
   10.9480   -0.8090   23.7130 C   0  0  0  0  0  0  0  0  0  0  0  0
   10.6900   -2.0050   23.0880 C   0  0  0  0  0  0  0  0  0  0  0  0
    9.6120   -2.8760   23.2480 C   0  0  0  0  0  0  0  0  0  0  0  0
    9.0000   -3.3070   22.1460 F   0  0  0  0  0  0  0  0  0  0  0  0
    9.8020   -3.9700   23.9930 F   0  0  0  0  0  0  0  0  0  0  0  0
    8.6300   -2.2490   23.9350 F   0  0  0  0  0  0  0  0  0  0  0  0
   11.9720   -2.0970   22.1350 C   0  0  0  0  0  0  0  0  0  0  0  0
   13.0860   -1.0690   22.0460 C   0  0  0  0  0  0  0  0  0  0  0  0
  2  1  1  0
  2  3  1  0
  2  4  1  0
  4  5  1  0
  5  6  1  0
  6  7  2  0
  6  8  1  0
  8  9  1  0
  9 10  2  0
 10 11  1  0
 11 12  2  0
 12 13  1  0
  9 14  1  0
 13 14  2  0
  2 15  1  0
 15 16  1  0
 16 17  2  0
 17 18  1  0
 18 19  2  0
 19 20  1  0
 20 21  1  0
 20 22  1  0
 20 23  1  0
 19 24  1  0
 16 25  1  0
 24 25  2  0
M  END
