pyridine_urea_14293
     RDKit          3D

 22 23  0  0  0  0  0  0  0  0999 V2000
    9.2020   -2.5070   21.6930 C   0  0  0  0  0  0  0  0  0  0  0  0
    9.9750   -2.6990   22.8460 O   0  0  0  0  0  0  0  0  0  0  0  0
   11.0090   -1.8420   22.8570 C   0  0  0  0  0  0  0  0  0  0  0  0
   12.1360   -2.1820   23.2110 O   0  0  0  0  0  0  0  0  0  0  0  0
   10.6430   -0.5860   22.4300 C   0  0  1  0  0  0  0  0  0  0  0  0
    9.1660   -0.4970   22.6040 N   0  0  0  0  0  0  0  0  0  0  0  0
    8.3990    0.0910   21.6400 C   0  0  0  0  0  0  0  0  0  0  0  0
    8.8800    1.3790   21.2010 O   0  0  0  0  0  0  0  0  0  0  0  0
    7.2030   -0.5950   21.1560 N   0  0  0  0  0  0  0  0  0  0  0  0
    6.5620    0.0100   20.1010 C   0  0  0  0  0  0  0  0  0  0  0  0
    5.2990    0.7980   20.3870 C   0  0  0  0  0  0  0  0  0  0  0  0
    4.5460    1.5110   19.2600 C   0  0  0  0  0  0  0  0  0  0  0  0
    5.2080    1.3280   17.9130 C   0  0  0  0  0  0  0  0  0  0  0  0
    6.3390    0.5960   17.7450 N   0  0  0  0  0  0  0  0  0  0  0  0
    7.0010   -0.0490   18.7910 C   0  0  0  0  0  0  0  0  0  0  0  0
   11.5330    0.3170   23.0600 C   0  0  0  0  0  0  0  0  0  0  0  0
   10.9970    1.3030   23.8680 C   0  0  0  0  0  0  0  0  0  0  0  0
   12.2160    1.0340   23.5380 C   0  0  0  0  0  0  0  0  0  0  0  0
   12.0870   -0.1070   22.6890 C   0  0  0  0  0  0  0  0  0  0  0  0
   13.2070   -0.5770   22.2230 C   0  0  0  0  0  0  0  0  0  0  0  0
   12.5660   -1.5760   21.5340 O   0  0  0  0  0  0  0  0  0  0  0  0
   13.0790    0.4990   23.0500 C   0  0  0  0  0  0  0  0  0  0  0  0
  1  2  1  0
  2  3  1  0
  3  4  2  0
  3  5  1  0
  5  6  1  1
  6  7  1  0
  7  8  2  0
  7  9  1  0
  9 10  1  0
 10 11  2  0
 11 12  1  0
 12 13  2  0
 13 14  1  0
 10 15  1  0
 14 15  2  0
  5 16  1  0
 16 17  2  0
 17 18  1  0
 18 19  2  0
 19 20  1  0
 20 21  1  0
 16 22  1  0
 20 22  2  0
M  END
