pyridine_urea_8093
     RDKit          3D

 24 26  0  0  0  0  0  0  0  0999 V2000
   11.6730   -2.4060   23.0360 C   0  0  0  0  0  0  0  0  0  0  0  0
   10.4520   -1.5830   23.4250 C   0  0  0  0  0  0  0  0  0  0  0  0
   10.1480   -1.4250   24.9710 C   0  0  0  0  0  0  0  0  0  0  0  0
    9.0120   -0.6670   25.5470 C   0  0  0  0  0  0  0  0  0  0  0  0
    8.2740   -0.2260   26.7680 N   0  0  0  0  0  0  0  0  0  0  0  0
    7.0950    0.4840   26.6310 C   0  0  0  0  0  0  0  0  0  0  0  0
    6.3780    0.8910   27.7600 C   0  0  0  0  0  0  0  0  0  0  0  0
    6.3860   -0.0950   28.9230 C   0  0  0  0  0  0  0  0  0  0  0  0
    7.5490   -1.0720   28.9120 C   0  0  0  0  0  0  0  0  0  0  0  0
    8.6170   -0.2790   28.1370 C   0  0  2  0  0  0  0  0  0  0  0  0
    8.5700    1.1430   28.7110 C   0  0  0  0  0  0  0  0  0  0  0  0
    8.2290   -0.0570   24.4700 C   0  0  0  0  0  0  0  0  0  0  0  0
    8.5380   -0.2170   23.0680 C   0  0  0  0  0  0  0  0  0  0  0  0
    9.5650   -0.9320   22.5890 C   0  0  0  0  0  0  0  0  0  0  0  0
    9.4840   -0.8270   21.3020 N   0  0  0  0  0  0  0  0  0  0  0  0
    8.4030    0.0030   20.9690 C   0  0  0  0  0  0  0  0  0  0  0  0
    8.4970    1.2340   20.8620 O   0  0  0  0  0  0  0  0  0  0  0  0
    7.2560   -0.6790   20.7920 N   0  0  0  0  0  0  0  0  0  0  0  0
    6.4520    0.0020   19.9670 C   0  0  0  0  0  0  0  0  0  0  0  0
    5.2720    0.6500   20.3000 C   0  0  0  0  0  0  0  0  0  0  0  0
    4.6180    1.3160   19.2600 C   0  0  0  0  0  0  0  0  0  0  0  0
    5.1220    1.3270   17.9710 C   0  0  0  0  0  0  0  0  0  0  0  0
    6.2530    0.6940   17.6540 N   0  0  0  0  0  0  0  0  0  0  0  0
    6.8750    0.0570   18.6590 C   0  0  0  0  0  0  0  0  0  0  0  0
  1  2  1  0
  2  3  2  0
  3  4  1  0
  4  5  1  0
  5  6  1  0
  6  7  1  0
  7  8  1  0
  8  9  1  0
  5 10  1  0
  9 10  1  0
 10 11  1  1
  4 12  2  0
 12 13  1  0
  2 14  1  0
 13 14  2  0
 14 15  1  0
 15 16  1  0
 16 17  2  0
 16 18  1  0
 18 19  1  0
 19 20  2  0
 20 21  1  0
 21 22  2  0
 22 23  1  0
 19 24  1  0
 23 24  2  0
M  END
