pyridine_urea_3210
     RDKit          3D

 20 21  0  0  0  0  0  0  0  0999 V2000
    8.8650    1.2450   21.1720 O   0  0  0  0  0  0  0  0  0  0  0  0
    8.2800    0.2450   21.6110 C   0  0  0  0  0  0  0  0  0  0  0  0
    8.5940   -0.4050   22.7680 N   0  0  0  0  0  0  0  0  0  0  0  0
    9.8870   -0.5440   23.2640 C   0  0  0  0  0  0  0  0  0  0  0  0
   10.3860    0.4810   24.0570 C   0  0  0  0  0  0  0  0  0  0  0  0
   11.7450    0.3450   24.2690 C   0  0  1  0  0  0  0  0  0  0  0  0
   11.8990   -0.4730   25.1660 O   0  0  0  0  0  0  0  0  0  0  0  0
   12.3540   -0.2400   23.2140 C   0  0  0  0  0  0  0  0  0  0  0  0
   13.5080   -0.0230   22.4200 C   0  0  0  0  0  0  0  0  0  0  0  0
   13.4860   -1.0910   21.4320 C   0  0  0  0  0  0  0  0  0  0  0  0
   12.3300   -2.2070   21.3870 C   0  0  0  0  0  0  0  0  0  0  0  0
   11.2550   -2.2100   22.3320 C   0  0  0  0  0  0  0  0  0  0  0  0
   12.1190   -1.2790   22.4530 C   0  0  0  0  0  0  0  0  0  0  0  0
    7.2080   -0.3810   21.0330 N   0  0  0  0  0  0  0  0  0  0  0  0
    6.5010    0.1860   19.9800 C   0  0  0  0  0  0  0  0  0  0  0  0
    5.3350    0.9050   20.2640 C   0  0  0  0  0  0  0  0  0  0  0  0
    4.6330    1.4970   19.2140 C   0  0  0  0  0  0  0  0  0  0  0  0
    5.1380    1.3330   17.9410 C   0  0  0  0  0  0  0  0  0  0  0  0
    6.2460    0.6370   17.6500 N   0  0  0  0  0  0  0  0  0  0  0  0
    6.9130    0.0720   18.6710 C   0  0  0  0  0  0  0  0  0  0  0  0
  1  2  2  0
  2  3  1  0
  3  4  1  0
  4  5  1  0
  5  6  1  0
  6  7  1  1
  6  8  1  0
  8  9  2  0
  9 10  1  0
 10 11  2  0
 11 12  1  0
  8 13  1  0
 12 13  2  0
  2 14  1  0
 14 15  1  0
 15 16  2  0
 16 17  1  0
 17 18  2  0
 18 19  1  0
 15 20  1  0
 19 20  2  0
M  END
