pyridine_urea_7113
     RDKit          3D

 20 21  0  0  0  0  0  0  0  0999 V2000
   12.9670   -2.4140   21.0640 C   0  0  0  0  0  0  0  0  0  0  0  0
   13.7360   -1.8140   21.7620 O   0  0  0  0  0  0  0  0  0  0  0  0
   13.3270   -1.6430   23.0210 C   0  0  0  0  0  0  0  0  0  0  0  0
   13.6850   -2.2530   24.0180 O   0  0  0  0  0  0  0  0  0  0  0  0
   12.4190   -0.6710   22.9910 C   0  0  0  0  0  0  0  0  0  0  0  0
   12.8040    0.6480   23.1230 C   0  0  0  0  0  0  0  0  0  0  0  0
   11.8660    1.6390   23.0790 C   0  0  0  0  0  0  0  0  0  0  0  0
   10.5250    1.3020   22.8960 C   0  0  0  0  0  0  0  0  0  0  0  0
   10.1380   -0.1680   22.7450 C   0  0  0  0  0  0  0  0  0  0  0  0
    8.8030   -0.4580   22.5440 N   0  0  0  0  0  0  0  0  0  0  0  0
    8.1510    0.1320   21.4980 C   0  0  0  0  0  0  0  0  0  0  0  0
    8.5000    1.2050   20.9850 O   0  0  0  0  0  0  0  0  0  0  0  0
    7.0040   -0.6720   21.1000 N   0  0  0  0  0  0  0  0  0  0  0  0
    6.3570    0.0360   19.9950 C   0  0  0  0  0  0  0  0  0  0  0  0
    5.1820    0.7300   20.2540 C   0  0  0  0  0  0  0  0  0  0  0  0
    4.5810    1.4110   19.2040 C   0  0  0  0  0  0  0  0  0  0  0  0
    5.2160    1.3670   17.8680 C   0  0  0  0  0  0  0  0  0  0  0  0
    6.3560    0.6690   17.6810 N   0  0  0  0  0  0  0  0  0  0  0  0
    6.8950    0.0250   18.7290 C   0  0  0  0  0  0  0  0  0  0  0  0
   11.1260   -1.0960   22.8030 C   0  0  0  0  0  0  0  0  0  0  0  0
  1  2  1  0
  2  3  1  0
  3  4  2  0
  3  5  1  0
  5  6  2  0
  6  7  1  0
  7  8  2  0
  8  9  1  0
  9 10  1  0
 10 11  1  0
 11 12  2  0
 11 13  1  0
 13 14  1  0
 14 15  2  0
 15 16  1  0
 16 17  2  0
 17 18  1  0
 14 19  1  0
 18 19  2  0
  5 20  1  0
  9 20  2  0
M  END
