pyridine_urea_10691
     RDKit          3D

 21 22  0  0  0  0  0  0  0  0999 V2000
    8.8860    1.1130   21.2270 O   0  0  0  0  0  0  0  0  0  0  0  0
    8.3160    0.0720   21.5940 C   0  0  0  0  0  0  0  0  0  0  0  0
    8.6490   -0.6930   22.6900 N   0  0  0  0  0  0  0  0  0  0  0  0
    9.9210   -0.8290   23.2490 C   0  0  0  0  0  0  0  0  0  0  0  0
   11.1420   -0.8050   22.3470 C   0  0  0  0  0  0  0  0  0  0  0  0
   11.4670    0.3720   22.1800 O   0  0  0  0  0  0  0  0  0  0  0  0
   12.8020    0.4570   22.2350 C   0  0  0  0  0  0  0  0  0  0  0  0
   13.0440   -0.4870   23.1420 C   0  0  0  0  0  0  0  0  0  0  0  0
   13.0820   -0.3440   24.3340 C   0  0  0  0  0  0  0  0  0  0  0  0
   13.3250   -1.3740   25.1140 C   0  0  0  0  0  0  0  0  0  0  0  0
   13.5440   -2.5670   24.5750 C   0  0  0  0  0  0  0  0  0  0  0  0
   13.8470   -3.6400   25.7760 Cl  0  0  0  0  0  0  0  0  0  0  0  0
   13.5120   -2.7630   23.1950 C   0  0  0  0  0  0  0  0  0  0  0  0
   13.2540   -1.7420   22.3810 C   0  0  0  0  0  0  0  0  0  0  0  0
    7.2300   -0.5130   20.9850 N   0  0  0  0  0  0  0  0  0  0  0  0
    6.4280    0.1400   20.0500 C   0  0  0  0  0  0  0  0  0  0  0  0
    5.2160    0.8210   20.3910 C   0  0  0  0  0  0  0  0  0  0  0  0
    4.5950    1.4480   19.1420 C   0  0  0  0  0  0  0  0  0  0  0  0
    5.1730    1.3320   17.9070 C   0  0  0  0  0  0  0  0  0  0  0  0
    6.3010    0.6660   17.6870 N   0  0  0  0  0  0  0  0  0  0  0  0
    6.8840    0.0990   18.7440 C   0  0  0  0  0  0  0  0  0  0  0  0
  1  2  2  0
  2  3  1  0
  3  4  1  0
  4  5  1  0
  5  6  1  0
  6  7  1  0
  7  8  1  0
  8  9  2  0
  9 10  1  0
 10 11  2  0
 11 12  1  0
 11 13  1  0
  8 14  1  0
 13 14  2  0
  2 15  1  0
 15 16  1  0
 16 17  2  0
 17 18  1  0
 18 19  2  0
 19 20  1  0
 16 21  1  0
 20 21  2  0
M  END
