pyridine_urea_2997
     RDKit          3D

 21 23  0  0  0  0  0  0  0  0999 V2000
    8.8980    1.1820   21.2770 O   0  0  0  0  0  0  0  0  0  0  0  0
    8.0590    0.3260   21.5960 C   0  0  0  0  0  0  0  0  0  0  0  0
    7.7140   -0.0270   22.8660 N   0  0  0  0  0  0  0  0  0  0  0  0
    8.2440    0.6450   24.0150 C   0  0  0  0  0  0  0  0  0  0  0  0
    9.2070   -0.3420   24.6370 C   0  0  2  0  0  0  0  0  0  0  0  0
   10.2180    0.1180   25.4220 C   0  0  0  0  0  0  0  0  0  0  0  0
   11.5870    0.1930   24.6800 C   0  0  0  0  0  0  0  0  0  0  0  0
   11.4150   -0.6240   23.6910 C   0  0  0  0  0  0  0  0  0  0  0  0
   12.4130   -1.0770   22.8440 C   0  0  0  0  0  0  0  0  0  0  0  0
   11.9890   -1.9840   21.8090 C   0  0  0  0  0  0  0  0  0  0  0  0
   13.3300   -2.4470   20.8550 Br  0  0  0  0  0  0  0  0  0  0  0  0
   10.5420   -2.4140   21.6570 C   0  0  0  0  0  0  0  0  0  0  0  0
    9.5240   -1.9200   22.5760 C   0  0  0  0  0  0  0  0  0  0  0  0
   10.0210   -1.0020   23.6020 C   0  0  0  0  0  0  0  0  0  0  0  0
    7.2740   -0.4180   20.7820 N   0  0  0  0  0  0  0  0  0  0  0  0
    6.4680    0.1960   19.8920 C   0  0  0  0  0  0  0  0  0  0  0  0
    5.2830    0.8600   20.1940 C   0  0  0  0  0  0  0  0  0  0  0  0
    4.5890    1.4680   19.1560 C   0  0  0  0  0  0  0  0  0  0  0  0
    5.1120    1.3760   17.8820 C   0  0  0  0  0  0  0  0  0  0  0  0
    6.2400    0.7270   17.5840 N   0  0  0  0  0  0  0  0  0  0  0  0
    6.8860    0.1560   18.5960 C   0  0  0  0  0  0  0  0  0  0  0  0
  1  2  2  0
  2  3  1  0
  3  4  1  0
  5  4  1  6
  5  6  1  0
  6  7  1  0
  7  8  1  0
  8  9  1  0
  9 10  2  0
 10 11  1  0
 10 12  1  0
 12 13  2  0
  5 14  1  0
  8 14  2  0
 13 14  1  0
  2 15  1  0
 15 16  1  0
 16 17  2  0
 17 18  1  0
 18 19  2  0
 19 20  1  0
 16 21  1  0
 20 21  2  0
M  END
