pyridine_urea_281
     RDKit          3D

 27 28  0  0  0  0  0  0  0  0999 V2000
   11.3860   -3.2200   24.2480 C   0  0  0  0  0  0  0  0  0  0  0  0
   12.4010   -2.8070   24.7040 C   0  0  0  0  0  0  0  0  0  0  0  0
   13.6510   -2.6250   25.5550 C   0  0  0  0  0  0  0  0  0  0  0  0
   13.1820   -2.6710   23.3990 C   0  0  0  0  0  0  0  0  0  0  0  0
   11.6550   -1.5790   24.9120 O   0  0  0  0  0  0  0  0  0  0  0  0
   12.2580   -0.3910   24.9610 C   0  0  0  0  0  0  0  0  0  0  0  0
   13.1280   -0.2520   25.7570 O   0  0  0  0  0  0  0  0  0  0  0  0
   11.7630    0.7410   23.9620 C   0  0  0  0  0  0  0  0  0  0  0  0
   10.5050    0.5920   23.1750 C   0  0  0  0  0  0  0  0  0  0  0  0
    9.4970   -0.0230   23.7780 C   0  0  2  0  0  0  0  0  0  0  0  0
   10.2570   -1.2660   23.6620 C   0  0  0  0  0  0  0  0  0  0  0  0
   11.3330   -1.2490   22.8340 C   0  0  0  0  0  0  0  0  0  0  0  0
   11.3760   -2.1180   21.8210 C   0  0  0  0  0  0  0  0  0  0  0  0
   12.4050   -2.1870   20.9310 C   0  0  0  0  0  0  0  0  0  0  0  0
   13.6890   -1.3850   20.8120 C   0  0  0  0  0  0  0  0  0  0  0  0
   13.4650   -0.4780   22.0200 C   0  0  0  0  0  0  0  0  0  0  0  0
   12.3700   -0.4110   22.9660 C   0  0  0  0  0  0  0  0  0  0  0  0
    8.3080   -0.1490   22.9770 N   0  0  0  0  0  0  0  0  0  0  0  0
    8.2230    0.3180   21.6740 C   0  0  0  0  0  0  0  0  0  0  0  0
    8.9190    1.2510   21.2210 O   0  0  0  0  0  0  0  0  0  0  0  0
    7.2560   -0.3820   21.0100 N   0  0  0  0  0  0  0  0  0  0  0  0
    6.5290    0.1820   19.9740 C   0  0  0  0  0  0  0  0  0  0  0  0
    5.3670    0.9000   20.2780 C   0  0  0  0  0  0  0  0  0  0  0  0
    4.6550    1.4830   19.2390 C   0  0  0  0  0  0  0  0  0  0  0  0
    5.1420    1.3150   17.9610 C   0  0  0  0  0  0  0  0  0  0  0  0
    6.2370    0.6270   17.6360 N   0  0  0  0  0  0  0  0  0  0  0  0
    6.9080    0.0740   18.6570 C   0  0  0  0  0  0  0  0  0  0  0  0
  1  2  1  0
  2  3  1  0
  2  4  1  0
  2  5  1  0
  5  6  1  0
  6  7  2  0
  6  8  1  0
  8  9  1  0
 10  9  1  6
 10 11  1  0
 11 12  1  0
 12 13  2  0
 13 14  1  0
 14 15  2  0
 15 16  1  0
 12 17  1  0
 16 17  2  0
 10 18  1  0
 18 19  1  0
 19 20  2  0
 19 21  1  0
 21 22  1  0
 22 23  2  0
 23 24  1  0
 24 25  2  0
 25 26  1  0
 22 27  1  0
 26 27  2  0
M  END
