pyridine_urea_13588
     RDKit          3D

 28 30  0  0  0  0  0  0  0  0999 V2000
   10.7900   -2.8980   24.1670 C   0  0  0  0  0  0  0  0  0  0  0  0
   11.4600   -1.8610   25.1130 C   0  0  1  0  0  0  0  0  0  0  0  0
   12.9070   -2.1260   25.3660 C   0  0  0  0  0  0  0  0  0  0  0  0
   13.9940   -1.9510   26.3040 C   0  0  0  0  0  0  0  0  0  0  0  0
   15.4070   -2.0150   26.7270 C   0  0  0  0  0  0  0  0  0  0  0  0
   16.5370   -2.2960   26.0760 C   0  0  0  0  0  0  0  0  0  0  0  0
   19.1120   -2.2110   26.2370 S   0  0  0  0  0  0  0  0  0  0  0  0
   20.6260   -3.1040   26.3340 C   0  0  0  0  0  0  0  0  0  0  0  0
   19.6250   -1.2650   27.2270 O   0  0  0  0  0  0  0  0  0  0  0  0
   19.4800   -1.7610   24.8720 O   0  0  0  0  0  0  0  0  0  0  0  0
   14.7960   -2.5640   25.0090 C   0  0  0  0  0  0  0  0  0  0  0  0
   13.5390   -2.6350   24.5520 C   0  0  0  0  0  0  0  0  0  0  0  0
   11.7880   -0.7110   24.3690 N   0  0  0  0  0  0  0  0  0  0  0  0
   11.1260    0.4630   24.4420 C   0  0  0  0  0  0  0  0  0  0  0  0
   10.1370    0.7560   23.5690 C   0  0  0  0  0  0  0  0  0  0  0  0
   10.2130   -0.0450   22.4310 C   0  0  0  0  0  0  0  0  0  0  0  0
    9.1540   -0.7770   22.0300 N   0  0  0  0  0  0  0  0  0  0  0  0
    8.2610   -0.0420   21.3120 C   0  0  0  0  0  0  0  0  0  0  0  0
    8.5790    1.3030   20.9270 O   0  0  0  0  0  0  0  0  0  0  0  0
    7.0910   -0.6560   20.9850 N   0  0  0  0  0  0  0  0  0  0  0  0
    6.4030   -0.0210   19.9610 C   0  0  0  0  0  0  0  0  0  0  0  0
    5.1650    0.5870   20.1820 C   0  0  0  0  0  0  0  0  0  0  0  0
    4.5140    1.2420   19.1630 C   0  0  0  0  0  0  0  0  0  0  0  0
    5.1230    1.2720   17.9400 C   0  0  0  0  0  0  0  0  0  0  0  0
    6.3030    0.7020   17.6560 N   0  0  0  0  0  0  0  0  0  0  0  0
    6.9150    0.0660   18.6800 C   0  0  0  0  0  0  0  0  0  0  0  0
   11.5160   -0.5020   22.1480 C   0  0  0  0  0  0  0  0  0  0  0  0
   12.3110   -1.0270   23.0780 C   0  0  0  0  0  0  0  0  0  0  0  0
  2  1  1  6
  2  3  1  0
  3  4  2  0
  4  5  1  0
  5  6  2  0
  6  7  1  0
  7  8  1  0
  7  9  2  0
  7 10  2  0
  6 11  1  0
  3 12  1  0
 11 12  2  0
  2 13  1  0
 13 14  1  0
 14 15  1  0
 15 16  1  0
 16 17  1  0
 17 18  1  0
 18 19  2  0
 18 20  1  0
 20 21  1  0
 21 22  2  0
 22 23  1  0
 23 24  2  0
 24 25  1  0
 21 26  1  0
 25 26  2  0
 16 27  1  0
 13 28  1  0
 27 28  1  0
M  END
