pyridine_urea_10760
     RDKit          3D

 20 21  0  0  0  0  0  0  0  0999 V2000
    8.8550    0.6270   21.3590 O   0  0  0  0  0  0  0  0  0  0  0  0
    8.3210   -0.4710   21.3800 C   0  0  0  0  0  0  0  0  0  0  0  0
    9.0300   -1.6670   21.7770 N   0  0  0  0  0  0  0  0  0  0  0  0
   10.2640   -1.4790   22.3580 C   0  0  0  0  0  0  0  0  0  0  0  0
   10.2160   -0.6830   23.4690 C   0  0  0  0  0  0  0  0  0  0  0  0
   10.7360    0.5670   23.2170 C   0  0  0  0  0  0  0  0  0  0  0  0
   10.3710    1.9160   23.0230 C   0  0  0  0  0  0  0  0  0  0  0  0
    8.5530    2.6060   23.0440 Br  0  0  0  0  0  0  0  0  0  0  0  0
   11.6590    2.9360   22.7730 C   0  0  0  0  0  0  0  0  0  0  0  0
   13.0650    2.3980   22.7590 N   0  0  0  0  0  0  0  0  0  0  0  0
   13.1320    1.0260   22.9480 C   0  0  0  0  0  0  0  0  0  0  0  0
   11.8070    1.0930   23.0470 C   0  0  0  0  0  0  0  0  0  0  0  0
   11.4580    2.9530   22.8050 Br  0  0  0  0  0  0  0  0  0  0  0  0
    7.0240   -0.7330   21.0280 N   0  0  0  0  0  0  0  0  0  0  0  0
    6.3920   -0.0380   19.9950 C   0  0  0  0  0  0  0  0  0  0  0  0
    5.2010    0.6510   20.2390 C   0  0  0  0  0  0  0  0  0  0  0  0
    4.5830    1.3540   19.1990 C   0  0  0  0  0  0  0  0  0  0  0  0
    5.1850    1.3390   17.9580 C   0  0  0  0  0  0  0  0  0  0  0  0
    6.3250    0.6790   17.7060 N   0  0  0  0  0  0  0  0  0  0  0  0
    6.8950    0.0100   18.7210 C   0  0  0  0  0  0  0  0  0  0  0  0
  1  2  2  0
  2  3  1  0
  3  4  1  0
  4  5  1  0
  5  6  1  0
  6  7  2  0
  7  8  1  0
  7  9  1  0
  9 10  2  0
 10 11  1  0
  6 12  1  0
 11 12  2  0
 12 13  1  0
  2 14  1  0
 14 15  1  0
 15 16  2  0
 16 17  1  0
 17 18  2  0
 18 19  1  0
 15 20  1  0
 19 20  2  0
M  END
