pyridine_urea_3883
     RDKit          3D

 21 22  0  0  0  0  0  0  0  0999 V2000
    8.7210    0.5300   21.2650 O   0  0  0  0  0  0  0  0  0  0  0  0
    8.1200   -0.5100   21.5170 C   0  0  0  0  0  0  0  0  0  0  0  0
    8.5150   -1.4930   22.4010 N   0  0  0  0  0  0  0  0  0  0  0  0
    9.8370   -1.8090   22.7340 C   0  0  0  0  0  0  0  0  0  0  0  0
   10.7090   -0.7800   22.5060 C   0  0  1  0  0  0  0  0  0  0  0  0
   10.1550    0.4070   22.9790 C   0  0  0  0  0  0  0  0  0  0  0  0
   10.7700    0.8210   24.1110 C   0  0  0  0  0  0  0  0  0  0  0  0
   12.0980    1.1420   23.9160 C   0  0  0  0  0  0  0  0  0  0  0  0
   12.7610    0.4070   22.9800 C   0  0  0  0  0  0  0  0  0  0  0  0
   12.1320   -0.9640   22.8550 C   0  0  2  0  0  0  0  0  0  0  0  0
   12.7600   -1.8390   22.0140 C   0  0  0  0  0  0  0  0  0  0  0  0
   13.6470   -1.3570   21.1460 F   0  0  0  0  0  0  0  0  0  0  0  0
   13.4180   -2.7370   22.7790 F   0  0  0  0  0  0  0  0  0  0  0  0
   11.8650   -2.4920   21.2780 F   0  0  0  0  0  0  0  0  0  0  0  0
    6.9300   -0.8540   20.9530 N   0  0  0  0  0  0  0  0  0  0  0  0
    6.2740   -0.0800   19.9920 C   0  0  0  0  0  0  0  0  0  0  0  0
    5.0980    0.6270   20.1660 C   0  0  0  0  0  0  0  0  0  0  0  0
    4.5790    1.3560   19.1140 C   0  0  0  0  0  0  0  0  0  0  0  0
    5.2050    1.3970   17.8910 C   0  0  0  0  0  0  0  0  0  0  0  0
    6.3490    0.7110   17.6970 N   0  0  0  0  0  0  0  0  0  0  0  0
    6.8420    0.0030   18.7370 C   0  0  0  0  0  0  0  0  0  0  0  0
  1  2  2  0
  2  3  1  0
  3  4  1  0
  5  4  1  1
  5  6  1  0
  6  7  1  0
  7  8  1  0
  8  9  1  0
  5 10  1  0
  9 10  1  0
 10 11  1  6
 11 12  1  0
 11 13  1  0
 11 14  1  0
  2 15  1  0
 15 16  1  0
 16 17  2  0
 17 18  1  0
 18 19  2  0
 19 20  1  0
 16 21  1  0
 20 21  2  0
M  END
