pyridine_urea_11785
     RDKit          3D

 25 26  0  0  0  0  0  0  0  0999 V2000
    8.9110    1.3950   21.1610 O   0  0  0  0  0  0  0  0  0  0  0  0
    8.2080    0.5270   21.6950 C   0  0  0  0  0  0  0  0  0  0  0  0
    8.2110    0.2230   23.0350 N   0  0  0  0  0  0  0  0  0  0  0  0
    8.8900    0.9590   24.0450 C   0  0  0  0  0  0  0  0  0  0  0  0
   10.2250    1.0040   23.8020 C   0  0  0  0  0  0  0  0  0  0  0  0
   11.5400    0.6120   23.4330 C   0  0  0  0  0  0  0  0  0  0  0  0
   12.1270   -0.5460   22.9810 C   0  0  0  0  0  0  0  0  0  0  0  0
   13.3790   -0.7200   22.6750 C   0  0  0  0  0  0  0  0  0  0  0  0
   13.5180   -1.3000   21.4620 F   0  0  0  0  0  0  0  0  0  0  0  0
   13.9380    0.4880   22.6830 F   0  0  0  0  0  0  0  0  0  0  0  0
   13.8320   -1.5450   23.6260 F   0  0  0  0  0  0  0  0  0  0  0  0
   11.3900   -1.7840   22.7830 C   0  0  0  0  0  0  0  0  0  0  0  0
    9.9940   -1.6400   23.1250 C   0  0  0  0  0  0  0  0  0  0  0  0
    8.9300   -2.5330   23.1190 C   0  0  0  0  0  0  0  0  0  0  0  0
    8.4370   -2.7820   21.8860 F   0  0  0  0  0  0  0  0  0  0  0  0
    7.8660   -2.1010   23.8560 F   0  0  0  0  0  0  0  0  0  0  0  0
    9.2290   -3.7220   23.6640 F   0  0  0  0  0  0  0  0  0  0  0  0
    9.5690   -0.2670   23.5900 C   0  0  0  0  0  0  0  0  0  0  0  0
    7.2910   -0.2530   21.0350 N   0  0  0  0  0  0  0  0  0  0  0  0
    6.4800    0.2870   20.0420 C   0  0  0  0  0  0  0  0  0  0  0  0
    5.3000    0.9840   20.3010 C   0  0  0  0  0  0  0  0  0  0  0  0
    4.5470    1.5240   19.2660 C   0  0  0  0  0  0  0  0  0  0  0  0
    5.1630    1.2570   17.9320 C   0  0  0  0  0  0  0  0  0  0  0  0
    6.2750    0.5890   17.6750 N   0  0  0  0  0  0  0  0  0  0  0  0
    6.9100    0.1140   18.7450 C   0  0  0  0  0  0  0  0  0  0  0  0
  1  2  2  0
  2  3  1  0
  3  4  1  0
  4  5  1  0
  5  6  2  0
  6  7  1  0
  7  8  1  0
  8  9  1  0
  8 10  1  0
  8 11  1  0
  7 12  2  0
 12 13  1  0
 13 14  1  0
 14 15  1  0
 14 16  1  0
 14 17  1  0
  5 18  1  0
 13 18  2  0
  2 19  1  0
 19 20  1  0
 20 21  2  0
 21 22  1  0
 22 23  2  0
 23 24  1  0
 20 25  1  0
 24 25  2  0
M  END
