pyridine_urea_14390
     RDKit          3D

 21 23  0  0  0  0  0  0  0  0999 V2000
    8.9400    1.0540   21.2290 O   0  0  0  0  0  0  0  0  0  0  0  0
    8.4070   -0.0350   21.4860 C   0  0  0  0  0  0  0  0  0  0  0  0
    9.0300   -1.0670   22.3180 N   0  0  0  0  0  0  0  0  0  0  0  0
    9.8870   -0.7260   23.3620 C   0  0  0  0  0  0  0  0  0  0  0  0
   11.2470   -1.0300   23.1940 C   0  0  0  0  0  0  0  0  0  0  0  0
   12.2330   -0.0660   22.9750 C   0  0  0  0  0  0  0  0  0  0  0  0
   13.3380   -0.3610   22.4430 N   0  0  0  0  0  0  0  0  0  0  0  0
   12.8940    0.8560   22.8990 C   0  0  0  0  0  0  0  0  0  0  0  0
   11.4710   -0.0570   23.3350 C   0  0  0  0  0  0  0  0  0  0  0  0
   11.0900    1.3100   23.7780 C   0  0  0  0  0  0  0  0  0  0  0  0
   12.2670    1.4100   23.2520 C   0  0  0  0  0  0  0  0  0  0  0  0
   13.0940    2.4300   23.0640 F   0  0  0  0  0  0  0  0  0  0  0  0
   11.3770   -2.3880   22.3870 C   0  0  0  0  0  0  0  0  0  0  0  0
   11.5290   -2.4140   23.6530 C   0  0  0  0  0  0  0  0  0  0  0  0
    7.1710   -0.4690   21.0570 N   0  0  0  0  0  0  0  0  0  0  0  0
    6.5070    0.1140   20.0440 C   0  0  0  0  0  0  0  0  0  0  0  0
    5.3560    0.8400   20.3280 C   0  0  0  0  0  0  0  0  0  0  0  0
    4.6810    1.4520   19.2850 C   0  0  0  0  0  0  0  0  0  0  0  0
    5.1740    1.3190   18.0030 C   0  0  0  0  0  0  0  0  0  0  0  0
    6.2730    0.6230   17.6990 N   0  0  0  0  0  0  0  0  0  0  0  0
    6.9140    0.0340   18.7270 C   0  0  0  0  0  0  0  0  0  0  0  0
  1  2  2  0
  2  3  1  0
  3  4  1  0
  5  4  1  0
  5  6  1  0
  6  7  2  0
  7  8  1  0
  8  9  2  0
  9 10  1  0
  6 11  1  0
 10 11  2  0
 11 12  1  0
  5 13  1  0
  5 14  1  0
 13 14  1  0
  2 15  1  0
 15 16  1  0
 16 17  2  0
 17 18  1  0
 18 19  2  0
 19 20  1  0
 16 21  1  0
 20 21  2  0
M  END
