pyridine_urea_4971
     RDKit          3D

 21 23  0  0  0  0  0  0  0  0999 V2000
   13.0650    5.2100   21.9130 C   0  0  0  0  0  0  0  0  0  0  0  0
   12.9970    3.9780   22.6260 O   0  0  0  0  0  0  0  0  0  0  0  0
   11.7710    3.3970   22.7660 C   0  0  0  0  0  0  0  0  0  0  0  0
   10.5850    4.1210   22.9330 C   0  0  0  0  0  0  0  0  0  0  0  0
    9.3540    3.4810   23.0720 C   0  0  0  0  0  0  0  0  0  0  0  0
    9.3080    2.1050   23.0420 C   0  0  0  0  0  0  0  0  0  0  0  0
   10.5590    1.2550   22.8590 C   0  0  0  0  0  0  0  0  0  0  0  0
   10.4820   -0.1500   22.8310 C   0  0  0  0  0  0  0  0  0  0  0  0
    9.1460   -0.5960   22.4690 N   0  0  0  0  0  0  0  0  0  0  0  0
    8.4770    0.1090   21.4950 C   0  0  0  0  0  0  0  0  0  0  0  0
    8.9200    1.4270   21.0710 O   0  0  0  0  0  0  0  0  0  0  0  0
    7.3720   -0.5490   21.0050 N   0  0  0  0  0  0  0  0  0  0  0  0
    6.5340    0.0730   20.0670 C   0  0  0  0  0  0  0  0  0  0  0  0
    5.3570    0.7490   20.3550 C   0  0  0  0  0  0  0  0  0  0  0  0
    4.6440    1.3380   19.3100 C   0  0  0  0  0  0  0  0  0  0  0  0
    5.1390    1.2300   18.0140 C   0  0  0  0  0  0  0  0  0  0  0  0
    6.2650    0.5740   17.7180 N   0  0  0  0  0  0  0  0  0  0  0  0
    6.9300    0.0150   18.7460 C   0  0  0  0  0  0  0  0  0  0  0  0
   11.4540   -0.9890   23.7930 C   0  0  0  0  0  0  0  0  0  0  0  0
   11.5850   -0.9160   22.5390 C   0  0  0  0  0  0  0  0  0  0  0  0
   11.7710    1.9800   22.7300 C   0  0  0  0  0  0  0  0  0  0  0  0
  1  2  1  0
  2  3  1  0
  3  4  2  0
  4  5  1  0
  5  6  2  0
  6  7  1  0
  7  8  1  0
  8  9  1  0
  9 10  1  0
 10 11  2  0
 10 12  1  0
 12 13  1  0
 13 14  2  0
 14 15  1  0
 15 16  2  0
 16 17  1  0
 13 18  1  0
 17 18  2  0
  8 19  1  0
  8 20  1  0
 19 20  1  0
  3 21  1  0
  7 21  2  0
M  END
