pyridine_urea_3122
     RDKit          3D

 21 22  0  0  0  0  0  0  0  0999 V2000
    9.3980    0.7780   21.5770 O   0  0  0  0  0  0  0  0  0  0  0  0
    8.7140   -0.2260   21.6350 C   0  0  0  0  0  0  0  0  0  0  0  0
    8.9860   -1.3820   22.3360 N   0  0  0  0  0  0  0  0  0  0  0  0
    9.9910   -1.5670   23.3570 C   0  0  0  0  0  0  0  0  0  0  0  0
   11.3620   -1.2210   23.1340 C   0  0  0  0  0  0  0  0  0  0  0  0
   11.7350    0.1500   23.0810 C   0  0  0  0  0  0  0  0  0  0  0  0
   12.9380   -0.5870   23.3210 C   0  0  0  0  0  0  0  0  0  0  0  0
   12.7330    0.7380   23.1840 C   0  0  0  0  0  0  0  0  0  0  0  0
   11.3960    1.0010   22.9930 C   0  0  0  0  0  0  0  0  0  0  0  0
   10.4080   -0.0250   22.9750 N   0  0  0  0  0  0  0  0  0  0  0  0
    9.3390    0.2010   23.6020 O   0  0  0  0  0  0  0  0  0  0  0  0
   10.6120   -1.2090   22.3080 O   0  0  0  0  0  0  0  0  0  0  0  0
   11.4250    2.3390   22.8650 C   0  0  0  0  0  0  0  0  0  0  0  0
   12.6040    1.4860   23.0970 C   0  0  0  0  0  0  0  0  0  0  0  0
    7.5570   -0.1860   20.9130 N   0  0  0  0  0  0  0  0  0  0  0  0
    6.5870    0.2430   20.0360 C   0  0  0  0  0  0  0  0  0  0  0  0
    5.3500    0.8010   20.3480 C   0  0  0  0  0  0  0  0  0  0  0  0
    4.5380    1.2190   19.2940 C   0  0  0  0  0  0  0  0  0  0  0  0
    4.9900    1.0630   17.9960 C   0  0  0  0  0  0  0  0  0  0  0  0
    6.1550    0.5200   17.6740 N   0  0  0  0  0  0  0  0  0  0  0  0
    6.9260    0.1190   18.7090 C   0  0  0  0  0  0  0  0  0  0  0  0
  1  2  2  0
  2  3  1  0
  3  4  1  0
  4  5  1  0
  5  6  1  0
  6  7  2  0
  7  8  1  0
  8  9  2  0
  9 10  1  0
 10 11  2  0
 10 12  1  0
  9 13  1  0
  6 14  1  0
 13 14  2  0
  2 15  1  0
 15 16  1  0
 16 17  2  0
 17 18  1  0
 18 19  2  0
 19 20  1  0
 16 21  1  0
 20 21  2  0
M  CHG  2  10   1  12  -1
M  END
