pyridine_urea_3236
     RDKit          3D

 19 21  0  0  0  0  0  0  0  0999 V2000
    8.5470    1.3350   21.0140 O   0  0  0  0  0  0  0  0  0  0  0  0
    8.0580    0.3420   21.5670 C   0  0  0  0  0  0  0  0  0  0  0  0
    7.0350   -0.4100   21.0860 N   0  0  0  0  0  0  0  0  0  0  0  0
    6.3800    0.1380   20.0000 C   0  0  0  0  0  0  0  0  0  0  0  0
    5.1840    0.8170   20.2090 C   0  0  0  0  0  0  0  0  0  0  0  0
    4.5360    1.4050   19.1310 C   0  0  0  0  0  0  0  0  0  0  0  0
    5.1190    1.2850   17.8880 C   0  0  0  0  0  0  0  0  0  0  0  0
    6.2610    0.6240   17.6670 N   0  0  0  0  0  0  0  0  0  0  0  0
    6.8660    0.0650   18.7200 C   0  0  0  0  0  0  0  0  0  0  0  0
    8.5630   -0.0600   22.7590 N   0  0  0  0  0  0  0  0  0  0  0  0
    9.9030    0.4090   22.7630 C   0  0  2  0  0  0  0  0  0  0  0  0
   10.8810   -0.7020   22.6970 C   0  0  0  0  0  0  0  0  0  0  0  0
   11.6680   -0.1860   23.6720 C   0  0  0  0  0  0  0  0  0  0  0  0
   12.8090    0.1930   23.1100 C   0  0  0  0  0  0  0  0  0  0  0  0
   13.1990   -1.0300   23.5130 C   0  0  2  0  0  0  0  0  0  0  0  0
   13.0940   -1.9740   22.4850 C   0  0  0  0  0  0  0  0  0  0  0  0
   13.6490   -3.1970   22.6920 O   0  0  0  0  0  0  0  0  0  0  0  0
   12.1950   -1.1510   24.5220 C   0  0  0  0  0  0  0  0  0  0  0  0
   10.6340    0.6820   24.0330 C   0  0  0  0  0  0  0  0  0  0  0  0
  1  2  2  0
  2  3  1  0
  3  4  1  0
  4  5  2  0
  5  6  1  0
  6  7  2  0
  7  8  1  0
  4  9  1  0
  8  9  2  0
  2 10  1  0
 11 10  1  1
 11 12  1  0
 13 12  1  0
 13 14  1  0
 14 15  1  0
 15 16  1  6
 16 17  1  0
 13 18  1  0
 15 18  1  0
 11 19  1  0
 13 19  1  0
M  END
