pyridine_urea_671
     RDKit          3D

 16 17  0  0  0  0  0  0  0  0999 V2000
   13.0920    0.5910   23.0490 C   0  0  0  0  0  0  0  0  0  0  0  0
   12.4630   -0.7160   22.6830 C   0  0  2  0  0  0  0  0  0  0  0  0
   13.1400   -1.3410   21.5970 O   0  0  0  0  0  0  0  0  0  0  0  0
   11.1050   -0.5990   22.5200 C   0  0  2  0  0  0  0  0  0  0  0  0
   10.3330   -0.5340   23.5590 C   0  0  0  0  0  0  0  0  0  0  0  0
    9.9470   -1.6380   23.0390 C   0  0  1  0  0  0  0  0  0  0  0  0
    8.8720   -1.7640   22.1570 N   0  0  0  0  0  0  0  0  0  0  0  0
    8.3020   -0.5350   21.5410 C   0  0  0  0  0  0  0  0  0  0  0  0
    8.9500    0.5060   21.4150 O   0  0  0  0  0  0  0  0  0  0  0  0
    7.0040   -0.6650   21.1270 N   0  0  0  0  0  0  0  0  0  0  0  0
    6.3730    0.0230   20.1200 C   0  0  0  0  0  0  0  0  0  0  0  0
    5.2090    0.7820   20.2820 C   0  0  0  0  0  0  0  0  0  0  0  0
    4.6400    1.4550   19.1900 C   0  0  0  0  0  0  0  0  0  0  0  0
    5.2570    1.3480   17.9580 C   0  0  0  0  0  0  0  0  0  0  0  0
    6.3680    0.6440   17.7060 N   0  0  0  0  0  0  0  0  0  0  0  0
    6.9220   -0.0340   18.8520 C   0  0  0  0  0  0  0  0  0  0  0  0
  2  1  1  6
  2  3  1  0
  2  4  1  0
  4  5  1  1
  4  6  1  0
  5  6  1  0
  6  7  1  6
  7  8  1  0
  8  9  2  0
  8 10  1  0
 10 11  1  0
 11 12  2  0
 12 13  1  0
 13 14  2  0
 14 15  1  0
 11 16  1  0
 15 16  2  0
M  END
