pyridine_urea_3806
     RDKit          3D

 19 20  0  0  0  0  0  0  0  0999 V2000
    8.6960    0.6760   21.2440 O   0  0  0  0  0  0  0  0  0  0  0  0
    8.2370   -0.4250   21.5310 C   0  0  0  0  0  0  0  0  0  0  0  0
    7.0380   -0.8940   21.0530 N   0  0  0  0  0  0  0  0  0  0  0  0
    6.4180   -0.1320   20.0060 C   0  0  0  0  0  0  0  0  0  0  0  0
    5.1420    0.6310   20.3540 C   0  0  0  0  0  0  0  0  0  0  0  0
    4.4870    1.4500   19.2440 C   0  0  0  0  0  0  0  0  0  0  0  0
    5.1950    1.4130   17.8910 C   0  0  0  0  0  0  0  0  0  0  0  0
    6.3630    0.6540   17.7370 N   0  0  0  0  0  0  0  0  0  0  0  0
    6.9380   -0.0750   18.7360 C   0  0  0  0  0  0  0  0  0  0  0  0
    8.8540   -1.3270   22.3730 N   0  0  0  0  0  0  0  0  0  0  0  0
   10.0420   -0.9360   23.0060 C   0  0  0  0  0  0  0  0  0  0  0  0
   10.1370    0.4370   23.2080 C   0  0  0  0  0  0  0  0  0  0  0  0
   10.9980    0.7930   24.2020 C   0  0  0  0  0  0  0  0  0  0  0  0
   12.2350    0.8400   23.6420 C   0  0  2  0  0  0  0  0  0  0  0  0
   12.2080    1.2820   22.3770 O   0  0  0  0  0  0  0  0  0  0  0  0
   12.8390   -0.3940   23.6530 C   0  0  1  0  0  0  0  0  0  0  0  0
   12.2540   -1.1280   24.7270 O   0  0  0  0  0  0  0  0  0  0  0  0
   12.6900   -1.1700   22.5280 C   0  0  0  0  0  0  0  0  0  0  0  0
   11.2520   -1.4960   22.2740 C   0  0  0  0  0  0  0  0  0  0  0  0
  1  2  2  0
  2  3  1  0
  3  4  1  0
  4  5  2  0
  5  6  1  0
  6  7  2  0
  7  8  1  0
  4  9  1  0
  8  9  2  0
  2 10  1  0
 10 11  1  0
 11 12  1  0
 12 13  1  0
 13 14  1  0
 14 15  1  6
 14 16  1  0
 16 17  1  1
 16 18  1  0
 11 19  1  0
 18 19  1  0
M  END
