pyridine_urea_7728
     RDKit          3D

 21 23  0  0  0  0  0  0  0  0999 V2000
    8.8610    0.6990   21.3350 O   0  0  0  0  0  0  0  0  0  0  0  0
    8.4100   -0.4270   21.4290 C   0  0  0  0  0  0  0  0  0  0  0  0
    9.0820   -1.5390   21.8920 N   0  0  0  0  0  0  0  0  0  0  0  0
   10.1460   -1.5830   22.8310 C   0  0  0  0  0  0  0  0  0  0  0  0
   11.4590   -1.5700   22.3440 C   0  0  2  0  0  0  0  0  0  0  0  0
   12.4820   -2.1210   22.8600 C   0  0  0  0  0  0  0  0  0  0  0  0
   12.4260   -0.7720   23.3410 C   0  0  0  0  0  0  0  0  0  0  0  0
   13.0230    0.2870   22.7200 C   0  0  0  0  0  0  0  0  0  0  0  0
   12.3360    1.4900   22.9780 C   0  0  0  0  0  0  0  0  0  0  0  0
   10.9500    1.2830   23.6070 C   0  0  0  0  0  0  0  0  0  0  0  0
   10.5180    2.4980   24.0270 F   0  0  0  0  0  0  0  0  0  0  0  0
   10.0730    1.0150   22.6210 F   0  0  0  0  0  0  0  0  0  0  0  0
   10.7730    0.2280   24.5050 C   0  0  0  0  0  0  0  0  0  0  0  0
   11.9440   -0.5070   24.6010 C   0  0  0  0  0  0  0  0  0  0  0  0
    7.1300   -0.7470   21.0470 N   0  0  0  0  0  0  0  0  0  0  0  0
    6.4150   -0.0560   20.1040 C   0  0  0  0  0  0  0  0  0  0  0  0
    5.2220    0.6410   20.3180 C   0  0  0  0  0  0  0  0  0  0  0  0
    4.6320    1.3110   19.2400 C   0  0  0  0  0  0  0  0  0  0  0  0
    5.2010    1.2950   17.9790 C   0  0  0  0  0  0  0  0  0  0  0  0
    6.3400    0.6340   17.7270 N   0  0  0  0  0  0  0  0  0  0  0  0
    6.9140   -0.0300   18.8110 C   0  0  0  0  0  0  0  0  0  0  0  0
  1  2  2  0
  2  3  1  0
  3  4  1  0
  5  4  1  1
  5  6  1  0
  5  7  1  0
  7  6  1  0
  7  8  1  0
  8  9  1  0
  9 10  1  0
 10 11  1  0
 10 12  1  0
 10 13  1  0
  7 14  1  0
 13 14  1  0
  2 15  1  0
 15 16  1  0
 16 17  2  0
 17 18  1  0
 18 19  2  0
 19 20  1  0
 16 21  1  0
 20 21  2  0
M  END
