pyridine_urea_6781
     RDKit          3D

 21 23  0  0  0  0  0  0  0  0999 V2000
    8.8930    1.4810   20.7040 O   0  0  0  0  0  0  0  0  0  0  0  0
    8.7290    0.2690   20.8400 C   0  0  0  0  0  0  0  0  0  0  0  0
    9.6730   -0.5040   21.2480 N   0  0  0  0  0  0  0  0  0  0  0  0
   10.1140   -0.3770   22.5890 C   0  0  0  0  0  0  0  0  0  0  0  0
   11.6930   -0.8890   23.2650 C   0  0  0  0  0  0  0  0  0  0  0  0
   12.1370   -0.4470   21.7640 C   0  0  0  0  0  0  0  0  0  0  0  0
   12.1710   -0.9200   22.9960 C   0  0  0  0  0  0  0  0  0  0  0  0
   10.7500   -0.4690   22.8820 C   0  0  0  0  0  0  0  0  0  0  0  0
    9.3370   -0.2610   23.4290 C   0  0  0  0  0  0  0  0  0  0  0  0
    7.6440    0.4650   22.8090 Br  0  0  0  0  0  0  0  0  0  0  0  0
    9.2900   -0.7450   24.6680 C   0  0  0  0  0  0  0  0  0  0  0  0
   10.4910   -1.1570   25.1110 C   0  0  0  0  0  0  0  0  0  0  0  0
   11.0500   -0.9120   23.9540 C   0  0  0  0  0  0  0  0  0  0  0  0
   12.2720   -1.0770   23.5130 O   0  0  0  0  0  0  0  0  0  0  0  0
    7.5370   -0.2800   20.7240 N   0  0  0  0  0  0  0  0  0  0  0  0
    6.6640    0.1540   19.8020 C   0  0  0  0  0  0  0  0  0  0  0  0
    5.3510    0.6230   20.0970 C   0  0  0  0  0  0  0  0  0  0  0  0
    4.6180    1.1150   18.8930 C   0  0  0  0  0  0  0  0  0  0  0  0
    5.1920    1.0900   17.6480 C   0  0  0  0  0  0  0  0  0  0  0  0
    6.4610    0.6340   17.4310 N   0  0  0  0  0  0  0  0  0  0  0  0
    7.0860    0.1920   18.4800 C   0  0  0  0  0  0  0  0  0  0  0  0
  1  2  2  0
  2  3  1  0
  3  4  1  0
  4  5  1  0
  5  6  2  0
  6  7  1  0
  7  8  2  0
  8  9  1  0
  9 10  1  0
  9 11  2  0
 11 12  1  0
  7 13  1  0
 12 13  2  0
  5 14  1  0
 13 14  1  0
  2 15  1  0
 15 16  1  0
 16 17  2  0
 17 18  1  0
 18 19  2  0
 19 20  1  0
 16 21  1  0
 20 21  2  0
M  END
