pyridine_urea_10808
     RDKit          3D

 20 22  0  0  0  0  0  0  0  0999 V2000
    8.3200    0.8840   20.9960 O   0  0  0  0  0  0  0  0  0  0  0  0
    7.8050   -0.1060   21.5070 C   0  0  0  0  0  0  0  0  0  0  0  0
    6.7100   -0.7980   20.8970 N   0  0  0  0  0  0  0  0  0  0  0  0
    6.1670   -0.0530   19.8900 C   0  0  0  0  0  0  0  0  0  0  0  0
    4.9760    0.6350   20.0850 C   0  0  0  0  0  0  0  0  0  0  0  0
    4.4770    1.3900   19.0300 C   0  0  0  0  0  0  0  0  0  0  0  0
    5.1870    1.4250   17.8270 C   0  0  0  0  0  0  0  0  0  0  0  0
    6.3360    0.7560   17.6390 N   0  0  0  0  0  0  0  0  0  0  0  0
    6.8020    0.0290   18.6770 C   0  0  0  0  0  0  0  0  0  0  0  0
    8.1740   -0.6760   22.6620 N   0  0  0  0  0  0  0  0  0  0  0  0
    9.5470   -0.4760   22.8780 C   0  0  0  0  0  0  0  0  0  0  0  0
   10.4240   -1.4720   22.1930 C   0  0  0  0  0  0  0  0  0  0  0  0
   11.7120   -1.2640   22.3930 C   0  0  0  0  0  0  0  0  0  0  0  0
   12.1660   -0.2390   23.1500 C   0  0  0  0  0  0  0  0  0  0  0  0
   11.3730    0.6920   23.7900 C   0  0  0  0  0  0  0  0  0  0  0  0
   10.0180    0.5760   23.6520 C   0  0  0  0  0  0  0  0  0  0  0  0
    8.8050    1.7760   24.4460 Br  0  0  0  0  0  0  0  0  0  0  0  0
   13.4990   -0.2760   23.1810 C   0  0  0  0  0  0  0  0  0  0  0  0
   13.7610   -1.4250   22.4780 N   0  0  0  0  0  0  0  0  0  0  0  0
   12.7110   -2.0080   21.8980 C   0  0  0  0  0  0  0  0  0  0  0  0
  1  2  2  0
  2  3  1  0
  3  4  1  0
  4  5  2  0
  5  6  1  0
  6  7  2  0
  7  8  1  0
  4  9  1  0
  8  9  2  0
  2 10  1  0
 10 11  1  0
 11 12  2  0
 12 13  1  0
 13 14  2  0
 14 15  1  0
 11 16  1  0
 15 16  2  0
 16 17  1  0
 14 18  1  0
 18 19  1  0
 13 20  1  0
 19 20  1  0
M  END
