pyridine_urea_1524
     RDKit          3D

 19 20  0  0  0  0  0  0  0  0999 V2000
    8.9030    1.2240   21.2140 O   0  0  0  0  0  0  0  0  0  0  0  0
    8.2050    0.3040   21.6640 C   0  0  0  0  0  0  0  0  0  0  0  0
    8.3010   -0.1420   22.9500 N   0  0  0  0  0  0  0  0  0  0  0  0
    9.1190   -1.2620   23.2790 C   0  0  0  0  0  0  0  0  0  0  0  0
   10.5520   -0.9160   22.9860 C   0  0  0  0  0  0  0  0  0  0  0  0
   10.9840    0.3750   23.1820 C   0  0  0  0  0  0  0  0  0  0  0  0
   12.2970    0.6880   22.9230 C   0  0  0  0  0  0  0  0  0  0  0  0
   12.5840    1.8600   23.1360 O   0  0  0  0  0  0  0  0  0  0  0  0
   13.1810   -0.2610   22.4600 C   0  0  0  0  0  0  0  0  0  0  0  0
   12.7400   -1.5650   22.2480 C   0  0  0  0  0  0  0  0  0  0  0  0
   13.4380   -2.4780   21.8350 O   0  0  0  0  0  0  0  0  0  0  0  0
   11.4430   -1.8770   22.5150 C   0  0  0  0  0  0  0  0  0  0  0  0
    7.2360   -0.3950   21.0020 N   0  0  0  0  0  0  0  0  0  0  0  0
    6.5150    0.1720   19.9860 C   0  0  0  0  0  0  0  0  0  0  0  0
    5.3460    0.8690   20.3160 C   0  0  0  0  0  0  0  0  0  0  0  0
    4.6100    1.4740   19.2930 C   0  0  0  0  0  0  0  0  0  0  0  0
    5.1330    1.3320   17.9060 C   0  0  0  0  0  0  0  0  0  0  0  0
    6.2440    0.6480   17.6330 N   0  0  0  0  0  0  0  0  0  0  0  0
    6.9030    0.0900   18.6670 C   0  0  0  0  0  0  0  0  0  0  0  0
  1  2  2  0
  2  3  1  0
  3  4  1  0
  4  5  1  0
  5  6  2  0
  6  7  1  0
  7  8  1  0
  7  9  2  0
  9 10  1  0
 10 11  1  0
  5 12  1  0
 10 12  2  0
  2 13  1  0
 13 14  1  0
 14 15  2  0
 15 16  1  0
 16 17  2  0
 17 18  1  0
 14 19  1  0
 18 19  2  0
M  END
