pyridine_urea_816
     RDKit          3D

 23 25  0  0  0  0  0  0  0  0999 V2000
    9.0250    0.3080   21.3720 O   0  0  0  0  0  0  0  0  0  0  0  0
    8.2840   -0.6430   21.5820 C   0  0  0  0  0  0  0  0  0  0  0  0
    8.5940   -1.7040   22.5620 N   0  0  0  0  0  0  0  0  0  0  0  0
    9.8460   -2.3470   22.5680 C   0  0  0  0  0  0  0  0  0  0  0  0
   10.9020   -1.5150   22.3780 C   0  0  0  0  0  0  0  0  0  0  0  0
    9.8990   -1.0280   23.2670 C   0  0  0  0  0  0  0  0  0  0  0  0
    9.8750    0.1520   23.9010 C   0  0  0  0  0  0  0  0  0  0  0  0
   10.5280    1.3670   24.1170 C   0  0  0  0  0  0  0  0  0  0  0  0
   11.6400    1.0100   23.2270 C   0  0  0  0  0  0  0  0  0  0  0  0
   12.6520    2.0290   23.0760 C   0  0  0  0  0  0  0  0  0  0  0  0
   12.1790    3.3740   22.8440 N   0  0  0  0  0  0  0  0  0  0  0  0
   12.8350    4.3880   22.2170 C   0  0  0  0  0  0  0  0  0  0  0  0
   12.0460    5.4950   22.2240 C   0  0  0  0  0  0  0  0  0  0  0  0
   10.8840    5.2720   22.8300 N   0  0  0  0  0  0  0  0  0  0  0  0
   10.9520    3.9600   23.2170 C   0  0  0  0  0  0  0  0  0  0  0  0
   11.7920   -0.1980   22.5260 C   0  0  0  0  0  0  0  0  0  0  0  0
    7.0600   -0.8820   20.9880 N   0  0  0  0  0  0  0  0  0  0  0  0
    6.4060   -0.1280   20.0630 C   0  0  0  0  0  0  0  0  0  0  0  0
    5.2260    0.5980   20.2880 C   0  0  0  0  0  0  0  0  0  0  0  0
    4.6570    1.3310   19.2440 C   0  0  0  0  0  0  0  0  0  0  0  0
    5.2820    1.3200   18.0050 C   0  0  0  0  0  0  0  0  0  0  0  0
    6.4120    0.6330   17.7600 N   0  0  0  0  0  0  0  0  0  0  0  0
    6.9360   -0.0670   18.7850 C   0  0  0  0  0  0  0  0  0  0  0  0
  1  2  2  0
  2  3  1  0
  3  4  1  0
  4  5  1  0
  5  6  2  0
  6  7  1  0
  7  8  2  0
  8  9  1  0
  9 10  1  0
 10 11  1  0
 11 12  1  0
 12 13  2  0
 13 14  1  0
 11 15  1  0
 14 15  2  0
  5 16  1  0
  9 16  2  0
  2 17  1  0
 17 18  1  0
 18 19  2  0
 19 20  1  0
 20 21  2  0
 21 22  1  0
 18 23  1  0
 22 23  2  0
M  END
