pyridine_urea_8743
     RDKit          3D

 21 22  0  0  0  0  0  0  0  0999 V2000
   13.2830   -2.6210   22.8990 C   0  0  0  0  0  0  0  0  0  0  0  0
   13.4950   -1.8060   24.1200 C   0  0  0  0  0  0  0  0  0  0  0  0
   13.8990   -2.4600   25.3340 O   0  0  0  0  0  0  0  0  0  0  0  0
   13.2150   -0.4100   24.0010 N   0  0  0  0  0  0  0  0  0  0  0  0
   13.5860    0.1270   22.6850 C   0  0  0  0  0  0  0  0  0  0  0  0
   11.9710   -0.4850   23.7900 C   0  0  0  0  0  0  0  0  0  0  0  0
   11.1770   -1.2810   24.4890 C   0  0  0  0  0  0  0  0  0  0  0  0
    9.7740   -1.2960   24.1000 C   0  0  0  0  0  0  0  0  0  0  0  0
    9.3970   -0.5040   23.0580 C   0  0  0  0  0  0  0  0  0  0  0  0
    8.0320   -0.6340   22.7640 N   0  0  0  0  0  0  0  0  0  0  0  0
    7.7100   -0.1060   21.5490 C   0  0  0  0  0  0  0  0  0  0  0  0
    8.3690    1.0710   21.0090 O   0  0  0  0  0  0  0  0  0  0  0  0
    6.7430   -0.7960   20.9550 N   0  0  0  0  0  0  0  0  0  0  0  0
    6.1730   -0.0690   19.9880 C   0  0  0  0  0  0  0  0  0  0  0  0
    5.0020    0.6480   20.1210 C   0  0  0  0  0  0  0  0  0  0  0  0
    4.4970    1.3880   19.0600 C   0  0  0  0  0  0  0  0  0  0  0  0
    5.2070    1.3800   17.8640 C   0  0  0  0  0  0  0  0  0  0  0  0
    6.3490    0.6840   17.7020 N   0  0  0  0  0  0  0  0  0  0  0  0
    6.8030   -0.0190   18.7580 C   0  0  0  0  0  0  0  0  0  0  0  0
   10.2030    0.4220   22.2370 C   0  0  0  0  0  0  0  0  0  0  0  0
   11.5120    0.3890   22.6590 C   0  0  0  0  0  0  0  0  0  0  0  0
  1  2  1  0
  2  3  2  0
  2  4  1  0
  4  5  1  0
  4  6  1  0
  6  7  2  0
  7  8  1  0
  8  9  2  0
  9 10  1  0
 10 11  1  0
 11 12  2  0
 11 13  1  0
 13 14  1  0
 14 15  2  0
 15 16  1  0
 16 17  2  0
 17 18  1  0
 14 19  1  0
 18 19  2  0
  9 20  1  0
  6 21  1  0
 20 21  2  0
M  END
