pyridine_urea_9604
     RDKit          3D

 16 17  0  0  0  0  0  0  0  0999 V2000
   13.0140   -1.1340   22.0160 C   0  0  0  0  0  0  0  0  0  0  0  0
   11.6390   -1.8140   22.1640 C   0  0  1  0  0  0  0  0  0  0  0  0
   11.6950   -2.3360   23.4920 O   0  0  0  0  0  0  0  0  0  0  0  0
   11.5490   -1.1840   24.2750 C   0  0  0  0  0  0  0  0  0  0  0  0
   10.8320   -0.1210   23.5000 C   0  0  0  0  0  0  0  0  0  0  0  0
   10.4900   -0.7580   22.2000 C   0  0  2  0  0  0  0  0  0  0  0  0
    9.1180   -1.1900   22.1490 N   0  0  0  0  0  0  0  0  0  0  0  0
    8.3230   -0.2450   21.5440 C   0  0  0  0  0  0  0  0  0  0  0  0
    8.6840    0.9220   21.4360 O   0  0  0  0  0  0  0  0  0  0  0  0
    7.1320   -0.7250   21.0690 N   0  0  0  0  0  0  0  0  0  0  0  0
    6.4560   -0.0610   20.0360 C   0  0  0  0  0  0  0  0  0  0  0  0
    5.2730    0.6350   20.3090 C   0  0  0  0  0  0  0  0  0  0  0  0
    4.6130    1.3100   19.2770 C   0  0  0  0  0  0  0  0  0  0  0  0
    5.1630    1.2630   18.0150 C   0  0  0  0  0  0  0  0  0  0  0  0
    6.2890    0.5970   17.7300 N   0  0  0  0  0  0  0  0  0  0  0  0
    6.9080   -0.0470   18.7380 C   0  0  0  0  0  0  0  0  0  0  0  0
  2  1  1  1
  2  3  1  0
  3  4  1  0
  4  5  1  0
  2  6  1  0
  5  6  1  0
  6  7  1  1
  7  8  1  0
  8  9  2  0
  8 10  1  0
 10 11  1  0
 11 12  2  0
 12 13  1  0
 13 14  2  0
 14 15  1  0
 11 16  1  0
 15 16  2  0
M  END
