pyridine_urea_3896
     RDKit          3D

 22 24  0  0  0  0  0  0  0  0999 V2000
    6.9490    1.6110   22.4140 C   0  0  0  0  0  0  0  0  0  0  0  0
    8.2950    1.3330   23.0240 C   0  0  2  0  0  0  0  0  0  0  0  0
    8.6180    2.4460   23.8930 O   0  0  0  0  0  0  0  0  0  0  0  0
    9.9070    2.7040   23.5850 C   0  0  0  0  0  0  0  0  0  0  0  0
   10.5140    1.5250   23.0750 C   0  0  1  0  0  0  0  0  0  0  0  0
   11.8840    1.4370   22.8440 C   0  0  0  0  0  0  0  0  0  0  0  0
   12.2160    0.1460   23.1830 C   0  0  0  0  0  0  0  0  0  0  0  0
   11.0220   -0.4660   23.5920 C   0  0  2  0  0  0  0  0  0  0  0  0
   10.4330   -1.3930   22.5000 C   0  0  0  0  0  0  0  0  0  0  0  0
    8.9880   -1.2910   22.2940 N   0  0  0  0  0  0  0  0  0  0  0  0
    8.2500   -0.5410   21.4270 C   0  0  0  0  0  0  0  0  0  0  0  0
    8.7190    0.5170   21.0680 O   0  0  0  0  0  0  0  0  0  0  0  0
    7.0380   -0.9620   20.9870 N   0  0  0  0  0  0  0  0  0  0  0  0
    6.3260   -0.1930   20.0490 C   0  0  0  0  0  0  0  0  0  0  0  0
    5.1320    0.4940   20.2520 C   0  0  0  0  0  0  0  0  0  0  0  0
    4.5760    1.2200   19.2160 C   0  0  0  0  0  0  0  0  0  0  0  0
    5.1980    1.2640   17.9970 C   0  0  0  0  0  0  0  0  0  0  0  0
    6.3470    0.6210   17.7390 N   0  0  0  0  0  0  0  0  0  0  0  0
    6.8710   -0.0880   18.7690 C   0  0  0  0  0  0  0  0  0  0  0  0
   10.1410    0.3890   23.7530 O   0  0  0  0  0  0  0  0  0  0  0  0
    9.4720    1.4780   22.0050 C   0  0  2  0  0  0  0  0  0  0  0  0
    9.1460    2.7380   21.5280 C   0  0  0  0  0  0  0  0  0  0  0  0
  2  1  1  6
  2  3  1  0
  3  4  1  0
  5  4  1  1
  5  6  1  0
  6  7  1  0
  7  8  1  0
  8  9  1  6
  9 10  1  0
 10 11  1  0
 11 12  2  0
 11 13  1  0
 13 14  1  0
 14 15  2  0
 15 16  1  0
 16 17  2  0
 17 18  1  0
 14 19  1  0
 18 19  2  0
  5 20  1  0
  8 20  1  0
  2 21  1  0
  5 21  1  0
 21 22  1  1
M  END
