pyridine_urea_8166
     RDKit          3D

 23 25  0  0  0  0  0  0  0  0999 V2000
   11.7200    6.2970   25.0080 C   0  0  0  0  0  0  0  0  0  0  0  0
   10.8840    5.0320   24.7780 C   0  0  0  0  0  0  0  0  0  0  0  0
   11.2490    4.0010   23.7180 C   0  0  0  0  0  0  0  0  0  0  0  0
   10.3650    2.9690   23.7080 C   0  0  0  0  0  0  0  0  0  0  0  0
   10.5360    1.7980   22.7150 C   0  0  0  0  0  0  0  0  0  0  0  0
   10.7990    0.4910   23.2000 C   0  0  2  0  0  0  0  0  0  0  0  0
   12.3200    0.2910   23.3320 C   0  0  0  0  0  0  0  0  0  0  0  0
   12.7620   -0.9610   22.6040 C   0  0  0  0  0  0  0  0  0  0  0  0
   11.3790   -1.6050   22.5230 C   0  0  0  0  0  0  0  0  0  0  0  0
   10.3760   -0.4810   22.2970 C   0  0  1  0  0  0  0  0  0  0  0  0
    8.9850   -0.8420   22.4280 N   0  0  0  0  0  0  0  0  0  0  0  0
    8.2320   -0.0930   21.5530 C   0  0  0  0  0  0  0  0  0  0  0  0
    8.5730    1.0360   21.2400 O   0  0  0  0  0  0  0  0  0  0  0  0
    7.0780   -0.7160   21.0420 N   0  0  0  0  0  0  0  0  0  0  0  0
    6.3550   -0.0470   20.0710 C   0  0  0  0  0  0  0  0  0  0  0  0
    5.1470    0.6100   20.2720 C   0  0  0  0  0  0  0  0  0  0  0  0
    4.5460    1.2620   19.1970 C   0  0  0  0  0  0  0  0  0  0  0  0
    5.1700    1.2360   17.9580 C   0  0  0  0  0  0  0  0  0  0  0  0
    6.3290    0.5990   17.7450 N   0  0  0  0  0  0  0  0  0  0  0  0
    6.8890   -0.0230   18.7950 C   0  0  0  0  0  0  0  0  0  0  0  0
    9.4500    3.3200   24.7290 N   0  0  0  0  0  0  0  0  0  0  0  0
    8.3500    2.6440   25.1590 C   0  0  0  0  0  0  0  0  0  0  0  0
    9.7720    4.5600   25.3620 N   0  0  0  0  0  0  0  0  0  0  0  0
  1  2  1  0
  2  3  1  0
  3  4  2  0
  4  5  1  0
  6  5  1  6
  6  7  1  0
  7  8  1  0
  8  9  1  0
  6 10  1  0
  9 10  1  0
 10 11  1  1
 11 12  1  0
 12 13  2  0
 12 14  1  0
 14 15  1  0
 15 16  2  0
 16 17  1  0
 17 18  2  0
 18 19  1  0
 15 20  1  0
 19 20  2  0
  4 21  1  0
 21 22  1  0
  2 23  2  0
 21 23  1  0
M  END
