pyridine_urea_12393
     RDKit          3D

 22 24  0  0  0  0  0  0  0  0999 V2000
   10.2930   -4.8260   26.3020 C   0  0  0  0  0  0  0  0  0  0  0  0
    9.7240   -4.1740   25.0480 C   0  0  0  0  0  0  0  0  0  0  0  0
    8.5980   -4.9780   24.3560 C   0  0  0  0  0  0  0  0  0  0  0  0
    8.0350   -4.4570   23.2240 C   0  0  0  0  0  0  0  0  0  0  0  0
    8.5390   -3.1090   22.6920 C   0  0  0  0  0  0  0  0  0  0  0  0
    9.5690   -2.3410   23.2920 C   0  0  0  0  0  0  0  0  0  0  0  0
   10.0500   -0.9960   22.7190 C   0  0  0  0  0  0  0  0  0  0  0  0
   10.0650   -0.1130   21.9910 N   0  0  0  0  0  0  0  0  0  0  0  0
    8.8040    0.4860   21.4770 C   0  0  0  0  0  0  0  0  0  0  0  0
    8.6560    1.6760   21.2580 O   0  0  0  0  0  0  0  0  0  0  0  0
    7.7380   -0.4610   21.1580 N   0  0  0  0  0  0  0  0  0  0  0  0
    6.8830    0.0100   20.1640 C   0  0  0  0  0  0  0  0  0  0  0  0
    5.6700    0.8240   20.6520 C   0  0  0  0  0  0  0  0  0  0  0  0
    4.7340    1.3790   19.5610 C   0  0  0  0  0  0  0  0  0  0  0  0
    5.1240    1.0570   18.1300 C   0  0  0  0  0  0  0  0  0  0  0  0
    6.2310    0.3120   17.8380 N   0  0  0  0  0  0  0  0  0  0  0  0
    7.0870   -0.2030   18.8110 C   0  0  0  0  0  0  0  0  0  0  0  0
   10.2900   -0.2130   23.8980 C   0  0  0  0  0  0  0  0  0  0  0  0
   11.6590    0.1480   23.9020 C   0  0  0  0  0  0  0  0  0  0  0  0
   12.3300   -0.5850   22.9550 C   0  0  0  0  0  0  0  0  0  0  0  0
   11.3580   -1.4040   22.3800 C   0  0  0  0  0  0  0  0  0  0  0  0
   10.1240   -2.9310   24.4750 C   0  0  0  0  0  0  0  0  0  0  0  0
  1  2  1  0
  2  3  2  0
  3  4  1  0
  4  5  2  0
  5  6  1  0
  6  7  1  0
  7  8  1  0
  8  9  1  0
  9 10  2  0
  9 11  1  0
 11 12  1  0
 12 13  2  0
 13 14  1  0
 14 15  2  0
 15 16  1  0
 12 17  1  0
 16 17  2  0
  7 18  1  0
 18 19  1  0
 19 20  1  0
  7 21  1  0
 20 21  1  0
  2 22  1  0
  6 22  2  0
M  END
