pyridine_urea_12853
     RDKit          3D

 19 20  0  0  0  0  0  0  0  0999 V2000
   12.7490   -0.6290   24.7030 C   0  0  0  0  0  0  0  0  0  0  0  0
   12.0120    0.0470   23.5580 C   0  0  0  0  0  0  0  0  0  0  0  0
   12.7370    1.3090   23.0910 C   0  0  0  0  0  0  0  0  0  0  0  0
   12.2750   -1.0250   22.4940 C   0  0  0  0  0  0  0  0  0  0  0  0
   11.0310   -1.5170   22.1620 C   0  0  0  0  0  0  0  0  0  0  0  0
   10.0840   -1.2180   23.1350 C   0  0  2  0  0  0  0  0  0  0  0  0
    9.9220   -2.1930   24.1170 C   0  0  0  0  0  0  0  0  0  0  0  0
   10.4420   -3.2760   23.9090 O   0  0  0  0  0  0  0  0  0  0  0  0
    8.7310   -0.9820   22.5830 N   0  0  0  0  0  0  0  0  0  0  0  0
    8.3930   -0.0590   21.6040 C   0  0  0  0  0  0  0  0  0  0  0  0
    9.0640    1.1780   21.2700 O   0  0  0  0  0  0  0  0  0  0  0  0
    7.2410   -0.5240   20.9950 N   0  0  0  0  0  0  0  0  0  0  0  0
    6.5360    0.1040   19.9970 C   0  0  0  0  0  0  0  0  0  0  0  0
    5.3820    0.8160   20.3360 C   0  0  0  0  0  0  0  0  0  0  0  0
    4.6590    1.4720   19.3320 C   0  0  0  0  0  0  0  0  0  0  0  0
    5.1790    1.3670   17.9360 C   0  0  0  0  0  0  0  0  0  0  0  0
    6.2800    0.6690   17.6550 N   0  0  0  0  0  0  0  0  0  0  0  0
    6.9230    0.0640   18.6740 C   0  0  0  0  0  0  0  0  0  0  0  0
   10.6210    0.1370   23.6380 C   0  0  0  0  0  0  0  0  0  0  0  0
  2  1  1  0
  2  3  1  0
  2  4  1  0
  4  5  1  0
  5  6  1  0
  6  7  1  1
  7  8  1  0
  6  9  1  0
  9 10  1  0
 10 11  2  0
 10 12  1  0
 12 13  1  0
 13 14  2  0
 14 15  1  0
 15 16  2  0
 16 17  1  0
 13 18  1  0
 17 18  2  0
  2 19  1  0
  6 19  1  0
M  END
