pyridine_urea_12018
     RDKit          3D

 24 25  0  0  0  0  0  0  0  0999 V2000
   13.3030   -1.1610   24.0690 C   0  0  0  0  0  0  0  0  0  0  0  0
   12.3180   -0.4210   24.9780 C   0  0  0  0  0  0  0  0  0  0  0  0
   11.5580    0.5480   24.2800 C   0  0  1  0  0  0  0  0  0  0  0  0
   12.1410    1.5100   23.4490 C   0  0  0  0  0  0  0  0  0  0  0  0
   11.0970   -0.4370   23.3040 C   0  0  0  0  0  0  0  0  0  0  0  0
    9.7170   -0.9120   23.3840 C   0  0  0  0  0  0  0  0  0  0  0  0
    9.2430   -1.8960   22.5010 C   0  0  0  0  0  0  0  0  0  0  0  0
   10.4500   -2.1390   21.7100 C   0  0  0  0  0  0  0  0  0  0  0  0
   10.5370   -1.1160   22.6810 C   0  0  1  0  0  0  0  0  0  0  0  0
    9.1920   -0.4850   22.5910 N   0  0  0  0  0  0  0  0  0  0  0  0
    8.6570    0.2460   21.5380 C   0  0  0  0  0  0  0  0  0  0  0  0
    9.0880    1.3410   21.1780 O   0  0  0  0  0  0  0  0  0  0  0  0
    7.5570   -0.4050   21.0020 N   0  0  0  0  0  0  0  0  0  0  0  0
    6.6940    0.1660   20.1020 C   0  0  0  0  0  0  0  0  0  0  0  0
    5.5400    0.8880   20.4060 C   0  0  0  0  0  0  0  0  0  0  0  0
    4.7830    1.4230   19.3700 C   0  0  0  0  0  0  0  0  0  0  0  0
    5.1560    1.2500   18.0600 C   0  0  0  0  0  0  0  0  0  0  0  0
    6.2370    0.5640   17.6860 N   0  0  0  0  0  0  0  0  0  0  0  0
    6.9870    0.0310   18.7510 C   0  0  0  0  0  0  0  0  0  0  0  0
   10.8430   -1.5370   23.9940 C   0  0  0  0  0  0  0  0  0  0  0  0
   12.1450   -1.8190   24.4130 C   0  0  0  0  0  0  0  0  0  0  0  0
   11.2860   -2.8600   24.0500 C   0  0  0  0  0  0  0  0  0  0  0  0
   11.7560   -1.7810   21.5190 C   0  0  0  0  0  0  0  0  0  0  0  0
   12.1060   -0.8340   22.3970 C   0  0  0  0  0  0  0  0  0  0  0  0
  1  2  1  0
  2  3  1  0
  3  4  1  6
  3  5  1  0
  5  6  2  0
  6  7  1  0
  7  8  2  0
  8  9  1  0
  9 10  1  1
 10 11  1  0
 11 12  2  0
 11 13  1  0
 13 14  1  0
 14 15  2  0
 15 16  1  0
 16 17  2  0
 17 18  1  0
 14 19  1  0
 18 19  2  0
  9 20  1  0
 20 21  1  0
 20 22  1  0
  8 23  1  0
  5 24  1  0
 23 24  2  0
M  END
