pyridine_urea_11368
     RDKit          3D

 20 22  0  0  0  0  0  0  0  0999 V2000
    9.8330    0.4350   24.2740 C   0  0  0  0  0  0  0  0  0  0  0  0
   10.2600    0.1970   23.1800 C   0  0  2  0  0  0  0  0  0  0  0  0
    9.3400   -0.6700   22.4410 N   0  0  0  0  0  0  0  0  0  0  0  0
    8.5480    0.1100   21.5100 C   0  0  0  0  0  0  0  0  0  0  0  0
    8.9570    1.4370   21.1440 O   0  0  0  0  0  0  0  0  0  0  0  0
    7.3550   -0.5390   21.0380 N   0  0  0  0  0  0  0  0  0  0  0  0
    6.6700    0.0090   20.0200 C   0  0  0  0  0  0  0  0  0  0  0  0
    5.5570    0.7260   20.3760 C   0  0  0  0  0  0  0  0  0  0  0  0
    4.6740    1.4470   19.3580 C   0  0  0  0  0  0  0  0  0  0  0  0
    5.0910    1.3310   17.9510 C   0  0  0  0  0  0  0  0  0  0  0  0
    6.2200    0.5740   17.7110 N   0  0  0  0  0  0  0  0  0  0  0  0
    6.9980   -0.0750   18.6880 C   0  0  0  0  0  0  0  0  0  0  0  0
   11.6640   -0.4540   23.2190 C   0  0  0  0  0  0  0  0  0  0  0  0
   11.7220   -1.6210   23.8190 N   0  0  0  0  0  0  0  0  0  0  0  0
   12.8460   -1.9930   24.3820 C   0  0  0  0  0  0  0  0  0  0  0  0
   12.7210   -3.1770   24.9540 C   0  0  0  0  0  0  0  0  0  0  0  0
   11.4510   -3.5730   24.7300 N   0  0  0  0  0  0  0  0  0  0  0  0
   10.8060   -2.5890   24.0060 N   0  0  0  0  0  0  0  0  0  0  0  0
   12.5470    0.3440   24.0130 C   0  0  0  0  0  0  0  0  0  0  0  0
   12.7170    0.2270   22.5250 C   0  0  0  0  0  0  0  0  0  0  0  0
  2  1  1  1
  2  3  1  0
  3  4  1  0
  4  5  2  0
  4  6  1  0
  6  7  1  0
  7  8  2  0
  8  9  1  0
  9 10  2  0
 10 11  1  0
  7 12  1  0
 11 12  2  0
  2 13  1  0
 13 14  1  0
 14 15  1  0
 15 16  2  0
 16 17  1  0
 14 18  1  0
 17 18  2  0
 13 19  1  0
 13 20  1  0
 19 20  1  0
M  END
