pyridine_urea_1332
     RDKit          3D

 20 21  0  0  0  0  0  0  0  0999 V2000
    8.9190    0.3980   21.3970 O   0  0  0  0  0  0  0  0  0  0  0  0
    8.1170   -0.4720   21.7250 C   0  0  0  0  0  0  0  0  0  0  0  0
    6.9970   -0.8100   21.0080 N   0  0  0  0  0  0  0  0  0  0  0  0
    6.4900   -0.0740   19.8930 C   0  0  0  0  0  0  0  0  0  0  0  0
    5.2220    0.7580   20.1690 C   0  0  0  0  0  0  0  0  0  0  0  0
    4.6410    1.5110   19.1520 C   0  0  0  0  0  0  0  0  0  0  0  0
    5.2450    1.4820   17.9020 C   0  0  0  0  0  0  0  0  0  0  0  0
    6.3770    0.7210   17.7060 N   0  0  0  0  0  0  0  0  0  0  0  0
    7.0120   -0.0590   18.6720 C   0  0  0  0  0  0  0  0  0  0  0  0
    8.0830   -1.2950   22.8170 N   0  0  0  0  0  0  0  0  0  0  0  0
    7.8460   -2.1400   23.8710 C   0  0  2  0  0  0  0  0  0  0  0  0
    7.0800   -1.5320   24.8670 C   0  0  0  0  0  0  0  0  0  0  0  0
    6.5920   -0.2450   24.4620 O   0  0  0  0  0  0  0  0  0  0  0  0
    8.7430   -3.0110   24.4630 C   0  0  0  0  0  0  0  0  0  0  0  0
    8.1540   -4.2240   25.0120 N   0  0  0  0  0  0  0  0  0  0  0  0
    8.1770   -4.6060   26.3660 C   0  0  0  0  0  0  0  0  0  0  0  0
    7.0360   -5.3320   26.7750 C   0  0  0  0  0  0  0  0  0  0  0  0
    6.0360   -4.9590   26.1630 O   0  0  0  0  0  0  0  0  0  0  0  0
    6.1070   -5.0820   24.7320 C   0  0  0  0  0  0  0  0  0  0  0  0
    7.3890   -5.0070   24.2120 C   0  0  0  0  0  0  0  0  0  0  0  0
  1  2  2  0
  2  3  1  0
  3  4  1  0
  4  5  2  0
  5  6  1  0
  6  7  2  0
  7  8  1  0
  4  9  1  0
  8  9  2  0
  2 10  1  0
 10 11  1  0
 11 12  1  1
 12 13  1  0
 11 14  1  0
 14 15  1  0
 15 16  1  0
 16 17  1  0
 17 18  1  0
 18 19  1  0
 15 20  1  0
 19 20  1  0
M  END
