pyridine_urea_9982
     RDKit          3D

 24 25  0  0  0  0  0  0  0  0999 V2000
   12.2350    4.6170   21.6140 C   0  0  0  0  0  0  0  0  0  0  0  0
   11.0670    4.6650   22.5920 C   0  0  0  0  0  0  0  0  0  0  0  0
   10.2770    5.8230   22.6370 C   0  0  0  0  0  0  0  0  0  0  0  0
   11.6390    4.5750   23.9680 C   0  0  0  0  0  0  0  0  0  0  0  0
   10.1320    3.5680   22.3970 O   0  0  0  0  0  0  0  0  0  0  0  0
   10.0280    2.4320   23.2090 C   0  0  0  0  0  0  0  0  0  0  0  0
    9.5720    2.4330   24.5570 O   0  0  0  0  0  0  0  0  0  0  0  0
   10.4160    1.2820   22.4810 C   0  0  0  0  0  0  0  0  0  0  0  0
   10.2370   -0.2010   22.9310 C   0  0  0  0  0  0  0  0  0  0  0  0
    8.8800   -0.5210   22.7300 N   0  0  0  0  0  0  0  0  0  0  0  0
    8.1720   -0.0350   21.6290 C   0  0  0  0  0  0  0  0  0  0  0  0
    8.4640    0.9810   21.0210 O   0  0  0  0  0  0  0  0  0  0  0  0
    7.0190   -0.8410   21.2500 N   0  0  0  0  0  0  0  0  0  0  0  0
    6.3730   -0.1090   20.1270 C   0  0  0  0  0  0  0  0  0  0  0  0
    5.1880    0.5920   20.3710 C   0  0  0  0  0  0  0  0  0  0  0  0
    4.6030    1.2770   19.3210 C   0  0  0  0  0  0  0  0  0  0  0  0
    5.2490    1.2450   18.0030 C   0  0  0  0  0  0  0  0  0  0  0  0
    6.3870    0.5740   17.7590 N   0  0  0  0  0  0  0  0  0  0  0  0
    6.9100   -0.0850   18.8310 C   0  0  0  0  0  0  0  0  0  0  0  0
   11.0990   -1.1560   22.3570 C   0  0  0  0  0  0  0  0  0  0  0  0
   12.4650   -1.0160   22.5840 C   0  0  0  0  0  0  0  0  0  0  0  0
   12.7530    0.0610   23.3870 C   0  0  0  0  0  0  0  0  0  0  0  0
   11.7590    0.3350   24.3260 C   0  0  0  0  0  0  0  0  0  0  0  0
   10.5670   -0.3740   24.2410 C   0  0  0  0  0  0  0  0  0  0  0  0
  1  2  1  0
  2  3  1  0
  2  4  1  0
  2  5  1  0
  5  6  1  0
  6  7  2  0
  6  8  1  0
  8  9  1  0
  9 10  1  0
 10 11  1  0
 11 12  2  0
 11 13  1  0
 13 14  1  0
 14 15  2  0
 15 16  1  0
 16 17  2  0
 17 18  1  0
 14 19  1  0
 18 19  2  0
  9 20  1  0
 20 21  1  0
 21 22  1  0
 22 23  1  0
  9 24  1  0
 23 24  1  0
M  END
