pyridine_urea_4859
     RDKit          3D

 21 22  0  0  0  0  0  0  0  0999 V2000
   13.1700   -2.9510   21.0220 C   0  0  0  0  0  0  0  0  0  0  0  0
   13.5370   -1.6650   21.4630 O   0  0  0  0  0  0  0  0  0  0  0  0
   12.4820   -1.0100   21.9580 C   0  0  0  0  0  0  0  0  0  0  0  0
   12.7580   -0.9120   23.2990 C   0  0  0  0  0  0  0  0  0  0  0  0
   11.7510   -0.2630   24.1090 C   0  0  0  0  0  0  0  0  0  0  0  0
   10.5050    0.3370   24.0250 C   0  0  0  0  0  0  0  0  0  0  0  0
    9.6980   -0.7160   23.5480 C   0  0  0  0  0  0  0  0  0  0  0  0
    8.4500   -0.2000   22.9580 N   0  0  0  0  0  0  0  0  0  0  0  0
    8.3440    0.3270   21.6870 C   0  0  0  0  0  0  0  0  0  0  0  0
    9.0130    1.2620   21.2300 O   0  0  0  0  0  0  0  0  0  0  0  0
    7.3570   -0.3160   20.9970 N   0  0  0  0  0  0  0  0  0  0  0  0
    6.5550    0.2210   20.0490 C   0  0  0  0  0  0  0  0  0  0  0  0
    5.3900    0.9220   20.2880 C   0  0  0  0  0  0  0  0  0  0  0  0
    4.6450    1.4610   19.2490 C   0  0  0  0  0  0  0  0  0  0  0  0
    5.1290    1.2620   17.9570 C   0  0  0  0  0  0  0  0  0  0  0  0
    6.2460    0.5790   17.6860 N   0  0  0  0  0  0  0  0  0  0  0  0
    6.9310    0.0730   18.7280 C   0  0  0  0  0  0  0  0  0  0  0  0
   12.6090   -0.5340   25.0550 C   0  0  0  0  0  0  0  0  0  0  0  0
   13.2070   -1.0780   23.8680 C   0  0  0  0  0  0  0  0  0  0  0  0
   11.8910   -0.4610   23.2670 C   0  0  0  0  0  0  0  0  0  0  0  0
   10.9720   -0.1180   22.3500 F   0  0  0  0  0  0  0  0  0  0  0  0
  1  2  1  0
  2  3  1  0
  3  4  2  0
  4  5  1  0
  5  6  1  0
  6  7  1  0
  7  8  1  0
  8  9  1  0
  9 10  2  0
  9 11  1  0
 11 12  1  0
 12 13  2  0
 13 14  1  0
 14 15  2  0
 15 16  1  0
 12 17  1  0
 16 17  2  0
  5 18  2  0
 18 19  1  0
  3 20  1  0
 19 20  2  0
 20 21  1  0
M  END
