pyridine_urea_11300
     RDKit          3D

 16 17  0  0  0  0  0  0  0  0999 V2000
   13.3780    0.3150   23.0990 C   0  0  0  0  0  0  0  0  0  0  0  0
   12.0680    0.5140   23.1780 N   0  0  0  0  0  0  0  0  0  0  0  0
   10.6100    0.3600   23.0740 C   0  0  0  0  0  0  0  0  0  0  0  0
   10.1770   -0.8590   22.4450 C   0  0  0  0  0  0  0  0  0  0  0  0
    8.8360   -1.2130   22.2060 N   0  0  0  0  0  0  0  0  0  0  0  0
    8.1260   -0.3370   21.4790 C   0  0  0  0  0  0  0  0  0  0  0  0
    8.6160    0.9860   21.2680 O   0  0  0  0  0  0  0  0  0  0  0  0
    6.9640   -0.8270   20.9840 N   0  0  0  0  0  0  0  0  0  0  0  0
    6.2960   -0.0960   20.0080 C   0  0  0  0  0  0  0  0  0  0  0  0
    4.9830    0.6740   20.1660 C   0  0  0  0  0  0  0  0  0  0  0  0
    4.4510    1.4050   19.0170 C   0  0  0  0  0  0  0  0  0  0  0  0
    5.1610    1.3460   17.8900 C   0  0  0  0  0  0  0  0  0  0  0  0
    6.3260    0.6680   17.7080 N   0  0  0  0  0  0  0  0  0  0  0  0
    6.8460   -0.0200   18.7490 C   0  0  0  0  0  0  0  0  0  0  0  0
   11.4150   -1.5460   22.1310 C   0  0  0  0  0  0  0  0  0  0  0  0
   12.3920   -0.7550   22.5520 N   0  0  0  0  0  0  0  0  0  0  0  0
  1  2  1  0
  2  3  1  0
  3  4  2  0
  4  5  1  0
  5  6  1  0
  6  7  2  0
  6  8  1  0
  8  9  1  0
  9 10  2  0
 10 11  1  0
 11 12  2  0
 12 13  1  0
  9 14  1  0
 13 14  2  0
  4 15  1  0
  2 16  1  0
 15 16  2  0
M  END
