pyridine_urea_5379
     RDKit          3D

 19 20  0  0  0  0  0  0  0  0999 V2000
    5.8730    1.3650   17.5840 C   0  0  0  0  0  0  0  0  0  0  0  0
    5.2320    0.3690   18.1850 N   0  0  0  0  0  0  0  0  0  0  0  0
    6.1130   -0.6190   18.7780 C   0  0  0  0  0  0  0  0  0  0  0  0
    6.5630    0.0350   20.1280 C   0  0  2  0  0  0  0  0  0  0  0  0
    7.5620   -0.7800   20.8630 N   0  0  0  0  0  0  0  0  0  0  0  0
    8.6300   -0.0020   21.4700 C   0  0  0  0  0  0  0  0  0  0  0  0
    8.8630    1.1790   21.1600 O   0  0  0  0  0  0  0  0  0  0  0  0
    9.3120   -0.7180   22.3580 N   0  0  0  0  0  0  0  0  0  0  0  0
   10.6620   -0.4830   22.6350 C   0  0  0  0  0  0  0  0  0  0  0  0
   11.0900    0.8470   22.8940 C   0  0  0  0  0  0  0  0  0  0  0  0
   12.5540    1.0510   23.1750 C   0  0  0  0  0  0  0  0  0  0  0  0
   13.2050   -0.2490   23.1140 C   0  0  0  0  0  0  0  0  0  0  0  0
   12.9800   -1.5300   22.8990 N   0  0  0  0  0  0  0  0  0  0  0  0
   11.5750   -1.5970   22.6380 C   0  0  0  0  0  0  0  0  0  0  0  0
    5.3870    0.3720   21.0100 C   0  0  0  0  0  0  0  0  0  0  0  0
    5.4700    0.6220   22.3570 O   0  0  0  0  0  0  0  0  0  0  0  0
    4.2560    0.3980   20.3210 N   0  0  0  0  0  0  0  0  0  0  0  0
    4.2720    0.9090   19.0030 C   0  0  0  0  0  0  0  0  0  0  0  0
    3.3850    1.8920   18.6740 O   0  0  0  0  0  0  0  0  0  0  0  0
  1  2  1  0
  2  3  1  0
  3  4  1  0
  4  5  1  1
  5  6  1  0
  6  7  2  0
  6  8  1  0
  8  9  1  0
  9 10  2  0
 10 11  1  0
 11 12  2  0
 12 13  1  0
  9 14  1  0
 13 14  2  0
  4 15  1  0
 15 16  2  0
 15 17  1  0
  2 18  1  0
 17 18  1  0
 18 19  2  0
M  END
