pyridine_urea_14736
     RDKit          3D

 20 21  0  0  0  0  0  0  0  0999 V2000
   13.0680    1.7950   22.8750 C   0  0  0  0  0  0  0  0  0  0  0  0
   13.1990    0.3000   22.7770 C   0  0  0  0  0  0  0  0  0  0  0  0
   13.3330   -0.6310   23.8060 C   0  0  0  0  0  0  0  0  0  0  0  0
   11.8420   -0.0370   22.8670 C   0  0  0  0  0  0  0  0  0  0  0  0
   10.9140    0.9020   23.0760 C   0  0  0  0  0  0  0  0  0  0  0  0
    9.6850    0.4980   23.2010 C   0  0  0  0  0  0  0  0  0  0  0  0
    9.4840   -0.9840   23.0790 C   0  0  0  0  0  0  0  0  0  0  0  0
   10.3310   -2.0850   22.8490 C   0  0  0  0  0  0  0  0  0  0  0  0
    9.0490   -2.4470   22.9800 C   0  0  0  0  0  0  0  0  0  0  0  0
    8.2220   -2.0070   21.9470 N   0  0  0  0  0  0  0  0  0  0  0  0
    8.0130   -0.6600   21.3990 C   0  0  0  0  0  0  0  0  0  0  0  0
    8.8550    0.2160   21.2450 O   0  0  0  0  0  0  0  0  0  0  0  0
    6.6840   -0.5670   21.0930 N   0  0  0  0  0  0  0  0  0  0  0  0
    6.1470    0.1280   20.0250 C   0  0  0  0  0  0  0  0  0  0  0  0
    4.9200    0.9430   20.0720 C   0  0  0  0  0  0  0  0  0  0  0  0
    4.4800    1.6000   18.9470 C   0  0  0  0  0  0  0  0  0  0  0  0
    5.2250    1.4660   17.7870 C   0  0  0  0  0  0  0  0  0  0  0  0
    6.3530    0.7270   17.6860 N   0  0  0  0  0  0  0  0  0  0  0  0
    6.7910    0.0780   18.7910 C   0  0  0  0  0  0  0  0  0  0  0  0
   11.5210   -1.3660   22.7680 C   0  0  0  0  0  0  0  0  0  0  0  0
  1  2  1  0
  2  3  1  0
  2  4  1  0
  4  5  2  0
  5  6  1  0
  6  7  2  0
  7  8  1  0
  8  9  1  0
  9 10  1  0
 10 11  1  0
 11 12  2  0
 11 13  1  0
 13 14  1  0
 14 15  2  0
 15 16  1  0
 16 17  2  0
 17 18  1  0
 14 19  1  0
 18 19  2  0
  4 20  1  0
  8 20  2  0
M  END
