pyridine_urea_8956
     RDKit          3D

 20 21  0  0  0  0  0  0  0  0999 V2000
    8.9940    1.1930   21.1720 O   0  0  0  0  0  0  0  0  0  0  0  0
    8.2920    0.2700   21.6100 C   0  0  0  0  0  0  0  0  0  0  0  0
    8.4200   -0.2140   22.8680 N   0  0  0  0  0  0  0  0  0  0  0  0
    9.3140   -1.2570   23.2410 C   0  0  0  0  0  0  0  0  0  0  0  0
    9.4830   -1.1460   24.7680 C   0  0  0  0  0  0  0  0  0  0  0  0
    9.0010   -1.3050   26.1410 O   0  0  0  0  0  0  0  0  0  0  0  0
    8.1710   -1.6650   24.4420 O   0  0  0  0  0  0  0  0  0  0  0  0
    7.0800   -1.2660   25.3180 C   0  0  0  0  0  0  0  0  0  0  0  0
    6.0060   -1.0820   24.4430 C   0  0  0  0  0  0  0  0  0  0  0  0
    4.8020   -1.3730   25.1090 C   0  0  0  0  0  0  0  0  0  0  0  0
    4.9300   -1.2210   26.4930 C   0  0  0  0  0  0  0  0  0  0  0  0
    5.7470   -2.2260   27.0060 C   0  0  0  0  0  0  0  0  0  0  0  0
    6.8790   -2.3060   26.2180 C   0  0  0  0  0  0  0  0  0  0  0  0
    7.2840   -0.3900   20.9760 N   0  0  0  0  0  0  0  0  0  0  0  0
    6.5950    0.1610   19.9470 C   0  0  0  0  0  0  0  0  0  0  0  0
    5.4720    0.8990   20.3320 C   0  0  0  0  0  0  0  0  0  0  0  0
    4.7160    1.5390   19.2300 C   0  0  0  0  0  0  0  0  0  0  0  0
    5.1300    1.3880   17.9400 C   0  0  0  0  0  0  0  0  0  0  0  0
    6.2100    0.6610   17.5840 N   0  0  0  0  0  0  0  0  0  0  0  0
    6.9340    0.0490   18.6250 C   0  0  0  0  0  0  0  0  0  0  0  0
  1  2  2  0
  2  3  1  0
  3  4  1  0
  4  5  1  0
  5  6  2  0
  5  7  1  0
  7  8  1  0
  8  9  1  0
  9 10  1  0
 10 11  1  0
 11 12  1  0
  8 13  1  0
 12 13  1  0
  2 14  1  0
 14 15  1  0
 15 16  2  0
 16 17  1  0
 17 18  2  0
 18 19  1  0
 15 20  1  0
 19 20  2  0
M  END
