pyridine_urea_1906
     RDKit          3D

 14 14  0  0  0  0  0  0  0  0999 V2000
   12.2450    2.4530   22.8520 C   0  0  0  0  0  0  0  0  0  0  0  0
   12.0900    0.9530   22.8150 C   0  0  0  0  0  0  0  0  0  0  0  0
   10.9050    0.3220   23.2120 C   0  0  0  0  0  0  0  0  0  0  0  0
   10.4470   -0.8380   22.6070 C   0  0  0  0  0  0  0  0  0  0  0  0
    9.0740   -0.8950   22.2980 N   0  0  0  0  0  0  0  0  0  0  0  0
    8.3960   -0.0160   21.4630 C   0  0  0  0  0  0  0  0  0  0  0  0
    8.8540    1.0950   21.1570 O   0  0  0  0  0  0  0  0  0  0  0  0
    7.2190   -0.5660   21.0820 N   0  0  0  0  0  0  0  0  0  0  0  0
    6.5600    0.0490   20.0720 C   0  0  0  0  0  0  0  0  0  0  0  0
    5.4010    0.7610   20.3550 C   0  0  0  0  0  0  0  0  0  0  0  0
    4.6640    1.4630   19.2120 C   0  0  0  0  0  0  0  0  0  0  0  0
    5.1940    1.3510   17.9550 C   0  0  0  0  0  0  0  0  0  0  0  0
    6.3150    0.6460   17.7190 N   0  0  0  0  0  0  0  0  0  0  0  0
    6.9570    0.0250   18.7460 C   0  0  0  0  0  0  0  0  0  0  0  0
  1  2  1  0
  2  3  3  0
  3  4  1  0
  4  5  1  0
  5  6  1  0
  6  7  2  0
  6  8  1  0
  8  9  1  0
  9 10  2  0
 10 11  1  0
 11 12  2  0
 12 13  1  0
  9 14  1  0
 13 14  2  0
M  END
