pyridine_urea_1167
     RDKit          3D

 21 22  0  0  0  0  0  0  0  0999 V2000
   13.3240   -2.3550   23.1720 N   0  0  0  0  0  0  0  0  0  0  0  0
   12.8710   -1.2970   23.0620 C   0  0  0  0  0  0  0  0  0  0  0  0
   12.2690    0.1260   22.9470 C   0  0  0  0  0  0  0  0  0  0  0  0
   13.1420    1.3450   22.8510 C   0  0  0  0  0  0  0  0  0  0  0  0
   12.5750    2.6160   22.7580 C   0  0  0  0  0  0  0  0  0  0  0  0
   11.1960    2.7860   22.7480 C   0  0  0  0  0  0  0  0  0  0  0  0
   10.3140    1.6940   22.8300 C   0  0  0  0  0  0  0  0  0  0  0  0
    8.9710    1.7820   22.8270 O   0  0  0  0  0  0  0  0  0  0  0  0
    8.2510    0.6620   23.3480 C   0  0  0  0  0  0  0  0  0  0  0  0
    9.1020   -0.4560   23.4210 C   0  0  0  0  0  0  0  0  0  0  0  0
    8.9330   -0.9710   22.1710 N   0  0  0  0  0  0  0  0  0  0  0  0
    8.2260   -0.2040   21.2730 C   0  0  0  0  0  0  0  0  0  0  0  0
    8.6500    1.0990   20.9190 O   0  0  0  0  0  0  0  0  0  0  0  0
    7.1120   -0.8260   20.8590 N   0  0  0  0  0  0  0  0  0  0  0  0
    6.4510   -0.1080   19.9440 C   0  0  0  0  0  0  0  0  0  0  0  0
    5.2430    0.5400   20.2750 C   0  0  0  0  0  0  0  0  0  0  0  0
    4.5960    1.3320   19.1830 C   0  0  0  0  0  0  0  0  0  0  0  0
    5.1670    1.4020   17.9450 C   0  0  0  0  0  0  0  0  0  0  0  0
    6.3300    0.7540   17.6720 N   0  0  0  0  0  0  0  0  0  0  0  0
    6.9180    0.0360   18.6570 C   0  0  0  0  0  0  0  0  0  0  0  0
   10.7810    0.3750   22.9280 C   0  0  0  0  0  0  0  0  0  0  0  0
  1  2  3  0
  2  3  1  0
  3  4  2  0
  4  5  1  0
  5  6  2  0
  6  7  1  0
  7  8  1  0
  8  9  1  0
  9 10  1  0
 10 11  1  0
 11 12  1  0
 12 13  2  0
 12 14  1  0
 14 15  1  0
 15 16  2  0
 16 17  1  0
 17 18  2  0
 18 19  1  0
 15 20  1  0
 19 20  2  0
  3 21  1  0
  7 21  2  0
M  END
