pyridine_urea_1376
     RDKit          3D

 20 21  0  0  0  0  0  0  0  0999 V2000
    8.8220    0.6690   21.3280 O   0  0  0  0  0  0  0  0  0  0  0  0
    8.4030   -0.4750   21.3710 C   0  0  0  0  0  0  0  0  0  0  0  0
    9.1870   -1.5500   21.7420 N   0  0  0  0  0  0  0  0  0  0  0  0
   10.1150   -1.4780   22.8610 C   0  0  0  0  0  0  0  0  0  0  0  0
   11.6100   -1.5520   22.4420 C   0  0  0  0  0  0  0  0  0  0  0  0
   12.5570   -0.7140   23.0620 C   0  0  0  0  0  0  0  0  0  0  0  0
   12.1630    0.1370   24.1080 C   0  0  2  0  0  0  0  0  0  0  0  0
   10.9060   -0.1920   24.5720 C   0  0  0  0  0  0  0  0  0  0  0  0
    9.9020    0.5580   23.9310 C   0  0  0  0  0  0  0  0  0  0  0  0
   10.2800    1.1480   22.7000 C   0  0  0  0  0  0  0  0  0  0  0  0
   11.5820    1.5560   22.5720 C   0  0  0  0  0  0  0  0  0  0  0  0
   12.1040    1.4620   23.7200 C   0  0  1  0  0  0  0  0  0  0  0  0
   11.2440    2.1340   24.5110 O   0  0  0  0  0  0  0  0  0  0  0  0
    7.1250   -0.8220   21.0250 N   0  0  0  0  0  0  0  0  0  0  0  0
    6.4650   -0.1250   20.0100 C   0  0  0  0  0  0  0  0  0  0  0  0
    5.1950    0.6300   20.2730 C   0  0  0  0  0  0  0  0  0  0  0  0
    4.5320    1.3400   19.2900 C   0  0  0  0  0  0  0  0  0  0  0  0
    5.1740    1.2820   18.0200 C   0  0  0  0  0  0  0  0  0  0  0  0
    6.3080    0.6170   17.7320 N   0  0  0  0  0  0  0  0  0  0  0  0
    6.9230   -0.0670   18.7190 C   0  0  0  0  0  0  0  0  0  0  0  0
  1  2  2  0
  2  3  1  0
  3  4  1  0
  4  5  1  0
  5  6  1  0
  7  6  1  6
  7  8  1  0
  8  9  1  0
  9 10  1  0
 10 11  1  0
  7 12  1  0
 11 12  1  0
 12 13  1  1
  2 14  1  0
 14 15  1  0
 15 16  2  0
 16 17  1  0
 17 18  2  0
 18 19  1  0
 15 20  1  0
 19 20  2  0
M  END
