pyridine_urea_4281
     RDKit          3D

 24 26  0  0  0  0  0  0  0  0999 V2000
   13.2980   -1.6110   23.8350 C   0  0  0  0  0  0  0  0  0  0  0  0
   12.5820   -0.5300   23.3860 N   0  0  0  0  0  0  0  0  0  0  0  0
   12.9470    0.7820   23.5790 N   0  0  0  0  0  0  0  0  0  0  0  0
   11.8470    1.4480   22.9310 C   0  0  0  0  0  0  0  0  0  0  0  0
   11.8880    2.9840   22.9380 C   0  0  0  0  0  0  0  0  0  0  0  0
   10.5670    3.6520   23.2410 C   0  0  0  0  0  0  0  0  0  0  0  0
   10.5790    5.1810   23.2520 C   0  0  0  0  0  0  0  0  0  0  0  0
   11.8560    5.9650   22.9690 C   0  0  0  0  0  0  0  0  0  0  0  0
   13.1230    5.1550   22.6780 C   0  0  0  0  0  0  0  0  0  0  0  0
   13.0330    3.7530   22.6870 C   0  0  0  0  0  0  0  0  0  0  0  0
   10.9140    0.6100   22.4020 N   0  0  0  0  0  0  0  0  0  0  0  0
   11.4400   -0.6030   22.7030 C   0  0  0  0  0  0  0  0  0  0  0  0
   10.8230   -1.7560   22.3270 C   0  0  0  0  0  0  0  0  0  0  0  0
    9.4560   -1.6560   22.4880 C   0  0  0  0  0  0  0  0  0  0  0  0
    8.9650   -0.4170   22.6270 N   0  0  0  0  0  0  0  0  0  0  0  0
    8.3500    0.1330   21.5450 C   0  0  0  0  0  0  0  0  0  0  0  0
    8.7970    1.2090   21.1290 O   0  0  0  0  0  0  0  0  0  0  0  0
    7.2900   -0.5630   21.0550 N   0  0  0  0  0  0  0  0  0  0  0  0
    6.6050    0.0360   20.0620 C   0  0  0  0  0  0  0  0  0  0  0  0
    5.4590    0.7690   20.3520 C   0  0  0  0  0  0  0  0  0  0  0  0
    4.6810    1.4560   19.2950 C   0  0  0  0  0  0  0  0  0  0  0  0
    5.1630    1.3230   18.0060 C   0  0  0  0  0  0  0  0  0  0  0  0
    6.2690    0.6080   17.7170 N   0  0  0  0  0  0  0  0  0  0  0  0
    6.9500   -0.0080   18.7240 C   0  0  0  0  0  0  0  0  0  0  0  0
  1  2  1  0
  2  3  1  0
  3  4  2  0
  4  5  1  0
  5  6  2  0
  6  7  1  0
  7  8  2  0
  8  9  1  0
  5 10  1  0
  9 10  2  0
  4 11  1  0
  2 12  1  0
 11 12  2  0
 12 13  1  0
 13 14  1  0
 14 15  1  0
 15 16  1  0
 16 17  2  0
 16 18  1  0
 18 19  1  0
 19 20  2  0
 20 21  1  0
 21 22  2  0
 22 23  1  0
 19 24  1  0
 23 24  2  0
M  END
