pyridine_urea_7663
     RDKit          3D

 28 30  0  0  0  0  0  0  0  0999 V2000
    8.9080    2.0050   20.9120 O   0  0  0  0  0  0  0  0  0  0  0  0
    8.5260    1.0410   21.5110 C   0  0  0  0  0  0  0  0  0  0  0  0
    7.5710    0.1270   21.1120 N   0  0  0  0  0  0  0  0  0  0  0  0
    6.7350    0.4130   20.0480 C   0  0  0  0  0  0  0  0  0  0  0  0
    5.5870    1.1660   20.3040 C   0  0  0  0  0  0  0  0  0  0  0  0
    4.7370    1.5000   19.2640 C   0  0  0  0  0  0  0  0  0  0  0  0
    5.0750    1.0660   18.0070 C   0  0  0  0  0  0  0  0  0  0  0  0
    6.1580    0.3370   17.7330 N   0  0  0  0  0  0  0  0  0  0  0  0
    6.9650    0.0200   18.7510 C   0  0  0  0  0  0  0  0  0  0  0  0
    9.0570    0.7900   22.7160 N   0  0  0  0  0  0  0  0  0  0  0  0
    8.7810   -0.4910   23.2310 C   0  0  2  0  0  0  0  0  0  0  0  0
    8.7670   -0.4100   24.7340 C   0  0  0  0  0  0  0  0  0  0  0  0
    9.8330   -0.0800   25.5800 C   0  0  0  0  0  0  0  0  0  0  0  0
    9.5860   -0.0580   26.9720 C   0  0  0  0  0  0  0  0  0  0  0  0
    8.3210   -0.3520   27.4940 C   0  0  0  0  0  0  0  0  0  0  0  0
    8.1070   -0.3210   29.2140 Cl  0  0  0  0  0  0  0  0  0  0  0  0
    7.2800   -0.6680   26.6620 C   0  0  0  0  0  0  0  0  0  0  0  0
    7.5080   -0.6960   25.2990 C   0  0  0  0  0  0  0  0  0  0  0  0
    9.4260   -1.5780   22.3900 C   0  0  0  0  0  0  0  0  0  0  0  0
   10.6810   -1.1060   22.6470 C   0  0  0  0  0  0  0  0  0  0  0  0
   11.1120   -0.0680   23.3820 C   0  0  0  0  0  0  0  0  0  0  0  0
   12.0500   -0.8380   22.7510 C   0  0  0  0  0  0  0  0  0  0  0  0
   13.3040   -0.5790   22.8590 C   0  0  0  0  0  0  0  0  0  0  0  0
   13.8280   -1.1610   21.7920 F   0  0  0  0  0  0  0  0  0  0  0  0
   13.6860    0.6970   22.8730 F   0  0  0  0  0  0  0  0  0  0  0  0
   13.7470   -1.2280   23.9630 F   0  0  0  0  0  0  0  0  0  0  0  0
   11.7820   -1.9250   21.9680 N   0  0  0  0  0  0  0  0  0  0  0  0
   10.3930   -2.2920   21.7940 C   0  0  0  0  0  0  0  0  0  0  0  0
  1  2  2  0
  2  3  1  0
  3  4  1  0
  4  5  2  0
  5  6  1  0
  6  7  2  0
  7  8  1  0
  4  9  1  0
  8  9  2  0
  2 10  1  0
 11 10  1  6
 11 12  1  0
 12 13  2  0
 13 14  1  0
 14 15  2  0
 15 16  1  0
 15 17  1  0
 12 18  1  0
 17 18  2  0
 11 19  1  0
 19 20  2  0
 20 21  1  0
 21 22  2  0
 22 23  1  0
 23 24  1  0
 23 25  1  0
 23 26  1  0
 22 27  1  0
 19 28  1  0
 27 28  2  0
M  END
