pyridine_urea_14355
     RDKit          3D

 20 21  0  0  0  0  0  0  0  0999 V2000
    8.9630    0.9770   21.4730 O   0  0  0  0  0  0  0  0  0  0  0  0
    8.5160   -0.1590   21.4220 C   0  0  0  0  0  0  0  0  0  0  0  0
    9.3320   -1.3290   21.6580 N   0  0  0  0  0  0  0  0  0  0  0  0
    9.8450   -1.6020   22.9060 C   0  0  0  0  0  0  0  0  0  0  0  0
    9.1480   -1.0980   24.0060 C   0  0  0  0  0  0  0  0  0  0  0  0
    8.3300   -1.8730   24.4690 O   0  0  0  0  0  0  0  0  0  0  0  0
    8.1270   -1.7360   25.8130 C   0  0  0  0  0  0  0  0  0  0  0  0
    7.8960   -2.9710   26.4440 C   0  0  0  0  0  0  0  0  0  0  0  0
    7.6500   -3.0300   27.9280 C   0  0  0  0  0  0  0  0  0  0  0  0
    7.6460   -1.7540   28.7600 C   0  0  0  0  0  0  0  0  0  0  0  0
    7.9070   -0.4740   27.9710 C   0  0  0  0  0  0  0  0  0  0  0  0
    7.9310    1.0450   28.7790 Cl  0  0  0  0  0  0  0  0  0  0  0  0
    8.1210   -0.5490   26.6060 C   0  0  0  0  0  0  0  0  0  0  0  0
    7.2080   -0.4920   21.1000 N   0  0  0  0  0  0  0  0  0  0  0  0
    6.5060    0.1040   20.0460 C   0  0  0  0  0  0  0  0  0  0  0  0
    5.3450    0.8260   20.3260 C   0  0  0  0  0  0  0  0  0  0  0  0
    4.6590    1.4320   19.2850 C   0  0  0  0  0  0  0  0  0  0  0  0
    5.1500    1.2990   18.0050 C   0  0  0  0  0  0  0  0  0  0  0  0
    6.2550    0.6050   17.7100 N   0  0  0  0  0  0  0  0  0  0  0  0
    6.9090    0.0220   18.7310 C   0  0  0  0  0  0  0  0  0  0  0  0
  1  2  2  0
  2  3  1  0
  3  4  1  0
  4  5  1  0
  5  6  1  0
  6  7  1  0
  7  8  2  0
  8  9  1  0
  9 10  2  0
 10 11  1  0
 11 12  1  0
  7 13  1  0
 11 13  2  0
  2 14  1  0
 14 15  1  0
 15 16  2  0
 16 17  1  0
 17 18  2  0
 18 19  1  0
 15 20  1  0
 19 20  2  0
M  END
