pyridine_urea_13222
     RDKit          3D

 17 17  0  0  0  0  0  0  0  0999 V2000
   12.0310    3.9800   21.9400 C   0  0  0  0  0  0  0  0  0  0  0  0
   11.3560    3.1580   23.0140 C   0  0  0  0  0  0  0  0  0  0  0  0
   10.4670    3.8130   23.8720 C   0  0  0  0  0  0  0  0  0  0  0  0
   10.6640    1.9970   22.4700 O   0  0  0  0  0  0  0  0  0  0  0  0
   11.2020    0.7630   22.8470 C   0  0  0  0  0  0  0  0  0  0  0  0
   12.3780    0.5470   23.1160 O   0  0  0  0  0  0  0  0  0  0  0  0
   10.5230   -0.4490   22.9790 C   0  0  0  0  0  0  0  0  0  0  0  0
    9.1740   -0.5230   22.5600 N   0  0  0  0  0  0  0  0  0  0  0  0
    8.5550    0.2060   21.5610 C   0  0  0  0  0  0  0  0  0  0  0  0
    8.8710    1.3280   21.1510 O   0  0  0  0  0  0  0  0  0  0  0  0
    7.4510   -0.4410   21.0180 N   0  0  0  0  0  0  0  0  0  0  0  0
    6.6090    0.1450   20.0600 C   0  0  0  0  0  0  0  0  0  0  0  0
    5.3160    0.9200   20.3410 C   0  0  0  0  0  0  0  0  0  0  0  0
    4.6230    1.4500   19.2580 C   0  0  0  0  0  0  0  0  0  0  0  0
    5.1330    1.2520   17.9930 C   0  0  0  0  0  0  0  0  0  0  0  0
    6.2580    0.5670   17.7160 N   0  0  0  0  0  0  0  0  0  0  0  0
    6.9590    0.0350   18.7350 C   0  0  0  0  0  0  0  0  0  0  0  0
  1  2  1  0
  2  3  1  0
  2  4  1  0
  4  5  1  0
  5  6  2  0
  5  7  1  0
  7  8  1  0
  8  9  1  0
  9 10  2  0
  9 11  1  0
 11 12  1  0
 12 13  2  0
 13 14  1  0
 14 15  2  0
 15 16  1  0
 12 17  1  0
 16 17  2  0
M  END
