pyridine_urea_12678
     RDKit          3D

 20 21  0  0  0  0  0  0  0  0999 V2000
   11.5050    1.9630   23.6530 C   0  0  0  0  0  0  0  0  0  0  0  0
   10.5090    0.8610   24.0490 C   0  0  0  0  0  0  0  0  0  0  0  0
    9.1490    1.4870   24.4170 C   0  0  0  0  0  0  0  0  0  0  0  0
   10.4190   -0.0850   22.8400 C   0  0  2  0  0  0  0  0  0  0  0  0
    9.0810   -0.5120   22.4750 N   0  0  0  0  0  0  0  0  0  0  0  0
    8.4430    0.2140   21.4970 C   0  0  0  0  0  0  0  0  0  0  0  0
    8.8560    1.3240   21.1450 O   0  0  0  0  0  0  0  0  0  0  0  0
    7.3290   -0.4270   21.0060 N   0  0  0  0  0  0  0  0  0  0  0  0
    6.5120    0.1710   20.0440 C   0  0  0  0  0  0  0  0  0  0  0  0
    5.3290    0.8600   20.2970 C   0  0  0  0  0  0  0  0  0  0  0  0
    4.6260    1.4280   19.2320 C   0  0  0  0  0  0  0  0  0  0  0  0
    5.1410    1.2800   17.9640 C   0  0  0  0  0  0  0  0  0  0  0  0
    6.2670    0.6140   17.6940 N   0  0  0  0  0  0  0  0  0  0  0  0
    6.9200    0.0790   18.7350 C   0  0  0  0  0  0  0  0  0  0  0  0
   11.2760   -1.1730   22.8570 C   0  0  0  0  0  0  0  0  0  0  0  0
   11.1250   -2.4580   22.1630 C   0  0  0  0  0  0  0  0  0  0  0  0
   10.0200   -2.9650   22.3370 O   0  0  0  0  0  0  0  0  0  0  0  0
   11.8650   -1.3860   24.1200 C   0  0  0  0  0  0  0  0  0  0  0  0
   12.9320   -0.5600   23.9530 C   0  0  0  0  0  0  0  0  0  0  0  0
   12.4810   -0.3810   22.6950 C   0  0  0  0  0  0  0  0  0  0  0  0
  1  2  1  0
  2  3  1  0
  2  4  1  0
  4  5  1  1
  5  6  1  0
  6  7  2  0
  6  8  1  0
  8  9  1  0
  9 10  2  0
 10 11  1  0
 11 12  2  0
 12 13  1  0
  9 14  1  0
 13 14  2  0
  4 15  1  0
 15 16  1  0
 16 17  1  0
 15 18  1  0
 18 19  1  0
 15 20  1  0
 19 20  1  0
M  END
