pyridine_urea_2140
     RDKit          3D

 20 22  0  0  0  0  0  0  0  0999 V2000
    9.0820    0.9660   21.4540 O   0  0  0  0  0  0  0  0  0  0  0  0
    8.6490   -0.1680   21.5980 C   0  0  0  0  0  0  0  0  0  0  0  0
    7.4640   -0.6560   21.0610 N   0  0  0  0  0  0  0  0  0  0  0  0
    6.6190    0.0130   20.1450 C   0  0  0  0  0  0  0  0  0  0  0  0
    5.3340    0.7670   20.5300 C   0  0  0  0  0  0  0  0  0  0  0  0
    4.6030    1.4170   19.3530 C   0  0  0  0  0  0  0  0  0  0  0  0
    5.2020    1.2560   17.9940 C   0  0  0  0  0  0  0  0  0  0  0  0
    6.3310    0.5690   17.7680 N   0  0  0  0  0  0  0  0  0  0  0  0
    6.9820   -0.0130   18.8030 C   0  0  0  0  0  0  0  0  0  0  0  0
    9.3130   -1.1410   22.3330 N   0  0  0  0  0  0  0  0  0  0  0  0
   10.4940   -0.9120   23.1820 C   0  0  2  0  0  0  0  0  0  0  0  0
   10.6460    0.4990   23.5400 C   0  0  0  0  0  0  0  0  0  0  0  0
   11.5230    1.5180   23.5890 C   0  0  0  0  0  0  0  0  0  0  0  0
   12.7650    1.0470   23.1100 C   0  0  0  0  0  0  0  0  0  0  0  0
   12.8060   -0.3580   22.7090 C   0  0  0  0  0  0  0  0  0  0  0  0
   11.5420   -1.0540   22.8620 C   0  0  0  0  0  0  0  0  0  0  0  0
   11.9320    0.3240   23.1470 C   0  0  0  0  0  0  0  0  0  0  0  0
   12.7770   -0.5540   22.6730 C   0  0  0  0  0  0  0  0  0  0  0  0
   11.7450   -1.5100   22.6380 C   0  0  1  0  0  0  0  0  0  0  0  0
   12.1200   -2.6430   23.4810 O   0  0  0  0  0  0  0  0  0  0  0  0
  1  2  2  0
  2  3  1  0
  3  4  1  0
  4  5  2  0
  5  6  1  0
  6  7  2  0
  7  8  1  0
  4  9  1  0
  8  9  2  0
  2 10  1  0
 11 10  1  6
 11 12  1  0
 12 13  2  0
 13 14  1  0
 14 15  2  0
 15 16  1  0
 12 17  1  0
 16 17  2  0
 17 18  1  0
 11 19  1  0
 18 19  1  0
 19 20  1  1
M  END
