pyridine_urea_6967
     RDKit          3D

 20 21  0  0  0  0  0  0  0  0999 V2000
    8.6570    0.8150   21.1240 O   0  0  0  0  0  0  0  0  0  0  0  0
    8.1020   -0.2200   21.4800 C   0  0  0  0  0  0  0  0  0  0  0  0
    8.5240   -0.9770   22.5220 N   0  0  0  0  0  0  0  0  0  0  0  0
    9.0900   -0.3680   23.6260 C   0  0  0  0  0  0  0  0  0  0  0  0
   10.1890    0.4180   23.4390 C   0  0  0  0  0  0  0  0  0  0  0  0
   11.5140    0.9460   23.1850 C   0  0  0  0  0  0  0  0  0  0  0  0
   12.6960    0.3150   22.8840 C   0  0  0  0  0  0  0  0  0  0  0  0
   13.7970    1.0010   22.7060 F   0  0  0  0  0  0  0  0  0  0  0  0
   12.7430   -1.0090   22.7670 C   0  0  0  0  0  0  0  0  0  0  0  0
   13.8710   -1.6250   22.4680 F   0  0  0  0  0  0  0  0  0  0  0  0
   11.4910   -1.6800   22.9960 C   0  0  0  0  0  0  0  0  0  0  0  0
   11.5050   -3.0130   22.8990 F   0  0  0  0  0  0  0  0  0  0  0  0
   10.3830   -0.9900   23.2940 C   0  0  0  0  0  0  0  0  0  0  0  0
    6.9760   -0.7470   20.9330 N   0  0  0  0  0  0  0  0  0  0  0  0
    6.2850    0.0060   19.8960 C   0  0  0  0  0  0  0  0  0  0  0  0
    5.0800    0.6320   20.1850 C   0  0  0  0  0  0  0  0  0  0  0  0
    4.4700    1.3630   19.1700 C   0  0  0  0  0  0  0  0  0  0  0  0
    5.1480    1.4220   17.8550 C   0  0  0  0  0  0  0  0  0  0  0  0
    6.3120    0.7880   17.6240 N   0  0  0  0  0  0  0  0  0  0  0  0
    6.8470    0.0980   18.6430 C   0  0  0  0  0  0  0  0  0  0  0  0
  1  2  2  0
  2  3  1  0
  3  4  1  0
  4  5  1  0
  5  6  2  0
  6  7  1  0
  7  8  1  0
  7  9  2  0
  9 10  1  0
  9 11  1  0
 11 12  1  0
  5 13  1  0
 11 13  2  0
  2 14  1  0
 14 15  1  0
 15 16  2  0
 16 17  1  0
 17 18  2  0
 18 19  1  0
 15 20  1  0
 19 20  2  0
M  END
