pyridine_urea_13141
     RDKit          3D

 18 19  0  0  0  0  0  0  0  0999 V2000
    8.8200    1.4380   21.0810 O   0  0  0  0  0  0  0  0  0  0  0  0
    8.4390    0.3720   21.5610 C   0  0  0  0  0  0  0  0  0  0  0  0
    8.9920   -0.2190   22.6640 N   0  0  0  0  0  0  0  0  0  0  0  0
   10.2640    0.1340   23.1580 C   0  0  0  0  0  0  0  0  0  0  0  0
   11.2690   -0.7140   22.7490 C   0  0  0  0  0  0  0  0  0  0  0  0
   10.9430   -1.6920   21.8080 C   0  0  0  0  0  0  0  0  0  0  0  0
   11.8520   -2.6180   21.3520 C   0  0  0  0  0  0  0  0  0  0  0  0
   13.1040   -2.8550   22.1210 C   0  0  0  0  0  0  0  0  0  0  0  0
   13.2260   -2.0380   23.1980 N   0  0  0  0  0  0  0  0  0  0  0  0
   12.5950   -0.7930   23.1230 C   0  0  0  0  0  0  0  0  0  0  0  0
   13.2180    0.2200   23.3720 O   0  0  0  0  0  0  0  0  0  0  0  0
    7.3780   -0.3340   21.0260 N   0  0  0  0  0  0  0  0  0  0  0  0
    6.5690    0.2040   20.0870 C   0  0  0  0  0  0  0  0  0  0  0  0
    5.3900    0.9090   20.3500 C   0  0  0  0  0  0  0  0  0  0  0  0
    4.6690    1.4280   19.2870 C   0  0  0  0  0  0  0  0  0  0  0  0
    5.1440    1.2300   17.9980 C   0  0  0  0  0  0  0  0  0  0  0  0
    6.2620    0.5530   17.7210 N   0  0  0  0  0  0  0  0  0  0  0  0
    6.9400    0.0570   18.7680 C   0  0  0  0  0  0  0  0  0  0  0  0
  1  2  2  0
  2  3  1  0
  3  4  1  0
  4  5  1  0
  5  6  2  0
  6  7  1  0
  7  8  2  0
  8  9  1  0
  5 10  1  0
  9 10  1  0
 10 11  2  0
  2 12  1  0
 12 13  1  0
 13 14  2  0
 14 15  1  0
 15 16  2  0
 16 17  1  0
 13 18  1  0
 17 18  2  0
M  END
