pyridine_urea_3967
     RDKit          3D

 27 29  0  0  0  0  0  0  0  0999 V2000
    9.0650    1.5060   21.2300 O   0  0  0  0  0  0  0  0  0  0  0  0
    8.4040    0.5860   21.7170 C   0  0  0  0  0  0  0  0  0  0  0  0
    8.5050    0.0850   22.9940 N   0  0  0  0  0  0  0  0  0  0  0  0
    9.2000    0.6130   24.1110 C   0  0  0  0  0  0  0  0  0  0  0  0
   10.5650    0.7680   24.0230 C   0  0  0  0  0  0  0  0  0  0  0  0
   11.9620    0.7220   23.7720 C   0  0  0  0  0  0  0  0  0  0  0  0
   12.7170   -0.1170   22.9980 C   0  0  0  0  0  0  0  0  0  0  0  0
   12.2560   -1.1530   22.2590 C   0  0  0  0  0  0  0  0  0  0  0  0
   13.2250   -2.1490   21.2990 Cl  0  0  0  0  0  0  0  0  0  0  0  0
   10.9430   -1.3710   22.3080 C   0  0  0  0  0  0  0  0  0  0  0  0
   10.1370   -0.4190   23.1790 C   0  0  0  0  0  0  0  0  0  0  0  0
    8.7110   -0.6190   23.2470 O   0  0  0  0  0  0  0  0  0  0  0  0
    8.2910   -1.9250   23.3730 C   0  0  0  0  0  0  0  0  0  0  0  0
    9.0070   -3.0160   23.8170 C   0  0  0  0  0  0  0  0  0  0  0  0
    8.4050   -4.2500   23.8870 C   0  0  0  0  0  0  0  0  0  0  0  0
    7.1090   -4.4850   23.5340 C   0  0  0  0  0  0  0  0  0  0  0  0
    6.6290   -5.7330   23.6430 F   0  0  0  0  0  0  0  0  0  0  0  0
    6.2860   -3.4950   23.0780 C   0  0  0  0  0  0  0  0  0  0  0  0
    4.6630   -3.8970   22.6670 Cl  0  0  0  0  0  0  0  0  0  0  0  0
    6.8410   -2.0900   22.9610 C   0  0  0  0  0  0  0  0  0  0  0  0
    7.4150   -0.1090   21.0780 N   0  0  0  0  0  0  0  0  0  0  0  0
    6.6340    0.3390   19.9750 C   0  0  0  0  0  0  0  0  0  0  0  0
    5.5010    1.0640   20.3110 C   0  0  0  0  0  0  0  0  0  0  0  0
    4.7220    1.5450   19.2700 C   0  0  0  0  0  0  0  0  0  0  0  0
    5.1250    1.2730   17.9660 C   0  0  0  0  0  0  0  0  0  0  0  0
    6.2180    0.5600   17.6530 N   0  0  0  0  0  0  0  0  0  0  0  0
    6.9540    0.1030   18.6720 C   0  0  0  0  0  0  0  0  0  0  0  0
  1  2  2  0
  2  3  1  0
  3  4  1  0
  4  5  1  0
  5  6  2  0
  6  7  1  0
  7  8  2  0
  8  9  1  0
  8 10  1  0
  5 11  1  0
 10 11  2  0
 11 12  1  0
 12 13  1  0
 13 14  2  0
 14 15  1  0
 15 16  2  0
 16 17  1  0
 16 18  1  0
 18 19  1  0
 13 20  1  0
 18 20  2  0
  2 21  1  0
 21 22  1  0
 22 23  2  0
 23 24  1  0
 24 25  2  0
 25 26  1  0
 22 27  1  0
 26 27  2  0
M  END
