pyridine_urea_6937
     RDKit          3D

 20 21  0  0  0  0  0  0  0  0999 V2000
   13.3790    0.5570   22.7900 C   0  0  0  0  0  0  0  0  0  0  0  0
   13.4270   -0.4220   22.0610 O   0  0  0  0  0  0  0  0  0  0  0  0
   12.7810   -1.5250   22.5170 C   0  0  0  0  0  0  0  0  0  0  0  0
   13.3280   -2.3780   23.2050 O   0  0  0  0  0  0  0  0  0  0  0  0
   11.4380   -1.6230   22.1530 C   0  0  0  0  0  0  0  0  0  0  0  0
   10.5770   -0.6730   22.7020 C   0  0  1  0  0  0  0  0  0  0  0  0
   11.0060    0.6430   22.6500 C   0  0  0  0  0  0  0  0  0  0  0  0
    9.2330   -0.9500   22.2020 N   0  0  0  0  0  0  0  0  0  0  0  0
    8.4330    0.0070   21.4030 C   0  0  0  0  0  0  0  0  0  0  0  0
    8.8460    1.1440   21.1380 O   0  0  0  0  0  0  0  0  0  0  0  0
    7.2360   -0.5130   21.0170 N   0  0  0  0  0  0  0  0  0  0  0  0
    6.4720    0.1050   20.0730 C   0  0  0  0  0  0  0  0  0  0  0  0
    5.3020    0.8260   20.3050 C   0  0  0  0  0  0  0  0  0  0  0  0
    4.6300    1.4350   19.2350 C   0  0  0  0  0  0  0  0  0  0  0  0
    5.1340    1.3140   17.9510 C   0  0  0  0  0  0  0  0  0  0  0  0
    6.2390    0.6290   17.6530 N   0  0  0  0  0  0  0  0  0  0  0  0
    6.9010    0.0190   18.7710 C   0  0  0  0  0  0  0  0  0  0  0  0
   10.4290   -0.6930   24.0730 C   0  0  0  0  0  0  0  0  0  0  0  0
   11.5230   -0.1600   24.7240 C   0  0  0  0  0  0  0  0  0  0  0  0
   10.3020    0.4870   25.0300 C   0  0  0  0  0  0  0  0  0  0  0  0
  1  2  1  0
  2  3  1  0
  3  4  2  0
  3  5  1  0
  5  6  1  0
  6  7  1  6
  6  8  1  0
  8  9  1  0
  9 10  2  0
  9 11  1  0
 11 12  1  0
 12 13  2  0
 13 14  1  0
 14 15  2  0
 15 16  1  0
 12 17  1  0
 16 17  2  0
  6 18  1  0
 18 19  1  0
 18 20  1  0
 19 20  1  0
M  END
