pyridine_urea_1979
     RDKit          3D

 18 19  0  0  0  0  0  0  0  0999 V2000
   12.7250   -2.2760   24.5050 C   0  0  0  0  0  0  0  0  0  0  0  0
   12.7500   -0.7840   24.9450 C   0  0  0  0  0  0  0  0  0  0  0  0
   12.1340    0.2610   24.0050 C   0  0  2  0  0  0  0  0  0  0  0  0
   10.6510   -0.0030   23.8580 C   0  0  0  0  0  0  0  0  0  0  0  0
   10.4040   -0.6080   22.5470 C   0  0  2  0  0  0  0  0  0  0  0  0
    9.1510   -1.1510   22.0600 N   0  0  0  0  0  0  0  0  0  0  0  0
    8.3250   -0.2310   21.4460 C   0  0  0  0  0  0  0  0  0  0  0  0
    8.6790    0.9210   21.2460 O   0  0  0  0  0  0  0  0  0  0  0  0
    7.0320   -0.7610   21.0620 N   0  0  0  0  0  0  0  0  0  0  0  0
    6.4150   -0.0900   20.0350 C   0  0  0  0  0  0  0  0  0  0  0  0
    5.2330    0.6270   20.2760 C   0  0  0  0  0  0  0  0  0  0  0  0
    4.6030    1.3270   19.2530 C   0  0  0  0  0  0  0  0  0  0  0  0
    5.1880    1.2870   18.0080 C   0  0  0  0  0  0  0  0  0  0  0  0
    6.3120    0.6120   17.7260 N   0  0  0  0  0  0  0  0  0  0  0  0
    6.9000   -0.0630   18.7430 C   0  0  0  0  0  0  0  0  0  0  0  0
   11.4120   -1.5500   22.1330 C   0  0  0  0  0  0  0  0  0  0  0  0
   12.7850   -0.9000   22.4070 C   0  0  0  0  0  0  0  0  0  0  0  0
   12.6780    0.2070   22.8940 O   0  0  0  0  0  0  0  0  0  0  0  0
  1  2  2  3
  3  2  1  1
  3  4  1  0
  4  5  1  0
  5  6  1  1
  6  7  1  0
  7  8  2  0
  7  9  1  0
  9 10  1  0
 10 11  2  0
 11 12  1  0
 12 13  2  0
 13 14  1  0
 10 15  1  0
 14 15  2  0
  5 16  1  0
 16 17  1  0
  3 18  1  0
 17 18  1  0
M  END
