pyridine_urea_4280
     RDKit          3D

 24 25  0  0  0  0  0  0  0  0999 V2000
    8.6590    0.2740   25.1190 C   0  0  0  0  0  0  0  0  0  0  0  0
   10.0200    0.1350   24.4310 C   0  0  0  0  0  0  0  0  0  0  0  0
   10.5440    1.5230   24.0750 C   0  0  0  0  0  0  0  0  0  0  0  0
   10.9290   -0.5830   25.3730 C   0  0  0  0  0  0  0  0  0  0  0  0
    9.8840   -0.7000   23.1670 C   0  0  2  0  0  0  0  0  0  0  0  0
   10.7280   -0.2680   22.0240 C   0  0  0  0  0  0  0  0  0  0  0  0
   11.9490    0.5050   22.5090 C   0  0  0  0  0  0  0  0  0  0  0  0
   12.4860   -0.4190   23.2070 C   0  0  0  0  0  0  0  0  0  0  0  0
   12.8560   -1.6120   22.6290 C   0  0  0  0  0  0  0  0  0  0  0  0
   13.3920   -2.5530   23.4420 C   0  0  0  0  0  0  0  0  0  0  0  0
   13.5450   -2.3010   24.7860 C   0  0  0  0  0  0  0  0  0  0  0  0
   14.1330   -3.1830   26.0200 Cl  0  0  0  0  0  0  0  0  0  0  0  0
   13.1780   -1.1240   25.2880 C   0  0  0  0  0  0  0  0  0  0  0  0
   12.6210   -0.1270   24.4750 C   0  0  0  0  0  0  0  0  0  0  0  0
    8.5680   -0.6930   22.6340 N   0  0  0  0  0  0  0  0  0  0  0  0
    8.0940    0.0620   21.4840 C   0  0  0  0  0  0  0  0  0  0  0  0
    8.6750    1.1110   21.1480 O   0  0  0  0  0  0  0  0  0  0  0  0
    7.0080   -0.5280   20.9170 N   0  0  0  0  0  0  0  0  0  0  0  0
    6.2950    0.1370   19.9440 C   0  0  0  0  0  0  0  0  0  0  0  0
    5.0930    0.8050   20.1450 C   0  0  0  0  0  0  0  0  0  0  0  0
    4.5160    1.4440   19.0670 C   0  0  0  0  0  0  0  0  0  0  0  0
    5.1570    1.3950   17.8330 C   0  0  0  0  0  0  0  0  0  0  0  0
    6.3100    0.7440   17.6370 N   0  0  0  0  0  0  0  0  0  0  0  0
    6.8500    0.1300   18.6920 C   0  0  0  0  0  0  0  0  0  0  0  0
  2  1  1  0
  2  3  1  0
  2  4  1  0
  2  5  1  0
  5  6  1  6
  6  7  1  0
  7  8  1  0
  8  9  2  0
  9 10  1  0
 10 11  2  0
 11 12  1  0
 11 13  1  0
  8 14  1  0
 13 14  2  0
  5 15  1  0
 15 16  1  0
 16 17  2  0
 16 18  1  0
 18 19  1  0
 19 20  2  0
 20 21  1  0
 21 22  2  0
 22 23  1  0
 19 24  1  0
 23 24  2  0
M  END
