pyridine_urea_8143
     RDKit          3D

 23 23  0  0  0  0  0  0  0  0999 V2000
    9.1930   -0.1020   25.7470 C   0  0  0  0  0  0  0  0  0  0  0  0
    9.3700    0.7820   24.6480 O   0  0  0  0  0  0  0  0  0  0  0  0
   10.0830    0.1880   23.5520 C   0  0  0  0  0  0  0  0  0  0  0  0
   10.9570    0.7450   22.9060 O   0  0  0  0  0  0  0  0  0  0  0  0
    9.5560   -1.2840   23.2690 C   0  0  2  0  0  0  0  0  0  0  0  0
   10.1710   -2.1880   22.3710 C   0  0  0  0  0  0  0  0  0  0  0  0
   11.5120   -1.7640   21.8910 C   0  0  0  0  0  0  0  0  0  0  0  0
   12.1580   -2.4260   21.0930 O   0  0  0  0  0  0  0  0  0  0  0  0
   11.7070   -0.6710   22.5050 O   0  0  0  0  0  0  0  0  0  0  0  0
   12.7470   -0.6560   23.3960 C   0  0  0  0  0  0  0  0  0  0  0  0
   13.3170   -2.0750   23.4320 C   0  0  0  0  0  0  0  0  0  0  0  0
   12.3190   -0.1990   24.7730 C   0  0  0  0  0  0  0  0  0  0  0  0
   13.4920    0.3990   22.6120 C   0  0  0  0  0  0  0  0  0  0  0  0
    8.2170   -1.1250   22.7890 N   0  0  0  0  0  0  0  0  0  0  0  0
    8.0480   -0.3400   21.6700 C   0  0  0  0  0  0  0  0  0  0  0  0
    8.8160    0.5580   21.3450 O   0  0  0  0  0  0  0  0  0  0  0  0
    6.8820   -0.7270   21.0040 N   0  0  0  0  0  0  0  0  0  0  0  0
    6.3270   -0.0220   19.9450 C   0  0  0  0  0  0  0  0  0  0  0  0
    5.0330    0.7450   20.1550 C   0  0  0  0  0  0  0  0  0  0  0  0
    4.5200    1.4430   19.0760 C   0  0  0  0  0  0  0  0  0  0  0  0
    5.2210    1.3970   17.8780 C   0  0  0  0  0  0  0  0  0  0  0  0
    6.3640    0.7250   17.6660 N   0  0  0  0  0  0  0  0  0  0  0  0
    6.8870    0.0320   18.6940 C   0  0  0  0  0  0  0  0  0  0  0  0
  1  2  1  0
  2  3  1  0
  3  4  2  0
  3  5  1  0
  5  6  1  6
  6  7  1  0
  7  8  2  0
  7  9  1  0
 10  9  1  0
 10 11  1  0
 10 12  1  0
 10 13  1  0
  5 14  1  0
 14 15  1  0
 15 16  2  0
 15 17  1  0
 17 18  1  0
 18 19  2  0
 19 20  1  0
 20 21  2  0
 21 22  1  0
 18 23  1  0
 22 23  2  0
M  END
