pyridine_urea_9303
     RDKit          3D

 18 20  0  0  0  0  0  0  0  0999 V2000
    8.8080    1.1510   21.1170 O   0  0  0  0  0  0  0  0  0  0  0  0
    8.3510    0.0500   21.4680 C   0  0  0  0  0  0  0  0  0  0  0  0
    7.2200   -0.5440   20.9880 N   0  0  0  0  0  0  0  0  0  0  0  0
    6.4980    0.0690   19.9750 C   0  0  0  0  0  0  0  0  0  0  0  0
    5.3270    0.7660   20.2800 C   0  0  0  0  0  0  0  0  0  0  0  0
    4.6190    1.4020   19.2580 C   0  0  0  0  0  0  0  0  0  0  0  0
    5.1210    1.3060   17.9790 C   0  0  0  0  0  0  0  0  0  0  0  0
    6.2330    0.6330   17.6660 N   0  0  0  0  0  0  0  0  0  0  0  0
    6.8940    0.0330   18.6680 C   0  0  0  0  0  0  0  0  0  0  0  0
    8.9750   -0.6780   22.4270 N   0  0  0  0  0  0  0  0  0  0  0  0
    9.7400    0.1440   23.3310 C   0  0  1  0  0  0  0  0  0  0  0  0
   10.5010   -0.3270   24.3620 C   0  0  0  0  0  0  0  0  0  0  0  0
   11.2990   -0.0700   23.1680 C   0  0  0  0  0  0  0  0  0  0  0  0
   12.1110    1.0190   23.1230 C   0  0  0  0  0  0  0  0  0  0  0  0
   13.3160    0.4800   22.8030 C   0  0  0  0  0  0  0  0  0  0  0  0
   13.6880   -0.4120   23.7300 O   0  0  0  0  0  0  0  0  0  0  0  0
   12.8480   -1.4700   23.6790 C   0  0  0  0  0  0  0  0  0  0  0  0
   11.9070   -1.2210   22.7020 C   0  0  0  0  0  0  0  0  0  0  0  0
  1  2  2  0
  2  3  1  0
  3  4  1  0
  4  5  2  0
  5  6  1  0
  6  7  2  0
  7  8  1  0
  4  9  1  0
  8  9  2  0
  2 10  1  0
 11 10  1  6
 11 12  1  0
 11 13  1  0
 13 12  1  0
 13 14  1  0
 14 15  1  0
 15 16  1  0
 16 17  1  0
 13 18  1  0
 17 18  1  0
M  END
