pyridine_urea_381
     RDKit          3D

 26 28  0  0  0  0  0  0  0  0999 V2000
   12.9690   -2.8170   25.3410 C   0  0  0  0  0  0  0  0  0  0  0  0
   12.7890   -2.2410   24.3300 C   0  0  2  0  0  0  0  0  0  0  0  0
   13.1440   -1.5120   23.1060 C   0  0  0  0  0  0  0  0  0  0  0  0
   13.3040   -0.0540   23.0150 C   0  0  0  0  0  0  0  0  0  0  0  0
   13.6670    0.2780   21.7800 C   0  0  0  0  0  0  0  0  0  0  0  0
   13.8690   -0.7610   20.6310 C   0  0  0  0  0  0  0  0  0  0  0  0
   13.6330   -2.0940   20.9040 C   0  0  0  0  0  0  0  0  0  0  0  0
   13.3170   -2.3440   22.0780 C   0  0  0  0  0  0  0  0  0  0  0  0
   13.1930   -3.5450   22.2020 F   0  0  0  0  0  0  0  0  0  0  0  0
   11.8150   -1.2090   24.5420 N   0  0  0  0  0  0  0  0  0  0  0  0
   12.2580    0.0840   24.4460 C   0  0  0  0  0  0  0  0  0  0  0  0
   11.4430    1.0830   23.8840 C   0  0  0  0  0  0  0  0  0  0  0  0
   10.1930    0.7130   23.4620 C   0  0  0  0  0  0  0  0  0  0  0  0
   10.2520   -0.5010   22.8460 C   0  0  2  0  0  0  0  0  0  0  0  0
    8.9990   -0.7800   22.3690 N   0  0  0  0  0  0  0  0  0  0  0  0
    8.3200    0.0070   21.4190 C   0  0  0  0  0  0  0  0  0  0  0  0
    8.7200    1.1380   21.0970 O   0  0  0  0  0  0  0  0  0  0  0  0
    7.2250   -0.6380   20.9640 N   0  0  0  0  0  0  0  0  0  0  0  0
    6.4920    0.0260   20.0470 C   0  0  0  0  0  0  0  0  0  0  0  0
    5.2240    0.7940   20.3020 C   0  0  0  0  0  0  0  0  0  0  0  0
    4.6090    1.4300   19.2220 C   0  0  0  0  0  0  0  0  0  0  0  0
    5.1900    1.3280   17.9610 C   0  0  0  0  0  0  0  0  0  0  0  0
    6.3200    0.6400   17.7110 N   0  0  0  0  0  0  0  0  0  0  0  0
    6.9250    0.0200   18.7390 C   0  0  0  0  0  0  0  0  0  0  0  0
   10.6520   -1.5260   23.6900 C   0  0  0  0  0  0  0  0  0  0  0  0
    9.9800   -2.7160   23.7350 O   0  0  0  0  0  0  0  0  0  0  0  0
  2  1  1  1
  2  3  1  0
  3  4  2  0
  4  5  1  0
  5  6  2  0
  6  7  1  0
  3  8  1  0
  7  8  2  0
  8  9  1  0
  2 10  1  0
 10 11  1  0
 11 12  1  0
 12 13  1  0
 13 14  1  0
 14 15  1  1
 15 16  1  0
 16 17  2  0
 16 18  1  0
 18 19  1  0
 19 20  2  0
 20 21  1  0
 21 22  2  0
 22 23  1  0
 19 24  1  0
 23 24  2  0
 10 25  1  0
 14 25  1  0
 25 26  2  0
M  END
