pyridine_urea_1762
     RDKit          3D

 18 18  0  0  0  0  0  0  0  0999 V2000
   12.5040   -2.7320   24.7680 C   0  0  0  0  0  0  0  0  0  0  0  0
   13.2840   -2.0160   23.7160 C   0  0  0  0  0  0  0  0  0  0  0  0
   12.4640   -1.5390   22.6240 N   0  0  0  0  0  0  0  0  0  0  0  0
   12.8320   -2.0290   21.3930 C   0  0  0  0  0  0  0  0  0  0  0  0
   11.4950   -0.5520   22.7870 C   0  0  0  0  0  0  0  0  0  0  0  0
   11.7710    0.6400   22.7650 O   0  0  0  0  0  0  0  0  0  0  0  0
   10.1450   -0.8250   22.9910 C   0  0  2  0  0  0  0  0  0  0  0  0
    9.9330   -1.8280   23.9320 C   0  0  0  0  0  0  0  0  0  0  0  0
    9.3930   -0.9700   21.8750 N   0  0  0  0  0  0  0  0  0  0  0  0
    8.4890   -0.0560   21.3920 C   0  0  0  0  0  0  0  0  0  0  0  0
    8.8810    1.3050   21.1730 O   0  0  0  0  0  0  0  0  0  0  0  0
    7.2530   -0.5460   21.1320 N   0  0  0  0  0  0  0  0  0  0  0  0
    6.5810    0.0420   20.1010 C   0  0  0  0  0  0  0  0  0  0  0  0
    5.4330    0.7770   20.3860 C   0  0  0  0  0  0  0  0  0  0  0  0
    4.7290    1.4000   19.3510 C   0  0  0  0  0  0  0  0  0  0  0  0
    5.1950    1.2670   18.0580 C   0  0  0  0  0  0  0  0  0  0  0  0
    6.2910    0.5620   17.7520 N   0  0  0  0  0  0  0  0  0  0  0  0
    6.9560   -0.0340   18.7710 C   0  0  0  0  0  0  0  0  0  0  0  0
  1  2  1  0
  2  3  1  0
  3  4  1  0
  3  5  1  0
  5  6  2  0
  5  7  1  0
  7  8  1  6
  7  9  1  0
  9 10  1  0
 10 11  2  0
 10 12  1  0
 12 13  1  0
 13 14  2  0
 14 15  1  0
 15 16  2  0
 16 17  1  0
 13 18  1  0
 17 18  2  0
M  END
