pyridine_urea_11493
     RDKit          3D

 23 24  0  0  0  0  0  0  0  0999 V2000
   13.1960   -1.3360   25.1270 C   0  0  0  0  0  0  0  0  0  0  0  0
   12.4580   -0.6880   24.0190 C   0  0  0  0  0  0  0  0  0  0  0  0
   11.4360    0.1910   24.3040 C   0  0  0  0  0  0  0  0  0  0  0  0
   13.2880    0.0230   22.9470 C   0  0  0  0  0  0  0  0  0  0  0  0
   12.0400   -1.8250   23.3250 N   0  0  0  0  0  0  0  0  0  0  0  0
   11.6860   -1.8290   22.0400 C   0  0  0  0  0  0  0  0  0  0  0  0
   10.3130   -1.7030   22.1710 C   0  0  2  0  0  0  0  0  0  0  0  0
    9.9550   -0.5560   22.8240 C   0  0  0  0  0  0  0  0  0  0  0  0
    8.6810   -0.1100   22.7100 N   0  0  0  0  0  0  0  0  0  0  0  0
    8.1790    0.4330   21.4640 C   0  0  0  0  0  0  0  0  0  0  0  0
    8.6150    1.4620   20.9500 O   0  0  0  0  0  0  0  0  0  0  0  0
    7.1950   -0.3500   20.9780 N   0  0  0  0  0  0  0  0  0  0  0  0
    6.4540    0.2300   20.0220 C   0  0  0  0  0  0  0  0  0  0  0  0
    5.2720    0.9310   20.2400 C   0  0  0  0  0  0  0  0  0  0  0  0
    4.6200    1.4980   19.1540 C   0  0  0  0  0  0  0  0  0  0  0  0
    5.1680    1.3470   17.8970 C   0  0  0  0  0  0  0  0  0  0  0  0
    6.2980    0.6680   17.6670 N   0  0  0  0  0  0  0  0  0  0  0  0
    6.9060    0.1280   18.7270 C   0  0  0  0  0  0  0  0  0  0  0  0
    9.6670   -2.8120   22.7650 C   0  0  0  0  0  0  0  0  0  0  0  0
    8.4590   -3.4120   22.3190 O   0  0  0  0  0  0  0  0  0  0  0  0
   10.3110   -3.2980   23.8710 N   0  0  0  0  0  0  0  0  0  0  0  0
   11.6190   -2.9170   24.1240 C   0  0  0  0  0  0  0  0  0  0  0  0
   12.4620   -3.5400   25.0660 O   0  0  0  0  0  0  0  0  0  0  0  0
  2  1  1  0
  2  3  1  0
  2  4  1  0
  2  5  1  0
  5  6  1  0
  6  7  1  0
  7  8  1  1
  8  9  1  0
  9 10  1  0
 10 11  2  0
 10 12  1  0
 12 13  1  0
 13 14  2  0
 14 15  1  0
 15 16  2  0
 16 17  1  0
 13 18  1  0
 17 18  2  0
  7 19  1  0
 19 20  2  0
 19 21  1  0
  5 22  1  0
 21 22  1  0
 22 23  2  0
M  END
