pyridine_urea_4237
     RDKit          3D

 24 27  0  0  0  0  0  0  0  0999 V2000
   13.2980   -2.8140   25.1010 C   0  0  0  0  0  0  0  0  0  0  0  0
   14.0140   -2.0810   24.1380 O   0  0  0  0  0  0  0  0  0  0  0  0
   13.2860   -1.7500   22.9710 C   0  0  0  0  0  0  0  0  0  0  0  0
   13.4690   -2.2160   21.8600 O   0  0  0  0  0  0  0  0  0  0  0  0
   12.2010   -0.7480   23.2180 C   0  0  2  0  0  0  0  0  0  0  0  0
   11.9090   -0.6130   24.6830 C   0  0  0  0  0  0  0  0  0  0  0  0
   10.6080    0.2180   24.8350 C   0  0  1  0  0  0  0  0  0  0  0  0
   10.5620    1.6360   24.2100 C   0  0  0  0  0  0  0  0  0  0  0  0
   11.1300    1.4260   22.8630 C   0  0  2  0  0  0  0  0  0  0  0  0
   10.0010    0.7970   22.3500 C   0  0  0  0  0  0  0  0  0  0  0  0
    9.8690   -0.5030   22.7850 C   0  0  2  0  0  0  0  0  0  0  0  0
    8.7940   -1.1580   22.1120 N   0  0  0  0  0  0  0  0  0  0  0  0
    8.0550   -0.3260   21.3210 C   0  0  0  0  0  0  0  0  0  0  0  0
    8.4090    0.8000   21.0090 O   0  0  0  0  0  0  0  0  0  0  0  0
    6.8830   -0.8610   20.9000 N   0  0  0  0  0  0  0  0  0  0  0  0
    6.2050   -0.1050   19.9580 C   0  0  0  0  0  0  0  0  0  0  0  0
    5.0080    0.5610   20.1340 C   0  0  0  0  0  0  0  0  0  0  0  0
    4.4100    1.3610   19.0350 C   0  0  0  0  0  0  0  0  0  0  0  0
    5.1490    1.3730   17.8560 C   0  0  0  0  0  0  0  0  0  0  0  0
    6.3110    0.7170   17.6820 N   0  0  0  0  0  0  0  0  0  0  0  0
    6.8030    0.0070   18.7180 C   0  0  0  0  0  0  0  0  0  0  0  0
    9.6370   -0.5770   24.2770 C   0  0  0  0  0  0  0  0  0  0  0  0
   11.1450   -1.2630   22.4870 C   0  0  0  0  0  0  0  0  0  0  0  0
   12.3580    0.5560   22.7650 C   0  0  0  0  0  0  0  0  0  0  0  0
  1  2  1  0
  2  3  1  0
  3  4  2  0
  5  3  1  1
  5  6  1  0
  7  6  1  6
  7  8  1  0
  9  8  1  1
  9 10  1  0
 10 11  1  0
 11 12  1  6
 12 13  1  0
 13 14  2  0
 13 15  1  0
 15 16  1  0
 16 17  2  0
 17 18  1  0
 18 19  2  0
 19 20  1  0
 16 21  1  0
 20 21  2  0
  7 22  1  0
 11 22  1  0
  5 23  1  0
 11 23  1  0
  5 24  1  0
  9 24  1  0
M  END
