pyridine_urea_355
     RDKit          3D

 26 27  0  0  0  0  0  0  0  0999 V2000
   15.4550    2.9670   18.1000 C   0  0  0  0  0  0  0  0  0  0  0  0
   15.4200    1.8480   18.4950 C   0  0  0  0  0  0  0  0  0  0  0  0
   15.4440    0.7180   19.5180 C   0  0  0  0  0  0  0  0  0  0  0  0
   14.5280   -0.5760   19.6940 C   0  0  0  0  0  0  0  0  0  0  0  0
   13.6990   -0.9110   20.8670 C   0  0  0  0  0  0  0  0  0  0  0  0
   12.5120   -1.8750   21.1130 C   0  0  0  0  0  0  0  0  0  0  0  0
   12.6060   -2.6990   22.3500 C   0  0  0  0  0  0  0  0  0  0  0  0
   12.8720   -2.2310   23.5740 C   0  0  0  0  0  0  0  0  0  0  0  0
   13.8990   -1.2960   23.5590 O   0  0  0  0  0  0  0  0  0  0  0  0
   13.5980   -0.3380   22.5940 C   0  0  0  0  0  0  0  0  0  0  0  0
   12.3720    0.0810   22.9370 C   0  0  0  0  0  0  0  0  0  0  0  0
   12.2520    1.1700   23.6400 C   0  0  0  0  0  0  0  0  0  0  0  0
   11.0720    1.6740   24.0360 C   0  0  0  0  0  0  0  0  0  0  0  0
    9.6390    1.2320   23.8400 C   0  0  0  0  0  0  0  0  0  0  0  0
    9.9780   -0.0040   23.0060 C   0  0  0  0  0  0  0  0  0  0  0  0
    8.9020   -0.7380   22.5220 N   0  0  0  0  0  0  0  0  0  0  0  0
    8.2510   -0.1120   21.5040 C   0  0  0  0  0  0  0  0  0  0  0  0
    8.7110    1.1720   21.0330 O   0  0  0  0  0  0  0  0  0  0  0  0
    7.1550   -0.7090   20.9830 N   0  0  0  0  0  0  0  0  0  0  0  0
    6.4140   -0.0270   20.0210 C   0  0  0  0  0  0  0  0  0  0  0  0
    5.1900    0.6100   20.1990 C   0  0  0  0  0  0  0  0  0  0  0  0
    4.5690    1.2770   19.1600 C   0  0  0  0  0  0  0  0  0  0  0  0
    5.1870    1.3040   17.9220 C   0  0  0  0  0  0  0  0  0  0  0  0
    6.3700    0.6890   17.7100 N   0  0  0  0  0  0  0  0  0  0  0  0
    6.9440    0.0470   18.7500 C   0  0  0  0  0  0  0  0  0  0  0  0
   11.2040   -0.5280   22.6090 C   0  0  0  0  0  0  0  0  0  0  0  0
  1  2  1  0
  2  3  1  0
  3  4  1  0
  4  5  1  0
  5  6  1  0
  6  7  1  0
  7  8  1  0
  8  9  1  0
  9 10  1  0
 10 11  1  0
 11 12  2  0
 12 13  1  0
 13 14  2  0
 14 15  1  0
 15 16  1  0
 16 17  1  0
 17 18  2  0
 17 19  1  0
 19 20  1  0
 20 21  2  0
 21 22  1  0
 22 23  2  0
 23 24  1  0
 20 25  1  0
 24 25  2  0
 11 26  1  0
 15 26  2  0
M  END
