pyridine_urea_14577
     RDKit          3D

 21 22  0  0  0  0  0  0  0  0999 V2000
    8.7480   -1.1180   27.1920 C   0  0  0  0  0  0  0  0  0  0  0  0
    7.6670   -2.1260   26.8810 C   0  0  0  0  0  0  0  0  0  0  0  0
    7.2020   -2.9000   27.9410 C   0  0  0  0  0  0  0  0  0  0  0  0
    6.4940   -1.3430   26.2540 C   0  0  0  0  0  0  0  0  0  0  0  0
    5.1130   -1.3720   26.7630 N   0  0  0  0  0  0  0  0  0  0  0  0
    4.2710   -0.5640   26.0140 N   0  0  0  0  0  0  0  0  0  0  0  0
    5.0800    0.0540   24.9440 C   0  0  0  0  0  0  0  0  0  0  0  0
    4.5350    1.1910   23.6830 S   0  0  0  0  0  0  0  0  0  0  0  0
    6.4220   -0.4610   25.1360 N   0  0  0  0  0  0  0  0  0  0  0  0
    7.6120   -0.2460   24.4450 C   0  0  0  0  0  0  0  0  0  0  0  0
    8.1930   -1.3560   23.5230 C   0  0  0  0  0  0  0  0  0  0  0  0
    8.8900   -0.8820   22.4670 N   0  0  0  0  0  0  0  0  0  0  0  0
    8.2270   -0.2080   21.4980 C   0  0  0  0  0  0  0  0  0  0  0  0
    8.5300    0.9130   21.0880 O   0  0  0  0  0  0  0  0  0  0  0  0
    7.1750   -0.9480   21.0580 N   0  0  0  0  0  0  0  0  0  0  0  0
    6.4630   -0.1360   20.0950 C   0  0  0  0  0  0  0  0  0  0  0  0
    5.3060    0.6110   20.3610 C   0  0  0  0  0  0  0  0  0  0  0  0
    4.6920    1.3630   19.3510 C   0  0  0  0  0  0  0  0  0  0  0  0
    5.2850    1.3570   18.0000 C   0  0  0  0  0  0  0  0  0  0  0  0
    6.4130    0.6290   17.7410 N   0  0  0  0  0  0  0  0  0  0  0  0
    6.9670   -0.1000   18.8010 C   0  0  0  0  0  0  0  0  0  0  0  0
  1  2  1  0
  2  3  1  0
  2  4  1  0
  4  5  2  0
  5  6  1  0
  6  7  2  0
  7  8  1  0
  4  9  1  0
  7  9  1  0
  9 10  1  0
 10 11  1  0
 11 12  1  0
 12 13  1  0
 13 14  2  0
 13 15  1  0
 15 16  1  0
 16 17  2  0
 17 18  1  0
 18 19  2  0
 19 20  1  0
 16 21  1  0
 20 21  2  0
M  END
