pyridine_urea_14253
     RDKit          3D

 22 24  0  0  0  0  0  0  0  0999 V2000
    8.8840    0.5290   21.3270 O   0  0  0  0  0  0  0  0  0  0  0  0
    8.1260   -0.3820   21.6360 C   0  0  0  0  0  0  0  0  0  0  0  0
    8.2530   -1.2040   22.8230 N   0  0  0  0  0  0  0  0  0  0  0  0
    9.4600   -1.2830   23.4740 C   0  0  0  0  0  0  0  0  0  0  0  0
    9.9640   -0.1040   23.9850 C   0  0  2  0  0  0  0  0  0  0  0  0
   11.2480    0.1660   23.5670 C   0  0  0  0  0  0  0  0  0  0  0  0
   12.2410    0.9780   23.5390 C   0  0  0  0  0  0  0  0  0  0  0  0
   13.3310    0.1380   22.6310 C   0  0  0  0  0  0  0  0  0  0  0  0
   13.1920   -1.4190   21.9060 C   0  0  0  0  0  0  0  0  0  0  0  0
   11.9060   -1.3210   22.5300 C   0  0  0  0  0  0  0  0  0  0  0  0
   12.2890   -0.2360   22.9100 C   0  0  0  0  0  0  0  0  0  0  0  0
    9.6120   -0.0890   25.2360 C   0  0  0  0  0  0  0  0  0  0  0  0
    9.0110    0.8880   24.6460 C   0  0  0  0  0  0  0  0  0  0  0  0
    9.3550    2.1620   24.8380 F   0  0  0  0  0  0  0  0  0  0  0  0
    7.6610    0.8230   24.5700 F   0  0  0  0  0  0  0  0  0  0  0  0
    7.0110   -0.7870   20.9320 N   0  0  0  0  0  0  0  0  0  0  0  0
    6.3360   -0.0340   19.9750 C   0  0  0  0  0  0  0  0  0  0  0  0
    5.1640    0.6760   20.1650 C   0  0  0  0  0  0  0  0  0  0  0  0
    4.5730    1.4040   19.1450 C   0  0  0  0  0  0  0  0  0  0  0  0
    5.2230    1.3830   17.9230 C   0  0  0  0  0  0  0  0  0  0  0  0
    6.3610    0.7090   17.6820 N   0  0  0  0  0  0  0  0  0  0  0  0
    6.8830    0.0190   18.7110 C   0  0  0  0  0  0  0  0  0  0  0  0
  1  2  2  0
  2  3  1  0
  3  4  1  0
  5  4  1  6
  5  6  1  0
  6  7  2  0
  7  8  1  0
  8  9  2  0
  9 10  1  0
  6 11  1  0
 10 11  2  0
  5 12  1  0
  5 13  1  0
 12 13  1  0
 13 14  1  0
 13 15  1  0
  2 16  1  0
 16 17  1  0
 17 18  2  0
 18 19  1  0
 19 20  2  0
 20 21  1  0
 17 22  1  0
 21 22  2  0
M  END
