pyridine_urea_2268
     RDKit          3D

 25 25  0  0  0  0  0  0  0  0999 V2000
    8.8340   -0.6590   26.4700 C   0  0  0  0  0  0  0  0  0  0  0  0
    8.7260   -0.6490   25.0470 O   0  0  0  0  0  0  0  0  0  0  0  0
    9.9300   -0.4780   24.4270 C   0  0  0  0  0  0  0  0  0  0  0  0
   10.8330    0.1590   24.9390 O   0  0  0  0  0  0  0  0  0  0  0  0
    9.9940   -1.2100   23.0720 C   0  0  2  0  0  0  0  0  0  0  0  0
   11.1600   -0.7110   22.2270 C   0  0  0  0  0  0  0  0  0  0  0  0
   12.3780   -0.0660   22.8550 C   0  0  0  0  0  0  0  0  0  0  0  0
   12.1370    1.1030   23.5340 C   0  0  0  0  0  0  0  0  0  0  0  0
   12.6390    2.1190   22.7620 N   0  0  0  0  0  0  0  0  0  0  0  0
   11.8060    3.2320   22.7370 C   0  0  0  0  0  0  0  0  0  0  0  0
   10.8180    3.3560   23.6920 N   0  0  0  0  0  0  0  0  0  0  0  0
   11.9120    4.2940   21.7520 N   0  0  0  0  0  0  0  0  0  0  0  0
   12.5190    5.4100   22.1140 N   0  0  0  0  0  0  0  0  0  0  0  0
   13.6710    5.5800   21.7330 O   0  0  0  0  0  0  0  0  0  0  0  0
   11.8710    6.0960   22.9190 O   0  0  0  0  0  0  0  0  0  0  0  0
    8.7620   -1.3110   22.5130 N   0  0  0  0  0  0  0  0  0  0  0  0
    8.2400   -0.3850   21.5990 C   0  0  0  0  0  0  0  0  0  0  0  0
    8.8600    0.6440   21.3650 O   0  0  0  0  0  0  0  0  0  0  0  0
    7.0430   -0.7520   21.0760 N   0  0  0  0  0  0  0  0  0  0  0  0
    6.3490   -0.0260   20.1120 C   0  0  0  0  0  0  0  0  0  0  0  0
    5.1470    0.6830   20.2340 C   0  0  0  0  0  0  0  0  0  0  0  0
    4.5730    1.3820   19.1570 C   0  0  0  0  0  0  0  0  0  0  0  0
    5.2100    1.3860   17.9020 C   0  0  0  0  0  0  0  0  0  0  0  0
    6.3560    0.7380   17.6810 N   0  0  0  0  0  0  0  0  0  0  0  0
    6.8970    0.0730   18.7050 C   0  0  0  0  0  0  0  0  0  0  0  0
  1  2  1  0
  2  3  1  0
  3  4  2  0
  3  5  1  0
  5  6  1  6
  6  7  1  0
  7  8  1  0
  8  9  1  0
  9 10  1  0
 10 11  2  3
 10 12  1  0
 12 13  1  0
 13 14  2  0
 13 15  1  0
  5 16  1  0
 16 17  1  0
 17 18  2  0
 17 19  1  0
 19 20  1  0
 20 21  2  0
 21 22  1  0
 22 23  2  0
 23 24  1  0
 20 25  1  0
 24 25  2  0
M  CHG  2  13   1  15  -1
M  END
