pyridine_urea_3423
     RDKit          3D

 19 20  0  0  0  0  0  0  0  0999 V2000
   10.3510    0.1200   24.3420 C   0  0  0  0  0  0  0  0  0  0  0  0
    9.9960   -0.9650   23.3930 C   0  0  1  0  0  0  0  0  0  0  0  0
    8.6360   -0.6740   22.8910 N   0  0  0  0  0  0  0  0  0  0  0  0
    8.4700    0.0750   21.6150 C   0  0  0  0  0  0  0  0  0  0  0  0
    9.1350    1.0770   21.1870 O   0  0  0  0  0  0  0  0  0  0  0  0
    7.4610   -0.4730   20.9040 N   0  0  0  0  0  0  0  0  0  0  0  0
    6.7190    0.1550   19.8520 C   0  0  0  0  0  0  0  0  0  0  0  0
    5.4940    0.7770   20.1330 C   0  0  0  0  0  0  0  0  0  0  0  0
    4.7400    1.4610   18.9580 C   0  0  0  0  0  0  0  0  0  0  0  0
    5.3010    1.4620   17.7070 C   0  0  0  0  0  0  0  0  0  0  0  0
    6.4730    0.8600   17.4830 N   0  0  0  0  0  0  0  0  0  0  0  0
    7.1390    0.2230   18.5110 C   0  0  0  0  0  0  0  0  0  0  0  0
   11.0410   -1.2480   22.2460 C   0  0  0  0  0  0  0  0  0  0  0  0
   10.8940   -2.0440   21.3400 C   0  0  0  0  0  0  0  0  0  0  0  0
   11.8800   -1.1100   21.7830 C   0  0  0  0  0  0  0  0  0  0  0  0
   11.4420   -0.9730   22.3280 C   0  0  0  0  0  0  0  0  0  0  0  0
   12.3540    0.0410   22.9500 C   0  0  0  0  0  0  0  0  0  0  0  0
   13.8640    0.7440   22.6920 Cl  0  0  0  0  0  0  0  0  0  0  0  0
   12.3410   -0.7100   21.9900 C   0  0  0  0  0  0  0  0  0  0  0  0
  2  1  1  6
  2  3  1  0
  3  4  1  0
  4  5  2  0
  4  6  1  0
  6  7  1  0
  7  8  2  0
  8  9  1  0
  9 10  2  0
 10 11  1  0
  7 12  1  0
 11 12  2  0
  2 13  1  0
 13 14  2  0
 14 15  1  0
 15 16  2  0
 16 17  1  0
 17 18  1  0
 13 19  1  0
 17 19  2  0
M  END
