pyridine_urea_2862
     RDKit          3D

 22 23  0  0  0  0  0  0  0  0999 V2000
   13.7850   -1.3900   20.4700 C   0  0  0  0  0  0  0  0  0  0  0  0
   13.0060   -2.6530   20.7600 C   0  0  0  0  0  0  0  0  0  0  0  0
   13.0240   -2.6770   22.1300 N   0  0  0  0  0  0  0  0  0  0  0  0
   13.4900   -1.3360   22.0670 C   0  0  0  0  0  0  0  0  0  0  0  0
   13.8080   -0.8780   21.0120 O   0  0  0  0  0  0  0  0  0  0  0  0
   13.4790   -0.6390   23.3110 N   0  0  0  0  0  0  0  0  0  0  0  0
   12.2350    0.0030   23.2890 C   0  0  0  0  0  0  0  0  0  0  0  0
   12.1520    1.4370   23.6620 C   0  0  0  0  0  0  0  0  0  0  0  0
   10.9280    2.0110   23.6520 C   0  0  0  0  0  0  0  0  0  0  0  0
    9.7600    1.1530   23.2410 C   0  0  0  0  0  0  0  0  0  0  0  0
    9.9090   -0.3010   22.8430 C   0  0  0  0  0  0  0  0  0  0  0  0
    8.8400   -0.9870   22.4620 N   0  0  0  0  0  0  0  0  0  0  0  0
    8.2120   -0.2340   21.5490 C   0  0  0  0  0  0  0  0  0  0  0  0
    8.6550    0.8310   21.1370 O   0  0  0  0  0  0  0  0  0  0  0  0
    6.9420   -0.7800   21.0970 N   0  0  0  0  0  0  0  0  0  0  0  0
    6.3390   -0.0920   20.0500 C   0  0  0  0  0  0  0  0  0  0  0  0
    5.0370    0.6590   20.3070 C   0  0  0  0  0  0  0  0  0  0  0  0
    4.4940    1.3890   19.0880 C   0  0  0  0  0  0  0  0  0  0  0  0
    5.1870    1.3200   17.8930 C   0  0  0  0  0  0  0  0  0  0  0  0
    6.3290    0.6320   17.7340 N   0  0  0  0  0  0  0  0  0  0  0  0
    6.8690   -0.0400   18.7740 C   0  0  0  0  0  0  0  0  0  0  0  0
   11.1790   -0.8190   22.8940 C   0  0  0  0  0  0  0  0  0  0  0  0
  1  2  1  0
  2  3  1  0
  3  4  1  0
  4  5  2  0
  4  6  1  0
  6  7  1  0
  7  8  2  0
  8  9  1  0
  9 10  2  0
 10 11  1  0
 11 12  1  0
 12 13  1  0
 13 14  2  0
 13 15  1  0
 15 16  1  0
 16 17  2  0
 17 18  1  0
 18 19  2  0
 19 20  1  0
 16 21  1  0
 20 21  2  0
  7 22  1  0
 11 22  2  0
M  END
