pyridine_urea_61
     RDKit          3D

 23 25  0  0  0  0  0  0  0  0999 V2000
    8.7330    1.4230   21.1750 O   0  0  0  0  0  0  0  0  0  0  0  0
    8.5530    0.2100   21.3000 C   0  0  0  0  0  0  0  0  0  0  0  0
    7.3260   -0.3930   21.1500 N   0  0  0  0  0  0  0  0  0  0  0  0
    6.5780    0.1460   20.0500 C   0  0  0  0  0  0  0  0  0  0  0  0
    5.3110    0.9040   20.4110 C   0  0  0  0  0  0  0  0  0  0  0  0
    4.5870    1.4670   19.2430 C   0  0  0  0  0  0  0  0  0  0  0  0
    5.1090    1.2610   17.9820 C   0  0  0  0  0  0  0  0  0  0  0  0
    6.2300    0.5730   17.7150 N   0  0  0  0  0  0  0  0  0  0  0  0
    6.9290    0.0360   18.7310 C   0  0  0  0  0  0  0  0  0  0  0  0
    9.5700   -0.6720   21.5470 N   0  0  0  0  0  0  0  0  0  0  0  0
    9.7670   -1.2670   22.8690 C   0  0  1  0  0  0  0  0  0  0  0  0
    8.6780   -1.8090   23.4360 C   0  0  0  0  0  0  0  0  0  0  0  0
    7.7950   -0.6380   23.7300 C   0  0  0  0  0  0  0  0  0  0  0  0
    6.5390   -0.8580   24.3360 C   0  0  0  0  0  0  0  0  0  0  0  0
    6.1040   -2.1690   24.6670 C   0  0  0  0  0  0  0  0  0  0  0  0
    6.9340   -3.2470   24.3880 C   0  0  0  0  0  0  0  0  0  0  0  0
    8.2760   -3.1000   23.7510 C   0  0  0  0  0  0  0  0  0  0  0  0
   10.9810   -2.2510   22.9320 C   0  0  0  0  0  0  0  0  0  0  0  0
   11.1970   -1.0170   23.5800 C   0  0  1  0  0  0  0  0  0  0  0  0
   12.2980   -0.3260   23.0850 C   0  0  0  0  0  0  0  0  0  0  0  0
   13.2330   -0.2490   24.0340 F   0  0  0  0  0  0  0  0  0  0  0  0
   12.9070   -0.8530   22.0130 F   0  0  0  0  0  0  0  0  0  0  0  0
   11.9530    0.9510   22.7870 F   0  0  0  0  0  0  0  0  0  0  0  0
  1  2  2  0
  2  3  1  0
  3  4  1  0
  4  5  2  0
  5  6  1  0
  6  7  2  0
  7  8  1  0
  4  9  1  0
  8  9  2  0
  2 10  1  0
 11 10  1  6
 11 12  1  0
 12 13  2  0
 13 14  1  0
 14 15  2  0
 15 16  1  0
 12 17  1  0
 16 17  2  0
 11 18  1  0
 11 19  1  0
 18 19  1  0
 19 20  1  6
 20 21  1  0
 20 22  1  0
 20 23  1  0
M  END
