pyridine_urea_5875
     RDKit          3D

 28 31  0  0  0  0  0  0  0  0999 V2000
    8.0570    0.4450   20.4970 O   0  0  0  0  0  0  0  0  0  0  0  0
    7.7340   -0.6810   20.8500 C   0  0  0  0  0  0  0  0  0  0  0  0
    6.4240   -1.1410   20.5660 N   0  0  0  0  0  0  0  0  0  0  0  0
    5.9150   -0.2280   19.6980 C   0  0  0  0  0  0  0  0  0  0  0  0
    4.7510    0.4690   19.9550 C   0  0  0  0  0  0  0  0  0  0  0  0
    4.3290    1.3890   19.0030 C   0  0  0  0  0  0  0  0  0  0  0  0
    5.0940    1.5670   17.8450 C   0  0  0  0  0  0  0  0  0  0  0  0
    6.2250    0.8910   17.5960 N   0  0  0  0  0  0  0  0  0  0  0  0
    6.6070    0.0070   18.5400 C   0  0  0  0  0  0  0  0  0  0  0  0
    8.4890   -1.5560   21.5430 N   0  0  0  0  0  0  0  0  0  0  0  0
    9.2160   -0.7940   22.4920 C   0  0  2  0  0  0  0  0  0  0  0  0
    9.9200    0.2260   21.7270 C   0  0  0  0  0  0  0  0  0  0  0  0
   10.7890   -0.8050   22.0060 C   0  0  0  0  0  0  0  0  0  0  0  0
   10.1300   -1.7830   22.7620 C   0  0  0  0  0  0  0  0  0  0  0  0
    8.7300   -1.5520   23.0960 C   0  0  0  0  0  0  0  0  0  0  0  0
    8.0570   -0.3990   22.6950 C   0  0  0  0  0  0  0  0  0  0  0  0
    8.6290    0.6280   21.9410 C   0  0  0  0  0  0  0  0  0  0  0  0
    6.6370   -0.3910   23.1730 C   0  0  0  0  0  0  0  0  0  0  0  0
    6.5990   -1.6670   23.7660 C   0  0  0  0  0  0  0  0  0  0  0  0
    7.9490   -2.2960   23.7550 O   0  0  0  0  0  0  0  0  0  0  0  0
   10.1200   -1.2110   23.2980 C   0  0  0  0  0  0  0  0  0  0  0  0
   11.3120   -1.7160   22.8020 C   0  0  0  0  0  0  0  0  0  0  0  0
   12.2700   -2.1120   23.6850 C   0  0  0  0  0  0  0  0  0  0  0  0
   13.7020   -2.7390   23.1700 Cl  0  0  0  0  0  0  0  0  0  0  0  0
   12.0570   -1.9850   24.9990 C   0  0  0  0  0  0  0  0  0  0  0  0
   10.8380   -1.4640   25.3720 C   0  0  0  0  0  0  0  0  0  0  0  0
    9.8580   -1.0950   24.5880 C   0  0  0  0  0  0  0  0  0  0  0  0
    8.3960   -0.4870   25.3250 Cl  0  0  0  0  0  0  0  0  0  0  0  0
  1  2  2  0
  2  3  1  0
  3  4  1  0
  4  5  2  0
  5  6  1  0
  6  7  2  0
  7  8  1  0
  4  9  1  0
  8  9  2  0
  2 10  1  0
 11 10  1  6
 11 12  1  0
 12 13  2  0
 13 14  1  0
 14 15  2  0
 15 16  1  0
 12 17  1  0
 16 17  2  0
 16 18  1  0
 18 19  1  0
 15 20  1  0
 19 20  1  0
 11 21  1  0
 21 22  2  0
 22 23  1  0
 23 24  1  0
 23 25  2  0
 25 26  1  0
 21 27  1  0
 26 27  2  0
 27 28  1  0
M  END
