pyridine_urea_1947
     RDKit          3D

 24 25  0  0  0  0  0  0  0  0999 V2000
   13.2950   -1.8140   21.3220 C   0  0  0  0  0  0  0  0  0  0  0  0
   13.8910   -1.2880   22.5140 O   0  0  0  0  0  0  0  0  0  0  0  0
   13.5510    0.0030   22.7630 C   0  0  0  0  0  0  0  0  0  0  0  0
   14.2520    0.9710   22.7360 O   0  0  0  0  0  0  0  0  0  0  0  0
   12.1400   -0.0120   23.0030 C   0  0  0  0  0  0  0  0  0  0  0  0
   11.6460   -1.1200   22.1840 C   0  0  0  0  0  0  0  0  0  0  0  0
   10.2420   -1.3860   22.1700 C   0  0  0  0  0  0  0  0  0  0  0  0
    9.3420   -0.6530   22.8950 C   0  0  0  0  0  0  0  0  0  0  0  0
    8.0720   -0.9660   22.7880 N   0  0  0  0  0  0  0  0  0  0  0  0
    7.7960   -0.2930   21.6470 C   0  0  0  0  0  0  0  0  0  0  0  0
    8.5720    0.7520   21.2170 O   0  0  0  0  0  0  0  0  0  0  0  0
    6.7020   -0.7650   21.0080 N   0  0  0  0  0  0  0  0  0  0  0  0
    6.1930   -0.0520   19.9410 C   0  0  0  0  0  0  0  0  0  0  0  0
    5.0080    0.6510   20.0990 C   0  0  0  0  0  0  0  0  0  0  0  0
    4.4850    1.3840   19.0580 C   0  0  0  0  0  0  0  0  0  0  0  0
    5.1810    1.3980   17.8460 C   0  0  0  0  0  0  0  0  0  0  0  0
    6.3280    0.7200   17.6670 N   0  0  0  0  0  0  0  0  0  0  0  0
    6.8060    0.0140   18.7110 C   0  0  0  0  0  0  0  0  0  0  0  0
    9.9750    0.4980   23.7600 C   0  0  0  0  0  0  0  0  0  0  0  0
    9.1750    1.2990   24.5420 C   0  0  0  0  0  0  0  0  0  0  0  0
    8.0700    0.7340   25.1890 C   0  0  0  0  0  0  0  0  0  0  0  0
    8.2630    0.1150   26.4210 C   0  0  0  0  0  0  0  0  0  0  0  0
    7.0160    1.8250   25.3620 C   0  0  0  0  0  0  0  0  0  0  0  0
   11.3500    0.7750   23.7770 C   0  0  0  0  0  0  0  0  0  0  0  0
  1  2  1  0
  2  3  1  0
  3  4  2  0
  3  5  1  0
  5  6  2  0
  6  7  1  0
  7  8  2  0
  8  9  1  0
  9 10  1  0
 10 11  2  0
 10 12  1  0
 12 13  1  0
 13 14  2  0
 14 15  1  0
 15 16  2  0
 16 17  1  0
 13 18  1  0
 17 18  2  0
  8 19  1  0
 19 20  1  0
 20 21  1  0
 21 22  1  0
 21 23  1  0
  5 24  1  0
 19 24  2  0
M  END
