pyridine_urea_2340
     RDKit          3D

 25 27  0  0  0  0  0  0  0  0999 V2000
    6.8410   -0.2820   24.2210 C   0  0  0  0  0  0  0  0  0  0  0  0
    7.6800   -1.3540   24.9050 C   0  0  1  0  0  0  0  0  0  0  0  0
    7.0070   -2.5690   24.8080 C   0  0  0  0  0  0  0  0  0  0  0  0
    7.3240   -3.3730   23.7300 C   0  0  0  0  0  0  0  0  0  0  0  0
    8.6620   -3.5360   23.4480 C   0  0  0  0  0  0  0  0  0  0  0  0
    9.4400   -2.2880   23.4800 N   0  0  0  0  0  0  0  0  0  0  0  0
   10.3740   -1.7840   22.5150 C   0  0  0  0  0  0  0  0  0  0  0  0
   11.6910   -1.5330   22.9810 C   0  0  0  0  0  0  0  0  0  0  0  0
   12.8580   -0.7440   22.3590 C   0  0  0  0  0  0  0  0  0  0  0  0
   12.6710   -1.4210   23.4780 C   0  0  0  0  0  0  0  0  0  0  0  0
   11.2730   -1.8630   23.3330 C   0  0  0  0  0  0  0  0  0  0  0  0
   10.4730   -1.5250   22.1570 C   0  0  0  0  0  0  0  0  0  0  0  0
    9.3880   -0.6600   22.4190 N   0  0  0  0  0  0  0  0  0  0  0  0
    8.6130    0.1110   21.4790 C   0  0  0  0  0  0  0  0  0  0  0  0
    8.9290    1.2680   21.1570 O   0  0  0  0  0  0  0  0  0  0  0  0
    7.5150   -0.5650   21.0200 N   0  0  0  0  0  0  0  0  0  0  0  0
    6.7110    0.0630   20.1140 C   0  0  0  0  0  0  0  0  0  0  0  0
    5.5770    0.8490   20.4270 C   0  0  0  0  0  0  0  0  0  0  0  0
    4.8290    1.4560   19.4020 C   0  0  0  0  0  0  0  0  0  0  0  0
    5.2030    1.2830   18.0890 C   0  0  0  0  0  0  0  0  0  0  0  0
    6.2750    0.5320   17.7600 N   0  0  0  0  0  0  0  0  0  0  0  0
    7.0240   -0.0770   18.7670 C   0  0  0  0  0  0  0  0  0  0  0  0
   11.0320   -2.5840   24.4570 C   0  0  0  0  0  0  0  0  0  0  0  0
   12.2760   -2.0610   24.3610 C   0  0  0  0  0  0  0  0  0  0  0  0
    9.0420   -1.3350   24.5650 C   0  0  0  0  0  0  0  0  0  0  0  0
  2  1  1  6
  2  3  1  0
  3  4  1  0
  4  5  1  0
  5  6  1  0
  6  7  1  0
  7  8  1  0
  8  9  2  0
  9 10  1  0
 10 11  2  0
 11 12  1  0
 12 13  1  0
 13 14  1  0
 14 15  2  0
 14 16  1  0
 16 17  1  0
 17 18  2  0
 18 19  1  0
 19 20  2  0
 20 21  1  0
 17 22  1  0
 21 22  2  0
 11 23  1  0
  8 24  1  0
 23 24  2  0
  2 25  1  0
  6 25  1  0
M  END
