pyridine_urea_2600
     RDKit          3D

 23 26  0  0  0  0  0  0  0  0999 V2000
    8.8500    1.2770   21.1220 O   0  0  0  0  0  0  0  0  0  0  0  0
    8.4470    0.1890   21.5230 C   0  0  0  0  0  0  0  0  0  0  0  0
    7.3400   -0.4650   21.0510 N   0  0  0  0  0  0  0  0  0  0  0  0
    6.5830    0.1000   20.0240 C   0  0  0  0  0  0  0  0  0  0  0  0
    5.4130    0.7980   20.3400 C   0  0  0  0  0  0  0  0  0  0  0  0
    4.6660    1.3880   19.3220 C   0  0  0  0  0  0  0  0  0  0  0  0
    5.1220    1.2530   18.0300 C   0  0  0  0  0  0  0  0  0  0  0  0
    6.2300    0.5810   17.7020 N   0  0  0  0  0  0  0  0  0  0  0  0
    6.9330    0.0210   18.7000 C   0  0  0  0  0  0  0  0  0  0  0  0
    9.0960   -0.5030   22.5180 N   0  0  0  0  0  0  0  0  0  0  0  0
   10.2940    0.1160   23.1300 C   0  0  0  0  0  0  0  0  0  0  0  0
   10.4310    1.6290   22.8610 C   0  0  2  0  0  0  0  0  0  0  0  0
   11.7430    2.0820   23.0150 C   0  0  0  0  0  0  0  0  0  0  0  0
   11.9300    3.4330   22.7240 C   0  0  0  0  0  0  0  0  0  0  0  0
   10.9850    4.3590   23.1610 C   0  0  0  0  0  0  0  0  0  0  0  0
    9.8270    3.7890   23.6990 C   0  0  0  0  0  0  0  0  0  0  0  0
    8.9470    4.6340   24.3910 C   0  0  0  0  0  0  0  0  0  0  0  0
    7.7820    4.1330   24.9600 C   0  0  0  0  0  0  0  0  0  0  0  0
    7.4890    2.7770   24.8390 C   0  0  0  0  0  0  0  0  0  0  0  0
    8.3480    1.9240   24.1530 C   0  0  0  0  0  0  0  0  0  0  0  0
    9.5150    2.4130   23.5790 C   0  0  0  0  0  0  0  0  0  0  0  0
   11.2680   -0.6740   24.0960 C   0  0  0  0  0  0  0  0  0  0  0  0
   11.4460   -0.5940   22.7970 C   0  0  0  0  0  0  0  0  0  0  0  0
  1  2  2  0
  2  3  1  0
  3  4  1  0
  4  5  2  0
  5  6  1  0
  6  7  2  0
  7  8  1  0
  4  9  1  0
  8  9  2  0
  2 10  1  0
 11 10  1  0
 12 11  1  1
 12 13  1  0
 13 14  1  0
 14 15  1  0
 15 16  1  0
 16 17  2  0
 17 18  1  0
 18 19  2  0
 19 20  1  0
 12 21  1  0
 16 21  1  0
 20 21  2  0
 11 22  1  0
 11 23  1  0
 22 23  1  0
M  END
