pyridine_urea_8501
     RDKit          3D

 22 23  0  0  0  0  0  0  0  0999 V2000
   10.1920    5.1180   25.4020 C   0  0  0  0  0  0  0  0  0  0  0  0
   10.9850    4.7550   24.1810 C   0  0  0  0  0  0  0  0  0  0  0  0
   10.7420    3.6130   23.4180 C   0  0  0  0  0  0  0  0  0  0  0  0
    9.5830    3.4690   22.9860 O   0  0  0  0  0  0  0  0  0  0  0  0
   11.8530    2.6880   23.2020 N   0  0  0  0  0  0  0  0  0  0  0  0
   11.6240    1.3500   22.9340 C   0  0  0  0  0  0  0  0  0  0  0  0
   10.3400    0.8680   22.8160 C   0  0  0  0  0  0  0  0  0  0  0  0
   10.1520   -0.5920   22.4870 C   0  0  0  0  0  0  0  0  0  0  0  0
    8.8780   -1.0560   22.3200 N   0  0  0  0  0  0  0  0  0  0  0  0
    8.0590   -0.2960   21.4590 C   0  0  0  0  0  0  0  0  0  0  0  0
    8.3720    0.8490   21.1710 O   0  0  0  0  0  0  0  0  0  0  0  0
    6.9650   -0.9210   21.0060 N   0  0  0  0  0  0  0  0  0  0  0  0
    6.3160   -0.1810   20.0650 C   0  0  0  0  0  0  0  0  0  0  0  0
    5.1190    0.5210   20.2620 C   0  0  0  0  0  0  0  0  0  0  0  0
    4.5690    1.2470   19.2170 C   0  0  0  0  0  0  0  0  0  0  0  0
    5.2260    1.2600   17.9920 C   0  0  0  0  0  0  0  0  0  0  0  0
    6.3740    0.5910   17.7730 N   0  0  0  0  0  0  0  0  0  0  0  0
    6.8810   -0.1050   18.8060 C   0  0  0  0  0  0  0  0  0  0  0  0
   11.3430   -1.4730   22.3250 C   0  0  0  0  0  0  0  0  0  0  0  0
   12.5890   -0.9510   22.4610 C   0  0  0  0  0  0  0  0  0  0  0  0
   12.8130    0.3880   22.7420 C   0  0  0  0  0  0  0  0  0  0  0  0
   14.0130    0.8290   22.8250 F   0  0  0  0  0  0  0  0  0  0  0  0
  1  2  2  3
  2  3  1  0
  3  4  2  0
  3  5  1  0
  5  6  1  0
  6  7  2  0
  7  8  1  0
  8  9  1  0
  9 10  1  0
 10 11  2  0
 10 12  1  0
 12 13  1  0
 13 14  2  0
 14 15  1  0
 15 16  2  0
 16 17  1  0
 13 18  1  0
 17 18  2  0
  8 19  2  0
 19 20  1  0
  6 21  1  0
 20 21  2  0
 21 22  1  0
M  END
