pyridine_urea_4307
     RDKit          3D

 24 25  0  0  0  0  0  0  0  0999 V2000
   11.8420   -2.4350   24.2360 O   0  0  0  0  0  0  0  0  0  0  0  0
   11.8080   -2.0490   23.0740 C   0  0  0  0  0  0  0  0  0  0  0  0
   12.9070   -1.1680   22.4790 C   0  0  0  0  0  0  0  0  0  0  0  0
   12.6840    0.2900   22.8540 C   0  0  0  0  0  0  0  0  0  0  0  0
   12.0320    0.5140   24.1820 C   0  0  0  0  0  0  0  0  0  0  0  0
   10.5160    0.5850   24.1290 C   0  0  0  0  0  0  0  0  0  0  0  0
    9.9060   -0.4270   23.1950 C   0  0  0  0  0  0  0  0  0  0  0  0
    8.5650    0.0440   22.8690 N   0  0  0  0  0  0  0  0  0  0  0  0
    8.2880    0.5220   21.6120 C   0  0  0  0  0  0  0  0  0  0  0  0
    8.9090    1.4610   21.1100 O   0  0  0  0  0  0  0  0  0  0  0  0
    7.1810   -0.2330   21.0400 N   0  0  0  0  0  0  0  0  0  0  0  0
    6.4340    0.3430   20.0280 C   0  0  0  0  0  0  0  0  0  0  0  0
    5.2760    1.0940   20.2410 C   0  0  0  0  0  0  0  0  0  0  0  0
    4.6620    1.6130   19.1290 C   0  0  0  0  0  0  0  0  0  0  0  0
    5.1810    1.3870   17.8820 C   0  0  0  0  0  0  0  0  0  0  0  0
    6.2760    0.6670   17.6400 N   0  0  0  0  0  0  0  0  0  0  0  0
    6.8790    0.1570   18.7280 C   0  0  0  0  0  0  0  0  0  0  0  0
   10.8240   -2.3500   22.1530 N   0  0  0  0  0  0  0  0  0  0  0  0
    9.4120   -2.6670   22.4330 C   0  0  0  0  0  0  0  0  0  0  0  0
    8.4450   -2.1260   21.6190 C   0  0  0  0  0  0  0  0  0  0  0  0
    6.9980   -2.4130   21.8330 C   0  0  0  0  0  0  0  0  0  0  0  0
    6.6510   -3.2460   22.8870 C   0  0  0  0  0  0  0  0  0  0  0  0
    7.6470   -3.7750   23.6950 C   0  0  0  0  0  0  0  0  0  0  0  0
    9.0170   -3.4950   23.4850 C   0  0  0  0  0  0  0  0  0  0  0  0
  1  2  2  0
  2  3  1  0
  3  4  1  0
  4  5  1  0
  5  6  1  0
  6  7  1  0
  7  8  1  0
  8  9  1  0
  9 10  2  0
  9 11  1  0
 11 12  1  0
 12 13  2  0
 13 14  1  0
 14 15  2  0
 15 16  1  0
 12 17  1  0
 16 17  2  0
  2 18  1  0
 18 19  1  0
 19 20  2  0
 20 21  1  0
 21 22  2  0
 22 23  1  0
 19 24  1  0
 23 24  2  0
M  END
