pyridine_urea_5863
     RDKit          3D

 20 22  0  0  0  0  0  0  0  0999 V2000
    8.8290    0.6900   21.3890 O   0  0  0  0  0  0  0  0  0  0  0  0
    8.2420   -0.3710   21.5560 C   0  0  0  0  0  0  0  0  0  0  0  0
    8.7220   -1.4430   22.4120 N   0  0  0  0  0  0  0  0  0  0  0  0
    9.8820   -1.2540   23.1440 C   0  0  0  0  0  0  0  0  0  0  0  0
   11.0570   -1.1590   22.4170 C   0  0  2  0  0  0  0  0  0  0  0  0
   11.6620   -2.3820   22.3260 C   0  0  0  0  0  0  0  0  0  0  0  0
   12.7570   -2.3220   21.4730 C   0  0  0  0  0  0  0  0  0  0  0  0
   13.3620   -1.2710   21.3780 O   0  0  0  0  0  0  0  0  0  0  0  0
   13.3510   -0.4690   22.5070 C   0  0  0  0  0  0  0  0  0  0  0  0
   11.9200   -0.2310   22.9240 C   0  0  0  0  0  0  0  0  0  0  0  0
   11.8850   -0.1160   24.4080 C   0  0  0  0  0  0  0  0  0  0  0  0
   11.2570    1.0600   24.2030 C   0  0  0  0  0  0  0  0  0  0  0  0
   11.3430    1.0600   22.8260 C   0  0  0  0  0  0  0  0  0  0  0  0
    7.0350   -0.7190   20.9830 N   0  0  0  0  0  0  0  0  0  0  0  0
    6.3460   -0.0020   20.0360 C   0  0  0  0  0  0  0  0  0  0  0  0
    5.1640    0.6970   20.2560 C   0  0  0  0  0  0  0  0  0  0  0  0
    4.6310    1.3680   19.1720 C   0  0  0  0  0  0  0  0  0  0  0  0
    5.2410    1.3440   17.9380 C   0  0  0  0  0  0  0  0  0  0  0  0
    6.3730    0.6780   17.6950 N   0  0  0  0  0  0  0  0  0  0  0  0
    6.8750    0.0290   18.7600 C   0  0  0  0  0  0  0  0  0  0  0  0
  1  2  2  0
  2  3  1  0
  3  4  1  0
  5  4  1  1
  5  6  1  0
  6  7  1  0
  7  8  1  0
  8  9  1  0
  5 10  1  0
 10  9  1  0
 10 11  1  0
 11 12  1  0
 10 13  1  0
 12 13  1  0
  2 14  1  0
 14 15  1  0
 15 16  2  0
 16 17  1  0
 17 18  2  0
 18 19  1  0
 15 20  1  0
 19 20  2  0
M  END
