pyridine_urea_10389
     RDKit          3D

 22 24  0  0  0  0  0  0  0  0999 V2000
    9.2740   -0.9020   21.0970 O   0  0  0  0  0  0  0  0  0  0  0  0
    8.2930   -0.3450   21.5010 C   0  0  0  0  0  0  0  0  0  0  0  0
    8.3440    0.6730   22.3980 N   0  0  0  0  0  0  0  0  0  0  0  0
    9.5010    1.4330   22.6310 C   0  0  0  0  0  0  0  0  0  0  0  0
   10.7440    0.6910   23.0570 C   0  0  0  0  0  0  0  0  0  0  0  0
   12.0270    1.0340   22.7490 N   0  0  0  0  0  0  0  0  0  0  0  0
   12.6610    0.0020   23.3920 N   0  0  0  0  0  0  0  0  0  0  0  0
   11.5560   -0.7160   23.9380 C   0  0  0  0  0  0  0  0  0  0  0  0
   11.7350   -1.8570   24.6440 N   0  0  0  0  0  0  0  0  0  0  0  0
   12.9720   -2.4270   24.7270 C   0  0  0  0  0  0  0  0  0  0  0  0
   13.5030   -2.3980   23.4610 C   0  0  0  0  0  0  0  0  0  0  0  0
   12.5810   -2.3080   22.3940 C   0  0  0  0  0  0  0  0  0  0  0  0
   11.1960   -2.4520   22.6670 C   0  0  0  0  0  0  0  0  0  0  0  0
   10.9150   -2.7510   24.0040 C   0  0  0  0  0  0  0  0  0  0  0  0
   10.4680   -0.2560   23.7200 O   0  0  0  0  0  0  0  0  0  0  0  0
    7.0030   -0.6120   21.1250 N   0  0  0  0  0  0  0  0  0  0  0  0
    6.3260    0.0650   20.1050 C   0  0  0  0  0  0  0  0  0  0  0  0
    5.1280    0.7910   20.2850 C   0  0  0  0  0  0  0  0  0  0  0  0
    4.4820    1.4780   19.2140 C   0  0  0  0  0  0  0  0  0  0  0  0
    5.2250    1.3380   17.8910 C   0  0  0  0  0  0  0  0  0  0  0  0
    6.3520    0.6520   17.7030 N   0  0  0  0  0  0  0  0  0  0  0  0
    6.8860    0.0130   18.8500 C   0  0  0  0  0  0  0  0  0  0  0  0
  1  2  2  0
  2  3  1  0
  3  4  1  0
  4  5  1  0
  5  6  2  0
  6  7  1  0
  7  8  2  0
  8  9  1  0
  9 10  1  0
 10 11  1  0
 11 12  1  0
 12 13  1  0
  9 14  1  0
 13 14  1  0
  5 15  1  0
  8 15  1  0
  2 16  1  0
 16 17  1  0
 17 18  2  0
 18 19  1  0
 19 20  2  0
 20 21  1  0
 17 22  1  0
 21 22  2  0
M  END
