pyridine_urea_1578
     RDKit          3D

 19 20  0  0  0  0  0  0  0  0999 V2000
   10.3610   -1.2290   21.5640 C   0  0  0  0  0  0  0  0  0  0  0  0
   10.3300   -0.2910   22.6920 C   0  0  1  0  0  0  0  0  0  0  0  0
    8.9280   -0.0410   22.8720 N   0  0  0  0  0  0  0  0  0  0  0  0
    8.3670    0.4800   21.7220 C   0  0  0  0  0  0  0  0  0  0  0  0
    8.8290    1.5040   21.2080 O   0  0  0  0  0  0  0  0  0  0  0  0
    7.3020   -0.2440   21.2280 N   0  0  0  0  0  0  0  0  0  0  0  0
    6.5770    0.2190   20.1210 C   0  0  0  0  0  0  0  0  0  0  0  0
    5.4240    0.9530   20.3500 C   0  0  0  0  0  0  0  0  0  0  0  0
    4.6930    1.4510   19.2720 C   0  0  0  0  0  0  0  0  0  0  0  0
    5.1510    1.1940   17.9930 C   0  0  0  0  0  0  0  0  0  0  0  0
    6.2520    0.4820   17.7420 N   0  0  0  0  0  0  0  0  0  0  0  0
    6.9420    0.0070   18.8020 C   0  0  0  0  0  0  0  0  0  0  0  0
   11.0430   -1.1000   23.6970 C   0  0  0  0  0  0  0  0  0  0  0  0
   10.6770   -1.9880   24.4770 C   0  0  0  0  0  0  0  0  0  0  0  0
   12.0570   -1.5680   24.3950 C   0  0  0  0  0  0  0  0  0  0  0  0
   11.6000   -0.5750   23.3400 C   0  0  0  0  0  0  0  0  0  0  0  0
   12.9430   -0.1380   23.2210 C   0  0  0  0  0  0  0  0  0  0  0  0
   12.4960   -1.1370   24.0560 C   0  0  0  0  0  0  0  0  0  0  0  0
   13.4750   -2.2350   25.2540 Br  0  0  0  0  0  0  0  0  0  0  0  0
  2  1  1  6
  2  3  1  0
  3  4  1  0
  4  5  2  0
  4  6  1  0
  6  7  1  0
  7  8  2  0
  8  9  1  0
  9 10  2  0
 10 11  1  0
  7 12  1  0
 11 12  2  0
  2 13  1  0
 13 14  2  0
 14 15  1  0
 15 16  2  0
 16 17  1  0
 13 18  1  0
 17 18  2  0
 18 19  1  0
M  END
