pyridine_urea_1162
     RDKit          3D

 21 22  0  0  0  0  0  0  0  0999 V2000
   10.8940    0.0520   24.3680 C   0  0  0  0  0  0  0  0  0  0  0  0
   10.7270   -0.4600   22.9030 C   0  0  2  0  0  0  0  0  0  0  0  0
    9.2770   -0.6080   22.5080 N   0  0  0  0  0  0  0  0  0  0  0  0
    8.5760    0.0730   21.4920 C   0  0  0  0  0  0  0  0  0  0  0  0
    8.9090    1.4070   21.0790 O   0  0  0  0  0  0  0  0  0  0  0  0
    7.5520   -0.7270   21.0180 N   0  0  0  0  0  0  0  0  0  0  0  0
    6.7500   -0.0190   20.1340 C   0  0  0  0  0  0  0  0  0  0  0  0
    5.6310    0.7770   20.4190 C   0  0  0  0  0  0  0  0  0  0  0  0
    4.8930    1.4440   19.4410 C   0  0  0  0  0  0  0  0  0  0  0  0
    5.2890    1.3100   18.1270 C   0  0  0  0  0  0  0  0  0  0  0  0
    6.3450    0.5630   17.7860 N   0  0  0  0  0  0  0  0  0  0  0  0
    7.0330   -0.0720   18.7710 C   0  0  0  0  0  0  0  0  0  0  0  0
   11.3350   -1.8380   22.8840 C   0  0  0  0  0  0  0  0  0  0  0  0
   12.4700   -1.1070   22.6980 C   0  0  0  0  0  0  0  0  0  0  0  0
   13.6770   -1.6250   22.5460 F   0  0  0  0  0  0  0  0  0  0  0  0
   12.1840    0.2410   22.6950 C   0  0  0  0  0  0  0  0  0  0  0  0
   10.6920    0.5490   22.8860 C   0  0  0  0  0  0  0  0  0  0  0  0
   10.3630    1.8460   22.8560 F   0  0  0  0  0  0  0  0  0  0  0  0
    9.6090   -0.4120   23.0790 C   0  0  0  0  0  0  0  0  0  0  0  0
   10.0040   -1.8120   23.0750 C   0  0  0  0  0  0  0  0  0  0  0  0
    9.1880   -2.8740   23.2390 F   0  0  0  0  0  0  0  0  0  0  0  0
  2  1  1  1
  2  3  1  0
  3  4  1  0
  4  5  2  0
  4  6  1  0
  6  7  1  0
  7  8  2  0
  8  9  1  0
  9 10  2  0
 10 11  1  0
  7 12  1  0
 11 12  2  0
  2 13  1  0
 13 14  2  0
 14 15  1  0
 14 16  1  0
 16 17  2  0
 17 18  1  0
 17 19  1  0
 13 20  1  0
 19 20  2  0
 20 21  1  0
M  END
