pyridine_urea_11395
     RDKit          3D

 18 20  0  0  0  0  0  0  0  0999 V2000
    8.7240    1.1070   21.0720 O   0  0  0  0  0  0  0  0  0  0  0  0
    8.2950    0.0150   21.4800 C   0  0  0  0  0  0  0  0  0  0  0  0
    7.1120   -0.5550   21.0780 N   0  0  0  0  0  0  0  0  0  0  0  0
    6.4630    0.0840   19.9730 C   0  0  0  0  0  0  0  0  0  0  0  0
    5.1780    0.8380   20.2910 C   0  0  0  0  0  0  0  0  0  0  0  0
    4.5600    1.5020   19.1160 C   0  0  0  0  0  0  0  0  0  0  0  0
    5.1780    1.3850   17.8870 C   0  0  0  0  0  0  0  0  0  0  0  0
    6.3140    0.6950   17.6700 N   0  0  0  0  0  0  0  0  0  0  0  0
    6.9190    0.0710   18.6890 C   0  0  0  0  0  0  0  0  0  0  0  0
    8.9510   -0.7700   22.3900 N   0  0  0  0  0  0  0  0  0  0  0  0
   10.2470   -0.3120   22.9020 C   0  0  1  0  0  0  0  0  0  0  0  0
   11.3500   -1.0470   22.5550 C   0  0  0  0  0  0  0  0  0  0  0  0
   12.4890   -0.0740   22.9040 C   0  0  0  0  0  0  0  0  0  0  0  0
   12.3030    0.9180   23.8640 C   0  0  0  0  0  0  0  0  0  0  0  0
   11.0420    1.4590   24.0050 C   0  0  1  0  0  0  0  0  0  0  0  0
   10.4360    1.1690   22.8700 C   0  0  0  0  0  0  0  0  0  0  0  0
   10.2800    0.8940   24.9440 O   0  0  0  0  0  0  0  0  0  0  0  0
   10.4160   -0.3460   24.4560 C   0  0  0  0  0  0  0  0  0  0  0  0
  1  2  2  0
  2  3  1  0
  3  4  1  0
  4  5  2  0
  5  6  1  0
  6  7  2  0
  7  8  1  0
  4  9  1  0
  8  9  2  0
  2 10  1  0
 11 10  1  1
 11 12  1  0
 12 13  1  0
 13 14  1  0
 15 14  1  6
 11 16  1  0
 15 16  1  0
 15 17  1  0
 11 18  1  0
 17 18  1  0
M  END
