pyridine_urea_481
     RDKit          3D

 25 26  0  0  0  0  0  0  0  0999 V2000
   11.5440   -2.7190   23.6110 C   0  0  0  0  0  0  0  0  0  0  0  0
   10.8180   -2.6740   22.2600 C   0  0  0  0  0  0  0  0  0  0  0  0
    9.3890   -2.7470   22.2800 O   0  0  0  0  0  0  0  0  0  0  0  0
   11.6780   -2.6460   21.0860 N   0  0  0  0  0  0  0  0  0  0  0  0
   13.0980   -2.8060   21.2970 C   0  0  0  0  0  0  0  0  0  0  0  0
   13.4170   -1.9040   22.1920 C   0  0  0  0  0  0  0  0  0  0  0  0
   13.6950   -0.7530   21.5930 N   0  0  0  0  0  0  0  0  0  0  0  0
   12.8960    0.1480   22.2450 C   0  0  0  0  0  0  0  0  0  0  0  0
   13.0260    1.5520   22.4420 O   0  0  0  0  0  0  0  0  0  0  0  0
   11.9380   -0.5440   22.8210 C   0  0  0  0  0  0  0  0  0  0  0  0
   12.4870   -1.1290   24.0510 C   0  0  0  0  0  0  0  0  0  0  0  0
   11.7520   -1.8250   24.8790 C   0  0  0  0  0  0  0  0  0  0  0  0
   10.4040   -1.9790   24.5530 C   0  0  0  0  0  0  0  0  0  0  0  0
    9.8310   -1.4730   23.4230 C   0  0  0  0  0  0  0  0  0  0  0  0
   10.5560   -0.7710   22.5230 C   0  0  0  0  0  0  0  0  0  0  0  0
    9.9180   -0.3390   21.4450 N   0  0  0  0  0  0  0  0  0  0  0  0
    8.7190    0.4910   21.5630 C   0  0  0  0  0  0  0  0  0  0  0  0
    8.7710    1.6410   21.9600 O   0  0  0  0  0  0  0  0  0  0  0  0
    7.5300   -0.1770   21.1390 N   0  0  0  0  0  0  0  0  0  0  0  0
    6.7330    0.2680   20.1130 C   0  0  0  0  0  0  0  0  0  0  0  0
    5.6160    1.0430   20.3750 C   0  0  0  0  0  0  0  0  0  0  0  0
    4.7950    1.5340   19.3770 C   0  0  0  0  0  0  0  0  0  0  0  0
    5.1270    1.2230   18.0660 C   0  0  0  0  0  0  0  0  0  0  0  0
    6.1800    0.4720   17.6850 N   0  0  0  0  0  0  0  0  0  0  0  0
    6.9960   -0.0130   18.7950 C   0  0  0  0  0  0  0  0  0  0  0  0
  1  2  1  0
  2  3  2  0
  2  4  1  0
  4  5  1  0
  5  6  1  0
  6  7  1  0
  7  8  1  0
  8  9  2  0
  8 10  1  0
 10 11  2  0
 11 12  1  0
 12 13  2  0
 13 14  1  0
 10 15  1  0
 14 15  2  0
 15 16  1  0
 16 17  1  0
 17 18  2  0
 17 19  1  0
 19 20  1  0
 20 21  2  0
 21 22  1  0
 22 23  2  0
 23 24  1  0
 20 25  1  0
 24 25  2  0
M  END
