pyridine_urea_6431
     RDKit          3D

 23 25  0  0  0  0  0  0  0  0999 V2000
    8.9010    1.2350   21.0380 O   0  0  0  0  0  0  0  0  0  0  0  0
    8.3360    0.2520   21.5280 C   0  0  0  0  0  0  0  0  0  0  0  0
    7.3780   -0.5270   20.9310 N   0  0  0  0  0  0  0  0  0  0  0  0
    6.6060    0.1040   19.9140 C   0  0  0  0  0  0  0  0  0  0  0  0
    5.3420    0.8370   20.3510 C   0  0  0  0  0  0  0  0  0  0  0  0
    4.6070    1.4870   19.2350 C   0  0  0  0  0  0  0  0  0  0  0  0
    5.1160    1.3680   17.9580 C   0  0  0  0  0  0  0  0  0  0  0  0
    6.2330    0.6930   17.6370 N   0  0  0  0  0  0  0  0  0  0  0  0
    6.9370    0.0920   18.6040 C   0  0  0  0  0  0  0  0  0  0  0  0
    8.5490   -0.1820   22.7860 N   0  0  0  0  0  0  0  0  0  0  0  0
    9.6680   -1.0100   23.2430 C   0  0  2  0  0  0  0  0  0  0  0  0
    9.6530   -0.6800   24.5160 C   0  0  0  0  0  0  0  0  0  0  0  0
    8.1680   -0.6870   24.7080 C   0  0  0  0  0  0  0  0  0  0  0  0
    7.5970   -0.3800   25.9350 C   0  0  0  0  0  0  0  0  0  0  0  0
    8.4160   -0.0590   27.0250 C   0  0  0  0  0  0  0  0  0  0  0  0
    9.8020   -0.0480   26.8860 C   0  0  0  0  0  0  0  0  0  0  0  0
   10.4790   -0.3780   25.5520 C   0  0  0  0  0  0  0  0  0  0  0  0
   10.9370   -0.8940   22.3370 C   0  0  0  0  0  0  0  0  0  0  0  0
   11.4990    0.3160   23.0460 C   0  0  0  0  0  0  0  0  0  0  0  0
   12.7380    0.0980   23.6190 C   0  0  0  0  0  0  0  0  0  0  0  0
   13.1740   -1.1800   23.7320 O   0  0  0  0  0  0  0  0  0  0  0  0
   13.0650   -1.7690   22.4450 C   0  0  0  0  0  0  0  0  0  0  0  0
   11.7240   -2.0280   22.2060 C   0  0  0  0  0  0  0  0  0  0  0  0
  1  2  2  0
  2  3  1  0
  3  4  1  0
  4  5  2  0
  5  6  1  0
  6  7  2  0
  7  8  1  0
  4  9  1  0
  8  9  2  0
  2 10  1  0
 11 10  1  6
 11 12  1  0
 12 13  2  0
 13 14  1  0
 14 15  2  0
 15 16  1  0
 12 17  1  0
 16 17  2  0
 11 18  1  0
 18 19  1  0
 19 20  1  0
 20 21  1  0
 21 22  1  0
 18 23  1  0
 22 23  1  0
M  END
