pyridine_urea_10678
     RDKit          3D

 21 23  0  0  0  0  0  0  0  0999 V2000
    8.1200    1.3010   20.5870 O   0  0  0  0  0  0  0  0  0  0  0  0
    7.8260    0.3260   21.2710 C   0  0  0  0  0  0  0  0  0  0  0  0
    8.4560    0.0210   22.3720 N   0  0  0  0  0  0  0  0  0  0  0  0
    9.6920    0.5760   22.4140 C   0  0  0  0  0  0  0  0  0  0  0  0
   10.7840   -0.3940   22.3570 C   0  0  0  0  0  0  0  0  0  0  0  0
   10.5320    0.3640   23.4840 N   0  0  0  0  0  0  0  0  0  0  0  0
   11.2580    0.2500   24.5870 C   0  0  0  0  0  0  0  0  0  0  0  0
   12.3450   -0.4160   25.2350 C   0  0  0  0  0  0  0  0  0  0  0  0
   12.7550   -1.2420   24.3500 C   0  0  0  0  0  0  0  0  0  0  0  0
   13.7030   -2.1710   24.3150 C   0  0  0  0  0  0  0  0  0  0  0  0
   13.8600   -2.8670   23.1500 C   0  0  0  0  0  0  0  0  0  0  0  0
   13.1290   -2.7100   21.9770 C   0  0  0  0  0  0  0  0  0  0  0  0
   12.1290   -1.8150   21.9100 C   0  0  0  0  0  0  0  0  0  0  0  0
   11.9480   -1.1080   23.0640 C   0  0  0  0  0  0  0  0  0  0  0  0
    6.8070   -0.4900   20.9250 N   0  0  0  0  0  0  0  0  0  0  0  0
    6.1580    0.1140   19.9610 C   0  0  0  0  0  0  0  0  0  0  0  0
    4.8230    0.8110   20.0620 C   0  0  0  0  0  0  0  0  0  0  0  0
    4.3920    1.4150   18.9190 C   0  0  0  0  0  0  0  0  0  0  0  0
    5.0830    1.4210   17.7170 C   0  0  0  0  0  0  0  0  0  0  0  0
    6.2640    0.8090   17.5510 N   0  0  0  0  0  0  0  0  0  0  0  0
    6.7870    0.1410   18.7400 C   0  0  0  0  0  0  0  0  0  0  0  0
  1  2  2  0
  2  3  1  0
  3  4  1  0
  4  5  1  0
  5  6  2  0
  6  7  1  0
  7  8  2  0
  8  9  1  0
  9 10  1  0
 10 11  2  0
 11 12  1  0
 12 13  2  0
  5 14  1  0
  9 14  2  0
 13 14  1  0
  2 15  1  0
 15 16  1  0
 16 17  2  0
 17 18  1  0
 18 19  2  0
 19 20  1  0
 16 21  1  0
 20 21  2  0
M  END
