pyridine_urea_13796
     RDKit          3D

 25 26  0  0  0  0  0  0  0  0999 V2000
   13.6010   -1.9710   24.4440 C   0  0  0  0  0  0  0  0  0  0  0  0
   12.9450   -2.8590   24.7400 C   0  0  0  0  0  0  0  0  0  0  0  0
   11.7320   -2.2300   25.1360 O   0  0  0  0  0  0  0  0  0  0  0  0
   11.4350   -1.1220   24.4210 C   0  0  0  0  0  0  0  0  0  0  0  0
   12.2620   -0.2770   24.0700 O   0  0  0  0  0  0  0  0  0  0  0  0
    9.9920   -1.0800   24.1310 C   0  0  0  0  0  0  0  0  0  0  0  0
    9.6900   -0.0860   23.2520 C   0  0  2  0  0  0  0  0  0  0  0  0
    8.6940   -0.5900   22.3760 N   0  0  0  0  0  0  0  0  0  0  0  0
    8.2320    0.1840   21.3720 C   0  0  0  0  0  0  0  0  0  0  0  0
    8.7440    1.2700   21.0670 O   0  0  0  0  0  0  0  0  0  0  0  0
    7.1440   -0.4250   20.8220 N   0  0  0  0  0  0  0  0  0  0  0  0
    6.3220    0.2360   19.9350 C   0  0  0  0  0  0  0  0  0  0  0  0
    5.1850    0.8720   20.3400 C   0  0  0  0  0  0  0  0  0  0  0  0
    4.5860    1.4940   19.0970 C   0  0  0  0  0  0  0  0  0  0  0  0
    5.1590    1.3750   17.8570 C   0  0  0  0  0  0  0  0  0  0  0  0
    6.2540    0.7220   17.5780 N   0  0  0  0  0  0  0  0  0  0  0  0
    6.8000    0.1730   18.6410 C   0  0  0  0  0  0  0  0  0  0  0  0
   11.1620   -0.2450   22.8560 C   0  0  0  0  0  0  0  0  0  0  0  0
   10.2060   -1.3580   22.3180 C   0  0  0  0  0  0  0  0  0  0  0  0
   11.3120   -2.2530   21.5330 C   0  0  0  0  0  0  0  0  0  0  0  0
   12.8550   -2.0950   21.3530 C   0  0  0  0  0  0  0  0  0  0  0  0
   13.6000   -2.9640   20.6550 F   0  0  0  0  0  0  0  0  0  0  0  0
   13.1850   -0.9940   22.0020 C   0  0  0  0  0  0  0  0  0  0  0  0
   11.9520   -0.9700   22.2450 C   0  0  0  0  0  0  0  0  0  0  0  0
   11.4030   -2.0560   21.6570 F   0  0  0  0  0  0  0  0  0  0  0  0
  1  2  1  0
  2  3  1  0
  3  4  1  0
  4  5  2  0
  4  6  1  0
  7  6  1  1
  7  8  1  0
  8  9  1  0
  9 10  2  0
  9 11  1  0
 11 12  1  0
 12 13  2  0
 13 14  1  0
 14 15  2  0
 15 16  1  0
 12 17  1  0
 16 17  2  0
  7 18  1  0
 18 19  2  0
 19 20  1  0
 20 21  2  0
 21 22  1  0
 21 23  1  0
 18 24  1  0
 23 24  2  0
 24 25  1  0
M  END
