pyridine_urea_3021
     RDKit          3D

 21 22  0  0  0  0  0  0  0  0999 V2000
   10.7610   -0.5450   22.4530 C   0  0  0  0  0  0  0  0  0  0  0  0
    9.5250    0.2920   22.0990 C   0  0  2  0  0  0  0  0  0  0  0  0
    9.4760    1.7090   22.7670 C   0  0  0  0  0  0  0  0  0  0  0  0
   10.6940    2.3110   22.8130 C   0  0  0  0  0  0  0  0  0  0  0  0
   11.5040    1.1100   23.1170 C   0  0  0  0  0  0  0  0  0  0  0  0
   12.8650    1.1480   22.8920 C   0  0  0  0  0  0  0  0  0  0  0  0
   13.1530   -0.2190   23.4760 C   0  0  0  0  0  0  0  0  0  0  0  0
   12.4080   -1.3340   24.1050 C   0  0  0  0  0  0  0  0  0  0  0  0
   13.3750   -2.9150   24.8190 I   0  0  0  0  0  0  0  0  0  0  0  0
   10.9810   -1.1550   24.1680 C   0  0  0  0  0  0  0  0  0  0  0  0
   10.6020    0.1550   23.6310 C   0  0  0  0  0  0  0  0  0  0  0  0
    8.3580   -0.3990   22.5280 N   0  0  0  0  0  0  0  0  0  0  0  0
    7.8490   -0.8820   21.3830 C   0  0  0  0  0  0  0  0  0  0  0  0
    8.5830   -1.4140   20.6200 O   0  0  0  0  0  0  0  0  0  0  0  0
    6.4940   -0.6430   21.1840 N   0  0  0  0  0  0  0  0  0  0  0  0
    6.0020    0.0640   20.1090 C   0  0  0  0  0  0  0  0  0  0  0  0
    4.8490    0.8350   20.1550 C   0  0  0  0  0  0  0  0  0  0  0  0
    4.4550    1.5110   19.0060 C   0  0  0  0  0  0  0  0  0  0  0  0
    5.2290    1.3840   17.8720 C   0  0  0  0  0  0  0  0  0  0  0  0
    6.3440    0.6530   17.7750 N   0  0  0  0  0  0  0  0  0  0  0  0
    6.7100    0.0040   18.9020 C   0  0  0  0  0  0  0  0  0  0  0  0
  2  1  1  1
  2  3  1  0
  3  4  1  0
  4  5  1  0
  5  6  2  0
  6  7  1  0
  7  8  2  0
  8  9  1  0
  8 10  1  0
  5 11  1  0
 10 11  2  0
  2 12  1  0
 12 13  1  0
 13 14  2  0
 13 15  1  0
 15 16  1  0
 16 17  2  0
 17 18  1  0
 18 19  2  0
 19 20  1  0
 16 21  1  0
 20 21  2  0
M  END
