pyridine_urea_3486
     RDKit          3D

 18 19  0  0  0  0  0  0  0  0999 V2000
   10.0180    1.9450   22.8170 C   0  0  0  0  0  0  0  0  0  0  0  0
   11.1060    0.8510   22.7770 C   0  0  0  0  0  0  0  0  0  0  0  0
   10.5520   -0.5710   22.6690 C   0  0  0  0  0  0  0  0  0  0  0  0
    9.3860   -0.8890   22.0410 N   0  0  0  0  0  0  0  0  0  0  0  0
    8.5890    0.0250   21.4470 C   0  0  0  0  0  0  0  0  0  0  0  0
    8.9350    1.1700   21.1510 O   0  0  0  0  0  0  0  0  0  0  0  0
    7.2730   -0.5350   21.1980 N   0  0  0  0  0  0  0  0  0  0  0  0
    6.5720    0.0510   20.1780 C   0  0  0  0  0  0  0  0  0  0  0  0
    5.2750    0.8360   20.4170 C   0  0  0  0  0  0  0  0  0  0  0  0
    4.5700    1.4760   19.2150 C   0  0  0  0  0  0  0  0  0  0  0  0
    5.1500    1.3080   17.9670 C   0  0  0  0  0  0  0  0  0  0  0  0
    6.2650    0.6290   17.7050 N   0  0  0  0  0  0  0  0  0  0  0  0
    6.9360    0.0410   18.7030 C   0  0  0  0  0  0  0  0  0  0  0  0
   11.6050   -1.4890   22.0690 C   0  0  0  0  0  0  0  0  0  0  0  0
   12.7970   -0.8960   22.4810 C   0  0  0  0  0  0  0  0  0  0  0  0
   12.8800   -0.7470   23.8440 C   0  0  0  0  0  0  0  0  0  0  0  0
   11.7670   -1.5320   24.4540 C   0  0  0  0  0  0  0  0  0  0  0  0
   10.4920   -1.1080   24.0820 C   0  0  0  0  0  0  0  0  0  0  0  0
  1  2  1  0
  2  3  1  0
  3  4  1  0
  4  5  1  0
  5  6  2  0
  5  7  1  0
  7  8  1  0
  8  9  2  0
  9 10  1  0
 10 11  2  0
 11 12  1  0
  8 13  1  0
 12 13  2  0
  3 14  1  0
 14 15  1  0
 15 16  1  0
 16 17  1  0
  3 18  1  0
 17 18  1  0
M  END
