pyridine_urea_1802
     RDKit          3D

 17 18  0  0  0  0  0  0  0  0999 V2000
    8.7290    0.6810   21.3200 O   0  0  0  0  0  0  0  0  0  0  0  0
    8.1450   -0.3550   21.6270 C   0  0  0  0  0  0  0  0  0  0  0  0
    8.5110   -1.2860   22.5550 N   0  0  0  0  0  0  0  0  0  0  0  0
    9.5860   -1.2510   23.4340 C   0  0  0  0  0  0  0  0  0  0  0  0
   10.6240   -2.1060   23.1240 C   0  0  0  0  0  0  0  0  0  0  0  0
   11.7330   -1.4800   22.7190 C   0  0  0  0  0  0  0  0  0  0  0  0
   12.1520   -0.3670   23.3390 C   0  0  0  0  0  0  0  0  0  0  0  0
   13.5220    0.2320   22.6410 S   0  0  0  0  0  0  0  0  0  0  0  0
   13.4690   -1.0910   21.5120 C   0  0  0  0  0  0  0  0  0  0  0  0
   12.3860   -2.0140   21.6630 N   0  0  0  0  0  0  0  0  0  0  0  0
    6.9640   -0.7510   21.0670 N   0  0  0  0  0  0  0  0  0  0  0  0
    6.3780   -0.0170   19.9690 C   0  0  0  0  0  0  0  0  0  0  0  0
    5.1010    0.7830   20.2120 C   0  0  0  0  0  0  0  0  0  0  0  0
    4.5700    1.4770   19.1440 C   0  0  0  0  0  0  0  0  0  0  0  0
    5.2320    1.4030   17.9160 C   0  0  0  0  0  0  0  0  0  0  0  0
    6.3660    0.6910   17.6970 N   0  0  0  0  0  0  0  0  0  0  0  0
    6.9210   -0.0070   18.7120 C   0  0  0  0  0  0  0  0  0  0  0  0
  1  2  2  0
  2  3  1  0
  3  4  1  0
  4  5  1  0
  5  6  1  0
  6  7  2  0
  7  8  1  0
  8  9  1  0
  6 10  1  0
  9 10  2  0
  2 11  1  0
 11 12  1  0
 12 13  2  0
 13 14  1  0
 14 15  2  0
 15 16  1  0
 12 17  1  0
 16 17  2  0
M  END
