pyridine_urea_13338
     RDKit          3D

 24 26  0  0  0  0  0  0  0  0999 V2000
    9.7690    6.9960   23.7940 C   0  0  0  0  0  0  0  0  0  0  0  0
   10.0990    5.9660   22.7540 C   0  0  0  0  0  0  0  0  0  0  0  0
   11.1680    5.1090   23.2330 N   0  0  0  0  0  0  0  0  0  0  0  0
   12.4770    5.3870   22.6100 C   0  0  0  0  0  0  0  0  0  0  0  0
   13.2150    4.2280   22.6930 C   0  0  0  0  0  0  0  0  0  0  0  0
   12.3940    3.1570   23.0220 C   0  0  0  0  0  0  0  0  0  0  0  0
   12.6810    1.6790   23.0760 C   0  0  0  0  0  0  0  0  0  0  0  0
   11.8280    0.6130   23.4000 C   0  0  0  0  0  0  0  0  0  0  0  0
   10.7090   -0.3380   23.7840 C   0  0  0  0  0  0  0  0  0  0  0  0
   10.3340   -0.8130   22.5360 C   0  0  1  0  0  0  0  0  0  0  0  0
   10.9620   -1.9970   22.2150 C   0  0  0  0  0  0  0  0  0  0  0  0
    8.9740   -1.0130   22.4780 N   0  0  0  0  0  0  0  0  0  0  0  0
    8.2660   -0.2020   21.5580 C   0  0  0  0  0  0  0  0  0  0  0  0
    8.6130    0.9270   21.2370 O   0  0  0  0  0  0  0  0  0  0  0  0
    7.1580   -0.8090   21.0790 N   0  0  0  0  0  0  0  0  0  0  0  0
    6.4640   -0.1030   20.1400 C   0  0  0  0  0  0  0  0  0  0  0  0
    5.2870    0.6330   20.3430 C   0  0  0  0  0  0  0  0  0  0  0  0
    4.6980    1.3080   19.2960 C   0  0  0  0  0  0  0  0  0  0  0  0
    5.2640    1.2620   18.0450 C   0  0  0  0  0  0  0  0  0  0  0  0
    6.3870    0.5780   17.7680 N   0  0  0  0  0  0  0  0  0  0  0  0
    6.9360   -0.0780   18.8280 C   0  0  0  0  0  0  0  0  0  0  0  0
   10.6130    1.3820   23.6700 C   0  0  0  0  0  0  0  0  0  0  0  0
   10.2750    2.7530   23.6510 C   0  0  0  0  0  0  0  0  0  0  0  0
   11.1860    3.6920   23.3230 C   0  0  0  0  0  0  0  0  0  0  0  0
  1  2  1  0
  2  3  1  0
  3  4  1  0
  4  5  1  0
  5  6  1  0
  6  7  2  0
  7  8  1  0
  8  9  1  0
  9 10  1  0
 10 11  1  1
 10 12  1  0
 12 13  1  0
 13 14  2  0
 13 15  1  0
 15 16  1  0
 16 17  2  0
 17 18  1  0
 18 19  2  0
 19 20  1  0
 16 21  1  0
 20 21  2  0
  8 22  2  0
 22 23  1  0
  3 24  1  0
  6 24  1  0
 23 24  2  0
M  END
