pyridine_urea_8534
     RDKit          3D

 21 22  0  0  0  0  0  0  0  0999 V2000
   10.0190   -0.1280   25.0950 C   0  0  0  0  0  0  0  0  0  0  0  0
   10.9040   -0.2680   24.0300 N   0  0  0  0  0  0  0  0  0  0  0  0
   12.2670    0.4460   23.8730 N   0  0  0  0  0  0  0  0  0  0  0  0
   12.9680    0.0860   22.6390 C   0  0  0  0  0  0  0  0  0  0  0  0
   11.9280   -0.2230   23.1300 C   0  0  0  0  0  0  0  0  0  0  0  0
   11.6960    0.3780   24.3040 C   0  0  0  0  0  0  0  0  0  0  0  0
   11.7040    1.7230   24.2390 F   0  0  0  0  0  0  0  0  0  0  0  0
   10.4670    0.0490   24.8010 F   0  0  0  0  0  0  0  0  0  0  0  0
   12.6040   -0.1220   25.2010 F   0  0  0  0  0  0  0  0  0  0  0  0
   10.8200   -0.9980   22.9450 C   0  0  0  0  0  0  0  0  0  0  0  0
    9.8750   -1.9600   22.3070 C   0  0  0  0  0  0  0  0  0  0  0  0
    8.5810   -1.3410   22.5100 N   0  0  0  0  0  0  0  0  0  0  0  0
    8.1590   -0.3280   21.5710 C   0  0  0  0  0  0  0  0  0  0  0  0
    8.7960    0.6910   21.3440 O   0  0  0  0  0  0  0  0  0  0  0  0
    6.9600   -0.6980   21.0240 N   0  0  0  0  0  0  0  0  0  0  0  0
    6.3730   -0.0000   19.9690 C   0  0  0  0  0  0  0  0  0  0  0  0
    5.1890    0.7090   20.2020 C   0  0  0  0  0  0  0  0  0  0  0  0
    4.6100    1.4090   19.1560 C   0  0  0  0  0  0  0  0  0  0  0  0
    5.2240    1.3860   17.9090 C   0  0  0  0  0  0  0  0  0  0  0  0
    6.3560    0.7050   17.6780 N   0  0  0  0  0  0  0  0  0  0  0  0
    6.8980    0.0330   18.7040 C   0  0  0  0  0  0  0  0  0  0  0  0
  1  2  1  0
  2  3  1  0
  3  4  2  0
  4  5  1  0
  5  6  1  0
  6  7  1  0
  6  8  1  0
  6  9  1  0
  2 10  1  0
  5 10  2  0
 10 11  1  0
 11 12  1  0
 12 13  1  0
 13 14  2  0
 13 15  1  0
 15 16  1  0
 16 17  2  0
 17 18  1  0
 18 19  2  0
 19 20  1  0
 16 21  1  0
 20 21  2  0
M  END
