pyridine_urea_13272
     RDKit          3D

 15 16  0  0  0  0  0  0  0  0999 V2000
   12.6250   -1.9370   21.7360 C   0  0  0  0  0  0  0  0  0  0  0  0
   11.8310   -0.9340   22.5280 C   0  0  0  0  0  0  0  0  0  0  0  0
   12.3340    0.3160   22.8890 C   0  0  0  0  0  0  0  0  0  0  0  0
   11.2880   -1.5060   23.6930 C   0  0  0  0  0  0  0  0  0  0  0  0
   10.2570   -1.2920   22.6960 C   0  0  1  0  0  0  0  0  0  0  0  0
    9.3390   -0.2260   22.7330 N   0  0  0  0  0  0  0  0  0  0  0  0
    8.6930    0.3980   21.6570 C   0  0  0  0  0  0  0  0  0  0  0  0
    9.0750    1.4850   21.2370 O   0  0  0  0  0  0  0  0  0  0  0  0
    7.6060   -0.3290   21.1540 N   0  0  0  0  0  0  0  0  0  0  0  0
    6.7230    0.1780   20.1690 C   0  0  0  0  0  0  0  0  0  0  0  0
    5.4400    0.9780   20.4390 C   0  0  0  0  0  0  0  0  0  0  0  0
    4.6910    1.4250   19.3530 C   0  0  0  0  0  0  0  0  0  0  0  0
    5.1380    1.1300   18.0810 C   0  0  0  0  0  0  0  0  0  0  0  0
    6.2490    0.4230   17.8060 N   0  0  0  0  0  0  0  0  0  0  0  0
    7.0040   -0.0340   18.8300 C   0  0  0  0  0  0  0  0  0  0  0  0
  2  1  1  0
  2  3  1  0
  2  4  1  0
  2  5  1  0
  4  5  1  0
  5  6  1  1
  6  7  1  0
  7  8  2  0
  7  9  1  0
  9 10  1  0
 10 11  2  0
 11 12  1  0
 12 13  2  0
 13 14  1  0
 10 15  1  0
 14 15  2  0
M  END
