pyridine_urea_6371
     RDKit          3D

 23 24  0  0  0  0  0  0  0  0999 V2000
   14.1450   -2.9080   25.9170 C   0  0  0  0  0  0  0  0  0  0  0  0
   14.2800   -3.2240   24.6000 N   0  0  0  0  0  0  0  0  0  0  0  0
   13.0930   -2.6210   23.6050 S   0  0  0  0  0  0  0  0  0  0  0  0
   11.8290   -3.0670   24.1570 O   0  0  0  0  0  0  0  0  0  0  0  0
   13.4480   -2.8220   22.2350 O   0  0  0  0  0  0  0  0  0  0  0  0
   13.3610   -0.9020   23.9450 C   0  0  0  0  0  0  0  0  0  0  0  0
   12.1940   -0.2690   23.5230 C   0  0  0  0  0  0  0  0  0  0  0  0
   12.0670    0.8870   22.7340 C   0  0  0  0  0  0  0  0  0  0  0  0
   10.8010    0.9960   22.6470 C   0  0  0  0  0  0  0  0  0  0  0  0
    9.4690    0.4660   22.9990 C   0  0  0  0  0  0  0  0  0  0  0  0
    9.3180   -0.7740   23.8470 C   0  0  0  0  0  0  0  0  0  0  0  0
    8.1580   -0.3600   23.5500 C   0  0  0  0  0  0  0  0  0  0  0  0
    7.8850   -1.0120   22.4290 N   0  0  0  0  0  0  0  0  0  0  0  0
    7.7240   -0.3590   21.2480 C   0  0  0  0  0  0  0  0  0  0  0  0
    8.3780    0.6010   20.8710 O   0  0  0  0  0  0  0  0  0  0  0  0
    6.7170   -0.9310   20.6220 N   0  0  0  0  0  0  0  0  0  0  0  0
    6.0900   -0.0960   19.8140 C   0  0  0  0  0  0  0  0  0  0  0  0
    4.8880    0.5410   20.0930 C   0  0  0  0  0  0  0  0  0  0  0  0
    4.4030    1.3740   19.1250 C   0  0  0  0  0  0  0  0  0  0  0  0
    5.1620    1.5520   17.8550 C   0  0  0  0  0  0  0  0  0  0  0  0
    6.3230    0.9450   17.5700 N   0  0  0  0  0  0  0  0  0  0  0  0
    6.7770    0.1340   18.5440 C   0  0  0  0  0  0  0  0  0  0  0  0
   10.8820   -0.9520   23.9840 C   0  0  0  0  0  0  0  0  0  0  0  0
  1  2  1  0
  3  2  1  0
  3  4  2  0
  3  5  2  0
  3  6  1  0
  6  7  1  0
  7  8  2  0
  8  9  1  0
  9 10  2  0
 10 11  1  0
 11 12  1  0
 12 13  1  0
 13 14  1  0
 14 15  2  0
 14 16  1  0
 16 17  1  0
 17 18  2  0
 18 19  1  0
 19 20  2  0
 20 21  1  0
 17 22  1  0
 21 22  2  0
  7 23  1  0
 11 23  2  0
M  END
