pyridine_urea_11858
     RDKit          3D

 25 27  0  0  0  0  0  0  0  0999 V2000
    8.8240    0.5800   21.2350 O   0  0  0  0  0  0  0  0  0  0  0  0
    8.3040   -0.4750   21.5400 C   0  0  0  0  0  0  0  0  0  0  0  0
    8.8260   -1.4560   22.3530 N   0  0  0  0  0  0  0  0  0  0  0  0
    9.3940   -1.2870   23.6390 C   0  0  0  0  0  0  0  0  0  0  0  0
   10.1640   -0.1520   23.8750 C   0  0  0  0  0  0  0  0  0  0  0  0
   11.3010    0.8280   23.8580 C   0  0  0  0  0  0  0  0  0  0  0  0
   12.6240    0.8800   23.2650 C   0  0  0  0  0  0  0  0  0  0  0  0
   13.1210   -0.1230   22.5190 C   0  0  0  0  0  0  0  0  0  0  0  0
   12.2100   -1.0050   22.5000 C   0  0  0  0  0  0  0  0  0  0  0  0
   11.8940    0.1520   23.1360 N   0  0  0  0  0  0  0  0  0  0  0  0
   11.4880    1.5350   23.1560 C   0  0  0  0  0  0  0  0  0  0  0  0
   12.4240    2.6300   23.2600 O   0  0  0  0  0  0  0  0  0  0  0  0
   10.1060    1.8330   22.9820 C   0  0  0  0  0  0  0  0  0  0  0  0
    9.2890    2.0310   24.1280 C   0  0  0  0  0  0  0  0  0  0  0  0
    8.5950    3.2390   24.0740 C   0  0  0  0  0  0  0  0  0  0  0  0
    9.1370    3.9600   23.0380 C   0  0  0  0  0  0  0  0  0  0  0  0
   10.0470    3.2170   22.2960 C   0  0  0  0  0  0  0  0  0  0  0  0
   10.8670   -1.2300   23.0040 C   0  0  0  0  0  0  0  0  0  0  0  0
    7.0560   -0.7960   21.0650 N   0  0  0  0  0  0  0  0  0  0  0  0
    6.3710   -0.0660   20.0830 C   0  0  0  0  0  0  0  0  0  0  0  0
    5.1830    0.6480   20.2670 C   0  0  0  0  0  0  0  0  0  0  0  0
    4.6100    1.3460   19.1970 C   0  0  0  0  0  0  0  0  0  0  0  0
    5.2260    1.3320   17.9460 C   0  0  0  0  0  0  0  0  0  0  0  0
    6.3620    0.6670   17.7010 N   0  0  0  0  0  0  0  0  0  0  0  0
    6.9140   -0.0390   18.8210 C   0  0  0  0  0  0  0  0  0  0  0  0
  1  2  2  0
  2  3  1  0
  3  4  1  0
  4  5  1  0
  5  6  2  0
  6  7  1  0
  7  8  2  0
  8  9  1  0
  9 10  1  0
 10 11  1  0
 11 12  2  0
 11 13  1  0
 13 14  1  0
 14 15  1  0
 15 16  1  0
 13 17  1  0
 16 17  1  0
  5 18  1  0
  9 18  2  0
  2 19  1  0
 19 20  1  0
 20 21  2  0
 21 22  1  0
 22 23  2  0
 23 24  1  0
 20 25  1  0
 24 25  2  0
M  END
