pyridine_urea_312
     RDKit          3D

 28 31  0  0  0  0  0  0  0  0999 V2000
    8.4170    0.5730   21.0700 O   0  0  0  0  0  0  0  0  0  0  0  0
    7.9230   -0.4960   21.4120 C   0  0  0  0  0  0  0  0  0  0  0  0
    6.7130   -0.9220   20.9650 N   0  0  0  0  0  0  0  0  0  0  0  0
    6.2060   -0.1320   19.8880 C   0  0  0  0  0  0  0  0  0  0  0  0
    4.9210    0.6310   20.1670 C   0  0  0  0  0  0  0  0  0  0  0  0
    4.4440    1.4490   19.0230 C   0  0  0  0  0  0  0  0  0  0  0  0
    5.1790    1.4440   17.8520 C   0  0  0  0  0  0  0  0  0  0  0  0
    6.3130    0.7420   17.6650 N   0  0  0  0  0  0  0  0  0  0  0  0
    6.7960   -0.0170   18.6630 C   0  0  0  0  0  0  0  0  0  0  0  0
    8.5080   -1.3590   22.2800 N   0  0  0  0  0  0  0  0  0  0  0  0
    9.5900   -0.7250   23.0000 C   0  0  0  0  0  0  0  0  0  0  0  0
    9.6390   -1.0820   24.2860 C   0  0  0  0  0  0  0  0  0  0  0  0
   10.7940   -0.3550   24.8880 C   0  0  0  0  0  0  0  0  0  0  0  0
   11.6180    0.5010   24.2370 C   0  0  0  0  0  0  0  0  0  0  0  0
   11.4380    0.7790   22.9350 C   0  0  0  0  0  0  0  0  0  0  0  0
   12.3650    1.6450   22.5060 C   0  0  0  0  0  0  0  0  0  0  0  0
   13.4140    0.8760   22.6150 N   0  0  0  0  0  0  0  0  0  0  0  0
   12.8600    0.6290   23.7560 C   0  0  0  0  0  0  0  0  0  0  0  0
   11.9490    1.5420   24.3960 O   0  0  0  0  0  0  0  0  0  0  0  0
   13.1340   -0.6290   24.1560 C   0  0  0  0  0  0  0  0  0  0  0  0
   13.1360   -1.0910   25.4580 C   0  0  0  0  0  0  0  0  0  0  0  0
   13.4410   -2.3630   25.6750 C   0  0  0  0  0  0  0  0  0  0  0  0
   13.6900   -3.1330   24.6350 C   0  0  0  0  0  0  0  0  0  0  0  0
   13.6900   -2.7090   23.3210 C   0  0  0  0  0  0  0  0  0  0  0  0
   13.4200   -1.3980   23.1500 C   0  0  0  0  0  0  0  0  0  0  0  0
   13.4040   -0.5790   22.0340 C   0  0  0  0  0  0  0  0  0  0  0  0
   13.4640   -1.0750   20.9170 O   0  0  0  0  0  0  0  0  0  0  0  0
   10.4080    0.1430   22.3220 C   0  0  0  0  0  0  0  0  0  0  0  0
  1  2  2  0
  2  3  1  0
  3  4  1  0
  4  5  2  0
  5  6  1  0
  6  7  2  0
  7  8  1  0
  4  9  1  0
  8  9  2  0
  2 10  1  0
 10 11  1  0
 11 12  2  0
 12 13  1  0
 13 14  2  0
 14 15  1  0
 15 16  1  0
 16 17  1  0
 17 18  1  0
 18 19  2  0
 18 20  1  0
 20 21  1  0
 21 22  2  0
 22 23  1  0
 23 24  2  0
 20 25  2  0
 24 25  1  0
 17 26  1  0
 25 26  1  0
 26 27  2  0
 11 28  1  0
 15 28  2  0
M  END
