pyridine_urea_2732
     RDKit          3D

 23 25  0  0  0  0  0  0  0  0999 V2000
    8.9770    0.6730   21.3790 O   0  0  0  0  0  0  0  0  0  0  0  0
    8.3040   -0.3030   21.6690 C   0  0  0  0  0  0  0  0  0  0  0  0
    8.6360   -1.1710   22.6880 N   0  0  0  0  0  0  0  0  0  0  0  0
    9.9650   -1.1420   23.2720 C   0  0  0  0  0  0  0  0  0  0  0  0
   10.3540    0.2010   23.9820 C   0  0  0  0  0  0  0  0  0  0  0  0
   11.6060    0.6480   23.6240 C   0  0  0  0  0  0  0  0  0  0  0  0
   12.9250    1.4410   23.1400 C   0  0  0  0  0  0  0  0  0  0  0  0
   12.2940    3.1050   22.7110 S   0  0  0  0  0  0  0  0  0  0  0  0
   10.6420    2.8560   23.0750 C   0  0  0  0  0  0  0  0  0  0  0  0
    9.6900    4.0410   22.8480 C   0  0  0  0  0  0  0  0  0  0  0  0
    8.2620    3.7960   22.3670 C   0  0  0  0  0  0  0  0  0  0  0  0
    7.3580    5.0160   22.1430 C   0  0  0  0  0  0  0  0  0  0  0  0
    7.9130    6.4260   22.4060 C   0  0  0  0  0  0  0  0  0  0  0  0
    9.3510    6.5860   22.8880 C   0  0  0  0  0  0  0  0  0  0  0  0
   10.1970    5.3380   23.0920 C   0  0  0  0  0  0  0  0  0  0  0  0
   10.4610    1.5900   23.5160 N   0  0  0  0  0  0  0  0  0  0  0  0
    7.1280   -0.6950   21.0760 N   0  0  0  0  0  0  0  0  0  0  0  0
    6.4790   -0.0140   20.0360 C   0  0  0  0  0  0  0  0  0  0  0  0
    5.3170    0.7110   20.2990 C   0  0  0  0  0  0  0  0  0  0  0  0
    4.6920    1.3870   19.2620 C   0  0  0  0  0  0  0  0  0  0  0  0
    5.2120    1.3410   17.9970 C   0  0  0  0  0  0  0  0  0  0  0  0
    6.3230    0.6520   17.7080 N   0  0  0  0  0  0  0  0  0  0  0  0
    6.9280   -0.0100   18.7270 C   0  0  0  0  0  0  0  0  0  0  0  0
  1  2  2  0
  2  3  1  0
  3  4  1  0
  4  5  1  0
  5  6  1  0
  6  7  2  0
  7  8  1  0
  8  9  1  0
  9 10  1  0
 10 11  2  0
 11 12  1  0
 12 13  2  0
 13 14  1  0
 10 15  1  0
 14 15  2  0
  6 16  1  0
  9 16  2  0
  2 17  1  0
 17 18  1  0
 18 19  2  0
 19 20  1  0
 20 21  2  0
 21 22  1  0
 18 23  1  0
 22 23  2  0
M  END
