pyridine_urea_1416
     RDKit          3D

 20 21  0  0  0  0  0  0  0  0999 V2000
    9.0190    1.4680   21.1380 O   0  0  0  0  0  0  0  0  0  0  0  0
    8.2890    0.6430   21.6790 C   0  0  0  0  0  0  0  0  0  0  0  0
    8.3520    0.4240   23.0210 N   0  0  0  0  0  0  0  0  0  0  0  0
    8.6780   -0.8530   23.5500 C   0  0  0  0  0  0  0  0  0  0  0  0
   10.1710   -1.0190   23.7150 C   0  0  0  0  0  0  0  0  0  0  0  0
   10.5370   -2.6200   23.0740 S   0  0  0  0  0  0  0  0  0  0  0  0
    9.7560   -2.7510   21.8710 O   0  0  0  0  0  0  0  0  0  0  0  0
   10.4040   -3.5060   24.2040 O   0  0  0  0  0  0  0  0  0  0  0  0
   12.1280   -2.4770   22.7140 N   0  0  0  0  0  0  0  0  0  0  0  0
   12.4970   -1.2100   22.4330 C   0  0  0  0  0  0  0  0  0  0  0  0
   12.9940   -0.5030   23.4770 C   0  0  0  0  0  0  0  0  0  0  0  0
   13.1520   -1.5040   24.4510 C   0  0  0  0  0  0  0  0  0  0  0  0
   12.8810   -2.7320   23.8760 C   0  0  0  0  0  0  0  0  0  0  0  0
    7.3280   -0.1220   21.0680 N   0  0  0  0  0  0  0  0  0  0  0  0
    6.5900    0.2960   20.0300 C   0  0  0  0  0  0  0  0  0  0  0  0
    5.4290    1.0060   20.2930 C   0  0  0  0  0  0  0  0  0  0  0  0
    4.6680    1.4740   19.2320 C   0  0  0  0  0  0  0  0  0  0  0  0
    5.1120    1.2070   17.9370 C   0  0  0  0  0  0  0  0  0  0  0  0
    6.2210    0.5180   17.6720 N   0  0  0  0  0  0  0  0  0  0  0  0
    6.9300    0.0770   18.7150 C   0  0  0  0  0  0  0  0  0  0  0  0
  1  2  2  0
  2  3  1  0
  3  4  1  0
  4  5  1  0
  6  5  1  0
  6  7  2  0
  6  8  2  0
  6  9  1  0
  9 10  1  0
 10 11  1  0
 11 12  1  0
  9 13  1  0
 12 13  1  0
  2 14  1  0
 14 15  1  0
 15 16  2  0
 16 17  1  0
 17 18  2  0
 18 19  1  0
 15 20  1  0
 19 20  2  0
M  END
