pyridine_urea_5340
     RDKit          3D

 19 20  0  0  0  0  0  0  0  0999 V2000
    9.2050   -2.5560   21.7030 C   0  0  0  0  0  0  0  0  0  0  0  0
   10.2580   -1.9890   22.5470 C   0  0  2  0  0  0  0  0  0  0  0  0
   10.0940   -0.6710   22.9460 C   0  0  0  0  0  0  0  0  0  0  0  0
    8.7100   -0.2740   22.8110 N   0  0  0  0  0  0  0  0  0  0  0  0
    8.3090    0.3160   21.6330 C   0  0  0  0  0  0  0  0  0  0  0  0
    8.8490    1.3230   21.1600 O   0  0  0  0  0  0  0  0  0  0  0  0
    7.1750   -0.4250   21.0690 N   0  0  0  0  0  0  0  0  0  0  0  0
    6.4900    0.1550   20.0460 C   0  0  0  0  0  0  0  0  0  0  0  0
    5.2090    0.9100   20.3710 C   0  0  0  0  0  0  0  0  0  0  0  0
    4.5540    1.4990   19.3020 C   0  0  0  0  0  0  0  0  0  0  0  0
    5.1760    1.3370   17.9140 C   0  0  0  0  0  0  0  0  0  0  0  0
    6.3110    0.6490   17.6920 N   0  0  0  0  0  0  0  0  0  0  0  0
    6.9280    0.0810   18.7430 C   0  0  0  0  0  0  0  0  0  0  0  0
   11.5950   -2.0970   21.8730 C   0  0  0  0  0  0  0  0  0  0  0  0
   12.2300   -1.3100   22.5770 N   0  0  0  0  0  0  0  0  0  0  0  0
   12.5520   -1.6770   23.8170 C   0  0  0  0  0  0  0  0  0  0  0  0
   13.1690   -0.6400   24.3520 C   0  0  0  0  0  0  0  0  0  0  0  0
   13.2070    0.3430   23.3810 C   0  0  0  0  0  0  0  0  0  0  0  0
   12.6420   -0.0800   22.3120 N   0  0  0  0  0  0  0  0  0  0  0  0
  2  1  1  6
  2  3  1  0
  3  4  1  0
  4  5  1  0
  5  6  2  0
  5  7  1  0
  7  8  1  0
  8  9  2  0
  9 10  1  0
 10 11  2  0
 11 12  1  0
  8 13  1  0
 12 13  2  0
  2 14  1  0
 14 15  1  0
 15 16  1  0
 16 17  2  0
 17 18  1  0
 15 19  1  0
 18 19  2  0
M  END
