pyridine_urea_6135
     RDKit          3D

 24 26  0  0  0  0  0  0  0  0999 V2000
   13.7160   -1.4590   20.5510 C   0  0  0  0  0  0  0  0  0  0  0  0
   13.7540   -1.2500   21.8510 N   0  0  0  0  0  0  0  0  0  0  0  0
   13.5570    0.0480   22.4310 C   0  0  0  0  0  0  0  0  0  0  0  0
   14.4040    1.1260   22.6860 O   0  0  0  0  0  0  0  0  0  0  0  0
   12.1910    0.2740   22.7100 C   0  0  0  0  0  0  0  0  0  0  0  0
   11.4900    1.5030   22.9930 C   0  0  0  0  0  0  0  0  0  0  0  0
   10.1440    1.4260   23.1360 C   0  0  0  0  0  0  0  0  0  0  0  0
    9.1780    0.2450   23.0680 C   0  0  0  0  0  0  0  0  0  0  0  0
    7.9070    0.4230   23.1630 N   0  0  0  0  0  0  0  0  0  0  0  0
    7.6130    0.6270   21.8260 C   0  0  0  0  0  0  0  0  0  0  0  0
    8.3550    1.6370   21.0980 O   0  0  0  0  0  0  0  0  0  0  0  0
    6.6820   -0.1950   21.2910 N   0  0  0  0  0  0  0  0  0  0  0  0
    6.2180    0.2750   20.0880 C   0  0  0  0  0  0  0  0  0  0  0  0
    4.9780    1.0820   20.1110 C   0  0  0  0  0  0  0  0  0  0  0  0
    4.4620    1.6300   18.9600 C   0  0  0  0  0  0  0  0  0  0  0  0
    5.1020    1.4400   17.7380 C   0  0  0  0  0  0  0  0  0  0  0  0
    6.3330    0.6230   17.6940 N   0  0  0  0  0  0  0  0  0  0  0  0
    6.8050    0.0950   18.8680 C   0  0  0  0  0  0  0  0  0  0  0  0
    9.9770   -0.9440   22.8250 C   0  0  0  0  0  0  0  0  0  0  0  0
   11.3730   -0.9380   22.6530 C   0  0  0  0  0  0  0  0  0  0  0  0
   11.7900   -2.0960   22.4080 N   0  0  0  0  0  0  0  0  0  0  0  0
   10.9700   -2.4230   21.4690 C   0  0  0  0  0  0  0  0  0  0  0  0
   13.0570   -2.2840   22.1920 C   0  0  0  0  0  0  0  0  0  0  0  0
   13.5800   -3.3610   22.2770 O   0  0  0  0  0  0  0  0  0  0  0  0
  1  2  1  0
  2  3  1  0
  3  4  2  0
  3  5  1  0
  5  6  2  0
  6  7  1  0
  7  8  2  0
  8  9  1  0
  9 10  1  0
 10 11  2  0
 10 12  1  0
 12 13  1  0
 13 14  2  0
 14 15  1  0
 15 16  2  0
 16 17  1  0
 13 18  1  0
 17 18  2  0
  8 19  1  0
  5 20  1  0
 19 20  2  0
 20 21  1  0
 21 22  1  0
  2 23  1  0
 21 23  1  0
 23 24  2  0
M  END
