pyridine_urea_9634
     RDKit          3D

 20 22  0  0  0  0  0  0  0  0999 V2000
    8.6760    0.4710   21.3750 O   0  0  0  0  0  0  0  0  0  0  0  0
    8.0160   -0.5410   21.5680 C   0  0  0  0  0  0  0  0  0  0  0  0
    8.3720   -1.5610   22.4150 N   0  0  0  0  0  0  0  0  0  0  0  0
    9.7270   -2.0330   22.4100 C   0  0  0  0  0  0  0  0  0  0  0  0
   10.6000   -0.9960   23.0150 C   0  0  2  0  0  0  0  0  0  0  0  0
   10.6630    0.3020   22.3210 C   0  0  0  0  0  0  0  0  0  0  0  0
   11.8760   -0.6560   22.2360 C   0  0  1  0  0  0  0  0  0  0  0  0
   12.9390   -0.4140   23.2030 C   0  0  0  0  0  0  0  0  0  0  0  0
   13.0910   -1.8220   23.7510 C   0  0  0  0  0  0  0  0  0  0  0  0
   12.4770   -1.7060   24.9960 C   0  0  0  0  0  0  0  0  0  0  0  0
   11.1540   -1.1810   24.9470 C   0  0  0  0  0  0  0  0  0  0  0  0
   11.1130    0.0600   24.3530 C   0  0  0  0  0  0  0  0  0  0  0  0
   12.4050    0.4310   24.1380 C   0  0  0  0  0  0  0  0  0  0  0  0
    6.8180   -0.8270   21.0020 N   0  0  0  0  0  0  0  0  0  0  0  0
    6.2480   -0.0510   19.9400 C   0  0  0  0  0  0  0  0  0  0  0  0
    4.9800    0.7010   20.1770 C   0  0  0  0  0  0  0  0  0  0  0  0
    4.5050    1.4340   19.1060 C   0  0  0  0  0  0  0  0  0  0  0  0
    5.2170    1.4620   17.8140 C   0  0  0  0  0  0  0  0  0  0  0  0
    6.3540    0.7750   17.6210 N   0  0  0  0  0  0  0  0  0  0  0  0
    6.8080    0.0590   18.6810 C   0  0  0  0  0  0  0  0  0  0  0  0
  1  2  2  0
  2  3  1  0
  3  4  1  0
  5  4  1  6
  5  6  1  0
  5  7  1  0
  6  7  1  0
  7  8  1  1
  8  9  1  0
  9 10  1  0
 10 11  1  0
 11 12  1  0
  8 13  1  0
 12 13  1  0
  2 14  1  0
 14 15  1  0
 15 16  2  0
 16 17  1  0
 17 18  2  0
 18 19  1  0
 15 20  1  0
 19 20  2  0
M  END
