pyridine_urea_13398
     RDKit          3D

 18 19  0  0  0  0  0  0  0  0999 V2000
    8.8480    0.6450   21.4000 O   0  0  0  0  0  0  0  0  0  0  0  0
    8.2250   -0.3990   21.5760 C   0  0  0  0  0  0  0  0  0  0  0  0
    8.6620   -1.4740   22.3050 N   0  0  0  0  0  0  0  0  0  0  0  0
   10.0060   -1.8070   22.4850 C   0  0  0  0  0  0  0  0  0  0  0  0
   11.0010   -0.6760   22.4770 C   0  0  2  0  0  0  0  0  0  0  0  0
   12.4740   -1.1200   22.4420 C   0  0  0  0  0  0  0  0  0  0  0  0
   13.0470   -0.4930   23.6150 C   0  0  2  0  0  0  0  0  0  0  0  0
   12.7380   -0.9630   24.8790 C   0  0  0  0  0  0  0  0  0  0  0  0
   13.0630   -2.1450   24.8990 O   0  0  0  0  0  0  0  0  0  0  0  0
   11.9500    0.1950   24.3430 C   0  0  0  0  0  0  0  0  0  0  0  0
   10.7490    0.0660   23.7280 O   0  0  0  0  0  0  0  0  0  0  0  0
    6.9790   -0.6700   21.0800 N   0  0  0  0  0  0  0  0  0  0  0  0
    6.3820    0.0040   20.0130 C   0  0  0  0  0  0  0  0  0  0  0  0
    5.2070    0.7160   20.2180 C   0  0  0  0  0  0  0  0  0  0  0  0
    4.6270    1.3930   19.1650 C   0  0  0  0  0  0  0  0  0  0  0  0
    5.2030    1.3730   17.9020 C   0  0  0  0  0  0  0  0  0  0  0  0
    6.3370    0.6840   17.6820 N   0  0  0  0  0  0  0  0  0  0  0  0
    6.8950    0.0210   18.7290 C   0  0  0  0  0  0  0  0  0  0  0  0
  1  2  2  0
  2  3  1  0
  3  4  1  0
  5  4  1  1
  5  6  1  0
  6  7  1  0
  7  8  1  1
  8  9  1  0
  7 10  1  0
  5 11  1  0
 10 11  1  0
  2 12  1  0
 12 13  1  0
 13 14  2  0
 14 15  1  0
 15 16  2  0
 16 17  1  0
 13 18  1  0
 17 18  2  0
M  END
