pyridine_urea_143
     RDKit          3D

 23 24  0  0  0  0  0  0  0  0999 V2000
    8.8620    1.1680   21.1840 O   0  0  0  0  0  0  0  0  0  0  0  0
    8.3340    0.0920   21.5030 C   0  0  0  0  0  0  0  0  0  0  0  0
    8.8460   -0.7070   22.4920 N   0  0  0  0  0  0  0  0  0  0  0  0
   10.2280   -0.5200   22.8840 C   0  0  0  0  0  0  0  0  0  0  0  0
   10.4070    0.6960   23.7970 C   0  0  0  0  0  0  0  0  0  0  0  0
   11.8110    1.1930   23.9080 C   0  0  0  0  0  0  0  0  0  0  0  0
   12.6580    0.8720   22.8910 C   0  0  0  0  0  0  0  0  0  0  0  0
   12.8580   -0.5670   22.4510 C   0  0  0  0  0  0  0  0  0  0  0  0
   13.3830   -1.2770   21.2450 C   0  0  0  0  0  0  0  0  0  0  0  0
   13.3500   -2.6570   21.2710 N   0  0  0  0  0  0  0  0  0  0  0  0
   12.8710   -3.0690   22.4100 N   0  0  0  0  0  0  0  0  0  0  0  0
   12.5830   -1.9090   23.1040 C   0  0  0  0  0  0  0  0  0  0  0  0
   12.0270   -2.2200   24.4430 C   0  0  0  0  0  0  0  0  0  0  0  0
   13.0000   -2.7160   25.2510 F   0  0  0  0  0  0  0  0  0  0  0  0
   11.4730   -1.1600   25.0820 F   0  0  0  0  0  0  0  0  0  0  0  0
   11.0800   -3.1880   24.3380 F   0  0  0  0  0  0  0  0  0  0  0  0
    7.1940   -0.4660   20.9800 N   0  0  0  0  0  0  0  0  0  0  0  0
    6.4610    0.1560   20.0450 C   0  0  0  0  0  0  0  0  0  0  0  0
    5.2980    0.8780   20.3040 C   0  0  0  0  0  0  0  0  0  0  0  0
    4.6310    1.5040   19.2800 C   0  0  0  0  0  0  0  0  0  0  0  0
    5.1210    1.4380   17.8720 C   0  0  0  0  0  0  0  0  0  0  0  0
    6.3170    0.6720   17.6700 N   0  0  0  0  0  0  0  0  0  0  0  0
    6.9810    0.0400   18.6810 C   0  0  0  0  0  0  0  0  0  0  0  0
  1  2  2  0
  2  3  1  0
  3  4  1  0
  4  5  1  0
  5  6  1  0
  6  7  1  0
  7  8  1  0
  8  9  2  0
  9 10  1  0
 10 11  1  0
  8 12  1  0
 11 12  2  0
 12 13  1  0
 13 14  1  0
 13 15  1  0
 13 16  1  0
  2 17  1  0
 17 18  1  0
 18 19  2  0
 19 20  1  0
 20 21  2  0
 21 22  1  0
 18 23  1  0
 22 23  2  0
M  END
