pyridine_urea_2857
     RDKit          3D

 22 24  0  0  0  0  0  0  0  0999 V2000
   10.1570   -0.4520   22.0320 C   0  0  0  0  0  0  0  0  0  0  0  0
   11.4570   -1.0500   22.5650 C   0  0  0  0  0  0  0  0  0  0  0  0
   12.0250   -2.1470   21.5410 C   0  0  0  0  0  0  0  0  0  0  0  0
   13.0460   -2.5080   22.1060 C   0  0  0  0  0  0  0  0  0  0  0  0
   12.7490   -1.5740   23.1880 C   0  0  0  0  0  0  0  0  0  0  0  0
   11.6310   -0.7220   23.3290 C   0  0  0  0  0  0  0  0  0  0  0  0
   10.4720   -0.6110   22.3890 C   0  0  0  0  0  0  0  0  0  0  0  0
    9.4070   -1.6170   22.7850 C   0  0  0  0  0  0  0  0  0  0  0  0
    8.1300   -0.9350   22.7600 N   0  0  0  0  0  0  0  0  0  0  0  0
    7.8630   -0.1670   21.6580 C   0  0  0  0  0  0  0  0  0  0  0  0
    8.4880    0.8370   21.3300 O   0  0  0  0  0  0  0  0  0  0  0  0
    6.7860   -0.6960   20.9680 N   0  0  0  0  0  0  0  0  0  0  0  0
    6.2630   -0.0110   19.9270 C   0  0  0  0  0  0  0  0  0  0  0  0
    4.9710    0.7680   20.1620 C   0  0  0  0  0  0  0  0  0  0  0  0
    4.4490    1.5360   18.9530 C   0  0  0  0  0  0  0  0  0  0  0  0
    5.1530    1.4790   17.7650 C   0  0  0  0  0  0  0  0  0  0  0  0
    6.2970    0.7470   17.6500 N   0  0  0  0  0  0  0  0  0  0  0  0
    6.8470    0.0200   18.6870 C   0  0  0  0  0  0  0  0  0  0  0  0
   11.6330    0.0550   24.5060 C   0  0  0  0  0  0  0  0  0  0  0  0
   12.7620   -0.3140   25.1310 N   0  0  0  0  0  0  0  0  0  0  0  0
   13.2500   -1.2640   24.1860 C   0  0  0  0  0  0  0  0  0  0  0  0
   11.9680   -0.5280   23.9130 C   0  0  0  0  0  0  0  0  0  0  0  0
  1  2  1  0
  2  3  2  0
  3  4  1  0
  4  5  2  0
  5  6  1  0
  6  7  1  0
  7  8  1  0
  8  9  1  0
  9 10  1  0
 10 11  2  0
 10 12  1  0
 12 13  1  0
 13 14  2  0
 14 15  1  0
 15 16  2  0
 16 17  1  0
 13 18  1  0
 17 18  2  0
  6 19  2  0
 19 20  1  0
  5 21  1  0
 20 21  1  0
  2 22  1  0
 21 22  2  0
M  END
