pyridine_urea_11376
     RDKit          3D

 22 24  0  0  0  0  0  0  0  0999 V2000
    8.8400    1.1350   21.1240 O   0  0  0  0  0  0  0  0  0  0  0  0
    8.3750    0.0040   21.3300 C   0  0  0  0  0  0  0  0  0  0  0  0
    9.0660   -0.9870   21.9650 N   0  0  0  0  0  0  0  0  0  0  0  0
    9.2510   -0.9220   23.3840 C   0  0  0  0  0  0  0  0  0  0  0  0
    9.9740    0.3390   23.8190 C   0  0  0  0  0  0  0  0  0  0  0  0
    9.4450    1.0040   25.0070 C   0  0  0  0  0  0  0  0  0  0  0  0
    8.0720    0.6790   25.1810 O   0  0  0  0  0  0  0  0  0  0  0  0
   10.9070    1.1280   22.8990 C   0  0  0  0  0  0  0  0  0  0  0  0
   11.6530   -0.2030   23.0490 C   0  0  0  0  0  0  0  0  0  0  0  0
   13.0330   -0.3940   22.7040 C   0  0  0  0  0  0  0  0  0  0  0  0
   12.9230   -1.5520   22.0510 C   0  0  0  0  0  0  0  0  0  0  0  0
   13.2780   -1.4980   20.7460 F   0  0  0  0  0  0  0  0  0  0  0  0
   13.6000   -2.5760   22.5300 F   0  0  0  0  0  0  0  0  0  0  0  0
   11.4270   -1.5440   22.3240 C   0  0  0  0  0  0  0  0  0  0  0  0
   11.3530    0.0420   24.3950 C   0  0  0  0  0  0  0  0  0  0  0  0
    7.1350   -0.4450   20.9730 N   0  0  0  0  0  0  0  0  0  0  0  0
    6.4530    0.1390   19.9230 C   0  0  0  0  0  0  0  0  0  0  0  0
    5.2880    0.8280   20.1800 C   0  0  0  0  0  0  0  0  0  0  0  0
    4.3540    1.5820   19.2300 C   0  0  0  0  0  0  0  0  0  0  0  0
    5.1220    1.3260   17.9420 C   0  0  0  0  0  0  0  0  0  0  0  0
    6.2510    0.6510   17.6850 N   0  0  0  0  0  0  0  0  0  0  0  0
    6.8910    0.0720   18.6670 C   0  0  0  0  0  0  0  0  0  0  0  0
  1  2  2  0
  2  3  1  0
  3  4  1  0
  5  4  1  0
  5  6  1  0
  6  7  1  0
  5  8  1  0
  9  8  1  0
  9 10  1  0
 10 11  1  0
 11 12  1  0
 11 13  1  0
  9 14  1  0
 11 14  1  0
  5 15  1  0
  9 15  1  0
  2 16  1  0
 16 17  1  0
 17 18  2  0
 18 19  1  0
 19 20  2  0
 20 21  1  0
 17 22  1  0
 21 22  2  0
M  END
