pyridine_urea_2463
     RDKit          3D

 24 26  0  0  0  0  0  0  0  0999 V2000
   12.9830   -2.2640   23.8490 C   0  0  0  0  0  0  0  0  0  0  0  0
   11.9900   -1.3250   24.0240 N   0  0  0  0  0  0  0  0  0  0  0  0
   10.8010   -1.7110   24.6080 N   0  0  0  0  0  0  0  0  0  0  0  0
   10.0070   -0.6070   24.6720 C   0  0  0  0  0  0  0  0  0  0  0  0
    8.2600   -0.5600   25.3930 Br  0  0  0  0  0  0  0  0  0  0  0  0
   10.6740    0.4540   24.1340 C   0  0  0  0  0  0  0  0  0  0  0  0
   10.3440    1.7820   23.9450 C   0  0  0  0  0  0  0  0  0  0  0  0
    9.1170    2.3020   24.3240 N   0  0  0  0  0  0  0  0  0  0  0  0
    7.9280    2.3270   23.5560 C   0  0  0  0  0  0  0  0  0  0  0  0
    7.2040    1.1390   23.4000 C   0  0  0  0  0  0  0  0  0  0  0  0
    7.8920   -0.0020   23.0160 N   0  0  0  0  0  0  0  0  0  0  0  0
    8.2170   -0.1620   21.7040 C   0  0  0  0  0  0  0  0  0  0  0  0
    9.2980    0.1590   21.2790 O   0  0  0  0  0  0  0  0  0  0  0  0
    7.1570   -0.6890   21.0080 N   0  0  0  0  0  0  0  0  0  0  0  0
    6.4840   -0.0110   19.9900 C   0  0  0  0  0  0  0  0  0  0  0  0
    5.3060    0.7050   20.2900 C   0  0  0  0  0  0  0  0  0  0  0  0
    4.6610    1.3840   19.2570 C   0  0  0  0  0  0  0  0  0  0  0  0
    5.1960    1.3310   17.9910 C   0  0  0  0  0  0  0  0  0  0  0  0
    6.3010    0.6580   17.6760 N   0  0  0  0  0  0  0  0  0  0  0  0
    6.9190    0.0020   18.6840 C   0  0  0  0  0  0  0  0  0  0  0  0
   11.2990    2.5620   23.3600 N   0  0  0  0  0  0  0  0  0  0  0  0
   12.5000    2.0350   22.9900 C   0  0  0  0  0  0  0  0  0  0  0  0
   12.9500    0.7630   23.1110 N   0  0  0  0  0  0  0  0  0  0  0  0
   12.0260    0.0070   23.6810 C   0  0  0  0  0  0  0  0  0  0  0  0
  1  2  1  0
  2  3  1  0
  3  4  2  0
  4  5  1  0
  4  6  1  0
  6  7  1  0
  7  8  1  0
  8  9  1  0
  9 10  1  0
 10 11  1  0
 11 12  1  0
 12 13  2  0
 12 14  1  0
 14 15  1  0
 15 16  2  0
 16 17  1  0
 17 18  2  0
 18 19  1  0
 15 20  1  0
 19 20  2  0
  7 21  2  0
 21 22  1  0
 22 23  2  0
  2 24  1  0
  6 24  2  0
 23 24  1  0
M  END
