pyridine_urea_7162
     RDKit          3D

 19 19  0  0  0  0  0  0  0  0999 V2000
   16.0290   -5.3120   21.9050 C   0  0  0  0  0  0  0  0  0  0  0  0
   15.4620   -4.9060   20.7610 N   0  0  0  0  0  0  0  0  0  0  0  0
   15.8960   -5.3630   19.5940 C   0  0  0  0  0  0  0  0  0  0  0  0
   14.1060   -4.3990   20.9370 C   0  0  0  0  0  0  0  0  0  0  0  0
   13.6150   -3.4090   20.3230 C   0  0  0  0  0  0  0  0  0  0  0  0
   13.0880   -2.2970   21.0210 C   0  0  0  0  0  0  0  0  0  0  0  0
   12.3130   -2.3310   22.1270 N   0  0  0  0  0  0  0  0  0  0  0  0
   11.3990   -1.3180   22.1220 C   0  0  0  0  0  0  0  0  0  0  0  0
   10.2180   -1.3160   23.1170 C   0  0  0  0  0  0  0  0  0  0  0  0
    8.9020   -1.1710   22.6760 N   0  0  0  0  0  0  0  0  0  0  0  0
    8.3620   -0.3410   21.6490 C   0  0  0  0  0  0  0  0  0  0  0  0
    8.7790    0.7740   21.3290 O   0  0  0  0  0  0  0  0  0  0  0  0
    7.2720   -0.8500   20.9930 N   0  0  0  0  0  0  0  0  0  0  0  0
    6.5300   -0.1020   20.1250 C   0  0  0  0  0  0  0  0  0  0  0  0
    5.4210    0.6710   20.4780 C   0  0  0  0  0  0  0  0  0  0  0  0
    4.7610    1.3770   19.4820 C   0  0  0  0  0  0  0  0  0  0  0  0
    5.2450    1.2940   18.0960 C   0  0  0  0  0  0  0  0  0  0  0  0
    6.3120    0.5500   17.7520 N   0  0  0  0  0  0  0  0  0  0  0  0
    6.9030   -0.1130   18.7720 C   0  0  0  0  0  0  0  0  0  0  0  0
  1  2  1  0
  2  3  1  0
  2  4  1  0
  4  5  1  0
  5  6  1  0
  6  7  1  0
  7  8  1  0
  8  9  1  0
  9 10  1  0
 10 11  1  0
 11 12  2  0
 11 13  1  0
 13 14  1  0
 14 15  2  0
 15 16  1  0
 16 17  2  0
 17 18  1  0
 14 19  1  0
 18 19  2  0
M  END
