pyridine_urea_7077
     RDKit          3D

 20 22  0  0  0  0  0  0  0  0999 V2000
    8.3940    0.0740   25.1560 C   0  0  0  0  0  0  0  0  0  0  0  0
    8.9430    1.3220   24.4920 C   0  0  0  0  0  0  0  0  0  0  0  0
    8.4450    2.5710   24.9050 C   0  0  0  0  0  0  0  0  0  0  0  0
    8.8700    3.8010   24.3770 C   0  0  0  0  0  0  0  0  0  0  0  0
    9.8350    3.7880   23.4000 C   0  0  0  0  0  0  0  0  0  0  0  0
   10.3940    2.6220   22.9140 C   0  0  0  0  0  0  0  0  0  0  0  0
    9.9240    1.2710   23.4800 C   0  0  0  0  0  0  0  0  0  0  0  0
   10.4190    0.0510   23.0240 C   0  0  0  0  0  0  0  0  0  0  0  0
    9.3480   -0.7500   22.3880 N   0  0  0  0  0  0  0  0  0  0  0  0
    8.4890    0.0360   21.4490 C   0  0  0  0  0  0  0  0  0  0  0  0
    8.8100    1.1750   21.0870 O   0  0  0  0  0  0  0  0  0  0  0  0
    7.2800   -0.6650   21.0460 N   0  0  0  0  0  0  0  0  0  0  0  0
    6.5480   -0.0090   20.0570 C   0  0  0  0  0  0  0  0  0  0  0  0
    5.3640    0.6990   20.3290 C   0  0  0  0  0  0  0  0  0  0  0  0
    4.6250    1.4080   19.2400 C   0  0  0  0  0  0  0  0  0  0  0  0
    5.1310    1.3560   17.9470 C   0  0  0  0  0  0  0  0  0  0  0  0
    6.3070    0.6240   17.7510 N   0  0  0  0  0  0  0  0  0  0  0  0
    6.9650   -0.0160   18.7420 C   0  0  0  0  0  0  0  0  0  0  0  0
   11.1800   -0.5890   23.9850 C   0  0  0  0  0  0  0  0  0  0  0  0
   11.9370   -0.3530   22.9450 C   0  0  0  0  0  0  0  0  0  0  0  0
  1  2  1  0
  2  3  2  0
  3  4  1  0
  4  5  2  0
  5  6  1  0
  2  7  1  0
  6  7  2  0
  7  8  1  0
  8  9  1  0
  9 10  1  0
 10 11  2  0
 10 12  1  0
 12 13  1  0
 13 14  2  0
 14 15  1  0
 15 16  2  0
 16 17  1  0
 13 18  1  0
 17 18  2  0
  8 19  1  0
  8 20  1  0
 19 20  1  0
M  END
