pyridine_urea_11178
     RDKit          3D

 18 19  0  0  0  0  0  0  0  0999 V2000
    9.7890   -1.1160   23.9630 C   0  0  0  0  0  0  0  0  0  0  0  0
   10.3620   -0.3870   23.2290 C   0  0  2  0  0  0  0  0  0  0  0  0
    9.8370   -0.7020   21.8910 N   0  0  0  0  0  0  0  0  0  0  0  0
    8.7760    0.1790   21.4150 C   0  0  0  0  0  0  0  0  0  0  0  0
    8.9910    1.5830   21.2530 O   0  0  0  0  0  0  0  0  0  0  0  0
    7.5260   -0.4740   21.0820 N   0  0  0  0  0  0  0  0  0  0  0  0
    6.7810    0.0290   20.0690 C   0  0  0  0  0  0  0  0  0  0  0  0
    5.6880    0.7720   20.4430 C   0  0  0  0  0  0  0  0  0  0  0  0
    4.7530    1.4450   19.4340 C   0  0  0  0  0  0  0  0  0  0  0  0
    5.0920    1.2560   18.0150 C   0  0  0  0  0  0  0  0  0  0  0  0
    6.2000    0.4830   17.7560 N   0  0  0  0  0  0  0  0  0  0  0  0
    7.0320   -0.1230   18.7210 C   0  0  0  0  0  0  0  0  0  0  0  0
   11.9640   -0.4490   23.2880 C   0  0  0  0  0  0  0  0  0  0  0  0
   12.4390    0.7860   22.7340 C   0  0  0  0  0  0  0  0  0  0  0  0
   12.8860   -0.2570   23.2310 C   0  0  0  0  0  0  0  0  0  0  0  0
   11.6290   -0.9170   23.5290 C   0  0  0  0  0  0  0  0  0  0  0  0
   11.7390   -2.0670   24.0620 N   0  0  0  0  0  0  0  0  0  0  0  0
   12.9160   -1.5820   23.8380 C   0  0  0  0  0  0  0  0  0  0  0  0
  2  1  1  1
  2  3  1  0
  3  4  1  0
  4  5  2  0
  4  6  1  0
  6  7  1  0
  7  8  2  0
  8  9  1  0
  9 10  2  0
 10 11  1  0
  7 12  1  0
 11 12  2  0
  2 13  1  0
 13 14  2  0
 14 15  1  0
 15 16  2  0
 16 17  1  0
 13 18  1  0
 17 18  2  0
M  END
