pyridine_urea_13948
     RDKit          3D

 24 25  0  0  0  0  0  0  0  0999 V2000
    5.4950   -2.5690   21.6440 C   0  0  0  0  0  0  0  0  0  0  0  0
    6.4180   -2.2380   22.6120 N   0  0  0  0  0  0  0  0  0  0  0  0
    6.2270   -1.0240   23.3790 C   0  0  0  0  0  0  0  0  0  0  0  0
    7.5550   -0.4640   23.8830 C   0  0  0  0  0  0  0  0  0  0  0  0
    8.5290   -0.3970   22.8170 N   0  0  0  0  0  0  0  0  0  0  0  0
    8.3660    0.1880   21.6130 C   0  0  0  0  0  0  0  0  0  0  0  0
    9.0740    1.3670   21.1990 O   0  0  0  0  0  0  0  0  0  0  0  0
    7.4190   -0.4880   20.9000 N   0  0  0  0  0  0  0  0  0  0  0  0
    6.5850    0.1320   19.9910 C   0  0  0  0  0  0  0  0  0  0  0  0
    5.2990    0.9000   20.2900 C   0  0  0  0  0  0  0  0  0  0  0  0
    4.5870    1.5010   19.1630 C   0  0  0  0  0  0  0  0  0  0  0  0
    5.0970    1.3430   17.9410 C   0  0  0  0  0  0  0  0  0  0  0  0
    6.2310    0.6530   17.6530 N   0  0  0  0  0  0  0  0  0  0  0  0
    6.9080    0.0910   18.6670 C   0  0  0  0  0  0  0  0  0  0  0  0
    7.5120   -3.4280   23.1320 S   0  0  0  0  0  0  0  0  0  0  0  0
    7.4470   -4.4810   22.1420 O   0  0  0  0  0  0  0  0  0  0  0  0
    7.2150   -3.7330   24.5180 O   0  0  0  0  0  0  0  0  0  0  0  0
    9.1290   -2.6720   23.0500 C   0  0  0  0  0  0  0  0  0  0  0  0
    9.8720   -2.4290   21.9370 C   0  0  0  0  0  0  0  0  0  0  0  0
   11.1430   -1.8540   21.9950 C   0  0  0  0  0  0  0  0  0  0  0  0
   12.0590   -1.3440   23.1240 C   0  0  0  0  0  0  0  0  0  0  0  0
   13.2880   -0.7960   23.1020 F   0  0  0  0  0  0  0  0  0  0  0  0
   11.1030   -1.6690   24.2610 C   0  0  0  0  0  0  0  0  0  0  0  0
    9.7480   -2.2840   24.1680 C   0  0  0  0  0  0  0  0  0  0  0  0
  1  2  1  0
  2  3  1  0
  3  4  1  0
  4  5  1  0
  5  6  1  0
  6  7  2  0
  6  8  1  0
  8  9  1  0
  9 10  2  0
 10 11  1  0
 11 12  2  0
 12 13  1  0
  9 14  1  0
 13 14  2  0
 15  2  1  0
 15 16  2  0
 15 17  2  0
 15 18  1  0
 18 19  2  0
 19 20  1  0
 20 21  2  0
 21 22  1  0
 21 23  1  0
 18 24  1  0
 23 24  2  0
M  END
