pyridine_urea_11139
     RDKit          3D

 18 18  0  0  0  0  0  0  0  0999 V2000
   13.1210   -2.3930   22.6090 C   0  0  0  0  0  0  0  0  0  0  0  0
   13.0380   -1.4760   24.1540 S   0  0  0  0  0  0  0  0  0  0  0  0
   13.4370   -0.1310   23.8320 O   0  0  0  0  0  0  0  0  0  0  0  0
   13.6070   -2.2530   25.2340 O   0  0  0  0  0  0  0  0  0  0  0  0
   11.2510   -1.4270   24.2680 C   0  0  0  0  0  0  0  0  0  0  0  0
   10.7430   -0.3400   23.3560 C   0  0  1  0  0  0  0  0  0  0  0  0
   11.9020    0.3090   22.7940 O   0  0  0  0  0  0  0  0  0  0  0  0
   10.0780   -1.0060   22.2450 C   0  0  0  0  0  0  0  0  0  0  0  0
    8.6700   -0.7780   22.3620 N   0  0  0  0  0  0  0  0  0  0  0  0
    8.0790    0.0020   21.4200 C   0  0  0  0  0  0  0  0  0  0  0  0
    8.7060    1.1960   21.1080 O   0  0  0  0  0  0  0  0  0  0  0  0
    6.9500   -0.5540   20.9650 N   0  0  0  0  0  0  0  0  0  0  0  0
    6.3770    0.0780   19.9360 C   0  0  0  0  0  0  0  0  0  0  0  0
    5.1180    0.8220   20.1500 C   0  0  0  0  0  0  0  0  0  0  0  0
    4.4260    1.5200   19.2060 C   0  0  0  0  0  0  0  0  0  0  0  0
    5.2260    1.3620   17.9250 C   0  0  0  0  0  0  0  0  0  0  0  0
    6.3580    0.7090   17.6530 N   0  0  0  0  0  0  0  0  0  0  0  0
    6.8790    0.0910   18.6900 C   0  0  0  0  0  0  0  0  0  0  0  0
  2  1  1  0
  2  3  2  0
  2  4  2  0
  2  5  1  0
  5  6  1  0
  6  7  1  6
  6  8  1  0
  8  9  1  0
  9 10  1  0
 10 11  2  0
 10 12  1  0
 12 13  1  0
 13 14  2  0
 14 15  1  0
 15 16  2  0
 16 17  1  0
 13 18  1  0
 17 18  2  0
M  END
