pyridine_urea_3731
     RDKit          3D

 19 20  0  0  0  0  0  0  0  0999 V2000
    6.5100   -5.2790   26.0910 C   0  0  0  0  0  0  0  0  0  0  0  0
    7.4280   -4.5400   25.3750 N   0  0  0  0  0  0  0  0  0  0  0  0
    7.1420   -3.9110   24.1510 N   0  0  0  0  0  0  0  0  0  0  0  0
    8.4300   -3.3140   23.9000 C   0  0  0  0  0  0  0  0  0  0  0  0
    8.6740   -2.4780   22.6440 C   0  0  0  0  0  0  0  0  0  0  0  0
    8.9960   -1.1320   22.5900 N   0  0  0  0  0  0  0  0  0  0  0  0
    8.4740   -0.2450   21.6700 C   0  0  0  0  0  0  0  0  0  0  0  0
    8.9860    0.8350   21.4040 O   0  0  0  0  0  0  0  0  0  0  0  0
    7.2990   -0.7200   21.1180 N   0  0  0  0  0  0  0  0  0  0  0  0
    6.5190   -0.0270   20.1820 C   0  0  0  0  0  0  0  0  0  0  0  0
    5.2150    0.7530   20.3990 C   0  0  0  0  0  0  0  0  0  0  0  0
    4.5560    1.4430   19.1960 C   0  0  0  0  0  0  0  0  0  0  0  0
    5.1810    1.3210   17.9580 C   0  0  0  0  0  0  0  0  0  0  0  0
    6.3090    0.6470   17.7240 N   0  0  0  0  0  0  0  0  0  0  0  0
    6.9370    0.0220   18.7190 C   0  0  0  0  0  0  0  0  0  0  0  0
    9.4110   -3.6130   24.9670 C   0  0  0  0  0  0  0  0  0  0  0  0
   11.1940   -2.9820   24.9480 Br  0  0  0  0  0  0  0  0  0  0  0  0
    8.8220   -4.3940   25.9370 C   0  0  0  0  0  0  0  0  0  0  0  0
    9.3140   -5.0940   27.4030 Cl  0  0  0  0  0  0  0  0  0  0  0  0
  1  2  1  0
  2  3  1  0
  3  4  2  0
  4  5  1  0
  5  6  1  0
  6  7  1  0
  7  8  2  0
  7  9  1  0
  9 10  1  0
 10 11  2  0
 11 12  1  0
 12 13  2  0
 13 14  1  0
 10 15  1  0
 14 15  2  0
  4 16  1  0
 16 17  1  0
  2 18  1  0
 16 18  2  0
 18 19  1  0
M  END
