pyridine_urea_5846
     RDKit          3D

 19 19  0  0  0  0  0  0  0  0999 V2000
   13.2920   -2.0210   25.0300 C   0  0  0  0  0  0  0  0  0  0  0  0
   12.9550   -0.6230   25.0710 O   0  0  0  0  0  0  0  0  0  0  0  0
   12.7350   -0.0120   23.8650 C   0  0  0  0  0  0  0  0  0  0  0  0
   12.5190    1.1860   23.7640 O   0  0  0  0  0  0  0  0  0  0  0  0
   12.7610   -0.8390   22.7610 C   0  0  0  0  0  0  0  0  0  0  0  0
   11.4880   -1.3810   22.6260 C   0  0  0  0  0  0  0  0  0  0  0  0
   11.3200   -2.3990   23.5080 F   0  0  0  0  0  0  0  0  0  0  0  0
   11.3460   -1.9620   21.4230 F   0  0  0  0  0  0  0  0  0  0  0  0
   10.4040   -0.5150   22.8430 C   0  0  0  0  0  0  0  0  0  0  0  0
    9.1350   -0.9140   22.3120 N   0  0  0  0  0  0  0  0  0  0  0  0
    8.4880   -0.0230   21.4760 C   0  0  0  0  0  0  0  0  0  0  0  0
    8.9610    1.2500   21.2030 O   0  0  0  0  0  0  0  0  0  0  0  0
    7.3260   -0.5680   20.9810 N   0  0  0  0  0  0  0  0  0  0  0  0
    6.5160    0.0740   20.0460 C   0  0  0  0  0  0  0  0  0  0  0  0
    5.2310    0.8430   20.3360 C   0  0  0  0  0  0  0  0  0  0  0  0
    4.5880    1.4260   19.2610 C   0  0  0  0  0  0  0  0  0  0  0  0
    5.1290    1.2880   17.9780 C   0  0  0  0  0  0  0  0  0  0  0  0
    6.2540    0.6060   17.6960 N   0  0  0  0  0  0  0  0  0  0  0  0
    6.8900    0.0350   18.7250 C   0  0  0  0  0  0  0  0  0  0  0  0
  1  2  1  0
  2  3  1  0
  3  4  2  0
  3  5  1  0
  5  6  1  0
  6  7  1  0
  6  8  1  0
  6  9  1  0
  9 10  1  0
 10 11  1  0
 11 12  2  0
 11 13  1  0
 13 14  1  0
 14 15  2  0
 15 16  1  0
 16 17  2  0
 17 18  1  0
 14 19  1  0
 18 19  2  0
M  END
