pyridine_urea_13291
     RDKit          3D

 22 23  0  0  0  0  0  0  0  0999 V2000
   13.4960   -0.9740   22.9510 C   0  0  0  0  0  0  0  0  0  0  0  0
   13.5010   -2.1980   23.8260 C   0  0  0  0  0  0  0  0  0  0  0  0
   14.1430   -2.1270   25.0050 F   0  0  0  0  0  0  0  0  0  0  0  0
   14.0290   -3.1960   23.1350 F   0  0  0  0  0  0  0  0  0  0  0  0
   12.3080   -2.4620   24.1380 C   0  0  0  0  0  0  0  0  0  0  0  0
   12.0310   -3.5120   24.7170 O   0  0  0  0  0  0  0  0  0  0  0  0
   11.4460   -1.5450   23.7900 C   0  0  0  0  0  0  0  0  0  0  0  0
   11.5830   -0.2050   23.7280 C   0  0  0  0  0  0  0  0  0  0  0  0
   10.3570    0.5040   23.3220 C   0  0  0  0  0  0  0  0  0  0  0  0
    9.2620   -0.2840   23.0580 C   0  0  0  0  0  0  0  0  0  0  0  0
    8.1950    0.5160   22.7360 N   0  0  0  0  0  0  0  0  0  0  0  0
    8.1110    0.7170   21.4470 C   0  0  0  0  0  0  0  0  0  0  0  0
    8.8820    1.7780   20.8620 O   0  0  0  0  0  0  0  0  0  0  0  0
    7.2400   -0.1560   20.8800 N   0  0  0  0  0  0  0  0  0  0  0  0
    6.4340    0.3640   19.9170 C   0  0  0  0  0  0  0  0  0  0  0  0
    5.2470    1.0250   20.1620 C   0  0  0  0  0  0  0  0  0  0  0  0
    4.5590    1.5400   19.0790 C   0  0  0  0  0  0  0  0  0  0  0  0
    5.1010    1.3580   17.8150 C   0  0  0  0  0  0  0  0  0  0  0  0
    6.2350    0.7030   17.5720 N   0  0  0  0  0  0  0  0  0  0  0  0
    6.8720    0.2240   18.6310 C   0  0  0  0  0  0  0  0  0  0  0  0
    9.0750   -1.7270   23.0740 C   0  0  0  0  0  0  0  0  0  0  0  0
   10.2230   -2.3020   23.4590 C   0  0  0  0  0  0  0  0  0  0  0  0
  1  2  1  0
  2  3  1  0
  2  4  1  0
  2  5  1  0
  5  6  2  0
  5  7  1  0
  7  8  2  0
  8  9  1  0
  9 10  2  0
 10 11  1  0
 11 12  1  0
 12 13  2  0
 12 14  1  0
 14 15  1  0
 15 16  2  0
 16 17  1  0
 17 18  2  0
 18 19  1  0
 15 20  1  0
 19 20  2  0
 10 21  1  0
  7 22  1  0
 21 22  2  0
M  END
