pyridine_urea_4935
     RDKit          3D

 21 22  0  0  0  0  0  0  0  0999 V2000
   13.2430   -1.5720   21.7540 C   0  0  0  0  0  0  0  0  0  0  0  0
   12.1310   -0.8610   22.2520 O   0  0  0  0  0  0  0  0  0  0  0  0
   10.9880   -1.5630   22.1880 C   0  0  0  0  0  0  0  0  0  0  0  0
   10.8650   -2.5370   21.4870 O   0  0  0  0  0  0  0  0  0  0  0  0
    9.8330   -1.0840   23.0770 C   0  0  2  0  0  0  0  0  0  0  0  0
    8.6440   -1.1070   22.2770 N   0  0  0  0  0  0  0  0  0  0  0  0
    8.2190   -0.0780   21.4860 C   0  0  0  0  0  0  0  0  0  0  0  0
    8.9080    1.0760   21.2040 O   0  0  0  0  0  0  0  0  0  0  0  0
    6.9720   -0.4190   21.0380 N   0  0  0  0  0  0  0  0  0  0  0  0
    6.3570    0.1870   19.9660 C   0  0  0  0  0  0  0  0  0  0  0  0
    5.1930    0.9250   20.1930 C   0  0  0  0  0  0  0  0  0  0  0  0
    4.5760    1.5530   19.1260 C   0  0  0  0  0  0  0  0  0  0  0  0
    5.1550    1.4110   17.8800 C   0  0  0  0  0  0  0  0  0  0  0  0
    6.2620    0.7070   17.6250 N   0  0  0  0  0  0  0  0  0  0  0  0
    6.8400    0.1070   18.6780 C   0  0  0  0  0  0  0  0  0  0  0  0
   10.0040    0.2630   23.7330 C   0  0  1  0  0  0  0  0  0  0  0  0
   10.3600    0.0880   25.0590 C   0  0  0  0  0  0  0  0  0  0  0  0
   11.4590    0.4250   24.2970 C   0  0  0  0  0  0  0  0  0  0  0  0
   12.6660    0.2400   23.9960 C   0  0  0  0  0  0  0  0  0  0  0  0
   12.4570    1.1430   23.0200 C   0  0  0  0  0  0  0  0  0  0  0  0
   10.9660    1.2510   23.0690 C   0  0  0  0  0  0  0  0  0  0  0  0
  1  2  1  0
  2  3  1  0
  3  4  2  0
  3  5  1  0
  5  6  1  6
  6  7  1  0
  7  8  2  0
  7  9  1  0
  9 10  1  0
 10 11  2  0
 11 12  1  0
 12 13  2  0
 13 14  1  0
 10 15  1  0
 14 15  2  0
  5 16  1  0
 16 17  1  1
 17 18  1  0
 18 19  2  0
 19 20  1  0
 16 21  1  0
 20 21  1  0
M  END
