pyridine_urea_4220
     RDKit          3D

 24 26  0  0  0  0  0  0  0  0999 V2000
    8.5080    1.1570   20.9120 O   0  0  0  0  0  0  0  0  0  0  0  0
    8.3330   -0.0200   21.2500 C   0  0  0  0  0  0  0  0  0  0  0  0
    7.1780   -0.7050   20.9850 N   0  0  0  0  0  0  0  0  0  0  0  0
    6.4610   -0.0170   19.9650 C   0  0  0  0  0  0  0  0  0  0  0  0
    5.1690    0.6950   20.3340 C   0  0  0  0  0  0  0  0  0  0  0  0
    4.4520    1.4490   19.2150 C   0  0  0  0  0  0  0  0  0  0  0  0
    5.1340    1.3930   17.8470 C   0  0  0  0  0  0  0  0  0  0  0  0
    6.3210    0.6780   17.6860 N   0  0  0  0  0  0  0  0  0  0  0  0
    6.9450    0.0100   18.6890 C   0  0  0  0  0  0  0  0  0  0  0  0
    9.2810   -0.7310   21.9130 N   0  0  0  0  0  0  0  0  0  0  0  0
   10.1180    0.1010   22.6390 C   0  0  0  0  0  0  0  0  0  0  0  0
    9.7690    1.4250   23.0570 C   0  0  0  0  0  0  0  0  0  0  0  0
    8.4330    1.6570   23.4360 C   0  0  0  0  0  0  0  0  0  0  0  0
    7.9480    2.8990   23.8620 C   0  0  0  0  0  0  0  0  0  0  0  0
    6.6350    3.1860   24.2530 C   0  0  0  0  0  0  0  0  0  0  0  0
    5.5990    2.5720   23.6470 F   0  0  0  0  0  0  0  0  0  0  0  0
    6.4860    2.9180   25.5830 F   0  0  0  0  0  0  0  0  0  0  0  0
    6.3980    4.5090   24.1350 F   0  0  0  0  0  0  0  0  0  0  0  0
    8.8810    4.1180   23.9360 C   0  0  0  0  0  0  0  0  0  0  0  0
   10.2660    3.7770   23.5170 C   0  0  0  0  0  0  0  0  0  0  0  0
   10.6670    2.5150   23.1090 C   0  0  0  0  0  0  0  0  0  0  0  0
   12.3270    2.4110   22.7040 Cl  0  0  0  0  0  0  0  0  0  0  0  0
   11.6530   -0.2920   22.8230 C   0  0  0  0  0  0  0  0  0  0  0  0
   10.8480   -0.8570   23.6380 C   0  0  0  0  0  0  0  0  0  0  0  0
  1  2  2  0
  2  3  1  0
  3  4  1  0
  4  5  2  0
  5  6  1  0
  6  7  2  0
  7  8  1  0
  4  9  1  0
  8  9  2  0
  2 10  1  0
 11 10  1  0
 11 12  1  0
 12 13  2  0
 13 14  1  0
 14 15  1  0
 15 16  1  0
 15 17  1  0
 15 18  1  0
 14 19  2  0
 19 20  1  0
 12 21  1  0
 20 21  2  0
 21 22  1  0
 11 23  1  0
 11 24  1  0
 23 24  1  0
M  END
