pyridine_urea_14685
     RDKit          3D

 20 21  0  0  0  0  0  0  0  0999 V2000
   13.5070    0.7870   22.9150 C   0  0  0  0  0  0  0  0  0  0  0  0
   12.1870    0.3270   23.0510 C   0  0  0  0  0  0  0  0  0  0  0  0
   11.7340   -0.7790   22.5150 C   0  0  0  0  0  0  0  0  0  0  0  0
   10.3460   -1.1650   22.7050 C   0  0  0  0  0  0  0  0  0  0  0  0
   11.1020   -1.8660   22.0520 C   0  0  0  0  0  0  0  0  0  0  0  0
   12.8450   -2.1000   21.3900 Br  0  0  0  0  0  0  0  0  0  0  0  0
   11.6410   -0.6570   22.6260 C   0  0  0  0  0  0  0  0  0  0  0  0
   11.1030    0.6160   23.5780 C   0  0  0  0  0  0  0  0  0  0  0  0
    9.7790    0.3330   23.8310 C   0  0  0  0  0  0  0  0  0  0  0  0
    9.3940   -0.9760   23.6240 C   0  0  0  0  0  0  0  0  0  0  0  0
    8.4720   -1.2220   22.6080 N   0  0  0  0  0  0  0  0  0  0  0  0
    8.1080   -0.2930   21.5430 C   0  0  0  0  0  0  0  0  0  0  0  0
    8.7270    0.7270   21.2710 O   0  0  0  0  0  0  0  0  0  0  0  0
    6.9660   -0.7400   20.9240 N   0  0  0  0  0  0  0  0  0  0  0  0
    6.2880   -0.0040   19.9620 C   0  0  0  0  0  0  0  0  0  0  0  0
    5.0180    0.7400   20.1670 C   0  0  0  0  0  0  0  0  0  0  0  0
    4.4950    1.4350   19.0760 C   0  0  0  0  0  0  0  0  0  0  0  0
    5.1810    1.3960   17.8700 C   0  0  0  0  0  0  0  0  0  0  0  0
    6.3270    0.7210   17.6720 N   0  0  0  0  0  0  0  0  0  0  0  0
    6.8470    0.0440   18.7070 C   0  0  0  0  0  0  0  0  0  0  0  0
  1  2  1  0
  2  3  2  0
  3  4  1  0
  4  5  2  0
  5  6  1  0
  5  7  1  0
  2  8  1  0
  7  8  2  0
  8  9  1  0
  9 10  1  0
 10 11  1  0
 11 12  1  0
 12 13  2  0
 12 14  1  0
 14 15  1  0
 15 16  2  0
 16 17  1  0
 17 18  2  0
 18 19  1  0
 15 20  1  0
 19 20  2  0
M  END
