pyridine_urea_6176
     RDKit          3D

 24 26  0  0  0  0  0  0  0  0999 V2000
    9.5150   -2.1140   21.6880 C   0  0  0  0  0  0  0  0  0  0  0  0
   10.6620   -1.8890   21.9040 C   0  0  0  0  0  0  0  0  0  0  0  0
   12.2330   -1.9910   22.0870 C   0  0  0  0  0  0  0  0  0  0  0  0
   13.2280   -0.8860   22.5370 C   0  0  0  0  0  0  0  0  0  0  0  0
   12.8290    0.4130   22.8330 C   0  0  0  0  0  0  0  0  0  0  0  0
   11.8670    1.6450   23.0210 C   0  0  1  0  0  0  0  0  0  0  0  0
   11.9790    2.5820   22.2560 O   0  0  0  0  0  0  0  0  0  0  0  0
   11.0760    3.6490   22.5310 C   0  0  0  0  0  0  0  0  0  0  0  0
    9.7850    3.4330   22.2490 C   0  0  0  0  0  0  0  0  0  0  0  0
    9.8090    2.3150   23.2270 C   0  0  0  0  0  0  0  0  0  0  0  0
   10.5220    1.1730   22.8190 C   0  0  2  0  0  0  0  0  0  0  0  0
   10.0660    0.0080   23.4410 C   0  0  0  0  0  0  0  0  0  0  0  0
    8.8500   -0.5250   22.7550 N   0  0  0  0  0  0  0  0  0  0  0  0
    8.3260    0.1420   21.6500 C   0  0  0  0  0  0  0  0  0  0  0  0
    8.7650    1.4110   21.0910 O   0  0  0  0  0  0  0  0  0  0  0  0
    7.2700   -0.5520   21.1030 N   0  0  0  0  0  0  0  0  0  0  0  0
    6.4900    0.0600   20.1230 C   0  0  0  0  0  0  0  0  0  0  0  0
    5.2080    0.7820   20.3430 C   0  0  0  0  0  0  0  0  0  0  0  0
    4.5430    1.3950   19.1670 C   0  0  0  0  0  0  0  0  0  0  0  0
    5.1470    1.2660   17.9240 C   0  0  0  0  0  0  0  0  0  0  0  0
    6.3070    0.5950   17.7420 N   0  0  0  0  0  0  0  0  0  0  0  0
    6.9270    0.0240   18.8060 C   0  0  0  0  0  0  0  0  0  0  0  0
   11.9350   -0.4510   22.4730 C   0  0  0  0  0  0  0  0  0  0  0  0
   10.6580   -0.5080   22.2760 C   0  0  0  0  0  0  0  0  0  0  0  0
  1  2  1  0
  2  3  2  0
  3  4  1  0
  4  5  2  0
  6  5  1  6
  6  7  1  0
  7  8  1  0
  8  9  1  0
  9 10  1  0
  6 11  1  0
 10 11  1  0
 11 12  1  1
 12 13  1  0
 13 14  1  0
 14 15  2  0
 14 16  1  0
 16 17  1  0
 17 18  2  0
 18 19  1  0
 19 20  2  0
 20 21  1  0
 17 22  1  0
 21 22  2  0
  5 23  1  0
  2 24  1  0
 23 24  2  0
M  END
