pyridine_urea_7421
     RDKit          3D

 17 18  0  0  0  0  0  0  0  0999 V2000
   13.0720   -2.1350   24.4680 C   0  0  0  0  0  0  0  0  0  0  0  0
   12.7070   -1.0190   23.7370 N   0  0  0  0  0  0  0  0  0  0  0  0
   12.3490   -0.9580   22.3930 C   0  0  0  0  0  0  0  0  0  0  0  0
   10.9690   -1.0770   22.1440 C   0  0  0  0  0  0  0  0  0  0  0  0
   10.1700   -0.9390   23.2610 C   0  0  0  0  0  0  0  0  0  0  0  0
    8.7750   -0.5560   22.9270 N   0  0  0  0  0  0  0  0  0  0  0  0
    8.4830    0.0240   21.6480 C   0  0  0  0  0  0  0  0  0  0  0  0
    9.0450    1.0610   21.2620 O   0  0  0  0  0  0  0  0  0  0  0  0
    7.5260   -0.6470   20.9440 N   0  0  0  0  0  0  0  0  0  0  0  0
    6.7230    0.0180   20.0770 C   0  0  0  0  0  0  0  0  0  0  0  0
    5.5960    0.7600   20.4580 C   0  0  0  0  0  0  0  0  0  0  0  0
    4.7850    1.4650   19.3720 C   0  0  0  0  0  0  0  0  0  0  0  0
    5.2030    1.3360   18.0520 C   0  0  0  0  0  0  0  0  0  0  0  0
    6.2800    0.6140   17.7150 N   0  0  0  0  0  0  0  0  0  0  0  0
    6.9660    0.0070   18.7140 C   0  0  0  0  0  0  0  0  0  0  0  0
   10.7040    0.0500   24.2620 C   0  0  0  0  0  0  0  0  0  0  0  0
   12.0770   -0.0570   24.4970 C   0  0  0  0  0  0  0  0  0  0  0  0
  1  2  1  0
  2  3  1  0
  3  4  1  0
  4  5  1  0
  5  6  1  0
  6  7  1  0
  7  8  2  0
  7  9  1  0
  9 10  1  0
 10 11  2  0
 11 12  1  0
 12 13  2  0
 13 14  1  0
 10 15  1  0
 14 15  2  0
  5 16  1  0
  2 17  1  0
 16 17  1  0
M  END
