pyridine_urea_1430
     RDKit          3D

 19 20  0  0  0  0  0  0  0  0999 V2000
    9.8720   -2.8300   23.6040 C   0  0  0  0  0  0  0  0  0  0  0  0
    8.9060   -2.3240   22.5030 C   0  0  2  0  0  0  0  0  0  0  0  0
    8.9850   -0.8530   22.4180 N   0  0  0  0  0  0  0  0  0  0  0  0
    8.3260   -0.1200   21.4340 C   0  0  0  0  0  0  0  0  0  0  0  0
    8.7600    1.2000   21.0480 O   0  0  0  0  0  0  0  0  0  0  0  0
    7.2550   -0.8340   20.9640 N   0  0  0  0  0  0  0  0  0  0  0  0
    6.5590   -0.0760   20.0410 C   0  0  0  0  0  0  0  0  0  0  0  0
    5.4050    0.6880   20.2530 C   0  0  0  0  0  0  0  0  0  0  0  0
    4.7760    1.4150   19.2350 C   0  0  0  0  0  0  0  0  0  0  0  0
    5.3290    1.3730   17.9750 C   0  0  0  0  0  0  0  0  0  0  0  0
    6.4320    0.6570   17.7210 N   0  0  0  0  0  0  0  0  0  0  0  0
    7.0090   -0.0360   18.7330 C   0  0  0  0  0  0  0  0  0  0  0  0
    7.4880   -2.7870   22.8140 C   0  0  2  0  0  0  0  0  0  0  0  0
    6.7410   -2.2140   23.9200 N   0  0  0  0  0  0  0  0  0  0  0  0
    6.7200   -3.1600   24.8950 N   0  0  0  0  0  0  0  0  0  0  0  0
    6.8990   -4.3610   24.3160 C   0  0  0  0  0  0  0  0  0  0  0  0
    6.5680   -5.5740   24.8650 O   0  0  0  0  0  0  0  0  0  0  0  0
    7.4340   -4.1220   23.1430 N   0  0  0  0  0  0  0  0  0  0  0  0
    6.9180   -5.1570   22.2150 C   0  0  0  0  0  0  0  0  0  0  0  0
  2  1  1  1
  2  3  1  0
  3  4  1  0
  4  5  2  0
  4  6  1  0
  6  7  1  0
  7  8  2  0
  8  9  1  0
  9 10  2  0
 10 11  1  0
  7 12  1  0
 11 12  2  0
  2 13  1  0
 13 14  1  1
 14 15  1  0
 15 16  1  0
 16 17  2  0
 13 18  1  0
 16 18  1  0
 18 19  1  0
M  END
