pyridine_urea_2509
     RDKit          3D

 24 25  0  0  0  0  0  0  0  0999 V2000
   12.9640   -2.5380   21.1060 C   0  0  0  0  0  0  0  0  0  0  0  0
   13.2930   -2.5640   22.5880 C   0  0  0  0  0  0  0  0  0  0  0  0
   13.8040   -1.2760   22.8940 O   0  0  0  0  0  0  0  0  0  0  0  0
   12.8040   -0.4180   22.9210 C   0  0  0  0  0  0  0  0  0  0  0  0
   11.6410   -1.1340   22.9150 C   0  0  0  0  0  0  0  0  0  0  0  0
   10.4260   -0.5700   22.9510 C   0  0  0  0  0  0  0  0  0  0  0  0
   10.2300    0.7800   22.9920 C   0  0  0  0  0  0  0  0  0  0  0  0
    8.9480    1.2580   23.0360 C   0  0  0  0  0  0  0  0  0  0  0  0
    8.1100    0.0570   22.9270 N   0  0  0  0  0  0  0  0  0  0  0  0
    8.1090   -0.5260   21.7070 C   0  0  0  0  0  0  0  0  0  0  0  0
    9.3150   -0.8170   21.0310 O   0  0  0  0  0  0  0  0  0  0  0  0
    6.8570   -0.7620   21.2140 N   0  0  0  0  0  0  0  0  0  0  0  0
    6.3140   -0.0720   20.1310 C   0  0  0  0  0  0  0  0  0  0  0  0
    5.1310    0.6710   20.2520 C   0  0  0  0  0  0  0  0  0  0  0  0
    4.5790    1.3730   19.1840 C   0  0  0  0  0  0  0  0  0  0  0  0
    5.2250    1.3320   17.9640 C   0  0  0  0  0  0  0  0  0  0  0  0
    6.3530    0.6640   17.7020 N   0  0  0  0  0  0  0  0  0  0  0  0
    6.8960   -0.0210   18.7250 C   0  0  0  0  0  0  0  0  0  0  0  0
   11.3560    1.6140   22.9820 C   0  0  0  0  0  0  0  0  0  0  0  0
   11.2700    3.0160   22.9940 C   0  0  0  0  0  0  0  0  0  0  0  0
   10.9410    3.6650   24.1170 F   0  0  0  0  0  0  0  0  0  0  0  0
   12.4090    3.6190   22.5580 F   0  0  0  0  0  0  0  0  0  0  0  0
   10.3210    3.4300   22.1300 F   0  0  0  0  0  0  0  0  0  0  0  0
   12.7520    0.9700   22.9500 C   0  0  0  0  0  0  0  0  0  0  0  0
  1  2  1  0
  2  3  1  0
  3  4  1  0
  4  5  2  0
  5  6  1  0
  6  7  2  0
  7  8  1  0
  8  9  1  0
  9 10  1  0
 10 11  2  0
 10 12  1  0
 12 13  1  0
 13 14  2  0
 14 15  1  0
 15 16  2  0
 16 17  1  0
 13 18  1  0
 17 18  2  0
  7 19  1  0
 19 20  1  0
 20 21  1  0
 20 22  1  0
 20 23  1  0
  4 24  1  0
 19 24  2  0
M  END
