pyridine_urea_4400
     RDKit          3D

 23 24  0  0  0  0  0  0  0  0999 V2000
   13.1440   -2.7240   24.5310 C   0  0  0  0  0  0  0  0  0  0  0  0
   11.8480   -2.1580   24.6790 O   0  0  0  0  0  0  0  0  0  0  0  0
   11.9650   -0.7520   24.8570 C   0  0  0  0  0  0  0  0  0  0  0  0
   12.8760   -0.2480   25.4700 O   0  0  0  0  0  0  0  0  0  0  0  0
   10.8360    0.0070   24.1760 C   0  0  0  0  0  0  0  0  0  0  0  0
   10.9610   -0.1130   22.6510 C   0  0  2  0  0  0  0  0  0  0  0  0
    9.5160   -0.6540   22.7450 N   0  0  0  0  0  0  0  0  0  0  0  0
    8.3770   -0.0260   22.1800 C   0  0  0  0  0  0  0  0  0  0  0  0
    8.0890    1.0780   22.5660 O   0  0  0  0  0  0  0  0  0  0  0  0
    7.6130   -0.7370   21.1740 N   0  0  0  0  0  0  0  0  0  0  0  0
    6.7610   -0.1140   20.2270 C   0  0  0  0  0  0  0  0  0  0  0  0
    5.4990    0.6910   20.5840 C   0  0  0  0  0  0  0  0  0  0  0  0
    4.7940    1.2460   19.5040 C   0  0  0  0  0  0  0  0  0  0  0  0
    5.2370    1.0550   18.2010 C   0  0  0  0  0  0  0  0  0  0  0  0
    6.3300    0.3520   17.8730 N   0  0  0  0  0  0  0  0  0  0  0  0
    7.0580   -0.2110   18.8720 C   0  0  0  0  0  0  0  0  0  0  0  0
   10.6950   -1.2280   21.7650 C   0  0  0  0  0  0  0  0  0  0  0  0
   11.7620   -0.9030   22.6330 C   0  0  0  0  0  0  0  0  0  0  0  0
   11.6890    0.4580   23.2750 C   0  0  0  0  0  0  0  0  0  0  0  0
   10.5640    1.2560   22.9470 C   0  0  0  0  0  0  0  0  0  0  0  0
    9.4540    0.8170   22.0080 C   0  0  0  0  0  0  0  0  0  0  0  0
    7.8850    2.1750   21.6580 I   0  0  0  0  0  0  0  0  0  0  0  0
    9.5630   -0.4980   21.4130 C   0  0  0  0  0  0  0  0  0  0  0  0
  1  2  1  0
  2  3  1  0
  3  4  2  0
  3  5  1  0
  6  5  1  1
  6  7  1  0
  7  8  1  0
  8  9  2  0
  8 10  1  0
 10 11  1  0
 11 12  2  0
 12 13  1  0
 13 14  2  0
 14 15  1  0
 11 16  1  0
 15 16  2  0
  6 17  1  0
 17 18  2  0
 18 19  1  0
 19 20  2  0
 20 21  1  0
 21 22  1  0
 17 23  1  0
 21 23  2  0
M  END
