pyridine_urea_2704
     RDKit          3D

 23 25  0  0  0  0  0  0  0  0999 V2000
    8.5750    0.8530   21.1320 O   0  0  0  0  0  0  0  0  0  0  0  0
    8.0590   -0.1730   21.5530 C   0  0  0  0  0  0  0  0  0  0  0  0
    6.9860   -0.7800   20.9590 N   0  0  0  0  0  0  0  0  0  0  0  0
    6.3420   -0.0260   19.9270 C   0  0  0  0  0  0  0  0  0  0  0  0
    5.0180    0.7410   20.2360 C   0  0  0  0  0  0  0  0  0  0  0  0
    4.4550    1.4620   19.1920 C   0  0  0  0  0  0  0  0  0  0  0  0
    5.1960    1.4260   17.8520 C   0  0  0  0  0  0  0  0  0  0  0  0
    6.3410    0.7360   17.6500 N   0  0  0  0  0  0  0  0  0  0  0  0
    6.8740    0.0410   18.6690 C   0  0  0  0  0  0  0  0  0  0  0  0
    8.4110   -0.8710   22.6520 N   0  0  0  0  0  0  0  0  0  0  0  0
    9.6970   -0.5620   23.2190 C   0  0  0  0  0  0  0  0  0  0  0  0
   10.1960    0.8670   23.2940 C   0  0  0  0  0  0  0  0  0  0  0  0
   11.5620    1.1240   23.9000 C   0  0  0  0  0  0  0  0  0  0  0  0
   12.3580   -0.0490   24.4040 C   0  0  0  0  0  0  0  0  0  0  0  0
   11.7970   -1.4290   24.2930 C   0  0  0  0  0  0  0  0  0  0  0  0
   12.4340   -2.3690   24.6300 O   0  0  0  0  0  0  0  0  0  0  0  0
   12.8940   -2.0820   23.3840 C   0  0  0  0  0  0  0  0  0  0  0  0
   12.9260   -2.9710   22.4500 N   0  0  0  0  0  0  0  0  0  0  0  0
   13.2940   -2.5300   21.2560 C   0  0  0  0  0  0  0  0  0  0  0  0
   13.6240   -1.2360   21.0530 C   0  0  0  0  0  0  0  0  0  0  0  0
   13.5570   -0.3950   22.1410 C   0  0  0  0  0  0  0  0  0  0  0  0
   13.1970   -0.8100   23.3000 N   0  0  0  0  0  0  0  0  0  0  0  0
   10.5690   -1.6700   23.7440 C   0  0  0  0  0  0  0  0  0  0  0  0
  1  2  2  0
  2  3  1  0
  3  4  1  0
  4  5  2  0
  5  6  1  0
  6  7  2  0
  7  8  1  0
  4  9  1  0
  8  9  2  0
  2 10  1  0
 10 11  1  0
 11 12  2  0
 12 13  1  0
 13 14  2  0
 14 15  1  0
 15 16  1  0
 16 17  1  0
 17 18  2  0
 18 19  1  0
 19 20  2  0
 20 21  1  0
 17 22  1  0
 21 22  2  0
 11 23  1  0
 15 23  2  0
M  END
