pyridine_urea_2576
     RDKit          3D

 24 25  0  0  0  0  0  0  0  0999 V2000
   13.4840   -2.9950   22.6760 C   0  0  0  0  0  0  0  0  0  0  0  0
   13.2170   -1.7200   21.9940 C   0  0  0  0  0  0  0  0  0  0  0  0
   11.8520   -1.6740   21.7740 C   0  0  0  0  0  0  0  0  0  0  0  0
   13.7030   -0.8570   23.0090 N   0  0  0  0  0  0  0  0  0  0  0  0
   13.4060    0.4560   22.8230 C   0  0  0  0  0  0  0  0  0  0  0  0
   13.3500   -1.3790   24.1700 C   0  0  0  0  0  0  0  0  0  0  0  0
   13.7980   -2.0420   25.0990 O   0  0  0  0  0  0  0  0  0  0  0  0
   12.1410   -0.9660   24.0780 C   0  0  0  0  0  0  0  0  0  0  0  0
   11.0190   -1.6020   24.1940 C   0  0  0  0  0  0  0  0  0  0  0  0
    9.7950   -0.7770   23.9780 C   0  0  0  0  0  0  0  0  0  0  0  0
    9.6150    0.6170   23.6520 C   0  0  0  0  0  0  0  0  0  0  0  0
    8.4600   -0.0780   23.7810 C   0  0  0  0  0  0  0  0  0  0  0  0
    8.2970   -0.7200   22.5970 N   0  0  0  0  0  0  0  0  0  0  0  0
    8.0090   -0.0680   21.4500 C   0  0  0  0  0  0  0  0  0  0  0  0
    8.7020    1.1190   21.0260 O   0  0  0  0  0  0  0  0  0  0  0  0
    6.9890   -0.7010   20.8580 N   0  0  0  0  0  0  0  0  0  0  0  0
    6.3940   -0.0080   19.8980 C   0  0  0  0  0  0  0  0  0  0  0  0
    5.1970    0.6680   20.1550 C   0  0  0  0  0  0  0  0  0  0  0  0
    4.5660    1.4060   19.1650 C   0  0  0  0  0  0  0  0  0  0  0  0
    5.1860    1.4290   17.9290 C   0  0  0  0  0  0  0  0  0  0  0  0
    6.3280    0.7930   17.6360 N   0  0  0  0  0  0  0  0  0  0  0  0
    6.9050    0.0860   18.6250 C   0  0  0  0  0  0  0  0  0  0  0  0
   10.9610    1.0780   23.5810 C   0  0  0  0  0  0  0  0  0  0  0  0
   12.1440    0.4680   23.7540 C   0  0  0  0  0  0  0  0  0  0  0  0
  1  2  1  0
  2  3  1  0
  2  4  1  0
  4  5  1  0
  4  6  1  0
  6  7  2  0
  6  8  1  0
  8  9  2  0
  9 10  1  0
 10 11  2  0
 11 12  1  0
 12 13  1  0
 13 14  1  0
 14 15  2  0
 14 16  1  0
 16 17  1  0
 17 18  2  0
 18 19  1  0
 19 20  2  0
 20 21  1  0
 17 22  1  0
 21 22  2  0
 11 23  1  0
  8 24  1  0
 23 24  2  0
M  END
