pyridine_urea_10682
     RDKit          3D

 21 23  0  0  0  0  0  0  0  0999 V2000
    8.9860    1.4970   21.2720 O   0  0  0  0  0  0  0  0  0  0  0  0
    8.5430    0.4400   21.7380 C   0  0  0  0  0  0  0  0  0  0  0  0
    7.5000   -0.2970   21.1970 N   0  0  0  0  0  0  0  0  0  0  0  0
    6.6350    0.2170   20.2110 C   0  0  0  0  0  0  0  0  0  0  0  0
    5.3480    0.9940   20.5350 C   0  0  0  0  0  0  0  0  0  0  0  0
    4.5850    1.4830   19.3070 C   0  0  0  0  0  0  0  0  0  0  0  0
    5.1570    1.1600   17.9710 C   0  0  0  0  0  0  0  0  0  0  0  0
    6.2870    0.4630   17.7940 N   0  0  0  0  0  0  0  0  0  0  0  0
    6.9700    0.0220   18.8740 C   0  0  0  0  0  0  0  0  0  0  0  0
    9.0870   -0.1410   22.8880 N   0  0  0  0  0  0  0  0  0  0  0  0
   10.0890   -1.1230   22.6400 C   0  0  2  0  0  0  0  0  0  0  0  0
   10.8450   -1.7090   23.5670 C   0  0  0  0  0  0  0  0  0  0  0  0
   11.9790   -1.0360   23.9520 C   0  0  0  0  0  0  0  0  0  0  0  0
   12.8550   -1.6200   24.7990 C   0  0  0  0  0  0  0  0  0  0  0  0
   12.6170   -2.8810   25.2820 C   0  0  0  0  0  0  0  0  0  0  0  0
   13.6330   -3.2880   26.0810 F   0  0  0  0  0  0  0  0  0  0  0  0
   11.4700   -3.6680   24.9980 C   0  0  0  0  0  0  0  0  0  0  0  0
   10.5380   -2.9570   24.0470 C   0  0  0  0  0  0  0  0  0  0  0  0
   11.2490   -0.8740   21.9840 C   0  0  0  0  0  0  0  0  0  0  0  0
   12.3800   -1.0860   22.5360 C   0  0  0  0  0  0  0  0  0  0  0  0
   12.1300    0.3140   22.6620 C   0  0  0  0  0  0  0  0  0  0  0  0
  1  2  2  0
  2  3  1  0
  3  4  1  0
  4  5  2  0
  5  6  1  0
  6  7  2  0
  7  8  1  0
  4  9  1  0
  8  9  2  0
  2 10  1  0
 11 10  1  1
 11 12  1  0
 12 13  2  0
 13 14  1  0
 14 15  2  0
 15 16  1  0
 15 17  1  0
 12 18  1  0
 17 18  2  0
 11 19  1  0
 19 20  1  0
 19 21  1  0
 20 21  1  0
M  END
