pyridine_urea_11987
     RDKit          3D

 24 26  0  0  0  0  0  0  0  0999 V2000
    8.7980    1.5740   20.8840 O   0  0  0  0  0  0  0  0  0  0  0  0
    8.2790    0.6320   21.4480 C   0  0  0  0  0  0  0  0  0  0  0  0
    8.5450    0.2770   22.6830 N   0  0  0  0  0  0  0  0  0  0  0  0
    9.7570   -0.1460   23.1140 C   0  0  0  0  0  0  0  0  0  0  0  0
   10.6860   -0.7000   22.2240 C   0  0  0  0  0  0  0  0  0  0  0  0
   11.9040   -1.1660   22.6830 C   0  0  0  0  0  0  0  0  0  0  0  0
   12.1260   -1.0680   24.0330 C   0  0  0  0  0  0  0  0  0  0  0  0
   13.4880   -1.6740   24.8580 S   0  0  0  0  0  0  0  0  0  0  0  0
   12.6250   -3.2090   25.1880 C   0  0  0  0  0  0  0  0  0  0  0  0
   11.3840   -3.0410   24.5030 C   0  0  0  0  0  0  0  0  0  0  0  0
   10.2180   -3.6570   24.8110 N   0  0  0  0  0  0  0  0  0  0  0  0
    8.8700   -3.9610   24.7070 C   0  0  0  0  0  0  0  0  0  0  0  0
    8.5160   -4.9840   25.5750 C   0  0  0  0  0  0  0  0  0  0  0  0
    9.6600   -5.2770   26.2920 C   0  0  0  0  0  0  0  0  0  0  0  0
   10.6130   -4.3050   25.9600 C   0  0  0  0  0  0  0  0  0  0  0  0
   11.1180   -0.4430   24.9300 C   0  0  0  0  0  0  0  0  0  0  0  0
    9.9600    0.0050   24.4490 C   0  0  0  0  0  0  0  0  0  0  0  0
    7.3360   -0.1870   20.9100 N   0  0  0  0  0  0  0  0  0  0  0  0
    6.5050    0.3420   19.9600 C   0  0  0  0  0  0  0  0  0  0  0  0
    5.3220    1.0200   20.2010 C   0  0  0  0  0  0  0  0  0  0  0  0
    4.6130    1.5330   19.1400 C   0  0  0  0  0  0  0  0  0  0  0  0
    5.1010    1.3570   17.8640 C   0  0  0  0  0  0  0  0  0  0  0  0
    6.2310    0.6900   17.6010 N   0  0  0  0  0  0  0  0  0  0  0  0
    6.8940    0.2040   18.6550 C   0  0  0  0  0  0  0  0  0  0  0  0
  1  2  2  0
  2  3  1  0
  3  4  1  0
  4  5  2  0
  5  6  1  0
  6  7  2  0
  7  8  1  0
  8  9  1  0
  9 10  1  0
 10 11  1  0
 11 12  1  0
 12 13  1  0
 13 14  1  0
 11 15  1  0
 14 15  1  0
  7 16  1  0
  4 17  1  0
 16 17  2  0
  2 18  1  0
 18 19  1  0
 19 20  2  0
 20 21  1  0
 21 22  2  0
 22 23  1  0
 19 24  1  0
 23 24  2  0
M  END
