pyridine_urea_6217
     RDKit          3D

 24 26  0  0  0  0  0  0  0  0999 V2000
    8.7420    1.9030   21.0970 O   0  0  0  0  0  0  0  0  0  0  0  0
    8.4880    0.7190   21.2210 C   0  0  0  0  0  0  0  0  0  0  0  0
    9.4130   -0.1870   21.5230 N   0  0  0  0  0  0  0  0  0  0  0  0
    8.9200   -1.0370   22.5070 C   0  0  0  0  0  0  0  0  0  0  0  0
    9.9430   -1.4980   23.4660 C   0  0  0  0  0  0  0  0  0  0  0  0
   11.4890   -1.3520   22.9300 C   0  0  0  0  0  0  0  0  0  0  0  0
   12.7230   -0.9320   23.0600 C   0  0  0  0  0  0  0  0  0  0  0  0
   13.2580   -1.4870   21.8170 C   0  0  0  0  0  0  0  0  0  0  0  0
   11.7170   -1.7950   22.0170 C   0  0  0  0  0  0  0  0  0  0  0  0
    9.9450   -2.3900   21.8270 Br  0  0  0  0  0  0  0  0  0  0  0  0
   11.9200   -2.4160   20.8780 C   0  0  0  0  0  0  0  0  0  0  0  0
   12.5140   -1.6990   21.8090 C   0  0  0  0  0  0  0  0  0  0  0  0
    9.9180   -3.0700   23.3510 C   0  0  0  0  0  0  0  0  0  0  0  0
    9.3510   -3.8190   24.4280 C   0  0  0  0  0  0  0  0  0  0  0  0
    8.6770   -3.2530   25.4380 O   0  0  0  0  0  0  0  0  0  0  0  0
    8.2250   -2.0320   25.1090 C   0  0  0  0  0  0  0  0  0  0  0  0
    9.3640   -1.0990   24.8950 C   0  0  0  0  0  0  0  0  0  0  0  0
    7.2830    0.0900   21.0610 N   0  0  0  0  0  0  0  0  0  0  0  0
    6.4750    0.5110   20.0430 C   0  0  0  0  0  0  0  0  0  0  0  0
    5.2010    1.2610   20.1920 C   0  0  0  0  0  0  0  0  0  0  0  0
    4.5190    1.6520   19.0600 C   0  0  0  0  0  0  0  0  0  0  0  0
    5.0770    1.3120   17.8380 C   0  0  0  0  0  0  0  0  0  0  0  0
    6.2130    0.6220   17.6620 N   0  0  0  0  0  0  0  0  0  0  0  0
    6.8770    0.2390   18.7550 C   0  0  0  0  0  0  0  0  0  0  0  0
  1  2  2  0
  2  3  1  0
  3  4  1  0
  5  4  1  0
  5  6  1  0
  6  7  2  0
  7  8  1  0
  8  9  2  0
  9 10  1  0
  9 11  1  0
  6 12  1  0
 11 12  2  0
  5 13  1  0
 13 14  1  0
 14 15  1  0
 15 16  1  0
  5 17  1  0
 16 17  1  0
  2 18  1  0
 18 19  1  0
 19 20  2  0
 20 21  1  0
 21 22  2  0
 22 23  1  0
 19 24  1  0
 23 24  2  0
M  END
