pyridine_urea_5557
     RDKit          3D

 17 18  0  0  0  0  0  0  0  0999 V2000
    7.7900   -1.8210   24.7160 C   0  0  0  0  0  0  0  0  0  0  0  0
    7.5410   -1.9890   23.2340 C   0  0  1  0  0  0  0  0  0  0  0  0
    8.7400   -1.5410   22.5110 N   0  0  0  0  0  0  0  0  0  0  0  0
    8.3020   -0.4530   21.6310 C   0  0  0  0  0  0  0  0  0  0  0  0
    8.9360    0.5760   21.4260 O   0  0  0  0  0  0  0  0  0  0  0  0
    6.9630   -0.8600   21.0880 N   0  0  0  0  0  0  0  0  0  0  0  0
    6.3750   -0.0730   20.0110 C   0  0  0  0  0  0  0  0  0  0  0  0
    5.0940    0.7420   20.2660 C   0  0  0  0  0  0  0  0  0  0  0  0
    4.5630    1.4760   19.2200 C   0  0  0  0  0  0  0  0  0  0  0  0
    5.2370    1.4660   17.8640 C   0  0  0  0  0  0  0  0  0  0  0  0
    6.3780    0.7110   17.6950 N   0  0  0  0  0  0  0  0  0  0  0  0
    6.9330   -0.0400   18.7420 C   0  0  0  0  0  0  0  0  0  0  0  0
    7.2490   -3.4580   22.9530 C   0  0  0  0  0  0  0  0  0  0  0  0
    7.9110   -4.5600   23.6680 N   0  0  0  0  0  0  0  0  0  0  0  0
    7.3800   -5.7250   23.1470 N   0  0  0  0  0  0  0  0  0  0  0  0
    6.4330   -5.4450   22.1510 C   0  0  0  0  0  0  0  0  0  0  0  0
    6.3810   -3.9740   22.0620 N   0  0  0  0  0  0  0  0  0  0  0  0
  2  1  1  1
  2  3  1  0
  3  4  1  0
  4  5  2  0
  4  6  1  0
  6  7  1  0
  7  8  2  0
  8  9  1  0
  9 10  2  0
 10 11  1  0
  7 12  1  0
 11 12  2  0
  2 13  1  0
 13 14  2  0
 14 15  1  0
 15 16  2  0
 13 17  1  0
 16 17  1  0
M  END
