pyridine_urea_7874
     RDKit          3D

 26 28  0  0  0  0  0  0  0  0999 V2000
   11.9660    4.3260   21.8830 C   0  0  0  0  0  0  0  0  0  0  0  0
   11.2110    3.5830   22.5430 O   0  0  0  0  0  0  0  0  0  0  0  0
   11.6660    2.2930   22.6930 C   0  0  0  0  0  0  0  0  0  0  0  0
   12.9770    2.1830   22.6820 C   0  0  0  0  0  0  0  0  0  0  0  0
   13.6570    1.0020   22.7800 C   0  0  0  0  0  0  0  0  0  0  0  0
   13.0020   -0.1760   22.9310 C   0  0  0  0  0  0  0  0  0  0  0  0
   11.6490   -0.1460   22.9650 C   0  0  0  0  0  0  0  0  0  0  0  0
   10.8500   -1.2360   23.0970 C   0  0  0  0  0  0  0  0  0  0  0  0
    9.6260   -0.6210   22.5160 C   0  0  1  0  0  0  0  0  0  0  0  0
    8.3070   -1.1340   22.6860 N   0  0  0  0  0  0  0  0  0  0  0  0
    7.7590   -0.9180   21.4670 C   0  0  0  0  0  0  0  0  0  0  0  0
    8.5670   -0.9140   20.4230 O   0  0  0  0  0  0  0  0  0  0  0  0
    6.4410   -0.6690   21.3600 N   0  0  0  0  0  0  0  0  0  0  0  0
    5.9590    0.0370   20.2400 C   0  0  0  0  0  0  0  0  0  0  0  0
    4.8310    0.8360   20.2340 C   0  0  0  0  0  0  0  0  0  0  0  0
    4.4700    1.4850   19.0770 C   0  0  0  0  0  0  0  0  0  0  0  0
    5.1890    1.3780   17.9020 C   0  0  0  0  0  0  0  0  0  0  0  0
    6.2950    0.6170   17.8260 N   0  0  0  0  0  0  0  0  0  0  0  0
    6.6630   -0.0510   19.0190 C   0  0  0  0  0  0  0  0  0  0  0  0
    9.7620    0.8130   22.9470 C   0  0  0  0  0  0  0  0  0  0  0  0
    8.7840    1.7300   23.3660 C   0  0  0  0  0  0  0  0  0  0  0  0
    9.2070    3.0690   23.7180 C   0  0  0  0  0  0  0  0  0  0  0  0
   10.5850    3.5180   23.6620 C   0  0  0  0  0  0  0  0  0  0  0  0
   11.5980    2.5960   23.2370 C   0  0  0  0  0  0  0  0  0  0  0  0
   10.9570    1.4500   22.9740 C   0  0  0  0  0  0  0  0  0  0  0  0
   10.9680    1.1000   22.8380 C   0  0  0  0  0  0  0  0  0  0  0  0
  1  2  1  0
  2  3  1  0
  3  4  2  0
  4  5  1  0
  5  6  2  0
  6  7  1  0
  7  8  1  0
  9  8  1  1
  9 10  1  0
 10 11  1  0
 11 12  2  0
 11 13  1  0
 13 14  1  0
 14 15  2  0
 15 16  1  0
 16 17  2  0
 17 18  1  0
 14 19  1  0
 18 19  2  0
  9 20  1  0
 20 21  2  0
 21 22  1  0
 22 23  2  0
 23 24  1  0
 20 25  1  0
 24 25  2  0
  3 26  1  0
  7 26  2  0
M  END
