pyridine_urea_3474
     RDKit          3D

 19 20  0  0  0  0  0  0  0  0999 V2000
   13.3010   -2.2720   25.2560 C   0  0  0  0  0  0  0  0  0  0  0  0
   12.5460   -2.1960   23.9450 C   0  0  0  0  0  0  0  0  0  0  0  0
   13.3790   -2.5500   22.8130 C   0  0  0  0  0  0  0  0  0  0  0  0
   12.5130   -2.4420   21.3700 S   0  0  0  0  0  0  0  0  0  0  0  0
   11.1130   -1.9670   22.3070 C   0  0  0  0  0  0  0  0  0  0  0  0
    9.8090   -1.6860   21.6940 N   0  0  0  0  0  0  0  0  0  0  0  0
    8.6550   -2.2100   22.2440 C   0  0  0  0  0  0  0  0  0  0  0  0
    8.2700   -1.3210   23.3970 C   0  0  0  0  0  0  0  0  0  0  0  0
    8.5050   -0.0520   22.9300 N   0  0  0  0  0  0  0  0  0  0  0  0
    8.2570    0.3890   21.6150 C   0  0  0  0  0  0  0  0  0  0  0  0
    8.8630    1.3440   21.1160 O   0  0  0  0  0  0  0  0  0  0  0  0
    7.2840   -0.3660   21.0510 N   0  0  0  0  0  0  0  0  0  0  0  0
    6.5870    0.1880   20.0370 C   0  0  0  0  0  0  0  0  0  0  0  0
    5.4440    0.9420   20.3490 C   0  0  0  0  0  0  0  0  0  0  0  0
    4.7560    1.5070   19.2950 C   0  0  0  0  0  0  0  0  0  0  0  0
    5.1930    1.3250   18.0070 C   0  0  0  0  0  0  0  0  0  0  0  0
    6.2640    0.6110   17.6720 N   0  0  0  0  0  0  0  0  0  0  0  0
    6.9400    0.0550   18.7050 C   0  0  0  0  0  0  0  0  0  0  0  0
   11.2580   -1.8670   23.6400 N   0  0  0  0  0  0  0  0  0  0  0  0
  1  2  1  0
  2  3  2  0
  3  4  1  0
  4  5  1  0
  5  6  1  0
  6  7  1  0
  7  8  1  0
  8  9  1  0
  9 10  1  0
 10 11  2  0
 10 12  1  0
 12 13  1  0
 13 14  2  0
 14 15  1  0
 15 16  2  0
 16 17  1  0
 13 18  1  0
 17 18  2  0
  2 19  1  0
  5 19  2  0
M  END
