pyridine_urea_10994
     RDKit          3D

 19 20  0  0  0  0  0  0  0  0999 V2000
   13.4260   -2.1840   24.1140 C   0  0  0  0  0  0  0  0  0  0  0  0
   12.6220   -1.1410   23.3900 C   0  0  0  0  0  0  0  0  0  0  0  0
   13.0190    0.1700   23.3740 C   0  0  0  0  0  0  0  0  0  0  0  0
   11.3570   -1.1330   24.2630 C   0  0  0  0  0  0  0  0  0  0  0  0
   10.3510   -2.0510   23.9700 C   0  0  0  0  0  0  0  0  0  0  0  0
   10.0570   -2.2330   22.5390 C   0  0  0  0  0  0  0  0  0  0  0  0
   10.7880   -1.1170   21.9370 C   0  0  1  0  0  0  0  0  0  0  0  0
   10.3520    0.0920   22.7140 C   0  0  0  0  0  0  0  0  0  0  0  0
    8.9120    0.0800   22.7460 N   0  0  0  0  0  0  0  0  0  0  0  0
    8.3580    0.5870   21.6110 C   0  0  0  0  0  0  0  0  0  0  0  0
    8.8300    1.5940   21.0930 O   0  0  0  0  0  0  0  0  0  0  0  0
    7.2710   -0.1210   21.1630 N   0  0  0  0  0  0  0  0  0  0  0  0
    6.5510    0.2880   20.0490 C   0  0  0  0  0  0  0  0  0  0  0  0
    5.3870    1.0170   20.2570 C   0  0  0  0  0  0  0  0  0  0  0  0
    4.6500    1.4810   19.1930 C   0  0  0  0  0  0  0  0  0  0  0  0
    5.1130    1.1900   17.9340 C   0  0  0  0  0  0  0  0  0  0  0  0
    6.2190    0.4780   17.6920 N   0  0  0  0  0  0  0  0  0  0  0  0
    6.9190    0.0360   18.7510 C   0  0  0  0  0  0  0  0  0  0  0  0
   12.2180   -1.4810   22.1480 C   0  0  0  0  0  0  0  0  0  0  0  0
  2  1  1  0
  2  3  1  0
  2  4  1  0
  4  5  1  0
  5  6  1  0
  6  7  1  0
  7  8  1  1
  8  9  1  0
  9 10  1  0
 10 11  2  0
 10 12  1  0
 12 13  1  0
 13 14  2  0
 14 15  1  0
 15 16  2  0
 16 17  1  0
 13 18  1  0
 17 18  2  0
  2 19  1  0
  7 19  1  0
M  END
