pyridine_urea_10756
     RDKit          3D

 20 21  0  0  0  0  0  0  0  0999 V2000
   10.6180   -2.5990   24.0690 N   0  0  0  0  0  0  0  0  0  0  0  0
   11.0880   -2.0610   22.9170 C   0  0  0  0  0  0  0  0  0  0  0  0
   12.2470   -2.6020   22.2760 O   0  0  0  0  0  0  0  0  0  0  0  0
   10.3480   -0.8770   22.4060 C   0  0  1  0  0  0  0  0  0  0  0  0
    8.9930   -0.7320   22.5400 N   0  0  0  0  0  0  0  0  0  0  0  0
    8.2360   -0.1710   21.6010 C   0  0  0  0  0  0  0  0  0  0  0  0
    8.6110    0.9100   21.1700 O   0  0  0  0  0  0  0  0  0  0  0  0
    7.1220   -0.9070   21.2570 N   0  0  0  0  0  0  0  0  0  0  0  0
    6.5020   -0.1500   20.1200 C   0  0  0  0  0  0  0  0  0  0  0  0
    5.3260    0.5820   20.4300 C   0  0  0  0  0  0  0  0  0  0  0  0
    4.6430    1.3730   19.3360 C   0  0  0  0  0  0  0  0  0  0  0  0
    5.2780    1.3290   17.9670 C   0  0  0  0  0  0  0  0  0  0  0  0
    6.3620    0.6270   17.7650 N   0  0  0  0  0  0  0  0  0  0  0  0
    6.9620   -0.0990   18.8050 C   0  0  0  0  0  0  0  0  0  0  0  0
   11.0440    0.2810   23.0870 C   0  0  0  0  0  0  0  0  0  0  0  0
   10.8290    1.2580   23.8000 C   0  0  0  0  0  0  0  0  0  0  0  0
   12.1650    1.1880   23.5110 C   0  0  0  0  0  0  0  0  0  0  0  0
   12.3420   -0.0740   22.6420 C   0  0  0  0  0  0  0  0  0  0  0  0
   13.4760    0.4100   22.7640 C   0  0  0  0  0  0  0  0  0  0  0  0
   12.3610    0.8720   23.2610 N   0  0  0  0  0  0  0  0  0  0  0  0
  1  2  1  0
  2  3  2  0
  2  4  1  0
  4  5  1  1
  5  6  1  0
  6  7  2  0
  6  8  1  0
  8  9  1  0
  9 10  2  0
 10 11  1  0
 11 12  2  0
 12 13  1  0
  9 14  1  0
 13 14  2  0
  4 15  1  0
 15 16  2  0
 16 17  1  0
 17 18  2  0
 18 19  1  0
 15 20  1  0
 19 20  2  0
M  END
