pyridine_urea_1808
     RDKit          3D

 17 19  0  0  0  0  0  0  0  0999 V2000
    8.6760    1.0000   21.4860 O   0  0  0  0  0  0  0  0  0  0  0  0
    8.3840   -0.1830   21.3840 C   0  0  0  0  0  0  0  0  0  0  0  0
    7.1620   -0.6620   21.0090 N   0  0  0  0  0  0  0  0  0  0  0  0
    6.4610   -0.0120   19.9940 C   0  0  0  0  0  0  0  0  0  0  0  0
    5.2830    0.6800   20.2920 C   0  0  0  0  0  0  0  0  0  0  0  0
    4.6010    1.3460   19.2720 C   0  0  0  0  0  0  0  0  0  0  0  0
    5.1280    1.2900   17.9980 C   0  0  0  0  0  0  0  0  0  0  0  0
    6.2500    0.6250   17.6930 N   0  0  0  0  0  0  0  0  0  0  0  0
    6.8870   -0.0070   18.6930 C   0  0  0  0  0  0  0  0  0  0  0  0
    9.3220   -1.1400   21.6160 N   0  0  0  0  0  0  0  0  0  0  0  0
   10.4380   -0.6330   22.3810 C   0  0  2  0  0  0  0  0  0  0  0  0
   11.7040   -1.4920   22.2190 C   0  0  0  0  0  0  0  0  0  0  0  0
   12.8490   -0.8070   22.6270 C   0  0  0  0  0  0  0  0  0  0  0  0
   12.5470    0.4700   23.1280 C   0  0  0  0  0  0  0  0  0  0  0  0
   11.6830    0.3790   24.2190 C   0  0  1  0  0  0  0  0  0  0  0  0
   10.6900    1.1170   24.2710 C   0  0  0  0  0  0  0  0  0  0  0  0
   10.4100   -0.2220   23.7280 C   0  0  1  0  0  0  0  0  0  0  0  0
  1  2  2  0
  2  3  1  0
  3  4  1  0
  4  5  2  0
  5  6  1  0
  6  7  2  0
  7  8  1  0
  4  9  1  0
  8  9  2  0
  2 10  1  0
 11 10  1  1
 11 12  1  0
 12 13  1  0
 13 14  1  0
 15 14  1  6
 15 16  1  0
 11 17  1  0
 15 17  1  0
 17 16  1  6
M  END
