pyridine_urea_858
     RDKit          3D

 23 25  0  0  0  0  0  0  0  0999 V2000
    8.5260    0.8310   21.1960 O   0  0  0  0  0  0  0  0  0  0  0  0
    8.0700   -0.2200   21.6350 C   0  0  0  0  0  0  0  0  0  0  0  0
    6.8940   -0.8350   21.0530 N   0  0  0  0  0  0  0  0  0  0  0  0
    6.3070   -0.1080   20.0320 C   0  0  0  0  0  0  0  0  0  0  0  0
    5.1340    0.6170   20.2590 C   0  0  0  0  0  0  0  0  0  0  0  0
    4.5820    1.3430   19.2010 C   0  0  0  0  0  0  0  0  0  0  0  0
    5.2190    1.3220   17.9600 C   0  0  0  0  0  0  0  0  0  0  0  0
    6.3430    0.6250   17.7330 N   0  0  0  0  0  0  0  0  0  0  0  0
    6.8630   -0.0760   18.7690 C   0  0  0  0  0  0  0  0  0  0  0  0
    8.5750   -0.9340   22.6860 N   0  0  0  0  0  0  0  0  0  0  0  0
    9.9700   -0.6850   22.8790 C   0  0  0  0  0  0  0  0  0  0  0  0
   10.5730    0.1730   23.9600 C   0  0  0  0  0  0  0  0  0  0  0  0
   11.9490    0.3570   24.0080 C   0  0  0  0  0  0  0  0  0  0  0  0
   12.8100   -0.2380   23.0940 C   0  0  0  0  0  0  0  0  0  0  0  0
   12.3140   -1.0560   22.0870 C   0  0  0  0  0  0  0  0  0  0  0  0
   13.1040   -1.6800   21.1850 C   0  0  0  0  0  0  0  0  0  0  0  0
   12.8300   -2.9770   21.1400 N   0  0  0  0  0  0  0  0  0  0  0  0
   12.9870   -3.7610   20.1220 C   0  0  0  0  0  0  0  0  0  0  0  0
   14.2480   -3.9630   19.5870 C   0  0  0  0  0  0  0  0  0  0  0  0
   15.1690   -4.3540   20.2710 O   0  0  0  0  0  0  0  0  0  0  0  0
   14.4340   -4.4940   21.2540 C   0  0  0  0  0  0  0  0  0  0  0  0
   13.6490   -3.4060   22.0270 C   0  0  0  0  0  0  0  0  0  0  0  0
   10.9750   -1.2760   21.9710 C   0  0  0  0  0  0  0  0  0  0  0  0
  1  2  2  0
  2  3  1  0
  3  4  1  0
  4  5  2  0
  5  6  1  0
  6  7  2  0
  7  8  1  0
  4  9  1  0
  8  9  2  0
  2 10  1  0
 10 11  1  0
 11 12  2  0
 12 13  1  0
 13 14  2  0
 14 15  1  0
 15 16  1  0
 16 17  1  0
 17 18  1  0
 18 19  1  0
 19 20  1  0
 20 21  1  0
 17 22  1  0
 21 22  1  0
 11 23  1  0
 15 23  2  0
M  END
