pyridine_urea_80
     RDKit          3D

 24 26  0  0  0  0  0  0  0  0999 V2000
   12.8610    4.0260   21.9980 C   0  0  0  0  0  0  0  0  0  0  0  0
   13.1020    3.1920   23.1320 O   0  0  0  0  0  0  0  0  0  0  0  0
   13.3710    1.7920   22.8960 C   0  0  0  0  0  0  0  0  0  0  0  0
   14.4100    1.2270   22.6550 O   0  0  0  0  0  0  0  0  0  0  0  0
   12.1850    1.0080   22.9660 C   0  0  0  0  0  0  0  0  0  0  0  0
   10.9130    1.6330   22.8010 C   0  0  0  0  0  0  0  0  0  0  0  0
    9.8150    0.9100   22.8060 C   0  0  0  0  0  0  0  0  0  0  0  0
    9.5400   -0.5670   22.9670 C   0  0  0  0  0  0  0  0  0  0  0  0
    8.2080   -1.0910   22.8680 N   0  0  0  0  0  0  0  0  0  0  0  0
    7.7460   -0.4910   21.7130 C   0  0  0  0  0  0  0  0  0  0  0  0
    8.4450    0.6170   21.1370 O   0  0  0  0  0  0  0  0  0  0  0  0
    6.5580   -1.0250   21.1300 N   0  0  0  0  0  0  0  0  0  0  0  0
    6.1690   -0.2330   19.9630 C   0  0  0  0  0  0  0  0  0  0  0  0
    4.9350    0.5890   20.1340 C   0  0  0  0  0  0  0  0  0  0  0  0
    4.4620    1.4000   19.1050 C   0  0  0  0  0  0  0  0  0  0  0  0
    5.1570    1.4450   17.8930 C   0  0  0  0  0  0  0  0  0  0  0  0
    6.3580    0.6350   17.7340 N   0  0  0  0  0  0  0  0  0  0  0  0
    6.8140   -0.1590   18.7540 C   0  0  0  0  0  0  0  0  0  0  0  0
   10.9100   -1.2000   23.2010 C   0  0  0  0  0  0  0  0  0  0  0  0
   12.1890   -0.4890   23.1940 C   0  0  0  0  0  0  0  0  0  0  0  0
   13.2320   -1.4920   23.4130 C   0  0  0  0  0  0  0  0  0  0  0  0
   12.6510   -2.6940   23.4310 N   0  0  0  0  0  0  0  0  0  0  0  0
   11.2710   -2.6000   23.4750 C   0  0  0  0  0  0  0  0  0  0  0  0
   10.4630   -3.4580   23.7280 O   0  0  0  0  0  0  0  0  0  0  0  0
  1  2  1  0
  2  3  1  0
  3  4  2  0
  3  5  1  0
  5  6  2  0
  6  7  1  0
  7  8  2  0
  8  9  1  0
  9 10  1  0
 10 11  2  0
 10 12  1  0
 12 13  1  0
 13 14  2  0
 14 15  1  0
 15 16  2  0
 16 17  1  0
 13 18  1  0
 17 18  2  0
  8 19  1  0
  5 20  1  0
 19 20  2  0
 20 21  1  0
 21 22  1  0
 19 23  1  0
 22 23  1  0
 23 24  2  0
M  END
