pyridine_urea_5131
     RDKit          3D

 20 21  0  0  0  0  0  0  0  0999 V2000
    8.9200    1.2030   21.1930 O   0  0  0  0  0  0  0  0  0  0  0  0
    8.4790    0.0860   21.4990 C   0  0  0  0  0  0  0  0  0  0  0  0
    9.1040   -0.8260   22.3170 N   0  0  0  0  0  0  0  0  0  0  0  0
   10.4120   -1.3510   22.1240 C   0  0  0  0  0  0  0  0  0  0  0  0
   11.4830   -0.7710   22.8350 C   0  0  2  0  0  0  0  0  0  0  0  0
   11.7820   -1.5520   23.7580 O   0  0  0  0  0  0  0  0  0  0  0  0
   11.0530    0.3300   23.4430 C   0  0  0  0  0  0  0  0  0  0  0  0
   12.2770    0.7120   23.0150 C   0  0  0  0  0  0  0  0  0  0  0  0
   12.9160   -0.4160   22.2840 C   0  0  0  0  0  0  0  0  0  0  0  0
   12.1930   -1.6170   22.1520 C   0  0  0  0  0  0  0  0  0  0  0  0
   12.9360   -2.8780   21.2810 Cl  0  0  0  0  0  0  0  0  0  0  0  0
   10.7350   -1.7730   22.7940 C   0  0  0  0  0  0  0  0  0  0  0  0
   10.1450   -0.6860   23.4910 C   0  0  0  0  0  0  0  0  0  0  0  0
    7.2740   -0.4250   21.0740 N   0  0  0  0  0  0  0  0  0  0  0  0
    6.5410    0.1490   20.0350 C   0  0  0  0  0  0  0  0  0  0  0  0
    5.3810    0.8720   20.3320 C   0  0  0  0  0  0  0  0  0  0  0  0
    4.6700    1.4630   19.2820 C   0  0  0  0  0  0  0  0  0  0  0  0
    5.1350    1.3130   17.9850 C   0  0  0  0  0  0  0  0  0  0  0  0
    6.2380    0.6150   17.6850 N   0  0  0  0  0  0  0  0  0  0  0  0
    6.9120    0.0500   18.7070 C   0  0  0  0  0  0  0  0  0  0  0  0
  1  2  2  0
  2  3  1  0
  3  4  1  0
  4  5  1  0
  5  6  1  1
  5  7  1  0
  7  8  2  0
  8  9  1  0
  9 10  2  0
 10 11  1  0
 10 12  1  0
  7 13  1  0
 12 13  2  0
  2 14  1  0
 14 15  1  0
 15 16  2  0
 16 17  1  0
 17 18  2  0
 18 19  1  0
 15 20  1  0
 19 20  2  0
M  END
