pyridine_urea_4176
     RDKit          3D

 25 27  0  0  0  0  0  0  0  0999 V2000
    8.9550    1.1400   21.1530 O   0  0  0  0  0  0  0  0  0  0  0  0
    8.2950    0.1630   21.5310 C   0  0  0  0  0  0  0  0  0  0  0  0
    7.2490   -0.4440   20.9090 N   0  0  0  0  0  0  0  0  0  0  0  0
    6.5210    0.1630   19.9120 C   0  0  0  0  0  0  0  0  0  0  0  0
    5.3590    0.8680   20.2300 C   0  0  0  0  0  0  0  0  0  0  0  0
    4.6440    1.4950   19.2170 C   0  0  0  0  0  0  0  0  0  0  0  0
    5.1250    1.3850   17.9300 C   0  0  0  0  0  0  0  0  0  0  0  0
    6.2320    0.7010   17.6140 N   0  0  0  0  0  0  0  0  0  0  0  0
    6.9000    0.1090   18.6100 C   0  0  0  0  0  0  0  0  0  0  0  0
    8.5000   -0.4660   22.7060 N   0  0  0  0  0  0  0  0  0  0  0  0
    9.7330   -1.1190   23.0790 C   0  0  2  0  0  0  0  0  0  0  0  0
   10.6460   -0.2020   23.7900 C   0  0  0  0  0  0  0  0  0  0  0  0
   11.7550    0.2530   24.5750 C   0  0  0  0  0  0  0  0  0  0  0  0
   12.5610   -0.8050   25.0300 C   0  0  0  0  0  0  0  0  0  0  0  0
   12.5850   -2.1250   24.9360 C   0  0  0  0  0  0  0  0  0  0  0  0
   13.7170   -3.1480   25.6120 Cl  0  0  0  0  0  0  0  0  0  0  0  0
   11.6310   -2.6260   24.2570 C   0  0  0  0  0  0  0  0  0  0  0  0
   10.7340   -1.8040   23.7180 C   0  0  0  0  0  0  0  0  0  0  0  0
   10.7220   -1.7010   22.3180 C   0  0  0  0  0  0  0  0  0  0  0  0
   12.1460   -1.8200   21.7070 C   0  0  0  0  0  0  0  0  0  0  0  0
   13.2480   -0.9980   21.8150 C   0  0  0  0  0  0  0  0  0  0  0  0
   13.2320    0.1400   22.5050 C   0  0  0  0  0  0  0  0  0  0  0  0
   12.0790    0.4280   23.0790 C   0  0  0  0  0  0  0  0  0  0  0  0
   11.9850    1.5770   23.7720 F   0  0  0  0  0  0  0  0  0  0  0  0
   10.9600   -0.4210   22.9910 C   0  0  0  0  0  0  0  0  0  0  0  0
  1  2  2  0
  2  3  1  0
  3  4  1  0
  4  5  2  0
  5  6  1  0
  6  7  2  0
  7  8  1  0
  4  9  1  0
  8  9  2  0
  2 10  1  0
 11 10  1  6
 11 12  1  0
 12 13  2  0
 13 14  1  0
 14 15  2  0
 15 16  1  0
 15 17  1  0
 12 18  1  0
 17 18  2  0
 11 19  1  0
 19 20  2  0
 20 21  1  0
 21 22  2  0
 22 23  1  0
 23 24  1  0
 19 25  1  0
 23 25  2  0
M  END
