pyridine_urea_4164
     RDKit          3D

 25 27  0  0  0  0  0  0  0  0999 V2000
    8.6620    0.6070   21.2470 O   0  0  0  0  0  0  0  0  0  0  0  0
    8.2850   -0.5580   21.3340 C   0  0  0  0  0  0  0  0  0  0  0  0
    7.0560   -0.9740   20.9200 N   0  0  0  0  0  0  0  0  0  0  0  0
    6.3980   -0.2120   19.9510 C   0  0  0  0  0  0  0  0  0  0  0  0
    5.1580    0.3750   20.2200 C   0  0  0  0  0  0  0  0  0  0  0  0
    4.5280    1.1460   19.2380 C   0  0  0  0  0  0  0  0  0  0  0  0
    5.1670    1.2990   18.0210 C   0  0  0  0  0  0  0  0  0  0  0  0
    6.3560    0.7400   17.7400 N   0  0  0  0  0  0  0  0  0  0  0  0
    6.9360    0.0040   18.7050 C   0  0  0  0  0  0  0  0  0  0  0  0
    9.1350   -1.5030   21.8560 N   0  0  0  0  0  0  0  0  0  0  0  0
   10.3140   -0.7920   22.2710 C   0  0  0  0  0  0  0  0  0  0  0  0
    9.9100    0.0560   23.4010 C   0  0  0  0  0  0  0  0  0  0  0  0
   10.4880    1.2200   23.1060 C   0  0  0  0  0  0  0  0  0  0  0  0
   11.8240    1.1080   23.1040 N   0  0  0  0  0  0  0  0  0  0  0  0
   12.5240    2.2230   22.9340 C   0  0  0  0  0  0  0  0  0  0  0  0
   13.8220    2.1110   22.6970 O   0  0  0  0  0  0  0  0  0  0  0  0
   12.0660    3.5470   23.0150 C   0  0  0  0  0  0  0  0  0  0  0  0
   10.8550    3.8740   23.6730 C   0  0  0  0  0  0  0  0  0  0  0  0
   10.3440    5.1810   23.8050 C   0  0  0  0  0  0  0  0  0  0  0  0
   11.2000    6.2490   23.1800 C   0  0  0  0  0  0  0  0  0  0  0  0
   12.4770    5.8690   22.4880 C   0  0  0  0  0  0  0  0  0  0  0  0
   12.8440    4.5640   22.4320 C   0  0  0  0  0  0  0  0  0  0  0  0
   14.0040    4.3630   21.7770 F   0  0  0  0  0  0  0  0  0  0  0  0
   12.4450   -0.1880   22.8570 C   0  0  0  0  0  0  0  0  0  0  0  0
   11.6110   -1.2700   22.4310 C   0  0  0  0  0  0  0  0  0  0  0  0
  1  2  2  0
  2  3  1  0
  3  4  1  0
  4  5  2  0
  5  6  1  0
  6  7  2  0
  7  8  1  0
  4  9  1  0
  8  9  2  0
  2 10  1  0
 10 11  1  0
 11 12  1  0
 12 13  1  0
 13 14  1  0
 14 15  1  0
 15 16  2  0
 15 17  1  0
 17 18  2  0
 18 19  1  0
 19 20  2  0
 20 21  1  0
 17 22  1  0
 21 22  2  0
 22 23  1  0
 14 24  1  0
 11 25  1  0
 24 25  1  0
M  END
