pyridine_urea_15217
     RDKit          3D

 15 15  0  0  0  0  0  0  0  0999 V2000
    9.0750    1.1080   21.2100 O   0  0  0  0  0  0  0  0  0  0  0  0
    8.5860    0.0120   21.5170 C   0  0  0  0  0  0  0  0  0  0  0  0
    9.2390   -0.9130   22.3060 N   0  0  0  0  0  0  0  0  0  0  0  0
   10.4260   -0.4950   23.0170 C   0  0  0  0  0  0  0  0  0  0  0  0
   11.6840   -1.1950   22.5240 C   0  0  2  0  0  0  0  0  0  0  0  0
   11.7750   -2.4660   23.0180 O   0  0  0  0  0  0  0  0  0  0  0  0
   12.8560   -0.2510   22.7100 C   0  0  0  0  0  0  0  0  0  0  0  0
   12.5970    1.0390   22.9600 F   0  0  0  0  0  0  0  0  0  0  0  0
    7.3510   -0.4570   21.1400 N   0  0  0  0  0  0  0  0  0  0  0  0
    6.6180    0.0980   20.1270 C   0  0  0  0  0  0  0  0  0  0  0  0
    5.2990    0.8400   20.3680 C   0  0  0  0  0  0  0  0  0  0  0  0
    4.5510    1.4510   19.1750 C   0  0  0  0  0  0  0  0  0  0  0  0
    5.1220    1.2890   17.9190 C   0  0  0  0  0  0  0  0  0  0  0  0
    6.2570    0.6440   17.6590 N   0  0  0  0  0  0  0  0  0  0  0  0
    6.9620    0.0870   18.6490 C   0  0  0  0  0  0  0  0  0  0  0  0
  1  2  2  0
  2  3  1  0
  3  4  1  0
  4  5  1  0
  5  6  1  1
  5  7  1  0
  7  8  1  0
  2  9  1  0
  9 10  1  0
 10 11  2  0
 11 12  1  0
 12 13  2  0
 13 14  1  0
 10 15  1  0
 14 15  2  0
M  END
