pyridine_urea_3242
     RDKit          3D

 20 21  0  0  0  0  0  0  0  0999 V2000
    7.0940    2.7510   24.6540 C   0  0  0  0  0  0  0  0  0  0  0  0
    7.8010    1.6870   25.2850 O   0  0  0  0  0  0  0  0  0  0  0  0
    8.9460    1.2560   24.6710 C   0  0  0  0  0  0  0  0  0  0  0  0
    9.6010    0.0700   25.0040 C   0  0  0  0  0  0  0  0  0  0  0  0
   10.6170   -0.3430   24.1500 C   0  0  0  0  0  0  0  0  0  0  0  0
   11.9370   -0.2970   24.5450 C   0  0  0  0  0  0  0  0  0  0  0  0
   13.0420   -0.7380   23.6150 C   0  0  0  0  0  0  0  0  0  0  0  0
   12.7360   -1.2020   22.3600 C   0  0  0  0  0  0  0  0  0  0  0  0
   11.2690   -1.2460   21.9810 C   0  0  0  0  0  0  0  0  0  0  0  0
   10.3160   -0.8160   22.8780 C   0  0  0  0  0  0  0  0  0  0  0  0
    8.9570   -0.8830   22.3990 N   0  0  0  0  0  0  0  0  0  0  0  0
    8.3910    0.0090   21.5190 C   0  0  0  0  0  0  0  0  0  0  0  0
    8.9440    1.2350   21.1770 O   0  0  0  0  0  0  0  0  0  0  0  0
    7.1970   -0.4780   21.0420 N   0  0  0  0  0  0  0  0  0  0  0  0
    6.4950    0.1170   20.0000 C   0  0  0  0  0  0  0  0  0  0  0  0
    5.3310    0.8320   20.2910 C   0  0  0  0  0  0  0  0  0  0  0  0
    4.6310    1.4500   19.2500 C   0  0  0  0  0  0  0  0  0  0  0  0
    5.1410    1.3150   17.9750 C   0  0  0  0  0  0  0  0  0  0  0  0
    6.2540    0.6240   17.6730 N   0  0  0  0  0  0  0  0  0  0  0  0
    6.9120    0.0360   18.6880 C   0  0  0  0  0  0  0  0  0  0  0  0
  1  2  1  0
  2  3  1  0
  3  4  1  0
  4  5  1  0
  5  6  2  0
  6  7  1  0
  7  8  2  0
  8  9  1  0
  5 10  1  0
  9 10  2  0
 10 11  1  0
 11 12  1  0
 12 13  2  0
 12 14  1  0
 14 15  1  0
 15 16  2  0
 16 17  1  0
 17 18  2  0
 18 19  1  0
 15 20  1  0
 19 20  2  0
M  END
