pyridine_urea_2141
     RDKit          3D

 29 31  0  0  0  0  0  0  0  0999 V2000
   13.1750   -1.3520   22.1100 C   0  0  0  0  0  0  0  0  0  0  0  0
   13.2100    0.1180   22.5370 C   0  0  0  0  0  0  0  0  0  0  0  0
   12.3260    0.3500   23.6790 C   0  0  0  0  0  0  0  0  0  0  0  0
   10.9470    0.6080   23.0930 C   0  0  0  0  0  0  0  0  0  0  0  0
   10.2810   -0.5650   22.5450 C   0  0  2  0  0  0  0  0  0  0  0  0
    8.8920   -0.6650   22.2380 N   0  0  0  0  0  0  0  0  0  0  0  0
    8.3480    0.3420   21.4800 C   0  0  0  0  0  0  0  0  0  0  0  0
    8.9650    1.3510   21.1410 O   0  0  0  0  0  0  0  0  0  0  0  0
    6.9830    0.0270   21.1750 N   0  0  0  0  0  0  0  0  0  0  0  0
    6.4220    0.4940   20.0320 C   0  0  0  0  0  0  0  0  0  0  0  0
    5.2700    1.2690   20.1480 C   0  0  0  0  0  0  0  0  0  0  0  0
    4.6600    1.7790   19.0340 C   0  0  0  0  0  0  0  0  0  0  0  0
    5.2070    1.5110   17.8080 C   0  0  0  0  0  0  0  0  0  0  0  0
    6.3070    0.7660   17.6290 N   0  0  0  0  0  0  0  0  0  0  0  0
    6.8980    0.2660   18.7440 C   0  0  0  0  0  0  0  0  0  0  0  0
   10.5440   -1.8710   23.0480 C   0  0  0  0  0  0  0  0  0  0  0  0
   11.3680   -2.1420   24.1820 O   0  0  0  0  0  0  0  0  0  0  0  0
    9.9020   -2.7560   22.2970 N   0  0  0  0  0  0  0  0  0  0  0  0
    8.7080   -3.2700   22.7020 C   0  0  0  0  0  0  0  0  0  0  0  0
    8.4420   -4.0740   23.7710 C   0  0  0  0  0  0  0  0  0  0  0  0
    7.1710   -4.5640   24.0730 C   0  0  0  0  0  0  0  0  0  0  0  0
    6.1130   -4.2510   23.3010 C   0  0  0  0  0  0  0  0  0  0  0  0
    6.3030   -3.4520   22.2190 C   0  0  0  0  0  0  0  0  0  0  0  0
    5.3530   -3.1010   21.3900 N   0  0  0  0  0  0  0  0  0  0  0  0
    5.5500   -3.8570   20.1780 C   0  0  0  0  0  0  0  0  0  0  0  0
    5.4270   -2.7830   19.1410 C   0  0  0  0  0  0  0  0  0  0  0  0
    5.4420   -1.5680   19.7200 C   0  0  0  0  0  0  0  0  0  0  0  0
    5.3410   -1.6560   21.0970 C   0  0  0  0  0  0  0  0  0  0  0  0
    7.5970   -2.9690   21.9300 C   0  0  0  0  0  0  0  0  0  0  0  0
  1  2  1  0
  2  3  1  0
  3  4  1  0
  5  4  1  1
  5  6  1  0
  6  7  1  0
  7  8  2  0
  7  9  1  0
  9 10  1  0
 10 11  2  0
 11 12  1  0
 12 13  2  0
 13 14  1  0
 10 15  1  0
 14 15  2  0
  5 16  1  0
 16 17  2  0
 16 18  1  0
 18 19  1  0
 19 20  2  0
 20 21  1  0
 21 22  2  0
 22 23  1  0
 23 24  1  0
 24 25  1  0
 25 26  1  0
 26 27  1  0
 24 28  1  0
 27 28  1  0
 19 29  1  0
 23 29  2  0
M  END
