pyridine_urea_9101
     RDKit          3D

 19 20  0  0  0  0  0  0  0  0999 V2000
   10.4720    0.0480   23.3050 C   0  0  0  0  0  0  0  0  0  0  0  0
   11.9690    0.0220   22.9400 C   0  0  0  0  0  0  0  0  0  0  0  0
   12.8000    1.1920   23.0750 C   0  0  0  0  0  0  0  0  0  0  0  0
   12.8970   -0.1190   22.6780 C   0  0  0  0  0  0  0  0  0  0  0  0
   11.5950   -0.9030   22.7420 C   0  0  0  0  0  0  0  0  0  0  0  0
   10.3780   -0.3290   23.1630 C   0  0  0  0  0  0  0  0  0  0  0  0
    9.2220   -0.7140   22.2760 N   0  0  0  0  0  0  0  0  0  0  0  0
    8.5750    0.2030   21.4660 C   0  0  0  0  0  0  0  0  0  0  0  0
    9.0150    1.3300   21.2300 O   0  0  0  0  0  0  0  0  0  0  0  0
    7.4020   -0.3100   20.9910 N   0  0  0  0  0  0  0  0  0  0  0  0
    6.5730    0.2270   20.0600 C   0  0  0  0  0  0  0  0  0  0  0  0
    5.4050    0.9190   20.3240 C   0  0  0  0  0  0  0  0  0  0  0  0
    4.6560    1.4420   19.2740 C   0  0  0  0  0  0  0  0  0  0  0  0
    5.1280    1.2410   17.9760 C   0  0  0  0  0  0  0  0  0  0  0  0
    6.2430    0.5680   17.6910 N   0  0  0  0  0  0  0  0  0  0  0  0
    6.9370    0.0770   18.7340 C   0  0  0  0  0  0  0  0  0  0  0  0
   11.8770   -2.1310   22.3490 C   0  0  0  0  0  0  0  0  0  0  0  0
   10.2450   -2.5880   22.6110 Cl  0  0  0  0  0  0  0  0  0  0  0  0
   12.6740   -1.1310   22.4390 N   0  0  0  0  0  0  0  0  0  0  0  0
  1  2  1  0
  2  3  2  0
  3  4  1  0
  4  5  2  0
  5  6  1  0
  6  7  1  0
  7  8  1  0
  8  9  2  0
  8 10  1  0
 10 11  1  0
 11 12  2  0
 12 13  1  0
 13 14  2  0
 14 15  1  0
 11 16  1  0
 15 16  2  0
  5 17  1  0
 17 18  1  0
  2 19  1  0
 17 19  2  0
M  END
