pyridine_urea_6071
     RDKit          3D

 25 27  0  0  0  0  0  0  0  0999 V2000
    8.9680    0.3970   21.2080 O   0  0  0  0  0  0  0  0  0  0  0  0
    8.1310   -0.3570   21.6560 C   0  0  0  0  0  0  0  0  0  0  0  0
    8.2460   -0.9610   22.9680 N   0  0  0  0  0  0  0  0  0  0  0  0
    9.5030   -1.2400   23.4650 C   0  0  0  0  0  0  0  0  0  0  0  0
   10.2490   -0.2170   24.0640 C   0  0  1  0  0  0  0  0  0  0  0  0
   11.4790   -0.2180   23.4200 C   0  0  0  0  0  0  0  0  0  0  0  0
   11.7690    1.0330   23.9210 C   0  0  0  0  0  0  0  0  0  0  0  0
   12.6210    0.2550   23.0650 C   0  0  0  0  0  0  0  0  0  0  0  0
   11.7670   -1.0470   22.8240 C   0  0  0  0  0  0  0  0  0  0  0  0
   13.0230   -1.0330   22.1850 C   0  0  0  0  0  0  0  0  0  0  0  0
   12.8230    0.1770   22.9230 C   0  0  0  0  0  0  0  0  0  0  0  0
   13.9690    0.1850   22.3280 F   0  0  0  0  0  0  0  0  0  0  0  0
    9.8500    1.1180   24.0270 N   0  0  0  0  0  0  0  0  0  0  0  0
    8.6690    1.3590   24.7400 C   0  0  0  0  0  0  0  0  0  0  0  0
    8.1390    2.6180   24.4600 C   0  0  0  0  0  0  0  0  0  0  0  0
    8.9560    3.5280   24.3540 O   0  0  0  0  0  0  0  0  0  0  0  0
    9.8680    3.2220   23.3820 C   0  0  0  0  0  0  0  0  0  0  0  0
    9.7640    1.9280   22.8780 C   0  0  0  0  0  0  0  0  0  0  0  0
    6.9720   -0.7340   21.0360 N   0  0  0  0  0  0  0  0  0  0  0  0
    6.3880   -0.0660   20.0180 C   0  0  0  0  0  0  0  0  0  0  0  0
    5.2010    0.6350   20.2510 C   0  0  0  0  0  0  0  0  0  0  0  0
    4.5980    1.3360   19.2050 C   0  0  0  0  0  0  0  0  0  0  0  0
    5.2050    1.3140   17.9520 C   0  0  0  0  0  0  0  0  0  0  0  0
    6.3430    0.6420   17.7120 N   0  0  0  0  0  0  0  0  0  0  0  0
    6.8980   -0.0260   18.7420 C   0  0  0  0  0  0  0  0  0  0  0  0
  1  2  2  0
  2  3  1  0
  3  4  1  0
  5  4  1  6
  5  6  1  0
  6  7  2  0
  7  8  1  0
  8  9  2  0
  9 10  1  0
  6 11  1  0
 10 11  2  0
 11 12  1  0
  5 13  1  0
 13 14  1  0
 14 15  1  0
 15 16  1  0
 16 17  1  0
 13 18  1  0
 17 18  1  0
  2 19  1  0
 19 20  1  0
 20 21  2  0
 21 22  1  0
 22 23  2  0
 23 24  1  0
 20 25  1  0
 24 25  2  0
M  END
