pyridine_urea_1420
     RDKit          3D

 19 20  0  0  0  0  0  0  0  0999 V2000
    9.9260   -3.8440   24.3230 C   0  0  0  0  0  0  0  0  0  0  0  0
   11.0400   -2.8630   23.9190 C   0  0  0  0  0  0  0  0  0  0  0  0
   12.3340   -3.0270   24.7450 C   0  0  0  0  0  0  0  0  0  0  0  0
   10.5740   -1.5790   24.2250 O   0  0  0  0  0  0  0  0  0  0  0  0
   11.1850   -0.5540   23.4630 C   0  0  0  0  0  0  0  0  0  0  0  0
   10.2600    0.1810   22.7940 C   0  0  0  0  0  0  0  0  0  0  0  0
    9.1050   -0.5590   22.3430 N   0  0  0  0  0  0  0  0  0  0  0  0
    8.3850    0.1490   21.4240 C   0  0  0  0  0  0  0  0  0  0  0  0
    8.7500    1.2820   21.0820 O   0  0  0  0  0  0  0  0  0  0  0  0
    7.2690   -0.5090   20.9780 N   0  0  0  0  0  0  0  0  0  0  0  0
    6.4810    0.1090   20.0160 C   0  0  0  0  0  0  0  0  0  0  0  0
    5.2840    0.8120   20.2610 C   0  0  0  0  0  0  0  0  0  0  0  0
    4.6020    1.4200   19.2050 C   0  0  0  0  0  0  0  0  0  0  0  0
    5.1150    1.3230   17.9180 C   0  0  0  0  0  0  0  0  0  0  0  0
    6.2620    0.6340   17.6800 N   0  0  0  0  0  0  0  0  0  0  0  0
    6.9370    0.0310   18.7190 C   0  0  0  0  0  0  0  0  0  0  0  0
   12.3800   -1.0470   22.6670 C   0  0  0  0  0  0  0  0  0  0  0  0
   13.1330   -0.1420   23.2970 C   0  0  0  0  0  0  0  0  0  0  0  0
   12.1580    0.3700   24.2160 C   0  0  0  0  0  0  0  0  0  0  0  0
  1  2  1  0
  2  3  1  0
  2  4  1  0
  5  4  1  0
  5  6  1  0
  6  7  1  0
  7  8  1  0
  8  9  2  0
  8 10  1  0
 10 11  1  0
 11 12  2  0
 12 13  1  0
 13 14  2  0
 14 15  1  0
 11 16  1  0
 15 16  2  0
  5 17  1  0
 17 18  1  0
  5 19  1  0
 18 19  1  0
M  END
