pyridine_urea_1589
     RDKit          3D

 19 20  0  0  0  0  0  0  0  0999 V2000
   12.8820   -0.6730   23.7990 C   0  0  0  0  0  0  0  0  0  0  0  0
   11.4400   -0.5290   24.1910 C   0  0  0  0  0  0  0  0  0  0  0  0
   11.2140   -0.4230   25.5770 N   0  0  0  0  0  0  0  0  0  0  0  0
    9.8720   -0.2630   25.6320 N   0  0  0  0  0  0  0  0  0  0  0  0
    9.1710   -0.0610   26.8820 C   0  0  0  0  0  0  0  0  0  0  0  0
    9.3010   -0.3120   24.3520 C   0  0  0  0  0  0  0  0  0  0  0  0
    7.9460   -0.1950   24.1050 C   0  0  0  0  0  0  0  0  0  0  0  0
   10.3360   -0.4880   23.4250 C   0  0  0  0  0  0  0  0  0  0  0  0
   10.1870   -0.5840   22.0910 C   0  0  0  0  0  0  0  0  0  0  0  0
    9.0470   -1.1380   21.6960 N   0  0  0  0  0  0  0  0  0  0  0  0
    8.1420   -0.2440   21.2640 C   0  0  0  0  0  0  0  0  0  0  0  0
    8.5180    0.9170   21.1180 O   0  0  0  0  0  0  0  0  0  0  0  0
    6.8990   -0.7120   21.0200 N   0  0  0  0  0  0  0  0  0  0  0  0
    6.3190   -0.0370   20.0360 C   0  0  0  0  0  0  0  0  0  0  0  0
    5.1330    0.6830   20.2280 C   0  0  0  0  0  0  0  0  0  0  0  0
    4.5970    1.3750   19.1520 C   0  0  0  0  0  0  0  0  0  0  0  0
    5.2270    1.3450   17.9340 C   0  0  0  0  0  0  0  0  0  0  0  0
    6.3560    0.6670   17.7120 N   0  0  0  0  0  0  0  0  0  0  0  0
    6.8720   -0.0060   18.7580 C   0  0  0  0  0  0  0  0  0  0  0  0
  1  2  1  0
  2  3  2  0
  3  4  1  0
  4  5  1  0
  4  6  1  0
  6  7  1  0
  2  8  1  0
  6  8  2  0
  8  9  1  0
  9 10  1  0
 10 11  1  0
 11 12  2  0
 11 13  1  0
 13 14  1  0
 14 15  2  0
 15 16  1  0
 16 17  2  0
 17 18  1  0
 14 19  1  0
 18 19  2  0
M  END
