pyridine_urea_10065
     RDKit          3D

 24 25  0  0  0  0  0  0  0  0999 V2000
   10.6180    6.0880   22.8800 C   0  0  0  0  0  0  0  0  0  0  0  0
   10.5860    4.8920   23.1570 O   0  0  0  0  0  0  0  0  0  0  0  0
   11.6350    4.1090   22.7350 C   0  0  0  0  0  0  0  0  0  0  0  0
   12.6220    4.6290   21.8710 C   0  0  0  0  0  0  0  0  0  0  0  0
   13.7410    3.9300   21.3810 C   0  0  0  0  0  0  0  0  0  0  0  0
   14.5380    4.5340   20.6030 O   0  0  0  0  0  0  0  0  0  0  0  0
   15.3330    3.8170   19.5820 C   0  0  0  0  0  0  0  0  0  0  0  0
   13.9050    2.5980   21.7900 C   0  0  0  0  0  0  0  0  0  0  0  0
   12.9430    1.8390   22.7060 C   0  0  0  0  0  0  0  0  0  0  0  0
   13.2870    0.6750   22.9060 O   0  0  0  0  0  0  0  0  0  0  0  0
   12.4520   -0.1340   23.7350 C   0  0  0  0  0  0  0  0  0  0  0  0
   11.5430   -0.8420   22.9430 C   0  0  0  0  0  0  0  0  0  0  0  0
   10.2520   -0.5090   23.3390 C   0  0  0  0  0  0  0  0  0  0  0  0
    9.2320   -0.9450   22.3970 N   0  0  0  0  0  0  0  0  0  0  0  0
    8.5570    0.0570   21.5670 C   0  0  0  0  0  0  0  0  0  0  0  0
    9.0680    1.1330   21.2420 O   0  0  0  0  0  0  0  0  0  0  0  0
    7.2670   -0.3700   21.2010 N   0  0  0  0  0  0  0  0  0  0  0  0
    6.6130    0.1340   20.0010 C   0  0  0  0  0  0  0  0  0  0  0  0
    5.4770    0.8950   20.3430 C   0  0  0  0  0  0  0  0  0  0  0  0
    4.7200    1.4890   19.3160 C   0  0  0  0  0  0  0  0  0  0  0  0
    5.1250    1.3040   18.0000 C   0  0  0  0  0  0  0  0  0  0  0  0
    6.2180    0.5560   17.6990 N   0  0  0  0  0  0  0  0  0  0  0  0
    6.9710   -0.0360   18.6960 C   0  0  0  0  0  0  0  0  0  0  0  0
   11.7580    2.6440   23.1950 C   0  0  0  0  0  0  0  0  0  0  0  0
  1  2  1  0
  2  3  1  0
  3  4  2  0
  4  5  1  0
  5  6  1  0
  6  7  1  0
  5  8  2  0
  8  9  1  0
  9 10  1  0
 10 11  1  0
 11 12  1  0
 12 13  1  0
 13 14  1  0
 14 15  1  0
 15 16  2  0
 15 17  1  0
 17 18  1  0
 18 19  2  0
 19 20  1  0
 20 21  2  0
 21 22  1  0
 18 23  1  0
 22 23  2  0
  3 24  1  0
  9 24  2  0
M  END
