pyridine_urea_856
     RDKit          3D

 22 23  0  0  0  0  0  0  0  0999 V2000
   11.1030    2.3760   23.1460 C   0  0  0  0  0  0  0  0  0  0  0  0
   11.4590    0.9260   23.2910 C   0  0  0  0  0  0  0  0  0  0  0  0
   12.2560    0.5070   24.1330 C   0  0  0  0  0  0  0  0  0  0  0  0
   12.1010   -0.4430   23.7690 C   0  0  0  0  0  0  0  0  0  0  0  0
   11.5960   -1.1920   23.0400 C   0  0  0  0  0  0  0  0  0  0  0  0
   10.7810   -1.7230   21.9950 C   0  0  0  0  0  0  0  0  0  0  0  0
   11.4030   -2.5320   21.1560 F   0  0  0  0  0  0  0  0  0  0  0  0
   10.3010   -0.7140   21.2580 F   0  0  0  0  0  0  0  0  0  0  0  0
    9.5070   -2.1480   22.6550 C   0  0  0  0  0  0  0  0  0  0  0  0
    8.4540   -1.2140   22.6880 N   0  0  0  0  0  0  0  0  0  0  0  0
    8.1190   -0.2960   21.6980 C   0  0  0  0  0  0  0  0  0  0  0  0
    8.7800    0.7050   21.4420 O   0  0  0  0  0  0  0  0  0  0  0  0
    6.8990   -0.7080   21.0390 N   0  0  0  0  0  0  0  0  0  0  0  0
    6.3070   -0.0170   20.0300 C   0  0  0  0  0  0  0  0  0  0  0  0
    5.1230    0.7030   20.2050 C   0  0  0  0  0  0  0  0  0  0  0  0
    4.5750    1.4010   19.1280 C   0  0  0  0  0  0  0  0  0  0  0  0
    5.2210    1.3630   17.9080 C   0  0  0  0  0  0  0  0  0  0  0  0
    6.3600    0.6780   17.6980 N   0  0  0  0  0  0  0  0  0  0  0  0
    6.8870   -0.0150   18.7850 C   0  0  0  0  0  0  0  0  0  0  0  0
   12.4490   -1.0970   24.0550 C   0  0  0  0  0  0  0  0  0  0  0  0
   13.4110   -2.4730   24.9380 Br  0  0  0  0  0  0  0  0  0  0  0  0
   12.4480    0.6140   24.3750 C   0  0  0  0  0  0  0  0  0  0  0  0
  1  2  1  0
  2  3  2  0
  3  4  1  0
  4  5  2  0
  5  6  1  0
  6  7  1  0
  6  8  1  0
  6  9  1  0
  9 10  1  0
 10 11  1  0
 11 12  2  0
 11 13  1  0
 13 14  1  0
 14 15  2  0
 15 16  1  0
 16 17  2  0
 17 18  1  0
 14 19  1  0
 18 19  2  0
  5 20  1  0
 20 21  1  0
  2 22  1  0
 20 22  2  0
M  END
