pyridine_urea_14020
     RDKit          3D

 23 25  0  0  0  0  0  0  0  0999 V2000
    6.2470   -3.7120   24.5730 C   0  0  0  0  0  0  0  0  0  0  0  0
    7.2100   -3.4630   23.8970 C   0  0  0  0  0  0  0  0  0  0  0  0
    8.1660   -3.6250   22.7070 C   0  0  0  0  0  0  0  0  0  0  0  0
    9.3950   -2.8170   22.4690 C   0  0  0  0  0  0  0  0  0  0  0  0
    9.7360   -1.8580   23.3460 C   0  0  0  0  0  0  0  0  0  0  0  0
   10.9500   -1.1270   23.0000 N   0  0  0  0  0  0  0  0  0  0  0  0
   12.2190   -1.5600   22.9210 C   0  0  0  0  0  0  0  0  0  0  0  0
   12.9080   -0.3850   23.4130 C   0  0  0  0  0  0  0  0  0  0  0  0
   12.0070    0.3040   24.1420 C   0  0  0  0  0  0  0  0  0  0  0  0
   10.9670    0.2360   23.0310 C   0  0  2  0  0  0  0  0  0  0  0  0
    9.7160    0.6700   23.3260 C   0  0  0  0  0  0  0  0  0  0  0  0
    8.7170   -0.0060   22.6950 N   0  0  0  0  0  0  0  0  0  0  0  0
    8.2280    0.4300   21.4770 C   0  0  0  0  0  0  0  0  0  0  0  0
    8.6600    1.4390   20.9250 O   0  0  0  0  0  0  0  0  0  0  0  0
    7.1530   -0.4100   20.9740 N   0  0  0  0  0  0  0  0  0  0  0  0
    6.3970    0.1750   20.0060 C   0  0  0  0  0  0  0  0  0  0  0  0
    5.1130    0.8460   20.5550 C   0  0  0  0  0  0  0  0  0  0  0  0
    4.5900    1.3890   19.2380 C   0  0  0  0  0  0  0  0  0  0  0  0
    5.1840    1.2660   17.8930 C   0  0  0  0  0  0  0  0  0  0  0  0
    6.2880    0.6390   17.6310 N   0  0  0  0  0  0  0  0  0  0  0  0
    6.8540    0.1160   18.7030 C   0  0  0  0  0  0  0  0  0  0  0  0
    8.9090   -1.6610   24.4420 C   0  0  0  0  0  0  0  0  0  0  0  0
    7.7450   -2.4120   24.6760 C   0  0  0  0  0  0  0  0  0  0  0  0
  1  2  1  0
  2  3  2  0
  3  4  1  0
  4  5  2  0
  5  6  1  0
  6  7  1  0
  7  8  1  0
  8  9  1  0
  6 10  1  0
  9 10  1  0
 10 11  1  1
 11 12  1  0
 12 13  1  0
 13 14  2  0
 13 15  1  0
 15 16  1  0
 16 17  2  0
 17 18  1  0
 18 19  2  0
 19 20  1  0
 16 21  1  0
 20 21  2  0
  5 22  1  0
  2 23  1  0
 22 23  2  0
M  END
