pyridine_urea_14720
     RDKit          3D

 20 22  0  0  0  0  0  0  0  0999 V2000
    8.9200    0.5450   21.4260 O   0  0  0  0  0  0  0  0  0  0  0  0
    8.2810   -0.4870   21.6000 C   0  0  0  0  0  0  0  0  0  0  0  0
    7.0550   -0.7780   21.0220 N   0  0  0  0  0  0  0  0  0  0  0  0
    6.3750   -0.0350   20.0410 C   0  0  0  0  0  0  0  0  0  0  0  0
    5.2000    0.6890   20.2420 C   0  0  0  0  0  0  0  0  0  0  0  0
    4.6200    1.3930   19.1820 C   0  0  0  0  0  0  0  0  0  0  0  0
    5.2420    1.3500   17.9500 C   0  0  0  0  0  0  0  0  0  0  0  0
    6.3720    0.6590   17.7290 N   0  0  0  0  0  0  0  0  0  0  0  0
    6.9030   -0.0090   18.7650 C   0  0  0  0  0  0  0  0  0  0  0  0
    8.6640   -1.5450   22.4140 N   0  0  0  0  0  0  0  0  0  0  0  0
    9.7900   -1.5870   23.2520 C   0  0  1  0  0  0  0  0  0  0  0  0
   11.0550   -1.5410   22.6850 C   0  0  0  0  0  0  0  0  0  0  0  0
   11.7640   -0.3070   23.0550 C   0  0  0  0  0  0  0  0  0  0  0  0
   11.0150    0.7570   23.7240 C   0  0  0  0  0  0  0  0  0  0  0  0
   12.1790    1.3710   23.5240 C   0  0  0  0  0  0  0  0  0  0  0  0
   13.0410    0.5060   22.8700 C   0  0  0  0  0  0  0  0  0  0  0  0
   14.2240    0.9250   22.5770 F   0  0  0  0  0  0  0  0  0  0  0  0
   12.5060   -0.7090   22.6080 C   0  0  0  0  0  0  0  0  0  0  0  0
   11.1630   -0.9980   22.9940 C   0  0  0  0  0  0  0  0  0  0  0  0
   10.1120   -0.2380   23.6750 C   0  0  0  0  0  0  0  0  0  0  0  0
  1  2  2  0
  2  3  1  0
  3  4  1  0
  4  5  2  0
  5  6  1  0
  6  7  2  0
  7  8  1  0
  4  9  1  0
  8  9  2  0
  2 10  1  0
 11 10  1  6
 11 12  1  0
 12 13  1  0
 13 14  1  0
 14 15  1  0
 15 16  2  0
 16 17  1  0
 16 18  1  0
 18 19  2  0
 11 20  1  0
 14 20  2  0
 19 20  1  0
M  END
