pyridine_urea_6428
     RDKit          3D

 18 19  0  0  0  0  0  0  0  0999 V2000
   10.7350   -3.9760   25.7890 C   0  0  0  0  0  0  0  0  0  0  0  0
   10.4870   -2.6720   25.2600 O   0  0  0  0  0  0  0  0  0  0  0  0
   10.4400   -2.6760   23.8340 C   0  0  0  0  0  0  0  0  0  0  0  0
   10.1420   -1.2810   23.2620 C   0  0  0  0  0  0  0  0  0  0  0  0
    8.7610   -1.4250   22.6950 N   0  0  0  0  0  0  0  0  0  0  0  0
    8.2950   -0.3610   21.7370 C   0  0  0  0  0  0  0  0  0  0  0  0
    9.0600    0.7650   21.3300 O   0  0  0  0  0  0  0  0  0  0  0  0
    6.9870   -0.6780   21.3610 N   0  0  0  0  0  0  0  0  0  0  0  0
    6.5940   -0.1240   20.2150 C   0  0  0  0  0  0  0  0  0  0  0  0
    5.3440    0.7420   20.4230 C   0  0  0  0  0  0  0  0  0  0  0  0
    4.7510    1.4380   19.2620 C   0  0  0  0  0  0  0  0  0  0  0  0
    5.3620    1.2600   18.0780 C   0  0  0  0  0  0  0  0  0  0  0  0
    6.4690    0.4970   17.8720 N   0  0  0  0  0  0  0  0  0  0  0  0
    7.0550   -0.1730   18.9150 C   0  0  0  0  0  0  0  0  0  0  0  0
   11.1610   -0.9350   22.1940 C   0  0  0  0  0  0  0  0  0  0  0  0
   12.1950   -0.2220   22.8060 C   0  0  0  0  0  0  0  0  0  0  0  0
   11.7670    0.2940   24.0150 C   0  0  0  0  0  0  0  0  0  0  0  0
   10.3090   -0.0760   24.2550 C   0  0  0  0  0  0  0  0  0  0  0  0
  1  2  1  0
  2  3  1  0
  3  4  1  0
  4  5  1  0
  5  6  1  0
  6  7  2  0
  6  8  1  0
  8  9  1  0
  9 10  2  0
 10 11  1  0
 11 12  2  0
 12 13  1  0
  9 14  1  0
 13 14  2  0
  4 15  1  0
 15 16  1  0
 16 17  1  0
  4 18  1  0
 17 18  1  0
M  END
