pyridine_urea_12890
     RDKit          3D

 19 21  0  0  0  0  0  0  0  0999 V2000
    8.7020    1.5060   21.0330 O   0  0  0  0  0  0  0  0  0  0  0  0
    8.2480    0.4440   21.4550 C   0  0  0  0  0  0  0  0  0  0  0  0
    7.0180   -0.0590   21.1560 N   0  0  0  0  0  0  0  0  0  0  0  0
    6.4690    0.3800   19.9390 C   0  0  0  0  0  0  0  0  0  0  0  0
    5.2370    1.2670   20.1060 C   0  0  0  0  0  0  0  0  0  0  0  0
    4.6130    1.7870   18.9950 C   0  0  0  0  0  0  0  0  0  0  0  0
    5.1510    1.4710   17.7560 C   0  0  0  0  0  0  0  0  0  0  0  0
    6.2500    0.6600   17.6520 N   0  0  0  0  0  0  0  0  0  0  0  0
    6.9290    0.0980   18.7210 C   0  0  0  0  0  0  0  0  0  0  0  0
    8.8640   -0.4230   22.2440 N   0  0  0  0  0  0  0  0  0  0  0  0
    9.4830   -1.3380   22.9410 C   0  0  0  0  0  0  0  0  0  0  0  0
    8.5060   -2.2280   23.5270 C   0  0  2  0  0  0  0  0  0  0  0  0
    8.9180   -3.1420   24.4790 C   0  0  0  0  0  0  0  0  0  0  0  0
    7.9060   -3.9280   25.0310 C   0  0  0  0  0  0  0  0  0  0  0  0
    7.1790   -4.5630   24.0110 C   0  0  0  0  0  0  0  0  0  0  0  0
    6.8550   -3.7770   23.1360 O   0  0  0  0  0  0  0  0  0  0  0  0
    7.8500   -2.9540   22.5430 C   0  0  0  0  0  0  0  0  0  0  0  0
   10.9650   -1.3580   22.6040 C   0  0  0  0  0  0  0  0  0  0  0  0
   10.3220   -2.3550   22.3800 C   0  0  0  0  0  0  0  0  0  0  0  0
  1  2  2  0
  2  3  1  0
  3  4  1  0
  4  5  2  0
  5  6  1  0
  6  7  2  0
  7  8  1  0
  4  9  1  0
  8  9  2  0
  2 10  1  0
 11 10  1  0
 12 11  1  6
 12 13  1  0
 13 14  1  0
 14 15  1  0
 15 16  1  0
 12 17  1  0
 16 17  1  0
 11 18  1  0
 11 19  1  0
 18 19  1  0
M  END
