pyridine_urea_4607
     RDKit          3D

 22 23  0  0  0  0  0  0  0  0999 V2000
    9.3470   -2.9150   23.5260 C   0  0  0  0  0  0  0  0  0  0  0  0
   10.8830   -2.7310   23.6570 C   0  0  0  0  0  0  0  0  0  0  0  0
   11.4440   -2.6510   22.3470 O   0  0  0  0  0  0  0  0  0  0  0  0
   12.4480   -1.7000   22.3810 C   0  0  0  0  0  0  0  0  0  0  0  0
   13.3620   -1.5050   21.2520 O   0  0  0  0  0  0  0  0  0  0  0  0
   12.7830   -0.8190   23.4140 C   0  0  2  0  0  0  0  0  0  0  0  0
   12.3130   -1.0430   24.7190 C   0  0  0  0  0  0  0  0  0  0  0  0
   10.9630   -0.6990   24.9460 C   0  0  0  0  0  0  0  0  0  0  0  0
   10.4640    0.2300   24.0490 C   0  0  2  0  0  0  0  0  0  0  0  0
   10.1940   -0.3640   22.8300 C   0  0  0  0  0  0  0  0  0  0  0  0
    8.7820   -0.4440   22.6120 N   0  0  0  0  0  0  0  0  0  0  0  0
    8.2920    0.2660   21.5740 C   0  0  0  0  0  0  0  0  0  0  0  0
    8.8440    1.3020   21.1770 O   0  0  0  0  0  0  0  0  0  0  0  0
    7.1230   -0.3080   21.0670 N   0  0  0  0  0  0  0  0  0  0  0  0
    6.5000    0.2080   19.9830 C   0  0  0  0  0  0  0  0  0  0  0  0
    5.3650    0.9510   20.3000 C   0  0  0  0  0  0  0  0  0  0  0  0
    4.6680    1.5670   19.1510 C   0  0  0  0  0  0  0  0  0  0  0  0
    5.1400    1.3920   17.8850 C   0  0  0  0  0  0  0  0  0  0  0  0
    6.2330    0.6560   17.5930 N   0  0  0  0  0  0  0  0  0  0  0  0
    6.9080    0.0630   18.6780 C   0  0  0  0  0  0  0  0  0  0  0  0
   11.3940    1.2750   23.6400 C   0  0  0  0  0  0  0  0  0  0  0  0
   12.6490    0.6830   23.0740 C   0  0  0  0  0  0  0  0  0  0  0  0
  1  2  1  0
  2  3  1  0
  3  4  1  0
  4  5  2  0
  6  4  1  6
  6  7  1  0
  7  8  1  0
  8  9  1  0
  9 10  1  6
 10 11  1  0
 11 12  1  0
 12 13  2  0
 12 14  1  0
 14 15  1  0
 15 16  2  0
 16 17  1  0
 17 18  2  0
 18 19  1  0
 15 20  1  0
 19 20  2  0
  9 21  1  0
  6 22  1  0
 21 22  1  0
M  END
