pyridine_urea_6345
     RDKit          3D

 23 25  0  0  0  0  0  0  0  0999 V2000
    8.5200    0.5830   21.1800 O   0  0  0  0  0  0  0  0  0  0  0  0
    8.1110   -0.5020   21.5690 C   0  0  0  0  0  0  0  0  0  0  0  0
    6.9190   -0.9970   21.1200 N   0  0  0  0  0  0  0  0  0  0  0  0
    6.3560   -0.2310   20.0240 C   0  0  0  0  0  0  0  0  0  0  0  0
    5.0740    0.5400   20.3240 C   0  0  0  0  0  0  0  0  0  0  0  0
    4.5320    1.3230   19.1760 C   0  0  0  0  0  0  0  0  0  0  0  0
    5.2110    1.2950   17.9730 C   0  0  0  0  0  0  0  0  0  0  0  0
    6.3430    0.5950   17.7580 N   0  0  0  0  0  0  0  0  0  0  0  0
    6.8830   -0.1390   18.7570 C   0  0  0  0  0  0  0  0  0  0  0  0
    8.8240   -1.2840   22.4640 N   0  0  0  0  0  0  0  0  0  0  0  0
   10.1550   -0.6980   22.6010 C   0  0  0  0  0  0  0  0  0  0  0  0
   11.2330   -1.5370   22.4670 C   0  0  0  0  0  0  0  0  0  0  0  0
   12.4530   -0.6790   22.5870 C   0  0  0  0  0  0  0  0  0  0  0  0
   12.3800    0.6570   22.7770 C   0  0  0  0  0  0  0  0  0  0  0  0
   13.3820    1.5000   22.8540 C   0  0  0  0  0  0  0  0  0  0  0  0
   12.8830    2.8850   23.0480 N   0  0  0  0  0  0  0  0  0  0  0  0
   11.5410    2.6870   23.0750 N   0  0  0  0  0  0  0  0  0  0  0  0
   10.7100    3.7540   23.2440 C   0  0  0  0  0  0  0  0  0  0  0  0
   11.1990    5.1090   22.7500 C   0  0  0  0  0  0  0  0  0  0  0  0
   11.1550    4.9940   24.2470 C   0  0  0  0  0  0  0  0  0  0  0  0
   10.3180    5.7990   24.6530 O   0  0  0  0  0  0  0  0  0  0  0  0
   11.2640    1.3560   22.9050 C   0  0  0  0  0  0  0  0  0  0  0  0
   10.0080    0.8490   22.8610 C   0  0  0  0  0  0  0  0  0  0  0  0
  1  2  2  0
  2  3  1  0
  3  4  1  0
  4  5  2  0
  5  6  1  0
  6  7  2  0
  7  8  1  0
  4  9  1  0
  8  9  2  0
  2 10  1  0
 10 11  1  0
 11 12  2  0
 12 13  1  0
 13 14  2  0
 14 15  1  0
 15 16  2  0
 16 17  1  0
 17 18  1  0
 18 19  1  0
 19 20  1  0
 20 21  1  0
 14 22  1  0
 17 22  1  0
 11 23  1  0
 22 23  2  0
M  END
