pyridine_urea_3325
     RDKit          3D

 19 20  0  0  0  0  0  0  0  0999 V2000
   12.4730   -4.3860   19.9480 C   0  0  0  0  0  0  0  0  0  0  0  0
   13.6100   -3.7970   20.6930 C   0  0  0  0  0  0  0  0  0  0  0  0
   13.1750   -2.9540   21.7980 N   0  0  0  0  0  0  0  0  0  0  0  0
   12.0800   -2.0670   21.6800 C   0  0  0  0  0  0  0  0  0  0  0  0
   11.9040   -1.4190   22.8440 C   0  0  0  0  0  0  0  0  0  0  0  0
   10.9270   -0.4960   23.0830 C   0  0  0  0  0  0  0  0  0  0  0  0
    9.5760   -1.1760   22.9540 C   0  0  0  0  0  0  0  0  0  0  0  0
    8.6110   -0.2270   22.7570 N   0  0  0  0  0  0  0  0  0  0  0  0
    8.2420    0.3080   21.5200 C   0  0  0  0  0  0  0  0  0  0  0  0
    8.7640    1.3350   21.0760 O   0  0  0  0  0  0  0  0  0  0  0  0
    7.2800   -0.4560   20.9580 N   0  0  0  0  0  0  0  0  0  0  0  0
    6.5120    0.1600   20.0340 C   0  0  0  0  0  0  0  0  0  0  0  0
    5.3580    0.8980   20.3100 C   0  0  0  0  0  0  0  0  0  0  0  0
    4.6690    1.4920   19.2690 C   0  0  0  0  0  0  0  0  0  0  0  0
    5.1570    1.3290   17.9790 C   0  0  0  0  0  0  0  0  0  0  0  0
    6.2530    0.6210   17.6890 N   0  0  0  0  0  0  0  0  0  0  0  0
    6.9030    0.0530   18.7190 C   0  0  0  0  0  0  0  0  0  0  0  0
   12.8680   -1.8720   23.6990 N   0  0  0  0  0  0  0  0  0  0  0  0
   13.6390   -2.8060   23.0660 N   0  0  0  0  0  0  0  0  0  0  0  0
  1  2  1  0
  2  3  1  0
  3  4  1  0
  4  5  2  0
  5  6  1  0
  6  7  1  0
  7  8  1  0
  8  9  1  0
  9 10  2  0
  9 11  1  0
 11 12  1  0
 12 13  2  0
 13 14  1  0
 14 15  2  0
 15 16  1  0
 12 17  1  0
 16 17  2  0
  5 18  1  0
  3 19  1  0
 18 19  2  0
M  END
