pyridine_urea_7340
     RDKit          3D

 17 17  0  0  0  0  0  0  0  0999 V2000
   12.0610    0.0370   24.5500 C   0  0  0  0  0  0  0  0  0  0  0  0
   12.7590    0.1810   23.2250 C   0  0  2  0  0  0  0  0  0  0  0  0
   12.0750    1.2200   22.5260 O   0  0  0  0  0  0  0  0  0  0  0  0
   12.7270   -1.0390   22.5770 C   0  0  0  0  0  0  0  0  0  0  0  0
   11.5680   -1.7870   22.7830 C   0  0  2  0  0  0  0  0  0  0  0  0
   10.6110   -1.8860   21.8110 C   0  0  0  0  0  0  0  0  0  0  0  0
   10.2150   -1.1460   23.1740 C   0  0  0  0  0  0  0  0  0  0  0  0
    9.0350   -1.2650   22.3400 N   0  0  0  0  0  0  0  0  0  0  0  0
    8.6140   -0.1670   21.6770 C   0  0  0  0  0  0  0  0  0  0  0  0
    9.3350    1.0600   21.6850 O   0  0  0  0  0  0  0  0  0  0  0  0
    7.5030   -0.2610   20.9920 N   0  0  0  0  0  0  0  0  0  0  0  0
    6.6700    0.1870   20.0210 C   0  0  0  0  0  0  0  0  0  0  0  0
    5.4950    0.8750   20.3250 C   0  0  0  0  0  0  0  0  0  0  0  0
    4.6490    1.3750   19.3530 C   0  0  0  0  0  0  0  0  0  0  0  0
    5.0380    1.1540   18.0460 C   0  0  0  0  0  0  0  0  0  0  0  0
    6.1510    0.4880   17.7050 N   0  0  0  0  0  0  0  0  0  0  0  0
    6.9390    0.0180   18.6900 C   0  0  0  0  0  0  0  0  0  0  0  0
  2  1  1  1
  2  3  1  0
  2  4  1  0
  4  5  1  0
  5  6  1  6
  5  7  1  0
  7  8  1  0
  8  9  1  0
  9 10  2  0
  9 11  1  0
 11 12  1  0
 12 13  2  0
 13 14  1  0
 14 15  2  0
 15 16  1  0
 12 17  1  0
 16 17  2  0
M  END
