pyridine_urea_5793
     RDKit          3D

 21 23  0  0  0  0  0  0  0  0999 V2000
    8.6130    1.2720   21.1310 O   0  0  0  0  0  0  0  0  0  0  0  0
    8.3210    0.1680   21.6270 C   0  0  0  0  0  0  0  0  0  0  0  0
    7.1550   -0.5790   21.1520 N   0  0  0  0  0  0  0  0  0  0  0  0
    6.4670    0.0350   20.1070 C   0  0  0  0  0  0  0  0  0  0  0  0
    5.2870    0.7430   20.3470 C   0  0  0  0  0  0  0  0  0  0  0  0
    4.6430    1.3590   19.2720 C   0  0  0  0  0  0  0  0  0  0  0  0
    5.1930    1.2490   17.9960 C   0  0  0  0  0  0  0  0  0  0  0  0
    6.3200    0.5660   17.7490 N   0  0  0  0  0  0  0  0  0  0  0  0
    6.9310   -0.0280   18.8030 C   0  0  0  0  0  0  0  0  0  0  0  0
    9.0670   -0.4710   22.6240 N   0  0  0  0  0  0  0  0  0  0  0  0
    8.6090   -1.3280   23.7370 C   0  0  2  0  0  0  0  0  0  0  0  0
    8.6090   -0.5840   25.0300 C   0  0  0  0  0  0  0  0  0  0  0  0
    9.7250   -0.7290   25.5280 O   0  0  0  0  0  0  0  0  0  0  0  0
   10.4460   -1.6120   24.7780 C   0  0  0  0  0  0  0  0  0  0  0  0
    9.5920   -2.2890   23.9760 C   0  0  2  0  0  0  0  0  0  0  0  0
   10.3500   -2.1820   23.0980 N   0  0  0  0  0  0  0  0  0  0  0  0
   11.6880   -2.5710   22.9340 C   0  0  0  0  0  0  0  0  0  0  0  0
   11.8280   -1.9790   21.8120 C   0  0  0  0  0  0  0  0  0  0  0  0
   13.3730   -1.9620   20.9430 Br  0  0  0  0  0  0  0  0  0  0  0  0
   10.6810   -1.3880   21.4580 C   0  0  0  0  0  0  0  0  0  0  0  0
    9.6940   -1.4890   22.2070 N   0  0  0  0  0  0  0  0  0  0  0  0
  1  2  2  0
  2  3  1  0
  3  4  1  0
  4  5  2  0
  5  6  1  0
  6  7  2  0
  7  8  1  0
  4  9  1  0
  8  9  2  0
  2 10  1  0
 11 10  1  6
 11 12  1  0
 12 13  1  0
 13 14  1  0
 11 15  1  0
 14 15  1  0
 15 16  1  6
 16 17  1  0
 17 18  2  0
 18 19  1  0
 18 20  1  0
 16 21  1  0
 20 21  2  0
M  END
