pyridine_urea_5978
     RDKit          3D

 26 28  0  0  0  0  0  0  0  0999 V2000
    5.6350   -1.7480   23.2180 C   0  0  0  0  0  0  0  0  0  0  0  0
    6.4460   -1.3390   24.4190 C   0  0  2  0  0  0  0  0  0  0  0  0
    5.9260   -0.2350   25.1140 C   0  0  0  0  0  0  0  0  0  0  0  0
    6.6960    0.1380   26.2140 C   0  0  1  0  0  0  0  0  0  0  0  0
    5.9840    0.6180   27.3220 C   0  0  0  0  0  0  0  0  0  0  0  0
    7.7110   -0.8030   26.4950 C   0  0  0  0  0  0  0  0  0  0  0  0
    8.6120   -0.8320   25.3480 N   0  0  0  0  0  0  0  0  0  0  0  0
    9.4190    0.2510   25.1140 C   0  0  0  0  0  0  0  0  0  0  0  0
   10.4940   -0.2380   24.0840 C   0  0  0  0  0  0  0  0  0  0  0  0
   11.7900    0.3070   24.0750 C   0  0  0  0  0  0  0  0  0  0  0  0
   12.7450   -0.0700   23.2030 C   0  0  0  0  0  0  0  0  0  0  0  0
   12.3660   -1.0080   22.3410 C   0  0  0  0  0  0  0  0  0  0  0  0
   11.0770   -1.5010   22.3930 C   0  0  0  0  0  0  0  0  0  0  0  0
    9.9520   -1.2080   23.2440 C   0  0  0  0  0  0  0  0  0  0  0  0
    9.7280   -2.1400   22.2950 C   0  0  0  0  0  0  0  0  0  0  0  0
    9.1530   -1.5030   21.2300 N   0  0  0  0  0  0  0  0  0  0  0  0
    8.3380   -0.3620   21.2300 C   0  0  0  0  0  0  0  0  0  0  0  0
    8.7690    0.7790   21.3530 O   0  0  0  0  0  0  0  0  0  0  0  0
    7.0480   -0.7130   21.0500 N   0  0  0  0  0  0  0  0  0  0  0  0
    6.3990   -0.0210   20.0960 C   0  0  0  0  0  0  0  0  0  0  0  0
    5.2190    0.7240   20.2830 C   0  0  0  0  0  0  0  0  0  0  0  0
    4.6360    1.4140   19.2020 C   0  0  0  0  0  0  0  0  0  0  0  0
    5.2300    1.3620   17.9320 C   0  0  0  0  0  0  0  0  0  0  0  0
    6.3500    0.6650   17.6960 N   0  0  0  0  0  0  0  0  0  0  0  0
    6.9280   -0.0380   18.8240 C   0  0  0  0  0  0  0  0  0  0  0  0
    7.8340   -1.2420   24.1750 C   0  0  0  0  0  0  0  0  0  0  0  0
  2  1  1  6
  2  3  1  0
  3  4  1  0
  4  5  1  1
  4  6  1  0
  6  7  1  0
  7  8  1  0
  8  9  1  0
  9 10  2  0
 10 11  1  0
 11 12  2  0
 12 13  1  0
  9 14  1  0
 13 14  2  0
 14 15  1  0
 15 16  1  0
 16 17  1  0
 17 18  2  0
 17 19  1  0
 19 20  1  0
 20 21  2  0
 21 22  1  0
 22 23  2  0
 23 24  1  0
 20 25  1  0
 24 25  2  0
  2 26  1  0
  7 26  1  0
M  END
