pyridine_urea_1639
     RDKit          3D

 19 20  0  0  0  0  0  0  0  0999 V2000
   10.0820   -0.5990   24.6940 C   0  0  0  0  0  0  0  0  0  0  0  0
   10.2200   -0.1850   23.2610 C   0  0  0  0  0  0  0  0  0  0  0  0
   10.2570    1.1740   22.9870 C   0  0  0  0  0  0  0  0  0  0  0  0
    9.1050   -0.6900   22.4750 N   0  0  0  0  0  0  0  0  0  0  0  0
    8.4440    0.0750   21.5200 C   0  0  0  0  0  0  0  0  0  0  0  0
    8.8120    1.1940   21.1390 O   0  0  0  0  0  0  0  0  0  0  0  0
    7.3010   -0.5390   21.0450 N   0  0  0  0  0  0  0  0  0  0  0  0
    6.5450    0.0680   20.0350 C   0  0  0  0  0  0  0  0  0  0  0  0
    5.3700    0.7540   20.3950 C   0  0  0  0  0  0  0  0  0  0  0  0
    4.6210    1.3820   19.4020 C   0  0  0  0  0  0  0  0  0  0  0  0
    5.1450    1.2750   17.9730 C   0  0  0  0  0  0  0  0  0  0  0  0
    6.2560    0.6050   17.6840 N   0  0  0  0  0  0  0  0  0  0  0  0
    6.9190    0.0260   18.7060 C   0  0  0  0  0  0  0  0  0  0  0  0
   11.4690   -0.9040   22.7090 C   0  0  0  0  0  0  0  0  0  0  0  0
   11.7430   -1.9050   22.2460 C   0  0  0  0  0  0  0  0  0  0  0  0
   12.8590   -1.1000   22.3350 C   0  0  0  0  0  0  0  0  0  0  0  0
   11.7780   -0.0330   23.0190 C   0  0  0  0  0  0  0  0  0  0  0  0
   13.0380    0.6320   22.9910 C   0  0  0  0  0  0  0  0  0  0  0  0
   13.0920   -0.5770   22.4940 C   0  0  0  0  0  0  0  0  0  0  0  0
  1  2  1  0
  2  3  1  0
  2  4  1  0
  4  5  1  0
  5  6  2  0
  5  7  1  0
  7  8  1  0
  8  9  2  0
  9 10  1  0
 10 11  2  0
 11 12  1  0
  8 13  1  0
 12 13  2  0
  2 14  1  0
 14 15  2  0
 15 16  1  0
 16 17  2  0
 17 18  1  0
 14 19  1  0
 18 19  2  0
M  END
