pyridine_urea_8376
     RDKit          3D

 22 23  0  0  0  0  0  0  0  0999 V2000
    8.5950    0.3550   21.2110 O   0  0  0  0  0  0  0  0  0  0  0  0
    8.0660   -0.7170   21.5040 C   0  0  0  0  0  0  0  0  0  0  0  0
    8.7220   -1.5940   22.3600 N   0  0  0  0  0  0  0  0  0  0  0  0
    9.9130   -0.8550   22.5710 C   0  0  0  0  0  0  0  0  0  0  0  0
   11.3380   -1.3920   22.1780 C   0  0  0  0  0  0  0  0  0  0  0  0
   12.4120   -0.5240   22.3570 C   0  0  0  0  0  0  0  0  0  0  0  0
   12.0840    0.8770   22.9160 C   0  0  0  0  0  0  0  0  0  0  0  0
   12.9860    1.8180   23.0790 C   0  0  0  0  0  0  0  0  0  0  0  0
   12.6150    3.2340   22.5240 C   0  0  0  0  0  0  0  0  0  0  0  0
   11.6590    3.8090   23.4240 N   0  0  0  0  0  0  0  0  0  0  0  0
   12.0400    5.1230   23.7060 C   0  0  0  0  0  0  0  0  0  0  0  0
   11.5280    6.1650   22.7290 C   0  0  0  0  0  0  0  0  0  0  0  0
   10.3120    6.0840   22.6220 O   0  0  0  0  0  0  0  0  0  0  0  0
   10.8420    1.2950   23.2860 C   0  0  0  0  0  0  0  0  0  0  0  0
    9.6990    0.3980   23.1120 C   0  0  0  0  0  0  0  0  0  0  0  0
    6.8520   -1.0740   21.0160 N   0  0  0  0  0  0  0  0  0  0  0  0
    6.3150   -0.3130   20.0330 C   0  0  0  0  0  0  0  0  0  0  0  0
    5.1210    0.3840   20.2450 C   0  0  0  0  0  0  0  0  0  0  0  0
    4.5760    1.1830   19.2180 C   0  0  0  0  0  0  0  0  0  0  0  0
    5.2150    1.2940   17.9870 C   0  0  0  0  0  0  0  0  0  0  0  0
    6.3570    0.6570   17.7150 N   0  0  0  0  0  0  0  0  0  0  0  0
    6.9000   -0.1690   18.7960 C   0  0  0  0  0  0  0  0  0  0  0  0
  1  2  2  0
  2  3  1  0
  3  4  1  0
  4  5  2  0
  5  6  1  0
  6  7  2  0
  7  8  1  0
  8  9  1  0
  9 10  1  0
 10 11  1  0
 11 12  1  0
 12 13  1  0
  7 14  1  0
  4 15  1  0
 14 15  2  0
  2 16  1  0
 16 17  1  0
 17 18  2  0
 18 19  1  0
 19 20  2  0
 20 21  1  0
 17 22  1  0
 21 22  2  0
M  END
