pyridine_urea_8210
     RDKit          3D

 23 24  0  0  0  0  0  0  0  0999 V2000
    8.7920   -2.0400   22.6270 C   0  0  0  0  0  0  0  0  0  0  0  0
    9.7930   -1.1190   23.3290 C   0  0  0  0  0  0  0  0  0  0  0  0
   10.8390   -0.7360   22.2130 C   0  0  0  0  0  0  0  0  0  0  0  0
    9.0680    0.1530   23.9230 C   0  0  1  0  0  0  0  0  0  0  0  0
    8.4760   -0.2500   25.2900 C   0  0  0  0  0  0  0  0  0  0  0  0
    9.9130    1.3000   24.0690 C   0  0  0  0  0  0  0  0  0  0  0  0
   11.0890    0.4820   23.9270 C   0  0  0  0  0  0  0  0  0  0  0  0
   10.8160   -0.7530   24.7280 C   0  0  0  0  0  0  0  0  0  0  0  0
   11.8250   -1.7800   24.6220 C   0  0  0  0  0  0  0  0  0  0  0  0
   13.0060   -1.5740   23.7880 C   0  0  0  0  0  0  0  0  0  0  0  0
   13.9220   -2.9180   23.8060 Cl  0  0  0  0  0  0  0  0  0  0  0  0
   13.2850   -0.2800   23.0180 C   0  0  0  0  0  0  0  0  0  0  0  0
   12.2120    0.7500   23.1560 C   0  0  0  0  0  0  0  0  0  0  0  0
    8.1480    0.4730   22.9490 N   0  0  0  0  0  0  0  0  0  0  0  0
    8.2680    0.6060   21.6050 C   0  0  0  0  0  0  0  0  0  0  0  0
    9.0370    1.4160   21.1080 O   0  0  0  0  0  0  0  0  0  0  0  0
    7.3960   -0.2380   20.9660 N   0  0  0  0  0  0  0  0  0  0  0  0
    6.5530    0.2760   20.0000 C   0  0  0  0  0  0  0  0  0  0  0  0
    5.3700    0.9670   20.2760 C   0  0  0  0  0  0  0  0  0  0  0  0
    4.6270    1.4650   19.2270 C   0  0  0  0  0  0  0  0  0  0  0  0
    5.1310    1.2320   17.9540 C   0  0  0  0  0  0  0  0  0  0  0  0
    6.2420    0.5700   17.6490 N   0  0  0  0  0  0  0  0  0  0  0  0
    6.9320    0.1010   18.6930 C   0  0  0  0  0  0  0  0  0  0  0  0
  1  2  1  0
  2  3  1  0
  2  4  1  0
  4  5  1  1
  4  6  1  0
  6  7  1  0
  7  8  2  0
  8  9  1  0
  9 10  2  0
 10 11  1  0
 10 12  1  0
  7 13  1  0
 12 13  2  0
  4 14  1  0
 14 15  1  0
 15 16  2  0
 15 17  1  0
 17 18  1  0
 18 19  2  0
 19 20  1  0
 20 21  2  0
 21 22  1  0
 18 23  1  0
 22 23  2  0
M  END
