pyridine_urea_9717
     RDKit          3D

 27 30  0  0  0  0  0  0  0  0999 V2000
    8.8960    1.3900   21.1770 O   0  0  0  0  0  0  0  0  0  0  0  0
    8.6680    0.1950   21.3800 C   0  0  0  0  0  0  0  0  0  0  0  0
    9.6070   -0.6320   21.9790 N   0  0  0  0  0  0  0  0  0  0  0  0
   10.4070   -0.0580   23.0720 C   0  0  0  0  0  0  0  0  0  0  0  0
   11.8420   -0.5860   23.2320 C   0  0  0  0  0  0  0  0  0  0  0  0
   12.7380   -0.8550   22.0670 C   0  0  0  0  0  0  0  0  0  0  0  0
   12.7820   -0.9230   23.4940 C   0  0  0  0  0  0  0  0  0  0  0  0
   11.3920   -0.4540   24.1530 C   0  0  0  0  0  0  0  0  0  0  0  0
   10.1650    0.0050   23.7070 N   0  0  0  0  0  0  0  0  0  0  0  0
    9.6700    1.3150   24.0230 C   0  0  0  0  0  0  0  0  0  0  0  0
    8.3720    1.3400   24.5720 C   0  0  0  0  0  0  0  0  0  0  0  0
    8.0680    0.2810   25.4320 C   0  0  0  0  0  0  0  0  0  0  0  0
    8.1240   -0.8910   24.7090 C   0  0  0  0  0  0  0  0  0  0  0  0
    7.1400   -1.8900   24.8530 C   0  0  0  0  0  0  0  0  0  0  0  0
    7.1860   -3.0880   24.1210 C   0  0  0  0  0  0  0  0  0  0  0  0
    8.3090   -3.3190   23.1650 C   0  0  0  0  0  0  0  0  0  0  0  0
    9.2670   -2.3240   23.0400 C   0  0  0  0  0  0  0  0  0  0  0  0
    9.1970   -1.0500   23.8230 C   0  0  0  0  0  0  0  0  0  0  0  0
   11.5910   -0.5830   25.3480 N   0  0  0  0  0  0  0  0  0  0  0  0
   12.6620   -0.9440   24.6680 C   0  0  0  0  0  0  0  0  0  0  0  0
    7.4980   -0.4480   21.0230 N   0  0  0  0  0  0  0  0  0  0  0  0
    6.7070    0.0790   20.0620 C   0  0  0  0  0  0  0  0  0  0  0  0
    5.5500    0.7850   20.4060 C   0  0  0  0  0  0  0  0  0  0  0  0
    4.7500    1.3490   19.4160 C   0  0  0  0  0  0  0  0  0  0  0  0
    5.1320    1.1900   18.1020 C   0  0  0  0  0  0  0  0  0  0  0  0
    6.2240    0.5140   17.7370 N   0  0  0  0  0  0  0  0  0  0  0  0
    6.9820   -0.0250   18.7200 C   0  0  0  0  0  0  0  0  0  0  0  0
  1  2  2  0
  2  3  1  0
  3  4  1  0
  4  5  1  0
  5  6  2  0
  6  7  1  0
  7  8  2  0
  8  9  1  0
  9 10  1  0
 10 11  1  0
 11 12  1  0
 12 13  1  0
 13 14  2  0
 14 15  1  0
 15 16  2  0
 16 17  1  0
  9 18  1  0
 13 18  1  0
 17 18  2  0
  8 19  1  0
  5 20  1  0
 19 20  2  0
  2 21  1  0
 21 22  1  0
 22 23  2  0
 23 24  1  0
 24 25  2  0
 25 26  1  0
 22 27  1  0
 26 27  2  0
M  END
