pyridine_urea_9630
     RDKit          3D

 16 17  0  0  0  0  0  0  0  0999 V2000
    8.7360    0.9210   21.2480 O   0  0  0  0  0  0  0  0  0  0  0  0
    8.4270   -0.2270   21.5290 C   0  0  0  0  0  0  0  0  0  0  0  0
    7.2380   -0.8000   21.1250 N   0  0  0  0  0  0  0  0  0  0  0  0
    6.5370   -0.0940   20.0770 C   0  0  0  0  0  0  0  0  0  0  0  0
    5.2640    0.6650   20.4530 C   0  0  0  0  0  0  0  0  0  0  0  0
    4.5370    1.4230   19.3430 C   0  0  0  0  0  0  0  0  0  0  0  0
    5.1780    1.3360   17.9580 C   0  0  0  0  0  0  0  0  0  0  0  0
    6.3450    0.5910   17.7780 N   0  0  0  0  0  0  0  0  0  0  0  0
    6.9860   -0.0870   18.7770 C   0  0  0  0  0  0  0  0  0  0  0  0
    9.2260   -1.0740   22.2790 N   0  0  0  0  0  0  0  0  0  0  0  0
   10.5260   -0.6200   22.6080 C   0  0  2  0  0  0  0  0  0  0  0  0
   11.6220   -1.4130   22.3360 C   0  0  0  0  0  0  0  0  0  0  0  0
   12.6700   -0.7290   22.8930 C   0  0  0  0  0  0  0  0  0  0  0  0
   12.0530   -0.0010   23.9040 C   0  0  2  0  0  0  0  0  0  0  0  0
   12.5640   -0.3230   25.1200 O   0  0  0  0  0  0  0  0  0  0  0  0
   10.6520   -0.2270   23.9450 C   0  0  0  0  0  0  0  0  0  0  0  0
  1  2  2  0
  2  3  1  0
  3  4  1  0
  4  5  2  0
  5  6  1  0
  6  7  2  0
  7  8  1  0
  4  9  1  0
  8  9  2  0
  2 10  1  0
 11 10  1  1
 11 12  1  0
 12 13  1  0
 13 14  1  0
 14 15  1  1
 11 16  1  0
 14 16  1  0
M  END
