pyridine_urea_5434
     RDKit          3D

 18 20  0  0  0  0  0  0  0  0999 V2000
    8.7350    0.6820   21.3690 O   0  0  0  0  0  0  0  0  0  0  0  0
    8.2990   -0.3800   21.7950 C   0  0  0  0  0  0  0  0  0  0  0  0
    7.1720   -0.9460   21.2080 N   0  0  0  0  0  0  0  0  0  0  0  0
    6.4970   -0.1900   20.1430 C   0  0  0  0  0  0  0  0  0  0  0  0
    5.1830    0.6050   20.4600 C   0  0  0  0  0  0  0  0  0  0  0  0
    4.5850    1.3110   19.4170 C   0  0  0  0  0  0  0  0  0  0  0  0
    5.2730    1.2470   18.0470 C   0  0  0  0  0  0  0  0  0  0  0  0
    6.4060    0.5460   17.8200 N   0  0  0  0  0  0  0  0  0  0  0  0
    6.9760   -0.1410   18.8430 C   0  0  0  0  0  0  0  0  0  0  0  0
    8.8320   -1.1210   22.8710 N   0  0  0  0  0  0  0  0  0  0  0  0
   10.2230   -0.7720   23.2290 C   0  0  0  0  0  0  0  0  0  0  0  0
   11.2020   -1.6680   23.9270 C   0  0  0  0  0  0  0  0  0  0  0  0
   12.4410   -1.2410   24.2170 N   0  0  0  0  0  0  0  0  0  0  0  0
   13.0120   -2.3140   24.8310 C   0  0  0  0  0  0  0  0  0  0  0  0
   12.2250   -3.3870   24.9470 N   0  0  0  0  0  0  0  0  0  0  0  0
   11.0850   -2.9570   24.3600 N   0  0  0  0  0  0  0  0  0  0  0  0
   10.6430    0.6010   22.9360 C   0  0  0  0  0  0  0  0  0  0  0  0
   10.9180   -0.3650   22.0650 C   0  0  0  0  0  0  0  0  0  0  0  0
  1  2  2  0
  2  3  1  0
  3  4  1  0
  4  5  2  0
  5  6  1  0
  6  7  2  0
  7  8  1  0
  4  9  1  0
  8  9  2  0
  2 10  1  0
 11 10  1  0
 11 12  1  0
 12 13  2  0
 13 14  1  0
 14 15  2  0
 12 16  1  0
 15 16  1  0
 11 17  1  0
 11 18  1  0
 17 18  1  0
M  END
