pyridine_urea_3955
     RDKit          3D

 28 30  0  0  0  0  0  0  0  0999 V2000
    8.9720   -0.2510   22.2160 O   0  0  0  0  0  0  0  0  0  0  0  0
    7.8760    0.2540   22.2160 C   0  0  0  0  0  0  0  0  0  0  0  0
    6.8040   -0.2070   21.4760 N   0  0  0  0  0  0  0  0  0  0  0  0
    6.3280    0.2740   20.2390 C   0  0  0  0  0  0  0  0  0  0  0  0
    5.1730    1.0490   20.2770 C   0  0  0  0  0  0  0  0  0  0  0  0
    4.6360    1.5690   19.1030 C   0  0  0  0  0  0  0  0  0  0  0  0
    5.2780    1.2990   17.9170 C   0  0  0  0  0  0  0  0  0  0  0  0
    6.3940    0.5510   17.8400 N   0  0  0  0  0  0  0  0  0  0  0  0
    6.8970    0.0500   18.9920 C   0  0  0  0  0  0  0  0  0  0  0  0
    7.6180    1.3900   23.0100 N   0  0  0  0  0  0  0  0  0  0  0  0
    8.7460    2.3240   23.2490 C   0  0  0  0  0  0  0  0  0  0  0  0
    9.5290    2.4940   22.0610 C   0  0  0  0  0  0  0  0  0  0  0  0
   10.7140    3.2070   22.0330 C   0  0  0  0  0  0  0  0  0  0  0  0
   11.1950    3.8560   23.0890 C   0  0  0  0  0  0  0  0  0  0  0  0
   12.7530    4.6790   22.9050 S   0  0  0  0  0  0  0  0  0  0  0  0
   12.6400    5.6300   21.8130 O   0  0  0  0  0  0  0  0  0  0  0  0
   13.0410    5.1830   24.2130 O   0  0  0  0  0  0  0  0  0  0  0  0
   13.9880    3.4240   22.4570 N   0  0  0  0  0  0  0  0  0  0  0  0
   14.0920    3.2500   21.1080 C   0  0  0  0  0  0  0  0  0  0  0  0
   13.0640    3.8980   21.1070 C   0  0  0  0  0  0  0  0  0  0  0  0
   12.5150    4.1480   20.0780 C   0  0  0  0  0  0  0  0  0  0  0  0
   12.9970    3.7250   18.6640 C   0  0  0  0  0  0  0  0  0  0  0  0
   14.1940    2.9720   18.6970 C   0  0  0  0  0  0  0  0  0  0  0  0
   14.7170    2.7340   19.8500 C   0  0  0  0  0  0  0  0  0  0  0  0
   15.9480    1.8500   19.1310 Cl  0  0  0  0  0  0  0  0  0  0  0  0
   10.3800    3.8440   24.2340 C   0  0  0  0  0  0  0  0  0  0  0  0
   10.7950    4.8470   25.5700 Cl  0  0  0  0  0  0  0  0  0  0  0  0
    9.1790    3.0560   24.3470 C   0  0  0  0  0  0  0  0  0  0  0  0
  1  2  2  0
  2  3  1  0
  3  4  1  0
  4  5  2  0
  5  6  1  0
  6  7  2  0
  7  8  1  0
  4  9  1  0
  8  9  2  0
  2 10  1  0
 10 11  1  0
 11 12  2  0
 12 13  1  0
 13 14  2  0
 14 15  1  0
 15 16  2  0
 15 17  2  0
 15 18  1  0
 18 19  1  0
 19 20  2  0
 20 21  1  0
 21 22  2  0
 22 23  1  0
 19 24  1  0
 23 24  2  0
 24 25  1  0
 14 26  1  0
 26 27  1  0
 11 28  1  0
 26 28  2  0
M  END
