pyridine_urea_3846
     RDKit          3D

 20 22  0  0  0  0  0  0  0  0999 V2000
    8.5900    1.2580   21.1540 O   0  0  0  0  0  0  0  0  0  0  0  0
    8.1220    0.1080   21.2180 C   0  0  0  0  0  0  0  0  0  0  0  0
    6.8460   -0.2740   21.0150 N   0  0  0  0  0  0  0  0  0  0  0  0
    6.2380    0.2950   19.9370 C   0  0  0  0  0  0  0  0  0  0  0  0
    5.0590    1.0000   20.1070 C   0  0  0  0  0  0  0  0  0  0  0  0
    4.4750    1.5980   19.0020 C   0  0  0  0  0  0  0  0  0  0  0  0
    5.1070    1.4530   17.7860 C   0  0  0  0  0  0  0  0  0  0  0  0
    6.2360    0.7640   17.6080 N   0  0  0  0  0  0  0  0  0  0  0  0
    6.7820    0.1990   18.6800 C   0  0  0  0  0  0  0  0  0  0  0  0
    8.9030   -0.9400   21.4520 N   0  0  0  0  0  0  0  0  0  0  0  0
   10.1140   -0.5510   22.0430 C   0  0  2  0  0  0  0  0  0  0  0  0
   11.0600   -1.6310   21.8820 C   0  0  0  0  0  0  0  0  0  0  0  0
   11.3780   -1.3680   23.1330 C   0  0  1  0  0  0  0  0  0  0  0  0
   12.5770   -0.7820   23.2600 C   0  0  0  0  0  0  0  0  0  0  0  0
   13.0480   -1.6330   24.0760 N   0  0  0  0  0  0  0  0  0  0  0  0
   13.2030   -2.9170   23.8950 C   0  0  0  0  0  0  0  0  0  0  0  0
   13.7020   -3.2860   25.0930 C   0  0  0  0  0  0  0  0  0  0  0  0
   13.8130   -2.2150   25.8390 C   0  0  0  0  0  0  0  0  0  0  0  0
   13.3790   -1.1470   25.2230 N   0  0  0  0  0  0  0  0  0  0  0  0
   10.2980   -0.2740   23.3770 C   0  0  0  0  0  0  0  0  0  0  0  0
  1  2  2  0
  2  3  1  0
  3  4  1  0
  4  5  2  0
  5  6  1  0
  6  7  2  0
  7  8  1  0
  4  9  1  0
  8  9  2  0
  2 10  1  0
 11 10  1  1
 11 12  1  0
 12 13  1  0
 13 14  1  6
 14 15  1  0
 15 16  1  0
 16 17  2  0
 17 18  1  0
 15 19  1  0
 18 19  2  0
 11 20  1  0
 13 20  1  0
M  END
