pyridine_urea_11709
     RDKit          3D

 26 28  0  0  0  0  0  0  0  0999 V2000
    1.3200    5.2580   17.3270 C   0  0  0  0  0  0  0  0  0  0  0  0
    0.9350    4.8870   18.6460 O   0  0  0  0  0  0  0  0  0  0  0  0
    1.6480    3.7930   19.0920 C   0  0  0  0  0  0  0  0  0  0  0  0
    1.3200    3.1490   20.2730 C   0  0  0  0  0  0  0  0  0  0  0  0
    1.9570    2.0560   20.8020 C   0  0  0  0  0  0  0  0  0  0  0  0
    3.0160    1.5640   20.0740 C   0  0  0  0  0  0  0  0  0  0  0  0
    3.4580    2.1090   18.8720 C   0  0  0  0  0  0  0  0  0  0  0  0
    4.5790    1.5210   18.1570 C   0  0  0  0  0  0  0  0  0  0  0  0
    5.7590    1.3740   18.9850 N   0  0  0  0  0  0  0  0  0  0  0  0
    5.4480    1.8030   20.3080 C   0  0  0  0  0  0  0  0  0  0  0  0
    4.9160    0.7260   21.0430 C   0  0  0  0  0  0  0  0  0  0  0  0
    5.0160   -0.0280   19.9730 C   0  0  0  0  0  0  0  0  0  0  0  0
    6.2660    0.2770   20.5220 C   0  0  0  0  0  0  0  0  0  0  0  0
    7.6850    0.3910   20.6420 N   0  0  0  0  0  0  0  0  0  0  0  0
    8.4770   -0.5070   21.3770 C   0  0  0  0  0  0  0  0  0  0  0  0
    8.7420   -1.6960   20.8610 O   0  0  0  0  0  0  0  0  0  0  0  0
    8.9210   -0.1360   22.5730 N   0  0  0  0  0  0  0  0  0  0  0  0
   10.2650   -0.1360   22.7040 C   0  0  0  0  0  0  0  0  0  0  0  0
   10.9550    1.1130   22.9040 C   0  0  0  0  0  0  0  0  0  0  0  0
   12.4200    1.1640   23.0620 C   0  0  0  0  0  0  0  0  0  0  0  0
   13.2810    0.1000   23.0410 C   0  0  0  0  0  0  0  0  0  0  0  0
   12.3050   -0.9210   22.8290 N   0  0  0  0  0  0  0  0  0  0  0  0
   10.9320   -1.3650   22.6380 C   0  0  0  0  0  0  0  0  0  0  0  0
    6.3940    0.0110   19.2280 C   0  0  0  0  0  0  0  0  0  0  0  0
    6.8920   -1.0670   18.5930 O   0  0  0  0  0  0  0  0  0  0  0  0
    2.7380    3.2250   18.4270 N   0  0  0  0  0  0  0  0  0  0  0  0
  1  2  1  0
  2  3  1  0
  3  4  2  0
  4  5  1  0
  5  6  2  0
  6  7  1  0
  7  8  1  0
  8  9  1  0
  9 10  1  0
 10 11  2  0
 11 12  1  0
 12 13  2  0
 13 14  1  0
 14 15  1  0
 15 16  2  0
 15 17  1  0
 17 18  1  0
 18 19  2  0
 19 20  1  0
 20 21  2  0
 21 22  1  0
 18 23  1  0
 22 23  2  0
  9 24  1  0
 13 24  1  0
 24 25  2  0
  3 26  1  0
  7 26  2  0
M  END
