pyridine_urea_9130
     RDKit          3D

 19 20  0  0  0  0  0  0  0  0999 V2000
   10.3050   -2.3910   21.7000 C   0  0  0  0  0  0  0  0  0  0  0  0
   11.0960   -2.2380   22.7820 N   0  0  0  0  0  0  0  0  0  0  0  0
   10.6790   -2.8180   24.0200 C   0  0  0  0  0  0  0  0  0  0  0  0
   11.4650   -0.9510   22.8210 C   0  0  0  0  0  0  0  0  0  0  0  0
   12.7610   -0.5690   22.9330 C   0  0  0  0  0  0  0  0  0  0  0  0
   13.0940    0.7550   22.9770 C   0  0  0  0  0  0  0  0  0  0  0  0
   12.0660    1.7050   22.9150 C   0  0  0  0  0  0  0  0  0  0  0  0
   10.7290    1.3070   22.7940 C   0  0  0  0  0  0  0  0  0  0  0  0
   10.4250   -0.0350   22.7380 C   0  0  0  0  0  0  0  0  0  0  0  0
    9.0880   -0.3390   22.5870 N   0  0  0  0  0  0  0  0  0  0  0  0
    8.3520    0.2380   21.5540 C   0  0  0  0  0  0  0  0  0  0  0  0
    8.6790    1.3380   21.0900 O   0  0  0  0  0  0  0  0  0  0  0  0
    7.2950   -0.5080   21.1570 N   0  0  0  0  0  0  0  0  0  0  0  0
    6.6020    0.0560   20.1370 C   0  0  0  0  0  0  0  0  0  0  0  0
    5.4340    0.7840   20.4430 C   0  0  0  0  0  0  0  0  0  0  0  0
    4.7240    1.3930   19.2800 C   0  0  0  0  0  0  0  0  0  0  0  0
    5.1690    1.2610   18.0050 C   0  0  0  0  0  0  0  0  0  0  0  0
    6.2940    0.5480   17.7370 N   0  0  0  0  0  0  0  0  0  0  0  0
    6.9570   -0.0220   18.7930 C   0  0  0  0  0  0  0  0  0  0  0  0
  1  2  1  0
  2  3  1  0
  2  4  1  0
  4  5  2  0
  5  6  1  0
  6  7  2  0
  7  8  1  0
  4  9  1  0
  8  9  2  0
  9 10  1  0
 10 11  1  0
 11 12  2  0
 11 13  1  0
 13 14  1  0
 14 15  2  0
 15 16  1  0
 16 17  2  0
 17 18  1  0
 14 19  1  0
 18 19  2  0
M  END
