pyridine_urea_10865
     RDKit          3D

 20 21  0  0  0  0  0  0  0  0999 V2000
   10.6550   -3.1380   22.7300 O   0  0  0  0  0  0  0  0  0  0  0  0
    9.7900   -2.3240   22.8520 C   0  0  0  0  0  0  0  0  0  0  0  0
   10.0860   -0.8970   22.5980 C   0  0  0  0  0  0  0  0  0  0  0  0
    8.8890   -0.1280   22.7460 N   0  0  0  0  0  0  0  0  0  0  0  0
    8.3830    0.4320   21.6120 C   0  0  0  0  0  0  0  0  0  0  0  0
    8.8880    1.4530   21.1520 O   0  0  0  0  0  0  0  0  0  0  0  0
    7.3070   -0.2460   21.1010 N   0  0  0  0  0  0  0  0  0  0  0  0
    6.5320    0.2970   19.9840 C   0  0  0  0  0  0  0  0  0  0  0  0
    5.3920    1.0220   20.3280 C   0  0  0  0  0  0  0  0  0  0  0  0
    4.5320    1.6480   19.2810 C   0  0  0  0  0  0  0  0  0  0  0  0
    5.1340    1.3370   17.9240 C   0  0  0  0  0  0  0  0  0  0  0  0
    6.2300    0.6250   17.6330 N   0  0  0  0  0  0  0  0  0  0  0  0
    6.9050    0.1180   18.6750 C   0  0  0  0  0  0  0  0  0  0  0  0
    8.4800   -2.5640   23.2290 N   0  0  0  0  0  0  0  0  0  0  0  0
    8.0280   -3.7350   23.8720 C   0  0  0  0  0  0  0  0  0  0  0  0
    6.6460   -3.8660   24.0390 C   0  0  0  0  0  0  0  0  0  0  0  0
    6.3140   -5.0650   24.6560 C   0  0  0  0  0  0  0  0  0  0  0  0
    6.8560   -5.0920   25.9310 C   0  0  0  0  0  0  0  0  0  0  0  0
    8.2390   -5.0520   25.8510 C   0  0  0  0  0  0  0  0  0  0  0  0
    8.6960   -3.9850   25.0800 C   0  0  0  0  0  0  0  0  0  0  0  0
  1  2  2  0
  2  3  1  0
  3  4  1  0
  4  5  1  0
  5  6  2  0
  5  7  1  0
  7  8  1  0
  8  9  2  0
  9 10  1  0
 10 11  2  0
 11 12  1  0
  8 13  1  0
 12 13  2  0
  2 14  1  0
 14 15  1  0
 15 16  1  0
 16 17  1  0
 17 18  1  0
 18 19  1  0
 15 20  1  0
 19 20  1  0
M  END
