pyridine_urea_6506
     RDKit          3D

 22 23  0  0  0  0  0  0  0  0999 V2000
    8.7300    0.7560   21.1690 O   0  0  0  0  0  0  0  0  0  0  0  0
    8.3690   -0.3510   21.5280 C   0  0  0  0  0  0  0  0  0  0  0  0
    7.2120   -0.9160   21.0600 N   0  0  0  0  0  0  0  0  0  0  0  0
    6.4360   -0.1880   20.1330 C   0  0  0  0  0  0  0  0  0  0  0  0
    5.1130    0.5290   20.4540 C   0  0  0  0  0  0  0  0  0  0  0  0
    4.4890    1.2680   19.2660 C   0  0  0  0  0  0  0  0  0  0  0  0
    5.2140    1.2150   17.9600 C   0  0  0  0  0  0  0  0  0  0  0  0
    6.3670    0.5510   17.7900 N   0  0  0  0  0  0  0  0  0  0  0  0
    6.9240   -0.1070   18.8320 C   0  0  0  0  0  0  0  0  0  0  0  0
    9.1300   -1.0780   22.4310 N   0  0  0  0  0  0  0  0  0  0  0  0
   10.4140   -0.4660   22.6550 C   0  0  0  0  0  0  0  0  0  0  0  0
   11.6140   -1.1620   22.7960 C   0  0  0  0  0  0  0  0  0  0  0  0
   12.8050   -0.4590   22.9810 C   0  0  0  0  0  0  0  0  0  0  0  0
   12.7930    0.9380   23.0150 C   0  0  0  0  0  0  0  0  0  0  0  0
   11.5530    1.5940   22.8670 C   0  0  0  0  0  0  0  0  0  0  0  0
   11.0910    3.2590   22.8030 S   0  0  0  0  0  0  0  0  0  0  0  0
   11.8710    4.5560   21.5650 F   0  0  0  0  0  0  0  0  0  0  0  0
   10.0050    3.4180   21.8350 F   0  0  0  0  0  0  0  0  0  0  0  0
   12.9710    4.0440   23.2110 F   0  0  0  0  0  0  0  0  0  0  0  0
    9.6420    3.9940   23.7950 F   0  0  0  0  0  0  0  0  0  0  0  0
   11.3560    4.4480   24.6610 F   0  0  0  0  0  0  0  0  0  0  0  0
   10.3400    0.9130   22.6970 C   0  0  0  0  0  0  0  0  0  0  0  0
  1  2  2  0
  2  3  1  0
  3  4  1  0
  4  5  2  0
  5  6  1  0
  6  7  2  0
  7  8  1  0
  4  9  1  0
  8  9  2  0
  2 10  1  0
 10 11  1  0
 11 12  2  0
 12 13  1  0
 13 14  2  0
 14 15  1  0
 15 16  1  0
 16 17  1  0
 16 18  1  0
 16 19  1  0
 16 20  1  0
 16 21  1  0
 11 22  1  0
 15 22  2  0
M  END
