pyridine_urea_8613
     RDKit          3D

 21 22  0  0  0  0  0  0  0  0999 V2000
    9.3760   -1.3360   21.4330 C   0  0  0  0  0  0  0  0  0  0  0  0
    8.8440   -0.0160   21.3110 O   0  0  0  0  0  0  0  0  0  0  0  0
    9.5720    1.0520   21.7700 C   0  0  0  0  0  0  0  0  0  0  0  0
    9.2680    2.1950   21.4050 O   0  0  0  0  0  0  0  0  0  0  0  0
   10.6640    0.8650   22.6010 C   0  0  0  0  0  0  0  0  0  0  0  0
   10.9050   -0.4480   22.9640 C   0  0  0  0  0  0  0  0  0  0  0  0
    9.8180   -0.9710   23.6340 C   0  0  0  0  0  0  0  0  0  0  0  0
    8.5420   -1.1060   22.9870 N   0  0  0  0  0  0  0  0  0  0  0  0
    7.8360   -0.2190   22.1460 C   0  0  0  0  0  0  0  0  0  0  0  0
    7.8540    1.0030   22.1610 O   0  0  0  0  0  0  0  0  0  0  0  0
    7.0270   -0.8270   21.1860 N   0  0  0  0  0  0  0  0  0  0  0  0
    6.3640   -0.1130   20.1580 C   0  0  0  0  0  0  0  0  0  0  0  0
    5.0550    0.6780   20.3150 C   0  0  0  0  0  0  0  0  0  0  0  0
    4.5870    1.3160   19.1740 C   0  0  0  0  0  0  0  0  0  0  0  0
    5.2520    1.2480   17.9720 C   0  0  0  0  0  0  0  0  0  0  0  0
    6.3960    0.5640   17.7860 N   0  0  0  0  0  0  0  0  0  0  0  0
    6.9000   -0.0820   18.8690 C   0  0  0  0  0  0  0  0  0  0  0  0
   11.4910   -1.3640   22.0480 C   0  0  0  0  0  0  0  0  0  0  0  0
   12.8910   -1.3670   22.0740 C   0  0  0  0  0  0  0  0  0  0  0  0
   13.2470   -0.7130   23.1960 C   0  0  0  0  0  0  0  0  0  0  0  0
   12.1430   -0.3040   23.8420 C   0  0  0  0  0  0  0  0  0  0  0  0
  1  2  1  0
  2  3  1  0
  3  4  2  0
  3  5  1  0
  6  5  1  0
  6  7  1  0
  7  8  1  0
  8  9  1  0
  9 10  2  0
  9 11  1  0
 11 12  1  0
 12 13  2  0
 13 14  1  0
 14 15  2  0
 15 16  1  0
 12 17  1  0
 16 17  2  0
  6 18  1  0
 18 19  1  0
 19 20  1  0
  6 21  1  0
 20 21  1  0
M  END
