pyridine_urea_5386
     RDKit          3D

 19 20  0  0  0  0  0  0  0  0999 V2000
   11.7180   -2.2670   22.8650 C   0  0  0  0  0  0  0  0  0  0  0  0
   12.7090   -1.1460   22.6110 C   0  0  0  0  0  0  0  0  0  0  0  0
   13.2890    0.2380   22.6640 C   0  0  0  0  0  0  0  0  0  0  0  0
   12.6490    1.1380   23.2750 C   0  0  0  0  0  0  0  0  0  0  0  0
   11.3830    0.7190   23.8750 C   0  0  0  0  0  0  0  0  0  0  0  0
   10.3160   -0.0570   24.2610 C   0  0  2  0  0  0  0  0  0  0  0  0
   10.5910   -0.9920   24.9920 O   0  0  0  0  0  0  0  0  0  0  0  0
    9.6740   -0.7620   23.0650 C   0  0  0  0  0  0  0  0  0  0  0  0
    8.8360   -1.1620   22.3930 N   0  0  0  0  0  0  0  0  0  0  0  0
    8.3090   -0.1270   21.5040 C   0  0  0  0  0  0  0  0  0  0  0  0
    8.9410    1.1440   21.2100 O   0  0  0  0  0  0  0  0  0  0  0  0
    7.0490   -0.6300   21.0110 N   0  0  0  0  0  0  0  0  0  0  0  0
    6.4460    0.0250   19.9830 C   0  0  0  0  0  0  0  0  0  0  0  0
    5.1690    0.7940   20.3490 C   0  0  0  0  0  0  0  0  0  0  0  0
    4.4900    1.5520   19.1960 C   0  0  0  0  0  0  0  0  0  0  0  0
    5.1800    1.4370   17.8440 C   0  0  0  0  0  0  0  0  0  0  0  0
    6.3260    0.6970   17.6820 N   0  0  0  0  0  0  0  0  0  0  0  0
    6.9410    0.0120   18.7070 C   0  0  0  0  0  0  0  0  0  0  0  0
   11.6420   -0.5060   23.3940 O   0  0  0  0  0  0  0  0  0  0  0  0
  1  2  1  0
  2  3  2  0
  3  4  1  0
  4  5  2  0
  5  6  1  0
  6  7  1  1
  6  8  1  0
  8  9  1  0
  9 10  1  0
 10 11  2  0
 10 12  1  0
 12 13  1  0
 13 14  2  0
 14 15  1  0
 15 16  2  0
 16 17  1  0
 13 18  1  0
 17 18  2  0
  2 19  1  0
  5 19  1  0
M  END
