pyridine_urea_2692
     RDKit          3D

 23 24  0  0  0  0  0  0  0  0999 V2000
   12.1500    6.5860   23.2130 C   0  0  0  0  0  0  0  0  0  0  0  0
   12.2820    5.1480   23.7030 C   0  0  0  0  0  0  0  0  0  0  0  0
   12.5250    3.9760   22.3860 S   0  0  0  0  0  0  0  0  0  0  0  0
   11.2150    3.6740   21.8720 O   0  0  0  0  0  0  0  0  0  0  0  0
   13.5520    4.5450   21.5450 O   0  0  0  0  0  0  0  0  0  0  0  0
   13.0190    2.5130   23.1450 N   0  0  0  0  0  0  0  0  0  0  0  0
   12.0350    1.4380   23.1280 C   0  0  0  0  0  0  0  0  0  0  0  0
   10.8210    1.8740   23.5560 C   0  0  0  0  0  0  0  0  0  0  0  0
    9.6520    0.9440   23.5410 C   0  0  0  0  0  0  0  0  0  0  0  0
    9.8380   -0.3370   23.0850 C   0  0  0  0  0  0  0  0  0  0  0  0
    8.7530   -1.1960   22.9680 N   0  0  0  0  0  0  0  0  0  0  0  0
    8.1840   -0.9610   21.6220 C   0  0  0  0  0  0  0  0  0  0  0  0
    8.9150   -0.7500   20.7270 O   0  0  0  0  0  0  0  0  0  0  0  0
    6.8200   -0.9000   21.4200 N   0  0  0  0  0  0  0  0  0  0  0  0
    6.2980   -0.1930   20.2940 C   0  0  0  0  0  0  0  0  0  0  0  0
    5.0310    0.6270   20.5010 C   0  0  0  0  0  0  0  0  0  0  0  0
    4.4780    1.3900   19.2990 C   0  0  0  0  0  0  0  0  0  0  0  0
    5.2800    1.2310   18.0220 C   0  0  0  0  0  0  0  0  0  0  0  0
    6.3910    0.4830   17.9190 N   0  0  0  0  0  0  0  0  0  0  0  0
    6.8640   -0.1900   19.0140 C   0  0  0  0  0  0  0  0  0  0  0  0
   11.1210   -0.7700   22.6900 C   0  0  0  0  0  0  0  0  0  0  0  0
   12.2200    0.0990   22.7140 C   0  0  0  0  0  0  0  0  0  0  0  0
   13.4310   -0.3810   22.3130 C   0  0  0  0  0  0  0  0  0  0  0  0
  1  2  1  0
  2  3  1  0
  3  4  2  0
  3  5  2  0
  3  6  1  0
  6  7  1  0
  7  8  2  0
  8  9  1  0
  9 10  2  0
 10 11  1  0
 11 12  1  0
 12 13  2  0
 12 14  1  0
 14 15  1  0
 15 16  2  0
 16 17  1  0
 17 18  2  0
 18 19  1  0
 15 20  1  0
 19 20  2  0
 10 21  1  0
  7 22  1  0
 21 22  2  0
 22 23  1  0
M  END
