pyridine_urea_11250
     RDKit          3D

 16 17  0  0  0  0  0  0  0  0999 V2000
   13.3910   -0.3840   22.2350 C   0  0  0  0  0  0  0  0  0  0  0  0
   12.6080   -0.2870   23.0840 C   0  0  0  0  0  0  0  0  0  0  0  0
   11.3630   -0.6210   23.8200 C   0  0  1  0  0  0  0  0  0  0  0  0
   10.1200   -0.2020   23.2700 C   0  0  0  0  0  0  0  0  0  0  0  0
    9.7820   -1.4060   22.7070 C   0  0  1  0  0  0  0  0  0  0  0  0
    9.1820   -1.1750   21.4360 N   0  0  0  0  0  0  0  0  0  0  0  0
    8.3750   -0.0930   21.2670 C   0  0  0  0  0  0  0  0  0  0  0  0
    8.7970    1.0530   21.3180 O   0  0  0  0  0  0  0  0  0  0  0  0
    7.0820   -0.4580   21.0140 N   0  0  0  0  0  0  0  0  0  0  0  0
    6.2910    0.1810   20.0590 C   0  0  0  0  0  0  0  0  0  0  0  0
    5.1170    0.7900   20.3900 C   0  0  0  0  0  0  0  0  0  0  0  0
    4.5550    1.3920   19.1130 C   0  0  0  0  0  0  0  0  0  0  0  0
    5.1700    1.3030   17.8810 C   0  0  0  0  0  0  0  0  0  0  0  0
    6.3110    0.6720   17.6930 N   0  0  0  0  0  0  0  0  0  0  0  0
    6.8280    0.1360   18.7800 C   0  0  0  0  0  0  0  0  0  0  0  0
   11.3390   -1.7860   22.8140 C   0  0  0  0  0  0  0  0  0  0  0  0
  1  2  1  0
  3  2  1  6
  3  4  1  0
  4  5  1  0
  5  6  1  6
  6  7  1  0
  7  8  2  0
  7  9  1  0
  9 10  1  0
 10 11  2  0
 11 12  1  0
 12 13  2  0
 13 14  1  0
 10 15  1  0
 14 15  2  0
  3 16  1  0
  5 16  1  0
M  END
