pyridine_urea_6534
     RDKit          3D

 22 23  0  0  0  0  0  0  0  0999 V2000
    5.4270   -5.4720   26.0480 C   0  0  0  0  0  0  0  0  0  0  0  0
    5.7300   -4.0160   25.6200 C   0  0  0  0  0  0  0  0  0  0  0  0
    6.4850   -3.9740   24.3930 O   0  0  0  0  0  0  0  0  0  0  0  0
    7.2990   -2.8810   24.2150 C   0  0  0  0  0  0  0  0  0  0  0  0
    7.1100   -1.8120   24.7860 O   0  0  0  0  0  0  0  0  0  0  0  0
    8.4530   -3.1790   23.2300 C   0  0  0  0  0  0  0  0  0  0  0  0
    9.2970   -2.0290   22.7120 C   0  0  1  0  0  0  0  0  0  0  0  0
    9.0220   -0.5860   22.8010 N   0  0  0  0  0  0  0  0  0  0  0  0
    8.4910    0.1280   21.7090 C   0  0  0  0  0  0  0  0  0  0  0  0
    9.0560    1.4000   21.2460 O   0  0  0  0  0  0  0  0  0  0  0  0
    7.3220   -0.5390   21.1300 N   0  0  0  0  0  0  0  0  0  0  0  0
    6.6110    0.0510   20.1020 C   0  0  0  0  0  0  0  0  0  0  0  0
    5.4590    0.7980   20.4240 C   0  0  0  0  0  0  0  0  0  0  0  0
    4.7500    1.4000   19.3870 C   0  0  0  0  0  0  0  0  0  0  0  0
    5.1890    1.2510   18.0880 C   0  0  0  0  0  0  0  0  0  0  0  0
    6.2740    0.5410   17.7620 N   0  0  0  0  0  0  0  0  0  0  0  0
    6.9600   -0.0430   18.7690 C   0  0  0  0  0  0  0  0  0  0  0  0
   10.7200   -2.0420   23.0190 C   0  0  0  0  0  0  0  0  0  0  0  0
   11.0540   -2.1340   24.3390 N   0  0  0  0  0  0  0  0  0  0  0  0
   12.3840   -2.1390   24.4040 C   0  0  0  0  0  0  0  0  0  0  0  0
   13.0440   -2.0580   23.2400 C   0  0  0  0  0  0  0  0  0  0  0  0
   12.0440   -1.9590   21.8660 S   0  0  0  0  0  0  0  0  0  0  0  0
  1  2  1  0
  2  3  1  0
  3  4  1  0
  4  5  2  0
  4  6  1  0
  7  6  1  1
  7  8  1  0
  8  9  1  0
  9 10  2  0
  9 11  1  0
 11 12  1  0
 12 13  2  0
 13 14  1  0
 14 15  2  0
 15 16  1  0
 12 17  1  0
 16 17  2  0
  7 18  1  0
 18 19  2  0
 19 20  1  0
 20 21  2  0
 18 22  1  0
 21 22  1  0
M  END
