pyridine_urea_1272
     RDKit          3D

 20 22  0  0  0  0  0  0  0  0999 V2000
    8.4790    1.4810   20.9280 O   0  0  0  0  0  0  0  0  0  0  0  0
    8.4310    0.3240   21.3390 C   0  0  0  0  0  0  0  0  0  0  0  0
    7.3490   -0.4690   21.0780 N   0  0  0  0  0  0  0  0  0  0  0  0
    6.6340    0.0610   19.9640 C   0  0  0  0  0  0  0  0  0  0  0  0
    5.3910    0.8990   20.2970 C   0  0  0  0  0  0  0  0  0  0  0  0
    4.6550    1.4830   19.2770 C   0  0  0  0  0  0  0  0  0  0  0  0
    5.0910    1.2780   17.9740 C   0  0  0  0  0  0  0  0  0  0  0  0
    6.1970    0.5140   17.7190 N   0  0  0  0  0  0  0  0  0  0  0  0
    6.9820   -0.1050   18.6880 C   0  0  0  0  0  0  0  0  0  0  0  0
    9.4180   -0.2520   22.0500 N   0  0  0  0  0  0  0  0  0  0  0  0
   10.4670   -0.6720   22.7550 C   0  0  1  0  0  0  0  0  0  0  0  0
   10.1620   -1.4180   23.8190 C   0  0  0  0  0  0  0  0  0  0  0  0
   10.1420   -2.7800   23.7000 C   0  0  0  0  0  0  0  0  0  0  0  0
   11.3370   -2.9800   24.2610 C   0  0  0  0  0  0  0  0  0  0  0  0
   11.4360   -1.6580   24.7340 C   0  0  0  0  0  0  0  0  0  0  0  0
   11.6190   -1.1380   22.1400 C   0  0  1  0  0  0  0  0  0  0  0  0
   12.7330   -0.3130   22.2770 C   0  0  0  0  0  0  0  0  0  0  0  0
   13.0740   -0.6800   23.5530 C   0  0  0  0  0  0  0  0  0  0  0  0
   12.8840   -1.9950   23.3800 C   0  0  0  0  0  0  0  0  0  0  0  0
   12.0080   -2.2430   22.5780 O   0  0  0  0  0  0  0  0  0  0  0  0
  1  2  2  0
  2  3  1  0
  3  4  1  0
  4  5  2  0
  5  6  1  0
  6  7  2  0
  7  8  1  0
  4  9  1  0
  8  9  2  0
  2 10  1  0
 11 10  1  6
 11 12  1  0
 12 13  1  0
 13 14  1  0
 12 15  1  0
 14 15  1  0
 11 16  1  0
 16 17  1  1
 17 18  1  0
 18 19  1  0
 16 20  1  0
 19 20  1  0
M  END
