pyridine_urea_1478
     RDKit          3D

 19 20  0  0  0  0  0  0  0  0999 V2000
   13.4390   -2.9310   25.0520 C   0  0  0  0  0  0  0  0  0  0  0  0
   13.3140   -1.4380   24.7250 C   0  0  0  0  0  0  0  0  0  0  0  0
   12.0660   -1.1430   23.9750 C   0  0  1  0  0  0  0  0  0  0  0  0
   11.3600   -2.3510   24.2500 O   0  0  0  0  0  0  0  0  0  0  0  0
   11.4390   -0.0160   24.4340 C   0  0  0  0  0  0  0  0  0  0  0  0
   10.1950    0.1620   23.8810 C   0  0  0  0  0  0  0  0  0  0  0  0
    9.7880   -0.9530   23.1670 C   0  0  1  0  0  0  0  0  0  0  0  0
    8.5130   -0.8240   22.4880 N   0  0  0  0  0  0  0  0  0  0  0  0
    8.2670    0.0730   21.4930 C   0  0  0  0  0  0  0  0  0  0  0  0
    8.9090    1.0990   21.2150 O   0  0  0  0  0  0  0  0  0  0  0  0
    7.1550   -0.3720   20.8710 N   0  0  0  0  0  0  0  0  0  0  0  0
    6.4240    0.2470   19.9410 C   0  0  0  0  0  0  0  0  0  0  0  0
    5.2660    0.9550   20.1590 C   0  0  0  0  0  0  0  0  0  0  0  0
    4.5970    1.5750   19.1190 C   0  0  0  0  0  0  0  0  0  0  0  0
    5.1530    1.4470   17.8430 C   0  0  0  0  0  0  0  0  0  0  0  0
    6.2770    0.7490   17.6050 N   0  0  0  0  0  0  0  0  0  0  0  0
    6.8760    0.1740   18.6520 C   0  0  0  0  0  0  0  0  0  0  0  0
   10.8500   -1.3380   22.1150 C   0  0  0  0  0  0  0  0  0  0  0  0
   12.1480   -1.0990   22.5960 C   0  0  0  0  0  0  0  0  0  0  0  0
  1  2  1  0
  2  3  1  0
  3  4  1  6
  3  5  1  0
  5  6  1  0
  6  7  1  0
  7  8  1  6
  8  9  1  0
  9 10  2  0
  9 11  1  0
 11 12  1  0
 12 13  2  0
 13 14  1  0
 14 15  2  0
 15 16  1  0
 12 17  1  0
 16 17  2  0
  7 18  1  0
  3 19  1  0
 18 19  1  0
M  END
