pyridine_urea_8331
     RDKit          3D

 23 24  0  0  0  0  0  0  0  0999 V2000
   10.6410   -1.5690   21.9770 C   0  0  0  0  0  0  0  0  0  0  0  0
    9.9610   -1.0510   23.2380 C   0  0  2  0  0  0  0  0  0  0  0  0
    8.5320   -1.0190   22.9960 N   0  0  0  0  0  0  0  0  0  0  0  0
    8.2260   -0.3040   21.7390 C   0  0  0  0  0  0  0  0  0  0  0  0
    8.8720    0.6530   21.3330 O   0  0  0  0  0  0  0  0  0  0  0  0
    7.0180   -0.9250   21.0940 N   0  0  0  0  0  0  0  0  0  0  0  0
    6.4120   -0.1410   20.0200 C   0  0  0  0  0  0  0  0  0  0  0  0
    5.1270    0.6680   20.2810 C   0  0  0  0  0  0  0  0  0  0  0  0
    4.5810    1.4080   19.2360 C   0  0  0  0  0  0  0  0  0  0  0  0
    5.2480    1.4110   17.8760 C   0  0  0  0  0  0  0  0  0  0  0  0
    6.3950    0.6650   17.7030 N   0  0  0  0  0  0  0  0  0  0  0  0
    6.9590   -0.0920   18.7460 C   0  0  0  0  0  0  0  0  0  0  0  0
   10.3640    0.3820   23.5420 C   0  0  0  0  0  0  0  0  0  0  0  0
    9.7570    1.5440   23.7390 C   0  0  0  0  0  0  0  0  0  0  0  0
   11.1640    2.0200   23.9000 C   0  0  0  0  0  0  0  0  0  0  0  0
   11.3860    0.3270   23.5920 C   0  0  0  0  0  0  0  0  0  0  0  0
   11.8700   -0.7740   23.4100 O   0  0  0  0  0  0  0  0  0  0  0  0
   13.1130   -0.7470   22.7150 C   0  0  0  0  0  0  0  0  0  0  0  0
   13.2670   -2.0100   22.1920 C   0  0  0  0  0  0  0  0  0  0  0  0
   12.9920   -2.2750   20.9150 N   0  0  0  0  0  0  0  0  0  0  0  0
   13.7270   -2.8870   23.2170 O   0  0  0  0  0  0  0  0  0  0  0  0
   12.8110    0.7260   23.7300 C   0  0  0  0  0  0  0  0  0  0  0  0
   11.6120    1.1630   23.7570 C   0  0  0  0  0  0  0  0  0  0  0  0
  2  1  1  6
  2  3  1  0
  3  4  1  0
  4  5  2  0
  4  6  1  0
  6  7  1  0
  7  8  2  0
  8  9  1  0
  9 10  2  0
 10 11  1  0
  7 12  1  0
 11 12  2  0
  2 13  1  0
 13 14  2  0
 14 15  1  0
 15 16  2  0
 16 17  1  0
 17 18  1  0
 18 19  1  0
 19 20  1  0
 19 21  2  0
 16 22  1  0
 13 23  1  0
 22 23  2  0
M  END
