pyridine_urea_10293
     RDKit          3D

 21 22  0  0  0  0  0  0  0  0999 V2000
    8.3610    0.1930   28.9750 C   0  0  0  0  0  0  0  0  0  0  0  0
    7.6690    0.9320   28.2770 O   0  0  0  0  0  0  0  0  0  0  0  0
    7.2950    0.4840   27.0300 C   0  0  0  0  0  0  0  0  0  0  0  0
    6.1310    0.2580   26.7140 O   0  0  0  0  0  0  0  0  0  0  0  0
    8.3600    0.3060   26.1460 C   0  0  0  0  0  0  0  0  0  0  0  0
    9.5880   -0.1040   26.6320 C   0  0  0  0  0  0  0  0  0  0  0  0
   10.5350   -0.2240   25.5340 N   0  0  0  0  0  0  0  0  0  0  0  0
    9.9930    0.1140   24.3280 C   0  0  0  0  0  0  0  0  0  0  0  0
   10.7680    0.0790   23.1820 C   0  0  0  0  0  0  0  0  0  0  0  0
   10.5120   -1.2390   22.4370 C   0  0  0  0  0  0  0  0  0  0  0  0
    9.0650   -1.4770   22.2720 N   0  0  0  0  0  0  0  0  0  0  0  0
    8.4310   -0.4000   21.5290 C   0  0  0  0  0  0  0  0  0  0  0  0
    8.9450    0.6980   21.3710 O   0  0  0  0  0  0  0  0  0  0  0  0
    7.2010   -0.7060   21.0150 N   0  0  0  0  0  0  0  0  0  0  0  0
    6.4650   -0.0040   20.0550 C   0  0  0  0  0  0  0  0  0  0  0  0
    5.2740    0.7080   20.2650 C   0  0  0  0  0  0  0  0  0  0  0  0
    4.5840    1.4080   19.2670 C   0  0  0  0  0  0  0  0  0  0  0  0
    5.1670    1.3840   17.9100 C   0  0  0  0  0  0  0  0  0  0  0  0
    6.3520    0.6620   17.7260 N   0  0  0  0  0  0  0  0  0  0  0  0
    6.9520    0.0050   18.7600 C   0  0  0  0  0  0  0  0  0  0  0  0
    8.2570    0.5660   24.4400 S   0  0  0  0  0  0  0  0  0  0  0  0
  1  2  1  0
  2  3  1  0
  3  4  2  0
  3  5  1  0
  5  6  2  0
  6  7  1  0
  7  8  2  0
  8  9  1  0
  9 10  1  0
 10 11  1  0
 11 12  1  0
 12 13  2  0
 12 14  1  0
 14 15  1  0
 15 16  2  0
 16 17  1  0
 17 18  2  0
 18 19  1  0
 15 20  1  0
 19 20  2  0
  5 21  1  0
  8 21  1  0
M  END
