pyridine_urea_11169
     RDKit          3D

 17 18  0  0  0  0  0  0  0  0999 V2000
    8.8280    0.8080   21.4340 O   0  0  0  0  0  0  0  0  0  0  0  0
    8.3760   -0.3250   21.3550 C   0  0  0  0  0  0  0  0  0  0  0  0
    9.1170   -1.4610   21.5720 N   0  0  0  0  0  0  0  0  0  0  0  0
    9.9480   -1.5840   22.7510 C   0  0  0  0  0  0  0  0  0  0  0  0
   11.0120   -0.5110   22.7990 C   0  0  0  0  0  0  0  0  0  0  0  0
   12.4620   -0.7950   22.8310 C   0  0  0  0  0  0  0  0  0  0  0  0
   13.3090    0.6560   22.8830 S   0  0  0  0  0  0  0  0  0  0  0  0
   11.7850    1.6750   22.8530 C   0  0  0  0  0  0  0  0  0  0  0  0
   11.7980    3.4070   22.8700 Cl  0  0  0  0  0  0  0  0  0  0  0  0
   10.6680    0.9090   22.8160 N   0  0  0  0  0  0  0  0  0  0  0  0
    7.0660   -0.5900   21.0020 N   0  0  0  0  0  0  0  0  0  0  0  0
    6.4440    0.0210   20.0380 C   0  0  0  0  0  0  0  0  0  0  0  0
    5.1860    0.7840   20.2580 C   0  0  0  0  0  0  0  0  0  0  0  0
    4.4970    1.4510   19.2870 C   0  0  0  0  0  0  0  0  0  0  0  0
    5.2240    1.2840   17.9710 C   0  0  0  0  0  0  0  0  0  0  0  0
    6.3540    0.5990   17.7510 N   0  0  0  0  0  0  0  0  0  0  0  0
    6.9350   -0.0140   18.7730 C   0  0  0  0  0  0  0  0  0  0  0  0
  1  2  2  0
  2  3  1  0
  3  4  1  0
  4  5  1  0
  5  6  2  0
  6  7  1  0
  7  8  1  0
  8  9  1  0
  5 10  1  0
  8 10  2  0
  2 11  1  0
 11 12  1  0
 12 13  2  0
 13 14  1  0
 14 15  2  0
 15 16  1  0
 12 17  1  0
 16 17  2  0
M  END
