pyridine_urea_13924
     RDKit          3D

 24 26  0  0  0  0  0  0  0  0999 V2000
    9.4030    0.8470   23.4750 C   0  0  0  0  0  0  0  0  0  0  0  0
   10.0920   -0.1040   23.1440 C   0  0  1  0  0  0  0  0  0  0  0  0
    9.5500   -0.7030   21.9180 N   0  0  0  0  0  0  0  0  0  0  0  0
    8.5470    0.1430   21.3250 C   0  0  0  0  0  0  0  0  0  0  0  0
    8.7950    1.5300   21.0780 O   0  0  0  0  0  0  0  0  0  0  0  0
    7.3180   -0.5170   20.9970 N   0  0  0  0  0  0  0  0  0  0  0  0
    6.6220    0.0310   19.9970 C   0  0  0  0  0  0  0  0  0  0  0  0
    5.5080    0.7350   20.3560 C   0  0  0  0  0  0  0  0  0  0  0  0
    4.6300    1.4580   19.3390 C   0  0  0  0  0  0  0  0  0  0  0  0
    5.0620    1.3470   17.9350 C   0  0  0  0  0  0  0  0  0  0  0  0
    6.1920    0.5980   17.6940 N   0  0  0  0  0  0  0  0  0  0  0  0
    6.9630   -0.0490   18.6730 C   0  0  0  0  0  0  0  0  0  0  0  0
   11.5900    0.3610   22.9650 C   0  0  0  0  0  0  0  0  0  0  0  0
   11.5880    1.6010   22.9160 C   0  0  0  0  0  0  0  0  0  0  0  0
   12.8450    1.3850   22.8350 C   0  0  0  0  0  0  0  0  0  0  0  0
   12.0290    0.0270   22.9260 C   0  0  0  0  0  0  0  0  0  0  0  0
   10.5090    0.1490   22.9860 C   0  0  0  0  0  0  0  0  0  0  0  0
   11.6940   -0.1640   23.8550 C   0  0  0  0  0  0  0  0  0  0  0  0
   11.6000   -0.4700   25.2760 C   0  0  0  0  0  0  0  0  0  0  0  0
   10.3660   -0.4670   25.9100 C   0  0  0  0  0  0  0  0  0  0  0  0
    9.2630   -0.2010   25.1720 C   0  0  0  0  0  0  0  0  0  0  0  0
    9.3160    0.0820   23.8110 C   0  0  0  0  0  0  0  0  0  0  0  0
   12.7320   -1.2810   22.9340 C   0  0  0  0  0  0  0  0  0  0  0  0
   12.9760   -0.1160   22.8610 C   0  0  0  0  0  0  0  0  0  0  0  0
  2  1  1  6
  2  3  1  0
  3  4  1  0
  4  5  2  0
  4  6  1  0
  6  7  1  0
  7  8  2  0
  8  9  1  0
  9 10  2  0
 10 11  1  0
  7 12  1  0
 11 12  2  0
  2 13  1  0
 13 14  2  0
 14 15  1  0
 15 16  2  0
 16 17  1  0
 17 18  2  0
 18 19  1  0
 19 20  2  0
 20 21  1  0
 17 22  1  0
 21 22  2  0
 16 23  1  0
 13 24  1  0
 23 24  2  0
M  END
