pyridine_urea_7872
     RDKit          3D

 29 32  0  0  0  0  0  0  0  0999 V2000
    9.2350    0.6710   21.3100 O   0  0  0  0  0  0  0  0  0  0  0  0
    8.8040   -0.4560   21.4740 C   0  0  0  0  0  0  0  0  0  0  0  0
    9.4420   -1.5180   22.1260 N   0  0  0  0  0  0  0  0  0  0  0  0
   10.6870   -2.2310   21.9060 C   0  0  0  0  0  0  0  0  0  0  0  0
   12.0040   -1.6790   21.9090 C   0  0  0  0  0  0  0  0  0  0  0  0
   12.0900   -0.4890   22.5730 C   0  0  0  0  0  0  0  0  0  0  0  0
   13.0220    0.5230   22.6790 C   0  0  0  0  0  0  0  0  0  0  0  0
   12.5220    1.5170   23.4860 N   0  0  0  0  0  0  0  0  0  0  0  0
   11.2880    1.1180   23.9020 C   0  0  0  0  0  0  0  0  0  0  0  0
   10.0510    1.3000   24.6280 C   0  0  0  0  0  0  0  0  0  0  0  0
    8.9040    0.1000   24.5800 C   0  0  0  0  0  0  0  0  0  0  0  0
    9.0460   -1.1510   23.8230 C   0  0  0  0  0  0  0  0  0  0  0  0
    9.9200   -0.2780   23.8700 C   0  0  0  0  0  0  0  0  0  0  0  0
    9.5200    0.5380   24.6290 O   0  0  0  0  0  0  0  0  0  0  0  0
    9.6350   -0.1100   25.8960 C   0  0  0  0  0  0  0  0  0  0  0  0
    8.8210   -1.1980   26.2520 C   0  0  0  0  0  0  0  0  0  0  0  0
    8.3270   -1.2170   27.5600 C   0  0  0  0  0  0  0  0  0  0  0  0
    7.5250   -2.2620   28.0020 C   0  0  0  0  0  0  0  0  0  0  0  0
    7.2060   -3.3070   27.1380 C   0  0  0  0  0  0  0  0  0  0  0  0
    7.6850   -3.3050   25.8330 C   0  0  0  0  0  0  0  0  0  0  0  0
    8.4880   -2.2590   25.3860 C   0  0  0  0  0  0  0  0  0  0  0  0
   11.0760   -0.1290   23.3300 C   0  0  0  0  0  0  0  0  0  0  0  0
    7.5240   -0.7980   21.0300 N   0  0  0  0  0  0  0  0  0  0  0  0
    6.7750   -0.1460   20.0930 C   0  0  0  0  0  0  0  0  0  0  0  0
    5.6620    0.6050   20.4690 C   0  0  0  0  0  0  0  0  0  0  0  0
    4.8720    1.2950   19.5350 C   0  0  0  0  0  0  0  0  0  0  0  0
    5.2020    1.2330   18.1870 C   0  0  0  0  0  0  0  0  0  0  0  0
    6.2520    0.5300   17.7410 N   0  0  0  0  0  0  0  0  0  0  0  0
    7.0360   -0.1650   18.7420 C   0  0  0  0  0  0  0  0  0  0  0  0
  1  2  2  0
  2  3  1  0
  3  4  1  0
  4  5  1  0
  5  6  1  0
  6  7  2  0
  7  8  1  0
  8  9  1  0
  9 10  1  0
 10 11  2  0
 11 12  1  0
 12 13  2  0
 13 14  1  0
 14 15  1  0
 15 16  1  0
 16 17  2  0
 17 18  1  0
 18 19  2  0
 19 20  1  0
 16 21  1  0
 20 21  2  0
  6 22  1  0
  9 22  2  0
 13 22  1  0
  2 23  1  0
 23 24  1  0
 24 25  2  0
 25 26  1  0
 26 27  2  0
 27 28  1  0
 24 29  1  0
 28 29  2  0
M  END
