pyridine_urea_11495
     RDKit          3D

 19 21  0  0  0  0  0  0  0  0999 V2000
   10.2140    1.0770   22.4460 C   0  0  0  0  0  0  0  0  0  0  0  0
   10.2630   -0.3400   22.9260 C   0  0  1  0  0  0  0  0  0  0  0  0
    8.9130   -0.8120   22.6620 N   0  0  0  0  0  0  0  0  0  0  0  0
    8.2430   -0.1240   21.6620 C   0  0  0  0  0  0  0  0  0  0  0  0
    8.6190    0.9750   21.2780 O   0  0  0  0  0  0  0  0  0  0  0  0
    7.1370   -0.7330   21.1400 N   0  0  0  0  0  0  0  0  0  0  0  0
    6.4740   -0.0890   20.0840 C   0  0  0  0  0  0  0  0  0  0  0  0
    5.3000    0.6080   20.3140 C   0  0  0  0  0  0  0  0  0  0  0  0
    4.6480    1.2670   19.2870 C   0  0  0  0  0  0  0  0  0  0  0  0
    5.1740    1.2290   18.0200 C   0  0  0  0  0  0  0  0  0  0  0  0
    6.3060    0.5630   17.7360 N   0  0  0  0  0  0  0  0  0  0  0  0
    6.9260   -0.0800   18.7690 C   0  0  0  0  0  0  0  0  0  0  0  0
   11.1290   -1.2870   22.0970 C   0  0  0  0  0  0  0  0  0  0  0  0
   12.5060   -1.1410   22.2840 C   0  0  2  0  0  0  0  0  0  0  0  0
   12.9300   -2.0060   23.2910 C   0  0  0  0  0  0  0  0  0  0  0  0
   12.6770   -1.4280   24.5190 C   0  0  0  0  0  0  0  0  0  0  0  0
   12.2350   -0.1550   24.3400 C   0  0  2  0  0  0  0  0  0  0  0  0
   10.7530   -0.3910   24.2140 C   0  0  0  0  0  0  0  0  0  0  0  0
   12.8640    0.4180   22.8770 S   0  0  0  0  0  0  0  0  0  0  0  0
  2  1  1  6
  2  3  1  0
  3  4  1  0
  4  5  2  0
  4  6  1  0
  6  7  1  0
  7  8  2  0
  8  9  1  0
  9 10  2  0
 10 11  1  0
  7 12  1  0
 11 12  2  0
  2 13  1  0
 14 13  1  1
 14 15  1  0
 15 16  1  0
 17 16  1  6
  2 18  1  0
 17 18  1  0
 14 19  1  0
 17 19  1  0
M  END
