pyridine_urea_3267
     RDKit          3D

 20 21  0  0  0  0  0  0  0  0999 V2000
    9.8510    0.8130   23.6580 C   0  0  0  0  0  0  0  0  0  0  0  0
   10.0630   -0.6550   23.4170 C   0  0  1  0  0  0  0  0  0  0  0  0
    8.9450   -1.1650   22.6440 N   0  0  0  0  0  0  0  0  0  0  0  0
    8.3950   -0.2020   21.6630 C   0  0  0  0  0  0  0  0  0  0  0  0
    8.9810    0.8650   21.4200 O   0  0  0  0  0  0  0  0  0  0  0  0
    7.2120   -0.6330   21.1160 N   0  0  0  0  0  0  0  0  0  0  0  0
    6.5230    0.0090   20.0800 C   0  0  0  0  0  0  0  0  0  0  0  0
    5.3690    0.7180   20.3610 C   0  0  0  0  0  0  0  0  0  0  0  0
    4.6340    1.4260   19.2430 C   0  0  0  0  0  0  0  0  0  0  0  0
    5.1620    1.3260   17.9680 C   0  0  0  0  0  0  0  0  0  0  0  0
    6.2870    0.6220   17.7250 N   0  0  0  0  0  0  0  0  0  0  0  0
    6.9270   -0.0060   18.7510 C   0  0  0  0  0  0  0  0  0  0  0  0
   11.4110   -1.0490   22.7110 C   0  0  0  0  0  0  0  0  0  0  0  0
   11.5990   -2.0810   22.0190 C   0  0  0  0  0  0  0  0  0  0  0  0
   12.4910   -1.0010   22.3740 C   0  0  0  0  0  0  0  0  0  0  0  0
   11.8780    0.1020   23.2660 C   0  0  0  0  0  0  0  0  0  0  0  0
   11.8660    1.2620   23.9790 F   0  0  0  0  0  0  0  0  0  0  0  0
   13.1110    0.5920   23.1210 C   0  0  0  0  0  0  0  0  0  0  0  0
   12.7280   -0.5210   22.5740 C   0  0  0  0  0  0  0  0  0  0  0  0
   13.6660   -1.1710   21.8440 F   0  0  0  0  0  0  0  0  0  0  0  0
  2  1  1  6
  2  3  1  0
  3  4  1  0
  4  5  2  0
  4  6  1  0
  6  7  1  0
  7  8  2  0
  8  9  1  0
  9 10  2  0
 10 11  1  0
  7 12  1  0
 11 12  2  0
  2 13  1  0
 13 14  2  0
 14 15  1  0
 15 16  2  0
 16 17  1  0
 16 18  1  0
 13 19  1  0
 18 19  2  0
 19 20  1  0
M  END
