pyridine_urea_8772
     RDKit          3D

 21 23  0  0  0  0  0  0  0  0999 V2000
    8.5970    0.9090   21.1510 O   0  0  0  0  0  0  0  0  0  0  0  0
    8.5290   -0.2990   21.3440 C   0  0  0  0  0  0  0  0  0  0  0  0
    9.3050   -0.9920   22.2250 N   0  0  0  0  0  0  0  0  0  0  0  0
   10.5890   -0.5220   22.4640 C   0  0  0  0  0  0  0  0  0  0  0  0
   11.6710   -1.3810   22.3500 C   0  0  0  0  0  0  0  0  0  0  0  0
   12.9510   -0.8900   22.5700 C   0  0  0  0  0  0  0  0  0  0  0  0
   13.0940    0.4420   22.8880 C   0  0  0  0  0  0  0  0  0  0  0  0
   12.0800    1.2980   23.0060 N   0  0  0  0  0  0  0  0  0  0  0  0
   10.8440    0.7960   22.7980 C   0  0  0  0  0  0  0  0  0  0  0  0
    7.6360   -1.0530   20.6400 N   0  0  0  0  0  0  0  0  0  0  0  0
    6.5660   -0.2240   20.1710 C   0  0  0  0  0  0  0  0  0  0  0  0
    5.3680   -0.0230   21.0490 C   0  0  0  0  0  0  0  0  0  0  0  0
    4.3570    0.7730   20.6710 C   0  0  0  0  0  0  0  0  0  0  0  0
    4.3680    1.4230   19.4960 C   0  0  0  0  0  0  0  0  0  0  0  0
    3.2990    2.2120   19.3000 N   0  0  0  0  0  0  0  0  0  0  0  0
    2.1200    2.1570   19.9610 C   0  0  0  0  0  0  0  0  0  0  0  0
    1.3280    3.1590   19.4450 C   0  0  0  0  0  0  0  0  0  0  0  0
    1.9760    3.8360   18.4860 N   0  0  0  0  0  0  0  0  0  0  0  0
    3.2110    3.2150   18.4180 C   0  0  0  0  0  0  0  0  0  0  0  0
    5.4130    1.3060   18.5720 N   0  0  0  0  0  0  0  0  0  0  0  0
    6.5090    0.5110   18.8670 C   0  0  0  0  0  0  0  0  0  0  0  0
  1  2  2  0
  2  3  1  0
  3  4  1  0
  4  5  2  0
  5  6  1  0
  6  7  2  0
  7  8  1  0
  4  9  1  0
  8  9  2  0
  2 10  1  0
 10 11  1  0
 11 12  2  0
 12 13  1  0
 13 14  2  0
 14 15  1  0
 15 16  1  0
 16 17  2  0
 17 18  1  0
 15 19  1  0
 18 19  2  0
 14 20  1  0
 11 21  1  0
 20 21  2  0
M  END
