pyridine_urea_4334
     RDKit          3D

 24 26  0  0  0  0  0  0  0  0999 V2000
   12.8490    1.4600   22.9520 C   0  0  0  0  0  0  0  0  0  0  0  0
   12.6270    0.0050   23.3170 C   0  0  0  0  0  0  0  0  0  0  0  0
   13.0100   -0.5840   24.5880 C   0  0  0  0  0  0  0  0  0  0  0  0
   13.0110   -1.8520   25.3720 C   0  0  0  0  0  0  0  0  0  0  0  0
   12.3610   -2.5160   24.2620 C   0  0  0  0  0  0  0  0  0  0  0  0
   11.9250   -2.0470   22.9370 C   0  0  0  0  0  0  0  0  0  0  0  0
   12.0070   -0.6950   22.2780 C   0  0  0  0  0  0  0  0  0  0  0  0
   11.5190   -1.7040   21.7380 C   0  0  0  0  0  0  0  0  0  0  0  0
   10.1810   -1.9380   22.0730 C   0  0  0  0  0  0  0  0  0  0  0  0
    9.2430   -1.3470   21.1660 N   0  0  0  0  0  0  0  0  0  0  0  0
    8.4940   -0.2290   21.4060 C   0  0  0  0  0  0  0  0  0  0  0  0
    8.9650    0.8400   21.7560 O   0  0  0  0  0  0  0  0  0  0  0  0
    7.1730   -0.5100   21.1450 N   0  0  0  0  0  0  0  0  0  0  0  0
    6.4260    0.1200   20.1390 C   0  0  0  0  0  0  0  0  0  0  0  0
    5.2810    0.8790   20.3670 C   0  0  0  0  0  0  0  0  0  0  0  0
    4.6080    1.5010   19.1970 C   0  0  0  0  0  0  0  0  0  0  0  0
    5.1680    1.2860   17.9460 C   0  0  0  0  0  0  0  0  0  0  0  0
    6.2650    0.5450   17.7440 N   0  0  0  0  0  0  0  0  0  0  0  0
    6.8610   -0.0150   18.8200 C   0  0  0  0  0  0  0  0  0  0  0  0
   12.6640   -2.6070   22.3210 C   0  0  0  0  0  0  0  0  0  0  0  0
   13.1220   -3.4360   21.2150 C   0  0  0  0  0  0  0  0  0  0  0  0
   13.8800   -2.8440   20.5600 O   0  0  0  0  0  0  0  0  0  0  0  0
   13.4680   -1.6310   20.8300 C   0  0  0  0  0  0  0  0  0  0  0  0
   12.2060   -1.9880   20.6930 C   0  0  0  0  0  0  0  0  0  0  0  0
  1  2  1  0
  2  3  2  0
  3  4  1  0
  4  5  2  0
  5  6  1  0
  2  7  1  0
  6  7  2  0
  7  8  1  0
  8  9  1  0
  9 10  1  0
 10 11  1  0
 11 12  2  0
 11 13  1  0
 13 14  1  0
 14 15  2  0
 15 16  1  0
 16 17  2  0
 17 18  1  0
 14 19  1  0
 18 19  2  0
  8 20  1  0
 20 21  1  0
 21 22  1  0
 22 23  1  0
  8 24  1  0
 23 24  1  0
M  END
