pyridine_urea_12991
     RDKit          3D

 19 20  0  0  0  0  0  0  0  0999 V2000
   13.8210   -2.9180   23.3790 C   0  0  0  0  0  0  0  0  0  0  0  0
   13.5430   -2.4750   24.7960 C   0  0  0  0  0  0  0  0  0  0  0  0
   12.7760   -1.4070   24.1310 C   0  0  0  0  0  0  0  0  0  0  0  0
   13.1140   -0.1880   23.6090 C   0  0  0  0  0  0  0  0  0  0  0  0
   12.1350    0.5650   22.9850 N   0  0  0  0  0  0  0  0  0  0  0  0
   11.0720   -0.2440   23.0860 C   0  0  0  0  0  0  0  0  0  0  0  0
    9.9600    0.1630   22.5480 C   0  0  0  0  0  0  0  0  0  0  0  0
    9.1680   -0.8820   22.9500 C   0  0  0  0  0  0  0  0  0  0  0  0
    7.9400   -0.8010   22.5270 N   0  0  0  0  0  0  0  0  0  0  0  0
    7.5600   -0.2410   21.3860 C   0  0  0  0  0  0  0  0  0  0  0  0
    8.1830    0.7440   20.9800 O   0  0  0  0  0  0  0  0  0  0  0  0
    6.5270   -0.8200   20.8030 N   0  0  0  0  0  0  0  0  0  0  0  0
    6.0590   -0.0660   19.8290 C   0  0  0  0  0  0  0  0  0  0  0  0
    4.8640    0.6170   20.0480 C   0  0  0  0  0  0  0  0  0  0  0  0
    4.3930    1.4150   19.0210 C   0  0  0  0  0  0  0  0  0  0  0  0
    5.1740    1.4950   17.7690 C   0  0  0  0  0  0  0  0  0  0  0  0
    6.3150    0.8290   17.5730 N   0  0  0  0  0  0  0  0  0  0  0  0
    6.7170    0.0710   18.6180 C   0  0  0  0  0  0  0  0  0  0  0  0
   11.1030   -1.7740   23.8790 S   0  0  0  0  0  0  0  0  0  0  0  0
  1  2  1  0
  2  3  1  0
  3  4  2  0
  4  5  1  0
  5  6  2  0
  6  7  1  0
  7  8  1  0
  8  9  1  0
  9 10  1  0
 10 11  2  0
 10 12  1  0
 12 13  1  0
 13 14  2  0
 14 15  1  0
 15 16  2  0
 16 17  1  0
 13 18  1  0
 17 18  2  0
  3 19  1  0
  6 19  1  0
M  END
