pyridine_urea_12205
     RDKit          3D

 23 24  0  0  0  0  0  0  0  0999 V2000
    8.3570    1.6430   24.4960 C   0  0  0  0  0  0  0  0  0  0  0  0
    8.8060    0.5380   25.1660 N   0  0  0  0  0  0  0  0  0  0  0  0
    8.3180    0.0470   26.3910 C   0  0  0  0  0  0  0  0  0  0  0  0
    9.9930    0.0290   24.6980 C   0  0  0  0  0  0  0  0  0  0  0  0
   10.8770   -0.4640   25.3790 O   0  0  0  0  0  0  0  0  0  0  0  0
   10.2540    0.0720   23.3240 C   0  0  1  0  0  0  0  0  0  0  0  0
   11.5590   -0.4240   23.0670 C   0  0  0  0  0  0  0  0  0  0  0  0
   12.6090    0.4000   23.5060 C   0  0  0  0  0  0  0  0  0  0  0  0
   12.8630   -0.7560   24.1220 C   0  0  0  0  0  0  0  0  0  0  0  0
   11.8070   -1.7310   23.7090 C   0  0  0  0  0  0  0  0  0  0  0  0
   10.8080   -1.2630   22.7900 C   0  0  0  0  0  0  0  0  0  0  0  0
   10.7990    0.1040   22.2820 C   0  0  0  0  0  0  0  0  0  0  0  0
   11.7920    1.0250   22.6790 C   0  0  0  0  0  0  0  0  0  0  0  0
    9.1120   -0.6390   22.6580 N   0  0  0  0  0  0  0  0  0  0  0  0
    8.4640    0.0820   21.5860 C   0  0  0  0  0  0  0  0  0  0  0  0
    8.8790    1.2000   21.2280 O   0  0  0  0  0  0  0  0  0  0  0  0
    7.3960   -0.5950   21.0810 N   0  0  0  0  0  0  0  0  0  0  0  0
    6.6490    0.0320   20.1310 C   0  0  0  0  0  0  0  0  0  0  0  0
    5.5040    0.8130   20.3500 C   0  0  0  0  0  0  0  0  0  0  0  0
    4.7580    1.4550   19.3500 C   0  0  0  0  0  0  0  0  0  0  0  0
    5.1900    1.3030   18.0420 C   0  0  0  0  0  0  0  0  0  0  0  0
    6.2940    0.5460   17.7830 N   0  0  0  0  0  0  0  0  0  0  0  0
    7.0160   -0.0850   18.8020 C   0  0  0  0  0  0  0  0  0  0  0  0
  1  2  1  0
  2  3  1  0
  2  4  1  0
  4  5  2  0
  4  6  1  0
  6  7  1  1
  7  8  1  0
  8  9  2  0
  9 10  1  0
 10 11  2  0
 11 12  1  0
  8 13  1  0
 12 13  2  0
  6 14  1  0
 14 15  1  0
 15 16  2  0
 15 17  1  0
 17 18  1  0
 18 19  2  0
 19 20  1  0
 20 21  2  0
 21 22  1  0
 18 23  1  0
 22 23  2  0
M  END
