pyridine_urea_15098
     RDKit          3D

 17 18  0  0  0  0  0  0  0  0999 V2000
   12.7210   -2.6410   21.2420 C   0  0  0  0  0  0  0  0  0  0  0  0
   11.8590   -2.4480   22.3540 O   0  0  0  0  0  0  0  0  0  0  0  0
   11.2360   -1.1710   22.3190 C   0  0  1  0  0  0  0  0  0  0  0  0
    9.9860   -1.1000   23.1650 C   0  0  0  0  0  0  0  0  0  0  0  0
    8.8350   -1.3600   22.5230 N   0  0  0  0  0  0  0  0  0  0  0  0
    8.3520   -0.3990   21.7060 C   0  0  0  0  0  0  0  0  0  0  0  0
    9.0380    0.8130   21.4120 O   0  0  0  0  0  0  0  0  0  0  0  0
    7.0430   -0.7760   21.2080 N   0  0  0  0  0  0  0  0  0  0  0  0
    6.4570   -0.1000   20.1640 C   0  0  0  0  0  0  0  0  0  0  0  0
    5.1660    0.7070   20.3370 C   0  0  0  0  0  0  0  0  0  0  0  0
    4.5620    1.4480   19.1310 C   0  0  0  0  0  0  0  0  0  0  0  0
    5.2350    1.3460   17.9210 C   0  0  0  0  0  0  0  0  0  0  0  0
    6.3600    0.6540   17.7200 N   0  0  0  0  0  0  0  0  0  0  0  0
    6.9400   -0.0210   18.7240 C   0  0  0  0  0  0  0  0  0  0  0  0
   12.2250   -0.1420   22.7820 C   0  0  0  0  0  0  0  0  0  0  0  0
   12.0920    0.9280   23.4330 C   0  0  0  0  0  0  0  0  0  0  0  0
   12.5560   -0.0940   24.3240 C   0  0  0  0  0  0  0  0  0  0  0  0
  1  2  1  0
  2  3  1  0
  3  4  1  1
  4  5  1  0
  5  6  1  0
  6  7  2  0
  6  8  1  0
  8  9  1  0
  9 10  2  0
 10 11  1  0
 11 12  2  0
 12 13  1  0
  9 14  1  0
 13 14  2  0
  3 15  1  0
 15 16  1  0
 15 17  1  0
 16 17  1  0
M  END
