pyridine_urea_8927
     RDKit          3D

 20 21  0  0  0  0  0  0  0  0999 V2000
   13.2010    5.9750   22.5880 C   0  0  0  0  0  0  0  0  0  0  0  0
   12.7770    4.6620   22.9180 O   0  0  0  0  0  0  0  0  0  0  0  0
   11.6940    4.1900   22.2480 C   0  0  0  0  0  0  0  0  0  0  0  0
   11.1910    2.8030   22.7030 C   0  0  0  0  0  0  0  0  0  0  0  0
    9.8530    2.8340   23.2570 N   0  0  0  0  0  0  0  0  0  0  0  0
    9.6320    1.4870   23.5650 O   0  0  0  0  0  0  0  0  0  0  0  0
   10.7720    0.7920   23.2000 C   0  0  0  0  0  0  0  0  0  0  0  0
   10.6600   -0.5600   23.4640 C   0  0  0  0  0  0  0  0  0  0  0  0
   10.6410   -1.2690   22.2770 C   0  0  0  0  0  0  0  0  0  0  0  0
    9.4920   -1.2480   21.4910 N   0  0  0  0  0  0  0  0  0  0  0  0
    8.5050   -0.2410   21.3670 C   0  0  0  0  0  0  0  0  0  0  0  0
    8.8670    0.9210   21.4370 O   0  0  0  0  0  0  0  0  0  0  0  0
    7.2260   -0.6410   21.1350 N   0  0  0  0  0  0  0  0  0  0  0  0
    6.5640   -0.0260   20.1060 C   0  0  0  0  0  0  0  0  0  0  0  0
    5.3940    0.6790   20.3820 C   0  0  0  0  0  0  0  0  0  0  0  0
    4.7040    1.3180   19.3410 C   0  0  0  0  0  0  0  0  0  0  0  0
    5.2290    1.2340   18.0520 C   0  0  0  0  0  0  0  0  0  0  0  0
    6.3440    0.5640   17.7500 N   0  0  0  0  0  0  0  0  0  0  0  0
    6.9770   -0.0440   18.7790 C   0  0  0  0  0  0  0  0  0  0  0  0
   11.7450    1.5190   22.6890 N   0  0  0  0  0  0  0  0  0  0  0  0
  1  2  1  0
  2  3  1  0
  3  4  1  0
  4  5  2  0
  5  6  1  0
  6  7  1  0
  7  8  1  0
  8  9  1  0
  9 10  1  0
 10 11  1  0
 11 12  2  0
 11 13  1  0
 13 14  1  0
 14 15  2  0
 15 16  1  0
 16 17  2  0
 17 18  1  0
 14 19  1  0
 18 19  2  0
  4 20  1  0
  7 20  2  0
M  END
