pyridine_urea_9914
     RDKit          3D

 24 26  0  0  0  0  0  0  0  0999 V2000
    8.6530    0.5300   21.0660 O   0  0  0  0  0  0  0  0  0  0  0  0
    8.3080   -0.6460   21.0800 C   0  0  0  0  0  0  0  0  0  0  0  0
    7.0190   -1.0270   20.8350 N   0  0  0  0  0  0  0  0  0  0  0  0
    6.3850   -0.2060   19.8590 C   0  0  0  0  0  0  0  0  0  0  0  0
    5.1170    0.5380   20.2520 C   0  0  0  0  0  0  0  0  0  0  0  0
    4.4670    1.4170   19.1860 C   0  0  0  0  0  0  0  0  0  0  0  0
    5.1790    1.4530   17.8310 C   0  0  0  0  0  0  0  0  0  0  0  0
    6.3440    0.7020   17.6360 N   0  0  0  0  0  0  0  0  0  0  0  0
    6.9090   -0.0840   18.5970 C   0  0  0  0  0  0  0  0  0  0  0  0
    9.1770   -1.6870   21.3270 N   0  0  0  0  0  0  0  0  0  0  0  0
   10.3640   -1.2300   21.8700 C   0  0  0  0  0  0  0  0  0  0  0  0
   10.5800   -0.3320   22.7790 C   0  0  0  0  0  0  0  0  0  0  0  0
   11.7990   -0.0920   23.0950 N   0  0  0  0  0  0  0  0  0  0  0  0
   12.8210   -0.8560   22.3950 N   0  0  0  0  0  0  0  0  0  0  0  0
   13.0200    0.0270   23.3000 C   0  0  0  0  0  0  0  0  0  0  0  0
   11.6400   -0.0950   23.4450 C   0  0  0  0  0  0  0  0  0  0  0  0
   10.6550    0.8540   23.0090 C   0  0  0  0  0  0  0  0  0  0  0  0
    9.2550    0.5950   23.1510 C   0  0  0  0  0  0  0  0  0  0  0  0
    8.7510   -0.7030   23.7530 C   0  0  0  0  0  0  0  0  0  0  0  0
    6.9050   -1.0330   23.9120 Br  0  0  0  0  0  0  0  0  0  0  0  0
    9.7620   -1.5640   24.1530 C   0  0  0  0  0  0  0  0  0  0  0  0
   11.2190   -1.3200   24.0330 C   0  0  0  0  0  0  0  0  0  0  0  0
   12.3580   -2.4990   24.5650 Cl  0  0  0  0  0  0  0  0  0  0  0  0
   11.7860   -1.6120   21.5790 C   0  0  0  0  0  0  0  0  0  0  0  0
  1  2  2  0
  2  3  1  0
  3  4  1  0
  4  5  2  0
  5  6  1  0
  6  7  2  0
  7  8  1  0
  4  9  1  0
  8  9  2  0
  2 10  1  0
 10 11  1  0
 11 12  1  0
 12 13  2  0
 13 14  1  0
 14 15  1  0
 15 16  1  0
 16 17  2  0
 17 18  1  0
 18 19  2  0
 19 20  1  0
 19 21  1  0
 16 22  1  0
 21 22  2  0
 22 23  1  0
 11 24  2  0
 14 24  1  0
M  END
