pyridine_urea_10309
     RDKit          3D

 22 23  0  0  0  0  0  0  0  0999 V2000
    9.6710   -2.3760   21.8830 C   0  0  0  0  0  0  0  0  0  0  0  0
   10.5870   -2.4540   22.6860 O   0  0  0  0  0  0  0  0  0  0  0  0
   11.3010   -1.3070   22.8780 C   0  0  0  0  0  0  0  0  0  0  0  0
   10.7850   -0.3320   23.6790 C   0  0  0  0  0  0  0  0  0  0  0  0
   11.2460    0.9460   24.0760 C   0  0  0  0  0  0  0  0  0  0  0  0
   10.0220    0.5830   24.5600 C   0  0  1  0  0  0  0  0  0  0  0  0
    9.1570    1.6040   24.6440 F   0  0  0  0  0  0  0  0  0  0  0  0
    9.5380   -0.4190   23.6960 C   0  0  0  0  0  0  0  0  0  0  0  0
    8.2910    0.0450   23.0940 N   0  0  0  0  0  0  0  0  0  0  0  0
    8.1760    0.3210   21.7510 C   0  0  0  0  0  0  0  0  0  0  0  0
    8.8620    1.3660   21.1390 O   0  0  0  0  0  0  0  0  0  0  0  0
    7.2260   -0.6260   21.1310 N   0  0  0  0  0  0  0  0  0  0  0  0
    6.5520    0.0210   20.0340 C   0  0  0  0  0  0  0  0  0  0  0  0
    5.4050    0.7730   20.2930 C   0  0  0  0  0  0  0  0  0  0  0  0
    4.7230    1.4290   19.2860 C   0  0  0  0  0  0  0  0  0  0  0  0
    5.1580    1.3610   17.9770 C   0  0  0  0  0  0  0  0  0  0  0  0
    6.2480    0.6550   17.6230 N   0  0  0  0  0  0  0  0  0  0  0  0
    6.9460   -0.0290   18.7180 C   0  0  0  0  0  0  0  0  0  0  0  0
   12.5050    0.9600   23.3860 C   0  0  0  0  0  0  0  0  0  0  0  0
   13.0860    0.0110   22.5590 C   0  0  0  0  0  0  0  0  0  0  0  0
   12.4700   -1.1490   22.2850 C   0  0  0  0  0  0  0  0  0  0  0  0
   13.1270   -2.3140   21.2590 Cl  0  0  0  0  0  0  0  0  0  0  0  0
  1  2  1  0
  2  3  1  0
  3  4  2  0
  4  5  1  0
  5  6  1  0
  6  7  1  6
  6  8  1  0
  8  9  1  0
  9 10  1  0
 10 11  2  0
 10 12  1  0
 12 13  1  0
 13 14  2  0
 14 15  1  0
 15 16  2  0
 16 17  1  0
 13 18  1  0
 17 18  2  0
  5 19  2  0
 19 20  1  0
  3 21  1  0
 20 21  2  0
 21 22  1  0
M  END
