pyridine_urea_8766
     RDKit          3D

 21 23  0  0  0  0  0  0  0  0999 V2000
    8.4410    0.9820   21.0910 O   0  0  0  0  0  0  0  0  0  0  0  0
    8.6460   -0.0880   21.6510 C   0  0  0  0  0  0  0  0  0  0  0  0
    8.5770   -1.3870   22.0930 N   0  0  0  0  0  0  0  0  0  0  0  0
    8.3020   -1.8350   23.4060 C   0  0  0  0  0  0  0  0  0  0  0  0
    7.4320   -2.9270   23.5230 C   0  0  0  0  0  0  0  0  0  0  0  0
    6.3980   -2.7590   24.4560 C   0  0  0  0  0  0  0  0  0  0  0  0
    5.4480   -1.7600   24.4230 C   0  0  0  0  0  0  0  0  0  0  0  0
    4.6380   -1.9030   25.4380 N   0  0  0  0  0  0  0  0  0  0  0  0
    3.5790   -1.1030   25.7290 C   0  0  0  0  0  0  0  0  0  0  0  0
    2.7860   -1.3490   26.8340 C   0  0  0  0  0  0  0  0  0  0  0  0
    3.1500   -2.5460   27.7070 C   0  0  0  0  0  0  0  0  0  0  0  0
    4.2540   -3.3180   27.3390 C   0  0  0  0  0  0  0  0  0  0  0  0
    5.0170   -3.0120   26.1990 C   0  0  0  0  0  0  0  0  0  0  0  0
    6.1280   -3.5700   25.5990 N   0  0  0  0  0  0  0  0  0  0  0  0
    7.5040   -0.5820   21.0250 N   0  0  0  0  0  0  0  0  0  0  0  0
    6.7050    0.0410   20.1000 C   0  0  0  0  0  0  0  0  0  0  0  0
    5.5810    0.7920   20.4640 C   0  0  0  0  0  0  0  0  0  0  0  0
    4.8160    1.4080   19.4600 C   0  0  0  0  0  0  0  0  0  0  0  0
    5.1960    1.2560   18.1280 C   0  0  0  0  0  0  0  0  0  0  0  0
    6.2720    0.5300   17.7620 N   0  0  0  0  0  0  0  0  0  0  0  0
    6.9860   -0.0530   18.7480 C   0  0  0  0  0  0  0  0  0  0  0  0
  1  2  2  0
  2  3  1  0
  3  4  1  0
  4  5  1  0
  5  6  1  0
  6  7  2  0
  7  8  1  0
  8  9  1  0
  9 10  2  0
 10 11  1  0
 11 12  2  0
  8 13  1  0
 12 13  1  0
  6 14  1  0
 13 14  2  0
  2 15  1  0
 15 16  1  0
 16 17  2  0
 17 18  1  0
 18 19  2  0
 19 20  1  0
 16 21  1  0
 20 21  2  0
M  END
