pyridine_urea_959
     RDKit          3D

 22 24  0  0  0  0  0  0  0  0999 V2000
    8.5850    0.9990   21.1260 O   0  0  0  0  0  0  0  0  0  0  0  0
    8.3250   -0.1340   21.5080 C   0  0  0  0  0  0  0  0  0  0  0  0
    7.1020   -0.7870   21.0700 N   0  0  0  0  0  0  0  0  0  0  0  0
    6.4310   -0.0960   20.0650 C   0  0  0  0  0  0  0  0  0  0  0  0
    5.2510    0.6060   20.3370 C   0  0  0  0  0  0  0  0  0  0  0  0
    4.6250    1.2940   19.2930 C   0  0  0  0  0  0  0  0  0  0  0  0
    5.1950    1.2620   18.0170 C   0  0  0  0  0  0  0  0  0  0  0  0
    6.3230    0.5890   17.7460 N   0  0  0  0  0  0  0  0  0  0  0  0
    6.9150   -0.0770   18.7720 C   0  0  0  0  0  0  0  0  0  0  0  0
    9.1000   -0.8900   22.3570 N   0  0  0  0  0  0  0  0  0  0  0  0
   10.3860   -0.2790   22.6500 C   0  0  2  0  0  0  0  0  0  0  0  0
   11.5630   -1.1810   22.4240 C   0  0  0  0  0  0  0  0  0  0  0  0
   12.5900   -0.4490   22.9550 C   0  0  0  0  0  0  0  0  0  0  0  0
   11.9840    0.4220   23.8970 C   0  0  0  0  0  0  0  0  0  0  0  0
   10.5560    0.3680   23.8790 C   0  0  2  0  0  0  0  0  0  0  0  0
   10.0360   -0.4090   24.9090 C   0  0  0  0  0  0  0  0  0  0  0  0
    9.0280    0.2410   25.6020 C   0  0  0  0  0  0  0  0  0  0  0  0
    7.9700    0.8830   24.9550 C   0  0  0  0  0  0  0  0  0  0  0  0
    6.9740    1.5290   25.7050 C   0  0  0  0  0  0  0  0  0  0  0  0
    7.0250    1.5420   27.1050 C   0  0  0  0  0  0  0  0  0  0  0  0
    8.0850    0.8970   27.7480 C   0  0  0  0  0  0  0  0  0  0  0  0
    9.0810    0.2500   27.0100 C   0  0  0  0  0  0  0  0  0  0  0  0
  1  2  2  0
  2  3  1  0
  3  4  1  0
  4  5  2  0
  5  6  1  0
  6  7  2  0
  7  8  1  0
  4  9  1  0
  8  9  2  0
  2 10  1  0
 11 10  1  1
 11 12  1  0
 12 13  1  0
 13 14  1  0
 11 15  1  0
 14 15  1  0
 15 16  1  1
 16 17  1  0
 17 18  2  0
 18 19  1  0
 19 20  2  0
 20 21  1  0
 17 22  1  0
 21 22  2  0
M  END
