pyridine_urea_1758
     RDKit          3D

 18 19  0  0  0  0  0  0  0  0999 V2000
    7.9300   -2.4190   25.0730 C   0  0  0  0  0  0  0  0  0  0  0  0
    7.9430   -3.1060   23.7410 C   0  0  1  0  0  0  0  0  0  0  0  0
    8.7840   -2.5710   22.7430 C   0  0  0  0  0  0  0  0  0  0  0  0
    8.9450   -1.1540   22.6680 N   0  0  0  0  0  0  0  0  0  0  0  0
    8.4540   -0.2630   21.7040 C   0  0  0  0  0  0  0  0  0  0  0  0
    8.9890    0.7990   21.4110 O   0  0  0  0  0  0  0  0  0  0  0  0
    7.2690   -0.7070   21.1230 N   0  0  0  0  0  0  0  0  0  0  0  0
    6.5580   -0.0460   20.0950 C   0  0  0  0  0  0  0  0  0  0  0  0
    5.3930    0.6630   20.4460 C   0  0  0  0  0  0  0  0  0  0  0  0
    4.6760    1.3410   19.4620 C   0  0  0  0  0  0  0  0  0  0  0  0
    5.2070    1.2610   18.0330 C   0  0  0  0  0  0  0  0  0  0  0  0
    6.3110    0.5690   17.7490 N   0  0  0  0  0  0  0  0  0  0  0  0
    6.9520   -0.0580   18.7640 C   0  0  0  0  0  0  0  0  0  0  0  0
    7.9750   -4.4320   24.0280 N   0  0  0  0  0  0  0  0  0  0  0  0
    8.6250   -4.7430   25.1760 C   0  0  0  0  0  0  0  0  0  0  0  0
    6.8080   -5.1060   23.7810 C   0  0  0  0  0  0  0  0  0  0  0  0
    6.4080   -4.7910   22.6590 C   0  0  0  0  0  0  0  0  0  0  0  0
    6.6200   -6.2490   22.8100 C   0  0  0  0  0  0  0  0  0  0  0  0
  2  1  1  1
  2  3  1  0
  3  4  1  0
  4  5  1  0
  5  6  2  0
  5  7  1  0
  7  8  1  0
  8  9  2  0
  9 10  1  0
 10 11  2  0
 11 12  1  0
  8 13  1  0
 12 13  2  0
  2 14  1  0
 14 15  1  0
 14 16  1  0
 16 17  1  0
 16 18  1  0
 17 18  1  0
M  END
