pyridine_urea_3204
     RDKit          3D

 20 21  0  0  0  0  0  0  0  0999 V2000
   11.2610    1.5040   23.9740 C   0  0  0  0  0  0  0  0  0  0  0  0
    9.9870    0.7750   23.7430 C   0  0  0  0  0  0  0  0  0  0  0  0
   10.0580   -0.0280   22.6360 C   0  0  2  0  0  0  0  0  0  0  0  0
    8.8770   -0.8020   22.3850 N   0  0  0  0  0  0  0  0  0  0  0  0
    8.0900   -0.1020   21.5070 C   0  0  0  0  0  0  0  0  0  0  0  0
    8.3650    1.0450   21.1740 O   0  0  0  0  0  0  0  0  0  0  0  0
    6.9350   -0.8210   21.0060 N   0  0  0  0  0  0  0  0  0  0  0  0
    6.3190   -0.1190   20.0130 C   0  0  0  0  0  0  0  0  0  0  0  0
    5.0110    0.6010   20.2980 C   0  0  0  0  0  0  0  0  0  0  0  0
    4.4500    1.3160   19.2440 C   0  0  0  0  0  0  0  0  0  0  0  0
    5.1990    1.3110   17.9050 C   0  0  0  0  0  0  0  0  0  0  0  0
    6.3560    0.6440   17.7160 N   0  0  0  0  0  0  0  0  0  0  0  0
    6.8770   -0.0420   18.7530 C   0  0  0  0  0  0  0  0  0  0  0  0
   11.2890   -0.6230   22.4760 C   0  0  0  0  0  0  0  0  0  0  0  0
   10.9450   -1.7980   21.9510 C   0  0  0  0  0  0  0  0  0  0  0  0
    9.6590   -2.2310   21.6830 C   0  0  0  0  0  0  0  0  0  0  0  0
   12.0560   -2.5380   21.7040 N   0  0  0  0  0  0  0  0  0  0  0  0
   13.0500   -1.8170   22.0880 O   0  0  0  0  0  0  0  0  0  0  0  0
   12.5610   -0.5740   22.5930 C   0  0  0  0  0  0  0  0  0  0  0  0
   13.4220    0.3200   23.0510 C   0  0  0  0  0  0  0  0  0  0  0  0
  1  2  1  0
  3  2  1  1
  3  4  1  0
  4  5  1  0
  5  6  2  0
  5  7  1  0
  7  8  1  0
  8  9  2  0
  9 10  1  0
 10 11  2  0
 11 12  1  0
  8 13  1  0
 12 13  2  0
  3 14  1  0
 14 15  1  0
 15 16  1  0
 15 17  2  0
 17 18  1  0
 14 19  2  0
 18 19  1  0
 19 20  1  0
M  END
