pyridine_urea_4705
     RDKit          3D

 22 24  0  0  0  0  0  0  0  0999 V2000
    8.9750    1.8190   20.9310 O   0  0  0  0  0  0  0  0  0  0  0  0
    8.4250    0.9560   21.5700 C   0  0  0  0  0  0  0  0  0  0  0  0
    8.7040    0.8560   22.8750 N   0  0  0  0  0  0  0  0  0  0  0  0
    8.5930   -0.3880   23.4930 C   0  0  0  0  0  0  0  0  0  0  0  0
    9.8070   -0.6550   24.3350 C   0  0  0  0  0  0  0  0  0  0  0  0
   11.0420   -0.9640   24.9250 C   0  0  0  0  0  0  0  0  0  0  0  0
   12.2240   -1.4100   24.3980 C   0  0  0  0  0  0  0  0  0  0  0  0
   13.4870   -1.8180   25.4090 Cl  0  0  0  0  0  0  0  0  0  0  0  0
   12.3960   -1.5810   23.1160 C   0  0  0  0  0  0  0  0  0  0  0  0
   11.3360   -1.3340   22.3990 C   0  0  0  0  0  0  0  0  0  0  0  0
   10.1500   -0.9170   22.9440 C   0  0  0  0  0  0  0  0  0  0  0  0
   11.4780   -1.5230   21.2230 O   0  0  0  0  0  0  0  0  0  0  0  0
   12.5420   -2.3330   20.9540 C   0  0  0  0  0  0  0  0  0  0  0  0
   13.0560   -2.8900   22.0880 C   0  0  0  0  0  0  0  0  0  0  0  0
   13.4450   -1.9660   22.7110 O   0  0  0  0  0  0  0  0  0  0  0  0
    7.4970    0.0460   21.1310 N   0  0  0  0  0  0  0  0  0  0  0  0
    6.7050    0.3620   20.0420 C   0  0  0  0  0  0  0  0  0  0  0  0
    5.4680    1.1670   20.2620 C   0  0  0  0  0  0  0  0  0  0  0  0
    4.6430    1.5510   19.2390 C   0  0  0  0  0  0  0  0  0  0  0  0
    5.0820    1.1130   17.9630 C   0  0  0  0  0  0  0  0  0  0  0  0
    6.1790    0.3780   17.7200 N   0  0  0  0  0  0  0  0  0  0  0  0
    6.9630    0.0140   18.7460 C   0  0  0  0  0  0  0  0  0  0  0  0
  1  2  2  0
  2  3  1  0
  3  4  1  0
  4  5  1  0
  5  6  2  0
  6  7  1  0
  7  8  1  0
  7  9  2  0
  9 10  1  0
  5 11  1  0
 10 11  2  0
 10 12  1  0
 12 13  1  0
 13 14  1  0
  9 15  1  0
 14 15  1  0
  2 16  1  0
 16 17  1  0
 17 18  2  0
 18 19  1  0
 19 20  2  0
 20 21  1  0
 17 22  1  0
 21 22  2  0
M  END
