pyridine_urea_3026
     RDKit          3D

 21 23  0  0  0  0  0  0  0  0999 V2000
    8.5380    1.3540   21.0570 O   0  0  0  0  0  0  0  0  0  0  0  0
    7.9780    0.3990   21.6150 C   0  0  0  0  0  0  0  0  0  0  0  0
    7.0430   -0.4130   21.0330 N   0  0  0  0  0  0  0  0  0  0  0  0
    6.3710    0.2040   19.9500 C   0  0  0  0  0  0  0  0  0  0  0  0
    5.0350    0.9550   20.2190 C   0  0  0  0  0  0  0  0  0  0  0  0
    4.4410    1.5590   19.1310 C   0  0  0  0  0  0  0  0  0  0  0  0
    5.1660    1.4200   17.7880 C   0  0  0  0  0  0  0  0  0  0  0  0
    6.3210    0.7420   17.6230 N   0  0  0  0  0  0  0  0  0  0  0  0
    6.8830    0.1610   18.6840 C   0  0  0  0  0  0  0  0  0  0  0  0
    8.2020   -0.0200   22.8770 N   0  0  0  0  0  0  0  0  0  0  0  0
    9.5260   -0.4950   22.9430 C   0  0  0  0  0  0  0  0  0  0  0  0
    9.9310   -1.0420   21.5990 C   0  0  0  0  0  0  0  0  0  0  0  0
   11.3100   -1.5770   21.4790 C   0  0  0  0  0  0  0  0  0  0  0  0
   12.1120   -1.5250   22.6270 C   0  0  0  0  0  0  0  0  0  0  0  0
   11.6580   -0.9900   23.9540 C   0  0  0  0  0  0  0  0  0  0  0  0
   10.2880   -0.4470   24.0780 C   0  0  0  0  0  0  0  0  0  0  0  0
   12.4030   -0.9400   25.2390 C   0  0  0  0  0  0  0  0  0  0  0  0
   12.8410   -2.2650   25.4340 C   0  0  0  0  0  0  0  0  0  0  0  0
   13.8060   -2.4640   24.6230 C   0  0  0  0  0  0  0  0  0  0  0  0
   13.5500   -1.5130   23.7410 C   0  0  0  0  0  0  0  0  0  0  0  0
   13.3320   -1.9770   22.5390 C   0  0  0  0  0  0  0  0  0  0  0  0
  1  2  2  0
  2  3  1  0
  3  4  1  0
  4  5  2  0
  5  6  1  0
  6  7  2  0
  7  8  1  0
  4  9  1  0
  8  9  2  0
  2 10  1  0
 10 11  1  0
 11 12  2  0
 12 13  1  0
 13 14  2  0
 14 15  1  0
 11 16  1  0
 15 16  2  0
 15 17  1  0
 17 18  1  0
 18 19  1  0
 19 20  1  0
 14 21  1  0
 20 21  1  0
M  END
