pyridine_urea_10579
     RDKit          3D

 21 23  0  0  0  0  0  0  0  0999 V2000
    8.8240    0.3990   21.1770 O   0  0  0  0  0  0  0  0  0  0  0  0
    8.3820   -0.6720   21.5730 C   0  0  0  0  0  0  0  0  0  0  0  0
    7.1730   -1.1240   21.1160 N   0  0  0  0  0  0  0  0  0  0  0  0
    6.4390   -0.3350   20.1830 C   0  0  0  0  0  0  0  0  0  0  0  0
    5.1150    0.3880   20.4890 C   0  0  0  0  0  0  0  0  0  0  0  0
    4.5290    1.1900   19.3180 C   0  0  0  0  0  0  0  0  0  0  0  0
    5.2870    1.1880   18.0310 C   0  0  0  0  0  0  0  0  0  0  0  0
    6.4410    0.5200   17.8600 N   0  0  0  0  0  0  0  0  0  0  0  0
    6.9680   -0.1950   18.8950 C   0  0  0  0  0  0  0  0  0  0  0  0
    9.1330   -1.4170   22.5070 N   0  0  0  0  0  0  0  0  0  0  0  0
   10.2910   -0.5980   22.6570 C   0  0  0  0  0  0  0  0  0  0  0  0
   11.6520   -0.9230   22.6140 C   0  0  0  0  0  0  0  0  0  0  0  0
   12.6090    0.0820   22.6980 C   0  0  0  0  0  0  0  0  0  0  0  0
   12.1710    1.4050   22.8000 C   0  0  0  0  0  0  0  0  0  0  0  0
   13.0260    2.5210   22.8000 C   0  0  0  0  0  0  0  0  0  0  0  0
   12.5550    3.8870   22.8570 C   0  0  0  0  0  0  0  0  0  0  0  0
   13.6040    5.4230   22.7790 Br  0  0  0  0  0  0  0  0  0  0  0  0
   11.0560    4.0290   22.9700 C   0  0  0  0  0  0  0  0  0  0  0  0
   10.2840    2.9330   22.9760 C   0  0  0  0  0  0  0  0  0  0  0  0
   10.8100    1.6770   22.8760 C   0  0  0  0  0  0  0  0  0  0  0  0
    9.8850    0.6930   22.8220 C   0  0  0  0  0  0  0  0  0  0  0  0
  1  2  2  0
  2  3  1  0
  3  4  1  0
  4  5  2  0
  5  6  1  0
  6  7  2  0
  7  8  1  0
  4  9  1  0
  8  9  2  0
  2 10  1  0
 10 11  1  0
 11 12  2  0
 12 13  1  0
 13 14  2  0
 14 15  1  0
 15 16  2  0
 16 17  1  0
 16 18  1  0
 18 19  2  0
 14 20  1  0
 19 20  1  0
 11 21  1  0
 20 21  2  0
M  END
