pyridine_urea_3390
     RDKit          3D

 19 20  0  0  0  0  0  0  0  0999 V2000
    8.7830    0.8360   21.2630 O   0  0  0  0  0  0  0  0  0  0  0  0
    8.3110   -0.2340   21.5990 C   0  0  0  0  0  0  0  0  0  0  0  0
    7.1550   -0.7460   21.0670 N   0  0  0  0  0  0  0  0  0  0  0  0
    6.4800   -0.0790   20.0310 C   0  0  0  0  0  0  0  0  0  0  0  0
    5.3010    0.6210   20.3130 C   0  0  0  0  0  0  0  0  0  0  0  0
    4.6330    1.2990   19.2890 C   0  0  0  0  0  0  0  0  0  0  0  0
    5.1690    1.2520   18.0190 C   0  0  0  0  0  0  0  0  0  0  0  0
    6.2960    0.5800   17.7250 N   0  0  0  0  0  0  0  0  0  0  0  0
    6.9220   -0.0670   18.7280 C   0  0  0  0  0  0  0  0  0  0  0  0
    8.8840   -1.0520   22.5670 N   0  0  0  0  0  0  0  0  0  0  0  0
   10.2980   -0.9240   22.9450 C   0  0  2  0  0  0  0  0  0  0  0  0
   10.5150    0.5750   23.1560 C   0  0  0  0  0  0  0  0  0  0  0  0
   10.0440    1.3140   22.0250 O   0  0  0  0  0  0  0  0  0  0  0  0
   11.2820   -1.5770   22.0380 C   0  0  0  0  0  0  0  0  0  0  0  0
   12.5470   -1.2900   22.4700 C   0  0  0  0  0  0  0  0  0  0  0  0
   12.4460   -1.7770   24.0840 S   0  0  0  0  0  0  0  0  0  0  0  0
   12.6750   -3.1870   24.1640 O   0  0  0  0  0  0  0  0  0  0  0  0
   13.1850   -0.8670   24.9030 O   0  0  0  0  0  0  0  0  0  0  0  0
   10.6710   -1.5200   24.1600 C   0  0  0  0  0  0  0  0  0  0  0  0
  1  2  2  0
  2  3  1  0
  3  4  1  0
  4  5  2  0
  5  6  1  0
  6  7  2  0
  7  8  1  0
  4  9  1  0
  8  9  2  0
  2 10  1  0
 11 10  1  0
 11 12  1  1
 12 13  1  0
 11 14  1  0
 14 15  1  0
 16 15  1  0
 16 17  2  0
 16 18  2  0
 11 19  1  0
 16 19  1  0
M  END
