pyridine_urea_170
     RDKit          3D

 21 22  0  0  0  0  0  0  0  0999 V2000
    3.1870    1.0170   20.6010 C   0  0  0  0  0  0  0  0  0  0  0  0
    4.3150    0.6410   20.5010 C   0  0  0  0  0  0  0  0  0  0  0  0
    5.6740    0.0320   20.8670 C   0  0  0  0  0  0  0  0  0  0  0  0
    6.9090   -0.1720   20.1130 C   0  0  0  0  0  0  0  0  0  0  0  0
    8.0470   -0.7730   20.7530 N   0  0  0  0  0  0  0  0  0  0  0  0
    8.7700    0.0290   21.6000 C   0  0  0  0  0  0  0  0  0  0  0  0
    9.1320    1.4020   21.2480 O   0  0  0  0  0  0  0  0  0  0  0  0
    9.0630   -0.6190   22.7460 N   0  0  0  0  0  0  0  0  0  0  0  0
   10.3600   -0.7270   23.1440 C   0  0  0  0  0  0  0  0  0  0  0  0
   11.2400    0.2870   22.6740 C   0  0  0  0  0  0  0  0  0  0  0  0
   12.5230    0.4380   22.8820 C   0  0  0  0  0  0  0  0  0  0  0  0
   13.1540   -0.6170   23.7490 C   0  0  0  0  0  0  0  0  0  0  0  0
   12.1070   -1.4640   24.0720 N   0  0  0  0  0  0  0  0  0  0  0  0
   10.7550   -1.7470   23.9400 C   0  0  0  0  0  0  0  0  0  0  0  0
    6.9300    0.2670   18.7030 C   0  0  0  0  0  0  0  0  0  0  0  0
    5.7670    0.8720   18.1350 N   0  0  0  0  0  0  0  0  0  0  0  0
    4.6430    1.0120   19.0010 C   0  0  0  0  0  0  0  0  0  0  0  0
    3.4600    1.6290   18.4870 O   0  0  0  0  0  0  0  0  0  0  0  0
    2.9960    2.8150   19.0240 C   0  0  0  0  0  0  0  0  0  0  0  0
    1.7900    2.6120   19.6120 F   0  0  0  0  0  0  0  0  0  0  0  0
    3.8340    3.1720   20.0240 F   0  0  0  0  0  0  0  0  0  0  0  0
  1  2  1  0
  2  3  2  0
  3  4  1  0
  4  5  1  0
  5  6  1  0
  6  7  2  0
  6  8  1  0
  8  9  1  0
  9 10  2  0
 10 11  1  0
 11 12  2  0
 12 13  1  0
  9 14  1  0
 13 14  2  0
  4 15  2  0
 15 16  1  0
  2 17  1  0
 16 17  2  0
 17 18  1  0
 18 19  1  0
 19 20  1  0
 19 21  1  0
M  END
