pyridine_urea_11515
     RDKit          3D

 24 26  0  0  0  0  0  0  0  0999 V2000
   13.2060   -2.2320   21.1310 C   0  0  0  0  0  0  0  0  0  0  0  0
   13.2220   -2.5560   22.5980 C   0  0  0  0  0  0  0  0  0  0  0  0
   12.7570   -1.4890   23.3660 N   0  0  0  0  0  0  0  0  0  0  0  0
   11.9590   -0.5370   22.7260 C   0  0  0  0  0  0  0  0  0  0  0  0
   11.8280    0.1090   23.9360 C   0  0  0  0  0  0  0  0  0  0  0  0
   11.0230    1.2200   23.9290 C   0  0  2  0  0  0  0  0  0  0  0  0
   10.3930    1.5160   24.9210 O   0  0  0  0  0  0  0  0  0  0  0  0
    9.4960    0.4960   25.3900 C   0  0  0  0  0  0  0  0  0  0  0  0
    8.3660    0.6990   24.6330 C   0  0  0  0  0  0  0  0  0  0  0  0
    8.8810    1.4740   23.4140 C   0  0  0  0  0  0  0  0  0  0  0  0
   10.0880    0.9490   22.9570 C   0  0  2  0  0  0  0  0  0  0  0  0
   10.0020   -0.4300   22.7300 C   0  0  0  0  0  0  0  0  0  0  0  0
    8.8620   -0.8690   22.1440 N   0  0  0  0  0  0  0  0  0  0  0  0
    8.1070   -0.0640   21.3000 C   0  0  0  0  0  0  0  0  0  0  0  0
    8.5130    1.1740   20.8810 O   0  0  0  0  0  0  0  0  0  0  0  0
    6.9500   -0.6530   20.9600 N   0  0  0  0  0  0  0  0  0  0  0  0
    6.3340    0.0200   19.9860 C   0  0  0  0  0  0  0  0  0  0  0  0
    5.1430    0.6750   20.2980 C   0  0  0  0  0  0  0  0  0  0  0  0
    4.5330    1.4190   19.1620 C   0  0  0  0  0  0  0  0  0  0  0  0
    5.2140    1.4090   17.8290 C   0  0  0  0  0  0  0  0  0  0  0  0
    6.3480    0.7440   17.6320 N   0  0  0  0  0  0  0  0  0  0  0  0
    6.8680    0.0780   18.6970 C   0  0  0  0  0  0  0  0  0  0  0  0
   12.5420   -0.4830   25.0960 C   0  0  0  0  0  0  0  0  0  0  0  0
   13.1370   -1.5390   24.6610 N   0  0  0  0  0  0  0  0  0  0  0  0
  1  2  1  0
  2  3  1  0
  3  4  1  0
  4  5  2  0
  6  5  1  1
  6  7  1  0
  7  8  1  0
  8  9  1  0
  9 10  1  0
  6 11  1  0
 10 11  1  0
 11 12  1  1
 12 13  1  0
 13 14  1  0
 14 15  2  0
 14 16  1  0
 16 17  1  0
 17 18  2  0
 18 19  1  0
 19 20  2  0
 20 21  1  0
 17 22  1  0
 21 22  2  0
  5 23  1  0
  3 24  1  0
 23 24  2  0
M  END
