pyridine_urea_4488
     RDKit          3D

 23 25  0  0  0  0  0  0  0  0999 V2000
   11.7240    8.8530   25.3950 C   0  0  0  0  0  0  0  0  0  0  0  0
   10.9740    7.6190   25.8910 C   0  0  0  0  0  0  0  0  0  0  0  0
   10.7560    7.5530   27.3850 C   0  0  0  0  0  0  0  0  0  0  0  0
   10.0260    6.3640   27.9260 C   0  0  0  0  0  0  0  0  0  0  0  0
    9.5510    5.2990   26.9540 C   0  0  0  0  0  0  0  0  0  0  0  0
    9.7710    5.3570   25.4310 C   0  0  0  0  0  0  0  0  0  0  0  0
    9.2100    4.1470   24.6830 C   0  0  0  0  0  0  0  0  0  0  0  0
    7.8960    3.8010   24.5790 C   0  0  0  0  0  0  0  0  0  0  0  0
    7.9870    2.5900   23.8560 N   0  0  0  0  0  0  0  0  0  0  0  0
    9.2760    2.2430   23.5490 C   0  0  0  0  0  0  0  0  0  0  0  0
    9.8180    1.1320   22.8940 C   0  0  0  0  0  0  0  0  0  0  0  0
    8.9240    0.1520   22.5370 N   0  0  0  0  0  0  0  0  0  0  0  0
    8.1830    0.3690   21.3900 C   0  0  0  0  0  0  0  0  0  0  0  0
    8.3750    1.3650   20.7110 O   0  0  0  0  0  0  0  0  0  0  0  0
    7.2440   -0.5380   21.0780 N   0  0  0  0  0  0  0  0  0  0  0  0
    6.4790    0.0500   20.1440 C   0  0  0  0  0  0  0  0  0  0  0  0
    5.2140    0.8020   20.4250 C   0  0  0  0  0  0  0  0  0  0  0  0
    4.5590    1.3910   19.3570 C   0  0  0  0  0  0  0  0  0  0  0  0
    5.0840    1.2800   17.9880 C   0  0  0  0  0  0  0  0  0  0  0  0
    6.2910    0.5530   17.6470 N   0  0  0  0  0  0  0  0  0  0  0  0
    6.9280   -0.0410   18.8300 C   0  0  0  0  0  0  0  0  0  0  0  0
   10.0880    3.2800   24.0640 N   0  0  0  0  0  0  0  0  0  0  0  0
   10.4620    6.4920   24.9430 C   0  0  0  0  0  0  0  0  0  0  0  0
  1  2  1  0
  2  3  2  0
  3  4  1  0
  4  5  2  0
  5  6  1  0
  6  7  1  0
  7  8  2  0
  8  9  1  0
  9 10  1  0
 10 11  1  0
 11 12  1  0
 12 13  1  0
 13 14  2  0
 13 15  1  0
 15 16  1  0
 16 17  2  0
 17 18  1  0
 18 19  2  0
 19 20  1  0
 16 21  1  0
 20 21  2  0
  7 22  1  0
 10 22  2  0
  2 23  1  0
  6 23  2  0
M  END
