pyridine_urea_12775
     RDKit          3D

 20 21  0  0  0  0  0  0  0  0999 V2000
   11.1010   -1.1900   24.2060 C   0  0  0  0  0  0  0  0  0  0  0  0
   10.6300   -0.8250   22.7740 C   0  0  2  0  0  0  0  0  0  0  0  0
    9.1550   -0.5910   22.6170 N   0  0  0  0  0  0  0  0  0  0  0  0
    8.5170    0.0510   21.5330 C   0  0  0  0  0  0  0  0  0  0  0  0
    8.8940    1.3640   21.0860 O   0  0  0  0  0  0  0  0  0  0  0  0
    7.5120   -0.7570   21.0330 N   0  0  0  0  0  0  0  0  0  0  0  0
    6.7180   -0.0390   20.1430 C   0  0  0  0  0  0  0  0  0  0  0  0
    5.5960    0.7530   20.4230 C   0  0  0  0  0  0  0  0  0  0  0  0
    4.8690    1.4270   19.4340 C   0  0  0  0  0  0  0  0  0  0  0  0
    5.2830    1.3030   18.1240 C   0  0  0  0  0  0  0  0  0  0  0  0
    6.3450    0.5610   17.7930 N   0  0  0  0  0  0  0  0  0  0  0  0
    7.0210   -0.0800   18.7850 C   0  0  0  0  0  0  0  0  0  0  0  0
   10.9740   -2.0820   22.0850 C   0  0  0  0  0  0  0  0  0  0  0  0
   12.0900   -1.3710   22.0690 C   0  0  0  0  0  0  0  0  0  0  0  0
   11.8430   -0.1660   22.7330 C   0  0  0  0  0  0  0  0  0  0  0  0
   13.1120    0.9390   22.8860 Cl  0  0  0  0  0  0  0  0  0  0  0  0
   10.4970    0.3060   23.3760 C   0  0  0  0  0  0  0  0  0  0  0  0
    9.5030   -0.7610   23.1910 C   0  0  0  0  0  0  0  0  0  0  0  0
    9.7180   -2.0190   22.5280 C   0  0  0  0  0  0  0  0  0  0  0  0
    8.4090   -3.1360   22.4470 Cl  0  0  0  0  0  0  0  0  0  0  0  0
  2  1  1  1
  2  3  1  0
  3  4  1  0
  4  5  2  0
  4  6  1  0
  6  7  1  0
  7  8  2  0
  8  9  1  0
  9 10  2  0
 10 11  1  0
  7 12  1  0
 11 12  2  0
  2 13  1  0
 13 14  2  0
 14 15  1  0
 15 16  1  0
 15 17  2  0
 17 18  1  0
 13 19  1  0
 18 19  2  0
 19 20  1  0
M  END
