pyridine_urea_8086
     RDKit          3D

 24 26  0  0  0  0  0  0  0  0999 V2000
    9.4720   -0.8880   21.2320 C   0  0  0  0  0  0  0  0  0  0  0  0
   10.2520   -1.0500   22.4090 C   0  0  0  0  0  0  0  0  0  0  0  0
   11.7780   -1.2710   22.2400 C   0  0  0  0  0  0  0  0  0  0  0  0
   12.5530   -1.4400   23.3040 C   0  0  0  0  0  0  0  0  0  0  0  0
   13.6720   -1.6590   23.5140 O   0  0  0  0  0  0  0  0  0  0  0  0
   13.1470   -2.5480   24.4420 C   0  0  0  0  0  0  0  0  0  0  0  0
   11.8430   -2.8400   24.0580 C   0  0  0  0  0  0  0  0  0  0  0  0
   10.9610   -3.7390   24.8590 C   0  0  0  0  0  0  0  0  0  0  0  0
   11.4520   -4.3750   26.1040 C   0  0  0  0  0  0  0  0  0  0  0  0
   12.9200   -4.0090   26.4470 C   0  0  0  0  0  0  0  0  0  0  0  0
   13.7260   -3.0630   25.5590 C   0  0  0  0  0  0  0  0  0  0  0  0
   11.7240   -1.3820   24.5770 C   0  0  0  0  0  0  0  0  0  0  0  0
   10.2140   -1.1570   24.6810 C   0  0  0  0  0  0  0  0  0  0  0  0
    9.5560   -0.9930   23.5240 C   0  0  0  0  0  0  0  0  0  0  0  0
    8.2110   -0.7560   23.2480 N   0  0  0  0  0  0  0  0  0  0  0  0
    7.8710   -0.0390   22.0920 C   0  0  0  0  0  0  0  0  0  0  0  0
    8.4280    1.0160   21.7710 O   0  0  0  0  0  0  0  0  0  0  0  0
    6.8760   -0.6410   21.3410 N   0  0  0  0  0  0  0  0  0  0  0  0
    6.3180    0.0080   20.1350 C   0  0  0  0  0  0  0  0  0  0  0  0
    5.1480    0.7320   20.2910 C   0  0  0  0  0  0  0  0  0  0  0  0
    4.6140    1.3670   19.1680 C   0  0  0  0  0  0  0  0  0  0  0  0
    5.2270    1.2840   17.9290 C   0  0  0  0  0  0  0  0  0  0  0  0
    6.3580    0.5800   17.7660 N   0  0  0  0  0  0  0  0  0  0  0  0
    6.8770   -0.0410   18.8600 C   0  0  0  0  0  0  0  0  0  0  0  0
  1  2  1  0
  2  3  2  0
  3  4  1  0
  4  5  1  0
  5  6  1  0
  6  7  2  0
  7  8  1  0
  8  9  2  0
  9 10  1  0
  6 11  1  0
 10 11  2  0
  4 12  2  0
 12 13  1  0
  2 14  1  0
 13 14  2  0
 14 15  1  0
 15 16  1  0
 16 17  2  0
 16 18  1  0
 18 19  1  0
 19 20  2  0
 20 21  1  0
 21 22  2  0
 22 23  1  0
 19 24  1  0
 23 24  2  0
M  END
