pyridine_urea_3728
     RDKit          3D

 22 23  0  0  0  0  0  0  0  0999 V2000
   11.8780   -2.7050   24.6840 C   0  0  0  0  0  0  0  0  0  0  0  0
   13.2780   -2.1550   24.6380 C   0  0  0  0  0  0  0  0  0  0  0  0
   13.7220   -2.5850   23.2750 C   0  0  0  0  0  0  0  0  0  0  0  0
   14.0750   -2.7140   25.7810 C   0  0  0  0  0  0  0  0  0  0  0  0
   13.1810   -0.7340   24.7580 O   0  0  0  0  0  0  0  0  0  0  0  0
   12.8430   -0.1510   23.5420 C   0  0  2  0  0  0  0  0  0  0  0  0
   11.8730    0.9610   23.6220 C   0  0  0  0  0  0  0  0  0  0  0  0
   10.7550    0.3380   22.8740 C   0  0  2  0  0  0  0  0  0  0  0  0
    9.6200    0.0660   23.6000 C   0  0  0  0  0  0  0  0  0  0  0  0
    8.6870   -0.5300   22.6850 N   0  0  0  0  0  0  0  0  0  0  0  0
    8.2480    0.0560   21.5490 C   0  0  0  0  0  0  0  0  0  0  0  0
    8.8290    1.0910   21.1650 O   0  0  0  0  0  0  0  0  0  0  0  0
    7.1790   -0.5410   20.9600 N   0  0  0  0  0  0  0  0  0  0  0  0
    6.4010    0.1160   20.0120 C   0  0  0  0  0  0  0  0  0  0  0  0
    5.2070    0.7880   20.2700 C   0  0  0  0  0  0  0  0  0  0  0  0
    4.5400    1.4250   19.2270 C   0  0  0  0  0  0  0  0  0  0  0  0
    5.1710    1.3350   17.8920 C   0  0  0  0  0  0  0  0  0  0  0  0
    6.3080    0.6770   17.6670 N   0  0  0  0  0  0  0  0  0  0  0  0
    6.8850    0.0910   18.7220 C   0  0  0  0  0  0  0  0  0  0  0  0
   11.6410   -0.9490   22.9080 C   0  0  0  0  0  0  0  0  0  0  0  0
   11.0430   -1.8750   23.7620 C   0  0  0  0  0  0  0  0  0  0  0  0
   11.9800   -1.7020   21.6530 C   0  0  0  0  0  0  0  0  0  0  0  0
  1  2  1  0
  2  3  1  0
  2  4  1  0
  2  5  1  0
  6  5  1  1
  6  7  1  0
  7  8  1  0
  8  9  1  1
  9 10  1  0
 10 11  1  0
 11 12  2  0
 11 13  1  0
 13 14  1  0
 14 15  2  0
 15 16  1  0
 16 17  2  0
 17 18  1  0
 14 19  1  0
 18 19  2  0
  6 20  1  0
  8 20  1  0
 20 21  1  0
 20 22  1  0
M  END
