pyridine_urea_8150
     RDKit          3D

 23 24  0  0  0  0  0  0  0  0999 V2000
    7.9090   -3.2030   26.2060 C   0  0  0  0  0  0  0  0  0  0  0  0
    8.4980   -3.4600   24.8200 C   0  0  0  0  0  0  0  0  0  0  0  0
    8.6330   -2.1910   24.1130 N   0  0  0  0  0  0  0  0  0  0  0  0
    7.4530   -1.3910   24.4980 C   0  0  0  0  0  0  0  0  0  0  0  0
    7.1820   -0.2870   23.7090 C   0  0  0  0  0  0  0  0  0  0  0  0
    8.3640   -0.0380   22.9320 N   0  0  0  0  0  0  0  0  0  0  0  0
    8.2410    0.3790   21.6450 C   0  0  0  0  0  0  0  0  0  0  0  0
    8.8950    1.3150   21.1700 O   0  0  0  0  0  0  0  0  0  0  0  0
    7.2880   -0.3650   21.0010 N   0  0  0  0  0  0  0  0  0  0  0  0
    6.5910    0.2070   19.9680 C   0  0  0  0  0  0  0  0  0  0  0  0
    5.3420    1.0140   20.2920 C   0  0  0  0  0  0  0  0  0  0  0  0
    4.5570    1.6980   19.1910 C   0  0  0  0  0  0  0  0  0  0  0  0
    5.1190    1.5120   17.7900 C   0  0  0  0  0  0  0  0  0  0  0  0
    6.3190    0.6950   17.6220 N   0  0  0  0  0  0  0  0  0  0  0  0
    6.9780    0.0990   18.6740 C   0  0  0  0  0  0  0  0  0  0  0  0
    9.0730   -2.1570   22.7800 C   0  0  0  0  0  0  0  0  0  0  0  0
   10.4580   -1.4820   22.5990 C   0  0  0  0  0  0  0  0  0  0  0  0
   11.6150   -2.1460   22.2100 C   0  0  0  0  0  0  0  0  0  0  0  0
   12.8360   -1.4990   22.0810 C   0  0  0  0  0  0  0  0  0  0  0  0
   12.9790   -0.1420   22.3170 C   0  0  0  0  0  0  0  0  0  0  0  0
   11.8870    0.6180   22.6800 C   0  0  0  0  0  0  0  0  0  0  0  0
   12.1160    2.4810   22.9190 Br  0  0  0  0  0  0  0  0  0  0  0  0
   10.6200    0.0310   22.8480 C   0  0  0  0  0  0  0  0  0  0  0  0
  1  2  1  0
  2  3  1  0
  3  4  1  0
  4  5  1  0
  5  6  1  0
  6  7  1  0
  7  8  2  0
  7  9  1  0
  9 10  1  0
 10 11  2  0
 11 12  1  0
 12 13  2  0
 13 14  1  0
 10 15  1  0
 14 15  2  0
  3 16  1  0
 16 17  1  0
 17 18  2  0
 18 19  1  0
 19 20  2  0
 20 21  1  0
 21 22  1  0
 17 23  1  0
 21 23  2  0
M  END
