pyridine_urea_946
     RDKit          3D

 22 24  0  0  0  0  0  0  0  0999 V2000
    8.5740    0.5110   21.0520 O   0  0  0  0  0  0  0  0  0  0  0  0
    8.3290   -0.6050   21.4870 C   0  0  0  0  0  0  0  0  0  0  0  0
    7.0740   -1.1980   21.0600 N   0  0  0  0  0  0  0  0  0  0  0  0
    6.4250   -0.3980   20.0910 C   0  0  0  0  0  0  0  0  0  0  0  0
    5.2320    0.2830   20.3800 C   0  0  0  0  0  0  0  0  0  0  0  0
    4.6400    1.0720   19.3780 C   0  0  0  0  0  0  0  0  0  0  0  0
    5.2500    1.1610   18.1230 C   0  0  0  0  0  0  0  0  0  0  0  0
    6.3910    0.5140   17.8340 N   0  0  0  0  0  0  0  0  0  0  0  0
    6.9510   -0.2510   18.8160 C   0  0  0  0  0  0  0  0  0  0  0  0
    9.1830   -1.2820   22.3690 N   0  0  0  0  0  0  0  0  0  0  0  0
   10.1940   -0.2820   22.5910 C   0  0  0  0  0  0  0  0  0  0  0  0
   11.7290   -0.5000   22.5400 C   0  0  0  0  0  0  0  0  0  0  0  0
   12.5720    0.6300   22.7040 C   0  0  0  0  0  0  0  0  0  0  0  0
   11.9680    1.9030   22.8990 C   0  0  0  0  0  0  0  0  0  0  0  0
   12.4790    3.1970   23.0300 C   0  0  0  0  0  0  0  0  0  0  0  0
   13.7370    3.6760   22.6710 N   0  0  0  0  0  0  0  0  0  0  0  0
   13.7730    5.0160   22.9630 N   0  0  0  0  0  0  0  0  0  0  0  0
   12.5300    5.3640   23.5060 C   0  0  0  0  0  0  0  0  0  0  0  0
   11.7860    4.2410   23.5250 N   0  0  0  0  0  0  0  0  0  0  0  0
   10.6180    2.0180   22.9710 C   0  0  0  0  0  0  0  0  0  0  0  0
    9.7850    0.9830   22.8330 C   0  0  0  0  0  0  0  0  0  0  0  0
    8.4620    1.2460   22.9230 F   0  0  0  0  0  0  0  0  0  0  0  0
  1  2  2  0
  2  3  1  0
  3  4  1  0
  4  5  2  0
  5  6  1  0
  6  7  2  0
  7  8  1  0
  4  9  1  0
  8  9  2  0
  2 10  1  0
 10 11  1  0
 11 12  2  0
 12 13  1  0
 13 14  2  0
 14 15  1  0
 15 16  2  0
 16 17  1  0
 17 18  2  0
 15 19  1  0
 18 19  1  0
 14 20  1  0
 11 21  1  0
 20 21  2  0
 21 22  1  0
M  END
