pyridine_urea_2092
     RDKit          3D

 18 19  0  0  0  0  0  0  0  0999 V2000
   11.5080   -1.9780   21.8680 C   0  0  0  0  0  0  0  0  0  0  0  0
   10.1470   -1.5010   22.4370 C   0  0  1  0  0  0  0  0  0  0  0  0
   10.4570   -0.3590   23.3710 C   0  0  0  0  0  0  0  0  0  0  0  0
   11.4120   -1.0230   24.3430 C   0  0  0  0  0  0  0  0  0  0  0  0
   12.5140   -0.6240   23.6570 C   0  0  0  0  0  0  0  0  0  0  0  0
   12.7800    0.0350   22.6380 C   0  0  0  0  0  0  0  0  0  0  0  0
   13.5680   -0.6250   23.5530 N   0  0  0  0  0  0  0  0  0  0  0  0
   12.6460   -1.2460   24.5930 O   0  0  0  0  0  0  0  0  0  0  0  0
    9.2450   -1.1610   21.3300 N   0  0  0  0  0  0  0  0  0  0  0  0
    8.4320   -0.0710   21.3670 C   0  0  0  0  0  0  0  0  0  0  0  0
    8.8690    1.0600   21.5170 O   0  0  0  0  0  0  0  0  0  0  0  0
    7.0490   -0.4420   21.1720 N   0  0  0  0  0  0  0  0  0  0  0  0
    6.4230    0.1250   20.0960 C   0  0  0  0  0  0  0  0  0  0  0  0
    5.2510    0.8570   20.3170 C   0  0  0  0  0  0  0  0  0  0  0  0
    4.6370    1.4420   19.2290 C   0  0  0  0  0  0  0  0  0  0  0  0
    5.1750    1.3020   17.9600 C   0  0  0  0  0  0  0  0  0  0  0  0
    6.2880    0.6000   17.7130 N   0  0  0  0  0  0  0  0  0  0  0  0
    6.8850    0.0240   18.7880 C   0  0  0  0  0  0  0  0  0  0  0  0
  2  1  1  6
  2  3  1  0
  3  4  1  0
  4  5  2  0
  5  6  1  0
  6  7  2  0
  4  8  1  0
  7  8  1  0
  2  9  1  0
  9 10  1  0
 10 11  2  0
 10 12  1  0
 12 13  1  0
 13 14  2  0
 14 15  1  0
 15 16  2  0
 16 17  1  0
 13 18  1  0
 17 18  2  0
M  END
