pyridine_urea_3020
     RDKit          3D

 21 23  0  0  0  0  0  0  0  0999 V2000
    8.8160    1.2150   21.1080 O   0  0  0  0  0  0  0  0  0  0  0  0
    8.2480    0.2300   21.6010 C   0  0  0  0  0  0  0  0  0  0  0  0
    7.2940   -0.5340   20.9650 N   0  0  0  0  0  0  0  0  0  0  0  0
    6.5270    0.1230   19.9520 C   0  0  0  0  0  0  0  0  0  0  0  0
    5.2180    0.8820   20.3260 C   0  0  0  0  0  0  0  0  0  0  0  0
    4.5380    1.5090   19.2920 C   0  0  0  0  0  0  0  0  0  0  0  0
    5.1580    1.3820   17.8950 C   0  0  0  0  0  0  0  0  0  0  0  0
    6.2900    0.7010   17.6360 N   0  0  0  0  0  0  0  0  0  0  0  0
    6.9320    0.1000   18.6470 C   0  0  0  0  0  0  0  0  0  0  0  0
    8.4420   -0.2750   22.8500 N   0  0  0  0  0  0  0  0  0  0  0  0
    9.7580   -0.7330   23.2120 C   0  0  1  0  0  0  0  0  0  0  0  0
   10.7450   -0.3980   22.1410 C   0  0  0  0  0  0  0  0  0  0  0  0
   11.8490   -1.1550   22.7770 C   0  0  0  0  0  0  0  0  0  0  0  0
   12.6500   -2.2770   22.3280 C   0  0  0  0  0  0  0  0  0  0  0  0
   13.5030   -2.6050   23.4020 N   0  0  0  0  0  0  0  0  0  0  0  0
   13.5980   -1.9410   24.7240 C   0  0  0  0  0  0  0  0  0  0  0  0
   12.7310   -0.6850   25.1760 C   0  0  0  0  0  0  0  0  0  0  0  0
   12.3870   -1.0200   23.9840 C   0  0  0  0  0  0  0  0  0  0  0  0
   11.5470    0.0220   24.1880 N   0  0  0  0  0  0  0  0  0  0  0  0
   10.2430   -0.2680   24.4040 C   0  0  0  0  0  0  0  0  0  0  0  0
    9.6490   -0.1280   25.4610 O   0  0  0  0  0  0  0  0  0  0  0  0
  1  2  2  0
  2  3  1  0
  3  4  1  0
  4  5  2  0
  5  6  1  0
  6  7  2  0
  7  8  1  0
  4  9  1  0
  8  9  2  0
  2 10  1  0
 11 10  1  6
 11 12  1  0
 12 13  1  0
 13 14  2  0
 14 15  1  0
 15 16  2  0
 16 17  1  0
 13 18  1  0
 17 18  2  0
 18 19  1  0
 11 20  1  0
 19 20  1  0
 20 21  2  0
M  END
