pyridine_urea_4004
     RDKit          3D

 27 29  0  0  0  0  0  0  0  0999 V2000
    8.7330    0.6430   21.2180 O   0  0  0  0  0  0  0  0  0  0  0  0
    8.1340   -0.4010   21.4590 C   0  0  0  0  0  0  0  0  0  0  0  0
    6.8960   -0.7150   20.9990 N   0  0  0  0  0  0  0  0  0  0  0  0
    6.3080   -0.0240   19.9540 C   0  0  0  0  0  0  0  0  0  0  0  0
    5.1120    0.6600   20.1640 C   0  0  0  0  0  0  0  0  0  0  0  0
    4.5300    1.3690   19.1160 C   0  0  0  0  0  0  0  0  0  0  0  0
    5.1740    1.3650   17.8940 C   0  0  0  0  0  0  0  0  0  0  0  0
    6.3230    0.7070   17.6780 N   0  0  0  0  0  0  0  0  0  0  0  0
    6.8600    0.0310   18.7010 C   0  0  0  0  0  0  0  0  0  0  0  0
    8.6780   -1.3660   22.2470 N   0  0  0  0  0  0  0  0  0  0  0  0
    9.8280   -0.9010   22.9650 C   0  0  2  0  0  0  0  0  0  0  0  0
   11.0690   -1.7760   22.8400 C   0  0  0  0  0  0  0  0  0  0  0  0
   11.9760   -0.8020   22.8210 C   0  0  0  0  0  0  0  0  0  0  0  0
   12.0780    0.3950   23.0070 C   0  0  0  0  0  0  0  0  0  0  0  0
   11.4590    1.4040   23.3120 C   0  0  0  0  0  0  0  0  0  0  0  0
   12.6560    1.9420   23.1280 C   0  0  0  0  0  0  0  0  0  0  0  0
   13.6680    0.8860   22.7290 C   0  0  0  0  0  0  0  0  0  0  0  0
   13.3510   -0.7110   22.5370 C   0  0  0  0  0  0  0  0  0  0  0  0
    9.6160   -0.5370   24.4290 C   0  0  0  0  0  0  0  0  0  0  0  0
   10.5750    0.0330   24.9370 O   0  0  0  0  0  0  0  0  0  0  0  0
    8.4300   -0.8770   24.9680 N   0  0  0  0  0  0  0  0  0  0  0  0
    8.4100   -1.0540   26.3130 C   0  0  0  0  0  0  0  0  0  0  0  0
    8.8010    0.0110   27.1150 C   0  0  0  0  0  0  0  0  0  0  0  0
    8.8200   -0.0660   28.5000 C   0  0  0  0  0  0  0  0  0  0  0  0
    8.4330   -1.2500   29.1180 C   0  0  0  0  0  0  0  0  0  0  0  0
    8.0340   -2.3430   28.3440 C   0  0  0  0  0  0  0  0  0  0  0  0
    8.0220   -2.2450   26.9470 C   0  0  0  0  0  0  0  0  0  0  0  0
  1  2  2  0
  2  3  1  0
  3  4  1  0
  4  5  2  0
  5  6  1  0
  6  7  2  0
  7  8  1  0
  4  9  1  0
  8  9  2  0
  2 10  1  0
 10 11  1  0
 11 12  1  1
 12 13  1  0
 13 14  2  0
 14 15  1  0
 15 16  2  0
 16 17  1  0
 13 18  1  0
 17 18  2  0
 11 19  1  0
 19 20  2  0
 19 21  1  0
 21 22  1  0
 22 23  2  0
 23 24  1  0
 24 25  2  0
 25 26  1  0
 22 27  1  0
 26 27  2  0
M  END
