pyridine_urea_475
     RDKit          3D

 25 26  0  0  0  0  0  0  0  0999 V2000
   13.3350   -2.2960   24.9070 C   0  0  0  0  0  0  0  0  0  0  0  0
   12.5950   -0.9700   25.0000 C   0  0  0  0  0  0  0  0  0  0  0  0
   11.1920   -1.1610   25.1750 O   0  0  0  0  0  0  0  0  0  0  0  0
   10.2360   -0.1640   25.1150 C   0  0  0  0  0  0  0  0  0  0  0  0
    9.7680    0.3150   26.1300 O   0  0  0  0  0  0  0  0  0  0  0  0
    9.7300    0.2320   23.8970 C   0  0  0  0  0  0  0  0  0  0  0  0
    9.7160   -0.9070   23.1590 C   0  0  1  0  0  0  0  0  0  0  0  0
    8.7870   -1.1780   22.1800 N   0  0  0  0  0  0  0  0  0  0  0  0
    8.2180   -0.0400   21.4750 C   0  0  0  0  0  0  0  0  0  0  0  0
    8.7900    1.0280   21.3160 O   0  0  0  0  0  0  0  0  0  0  0  0
    6.9780   -0.3960   21.0520 N   0  0  0  0  0  0  0  0  0  0  0  0
    6.3170    0.2170   20.0430 C   0  0  0  0  0  0  0  0  0  0  0  0
    5.1590    0.9650   20.1900 C   0  0  0  0  0  0  0  0  0  0  0  0
    4.5770    1.5700   19.0730 C   0  0  0  0  0  0  0  0  0  0  0  0
    5.1640    1.4170   17.8270 C   0  0  0  0  0  0  0  0  0  0  0  0
    6.2730    0.7010   17.6120 N   0  0  0  0  0  0  0  0  0  0  0  0
    6.8430    0.0930   18.7770 C   0  0  0  0  0  0  0  0  0  0  0  0
   10.9120   -1.1070   22.5870 C   0  0  0  0  0  0  0  0  0  0  0  0
   11.2170   -2.1690   21.9070 C   0  0  0  0  0  0  0  0  0  0  0  0
   12.4760   -2.2110   21.4530 C   0  0  0  0  0  0  0  0  0  0  0  0
   13.0170   -3.5850   20.5960 Cl  0  0  0  0  0  0  0  0  0  0  0  0
   13.3570   -1.1390   21.6870 C   0  0  0  0  0  0  0  0  0  0  0  0
   13.2030    0.1270   22.3860 C   0  0  0  0  0  0  0  0  0  0  0  0
   12.4350    1.3840   23.2930 Cl  0  0  0  0  0  0  0  0  0  0  0  0
   11.9630   -0.2870   22.6270 C   0  0  0  0  0  0  0  0  0  0  0  0
  1  2  1  0
  2  3  1  0
  3  4  1  0
  4  5  2  0
  4  6  1  0
  7  6  1  6
  7  8  1  0
  8  9  1  0
  9 10  2  0
  9 11  1  0
 11 12  1  0
 12 13  2  0
 13 14  1  0
 14 15  2  0
 15 16  1  0
 12 17  1  0
 16 17  2  0
  7 18  1  0
 18 19  2  0
 19 20  1  0
 20 21  1  0
 20 22  2  0
 22 23  1  0
 23 24  1  0
 18 25  1  0
 23 25  2  0
M  END
