pyridine_urea_669
     RDKit          3D

 24 26  0  0  0  0  0  0  0  0999 V2000
    9.5250    3.9030   24.7930 C   0  0  0  0  0  0  0  0  0  0  0  0
   10.8910    4.4810   24.4470 C   0  0  0  0  0  0  0  0  0  0  0  0
   11.4840    5.2990   25.4480 O   0  0  0  0  0  0  0  0  0  0  0  0
   11.4310    4.1670   23.1150 N   0  0  0  0  0  0  0  0  0  0  0  0
   12.5080    3.1680   22.8830 C   0  0  0  0  0  0  0  0  0  0  0  0
   11.9600    1.8830   22.8410 C   0  0  0  0  0  0  0  0  0  0  0  0
   10.6190    1.9550   22.8960 C   0  0  0  0  0  0  0  0  0  0  0  0
    9.7860    0.9200   22.8220 C   0  0  0  0  0  0  0  0  0  0  0  0
   10.3510   -0.4550   22.6530 C   0  0  0  0  0  0  0  0  0  0  0  0
    9.2710   -1.4430   22.5040 N   0  0  0  0  0  0  0  0  0  0  0  0
    8.4350   -0.6380   21.5730 C   0  0  0  0  0  0  0  0  0  0  0  0
    8.7720    0.4680   21.1670 O   0  0  0  0  0  0  0  0  0  0  0  0
    7.2180   -1.0160   21.0770 N   0  0  0  0  0  0  0  0  0  0  0  0
    6.4610   -0.2640   20.1400 C   0  0  0  0  0  0  0  0  0  0  0  0
    5.2510    0.4150   20.4020 C   0  0  0  0  0  0  0  0  0  0  0  0
    4.5930    1.1500   19.3910 C   0  0  0  0  0  0  0  0  0  0  0  0
    5.1830    1.2120   18.0370 C   0  0  0  0  0  0  0  0  0  0  0  0
    6.3760    0.5210   17.8320 N   0  0  0  0  0  0  0  0  0  0  0  0
    6.9660   -0.1780   18.8450 C   0  0  0  0  0  0  0  0  0  0  0  0
   11.7570   -0.6080   22.6270 C   0  0  0  0  0  0  0  0  0  0  0  0
   12.5720    0.5770   22.7270 C   0  0  0  0  0  0  0  0  0  0  0  0
   11.7240    5.3720   22.5150 C   0  0  0  0  0  0  0  0  0  0  0  0
   12.7550    5.9690   23.0150 C   0  0  0  0  0  0  0  0  0  0  0  0
   13.1580    5.7460   21.8140 C   0  0  0  0  0  0  0  0  0  0  0  0
  1  2  1  0
  2  3  2  0
  2  4  1  0
  4  5  1  0
  5  6  1  0
  6  7  2  0
  7  8  1  0
  8  9  2  0
  9 10  1  0
 10 11  1  0
 11 12  2  0
 11 13  1  0
 13 14  1  0
 14 15  2  0
 15 16  1  0
 16 17  2  0
 17 18  1  0
 14 19  1  0
 18 19  2  0
  9 20  1  0
  6 21  1  0
 20 21  2  0
  4 22  1  0
 22 23  1  0
 22 24  1  0
 23 24  1  0
M  END
