pyridine_urea_14436
     RDKit          3D

 23 24  0  0  0  0  0  0  0  0999 V2000
   13.3370    5.8770   22.0320 C   0  0  0  0  0  0  0  0  0  0  0  0
   12.1260    5.1640   22.5180 C   0  0  0  0  0  0  0  0  0  0  0  0
   12.1490    3.7940   22.0490 N   0  0  0  0  0  0  0  0  0  0  0  0
   12.0350    2.7690   22.9570 C   0  0  0  0  0  0  0  0  0  0  0  0
   11.0130    2.6220   23.6020 O   0  0  0  0  0  0  0  0  0  0  0  0
   13.2040    2.0080   23.0210 N   0  0  0  0  0  0  0  0  0  0  0  0
   13.3780    0.5110   23.1160 C   0  0  0  0  0  0  0  0  0  0  0  0
   12.1830    0.0500   23.0440 C   0  0  0  0  0  0  0  0  0  0  0  0
   11.1580    0.6970   23.8910 C   0  0  0  0  0  0  0  0  0  0  0  0
    9.7880    0.1920   23.7350 C   0  0  0  0  0  0  0  0  0  0  0  0
    9.5960   -0.9170   22.7340 C   0  0  0  0  0  0  0  0  0  0  0  0
    8.3940   -1.4020   22.4540 N   0  0  0  0  0  0  0  0  0  0  0  0
    7.7700   -0.6450   21.4490 C   0  0  0  0  0  0  0  0  0  0  0  0
    8.2910    0.3880   21.0390 O   0  0  0  0  0  0  0  0  0  0  0  0
    6.6050   -1.0490   20.9520 N   0  0  0  0  0  0  0  0  0  0  0  0
    6.1480   -0.2450   19.9640 C   0  0  0  0  0  0  0  0  0  0  0  0
    4.9910    0.4950   20.1750 C   0  0  0  0  0  0  0  0  0  0  0  0
    4.5430    1.3130   19.1480 C   0  0  0  0  0  0  0  0  0  0  0  0
    5.2570    1.3620   17.9680 C   0  0  0  0  0  0  0  0  0  0  0  0
    6.3810    0.6490   17.7530 N   0  0  0  0  0  0  0  0  0  0  0  0
    6.8050   -0.1420   18.7580 C   0  0  0  0  0  0  0  0  0  0  0  0
   10.6770   -1.4460   22.0380 C   0  0  0  0  0  0  0  0  0  0  0  0
   11.9560   -0.9810   22.1850 C   0  0  0  0  0  0  0  0  0  0  0  0
  1  2  1  0
  2  3  1  0
  3  4  1  0
  4  5  2  0
  4  6  1  0
  6  7  1  0
  7  8  1  0
  8  9  2  0
  9 10  1  0
 10 11  2  0
 11 12  1  0
 12 13  1  0
 13 14  2  0
 13 15  1  0
 15 16  1  0
 16 17  2  0
 17 18  1  0
 18 19  2  0
 19 20  1  0
 16 21  1  0
 20 21  2  0
 11 22  1  0
  8 23  1  0
 22 23  2  0
M  END
