pyridine_urea_4865
     RDKit          3D

 21 22  0  0  0  0  0  0  0  0999 V2000
    8.3660    1.4360   20.9590 O   0  0  0  0  0  0  0  0  0  0  0  0
    8.2300    0.2830   21.3770 C   0  0  0  0  0  0  0  0  0  0  0  0
    7.1270   -0.4580   21.1030 N   0  0  0  0  0  0  0  0  0  0  0  0
    6.5000    0.0920   19.9540 C   0  0  0  0  0  0  0  0  0  0  0  0
    5.2330    0.9140   20.2080 C   0  0  0  0  0  0  0  0  0  0  0  0
    4.5770    1.5170   19.1430 C   0  0  0  0  0  0  0  0  0  0  0  0
    5.1190    1.3410   17.8740 C   0  0  0  0  0  0  0  0  0  0  0  0
    6.2470    0.5860   17.6970 N   0  0  0  0  0  0  0  0  0  0  0  0
    6.9520   -0.0480   18.7100 C   0  0  0  0  0  0  0  0  0  0  0  0
    9.1540   -0.3480   22.0990 N   0  0  0  0  0  0  0  0  0  0  0  0
   10.1990   -0.8560   22.7130 C   0  0  0  0  0  0  0  0  0  0  0  0
   10.2240   -0.8950   24.0560 C   0  0  0  0  0  0  0  0  0  0  0  0
   11.3410   -1.4090   24.6350 C   0  0  0  0  0  0  0  0  0  0  0  0
   12.4080   -1.8650   23.8840 C   0  0  0  0  0  0  0  0  0  0  0  0
   13.5180   -2.3810   24.5430 C   0  0  0  0  0  0  0  0  0  0  0  0
   13.2900   -3.3850   25.1870 O   0  0  0  0  0  0  0  0  0  0  0  0
   12.3220   -1.8030   22.5100 C   0  0  0  0  0  0  0  0  0  0  0  0
   13.2700   -2.2090   21.6750 N   0  0  0  0  0  0  0  0  0  0  0  0
   13.0670   -3.3010   21.1460 O   0  0  0  0  0  0  0  0  0  0  0  0
   13.8030   -1.2890   21.0580 O   0  0  0  0  0  0  0  0  0  0  0  0
   11.2210   -1.3130   21.9490 C   0  0  0  0  0  0  0  0  0  0  0  0
  1  2  2  0
  2  3  1  0
  3  4  1  0
  4  5  2  0
  5  6  1  0
  6  7  2  0
  7  8  1  0
  4  9  1  0
  8  9  2  0
  2 10  1  0
 10 11  1  0
 11 12  2  0
 12 13  1  0
 13 14  2  0
 14 15  1  0
 15 16  1  0
 14 17  1  0
 17 18  1  0
 18 19  2  0
 18 20  1  0
 11 21  1  0
 17 21  2  0
M  CHG  2  18   1  20  -1
M  END
