pyridine_urea_6452
     RDKit          3D

 18 19  0  0  0  0  0  0  0  0999 V2000
    8.7110    1.5680   21.1240 O   0  0  0  0  0  0  0  0  0  0  0  0
    8.5460    0.3650   21.2980 C   0  0  0  0  0  0  0  0  0  0  0  0
    9.5750   -0.4050   21.7610 N   0  0  0  0  0  0  0  0  0  0  0  0
   10.5680    0.3070   22.5810 C   0  0  0  0  0  0  0  0  0  0  0  0
   11.8830   -0.4430   22.7200 C   0  0  0  0  0  0  0  0  0  0  0  0
   11.2140   -1.3950   23.3170 C   0  0  0  0  0  0  0  0  0  0  0  0
   10.0320   -1.7160   23.6900 C   0  0  0  0  0  0  0  0  0  0  0  0
    8.3630   -1.2440   23.7500 Cl  0  0  0  0  0  0  0  0  0  0  0  0
   10.9440   -2.9540   24.1350 S   0  0  0  0  0  0  0  0  0  0  0  0
   12.2710   -1.8780   23.3680 C   0  0  0  0  0  0  0  0  0  0  0  0
   13.7570   -2.6280   23.4830 Cl  0  0  0  0  0  0  0  0  0  0  0  0
    7.3940   -0.3300   21.0170 N   0  0  0  0  0  0  0  0  0  0  0  0
    6.4970    0.2250   20.0980 C   0  0  0  0  0  0  0  0  0  0  0  0
    5.3430    0.8380   20.4580 C   0  0  0  0  0  0  0  0  0  0  0  0
    4.6360    1.3590   19.2250 C   0  0  0  0  0  0  0  0  0  0  0  0
    5.1270    1.2100   17.9420 C   0  0  0  0  0  0  0  0  0  0  0  0
    6.2600    0.5790   17.7030 N   0  0  0  0  0  0  0  0  0  0  0  0
    6.8810    0.1220   18.7770 C   0  0  0  0  0  0  0  0  0  0  0  0
  1  2  2  0
  2  3  1  0
  3  4  1  0
  4  5  1  0
  5  6  1  0
  6  7  2  0
  7  8  1  0
  7  9  1  0
  5 10  2  0
  9 10  1  0
 10 11  1  0
  2 12  1  0
 12 13  1  0
 13 14  2  0
 14 15  1  0
 15 16  2  0
 16 17  1  0
 13 18  1  0
 17 18  2  0
M  END
