pyridine_urea_15253
     RDKit          3D

 16 17  0  0  0  0  0  0  0  0999 V2000
    9.1160    0.5040   21.4940 O   0  0  0  0  0  0  0  0  0  0  0  0
    8.4260   -0.4980   21.6430 C   0  0  0  0  0  0  0  0  0  0  0  0
    8.8110   -1.6050   22.3900 N   0  0  0  0  0  0  0  0  0  0  0  0
   10.1050   -1.7410   23.0440 C   0  0  0  0  0  0  0  0  0  0  0  0
   11.2000   -0.9690   22.3570 C   0  0  1  0  0  0  0  0  0  0  0  0
   11.2160    0.4080   22.9860 C   0  0  0  0  0  0  0  0  0  0  0  0
   12.6780    0.2410   23.2980 C   0  0  2  0  0  0  0  0  0  0  0  0
   13.2290    1.1520   22.7090 O   0  0  0  0  0  0  0  0  0  0  0  0
   12.6350   -1.0900   22.5920 C   0  0  0  0  0  0  0  0  0  0  0  0
    7.1600   -0.7160   21.1260 N   0  0  0  0  0  0  0  0  0  0  0  0
    6.5210   -0.0390   20.0680 C   0  0  0  0  0  0  0  0  0  0  0  0
    5.3550    0.6960   20.3310 C   0  0  0  0  0  0  0  0  0  0  0  0
    4.7060    1.3790   19.2980 C   0  0  0  0  0  0  0  0  0  0  0  0
    5.2420    1.3080   18.0330 C   0  0  0  0  0  0  0  0  0  0  0  0
    6.3550    0.6100   17.7540 N   0  0  0  0  0  0  0  0  0  0  0  0
    6.9640   -0.0460   18.7650 C   0  0  0  0  0  0  0  0  0  0  0  0
  1  2  2  0
  2  3  1  0
  3  4  1  0
  5  4  1  1
  5  6  1  0
  6  7  1  0
  7  8  1  6
  5  9  1  0
  7  9  1  0
  2 10  1  0
 10 11  1  0
 11 12  2  0
 12 13  1  0
 13 14  2  0
 14 15  1  0
 11 16  1  0
 15 16  2  0
M  END
