pyridine_urea_3354
     RDKit          3D

 19 20  0  0  0  0  0  0  0  0999 V2000
   12.3640    3.8320   22.1700 C   0  0  0  0  0  0  0  0  0  0  0  0
   11.0810    3.0240   23.1100 S   0  0  0  0  0  0  0  0  0  0  0  0
   10.9870    1.1800   22.8600 C   0  0  0  0  0  0  0  0  0  0  0  0
    9.7440    0.6790   22.7610 C   0  0  0  0  0  0  0  0  0  0  0  0
    9.6050   -0.6730   22.5450 C   0  0  0  0  0  0  0  0  0  0  0  0
    8.4650   -1.2810   22.3810 N   0  0  0  0  0  0  0  0  0  0  0  0
    7.8760   -0.5400   21.4260 C   0  0  0  0  0  0  0  0  0  0  0  0
    8.3650    0.5150   21.0420 O   0  0  0  0  0  0  0  0  0  0  0  0
    6.7490   -1.0640   20.9650 N   0  0  0  0  0  0  0  0  0  0  0  0
    6.1960   -0.2640   20.0250 C   0  0  0  0  0  0  0  0  0  0  0  0
    5.0410    0.5100   20.1830 C   0  0  0  0  0  0  0  0  0  0  0  0
    4.4920    1.4010   19.0660 C   0  0  0  0  0  0  0  0  0  0  0  0
    5.1840    1.4150   17.8720 C   0  0  0  0  0  0  0  0  0  0  0  0
    6.2980    0.6430   17.7620 N   0  0  0  0  0  0  0  0  0  0  0  0
    6.8140   -0.1760   18.7790 C   0  0  0  0  0  0  0  0  0  0  0  0
   10.8070   -1.5830   22.4470 C   0  0  0  0  0  0  0  0  0  0  0  0
   12.0380   -0.9990   22.5710 C   0  0  0  0  0  0  0  0  0  0  0  0
   12.0940    0.3650   22.7680 C   0  0  0  0  0  0  0  0  0  0  0  0
   13.5970    0.9680   22.8660 Cl  0  0  0  0  0  0  0  0  0  0  0  0
  1  2  1  0
  2  3  1  0
  3  4  2  0
  4  5  1  0
  5  6  1  0
  6  7  1  0
  7  8  2  0
  7  9  1  0
  9 10  1  0
 10 11  2  0
 11 12  1  0
 12 13  2  0
 13 14  1  0
 10 15  1  0
 14 15  2  0
  5 16  2  0
 16 17  1  0
  3 18  1  0
 17 18  2  0
 18 19  1  0
M  END
