pyridine_urea_14585
     RDKit          3D

 21 23  0  0  0  0  0  0  0  0999 V2000
    8.5620    1.2100   21.0600 O   0  0  0  0  0  0  0  0  0  0  0  0
    7.8610    0.2950   21.5310 C   0  0  0  0  0  0  0  0  0  0  0  0
    8.0370   -0.2500   22.7290 N   0  0  0  0  0  0  0  0  0  0  0  0
    9.2980   -0.3810   23.1530 C   0  0  0  0  0  0  0  0  0  0  0  0
   10.2930   -0.6380   22.2560 C   0  0  0  0  0  0  0  0  0  0  0  0
   11.5350   -0.7670   22.6870 C   0  0  0  0  0  0  0  0  0  0  0  0
   11.7670   -0.6420   24.0150 C   0  0  0  0  0  0  0  0  0  0  0  0
   13.0020   -0.8190   24.2300 C   0  0  1  0  0  0  0  0  0  0  0  0
   13.3140   -2.2880   24.1580 C   0  0  0  0  0  0  0  0  0  0  0  0
   13.3500   -2.6290   22.8220 C   0  0  0  0  0  0  0  0  0  0  0  0
   13.7200   -1.6190   22.1770 O   0  0  0  0  0  0  0  0  0  0  0  0
   13.3850   -0.3740   22.8030 C   0  0  0  0  0  0  0  0  0  0  0  0
   10.8810   -0.3870   25.0180 C   0  0  0  0  0  0  0  0  0  0  0  0
    9.5990   -0.2410   24.6100 C   0  0  0  0  0  0  0  0  0  0  0  0
    6.8110   -0.3280   20.9740 N   0  0  0  0  0  0  0  0  0  0  0  0
    6.3210    0.2220   19.7780 C   0  0  0  0  0  0  0  0  0  0  0  0
    5.1620    0.9580   20.0370 C   0  0  0  0  0  0  0  0  0  0  0  0
    4.5500    1.6170   18.9710 C   0  0  0  0  0  0  0  0  0  0  0  0
    5.1260    1.5070   17.7130 C   0  0  0  0  0  0  0  0  0  0  0  0
    6.2450    0.7670   17.5130 N   0  0  0  0  0  0  0  0  0  0  0  0
    6.8560    0.1120   18.5500 C   0  0  0  0  0  0  0  0  0  0  0  0
  1  2  2  0
  2  3  1  0
  3  4  1  0
  4  5  2  0
  5  6  1  0
  6  7  2  0
  8  7  1  6
  8  9  1  0
  9 10  1  0
 10 11  1  0
  8 12  1  0
 11 12  1  0
  7 13  1  0
  4 14  1  0
 13 14  2  0
  2 15  1  0
 15 16  1  0
 16 17  2  0
 17 18  1  0
 18 19  2  0
 19 20  1  0
 16 21  1  0
 20 21  2  0
M  END
