pyridine_urea_12970
     RDKit          3D

 19 20  0  0  0  0  0  0  0  0999 V2000
   10.9230   -1.9240   22.3010 C   0  0  0  0  0  0  0  0  0  0  0  0
   10.2480   -0.5600   22.5700 C   0  0  2  0  0  0  0  0  0  0  0  0
   10.6830    0.0320   23.9160 C   0  0  0  0  0  0  0  0  0  0  0  0
   12.0440    0.1150   24.1310 C   0  0  0  0  0  0  0  0  0  0  0  0
   12.7970    0.3410   23.0020 C   0  0  0  0  0  0  0  0  0  0  0  0
   13.0800   -0.8090   22.3110 C   0  0  0  0  0  0  0  0  0  0  0  0
   13.5080   -1.8910   23.0010 O   0  0  0  0  0  0  0  0  0  0  0  0
   13.0920   -2.0680   24.3610 C   0  0  0  0  0  0  0  0  0  0  0  0
   12.4290   -0.9620   24.9440 C   0  0  0  0  0  0  0  0  0  0  0  0
    8.8130   -0.7010   22.5580 N   0  0  0  0  0  0  0  0  0  0  0  0
    8.3020    0.1140   21.6050 C   0  0  0  0  0  0  0  0  0  0  0  0
    8.9380    1.3100   21.2110 O   0  0  0  0  0  0  0  0  0  0  0  0
    7.0910   -0.3720   21.1040 N   0  0  0  0  0  0  0  0  0  0  0  0
    6.4830    0.1580   20.0070 C   0  0  0  0  0  0  0  0  0  0  0  0
    5.3390    0.8910   20.3140 C   0  0  0  0  0  0  0  0  0  0  0  0
    4.6370    1.5270   19.1680 C   0  0  0  0  0  0  0  0  0  0  0  0
    5.1460    1.3590   17.9070 C   0  0  0  0  0  0  0  0  0  0  0  0
    6.2490    0.6360   17.6260 N   0  0  0  0  0  0  0  0  0  0  0  0
    6.9110    0.0340   18.7080 C   0  0  0  0  0  0  0  0  0  0  0  0
  2  1  1  1
  2  3  1  0
  3  4  1  0
  4  5  1  0
  5  6  1  0
  6  7  1  0
  7  8  1  0
  4  9  1  0
  8  9  1  0
  2 10  1  0
 10 11  1  0
 11 12  2  0
 11 13  1  0
 13 14  1  0
 14 15  2  0
 15 16  1  0
 16 17  2  0
 17 18  1  0
 14 19  1  0
 18 19  2  0
M  END
