pyridine_urea_8804
     RDKit          3D

 20 21  0  0  0  0  0  0  0  0999 V2000
   13.3860   -1.9120   22.4380 C   0  0  0  0  0  0  0  0  0  0  0  0
   12.2510   -1.1290   23.0780 C   0  0  0  0  0  0  0  0  0  0  0  0
   12.0040   -1.8300   24.4420 C   0  0  0  0  0  0  0  0  0  0  0  0
   11.1270   -1.3780   22.0510 C   0  0  0  0  0  0  0  0  0  0  0  0
   12.7520    0.3200   23.2880 C   0  0  0  0  0  0  0  0  0  0  0  0
   11.6560    0.9400   23.4940 C   0  0  0  0  0  0  0  0  0  0  0  0
   10.3900    0.8030   23.5800 C   0  0  0  0  0  0  0  0  0  0  0  0
   10.2190   -0.5510   23.3530 C   0  0  0  0  0  0  0  0  0  0  0  0
    8.9300   -0.7480   22.6890 N   0  0  0  0  0  0  0  0  0  0  0  0
    8.4720    0.0620   21.6680 C   0  0  0  0  0  0  0  0  0  0  0  0
    9.0280    1.1140   21.3210 O   0  0  0  0  0  0  0  0  0  0  0  0
    7.2860   -0.4620   21.1080 N   0  0  0  0  0  0  0  0  0  0  0  0
    6.6120    0.0940   20.0520 C   0  0  0  0  0  0  0  0  0  0  0  0
    5.4860    0.8220   20.4200 C   0  0  0  0  0  0  0  0  0  0  0  0
    4.7600    1.4470   19.2930 C   0  0  0  0  0  0  0  0  0  0  0  0
    5.1360    1.3400   17.9840 C   0  0  0  0  0  0  0  0  0  0  0  0
    6.2320    0.6160   17.6660 N   0  0  0  0  0  0  0  0  0  0  0  0
    6.9590   -0.0030   18.7170 C   0  0  0  0  0  0  0  0  0  0  0  0
   11.1910    1.9020   23.7020 N   0  0  0  0  0  0  0  0  0  0  0  0
   12.5260    1.5650   23.5280 O   0  0  0  0  0  0  0  0  0  0  0  0
  2  1  1  0
  2  3  1  0
  2  4  1  0
  2  5  1  0
  5  6  2  0
  6  7  1  0
  7  8  1  0
  8  9  1  0
  9 10  1  0
 10 11  2  0
 10 12  1  0
 12 13  1  0
 13 14  2  0
 14 15  1  0
 15 16  2  0
 16 17  1  0
 13 18  1  0
 17 18  2  0
  7 19  2  0
  5 20  1  0
 19 20  1  0
M  END
