pyridine_urea_97
     RDKit          3D

 19 20  0  0  0  0  0  0  0  0999 V2000
   10.1540   -1.7830   22.0950 C   0  0  0  0  0  0  0  0  0  0  0  0
    9.9960   -1.1990   23.1310 C   0  0  1  0  0  0  0  0  0  0  0  0
   10.3280   -0.2520   24.2790 C   0  0  0  0  0  0  0  0  0  0  0  0
   11.6580    0.1400   23.8370 C   0  0  0  0  0  0  0  0  0  0  0  0
   12.7130    0.8400   23.3620 C   0  0  0  0  0  0  0  0  0  0  0  0
   13.0240    2.2230   22.8530 C   0  0  0  0  0  0  0  0  0  0  0  0
   11.6250    2.4560   23.1480 N   0  0  0  0  0  0  0  0  0  0  0  0
   11.0090    1.3750   23.6370 N   0  0  0  0  0  0  0  0  0  0  0  0
    9.6460    1.6510   23.9190 C   0  0  0  0  0  0  0  0  0  0  0  0
    8.6500   -0.7060   22.8150 N   0  0  0  0  0  0  0  0  0  0  0  0
    8.2990   -0.0330   21.6140 C   0  0  0  0  0  0  0  0  0  0  0  0
    8.9360    1.1720   21.1640 O   0  0  0  0  0  0  0  0  0  0  0  0
    7.2780   -0.6950   21.0150 N   0  0  0  0  0  0  0  0  0  0  0  0
    6.5760   -0.0260   20.0790 C   0  0  0  0  0  0  0  0  0  0  0  0
    5.4370    0.7280   20.3930 C   0  0  0  0  0  0  0  0  0  0  0  0
    4.7860    1.3860   19.3570 C   0  0  0  0  0  0  0  0  0  0  0  0
    5.2240    1.3110   18.0680 C   0  0  0  0  0  0  0  0  0  0  0  0
    6.3010    0.5980   17.7270 N   0  0  0  0  0  0  0  0  0  0  0  0
    6.9470   -0.0480   18.7360 C   0  0  0  0  0  0  0  0  0  0  0  0
  2  1  1  6
  2  3  1  0
  3  4  1  0
  4  5  2  0
  5  6  1  0
  6  7  2  0
  4  8  1  0
  7  8  1  0
  8  9  1  0
  2 10  1  0
 10 11  1  0
 11 12  2  0
 11 13  1  0
 13 14  1  0
 14 15  2  0
 15 16  1  0
 16 17  2  0
 17 18  1  0
 14 19  1  0
 18 19  2  0
M  END
