pyridine_urea_14633
     RDKit          3D

 20 21  0  0  0  0  0  0  0  0999 V2000
    8.7420    0.8270   25.3050 C   0  0  0  0  0  0  0  0  0  0  0  0
    9.4740    1.3990   24.5000 O   0  0  0  0  0  0  0  0  0  0  0  0
   10.2960    0.5830   23.7830 C   0  0  0  0  0  0  0  0  0  0  0  0
   11.6620    0.7030   23.8630 C   0  0  0  0  0  0  0  0  0  0  0  0
   12.4990   -0.1300   23.1340 C   0  0  0  0  0  0  0  0  0  0  0  0
   13.7770    0.0160   23.2250 F   0  0  0  0  0  0  0  0  0  0  0  0
   12.0070   -1.1090   22.3150 C   0  0  0  0  0  0  0  0  0  0  0  0
   13.0630   -2.2640   21.3280 Br  0  0  0  0  0  0  0  0  0  0  0  0
   10.6730   -1.2840   22.1750 C   0  0  0  0  0  0  0  0  0  0  0  0
    9.7550   -0.3850   22.9480 C   0  0  0  0  0  0  0  0  0  0  0  0
    8.4160   -0.6050   22.7320 N   0  0  0  0  0  0  0  0  0  0  0  0
    7.8920   -0.0980   21.5720 C   0  0  0  0  0  0  0  0  0  0  0  0
    8.3530    0.9150   21.0510 O   0  0  0  0  0  0  0  0  0  0  0  0
    6.7800   -0.8830   21.0780 N   0  0  0  0  0  0  0  0  0  0  0  0
    6.2150   -0.0970   19.9770 C   0  0  0  0  0  0  0  0  0  0  0  0
    5.0410    0.6010   20.2160 C   0  0  0  0  0  0  0  0  0  0  0  0
    4.5020    1.3610   19.1840 C   0  0  0  0  0  0  0  0  0  0  0  0
    5.2240    1.3740   17.8930 C   0  0  0  0  0  0  0  0  0  0  0  0
    6.3610    0.6740   17.7050 N   0  0  0  0  0  0  0  0  0  0  0  0
    6.8310   -0.0420   18.7420 C   0  0  0  0  0  0  0  0  0  0  0  0
  1  2  1  0
  2  3  1  0
  3  4  2  0
  4  5  1  0
  5  6  1  0
  5  7  2  0
  7  8  1  0
  7  9  1  0
  3 10  1  0
  9 10  2  0
 10 11  1  0
 11 12  1  0
 12 13  2  0
 12 14  1  0
 14 15  1  0
 15 16  2  0
 16 17  1  0
 17 18  2  0
 18 19  1  0
 15 20  1  0
 19 20  2  0
M  END
