pyridine_urea_12769
     RDKit          3D

 20 21  0  0  0  0  0  0  0  0999 V2000
   10.7890    1.2370   22.8400 C   0  0  0  0  0  0  0  0  0  0  0  0
   10.2800   -0.1970   23.1720 C   0  0  0  0  0  0  0  0  0  0  0  0
   10.7670   -1.1860   22.0880 C   0  0  0  0  0  0  0  0  0  0  0  0
    8.8730   -0.1800   22.8350 N   0  0  0  0  0  0  0  0  0  0  0  0
    8.3610    0.3430   21.6620 C   0  0  0  0  0  0  0  0  0  0  0  0
    8.8260    1.3690   21.1520 O   0  0  0  0  0  0  0  0  0  0  0  0
    7.3100   -0.3770   21.1480 N   0  0  0  0  0  0  0  0  0  0  0  0
    6.5800    0.1350   20.0740 C   0  0  0  0  0  0  0  0  0  0  0  0
    5.4080    0.8500   20.3390 C   0  0  0  0  0  0  0  0  0  0  0  0
    4.6820    1.3900   19.2880 C   0  0  0  0  0  0  0  0  0  0  0  0
    5.1450    1.1970   18.0000 C   0  0  0  0  0  0  0  0  0  0  0  0
    6.2540    0.5110   17.7210 N   0  0  0  0  0  0  0  0  0  0  0  0
    6.9460   -0.0070   18.7540 C   0  0  0  0  0  0  0  0  0  0  0  0
   10.7850   -0.4530   24.4430 C   0  0  0  0  0  0  0  0  0  0  0  0
    9.8330   -0.5080   25.4270 O   0  0  0  0  0  0  0  0  0  0  0  0
   12.1220   -0.5910   24.5960 N   0  0  0  0  0  0  0  0  0  0  0  0
   12.7290   -0.2080   23.3480 C   0  0  0  0  0  0  0  0  0  0  0  0
   13.0980   -1.5430   22.8570 C   0  0  0  0  0  0  0  0  0  0  0  0
   13.0260   -2.5200   23.8010 C   0  0  0  0  0  0  0  0  0  0  0  0
   12.6770   -1.7950   24.9810 C   0  0  0  0  0  0  0  0  0  0  0  0
  1  2  1  0
  2  3  1  0
  2  4  1  0
  4  5  1  0
  5  6  2  0
  5  7  1  0
  7  8  1  0
  8  9  2  0
  9 10  1  0
 10 11  2  0
 11 12  1  0
  8 13  1  0
 12 13  2  0
  2 14  1  0
 14 15  2  0
 14 16  1  0
 16 17  1  0
 17 18  1  0
 18 19  1  0
 16 20  1  0
 19 20  1  0
M  END
