pyridine_urea_3414
     RDKit          3D

 19 20  0  0  0  0  0  0  0  0999 V2000
   12.9080    0.9680   22.9320 C   0  0  0  0  0  0  0  0  0  0  0  0
   12.3570   -0.1630   22.2860 O   0  0  0  0  0  0  0  0  0  0  0  0
   12.0960   -1.2320   23.0760 C   0  0  0  0  0  0  0  0  0  0  0  0
   12.9650   -1.6950   24.0580 C   0  0  0  0  0  0  0  0  0  0  0  0
   12.6200   -2.8420   24.8780 N   0  0  0  0  0  0  0  0  0  0  0  0
   11.4200   -3.4960   24.7070 C   0  0  0  0  0  0  0  0  0  0  0  0
   10.5660   -3.0530   23.7520 C   0  0  0  0  0  0  0  0  0  0  0  0
   10.8870   -1.8790   22.8760 C   0  0  0  0  0  0  0  0  0  0  0  0
    9.9600   -1.5170   21.9220 C   0  0  0  0  0  0  0  0  0  0  0  0
    8.9270   -0.6640   22.4330 N   0  0  0  0  0  0  0  0  0  0  0  0
    8.2800    0.1030   21.5000 C   0  0  0  0  0  0  0  0  0  0  0  0
    8.7570    1.4320   21.1240 O   0  0  0  0  0  0  0  0  0  0  0  0
    7.1890   -0.5550   21.0350 N   0  0  0  0  0  0  0  0  0  0  0  0
    6.4790    0.0830   20.0830 C   0  0  0  0  0  0  0  0  0  0  0  0
    5.3230    0.8110   20.2950 C   0  0  0  0  0  0  0  0  0  0  0  0
    4.6670    1.4430   19.2420 C   0  0  0  0  0  0  0  0  0  0  0  0
    5.2140    1.3210   17.9660 C   0  0  0  0  0  0  0  0  0  0  0  0
    6.3320    0.6160   17.7260 N   0  0  0  0  0  0  0  0  0  0  0  0
    6.9300    0.0180   18.7750 C   0  0  0  0  0  0  0  0  0  0  0  0
  1  2  1  0
  2  3  1  0
  3  4  2  0
  4  5  1  0
  5  6  2  0
  6  7  1  0
  3  8  1  0
  7  8  2  0
  8  9  1  0
  9 10  1  0
 10 11  1  0
 11 12  2  0
 11 13  1  0
 13 14  1  0
 14 15  2  0
 15 16  1  0
 16 17  2  0
 17 18  1  0
 14 19  1  0
 18 19  2  0
M  END
