pyridine_urea_4820
     RDKit          3D

 21 24  0  0  0  0  0  0  0  0999 V2000
    8.2890    1.5960   20.8970 O   0  0  0  0  0  0  0  0  0  0  0  0
    8.1630    0.4490   21.3140 C   0  0  0  0  0  0  0  0  0  0  0  0
    7.0750   -0.3220   21.0590 N   0  0  0  0  0  0  0  0  0  0  0  0
    6.4660    0.1960   19.8990 C   0  0  0  0  0  0  0  0  0  0  0  0
    5.2050    1.0270   20.1440 C   0  0  0  0  0  0  0  0  0  0  0  0
    4.5590    1.6110   19.0690 C   0  0  0  0  0  0  0  0  0  0  0  0
    5.1060    1.4070   17.8100 C   0  0  0  0  0  0  0  0  0  0  0  0
    6.2300    0.6430   17.6450 N   0  0  0  0  0  0  0  0  0  0  0  0
    6.9280    0.0240   18.6700 C   0  0  0  0  0  0  0  0  0  0  0  0
    9.0670   -0.1730   22.0310 N   0  0  0  0  0  0  0  0  0  0  0  0
   10.0340   -0.7080   22.6980 C   0  0  2  0  0  0  0  0  0  0  0  0
    9.9650   -0.5730   23.9700 C   0  0  2  0  0  0  0  0  0  0  0  0
   10.6840    0.1740   24.8250 C   0  0  0  0  0  0  0  0  0  0  0  0
   12.0460    0.0070   24.7450 C   0  0  0  0  0  0  0  0  0  0  0  0
   12.4540   -0.9470   23.8760 C   0  0  0  0  0  0  0  0  0  0  0  0
   13.5270   -1.9630   24.1900 C   0  0  0  0  0  0  0  0  0  0  0  0
   13.8760   -2.8800   23.2050 C   0  0  0  0  0  0  0  0  0  0  0  0
   13.0950   -2.6310   22.0630 C   0  0  0  0  0  0  0  0  0  0  0  0
   13.0620   -1.9590   23.2050 C   0  0  0  0  0  0  0  0  0  0  0  0
   12.0240   -1.1880   22.6120 C   0  0  0  0  0  0  0  0  0  0  0  0
   11.1550   -0.2120   22.7790 C   0  0  1  0  0  0  0  0  0  0  0  0
  1  2  2  0
  2  3  1  0
  3  4  1  0
  4  5  2  0
  5  6  1  0
  6  7  2  0
  7  8  1  0
  4  9  1  0
  8  9  2  0
  2 10  1  0
 11 10  1  6
 11 12  1  0
 12 13  1  6
 13 14  1  0
 14 15  1  0
 15 16  2  0
 16 17  1  0
 17 18  2  0
 18 19  1  0
 15 20  1  0
 19 20  2  0
 11 21  1  0
 12 21  1  0
 21 20  1  1
M  END
