pyridine_urea_6692
     RDKit          3D

 22 23  0  0  0  0  0  0  0  0999 V2000
    8.9940    1.1330   21.2450 O   0  0  0  0  0  0  0  0  0  0  0  0
    8.5340    0.0200   21.5380 C   0  0  0  0  0  0  0  0  0  0  0  0
    9.1240   -0.9030   22.3800 N   0  0  0  0  0  0  0  0  0  0  0  0
   10.2840   -0.7290   23.1700 C   0  0  0  0  0  0  0  0  0  0  0  0
   11.6810   -1.1380   22.6650 C   0  0  0  0  0  0  0  0  0  0  0  0
   12.7810   -0.1330   23.0710 C   0  0  0  0  0  0  0  0  0  0  0  0
   12.2560    0.7980   23.6870 O   0  0  0  0  0  0  0  0  0  0  0  0
   11.6920    1.7140   22.7370 C   0  0  0  0  0  0  0  0  0  0  0  0
   10.9510    2.8790   22.9690 C   0  0  0  0  0  0  0  0  0  0  0  0
   11.6040    4.1090   22.9530 C   0  0  0  0  0  0  0  0  0  0  0  0
   12.5800    4.3220   21.9810 C   0  0  0  0  0  0  0  0  0  0  0  0
   13.2430    5.5260   21.9330 C   0  0  0  0  0  0  0  0  0  0  0  0
   12.9430    6.5250   22.8380 C   0  0  0  0  0  0  0  0  0  0  0  0
   11.9660    6.3480   23.8290 C   0  0  0  0  0  0  0  0  0  0  0  0
   11.2740    5.1060   23.8950 C   0  0  0  0  0  0  0  0  0  0  0  0
    7.3370   -0.4860   21.0710 N   0  0  0  0  0  0  0  0  0  0  0  0
    6.6160    0.0900   20.0570 C   0  0  0  0  0  0  0  0  0  0  0  0
    5.4790    0.8260   20.3360 C   0  0  0  0  0  0  0  0  0  0  0  0
    4.7480    1.4300   19.3390 C   0  0  0  0  0  0  0  0  0  0  0  0
    5.1590    1.3010   18.0360 C   0  0  0  0  0  0  0  0  0  0  0  0
    6.2500    0.5920   17.6970 N   0  0  0  0  0  0  0  0  0  0  0  0
    6.9510    0.0020   18.7120 C   0  0  0  0  0  0  0  0  0  0  0  0
  1  2  2  0
  2  3  1  0
  3  4  1  0
  4  5  1  0
  5  6  1  0
  6  7  1  0
  7  8  1  0
  8  9  1  0
  9 10  1  0
 10 11  2  0
 11 12  1  0
 12 13  2  0
 13 14  1  0
 10 15  1  0
 14 15  2  0
  2 16  1  0
 16 17  1  0
 17 18  2  0
 18 19  1  0
 19 20  2  0
 20 21  1  0
 17 22  1  0
 21 22  2  0
M  END
