pyridine_urea_5128
     RDKit          3D

 20 21  0  0  0  0  0  0  0  0999 V2000
   10.8530    1.1120   23.9590 C   0  0  0  0  0  0  0  0  0  0  0  0
    9.5850    0.3210   24.1100 C   0  0  0  0  0  0  0  0  0  0  0  0
    9.1610    0.0200   25.4090 C   0  0  0  0  0  0  0  0  0  0  0  0
    9.6950   -1.0450   23.3640 C   0  0  1  0  0  0  0  0  0  0  0  0
    8.8210   -1.3010   22.3700 N   0  0  0  0  0  0  0  0  0  0  0  0
    8.3310   -0.3170   21.5830 C   0  0  0  0  0  0  0  0  0  0  0  0
    8.8840    0.7620   21.4060 O   0  0  0  0  0  0  0  0  0  0  0  0
    7.1520   -0.7390   21.0660 N   0  0  0  0  0  0  0  0  0  0  0  0
    6.4870   -0.0400   20.1100 C   0  0  0  0  0  0  0  0  0  0  0  0
    5.3200    0.7160   20.3150 C   0  0  0  0  0  0  0  0  0  0  0  0
    4.6340    1.4830   19.1630 C   0  0  0  0  0  0  0  0  0  0  0  0
    5.2260    1.3910   17.9130 C   0  0  0  0  0  0  0  0  0  0  0  0
    6.3470    0.6420   17.7810 N   0  0  0  0  0  0  0  0  0  0  0  0
    6.9730   -0.0580   18.8150 C   0  0  0  0  0  0  0  0  0  0  0  0
   11.0330   -1.1870   22.7130 C   0  0  0  0  0  0  0  0  0  0  0  0
   11.7320   -1.9420   21.8090 C   0  0  0  0  0  0  0  0  0  0  0  0
   13.1440   -1.4490   21.6550 C   0  0  0  0  0  0  0  0  0  0  0  0
   13.7910   -0.3010   22.3510 N   0  0  0  0  0  0  0  0  0  0  0  0
   12.8680    0.2300   23.1620 C   0  0  0  0  0  0  0  0  0  0  0  0
   12.1560   -0.6550   22.7100 C   0  0  0  0  0  0  0  0  0  0  0  0
  1  2  1  0
  2  3  1  0
  2  4  1  0
  4  5  1  6
  5  6  1  0
  6  7  2  0
  6  8  1  0
  8  9  1  0
  9 10  2  0
 10 11  1  0
 11 12  2  0
 12 13  1  0
  9 14  1  0
 13 14  2  0
  4 15  1  0
 15 16  2  0
 16 17  1  0
 17 18  2  0
 18 19  1  0
 15 20  1  0
 19 20  2  0
M  END
