pyridine_urea_7935
     RDKit          3D

 25 28  0  0  0  0  0  0  0  0999 V2000
    8.8230    1.3700   21.1340 O   0  0  0  0  0  0  0  0  0  0  0  0
    8.5620    0.1690   21.1490 C   0  0  0  0  0  0  0  0  0  0  0  0
    7.3130   -0.3530   21.0040 N   0  0  0  0  0  0  0  0  0  0  0  0
    6.5250    0.1680   19.9990 C   0  0  0  0  0  0  0  0  0  0  0  0
    5.3410    0.8350   20.3050 C   0  0  0  0  0  0  0  0  0  0  0  0
    4.5890    1.3840   19.2710 C   0  0  0  0  0  0  0  0  0  0  0  0
    5.0620    1.2350   17.9860 C   0  0  0  0  0  0  0  0  0  0  0  0
    6.1850    0.5870   17.6700 N   0  0  0  0  0  0  0  0  0  0  0  0
    6.8890    0.0690   18.6820 C   0  0  0  0  0  0  0  0  0  0  0  0
    9.5560   -0.7600   21.2810 N   0  0  0  0  0  0  0  0  0  0  0  0
   10.0390   -0.6360   22.5910 C   0  0  0  0  0  0  0  0  0  0  0  0
   11.5290   -0.6940   22.9350 C   0  0  0  0  0  0  0  0  0  0  0  0
   11.7930   -0.5570   24.3100 C   0  0  0  0  0  0  0  0  0  0  0  0
   10.6220   -0.3960   25.1110 C   0  0  0  0  0  0  0  0  0  0  0  0
   10.3610   -0.2490   26.4870 N   0  0  0  0  0  0  0  0  0  0  0  0
    9.0910   -0.1250   26.8940 C   0  0  0  0  0  0  0  0  0  0  0  0
    8.5780    0.0040   28.1860 C   0  0  0  0  0  0  0  0  0  0  0  0
    7.2970   -0.4780   28.5950 C   0  0  0  0  0  0  0  0  0  0  0  0
    6.8950   -0.3000   29.9450 C   0  0  0  0  0  0  0  0  0  0  0  0
    7.8180    0.3480   30.7550 C   0  0  0  0  0  0  0  0  0  0  0  0
    8.9220    0.6570   30.0230 C   0  0  0  0  0  0  0  0  0  0  0  0
    9.4740    0.6440   29.0360 N   0  0  0  0  0  0  0  0  0  0  0  0
    8.3800   -0.1730   25.7640 N   0  0  0  0  0  0  0  0  0  0  0  0
    9.3180   -0.3420   24.7390 C   0  0  0  0  0  0  0  0  0  0  0  0
    9.0200   -0.4610   23.4720 C   0  0  0  0  0  0  0  0  0  0  0  0
  1  2  2  0
  2  3  1  0
  3  4  1  0
  4  5  2  0
  5  6  1  0
  6  7  2  0
  7  8  1  0
  4  9  1  0
  8  9  2  0
  2 10  1  0
 10 11  1  0
 11 12  2  0
 12 13  1  0
 13 14  2  0
 14 15  1  0
 15 16  1  0
 16 17  1  0
 17 18  2  0
 18 19  1  0
 19 20  2  0
 20 21  1  0
 17 22  1  0
 21 22  2  0
 16 23  2  0
 14 24  1  0
 23 24  1  0
 11 25  1  0
 24 25  2  0
M  END
