pyridine_urea_15017
     RDKit          3D

 19 20  0  0  0  0  0  0  0  0999 V2000
   13.4030   -2.2260   24.8780 C   0  0  0  0  0  0  0  0  0  0  0  0
   11.9670   -2.4530   24.4390 C   0  0  0  0  0  0  0  0  0  0  0  0
   11.1580   -1.3730   23.9460 N   0  0  0  0  0  0  0  0  0  0  0  0
   10.0450   -2.0650   23.7140 C   0  0  0  0  0  0  0  0  0  0  0  0
    8.7700   -1.4970   23.1730 C   0  0  0  0  0  0  0  0  0  0  0  0
    7.6260   -1.7310   24.1600 C   0  0  0  0  0  0  0  0  0  0  0  0
    8.4660   -2.2720   21.9090 C   0  0  0  0  0  0  0  0  0  0  0  0
    8.8610   -0.1100   22.7940 N   0  0  0  0  0  0  0  0  0  0  0  0
    8.3590    0.4090   21.5840 C   0  0  0  0  0  0  0  0  0  0  0  0
    8.8360    1.4280   21.0780 O   0  0  0  0  0  0  0  0  0  0  0  0
    7.3240   -0.3320   21.1100 N   0  0  0  0  0  0  0  0  0  0  0  0
    6.6200    0.1920   20.0800 C   0  0  0  0  0  0  0  0  0  0  0  0
    5.4810    0.9530   20.3790 C   0  0  0  0  0  0  0  0  0  0  0  0
    4.7820    1.4920   19.3190 C   0  0  0  0  0  0  0  0  0  0  0  0
    5.2020    1.2800   18.0330 C   0  0  0  0  0  0  0  0  0  0  0  0
    6.2710    0.5580   17.7040 N   0  0  0  0  0  0  0  0  0  0  0  0
    6.9600    0.0260   18.7440 C   0  0  0  0  0  0  0  0  0  0  0  0
   10.0430   -3.3570   23.9720 N   0  0  0  0  0  0  0  0  0  0  0  0
   11.3800   -3.5450   24.4610 O   0  0  0  0  0  0  0  0  0  0  0  0
  1  2  1  0
  2  3  2  0
  3  4  1  0
  4  5  1  0
  5  6  1  0
  5  7  1  0
  5  8  1  0
  8  9  1  0
  9 10  2  0
  9 11  1  0
 11 12  1  0
 12 13  2  0
 13 14  1  0
 14 15  2  0
 15 16  1  0
 12 17  1  0
 16 17  2  0
  4 18  2  0
  2 19  1  0
 18 19  1  0
M  END
