pyridine_urea_13305
     RDKit          3D

 25 27  0  0  0  0  0  0  0  0999 V2000
   13.7820   -2.5580   23.8790 C   0  0  0  0  0  0  0  0  0  0  0  0
   13.8050   -1.5530   22.8690 O   0  0  0  0  0  0  0  0  0  0  0  0
   12.5680   -1.1850   22.7330 C   0  0  0  0  0  0  0  0  0  0  0  0
   12.0360   -0.0600   23.3370 C   0  0  0  0  0  0  0  0  0  0  0  0
   10.7000    0.1860   23.1820 C   0  0  0  0  0  0  0  0  0  0  0  0
    9.9700   -0.6800   22.4540 C   0  0  0  0  0  0  0  0  0  0  0  0
    8.6360   -0.5160   22.2970 N   0  0  0  0  0  0  0  0  0  0  0  0
    8.1160    0.2620   21.3590 C   0  0  0  0  0  0  0  0  0  0  0  0
    8.5720    1.3600   21.0130 O   0  0  0  0  0  0  0  0  0  0  0  0
    7.0080   -0.3630   20.8710 N   0  0  0  0  0  0  0  0  0  0  0  0
    6.2960    0.2580   19.8980 C   0  0  0  0  0  0  0  0  0  0  0  0
    5.0140    1.0470   20.0810 C   0  0  0  0  0  0  0  0  0  0  0  0
    4.4410    1.6440   18.9790 C   0  0  0  0  0  0  0  0  0  0  0  0
    5.0860    1.4770   17.7690 C   0  0  0  0  0  0  0  0  0  0  0  0
    6.2190    0.7690   17.5810 N   0  0  0  0  0  0  0  0  0  0  0  0
    6.7880    0.1840   18.6330 C   0  0  0  0  0  0  0  0  0  0  0  0
   10.5080   -1.7770   21.8310 C   0  0  0  0  0  0  0  0  0  0  0  0
   11.8210   -2.0790   21.9320 C   0  0  0  0  0  0  0  0  0  0  0  0
   12.3230   -3.2180   21.3000 N   0  0  0  0  0  0  0  0  0  0  0  0
   13.5810   -3.3320   21.2790 C   0  0  0  0  0  0  0  0  0  0  0  0
   13.9760   -4.3170   20.3850 C   0  0  0  0  0  0  0  0  0  0  0  0
   14.4630   -5.5890   20.5360 C   0  0  0  0  0  0  0  0  0  0  0  0
   14.8960   -4.1560   19.4390 C   0  0  0  0  0  0  0  0  0  0  0  0
   12.4250   -4.0260   20.1410 C   0  0  0  0  0  0  0  0  0  0  0  0
   11.6820   -4.4140   19.3110 O   0  0  0  0  0  0  0  0  0  0  0  0
  1  2  1  0
  2  3  1  0
  3  4  2  0
  4  5  1  0
  5  6  2  0
  6  7  1  0
  7  8  1  0
  8  9  2  0
  8 10  1  0
 10 11  1  0
 11 12  2  0
 12 13  1  0
 13 14  2  0
 14 15  1  0
 11 16  1  0
 15 16  2  0
  6 17  1  0
  3 18  1  0
 17 18  2  0
 18 19  1  0
 19 20  1  0
 20 21  1  0
 21 22  1  0
 21 23  1  0
 19 24  1  0
 21 24  1  0
 24 25  2  0
M  END
