pyridine_urea_15250
     RDKit          3D

 16 17  0  0  0  0  0  0  0  0999 V2000
    8.9810    0.5720   21.4060 O   0  0  0  0  0  0  0  0  0  0  0  0
    8.3640   -0.4770   21.5230 C   0  0  0  0  0  0  0  0  0  0  0  0
    8.8450   -1.5770   22.2050 N   0  0  0  0  0  0  0  0  0  0  0  0
   10.0430   -1.4920   23.0060 C   0  0  0  0  0  0  0  0  0  0  0  0
   11.3270   -1.7510   22.2260 C   0  0  0  0  0  0  0  0  0  0  0  0
   12.2490   -0.6090   22.4850 C   0  0  0  0  0  0  0  0  0  0  0  0
   12.6330   -0.5730   23.9250 C   0  0  0  0  0  0  0  0  0  0  0  0
   11.8870    0.6280   24.1940 C   0  0  0  0  0  0  0  0  0  0  0  0
   11.5560    0.8230   22.7520 C   0  0  0  0  0  0  0  0  0  0  0  0
    7.1070   -0.7520   21.0300 N   0  0  0  0  0  0  0  0  0  0  0  0
    6.4010   -0.0230   20.0580 C   0  0  0  0  0  0  0  0  0  0  0  0
    5.2210    0.6960   20.2880 C   0  0  0  0  0  0  0  0  0  0  0  0
    4.6400    1.3750   19.2260 C   0  0  0  0  0  0  0  0  0  0  0  0
    5.2330    1.3280   17.9770 C   0  0  0  0  0  0  0  0  0  0  0  0
    6.3600    0.6420   17.7370 N   0  0  0  0  0  0  0  0  0  0  0  0
    6.9110   -0.0130   18.7740 C   0  0  0  0  0  0  0  0  0  0  0  0
  1  2  2  0
  2  3  1  0
  3  4  1  0
  4  5  1  0
  5  6  1  0
  6  7  1  0
  7  8  1  0
  6  9  1  0
  8  9  1  0
  2 10  1  0
 10 11  1  0
 11 12  2  0
 12 13  1  0
 13 14  2  0
 14 15  1  0
 11 16  1  0
 15 16  2  0
M  END
