pyridine_urea_8803
     RDKit          3D

 20 21  0  0  0  0  0  0  0  0999 V2000
   13.1430   -1.9780   21.4030 C   0  0  0  0  0  0  0  0  0  0  0  0
   11.7940   -1.5700   21.4440 O   0  0  0  0  0  0  0  0  0  0  0  0
   11.3650   -0.9580   22.5730 C   0  0  1  0  0  0  0  0  0  0  0  0
   10.0080   -1.5790   22.9160 C   0  0  0  0  0  0  0  0  0  0  0  0
    9.2020   -1.4780   21.6970 N   0  0  0  0  0  0  0  0  0  0  0  0
    8.4140   -0.3760   21.4390 C   0  0  0  0  0  0  0  0  0  0  0  0
    8.7890    0.7890   21.4650 O   0  0  0  0  0  0  0  0  0  0  0  0
    7.1150   -0.6680   21.0930 N   0  0  0  0  0  0  0  0  0  0  0  0
    6.4510   -0.0130   20.0430 C   0  0  0  0  0  0  0  0  0  0  0  0
    5.2860    0.7150   20.3190 C   0  0  0  0  0  0  0  0  0  0  0  0
    4.6330    1.3770   19.2880 C   0  0  0  0  0  0  0  0  0  0  0  0
    5.1710    1.2860   18.0140 C   0  0  0  0  0  0  0  0  0  0  0  0
    6.2780    0.5940   17.7210 N   0  0  0  0  0  0  0  0  0  0  0  0
    6.8960   -0.0420   18.7380 C   0  0  0  0  0  0  0  0  0  0  0  0
   12.4430   -1.1270   23.5020 C   0  0  0  0  0  0  0  0  0  0  0  0
   12.0230   -0.3520   24.5960 C   0  0  0  0  0  0  0  0  0  0  0  0
   10.9770    0.8900   24.0860 S   0  0  0  0  0  0  0  0  0  0  0  0
   11.5200    2.2180   24.1220 O   0  0  0  0  0  0  0  0  0  0  0  0
    9.6290    0.6110   24.5370 O   0  0  0  0  0  0  0  0  0  0  0  0
   11.1890    0.4350   22.4710 C   0  0  0  0  0  0  0  0  0  0  0  0
  1  2  1  0
  3  2  1  0
  3  4  1  1
  4  5  1  0
  5  6  1  0
  6  7  2  0
  6  8  1  0
  8  9  1  0
  9 10  2  0
 10 11  1  0
 11 12  2  0
 12 13  1  0
  9 14  1  0
 13 14  2  0
  3 15  1  0
 15 16  1  0
 17 16  1  0
 17 18  2  0
 17 19  2  0
  3 20  1  0
 17 20  1  0
M  END
