pyridine_urea_8754
     RDKit          3D

 21 22  0  0  0  0  0  0  0  0999 V2000
   11.9790   -1.6320   21.9880 C   0  0  0  0  0  0  0  0  0  0  0  0
   10.8500   -1.1020   22.8430 C   0  0  1  0  0  0  0  0  0  0  0  0
   11.2030   -0.0370   23.7860 C   0  0  0  0  0  0  0  0  0  0  0  0
   10.8650    1.2530   23.4750 C   0  0  0  0  0  0  0  0  0  0  0  0
   12.1530    1.1010   23.0670 C   0  0  0  0  0  0  0  0  0  0  0  0
   12.6810   -0.2750   23.4310 C   0  0  0  0  0  0  0  0  0  0  0  0
   11.7750   -1.1510   24.1230 C   0  0  0  0  0  0  0  0  0  0  0  0
   12.3340   -2.7170   24.5710 Cl  0  0  0  0  0  0  0  0  0  0  0  0
   10.2900   -0.6640   24.4570 C   0  0  0  0  0  0  0  0  0  0  0  0
    9.8200    0.6240   24.1040 C   0  0  0  0  0  0  0  0  0  0  0  0
    8.2350    1.2160   24.4620 Cl  0  0  0  0  0  0  0  0  0  0  0  0
    9.7200   -0.9730   21.8620 N   0  0  0  0  0  0  0  0  0  0  0  0
    8.8160    0.0580   21.6220 C   0  0  0  0  0  0  0  0  0  0  0  0
    9.0710    1.2400   21.7500 O   0  0  0  0  0  0  0  0  0  0  0  0
    7.5750   -0.4420   21.1800 N   0  0  0  0  0  0  0  0  0  0  0  0
    6.7670    0.1030   20.1410 C   0  0  0  0  0  0  0  0  0  0  0  0
    5.6470    0.8810   20.4780 C   0  0  0  0  0  0  0  0  0  0  0  0
    4.8470    1.4350   19.4690 C   0  0  0  0  0  0  0  0  0  0  0  0
    5.1950    1.1920   18.1500 C   0  0  0  0  0  0  0  0  0  0  0  0
    6.2530    0.4510   17.7830 N   0  0  0  0  0  0  0  0  0  0  0  0
    6.9990   -0.0700   18.7840 C   0  0  0  0  0  0  0  0  0  0  0  0
  2  1  1  6
  2  3  1  0
  3  4  1  0
  4  5  2  0
  5  6  1  0
  6  7  2  0
  7  8  1  0
  7  9  1  0
  4 10  1  0
  9 10  2  0
 10 11  1  0
  2 12  1  0
 12 13  1  0
 13 14  2  0
 13 15  1  0
 15 16  1  0
 16 17  2  0
 17 18  1  0
 18 19  2  0
 19 20  1  0
 16 21  1  0
 20 21  2  0
M  END
