pyridine_urea_6001
     RDKit          3D

 27 29  0  0  0  0  0  0  0  0999 V2000
    8.8560    0.6400   21.4040 O   0  0  0  0  0  0  0  0  0  0  0  0
    8.0090   -0.1770   21.7460 C   0  0  0  0  0  0  0  0  0  0  0  0
    7.7080   -0.5300   23.1270 N   0  0  0  0  0  0  0  0  0  0  0  0
    8.5820   -0.3860   24.2020 C   0  0  0  0  0  0  0  0  0  0  0  0
    9.4420    0.6850   24.2260 C   0  0  0  0  0  0  0  0  0  0  0  0
   10.5830    1.6150   24.0850 C   0  0  0  0  0  0  0  0  0  0  0  0
   11.8750    1.4900   23.5080 C   0  0  0  0  0  0  0  0  0  0  0  0
   12.2300    0.2470   22.9220 C   0  0  0  0  0  0  0  0  0  0  0  0
   13.5040    0.0620   22.3320 C   0  0  0  0  0  0  0  0  0  0  0  0
   14.4650    0.9330   22.5820 O   0  0  0  0  0  0  0  0  0  0  0  0
   13.5320   -1.0840   21.4790 N   0  0  0  0  0  0  0  0  0  0  0  0
   13.3080   -2.2840   22.0440 C   0  0  0  0  0  0  0  0  0  0  0  0
   12.1310   -2.5040   22.6260 C   0  0  0  0  0  0  0  0  0  0  0  0
   10.9600   -2.2220   21.9380 C   0  0  0  0  0  0  0  0  0  0  0  0
    9.7230   -2.4830   22.5130 C   0  0  0  0  0  0  0  0  0  0  0  0
    9.7640   -3.0210   23.7680 C   0  0  0  0  0  0  0  0  0  0  0  0
   10.9960   -3.2420   24.3400 C   0  0  0  0  0  0  0  0  0  0  0  0
   12.1580   -2.9910   23.8120 N   0  0  0  0  0  0  0  0  0  0  0  0
   11.2070   -0.4670   23.0890 C   0  0  0  0  0  0  0  0  0  0  0  0
   10.0100   -0.4210   23.6000 C   0  0  0  0  0  0  0  0  0  0  0  0
    7.1600   -0.9030   20.9460 N   0  0  0  0  0  0  0  0  0  0  0  0
    6.4660   -0.1130   19.9710 C   0  0  0  0  0  0  0  0  0  0  0  0
    5.2910    0.5790   20.3030 C   0  0  0  0  0  0  0  0  0  0  0  0
    4.6570    1.3360   19.3060 C   0  0  0  0  0  0  0  0  0  0  0  0
    5.2250    1.3710   18.0200 C   0  0  0  0  0  0  0  0  0  0  0  0
    6.3550    0.7020   17.7100 N   0  0  0  0  0  0  0  0  0  0  0  0
    6.9370   -0.0170   18.6850 C   0  0  0  0  0  0  0  0  0  0  0  0
  1  2  2  0
  2  3  1  0
  3  4  1  0
  4  5  1  0
  5  6  2  0
  6  7  1  0
  7  8  2  0
  8  9  1  0
  9 10  2  0
  9 11  1  0
 11 12  1  0
 12 13  1  0
 13 14  2  0
 14 15  1  0
 15 16  2  0
 16 17  1  0
 13 18  1  0
 17 18  2  0
  8 19  1  0
  5 20  1  0
 19 20  2  0
  2 21  1  0
 21 22  1  0
 22 23  2  0
 23 24  1  0
 24 25  2  0
 25 26  1  0
 22 27  1  0
 26 27  2  0
M  END
