pyridine_urea_1172
     RDKit          3D

 21 22  0  0  0  0  0  0  0  0999 V2000
   11.1890    5.6260   22.7520 C   0  0  0  0  0  0  0  0  0  0  0  0
   10.6740    4.3850   22.2660 O   0  0  0  0  0  0  0  0  0  0  0  0
   10.1400    3.4810   23.1400 C   0  0  0  0  0  0  0  0  0  0  0  0
    9.3070    3.7560   23.9960 O   0  0  0  0  0  0  0  0  0  0  0  0
   10.7140    2.0560   22.9350 C   0  0  0  0  0  0  0  0  0  0  0  0
    9.8690    1.0080   22.8610 C   0  0  0  0  0  0  0  0  0  0  0  0
   10.3470   -0.2580   22.6600 C   0  0  0  0  0  0  0  0  0  0  0  0
    9.1960   -1.1350   22.5220 N   0  0  0  0  0  0  0  0  0  0  0  0
    8.3930   -0.4470   21.5850 C   0  0  0  0  0  0  0  0  0  0  0  0
    8.7440    0.6470   21.1790 O   0  0  0  0  0  0  0  0  0  0  0  0
    7.2200   -1.0050   21.1350 N   0  0  0  0  0  0  0  0  0  0  0  0
    6.4750   -0.2770   20.1580 C   0  0  0  0  0  0  0  0  0  0  0  0
    5.2590    0.4160   20.3900 C   0  0  0  0  0  0  0  0  0  0  0  0
    4.6180    1.1220   19.3530 C   0  0  0  0  0  0  0  0  0  0  0  0
    5.1860    1.1420   18.0840 C   0  0  0  0  0  0  0  0  0  0  0  0
    6.3540    0.4750   17.8460 N   0  0  0  0  0  0  0  0  0  0  0  0
    6.9860   -0.2280   18.8670 C   0  0  0  0  0  0  0  0  0  0  0  0
   11.7340   -0.5110   22.5820 C   0  0  0  0  0  0  0  0  0  0  0  0
   12.6450    0.5680   22.6590 C   0  0  0  0  0  0  0  0  0  0  0  0
   12.0550    1.8870   22.8110 C   0  0  0  0  0  0  0  0  0  0  0  0
   12.9780    3.5490   22.8200 Br  0  0  0  0  0  0  0  0  0  0  0  0
  1  2  1  0
  2  3  1  0
  3  4  2  0
  3  5  1  0
  5  6  2  0
  6  7  1  0
  7  8  1  0
  8  9  1  0
  9 10  2  0
  9 11  1  0
 11 12  1  0
 12 13  2  0
 13 14  1  0
 14 15  2  0
 15 16  1  0
 12 17  1  0
 16 17  2  0
  7 18  2  0
 18 19  1  0
  5 20  1  0
 19 20  2  0
 20 21  1  0
M  END
