pyridine_urea_13947
     RDKit          3D

 24 25  0  0  0  0  0  0  0  0999 V2000
   10.5010   -1.2610   22.5850 C   0  0  0  0  0  0  0  0  0  0  0  0
   10.1170   -0.1770   22.9400 C   0  0  2  0  0  0  0  0  0  0  0  0
    9.8980    1.1160   23.7630 C   0  0  0  0  0  0  0  0  0  0  0  0
   11.2590    1.6470   23.8360 C   0  0  0  0  0  0  0  0  0  0  0  0
   11.9180    0.5150   23.5990 C   0  0  0  0  0  0  0  0  0  0  0  0
   12.7790    0.1480   22.4770 C   0  0  0  0  0  0  0  0  0  0  0  0
   13.3320   -1.1550   22.2760 C   0  0  0  0  0  0  0  0  0  0  0  0
   13.0850   -2.1060   23.1540 C   0  0  0  0  0  0  0  0  0  0  0  0
   13.6820   -3.2160   22.6340 O   0  0  0  0  0  0  0  0  0  0  0  0
   13.3390   -3.0840   21.2360 C   0  0  0  0  0  0  0  0  0  0  0  0
   12.0310   -2.7630   21.0440 C   0  0  0  0  0  0  0  0  0  0  0  0
   13.7940   -4.3010   20.4720 C   0  0  0  0  0  0  0  0  0  0  0  0
   12.3520   -1.9370   24.3020 C   0  0  0  0  0  0  0  0  0  0  0  0
   11.7540   -0.5890   24.5190 C   0  0  0  0  0  0  0  0  0  0  0  0
    8.7160   -0.4340   22.7310 N   0  0  0  0  0  0  0  0  0  0  0  0
    8.2490    0.2570   21.5390 C   0  0  0  0  0  0  0  0  0  0  0  0
    8.7820    1.2950   21.1220 O   0  0  0  0  0  0  0  0  0  0  0  0
    7.1220   -0.4150   20.9670 N   0  0  0  0  0  0  0  0  0  0  0  0
    6.4020    0.1730   20.0140 C   0  0  0  0  0  0  0  0  0  0  0  0
    5.2290    0.9050   20.2160 C   0  0  0  0  0  0  0  0  0  0  0  0
    4.5840    1.5030   19.1380 C   0  0  0  0  0  0  0  0  0  0  0  0
    5.1100    1.3670   17.8600 C   0  0  0  0  0  0  0  0  0  0  0  0
    6.2180    0.6710   17.5890 N   0  0  0  0  0  0  0  0  0  0  0  0
    6.8720    0.0570   18.7340 C   0  0  0  0  0  0  0  0  0  0  0  0
  2  1  1  1
  2  3  1  0
  3  4  1  0
  4  5  1  0
  5  6  2  0
  6  7  1  0
  7  8  2  0
  8  9  1  0
  9 10  1  0
 10 11  1  0
 10 12  1  0
  8 13  1  0
  5 14  1  0
 13 14  2  0
  2 15  1  0
 15 16  1  0
 16 17  2  0
 16 18  1  0
 18 19  1  0
 19 20  2  0
 20 21  1  0
 21 22  2  0
 22 23  1  0
 19 24  1  0
 23 24  2  0
M  END
