pyridine_urea_12906
     RDKit          3D

 19 21  0  0  0  0  0  0  0  0999 V2000
    8.1590   -1.5330   20.3890 O   0  0  0  0  0  0  0  0  0  0  0  0
    8.1300   -0.7690   21.2770 C   0  0  0  0  0  0  0  0  0  0  0  0
    6.9940   -0.0730   21.4730 N   0  0  0  0  0  0  0  0  0  0  0  0
    6.4360    0.3620   20.2050 C   0  0  0  0  0  0  0  0  0  0  0  0
    5.1800    1.2350   20.2810 C   0  0  0  0  0  0  0  0  0  0  0  0
    4.5840    1.7100   19.1190 C   0  0  0  0  0  0  0  0  0  0  0  0
    5.1650    1.3700   17.9000 C   0  0  0  0  0  0  0  0  0  0  0  0
    6.2840    0.5800   17.8610 N   0  0  0  0  0  0  0  0  0  0  0  0
    6.9350    0.0610   18.9820 C   0  0  0  0  0  0  0  0  0  0  0  0
    9.2200   -0.5110   22.0260 N   0  0  0  0  0  0  0  0  0  0  0  0
   10.4560   -0.2080   22.4120 C   0  0  0  0  0  0  0  0  0  0  0  0
   11.4200   -1.2150   22.4520 C   0  0  0  0  0  0  0  0  0  0  0  0
   12.7150   -0.8730   22.8010 C   0  0  0  0  0  0  0  0  0  0  0  0
   13.0260    0.4500   23.0990 C   0  0  0  0  0  0  0  0  0  0  0  0
   12.0490    1.4370   23.0630 C   0  0  0  0  0  0  0  0  0  0  0  0
   12.2720    2.6040   23.3120 O   0  0  0  0  0  0  0  0  0  0  0  0
   11.0030    3.1560   23.1230 C   0  0  0  0  0  0  0  0  0  0  0  0
   10.0560    2.2840   22.7690 N   0  0  0  0  0  0  0  0  0  0  0  0
   10.7540    1.0980   22.7190 C   0  0  0  0  0  0  0  0  0  0  0  0
  1  2  2  0
  2  3  1  0
  3  4  1  0
  4  5  2  0
  5  6  1  0
  6  7  2  0
  7  8  1  0
  4  9  1  0
  8  9  2  0
  2 10  1  0
 10 11  1  0
 11 12  2  0
 12 13  1  0
 13 14  2  0
 14 15  1  0
 15 16  1  0
 16 17  1  0
 17 18  2  0
 11 19  1  0
 15 19  2  0
 18 19  1  0
M  END
