pyridine_urea_11185
     RDKit          3D

 17 18  0  0  0  0  0  0  0  0999 V2000
    8.8990    0.7400   21.3980 O   0  0  0  0  0  0  0  0  0  0  0  0
    8.4410   -0.3950   21.4750 C   0  0  0  0  0  0  0  0  0  0  0  0
    9.1760   -1.5120   21.8310 N   0  0  0  0  0  0  0  0  0  0  0  0
   10.0990   -1.5140   22.9610 C   0  0  0  0  0  0  0  0  0  0  0  0
   11.5740   -1.5540   22.5490 C   0  0  0  0  0  0  0  0  0  0  0  0
   12.1530   -0.2330   22.8250 C   0  0  0  0  0  0  0  0  0  0  0  0
   12.8980    0.4640   23.3780 C   0  0  0  0  0  0  0  0  0  0  0  0
   11.7170    1.6090   22.9080 C   0  0  0  0  0  0  0  0  0  0  0  0
   12.7520    2.1660   22.9110 N   0  0  0  0  0  0  0  0  0  0  0  0
   12.5470    1.0000   22.2300 O   0  0  0  0  0  0  0  0  0  0  0  0
    7.1200   -0.6990   21.1920 N   0  0  0  0  0  0  0  0  0  0  0  0
    6.4380    0.0080   20.0760 C   0  0  0  0  0  0  0  0  0  0  0  0
    5.3120    0.6720   20.4620 C   0  0  0  0  0  0  0  0  0  0  0  0
    4.7100    1.3650   19.2450 C   0  0  0  0  0  0  0  0  0  0  0  0
    5.2600    1.2970   17.9850 C   0  0  0  0  0  0  0  0  0  0  0  0
    6.3620    0.6130   17.7350 N   0  0  0  0  0  0  0  0  0  0  0  0
    6.9170   -0.0120   18.7760 C   0  0  0  0  0  0  0  0  0  0  0  0
  1  2  2  0
  2  3  1  0
  3  4  1  0
  4  5  1  0
  5  6  1  0
  6  7  2  0
  7  8  1  0
  8  9  2  0
  6 10  1  0
  9 10  1  0
  2 11  1  0
 11 12  1  0
 12 13  2  0
 13 14  1  0
 14 15  2  0
 15 16  1  0
 12 17  1  0
 16 17  2  0
M  END
