pyridine_urea_13531
     RDKit          3D

 20 22  0  0  0  0  0  0  0  0999 V2000
    9.0350   -0.5810   20.8260 O   0  0  0  0  0  0  0  0  0  0  0  0
    8.4040   -0.2090   21.7400 C   0  0  0  0  0  0  0  0  0  0  0  0
    7.0540    0.0140   21.6650 N   0  0  0  0  0  0  0  0  0  0  0  0
    6.3700    0.4250   20.4880 C   0  0  0  0  0  0  0  0  0  0  0  0
    5.0750    1.2430   20.5440 C   0  0  0  0  0  0  0  0  0  0  0  0
    4.4960    1.6040   19.1820 C   0  0  0  0  0  0  0  0  0  0  0  0
    5.2230    1.1400   17.9680 C   0  0  0  0  0  0  0  0  0  0  0  0
    6.3540    0.4170   18.0030 N   0  0  0  0  0  0  0  0  0  0  0  0
    6.8820    0.0850   19.2170 C   0  0  0  0  0  0  0  0  0  0  0  0
    9.0930    0.0110   22.9120 N   0  0  0  0  0  0  0  0  0  0  0  0
   10.5290   -0.0660   22.6980 C   0  0  1  0  0  0  0  0  0  0  0  0
   11.4130   -0.4420   23.7010 C   0  0  0  0  0  0  0  0  0  0  0  0
   11.8800   -1.5020   23.0860 C   0  0  1  0  0  0  0  0  0  0  0  0
   11.8330   -2.4730   23.8330 O   0  0  0  0  0  0  0  0  0  0  0  0
   10.8670   -1.5410   22.1590 C   0  0  1  0  0  0  0  0  0  0  0  0
    9.7450   -2.3120   22.4310 N   0  0  0  0  0  0  0  0  0  0  0  0
    8.4530   -2.4310   21.7410 C   0  0  0  0  0  0  0  0  0  0  0  0
    7.6900   -3.3370   22.4530 C   0  0  0  0  0  0  0  0  0  0  0  0
    8.6530   -3.6710   23.5330 C   0  0  0  0  0  0  0  0  0  0  0  0
    9.8770   -3.0810   23.5570 N   0  0  0  0  0  0  0  0  0  0  0  0
  1  2  2  0
  2  3  1  0
  3  4  1  0
  4  5  2  0
  5  6  1  0
  6  7  2  0
  7  8  1  0
  4  9  1  0
  8  9  2  0
  2 10  1  0
 11 10  1  1
 11 12  1  0
 12 13  1  0
 13 14  1  1
 11 15  1  0
 13 15  1  0
 15 16  1  1
 16 17  1  0
 17 18  2  0
 18 19  1  0
 16 20  1  0
 19 20  2  0
M  END
