pyridine_urea_2535
     RDKit          3D

 24 26  0  0  0  0  0  0  0  0999 V2000
    8.7020    0.1620   21.2230 O   0  0  0  0  0  0  0  0  0  0  0  0
    8.1560   -0.8980   20.9210 C   0  0  0  0  0  0  0  0  0  0  0  0
    6.8280   -1.0420   20.7040 N   0  0  0  0  0  0  0  0  0  0  0  0
    6.2190   -0.1950   19.7990 C   0  0  0  0  0  0  0  0  0  0  0  0
    5.0040    0.4190   20.0870 C   0  0  0  0  0  0  0  0  0  0  0  0
    4.4360    1.2700   19.1410 C   0  0  0  0  0  0  0  0  0  0  0  0
    5.1100    1.4670   17.9530 C   0  0  0  0  0  0  0  0  0  0  0  0
    6.2830    0.8790   17.6630 N   0  0  0  0  0  0  0  0  0  0  0  0
    6.8030    0.0660   18.5950 C   0  0  0  0  0  0  0  0  0  0  0  0
    8.8860   -2.0580   20.7630 N   0  0  0  0  0  0  0  0  0  0  0  0
   10.0150   -1.8330   21.5430 C   0  0  0  0  0  0  0  0  0  0  0  0
   11.5220   -1.8770   21.1370 C   0  0  0  0  0  0  0  0  0  0  0  0
   12.4060   -1.5140   21.9910 C   0  0  0  0  0  0  0  0  0  0  0  0
   11.8710   -1.1960   23.1160 C   0  0  0  0  0  0  0  0  0  0  0  0
   10.4110   -1.2580   23.4830 C   0  0  0  0  0  0  0  0  0  0  0  0
    9.5680   -1.0600   24.6280 C   0  0  0  0  0  0  0  0  0  0  0  0
    8.8850   -2.0270   24.9520 O   0  0  0  0  0  0  0  0  0  0  0  0
    7.9380   -1.8870   26.0050 C   0  0  0  0  0  0  0  0  0  0  0  0
    8.0780   -0.9690   27.0400 C   0  0  0  0  0  0  0  0  0  0  0  0
    7.7150    0.3580   26.9640 C   0  0  0  0  0  0  0  0  0  0  0  0
    8.0300    0.8350   28.1970 C   0  0  0  0  0  0  0  0  0  0  0  0
    8.5530   -0.2600   28.8850 C   0  0  0  0  0  0  0  0  0  0  0  0
    8.6060   -1.3480   28.2530 O   0  0  0  0  0  0  0  0  0  0  0  0
    9.5740   -1.5500   22.6720 C   0  0  0  0  0  0  0  0  0  0  0  0
  1  2  2  0
  2  3  1  0
  3  4  1  0
  4  5  2  0
  5  6  1  0
  6  7  2  0
  7  8  1  0
  4  9  1  0
  8  9  2  0
  2 10  1  0
 10 11  1  0
 11 12  2  0
 12 13  1  0
 13 14  2  0
 14 15  1  0
 15 16  1  0
 16 17  1  0
 17 18  1  0
 18 19  1  0
 19 20  2  0
 20 21  1  0
 21 22  2  0
 19 23  1  0
 22 23  1  0
 11 24  1  0
 15 24  2  0
M  END
