pyridine_urea_9597
     RDKit          3D

 21 23  0  0  0  0  0  0  0  0999 V2000
    7.7550   -0.3660   25.3040 C   0  0  0  0  0  0  0  0  0  0  0  0
    8.9970    0.4310   25.7110 C   0  0  1  0  0  0  0  0  0  0  0  0
   10.2100   -0.3800   25.3400 C   0  0  0  0  0  0  0  0  0  0  0  0
   10.7500    0.3370   24.1700 C   0  0  1  0  0  0  0  0  0  0  0  0
   12.2380    0.3950   23.9350 C   0  0  0  0  0  0  0  0  0  0  0  0
   12.3990   -0.5610   22.7890 C   0  0  0  0  0  0  0  0  0  0  0  0
   10.9290   -0.6570   22.2820 C   0  0  1  0  0  0  0  0  0  0  0  0
   10.5380   -1.9360   22.0620 C   0  0  0  0  0  0  0  0  0  0  0  0
    9.1000   -1.7640   21.8600 N   0  0  0  0  0  0  0  0  0  0  0  0
    8.4020   -0.6610   21.4020 C   0  0  0  0  0  0  0  0  0  0  0  0
    8.8940    0.4610   21.3500 O   0  0  0  0  0  0  0  0  0  0  0  0
    7.1190   -0.9120   20.9970 N   0  0  0  0  0  0  0  0  0  0  0  0
    6.3900   -0.1360   20.0730 C   0  0  0  0  0  0  0  0  0  0  0  0
    5.2050    0.5610   20.3200 C   0  0  0  0  0  0  0  0  0  0  0  0
    4.5950    1.2990   19.3110 C   0  0  0  0  0  0  0  0  0  0  0  0
    5.2360    1.3230   17.9760 C   0  0  0  0  0  0  0  0  0  0  0  0
    6.3730    0.6500   17.7400 N   0  0  0  0  0  0  0  0  0  0  0  0
    6.8950   -0.0440   18.7810 C   0  0  0  0  0  0  0  0  0  0  0  0
   10.1340   -0.3380   23.1390 O   0  0  0  0  0  0  0  0  0  0  0  0
   10.1870    1.7490   24.1130 C   0  0  0  0  0  0  0  0  0  0  0  0
    9.1470    1.7210   25.1570 O   0  0  0  0  0  0  0  0  0  0  0  0
  2  1  1  6
  2  3  1  0
  4  3  1  1
  4  5  1  0
  5  6  1  0
  6  7  1  0
  7  8  1  1
  8  9  1  0
  9 10  1  0
 10 11  2  0
 10 12  1  0
 12 13  1  0
 13 14  2  0
 14 15  1  0
 15 16  2  0
 16 17  1  0
 13 18  1  0
 17 18  2  0
  4 19  1  0
  7 19  1  0
  4 20  1  0
  2 21  1  0
 20 21  1  0
M  END
