pyridine_urea_8899
     RDKit          3D

 20 21  0  0  0  0  0  0  0  0999 V2000
   13.0520   -1.8460   21.2840 C   0  0  0  0  0  0  0  0  0  0  0  0
   13.0310   -1.3370   22.6070 O   0  0  0  0  0  0  0  0  0  0  0  0
   12.7150   -0.0190   22.8000 C   0  0  0  0  0  0  0  0  0  0  0  0
   12.3590   -1.0050   23.8820 N   0  0  0  0  0  0  0  0  0  0  0  0
   12.2520    0.0570   24.3880 C   0  0  0  0  0  0  0  0  0  0  0  0
   11.0580   -0.0100   23.4680 C   0  0  0  0  0  0  0  0  0  0  0  0
   10.3690   -1.1210   22.9750 C   0  0  0  0  0  0  0  0  0  0  0  0
    9.0410   -0.8440   22.6520 N   0  0  0  0  0  0  0  0  0  0  0  0
    8.5120   -0.0090   21.6240 C   0  0  0  0  0  0  0  0  0  0  0  0
    9.0110    1.0810   21.2970 O   0  0  0  0  0  0  0  0  0  0  0  0
    7.3990   -0.5130   21.0650 N   0  0  0  0  0  0  0  0  0  0  0  0
    6.6660    0.0560   20.0720 C   0  0  0  0  0  0  0  0  0  0  0  0
    5.5340    0.7840   20.4340 C   0  0  0  0  0  0  0  0  0  0  0  0
    4.7830    1.3830   19.4400 C   0  0  0  0  0  0  0  0  0  0  0  0
    5.1500    1.2590   18.1040 C   0  0  0  0  0  0  0  0  0  0  0  0
    6.2160    0.5700   17.6770 N   0  0  0  0  0  0  0  0  0  0  0  0
    6.9650   -0.0330   18.7290 C   0  0  0  0  0  0  0  0  0  0  0  0
   10.7950    1.3100   23.6920 C   0  0  0  0  0  0  0  0  0  0  0  0
   12.0760    1.3440   23.2230 C   0  0  0  0  0  0  0  0  0  0  0  0
   12.6170    2.9320   22.8400 Cl  0  0  0  0  0  0  0  0  0  0  0  0
  1  2  1  0
  2  3  1  0
  3  4  2  0
  4  5  1  0
  5  6  2  0
  6  7  1  0
  7  8  1  0
  8  9  1  0
  9 10  2  0
  9 11  1  0
 11 12  1  0
 12 13  2  0
 13 14  1  0
 14 15  2  0
 15 16  1  0
 12 17  1  0
 16 17  2  0
  6 18  1  0
  3 19  1  0
 18 19  2  0
 19 20  1  0
M  END
