pyridine_urea_14316
     RDKit          3D

 22 24  0  0  0  0  0  0  0  0999 V2000
    8.8040    0.6430   21.2630 O   0  0  0  0  0  0  0  0  0  0  0  0
    8.1050   -0.3020   21.6050 C   0  0  0  0  0  0  0  0  0  0  0  0
    8.3870   -1.1340   22.7480 N   0  0  0  0  0  0  0  0  0  0  0  0
    9.6370   -0.9910   23.2980 C   0  0  0  0  0  0  0  0  0  0  0  0
    9.8310    0.1020   24.1560 C   0  0  0  0  0  0  0  0  0  0  0  0
   11.0690    0.6840   23.9410 C   0  0  0  0  0  0  0  0  0  0  0  0
   12.4540    0.9410   23.4690 C   0  0  0  0  0  0  0  0  0  0  0  0
   13.2540    0.0490   22.5890 C   0  0  0  0  0  0  0  0  0  0  0  0
   12.2710   -0.9100   22.4680 C   0  0  0  0  0  0  0  0  0  0  0  0
   10.7900   -1.0070   23.0740 S   0  0  0  0  0  0  0  0  0  0  0  0
    8.7830    1.0320   24.1470 C   0  0  0  0  0  0  0  0  0  0  0  0
    7.8600    0.8410   25.1690 C   0  0  0  0  0  0  0  0  0  0  0  0
    7.6190   -0.5150   25.4240 C   0  0  0  0  0  0  0  0  0  0  0  0
    8.7790   -1.2150   25.7690 C   0  0  0  0  0  0  0  0  0  0  0  0
    9.8630   -0.3740   25.6300 C   0  0  0  0  0  0  0  0  0  0  0  0
    6.9510   -0.7180   20.9830 N   0  0  0  0  0  0  0  0  0  0  0  0
    6.3660   -0.0170   19.9450 C   0  0  0  0  0  0  0  0  0  0  0  0
    5.1850    0.6830   20.1440 C   0  0  0  0  0  0  0  0  0  0  0  0
    4.5640    1.4110   19.1420 C   0  0  0  0  0  0  0  0  0  0  0  0
    5.1890    1.4150   17.8990 C   0  0  0  0  0  0  0  0  0  0  0  0
    6.3340    0.7450   17.6640 N   0  0  0  0  0  0  0  0  0  0  0  0
    6.8910    0.0490   18.6750 C   0  0  0  0  0  0  0  0  0  0  0  0
  1  2  2  0
  2  3  1  0
  3  4  1  0
  5  4  1  0
  5  6  1  0
  6  7  2  0
  7  8  1  0
  8  9  2  0
  6 10  1  0
  9 10  1  0
  5 11  1  0
 11 12  1  0
 12 13  1  0
 13 14  1  0
  5 15  1  0
 14 15  1  0
  2 16  1  0
 16 17  1  0
 17 18  2  0
 18 19  1  0
 19 20  2  0
 20 21  1  0
 17 22  1  0
 21 22  2  0
M  END
