pyridine_urea_12166
     RDKit          3D

 23 25  0  0  0  0  0  0  0  0999 V2000
    8.7890    1.4010   21.0790 O   0  0  0  0  0  0  0  0  0  0  0  0
    8.4540    0.2740   21.4430 C   0  0  0  0  0  0  0  0  0  0  0  0
    9.1470   -0.4510   22.3510 N   0  0  0  0  0  0  0  0  0  0  0  0
   10.1680    0.1260   23.1290 C   0  0  0  0  0  0  0  0  0  0  0  0
   11.2870   -0.6690   23.4490 C   0  0  2  0  0  0  0  0  0  0  0  0
   11.5140   -0.7070   24.8850 O   0  0  0  0  0  0  0  0  0  0  0  0
   12.4720   -0.3610   22.8220 C   0  0  0  0  0  0  0  0  0  0  0  0
   13.0940    0.8600   22.9970 C   0  0  0  0  0  0  0  0  0  0  0  0
   11.9880    0.9160   23.7600 C   0  0  0  0  0  0  0  0  0  0  0  0
   11.2190   -0.2280   23.7180 C   0  0  0  0  0  0  0  0  0  0  0  0
    9.9010   -0.4640   24.4840 C   0  0  0  0  0  0  0  0  0  0  0  0
    9.2520   -1.6720   24.3140 C   0  0  0  0  0  0  0  0  0  0  0  0
    9.8000   -2.6280   23.4730 C   0  0  0  0  0  0  0  0  0  0  0  0
   11.0100   -2.4480   22.7610 C   0  0  0  0  0  0  0  0  0  0  0  0
   11.7780   -1.2660   22.8400 C   0  0  0  0  0  0  0  0  0  0  0  0
   12.9940   -1.3040   22.0230 C   0  0  0  0  0  0  0  0  0  0  0  0
    7.3430   -0.4000   21.0100 N   0  0  0  0  0  0  0  0  0  0  0  0
    6.5800    0.1510   19.9860 C   0  0  0  0  0  0  0  0  0  0  0  0
    5.4130    0.8430   20.3040 C   0  0  0  0  0  0  0  0  0  0  0  0
    4.6650    1.4200   19.2850 C   0  0  0  0  0  0  0  0  0  0  0  0
    5.1170    1.2810   17.9840 C   0  0  0  0  0  0  0  0  0  0  0  0
    6.2250    0.6110   17.6630 N   0  0  0  0  0  0  0  0  0  0  0  0
    6.9320    0.0590   18.6640 C   0  0  0  0  0  0  0  0  0  0  0  0
  1  2  2  0
  2  3  1  0
  3  4  1  0
  4  5  1  0
  5  6  1  1
  5  7  1  0
  7  8  2  0
  8  9  1  0
  9 10  2  0
 10 11  1  0
 11 12  2  0
 12 13  1  0
 13 14  2  0
 10 15  1  0
 14 15  1  0
  7 16  1  0
 15 16  2  0
  2 17  1  0
 17 18  1  0
 18 19  2  0
 19 20  1  0
 20 21  2  0
 21 22  1  0
 18 23  1  0
 22 23  2  0
M  END
