pyridine_urea_14003
     RDKit          3D

 23 25  0  0  0  0  0  0  0  0999 V2000
    8.5910    0.5960   21.2260 O   0  0  0  0  0  0  0  0  0  0  0  0
    7.8210   -0.1000   21.8780 C   0  0  0  0  0  0  0  0  0  0  0  0
    6.7800   -0.7590   21.2780 N   0  0  0  0  0  0  0  0  0  0  0  0
    6.2810   -0.0860   20.0940 C   0  0  0  0  0  0  0  0  0  0  0  0
    4.9900    0.6990   20.3010 C   0  0  0  0  0  0  0  0  0  0  0  0
    4.4920    1.4000   19.0880 C   0  0  0  0  0  0  0  0  0  0  0  0
    5.2100    1.2910   17.9130 C   0  0  0  0  0  0  0  0  0  0  0  0
    6.3490    0.5810   17.7720 N   0  0  0  0  0  0  0  0  0  0  0  0
    6.8580   -0.0860   18.8370 C   0  0  0  0  0  0  0  0  0  0  0  0
    7.9630   -0.2220   23.2550 N   0  0  0  0  0  0  0  0  0  0  0  0
    9.2410    0.4220   23.5190 C   0  0  0  0  0  0  0  0  0  0  0  0
    9.5000    1.5600   24.2030 C   0  0  0  0  0  0  0  0  0  0  0  0
   11.0010    1.8350   24.0910 C   0  0  0  0  0  0  0  0  0  0  0  0
   11.9200    1.0910   23.4570 C   0  0  0  0  0  0  0  0  0  0  0  0
   13.1620    1.5040   23.4320 F   0  0  0  0  0  0  0  0  0  0  0  0
   11.5220    0.0340   22.8830 C   0  0  0  0  0  0  0  0  0  0  0  0
   12.0990   -0.7870   22.2120 C   0  0  0  0  0  0  0  0  0  0  0  0
   10.9480   -1.7370   22.0300 C   0  0  0  0  0  0  0  0  0  0  0  0
   11.6240   -2.5810   21.1470 C   0  0  0  0  0  0  0  0  0  0  0  0
   12.7910   -2.5870   20.6620 N   0  0  0  0  0  0  0  0  0  0  0  0
   13.6270   -1.5870   21.0060 C   0  0  0  0  0  0  0  0  0  0  0  0
   13.3860   -0.5790   21.8540 C   0  0  0  0  0  0  0  0  0  0  0  0
   10.2880   -0.3360   22.8720 C   0  0  0  0  0  0  0  0  0  0  0  0
  1  2  2  0
  2  3  1  0
  3  4  1  0
  4  5  2  0
  5  6  1  0
  6  7  2  0
  7  8  1  0
  4  9  1  0
  8  9  2  0
  2 10  1  0
 10 11  1  0
 11 12  2  0
 12 13  1  0
 13 14  2  0
 14 15  1  0
 14 16  1  0
 16 17  1  0
 17 18  2  0
 18 19  1  0
 19 20  2  0
 20 21  1  0
 17 22  1  0
 21 22  2  0
 11 23  1  0
 16 23  2  0
M  END
