pyridine_urea_12124
     RDKit          3D

 23 25  0  0  0  0  0  0  0  0999 V2000
   10.2500   -1.7050   23.0230 C   0  0  0  0  0  0  0  0  0  0  0  0
    9.5120   -2.4400   23.9200 N   0  0  0  0  0  0  0  0  0  0  0  0
    8.1870   -2.5680   23.8690 C   0  0  0  0  0  0  0  0  0  0  0  0
    7.4480   -1.9340   22.9290 C   0  0  0  0  0  0  0  0  0  0  0  0
    8.0570   -0.7070   22.7290 N   0  0  0  0  0  0  0  0  0  0  0  0
    8.0960    0.0310   21.5040 C   0  0  0  0  0  0  0  0  0  0  0  0
    8.8260    0.9980   21.2090 O   0  0  0  0  0  0  0  0  0  0  0  0
    7.1410   -0.5560   20.7360 N   0  0  0  0  0  0  0  0  0  0  0  0
    6.3910    0.1490   19.8410 C   0  0  0  0  0  0  0  0  0  0  0  0
    5.1840    0.7850   20.1340 C   0  0  0  0  0  0  0  0  0  0  0  0
    4.5120    1.5000   19.1440 C   0  0  0  0  0  0  0  0  0  0  0  0
    5.1160    1.5700   17.7510 C   0  0  0  0  0  0  0  0  0  0  0  0
    6.2860    0.9220   17.5190 N   0  0  0  0  0  0  0  0  0  0  0  0
    6.8960    0.2220   18.5780 C   0  0  0  0  0  0  0  0  0  0  0  0
    7.6820   -3.3860   24.8810 N   0  0  0  0  0  0  0  0  0  0  0  0
    8.8100   -3.7450   25.5920 N   0  0  0  0  0  0  0  0  0  0  0  0
    9.9380   -3.1200   24.9660 C   0  0  0  0  0  0  0  0  0  0  0  0
   11.2750   -3.0400   25.1850 C   0  0  0  0  0  0  0  0  0  0  0  0
   11.9070   -1.9670   24.5800 C   0  0  0  0  0  0  0  0  0  0  0  0
   13.2500   -1.7580   24.7360 C   0  0  0  0  0  0  0  0  0  0  0  0
   13.9730   -2.6320   25.5120 C   0  0  0  0  0  0  0  0  0  0  0  0
   13.3550   -3.7030   26.1110 C   0  0  0  0  0  0  0  0  0  0  0  0
   11.9940   -3.9230   25.9540 C   0  0  0  0  0  0  0  0  0  0  0  0
  1  2  1  0
  2  3  1  0
  3  4  1  0
  4  5  1  0
  5  6  1  0
  6  7  2  0
  6  8  1  0
  8  9  1  0
  9 10  2  0
 10 11  1  0
 11 12  2  0
 12 13  1  0
  9 14  1  0
 13 14  2  0
  3 15  2  0
 15 16  1  0
  2 17  1  0
 16 17  2  0
 17 18  1  0
 18 19  2  0
 19 20  1  0
 20 21  2  0
 21 22  1  0
 18 23  1  0
 22 23  2  0
M  END
