pyridine_urea_4070
     RDKit          3D

 26 28  0  0  0  0  0  0  0  0999 V2000
   11.1170   -1.9950   23.4020 C   0  0  0  0  0  0  0  0  0  0  0  0
   10.4990   -1.0020   22.4700 C   0  0  1  0  0  0  0  0  0  0  0  0
    9.0520   -1.0980   22.4010 N   0  0  0  0  0  0  0  0  0  0  0  0
    8.3920   -0.2140   21.5710 C   0  0  0  0  0  0  0  0  0  0  0  0
    8.8460    0.8900   21.3090 O   0  0  0  0  0  0  0  0  0  0  0  0
    7.2020   -0.6950   21.0900 N   0  0  0  0  0  0  0  0  0  0  0  0
    6.5090   -0.0460   20.0550 C   0  0  0  0  0  0  0  0  0  0  0  0
    5.3510    0.6570   20.3460 C   0  0  0  0  0  0  0  0  0  0  0  0
    4.6650    1.3170   19.3240 C   0  0  0  0  0  0  0  0  0  0  0  0
    5.1670    1.2510   18.0360 C   0  0  0  0  0  0  0  0  0  0  0  0
    6.2830    0.5720   17.7310 N   0  0  0  0  0  0  0  0  0  0  0  0
    6.9250   -0.0590   18.7410 C   0  0  0  0  0  0  0  0  0  0  0  0
   10.8410    0.4500   22.7680 C   0  0  0  0  0  0  0  0  0  0  0  0
   10.3080    1.5070   22.9460 C   0  0  0  0  0  0  0  0  0  0  0  0
   11.6400    1.8820   23.0620 C   0  0  0  0  0  0  0  0  0  0  0  0
   11.7960    0.3420   22.7910 C   0  0  0  0  0  0  0  0  0  0  0  0
   13.1730    0.4980   22.8720 C   0  0  0  0  0  0  0  0  0  0  0  0
   12.1180    1.3500   22.9940 C   0  0  0  0  0  0  0  0  0  0  0  0
   12.3180    2.7530   23.2740 O   0  0  0  0  0  0  0  0  0  0  0  0
   11.7160    3.7100   22.3610 C   0  0  0  0  0  0  0  0  0  0  0  0
   11.3720    4.8910   23.0340 C   0  0  0  0  0  0  0  0  0  0  0  0
   12.2990    5.5750   23.8300 C   0  0  0  0  0  0  0  0  0  0  0  0
   11.9320    6.7540   24.4940 C   0  0  0  0  0  0  0  0  0  0  0  0
   10.6410    7.2690   24.3740 C   0  0  0  0  0  0  0  0  0  0  0  0
    9.7120    6.6010   23.5880 C   0  0  0  0  0  0  0  0  0  0  0  0
   10.0740    5.4250   22.9290 C   0  0  0  0  0  0  0  0  0  0  0  0
  2  1  1  1
  2  3  1  0
  3  4  1  0
  4  5  2  0
  4  6  1  0
  6  7  1  0
  7  8  2  0
  8  9  1  0
  9 10  2  0
 10 11  1  0
  7 12  1  0
 11 12  2  0
  2 13  1  0
 13 14  2  0
 14 15  1  0
 15 16  2  0
 16 17  1  0
 13 18  1  0
 17 18  2  0
 18 19  1  0
 19 20  1  0
 20 21  1  0
 21 22  2  0
 22 23  1  0
 23 24  2  0
 24 25  1  0
 21 26  1  0
 25 26  2  0
M  END
