pyridine_urea_11285
     RDKit          3D

 17 17  0  0  0  0  0  0  0  0999 V2000
   12.2820    0.7190   23.7230 C   0  0  0  0  0  0  0  0  0  0  0  0
   12.6670   -0.3940   23.9830 C   0  0  0  0  0  0  0  0  0  0  0  0
   12.8260   -1.7650   24.6610 C   0  0  0  0  0  0  0  0  0  0  0  0
   12.4400   -0.9310   22.5810 C   0  0  0  0  0  0  0  0  0  0  0  0
   11.0920   -1.2760   22.5790 C   0  0  2  0  0  0  0  0  0  0  0  0
   10.5420   -0.7880   21.3410 O   0  0  0  0  0  0  0  0  0  0  0  0
    9.9980   -0.8200   23.5500 C   0  0  0  0  0  0  0  0  0  0  0  0
    8.6700   -0.8230   22.8890 N   0  0  0  0  0  0  0  0  0  0  0  0
    8.3340   -0.0590   21.7690 C   0  0  0  0  0  0  0  0  0  0  0  0
    9.0500    1.1240   21.3240 O   0  0  0  0  0  0  0  0  0  0  0  0
    7.1460   -0.6350   21.1590 N   0  0  0  0  0  0  0  0  0  0  0  0
    6.5380    0.0220   20.0030 C   0  0  0  0  0  0  0  0  0  0  0  0
    5.2990    0.8190   20.2700 C   0  0  0  0  0  0  0  0  0  0  0  0
    4.6490    1.4900   19.2530 C   0  0  0  0  0  0  0  0  0  0  0  0
    5.1460    1.4320   17.9660 C   0  0  0  0  0  0  0  0  0  0  0  0
    6.3420    0.6600   17.6810 N   0  0  0  0  0  0  0  0  0  0  0  0
    6.9810   -0.0080   18.7010 C   0  0  0  0  0  0  0  0  0  0  0  0
  1  2  1  0
  2  3  1  0
  2  4  1  0
  4  5  1  0
  5  6  1  6
  5  7  1  0
  7  8  1  0
  8  9  1  0
  9 10  2  0
  9 11  1  0
 11 12  1  0
 12 13  2  0
 13 14  1  0
 14 15  2  0
 15 16  1  0
 12 17  1  0
 16 17  2  0
M  END
