pyridine_urea_13397
     RDKit          3D

 20 21  0  0  0  0  0  0  0  0999 V2000
   13.5830   -3.0280   22.8590 N   0  0  0  0  0  0  0  0  0  0  0  0
   12.7040   -2.6460   24.2420 S   0  0  0  0  0  0  0  0  0  0  0  0
   13.6610   -2.4550   25.3040 O   0  0  0  0  0  0  0  0  0  0  0  0
   11.5740   -3.5310   24.3590 O   0  0  0  0  0  0  0  0  0  0  0  0
   12.1460   -1.1090   23.6310 C   0  0  0  0  0  0  0  0  0  0  0  0
   13.2970    0.2550   23.2340 S   0  0  0  0  0  0  0  0  0  0  0  0
   12.2760    1.6320   22.7160 C   0  0  0  0  0  0  0  0  0  0  0  0
   12.0260    0.3550   23.1120 C   0  0  0  0  0  0  0  0  0  0  0  0
   11.0020   -0.5530   23.3270 C   0  0  0  0  0  0  0  0  0  0  0  0
    9.5300   -0.6980   23.2480 C   0  0  0  0  0  0  0  0  0  0  0  0
    9.0210   -1.0690   22.0790 N   0  0  0  0  0  0  0  0  0  0  0  0
    8.3380   -0.1210   21.4160 C   0  0  0  0  0  0  0  0  0  0  0  0
    8.8460    1.2210   21.1020 O   0  0  0  0  0  0  0  0  0  0  0  0
    7.0340   -0.6120   21.0700 N   0  0  0  0  0  0  0  0  0  0  0  0
    6.4060    0.0660   19.9860 C   0  0  0  0  0  0  0  0  0  0  0  0
    5.2530    0.8340   20.1720 C   0  0  0  0  0  0  0  0  0  0  0  0
    4.6680    1.5040   19.1080 C   0  0  0  0  0  0  0  0  0  0  0  0
    5.1900    1.4470   17.8280 C   0  0  0  0  0  0  0  0  0  0  0  0
    6.3160    0.6760   17.6970 N   0  0  0  0  0  0  0  0  0  0  0  0
    6.9810   -0.0540   18.7470 C   0  0  0  0  0  0  0  0  0  0  0  0
  2  1  1  0
  2  3  2  0
  2  4  2  0
  2  5  1  0
  5  6  1  0
  6  7  1  0
  7  8  2  0
  5  9  2  0
  8  9  1  0
  9 10  1  0
 10 11  1  0
 11 12  1  0
 12 13  2  0
 12 14  1  0
 14 15  1  0
 15 16  2  0
 16 17  1  0
 17 18  2  0
 18 19  1  0
 15 20  1  0
 19 20  2  0
M  END
