pyridine_urea_12832
     RDKit          3D

 20 21  0  0  0  0  0  0  0  0999 V2000
   13.4180   -1.6950   20.8120 N   0  0  0  0  0  0  0  0  0  0  0  0
   13.2530   -2.1820   21.8250 C   0  0  0  0  0  0  0  0  0  0  0  0
   13.3970   -3.5250   21.4410 O   0  0  0  0  0  0  0  0  0  0  0  0
   12.9760   -2.2570   23.3280 C   0  0  0  0  0  0  0  0  0  0  0  0
   12.0980   -1.3160   23.5790 N   0  0  0  0  0  0  0  0  0  0  0  0
   12.7900   -0.0330   23.4570 C   0  0  0  0  0  0  0  0  0  0  0  0
   12.0440    1.0330   22.9900 C   0  0  0  0  0  0  0  0  0  0  0  0
   10.6550    0.9270   22.8900 C   0  0  0  0  0  0  0  0  0  0  0  0
   10.0660   -0.3200   23.0400 C   0  0  1  0  0  0  0  0  0  0  0  0
    8.8830   -0.5770   22.5000 N   0  0  0  0  0  0  0  0  0  0  0  0
    8.3390    0.1500   21.4970 C   0  0  0  0  0  0  0  0  0  0  0  0
    8.8020    1.2450   21.1460 O   0  0  0  0  0  0  0  0  0  0  0  0
    7.2870   -0.4300   20.9810 N   0  0  0  0  0  0  0  0  0  0  0  0
    6.4800    0.1690   20.0210 C   0  0  0  0  0  0  0  0  0  0  0  0
    5.3120    0.8620   20.2510 C   0  0  0  0  0  0  0  0  0  0  0  0
    4.5990    1.4490   19.2160 C   0  0  0  0  0  0  0  0  0  0  0  0
    5.1240    1.3060   17.9280 C   0  0  0  0  0  0  0  0  0  0  0  0
    6.2500    0.6290   17.6680 N   0  0  0  0  0  0  0  0  0  0  0  0
    6.8940    0.0820   18.7090 C   0  0  0  0  0  0  0  0  0  0  0  0
   11.0800   -1.3970   22.6510 C   0  0  0  0  0  0  0  0  0  0  0  0
  1  2  1  0
  2  3  2  0
  2  4  1  0
  4  5  1  0
  5  6  1  0
  6  7  1  0
  7  8  1  0
  8  9  1  0
  9 10  1  6
 10 11  1  0
 11 12  2  0
 11 13  1  0
 13 14  1  0
 14 15  2  0
 15 16  1  0
 16 17  2  0
 17 18  1  0
 14 19  1  0
 18 19  2  0
  5 20  1  0
  9 20  1  0
M  END
