pyridine_urea_9973
     RDKit          3D

 24 25  0  0  0  0  0  0  0  0999 V2000
   12.2660    3.2210   22.6520 C   0  0  0  0  0  0  0  0  0  0  0  0
   10.9690    2.7410   23.2790 C   0  0  0  0  0  0  0  0  0  0  0  0
   10.5090    1.5030   22.7480 O   0  0  0  0  0  0  0  0  0  0  0  0
   10.2050    0.4850   23.6170 C   0  0  0  0  0  0  0  0  0  0  0  0
   10.1480    0.6780   24.8360 O   0  0  0  0  0  0  0  0  0  0  0  0
    9.9370   -0.7800   23.0970 C   0  0  2  0  0  0  0  0  0  0  0  0
   10.7370   -1.0750   22.0280 C   0  0  0  0  0  0  0  0  0  0  0  0
   12.0440   -0.6680   22.1930 C   0  0  0  0  0  0  0  0  0  0  0  0
   12.6140   -1.2510   23.3570 C   0  0  0  0  0  0  0  0  0  0  0  0
   13.1250   -2.5090   23.4070 C   0  0  0  0  0  0  0  0  0  0  0  0
   13.6240   -2.9560   24.5910 C   0  0  0  0  0  0  0  0  0  0  0  0
   13.6160   -2.1670   25.6680 C   0  0  0  0  0  0  0  0  0  0  0  0
   13.0860   -0.8950   25.5840 C   0  0  0  0  0  0  0  0  0  0  0  0
   12.5470   -0.3720   24.3820 C   0  0  0  0  0  0  0  0  0  0  0  0
    8.5370   -0.7250   22.7690 N   0  0  0  0  0  0  0  0  0  0  0  0
    8.1780   -0.0080   21.6660 C   0  0  0  0  0  0  0  0  0  0  0  0
    8.8880    1.1770   21.2180 O   0  0  0  0  0  0  0  0  0  0  0  0
    7.0770   -0.5610   21.0860 N   0  0  0  0  0  0  0  0  0  0  0  0
    6.4340    0.0680   19.9690 C   0  0  0  0  0  0  0  0  0  0  0  0
    5.2860    0.8050   20.2300 C   0  0  0  0  0  0  0  0  0  0  0  0
    4.6220    1.4620   19.2100 C   0  0  0  0  0  0  0  0  0  0  0  0
    5.1290    1.3660   17.9250 C   0  0  0  0  0  0  0  0  0  0  0  0
    6.2280    0.6550   17.6220 N   0  0  0  0  0  0  0  0  0  0  0  0
    6.8730    0.0070   18.6730 C   0  0  0  0  0  0  0  0  0  0  0  0
  1  2  1  0
  2  3  1  0
  3  4  1  0
  4  5  2  0
  4  6  1  0
  6  7  1  6
  7  8  1  0
  8  9  1  0
  9 10  2  0
 10 11  1  0
 11 12  2  0
 12 13  1  0
  9 14  1  0
 13 14  2  0
  6 15  1  0
 15 16  1  0
 16 17  2  0
 16 18  1  0
 18 19  1  0
 19 20  2  0
 20 21  1  0
 21 22  2  0
 22 23  1  0
 19 24  1  0
 23 24  2  0
M  END
