pyridine_urea_9684
     RDKit          3D

 29 32  0  0  0  0  0  0  0  0999 V2000
    9.0620    0.7020   21.5050 O   0  0  0  0  0  0  0  0  0  0  0  0
    8.6070   -0.4270   21.4310 C   0  0  0  0  0  0  0  0  0  0  0  0
    9.3830   -1.5730   21.6130 N   0  0  0  0  0  0  0  0  0  0  0  0
   10.2800   -1.8060   22.7630 C   0  0  0  0  0  0  0  0  0  0  0  0
   11.5770   -1.0060   22.6870 C   0  0  0  0  0  0  0  0  0  0  0  0
   10.2870   -0.2740   23.1060 C   0  0  0  0  0  0  0  0  0  0  0  0
   10.1520    1.1750   23.4260 C   0  0  0  0  0  0  0  0  0  0  0  0
   11.3320    2.0160   23.3480 C   0  0  0  0  0  0  0  0  0  0  0  0
   11.0180    3.4810   23.6760 C   0  0  0  0  0  0  0  0  0  0  0  0
   12.0440    4.4190   23.5330 C   0  0  0  0  0  0  0  0  0  0  0  0
   11.8450    5.7650   23.8460 C   0  0  0  0  0  0  0  0  0  0  0  0
   10.6160    6.2270   24.3060 C   0  0  0  0  0  0  0  0  0  0  0  0
   10.4650    7.5640   24.6400 C   0  0  0  0  0  0  0  0  0  0  0  0
    9.2450    8.2070   24.3480 C   0  0  0  0  0  0  0  0  0  0  0  0
    9.0930    9.6410   24.7310 C   0  0  0  0  0  0  0  0  0  0  0  0
   10.1540   10.2870   25.3560 C   0  0  0  0  0  0  0  0  0  0  0  0
   11.4310    9.5760   25.6470 C   0  0  0  0  0  0  0  0  0  0  0  0
   11.5350    8.2330   25.2740 C   0  0  0  0  0  0  0  0  0  0  0  0
    9.5260    5.3730   24.4540 C   0  0  0  0  0  0  0  0  0  0  0  0
    9.7060    4.0280   24.1490 C   0  0  0  0  0  0  0  0  0  0  0  0
   12.5040    1.4160   23.0070 C   0  0  0  0  0  0  0  0  0  0  0  0
   12.5790    0.0460   22.7170 C   0  0  0  0  0  0  0  0  0  0  0  0
    7.2940   -0.7250   21.1110 N   0  0  0  0  0  0  0  0  0  0  0  0
    6.5730   -0.0590   20.0980 C   0  0  0  0  0  0  0  0  0  0  0  0
    5.4040    0.6390   20.4150 C   0  0  0  0  0  0  0  0  0  0  0  0
    4.6460    1.3670   19.3000 C   0  0  0  0  0  0  0  0  0  0  0  0
    5.1880    1.2780   18.0230 C   0  0  0  0  0  0  0  0  0  0  0  0
    6.3130    0.5890   17.7630 N   0  0  0  0  0  0  0  0  0  0  0  0
    6.9610   -0.0460   18.7710 C   0  0  0  0  0  0  0  0  0  0  0  0
  1  2  2  0
  2  3  1  0
  3  4  1  0
  4  5  1  0
  5  6  2  0
  6  7  1  0
  7  8  2  0
  8  9  1  0
  9 10  2  0
 10 11  1  0
 11 12  2  0
 12 13  1  0
 13 14  2  0
 14 15  1  0
 15 16  2  0
 16 17  1  0
 13 18  1  0
 17 18  2  0
 12 19  1  0
  9 20  1  0
 19 20  2  0
  8 21  1  0
  5 22  1  0
 21 22  2  0
  2 23  1  0
 23 24  1  0
 24 25  2  0
 25 26  1  0
 26 27  2  0
 27 28  1  0
 24 29  1  0
 28 29  2  0
M  END
