pyridine_urea_5033
     RDKit          3D

 20 22  0  0  0  0  0  0  0  0999 V2000
    8.8110    1.2980   21.0890 O   0  0  0  0  0  0  0  0  0  0  0  0
    8.3320    0.1970   21.3800 C   0  0  0  0  0  0  0  0  0  0  0  0
    7.1160   -0.2980   21.0270 N   0  0  0  0  0  0  0  0  0  0  0  0
    6.4330    0.2510   19.9650 C   0  0  0  0  0  0  0  0  0  0  0  0
    5.2620    0.9580   20.2040 C   0  0  0  0  0  0  0  0  0  0  0  0
    4.5890    1.5350   19.1350 C   0  0  0  0  0  0  0  0  0  0  0  0
    5.1260    1.3710   17.8790 C   0  0  0  0  0  0  0  0  0  0  0  0
    6.2430    0.6830   17.6300 N   0  0  0  0  0  0  0  0  0  0  0  0
    6.8740    0.1370   18.6760 C   0  0  0  0  0  0  0  0  0  0  0  0
    9.0140   -0.7090   22.1020 N   0  0  0  0  0  0  0  0  0  0  0  0
   10.3630   -0.3610   22.4190 C   0  0  2  0  0  0  0  0  0  0  0  0
   11.2610   -1.5000   22.1890 C   0  0  0  0  0  0  0  0  0  0  0  0
   12.2840   -0.8950   22.9020 O   0  0  0  0  0  0  0  0  0  0  0  0
   11.8960   -0.8200   24.2450 C   0  0  0  0  0  0  0  0  0  0  0  0
   13.2220   -1.2360   24.2110 C   0  0  0  0  0  0  0  0  0  0  0  0
   12.9760   -1.1140   23.0340 C   0  0  0  0  0  0  0  0  0  0  0  0
   12.2940   -0.9240   24.4280 C   0  0  0  0  0  0  0  0  0  0  0  0
   11.0020   -0.5230   24.9160 C   0  0  0  0  0  0  0  0  0  0  0  0
   10.4800   -0.3680   26.1310 F   0  0  0  0  0  0  0  0  0  0  0  0
   10.4680   -0.3670   23.8720 C   0  0  0  0  0  0  0  0  0  0  0  0
  1  2  2  0
  2  3  1  0
  3  4  1  0
  4  5  2  0
  5  6  1  0
  6  7  2  0
  7  8  1  0
  4  9  1  0
  8  9  2  0
  2 10  1  0
 11 10  1  1
 11 12  1  0
 12 13  1  0
 13 14  1  0
 14 15  1  0
 15 16  2  0
 16 17  1  0
 17 18  2  0
 18 19  1  0
 11 20  1  0
 14 20  2  0
 18 20  1  0
M  END
