pyridine_urea_7753
     RDKit          3D

 30 32  0  0  0  0  0  0  0  0999 V2000
    8.7820    1.4280   21.0900 O   0  0  0  0  0  0  0  0  0  0  0  0
    8.3470    0.3820   21.5680 C   0  0  0  0  0  0  0  0  0  0  0  0
    7.2820   -0.3380   21.0880 N   0  0  0  0  0  0  0  0  0  0  0  0
    6.5450    0.1770   20.0280 C   0  0  0  0  0  0  0  0  0  0  0  0
    5.3690    0.8850   20.2980 C   0  0  0  0  0  0  0  0  0  0  0  0
    4.6390    1.4290   19.2470 C   0  0  0  0  0  0  0  0  0  0  0  0
    5.1150    1.2440   17.9700 C   0  0  0  0  0  0  0  0  0  0  0  0
    6.2280    0.5620   17.6860 N   0  0  0  0  0  0  0  0  0  0  0  0
    6.9180    0.0430   18.7130 C   0  0  0  0  0  0  0  0  0  0  0  0
    8.9420   -0.1650   22.6640 N   0  0  0  0  0  0  0  0  0  0  0  0
   10.3680    0.1780   22.7750 C   0  0  1  0  0  0  0  0  0  0  0  0
   10.5940    1.0660   23.9890 C   0  0  0  0  0  0  0  0  0  0  0  0
   11.7870    1.8490   23.7710 O   0  0  0  0  0  0  0  0  0  0  0  0
   11.5970    3.2050   23.3300 C   0  0  0  0  0  0  0  0  0  0  0  0
   10.3360    3.7530   23.5380 C   0  0  0  0  0  0  0  0  0  0  0  0
    9.9890    5.0510   23.1890 C   0  0  0  0  0  0  0  0  0  0  0  0
   10.9620    5.8510   22.5950 C   0  0  0  0  0  0  0  0  0  0  0  0
   12.2440    5.3210   22.3700 C   0  0  0  0  0  0  0  0  0  0  0  0
   13.1370    6.1550   21.7900 F   0  0  0  0  0  0  0  0  0  0  0  0
   12.5720    4.0110   22.7280 C   0  0  0  0  0  0  0  0  0  0  0  0
   11.2790   -1.0570   22.6010 C   0  0  0  0  0  0  0  0  0  0  0  0
   11.2470   -1.7360   21.5930 C   0  0  0  0  0  0  0  0  0  0  0  0
   12.0970   -2.0110   22.7130 C   0  0  0  0  0  0  0  0  0  0  0  0
   11.5520   -0.7270   23.4240 C   0  0  0  0  0  0  0  0  0  0  0  0
   12.3960   -1.1540   24.4820 C   0  0  0  0  0  0  0  0  0  0  0  0
   13.2490   -2.1850   24.7950 C   0  0  0  0  0  0  0  0  0  0  0  0
   13.9750   -2.0800   25.9240 F   0  0  0  0  0  0  0  0  0  0  0  0
   14.0290   -2.5810   23.7710 F   0  0  0  0  0  0  0  0  0  0  0  0
   12.5070   -3.2850   25.0190 F   0  0  0  0  0  0  0  0  0  0  0  0
   12.2340   -1.7210   23.3820 C   0  0  0  0  0  0  0  0  0  0  0  0
  1  2  2  0
  2  3  1  0
  3  4  1  0
  4  5  2  0
  5  6  1  0
  6  7  2  0
  7  8  1  0
  4  9  1  0
  8  9  2  0
  2 10  1  0
 10 11  1  0
 11 12  1  1
 12 13  1  0
 13 14  1  0
 14 15  2  0
 15 16  1  0
 16 17  2  0
 17 18  1  0
 18 19  1  0
 14 20  1  0
 18 20  2  0
 11 21  1  0
 21 22  2  0
 22 23  1  0
 23 24  2  0
 24 25  1  0
 25 26  1  0
 26 27  1  0
 26 28  1  0
 26 29  1  0
 21 30  1  0
 25 30  2  0
M  END
