pyridine_urea_4670
     RDKit          3D

 22 23  0  0  0  0  0  0  0  0999 V2000
   13.2430   -2.9080   20.8030 C   0  0  0  0  0  0  0  0  0  0  0  0
   13.2200   -1.5250   21.0180 O   0  0  0  0  0  0  0  0  0  0  0  0
   12.3460   -1.3370   22.0210 C   0  0  0  0  0  0  0  0  0  0  0  0
   12.9190   -0.8470   23.2830 C   0  0  0  0  0  0  0  0  0  0  0  0
   12.1150   -0.7040   24.2690 C   0  0  0  0  0  0  0  0  0  0  0  0
   12.3940   -0.3480   25.4990 N   0  0  0  0  0  0  0  0  0  0  0  0
   13.4430   -1.1090   25.9780 O   0  0  0  0  0  0  0  0  0  0  0  0
   11.2630   -0.3870   26.0180 O   0  0  0  0  0  0  0  0  0  0  0  0
   10.8320   -0.9490   24.1550 C   0  0  0  0  0  0  0  0  0  0  0  0
   10.3480   -1.3940   22.9780 C   0  0  0  0  0  0  0  0  0  0  0  0
   10.9800   -1.6670   21.7540 C   0  0  0  0  0  0  0  0  0  0  0  0
    9.6260   -1.8790   21.8560 C   0  0  0  0  0  0  0  0  0  0  0  0
    8.9660   -1.0990   20.9950 N   0  0  0  0  0  0  0  0  0  0  0  0
    8.2120    0.0000   21.2740 C   0  0  0  0  0  0  0  0  0  0  0  0
    8.6970    1.0950   21.5280 O   0  0  0  0  0  0  0  0  0  0  0  0
    6.9150   -0.3120   21.1950 N   0  0  0  0  0  0  0  0  0  0  0  0
    6.3510    0.2280   20.1110 C   0  0  0  0  0  0  0  0  0  0  0  0
    5.1700    0.9560   20.2810 C   0  0  0  0  0  0  0  0  0  0  0  0
    4.5820    1.5580   19.0570 C   0  0  0  0  0  0  0  0  0  0  0  0
    5.1830    1.3940   17.8470 C   0  0  0  0  0  0  0  0  0  0  0  0
    6.3230    0.6760   17.7140 N   0  0  0  0  0  0  0  0  0  0  0  0
    6.8680    0.1160   18.8250 C   0  0  0  0  0  0  0  0  0  0  0  0
  1  2  1  0
  2  3  1  0
  3  4  2  0
  4  5  1  0
  5  6  1  0
  6  7  2  0
  6  8  1  0
  5  9  2  0
  9 10  1  0
  3 11  1  0
 10 11  2  0
 11 12  1  0
 12 13  1  0
 13 14  1  0
 14 15  2  0
 14 16  1  0
 16 17  1  0
 17 18  2  0
 18 19  1  0
 19 20  2  0
 20 21  1  0
 17 22  1  0
 21 22  2  0
M  CHG  2   6   1   8  -1
M  END
