pyridine_urea_6483
     RDKit          3D

 23 24  0  0  0  0  0  0  0  0999 V2000
   12.8450    1.1790   23.0440 C   0  0  0  0  0  0  0  0  0  0  0  0
   11.9780    1.1890   24.1070 N   0  0  0  0  0  0  0  0  0  0  0  0
   10.7340    1.9210   23.9320 C   0  0  0  0  0  0  0  0  0  0  0  0
   11.9670   -0.2300   25.0470 S   0  0  0  0  0  0  0  0  0  0  0  0
   13.2080   -0.5130   25.6890 O   0  0  0  0  0  0  0  0  0  0  0  0
   10.6650   -0.3630   25.6650 O   0  0  0  0  0  0  0  0  0  0  0  0
   11.9410   -1.0260   23.7480 C   0  0  0  0  0  0  0  0  0  0  0  0
   13.0350   -1.6800   23.0770 C   0  0  0  0  0  0  0  0  0  0  0  0
   12.7510   -2.3360   21.9830 C   0  0  0  0  0  0  0  0  0  0  0  0
   11.3900   -2.4550   21.3780 C   0  0  0  0  0  0  0  0  0  0  0  0
   11.3320   -3.1370   20.3900 O   0  0  0  0  0  0  0  0  0  0  0  0
   10.1970   -1.7980   21.9480 C   0  0  0  0  0  0  0  0  0  0  0  0
    8.8520   -1.8020   21.4740 N   0  0  0  0  0  0  0  0  0  0  0  0
    8.1800   -0.5130   21.2980 C   0  0  0  0  0  0  0  0  0  0  0  0
    8.8320    0.7570   21.3190 O   0  0  0  0  0  0  0  0  0  0  0  0
    6.8640   -0.6910   21.1100 N   0  0  0  0  0  0  0  0  0  0  0  0
    6.3630   -0.0370   20.0440 C   0  0  0  0  0  0  0  0  0  0  0  0
    5.1900    0.7170   20.1750 C   0  0  0  0  0  0  0  0  0  0  0  0
    4.6040    1.4340   19.1330 C   0  0  0  0  0  0  0  0  0  0  0  0
    5.2150    1.3990   17.9030 C   0  0  0  0  0  0  0  0  0  0  0  0
    6.3550    0.6750   17.7240 N   0  0  0  0  0  0  0  0  0  0  0  0
    6.9290   -0.0400   18.7760 C   0  0  0  0  0  0  0  0  0  0  0  0
   10.5570   -1.0700   23.1950 C   0  0  0  0  0  0  0  0  0  0  0  0
  1  2  1  0
  2  3  1  0
  4  2  1  0
  4  5  2  0
  4  6  2  0
  4  7  1  0
  7  8  2  0
  8  9  1  0
  9 10  2  0
 10 11  1  0
 10 12  1  0
 12 13  1  0
 13 14  1  0
 14 15  2  0
 14 16  1  0
 16 17  1  0
 17 18  2  0
 18 19  1  0
 19 20  2  0
 20 21  1  0
 17 22  1  0
 21 22  2  0
  7 23  1  0
 12 23  2  0
M  END
