pyridine_urea_12333
     RDKit          3D

 22 23  0  0  0  0  0  0  0  0999 V2000
   13.1040   -1.8120   21.3560 C   0  0  0  0  0  0  0  0  0  0  0  0
   11.7580   -1.3360   21.9120 C   0  0  0  0  0  0  0  0  0  0  0  0
   11.7770    0.2270   22.8440 S   0  0  0  0  0  0  0  0  0  0  0  0
   10.5310    0.3180   23.5950 O   0  0  0  0  0  0  0  0  0  0  0  0
   12.3390    1.3740   22.2180 O   0  0  0  0  0  0  0  0  0  0  0  0
   13.1030   -0.3220   23.8050 C   0  0  0  0  0  0  0  0  0  0  0  0
   12.8880   -1.4350   24.5360 C   0  0  0  0  0  0  0  0  0  0  0  0
   11.5330   -1.6020   24.6050 N   0  0  0  0  0  0  0  0  0  0  0  0
   10.2020   -1.7150   24.2680 C   0  0  0  0  0  0  0  0  0  0  0  0
    9.8280   -1.6010   22.9930 C   0  0  0  0  0  0  0  0  0  0  0  0
    8.6070   -1.6340   22.3350 N   0  0  0  0  0  0  0  0  0  0  0  0
    8.1150   -0.5250   21.4990 C   0  0  0  0  0  0  0  0  0  0  0  0
    8.7010    0.5350   21.3010 O   0  0  0  0  0  0  0  0  0  0  0  0
    6.8860   -0.8230   20.9750 N   0  0  0  0  0  0  0  0  0  0  0  0
    6.2930   -0.0780   19.9640 C   0  0  0  0  0  0  0  0  0  0  0  0
    5.0020    0.6570   20.2910 C   0  0  0  0  0  0  0  0  0  0  0  0
    4.4330    1.4560   19.1300 C   0  0  0  0  0  0  0  0  0  0  0  0
    5.2030    1.4200   17.8280 C   0  0  0  0  0  0  0  0  0  0  0  0
    6.3360    0.7220   17.6700 N   0  0  0  0  0  0  0  0  0  0  0  0
    6.8370    0.0130   18.7010 C   0  0  0  0  0  0  0  0  0  0  0  0
   10.9840   -1.4180   22.3800 C   0  0  0  0  0  0  0  0  0  0  0  0
   12.0020   -1.4070   23.2850 N   0  0  0  0  0  0  0  0  0  0  0  0
  1  2  1  0
  3  2  1  0
  3  4  2  0
  3  5  2  0
  3  6  1  0
  6  7  1  0
  7  8  1  0
  8  9  1  0
  9 10  2  0
 10 11  1  0
 11 12  1  0
 12 13  2  0
 12 14  1  0
 14 15  1  0
 15 16  2  0
 16 17  1  0
 17 18  2  0
 18 19  1  0
 15 20  1  0
 19 20  2  0
 10 21  1  0
  8 22  1  0
 21 22  2  0
M  END
