pyridine_urea_10509
     RDKit          3D

 21 23  0  0  0  0  0  0  0  0999 V2000
    8.8720    1.5140   21.1030 O   0  0  0  0  0  0  0  0  0  0  0  0
    8.2960    0.5630   21.6290 C   0  0  0  0  0  0  0  0  0  0  0  0
    7.3250   -0.2330   21.0770 N   0  0  0  0  0  0  0  0  0  0  0  0
    6.4950    0.2850   20.1010 C   0  0  0  0  0  0  0  0  0  0  0  0
    5.1700    0.9980   20.4030 C   0  0  0  0  0  0  0  0  0  0  0  0
    4.4620    1.5140   19.1640 C   0  0  0  0  0  0  0  0  0  0  0  0
    5.1220    1.2710   17.8500 C   0  0  0  0  0  0  0  0  0  0  0  0
    6.2800    0.6200   17.7010 N   0  0  0  0  0  0  0  0  0  0  0  0
    6.9120    0.1580   18.7890 C   0  0  0  0  0  0  0  0  0  0  0  0
    8.6040    0.1880   22.8990 N   0  0  0  0  0  0  0  0  0  0  0  0
    9.8870   -0.3680   23.0250 C   0  0  0  0  0  0  0  0  0  0  0  0
   10.3360   -0.9960   21.8930 C   0  0  0  0  0  0  0  0  0  0  0  0
   11.5390   -1.5830   21.8790 C   0  0  0  0  0  0  0  0  0  0  0  0
   12.2690   -1.5360   22.9950 C   0  0  0  0  0  0  0  0  0  0  0  0
   11.8740   -0.9110   24.1600 C   0  0  0  0  0  0  0  0  0  0  0  0
   10.6080   -0.2720   24.2130 C   0  0  0  0  0  0  0  0  0  0  0  0
   12.7140   -0.9700   25.1630 N   0  0  0  0  0  0  0  0  0  0  0  0
   13.5660   -2.0370   25.2990 C   0  0  0  0  0  0  0  0  0  0  0  0
   14.1020   -2.3540   26.3080 O   0  0  0  0  0  0  0  0  0  0  0  0
   13.7990   -2.7160   24.1660 N   0  0  0  0  0  0  0  0  0  0  0  0
   13.4480   -2.1410   22.9970 C   0  0  0  0  0  0  0  0  0  0  0  0
  1  2  2  0
  2  3  1  0
  3  4  1  0
  4  5  2  0
  5  6  1  0
  6  7  2  0
  7  8  1  0
  4  9  1  0
  8  9  2  0
  2 10  1  0
 10 11  1  0
 11 12  2  0
 12 13  1  0
 13 14  2  0
 14 15  1  0
 11 16  1  0
 15 16  2  0
 15 17  1  0
 17 18  1  0
 18 19  2  0
 18 20  1  0
 14 21  1  0
 20 21  1  0
M  END
