pyridine_urea_13911
     RDKit          3D

 24 26  0  0  0  0  0  0  0  0999 V2000
    9.0030    1.4110   21.2710 O   0  0  0  0  0  0  0  0  0  0  0  0
    8.8820    0.2070   21.5310 C   0  0  0  0  0  0  0  0  0  0  0  0
    7.7110   -0.4890   21.2040 N   0  0  0  0  0  0  0  0  0  0  0  0
    6.8530    0.0520   20.1410 C   0  0  0  0  0  0  0  0  0  0  0  0
    5.6420    0.8750   20.5900 C   0  0  0  0  0  0  0  0  0  0  0  0
    4.8050    1.4210   19.4810 C   0  0  0  0  0  0  0  0  0  0  0  0
    5.1670    1.1560   18.1790 C   0  0  0  0  0  0  0  0  0  0  0  0
    6.2370    0.4210   17.8240 N   0  0  0  0  0  0  0  0  0  0  0  0
    7.0390   -0.1070   18.7850 C   0  0  0  0  0  0  0  0  0  0  0  0
    9.8960   -0.5760   22.1480 N   0  0  0  0  0  0  0  0  0  0  0  0
   10.8350   -0.0510   23.2510 C   0  0  1  0  0  0  0  0  0  0  0  0
    9.9890    0.5270   24.0710 C   0  0  0  0  0  0  0  0  0  0  0  0
   11.2930    1.1380   23.6940 C   0  0  0  0  0  0  0  0  0  0  0  0
   12.1360    0.3760   22.8780 C   0  0  0  0  0  0  0  0  0  0  0  0
   11.6910   -0.9320   22.4670 C   0  0  0  0  0  0  0  0  0  0  0  0
   12.6840   -1.9570   21.4810 Cl  0  0  0  0  0  0  0  0  0  0  0  0
   10.3950   -1.4580   22.8680 C   0  0  0  0  0  0  0  0  0  0  0  0
   10.0950   -2.7060   22.4080 F   0  0  0  0  0  0  0  0  0  0  0  0
    9.4230   -0.6770   23.7570 C   0  0  0  0  0  0  0  0  0  0  0  0
   11.7680   -1.1520   23.8930 C   0  0  0  0  0  0  0  0  0  0  0  0
   13.0800   -1.0450   24.1880 N   0  0  0  0  0  0  0  0  0  0  0  0
   13.5170   -2.2040   24.7300 N   0  0  0  0  0  0  0  0  0  0  0  0
   12.4890   -3.0710   24.7890 N   0  0  0  0  0  0  0  0  0  0  0  0
   11.3980   -2.4150   24.2700 N   0  0  0  0  0  0  0  0  0  0  0  0
  1  2  2  0
  2  3  1  0
  3  4  1  0
  4  5  2  0
  5  6  1  0
  6  7  2  0
  7  8  1  0
  4  9  1  0
  8  9  2  0
  2 10  1  0
 11 10  1  6
 11 12  1  0
 12 13  2  0
 13 14  1  0
 14 15  2  0
 15 16  1  0
 15 17  1  0
 17 18  1  0
 12 19  1  0
 17 19  2  0
 11 20  1  0
 20 21  2  0
 21 22  1  0
 22 23  2  0
 20 24  1  0
 23 24  1  0
M  END
