pyridine_urea_9629
     RDKit          3D

 23 24  0  0  0  0  0  0  0  0999 V2000
    9.1470   -5.2060   25.9030 C   0  0  0  0  0  0  0  0  0  0  0  0
    8.4770   -3.9140   25.3880 C   0  0  0  0  0  0  0  0  0  0  0  0
    9.3250   -3.3670   24.3580 O   0  0  0  0  0  0  0  0  0  0  0  0
    9.3940   -1.9330   24.3270 C   0  0  0  0  0  0  0  0  0  0  0  0
    9.2290   -1.1950   25.4690 O   0  0  0  0  0  0  0  0  0  0  0  0
    9.6600   -1.2820   22.9880 C   0  0  1  0  0  0  0  0  0  0  0  0
   11.0600   -1.5310   22.4780 C   0  0  0  0  0  0  0  0  0  0  0  0
   11.6800   -0.4270   23.2090 C   0  0  0  0  0  0  0  0  0  0  0  0
   13.0180    0.0350   22.7630 C   0  0  0  0  0  0  0  0  0  0  0  0
   12.3550    1.1540   23.1370 C   0  0  0  0  0  0  0  0  0  0  0  0
   12.8650    2.3120   22.6620 F   0  0  0  0  0  0  0  0  0  0  0  0
   12.5440    1.1520   24.4060 F   0  0  0  0  0  0  0  0  0  0  0  0
   11.0450    0.8230   23.0200 C   0  0  0  0  0  0  0  0  0  0  0  0
    8.6670   -1.6510   22.0080 N   0  0  0  0  0  0  0  0  0  0  0  0
    8.1360   -0.5670   21.3610 C   0  0  0  0  0  0  0  0  0  0  0  0
    8.7330    0.4950   21.2330 O   0  0  0  0  0  0  0  0  0  0  0  0
    6.8820   -0.8420   20.9130 N   0  0  0  0  0  0  0  0  0  0  0  0
    6.2250   -0.0630   19.9710 C   0  0  0  0  0  0  0  0  0  0  0  0
    5.0400    0.6350   20.1830 C   0  0  0  0  0  0  0  0  0  0  0  0
    4.5100    1.4200   19.0470 C   0  0  0  0  0  0  0  0  0  0  0  0
    5.1940    1.4300   17.8460 C   0  0  0  0  0  0  0  0  0  0  0  0
    6.3370    0.7400   17.6700 N   0  0  0  0  0  0  0  0  0  0  0  0
    6.8110    0.0260   18.7170 C   0  0  0  0  0  0  0  0  0  0  0  0
  1  2  1  0
  2  3  1  0
  3  4  1  0
  4  5  2  0
  4  6  1  0
  6  7  1  6
  7  8  1  0
  8  9  1  0
  9 10  1  0
 10 11  1  0
 10 12  1  0
  8 13  1  0
 10 13  1  0
  6 14  1  0
 14 15  1  0
 15 16  2  0
 15 17  1  0
 17 18  1  0
 18 19  2  0
 19 20  1  0
 20 21  2  0
 21 22  1  0
 18 23  1  0
 22 23  2  0
M  END
