pyridine_urea_4922
     RDKit          3D

 21 22  0  0  0  0  0  0  0  0999 V2000
    8.0690    1.5220   20.8850 O   0  0  0  0  0  0  0  0  0  0  0  0
    8.1720    0.3870   21.3360 C   0  0  0  0  0  0  0  0  0  0  0  0
    7.2000   -0.5250   21.1110 N   0  0  0  0  0  0  0  0  0  0  0  0
    6.5360   -0.0000   19.9680 C   0  0  0  0  0  0  0  0  0  0  0  0
    5.2620    0.8080   20.2500 C   0  0  0  0  0  0  0  0  0  0  0  0
    4.5690    1.3970   19.2030 C   0  0  0  0  0  0  0  0  0  0  0  0
    5.0800    1.2210   17.9250 C   0  0  0  0  0  0  0  0  0  0  0  0
    6.2110    0.4830   17.7190 N   0  0  0  0  0  0  0  0  0  0  0  0
    6.9570   -0.1400   18.7130 C   0  0  0  0  0  0  0  0  0  0  0  0
    9.2650    0.0300   21.9960 N   0  0  0  0  0  0  0  0  0  0  0  0
   10.4960   -0.0570   22.4320 C   0  0  0  0  0  0  0  0  0  0  0  0
   11.0040    1.1800   22.7770 C   0  0  0  0  0  0  0  0  0  0  0  0
   12.2860    1.2630   23.2130 C   0  0  0  0  0  0  0  0  0  0  0  0
   13.0170    0.1110   23.3070 C   0  0  0  0  0  0  0  0  0  0  0  0
   12.5030   -1.1280   22.9760 C   0  0  0  0  0  0  0  0  0  0  0  0
   13.4210   -2.5460   23.1560 S   0  0  0  0  0  0  0  0  0  0  0  0
   12.9860   -2.8830   24.7900 C   0  0  0  0  0  0  0  0  0  0  0  0
   12.9120   -1.7100   25.3900 F   0  0  0  0  0  0  0  0  0  0  0  0
   13.7920   -3.6360   25.5200 F   0  0  0  0  0  0  0  0  0  0  0  0
   11.7730   -3.4300   24.8380 F   0  0  0  0  0  0  0  0  0  0  0  0
   11.2120   -1.2190   22.5210 C   0  0  0  0  0  0  0  0  0  0  0  0
  1  2  2  0
  2  3  1  0
  3  4  1  0
  4  5  2  0
  5  6  1  0
  6  7  2  0
  7  8  1  0
  4  9  1  0
  8  9  2  0
  2 10  1  0
 10 11  1  0
 11 12  2  0
 12 13  1  0
 13 14  2  0
 14 15  1  0
 15 16  1  0
 16 17  1  0
 17 18  1  0
 17 19  1  0
 17 20  1  0
 11 21  1  0
 15 21  2  0
M  END
