pyridine_urea_10897
     RDKit          3D

 19 20  0  0  0  0  0  0  0  0999 V2000
    3.3210    0.7470   21.7190 C   0  0  0  0  0  0  0  0  0  0  0  0
    4.7550    1.2010   21.7720 C   0  0  0  0  0  0  0  0  0  0  0  0
    5.0290    2.5410   22.0420 C   0  0  0  0  0  0  0  0  0  0  0  0
    5.3390    0.9080   20.3810 C   0  0  0  0  0  0  0  0  0  0  0  0
    4.6960    1.4950   19.3030 C   0  0  0  0  0  0  0  0  0  0  0  0
    5.1960    1.2720   17.9530 C   0  0  0  0  0  0  0  0  0  0  0  0
    6.3400    0.4320   17.8220 N   0  0  0  0  0  0  0  0  0  0  0  0
    7.0970   -0.2350   18.7540 C   0  0  0  0  0  0  0  0  0  0  0  0
    6.4740    0.0940   20.1400 C   0  0  0  0  0  0  0  0  0  0  0  0
    7.2490   -0.5600   21.1830 N   0  0  0  0  0  0  0  0  0  0  0  0
    8.5040   -0.1690   21.5850 C   0  0  0  0  0  0  0  0  0  0  0  0
    8.9910    0.9090   21.2870 O   0  0  0  0  0  0  0  0  0  0  0  0
    9.1040   -1.0920   22.3200 N   0  0  0  0  0  0  0  0  0  0  0  0
   10.3990   -0.5480   22.5040 C   0  0  0  0  0  0  0  0  0  0  0  0
   11.5090   -1.3880   22.3560 C   0  0  0  0  0  0  0  0  0  0  0  0
   12.7890   -0.8800   22.5280 C   0  0  0  0  0  0  0  0  0  0  0  0
   12.9300    0.4540   22.8370 C   0  0  0  0  0  0  0  0  0  0  0  0
   11.9040    1.2990   22.9820 N   0  0  0  0  0  0  0  0  0  0  0  0
   10.6600    0.7810   22.8210 C   0  0  0  0  0  0  0  0  0  0  0  0
  1  2  1  0
  2  3  1  0
  2  4  1  0
  4  5  2  0
  5  6  1  0
  6  7  2  0
  7  8  1  0
  4  9  1  0
  8  9  2  0
  9 10  1  0
 10 11  1  0
 11 12  2  0
 11 13  1  0
 13 14  1  0
 14 15  2  0
 15 16  1  0
 16 17  2  0
 17 18  1  0
 14 19  1  0
 18 19  2  0
M  END
