pyridine_urea_4537
     RDKit          3D

 22 23  0  0  0  0  0  0  0  0999 V2000
   13.8970   -3.7950   26.2750 N   0  0  0  0  0  0  0  0  0  0  0  0
   12.8170   -3.4180   25.5710 C   0  0  0  0  0  0  0  0  0  0  0  0
   11.5490   -3.9850   25.8830 O   0  0  0  0  0  0  0  0  0  0  0  0
   12.9780   -2.4020   24.4550 C   0  0  0  0  0  0  0  0  0  0  0  0
   12.3840   -1.0640   24.6280 C   0  0  0  0  0  0  0  0  0  0  0  0
   12.6500   -0.3740   23.5150 N   0  0  0  0  0  0  0  0  0  0  0  0
   12.2620    0.9290   23.2290 C   0  0  0  0  0  0  0  0  0  0  0  0
   10.7880    0.9110   22.8790 C   0  0  0  0  0  0  0  0  0  0  0  0
   10.4370   -0.4370   22.2510 C   0  0  0  0  0  0  0  0  0  0  0  0
    9.3400   -0.9710   23.1420 C   0  0  0  0  0  0  0  0  0  0  0  0
    8.1480   -0.4570   22.8520 N   0  0  0  0  0  0  0  0  0  0  0  0
    8.0080    0.0340   21.5900 C   0  0  0  0  0  0  0  0  0  0  0  0
    8.7060    1.1450   21.1180 O   0  0  0  0  0  0  0  0  0  0  0  0
    7.1260   -0.7150   20.9580 N   0  0  0  0  0  0  0  0  0  0  0  0
    6.4650   -0.0040   19.9890 C   0  0  0  0  0  0  0  0  0  0  0  0
    5.3120    0.6960   20.2630 C   0  0  0  0  0  0  0  0  0  0  0  0
    4.6960    1.3960   19.2370 C   0  0  0  0  0  0  0  0  0  0  0  0
    5.2200    1.4010   17.9550 C   0  0  0  0  0  0  0  0  0  0  0  0
    6.3530    0.7120   17.6700 N   0  0  0  0  0  0  0  0  0  0  0  0
    6.9240    0.0400   18.6930 C   0  0  0  0  0  0  0  0  0  0  0  0
   13.3660   -1.1710   22.6630 N   0  0  0  0  0  0  0  0  0  0  0  0
   13.5650   -2.4240   23.2560 N   0  0  0  0  0  0  0  0  0  0  0  0
  1  2  1  0
  2  3  2  0
  2  4  1  0
  4  5  2  0
  5  6  1  0
  6  7  1  0
  7  8  1  0
  8  9  1  0
  9 10  1  0
 10 11  1  0
 11 12  1  0
 12 13  2  0
 12 14  1  0
 14 15  1  0
 15 16  2  0
 16 17  1  0
 17 18  2  0
 18 19  1  0
 15 20  1  0
 19 20  2  0
  6 21  1  0
  4 22  1  0
 21 22  2  0
M  END
