pyridine_urea_10396
     RDKit          3D

 22 23  0  0  0  0  0  0  0  0999 V2000
    9.3140   -0.0030   24.8540 C   0  0  0  0  0  0  0  0  0  0  0  0
    9.4410    0.5070   23.4000 C   0  0  2  0  0  0  0  0  0  0  0  0
    8.7930   -0.4260   22.5110 N   0  0  0  0  0  0  0  0  0  0  0  0
    8.2730    0.1730   21.4300 C   0  0  0  0  0  0  0  0  0  0  0  0
    8.7390    1.2400   21.0130 O   0  0  0  0  0  0  0  0  0  0  0  0
    7.2020   -0.5010   20.9320 N   0  0  0  0  0  0  0  0  0  0  0  0
    6.5210    0.1080   19.9130 C   0  0  0  0  0  0  0  0  0  0  0  0
    5.2600    0.8640   20.1770 C   0  0  0  0  0  0  0  0  0  0  0  0
    4.5950    1.5060   19.1530 C   0  0  0  0  0  0  0  0  0  0  0  0
    5.0860    1.4650   17.8430 C   0  0  0  0  0  0  0  0  0  0  0  0
    6.2990    0.7100   17.6320 N   0  0  0  0  0  0  0  0  0  0  0  0
    6.9440    0.0830   18.6350 C   0  0  0  0  0  0  0  0  0  0  0  0
   10.8990    0.7300   22.9610 C   0  0  0  0  0  0  0  0  0  0  0  0
   12.2760    0.4450   22.8890 C   0  0  0  0  0  0  0  0  0  0  0  0
   13.0520   -0.5430   23.4140 C   0  0  0  0  0  0  0  0  0  0  0  0
   12.4270   -1.4650   24.1700 C   0  0  0  0  0  0  0  0  0  0  0  0
   13.3380   -2.5230   24.6690 C   0  0  0  0  0  0  0  0  0  0  0  0
   14.1230   -2.3540   25.7310 F   0  0  0  0  0  0  0  0  0  0  0  0
   12.4770   -3.4690   25.0400 F   0  0  0  0  0  0  0  0  0  0  0  0
   14.0330   -3.0020   23.6360 F   0  0  0  0  0  0  0  0  0  0  0  0
   11.2050   -1.4750   24.4230 N   0  0  0  0  0  0  0  0  0  0  0  0
   10.5320   -0.4950   23.8810 C   0  0  0  0  0  0  0  0  0  0  0  0
  2  1  1  1
  2  3  1  0
  3  4  1  0
  4  5  2  0
  4  6  1  0
  6  7  1  0
  7  8  2  0
  8  9  1  0
  9 10  2  0
 10 11  1  0
  7 12  1  0
 11 12  2  0
  2 13  1  0
 13 14  2  0
 14 15  1  0
 15 16  2  0
 16 17  1  0
 17 18  1  0
 17 19  1  0
 17 20  1  0
 16 21  1  0
 13 22  1  0
 21 22  2  0
M  END
