pyridine_urea_3936
     RDKit          3D

 28 30  0  0  0  0  0  0  0  0999 V2000
    8.7970    1.1590   21.1400 O   0  0  0  0  0  0  0  0  0  0  0  0
    8.2150    0.1270   21.5020 C   0  0  0  0  0  0  0  0  0  0  0  0
    7.1150   -0.4480   20.9540 N   0  0  0  0  0  0  0  0  0  0  0  0
    6.4340    0.1600   19.9260 C   0  0  0  0  0  0  0  0  0  0  0  0
    5.2720    0.8720   20.2080 C   0  0  0  0  0  0  0  0  0  0  0  0
    4.5970    1.5050   19.1680 C   0  0  0  0  0  0  0  0  0  0  0  0
    5.1240    1.3890   17.9020 C   0  0  0  0  0  0  0  0  0  0  0  0
    6.2330    0.6970   17.6180 N   0  0  0  0  0  0  0  0  0  0  0  0
    6.8630    0.0980   18.6380 C   0  0  0  0  0  0  0  0  0  0  0  0
    8.6180   -0.6030   22.5600 N   0  0  0  0  0  0  0  0  0  0  0  0
    9.8730   -0.2810   23.1720 C   0  0  2  0  0  0  0  0  0  0  0  0
   10.0180    1.2550   23.2000 C   0  0  0  0  0  0  0  0  0  0  0  0
   11.1450    1.9840   22.8680 C   0  0  0  0  0  0  0  0  0  0  0  0
   11.1420    3.3770   22.9430 C   0  0  0  0  0  0  0  0  0  0  0  0
   10.0260    4.0910   23.3500 C   0  0  0  0  0  0  0  0  0  0  0  0
    8.8500    3.4440   23.7030 C   0  0  0  0  0  0  0  0  0  0  0  0
    7.4860    4.3600   24.2070 Cl  0  0  0  0  0  0  0  0  0  0  0  0
    8.7580    2.0540   23.6550 C   0  0  0  0  0  0  0  0  0  0  0  0
   10.9510   -0.9970   22.7890 C   0  0  0  0  0  0  0  0  0  0  0  0
   11.4440    0.3890   23.0560 C   0  0  0  0  0  0  0  0  0  0  0  0
   12.3740    1.3610   23.1320 C   0  0  0  0  0  0  0  0  0  0  0  0
   13.5100    0.8340   22.7710 C   0  0  0  0  0  0  0  0  0  0  0  0
   13.4170   -0.4850   22.4530 C   0  0  0  0  0  0  0  0  0  0  0  0
   12.2820   -1.2380   22.4790 C   0  0  0  0  0  0  0  0  0  0  0  0
   12.4880   -2.4690   22.1410 C   0  0  0  0  0  0  0  0  0  0  0  0
   12.8980   -2.6190   20.8550 F   0  0  0  0  0  0  0  0  0  0  0  0
   11.2690   -3.0140   22.3020 F   0  0  0  0  0  0  0  0  0  0  0  0
   13.3890   -3.0630   22.9540 F   0  0  0  0  0  0  0  0  0  0  0  0
  1  2  2  0
  2  3  1  0
  3  4  1  0
  4  5  2  0
  5  6  1  0
  6  7  2  0
  7  8  1  0
  4  9  1  0
  8  9  2  0
  2 10  1  0
 11 10  1  6
 11 12  1  0
 12 13  2  0
 13 14  1  0
 14 15  2  0
 15 16  1  0
 16 17  1  0
 12 18  1  0
 16 18  2  0
 11 19  1  0
 19 20  2  0
 20 21  1  0
 21 22  2  0
 22 23  1  0
 19 24  1  0
 23 24  2  0
 24 25  1  0
 25 26  1  0
 25 27  1  0
 25 28  1  0
M  END
