pyridine_urea_13411
     RDKit          3D

 22 24  0  0  0  0  0  0  0  0999 V2000
    8.7590    1.4960   21.1370 O   0  0  0  0  0  0  0  0  0  0  0  0
    8.2220    0.5100   21.6510 C   0  0  0  0  0  0  0  0  0  0  0  0
    8.6140   -0.0940   22.7770 N   0  0  0  0  0  0  0  0  0  0  0  0
    9.4530   -1.1700   22.7130 C   0  0  0  0  0  0  0  0  0  0  0  0
   10.1620   -1.3980   21.4130 C   0  0  0  0  0  0  0  0  0  0  0  0
   11.5730   -1.5780   21.7670 C   0  0  0  0  0  0  0  0  0  0  0  0
   12.9900   -1.7500   21.3410 C   0  0  0  0  0  0  0  0  0  0  0  0
   13.7660   -1.8840   22.4630 N   0  0  0  0  0  0  0  0  0  0  0  0
   12.9650   -1.8110   23.4770 C   0  0  0  0  0  0  0  0  0  0  0  0
   12.8600   -1.8510   24.8990 C   0  0  0  0  0  0  0  0  0  0  0  0
   11.4510   -1.6610   25.5080 N   0  0  0  0  0  0  0  0  0  0  0  0
   10.4050   -1.4600   24.7100 C   0  0  0  0  0  0  0  0  0  0  0  0
    8.6870   -1.1870   24.8330 Cl  0  0  0  0  0  0  0  0  0  0  0  0
   11.3350   -1.5880   24.0060 C   0  0  0  0  0  0  0  0  0  0  0  0
   11.7320   -1.6230   22.9500 C   0  0  0  0  0  0  0  0  0  0  0  0
    7.1470   -0.0630   21.0750 N   0  0  0  0  0  0  0  0  0  0  0  0
    6.4810    0.3980   19.9220 C   0  0  0  0  0  0  0  0  0  0  0  0
    5.3150    1.1080   20.3220 C   0  0  0  0  0  0  0  0  0  0  0  0
    4.6040    1.6460   19.0840 C   0  0  0  0  0  0  0  0  0  0  0  0
    5.1220    1.4050   17.8330 C   0  0  0  0  0  0  0  0  0  0  0  0
    6.2270    0.7060   17.5800 N   0  0  0  0  0  0  0  0  0  0  0  0
    6.8720    0.2230   18.6280 C   0  0  0  0  0  0  0  0  0  0  0  0
  1  2  2  0
  2  3  1  0
  3  4  1  0
  4  5  1  0
  5  6  1  0
  6  7  2  0
  7  8  1  0
  8  9  1  0
  9 10  1  0
 10 11  2  0
 11 12  1  0
 12 13  1  0
 12 14  2  0
  6 15  1  0
  9 15  2  0
 14 15  1  0
  2 16  1  0
 16 17  1  0
 17 18  2  0
 18 19  1  0
 19 20  2  0
 20 21  1  0
 17 22  1  0
 21 22  2  0
M  END
