pyridine_urea_4819
     RDKit          3D

 22 23  0  0  0  0  0  0  0  0999 V2000
    9.2630    0.0930   26.2130 C   0  0  0  0  0  0  0  0  0  0  0  0
   10.6220   -0.2510   25.9730 O   0  0  0  0  0  0  0  0  0  0  0  0
   10.9740   -0.5840   24.7110 C   0  0  0  0  0  0  0  0  0  0  0  0
    9.8970   -0.5560   23.6730 C   0  0  0  0  0  0  0  0  0  0  0  0
   10.1680   -0.9160   22.3960 C   0  0  0  0  0  0  0  0  0  0  0  0
    9.1840   -0.9310   21.3820 N   0  0  0  0  0  0  0  0  0  0  0  0
    8.3600    0.1250   21.2230 C   0  0  0  0  0  0  0  0  0  0  0  0
    8.7730    1.2930   21.2050 O   0  0  0  0  0  0  0  0  0  0  0  0
    7.0730   -0.2830   21.0620 N   0  0  0  0  0  0  0  0  0  0  0  0
    6.3360    0.2860   20.0450 C   0  0  0  0  0  0  0  0  0  0  0  0
    5.1460    0.9860   20.1760 C   0  0  0  0  0  0  0  0  0  0  0  0
    4.5630    1.5200   19.0570 C   0  0  0  0  0  0  0  0  0  0  0  0
    5.1470    1.3630   17.8400 C   0  0  0  0  0  0  0  0  0  0  0  0
    6.2860    0.6860   17.6460 N   0  0  0  0  0  0  0  0  0  0  0  0
    6.8500    0.1630   18.7560 C   0  0  0  0  0  0  0  0  0  0  0  0
   11.4510   -1.3020   22.0090 C   0  0  0  0  0  0  0  0  0  0  0  0
   12.5170   -1.3100   23.0370 C   0  0  0  0  0  0  0  0  0  0  0  0
   12.2560   -0.9660   24.3410 C   0  0  0  0  0  0  0  0  0  0  0  0
   13.1760   -1.0170   25.2620 N   0  0  0  0  0  0  0  0  0  0  0  0
   13.5470   -2.2990   25.4420 C   0  0  0  0  0  0  0  0  0  0  0  0
   14.6450   -2.6690   26.0580 N   0  0  0  0  0  0  0  0  0  0  0  0
   12.6940   -3.3060   24.9240 O   0  0  0  0  0  0  0  0  0  0  0  0
  1  2  1  0
  2  3  1  0
  3  4  2  0
  4  5  1  0
  5  6  1  0
  6  7  1  0
  7  8  2  0
  7  9  1  0
  9 10  1  0
 10 11  2  0
 11 12  1  0
 12 13  2  0
 13 14  1  0
 10 15  1  0
 14 15  2  0
  5 16  2  0
 16 17  1  0
  3 18  1  0
 17 18  2  0
 18 19  1  0
 19 20  1  0
 20 21  1  0
 20 22  2  0
M  END
