pyridine_urea_6568
     RDKit          3D

 22 23  0  0  0  0  0  0  0  0999 V2000
    7.4250   -0.9370   26.0030 C   0  0  0  0  0  0  0  0  0  0  0  0
    8.3250   -1.8680   25.1590 C   0  0  0  0  0  0  0  0  0  0  0  0
    9.0200   -1.1450   24.1230 O   0  0  0  0  0  0  0  0  0  0  0  0
    9.9650   -0.2260   24.5060 C   0  0  0  0  0  0  0  0  0  0  0  0
    9.5850   -0.4240   25.6590 O   0  0  0  0  0  0  0  0  0  0  0  0
   10.1140   -0.2950   22.9750 C   0  0  1  0  0  0  0  0  0  0  0  0
   11.3630   -0.9560   22.4380 C   0  0  0  0  0  0  0  0  0  0  0  0
   12.4690   -0.1240   22.3520 C   0  0  2  0  0  0  0  0  0  0  0  0
   13.1430    0.0520   23.4430 C   0  0  0  0  0  0  0  0  0  0  0  0
   12.2440    0.3710   24.3890 C   0  0  0  0  0  0  0  0  0  0  0  0
   11.9160    1.4600   24.0550 O   0  0  0  0  0  0  0  0  0  0  0  0
   12.1050    1.3600   22.6510 C   0  0  0  0  0  0  0  0  0  0  0  0
    8.9220   -0.8210   22.3520 N   0  0  0  0  0  0  0  0  0  0  0  0
    8.3310    0.0150   21.4330 C   0  0  0  0  0  0  0  0  0  0  0  0
    8.8070    1.1260   21.1470 O   0  0  0  0  0  0  0  0  0  0  0  0
    7.1840   -0.5450   20.9310 N   0  0  0  0  0  0  0  0  0  0  0  0
    6.3980    0.1250   20.0040 C   0  0  0  0  0  0  0  0  0  0  0  0
    5.1790    0.7940   20.3260 C   0  0  0  0  0  0  0  0  0  0  0  0
    4.5650    1.4520   19.0830 C   0  0  0  0  0  0  0  0  0  0  0  0
    5.2000    1.3430   17.8710 C   0  0  0  0  0  0  0  0  0  0  0  0
    6.3330    0.6900   17.6640 N   0  0  0  0  0  0  0  0  0  0  0  0
    6.8910    0.1070   18.7190 C   0  0  0  0  0  0  0  0  0  0  0  0
  1  2  1  0
  2  3  1  0
  3  4  1  0
  4  5  2  0
  4  6  1  0
  6  7  1  1
  8  7  1  1
  8  9  1  0
  9 10  1  0
 10 11  1  0
  8 12  1  0
 11 12  1  0
  6 13  1  0
 13 14  1  0
 14 15  2  0
 14 16  1  0
 16 17  1  0
 17 18  2  0
 18 19  1  0
 19 20  2  0
 20 21  1  0
 17 22  1  0
 21 22  2  0
M  END
