pyridine_urea_1046
     RDKit          3D

 22 24  0  0  0  0  0  0  0  0999 V2000
    8.5330    1.5070   20.7460 O   0  0  0  0  0  0  0  0  0  0  0  0
    7.9870    0.6630   21.4270 C   0  0  0  0  0  0  0  0  0  0  0  0
    7.0510   -0.3190   20.9430 N   0  0  0  0  0  0  0  0  0  0  0  0
    6.3640    0.2410   19.9240 C   0  0  0  0  0  0  0  0  0  0  0  0
    5.1780    0.9220   20.1620 C   0  0  0  0  0  0  0  0  0  0  0  0
    4.5400    1.5050   19.0810 C   0  0  0  0  0  0  0  0  0  0  0  0
    5.1190    1.3770   17.8190 C   0  0  0  0  0  0  0  0  0  0  0  0
    6.2530    0.7070   17.5920 N   0  0  0  0  0  0  0  0  0  0  0  0
    6.8530    0.1510   18.6520 C   0  0  0  0  0  0  0  0  0  0  0  0
    8.1820    0.5410   22.7200 N   0  0  0  0  0  0  0  0  0  0  0  0
    9.5140    0.2380   22.9870 C   0  0  0  0  0  0  0  0  0  0  0  0
   10.5450    1.3490   22.9040 C   0  0  0  0  0  0  0  0  0  0  0  0
   11.8530    1.0150   23.1850 C   0  0  0  0  0  0  0  0  0  0  0  0
   12.1230   -0.2990   23.5280 C   0  0  0  0  0  0  0  0  0  0  0  0
   13.2300   -0.8460   23.8390 N   0  0  0  0  0  0  0  0  0  0  0  0
   13.1470   -1.5150   25.1500 C   0  0  0  0  0  0  0  0  0  0  0  0
   13.7180   -2.6830   24.9330 C   0  0  0  0  0  0  0  0  0  0  0  0
   13.6900   -2.8810   23.5840 C   0  0  0  0  0  0  0  0  0  0  0  0
   13.4320   -1.7430   22.8790 C   0  0  0  0  0  0  0  0  0  0  0  0
   11.1250   -1.2560   23.5700 C   0  0  0  0  0  0  0  0  0  0  0  0
   11.3910   -2.8910   23.9860 Cl  0  0  0  0  0  0  0  0  0  0  0  0
    9.8810   -0.9760   23.3020 C   0  0  0  0  0  0  0  0  0  0  0  0
  1  2  2  0
  2  3  1  0
  3  4  1  0
  4  5  2  0
  5  6  1  0
  6  7  2  0
  7  8  1  0
  4  9  1  0
  8  9  2  0
  2 10  1  0
 10 11  1  0
 11 12  2  0
 12 13  1  0
 13 14  2  0
 14 15  1  0
 15 16  1  0
 16 17  1  0
 17 18  1  0
 15 19  1  0
 18 19  1  0
 14 20  1  0
 20 21  1  0
 11 22  1  0
 20 22  2  0
M  END
