pyridine_urea_7044
     RDKit          3D

 20 21  0  0  0  0  0  0  0  0999 V2000
   12.6350   -0.3010   23.6000 C   0  0  0  0  0  0  0  0  0  0  0  0
   12.7130   -1.7840   23.8960 C   0  0  0  0  0  0  0  0  0  0  0  0
   13.3310   -2.2270   25.0470 C   0  0  0  0  0  0  0  0  0  0  0  0
   13.4130   -2.4280   22.7260 C   0  0  0  0  0  0  0  0  0  0  0  0
   11.3140   -2.3380   23.7720 C   0  0  0  0  0  0  0  0  0  0  0  0
   10.5220   -1.6150   22.9950 N   0  0  0  0  0  0  0  0  0  0  0  0
    9.3600   -2.4610   23.1210 C   0  0  0  0  0  0  0  0  0  0  0  0
    8.2630   -1.8850   22.3030 C   0  0  0  0  0  0  0  0  0  0  0  0
    9.0180   -0.9730   21.4480 N   0  0  0  0  0  0  0  0  0  0  0  0
    8.2900    0.2170   21.2380 C   0  0  0  0  0  0  0  0  0  0  0  0
    8.7900    1.3500   21.1990 O   0  0  0  0  0  0  0  0  0  0  0  0
    6.9840   -0.0470   21.0610 N   0  0  0  0  0  0  0  0  0  0  0  0
    6.2750    0.4890   20.0290 C   0  0  0  0  0  0  0  0  0  0  0  0
    5.0860    1.2060   20.1470 C   0  0  0  0  0  0  0  0  0  0  0  0
    4.4940    1.7300   19.0120 C   0  0  0  0  0  0  0  0  0  0  0  0
    5.1250    1.5220   17.7060 C   0  0  0  0  0  0  0  0  0  0  0  0
    6.2970    0.7880   17.6150 N   0  0  0  0  0  0  0  0  0  0  0  0
    6.8240    0.3010   18.7610 C   0  0  0  0  0  0  0  0  0  0  0  0
    9.4220   -3.5610   23.8820 N   0  0  0  0  0  0  0  0  0  0  0  0
   10.7790   -3.5110   24.3610 O   0  0  0  0  0  0  0  0  0  0  0  0
  2  1  1  0
  2  3  1  0
  2  4  1  0
  2  5  1  0
  5  6  2  0
  6  7  1  0
  7  8  1  0
  8  9  1  0
  9 10  1  0
 10 11  2  0
 10 12  1  0
 12 13  1  0
 13 14  2  0
 14 15  1  0
 15 16  2  0
 16 17  1  0
 13 18  1  0
 17 18  2  0
  7 19  2  0
  5 20  1  0
 19 20  1  0
M  END
