pyridine_urea_9909
     RDKit          3D

 24 26  0  0  0  0  0  0  0  0999 V2000
   12.7390   -0.6330   24.3060 C   0  0  0  0  0  0  0  0  0  0  0  0
   11.9270    0.5680   23.8450 C   0  0  0  0  0  0  0  0  0  0  0  0
   10.4450    0.2780   23.9980 C   0  0  0  0  0  0  0  0  0  0  0  0
   10.4860   -0.5960   22.9130 C   0  0  0  0  0  0  0  0  0  0  0  0
    9.1220   -1.0950   22.5590 N   0  0  0  0  0  0  0  0  0  0  0  0
    8.4500   -0.2910   21.5960 C   0  0  0  0  0  0  0  0  0  0  0  0
    8.8550    0.8360   21.3440 O   0  0  0  0  0  0  0  0  0  0  0  0
    7.3100   -0.8630   20.9770 N   0  0  0  0  0  0  0  0  0  0  0  0
    6.4950   -0.1200   20.1170 C   0  0  0  0  0  0  0  0  0  0  0  0
    5.1540    0.5150   20.4950 C   0  0  0  0  0  0  0  0  0  0  0  0
    4.5150    1.2340   19.4730 C   0  0  0  0  0  0  0  0  0  0  0  0
    5.0930    1.3450   18.2150 C   0  0  0  0  0  0  0  0  0  0  0  0
    6.2580    0.7920   17.8870 N   0  0  0  0  0  0  0  0  0  0  0  0
    6.9240    0.0770   18.8150 C   0  0  0  0  0  0  0  0  0  0  0  0
   11.3290   -1.1590   22.0090 C   0  0  0  0  0  0  0  0  0  0  0  0
    9.9360   -1.3110   22.2240 N   0  0  0  0  0  0  0  0  0  0  0  0
    9.4490   -0.4740   23.4190 N   0  0  0  0  0  0  0  0  0  0  0  0
    8.1400   -0.5500   23.8350 C   0  0  0  0  0  0  0  0  0  0  0  0
    7.7470   -1.9110   24.3290 C   0  0  0  0  0  0  0  0  0  0  0  0
    6.4460   -2.0770   24.7910 C   0  0  0  0  0  0  0  0  0  0  0  0
    5.4660   -0.9600   24.8020 C   0  0  0  0  0  0  0  0  0  0  0  0
    3.8680   -1.2020   25.3930 Cl  0  0  0  0  0  0  0  0  0  0  0  0
    5.9090    0.2740   24.3200 C   0  0  0  0  0  0  0  0  0  0  0  0
    7.2010    0.5090   23.8440 C   0  0  0  0  0  0  0  0  0  0  0  0
  1  2  1  0
  2  3  1  0
  3  4  2  0
  4  5  1  0
  5  6  1  0
  6  7  2  0
  6  8  1  0
  8  9  1  0
  9 10  2  0
 10 11  1  0
 11 12  2  0
 12 13  1  0
  9 14  1  0
 13 14  2  0
  4 15  1  0
 15 16  2  0
  3 17  1  0
 16 17  1  0
 17 18  1  0
 18 19  2  0
 19 20  1  0
 20 21  2  0
 21 22  1  0
 21 23  1  0
 18 24  1  0
 23 24  2  0
M  END
