pyridine_urea_12071
     RDKit          3D

 23 24  0  0  0  0  0  0  0  0999 V2000
    9.3190   -1.5670   21.7090 C   0  0  0  0  0  0  0  0  0  0  0  0
   10.0780   -1.7090   23.0130 C   0  0  0  0  0  0  0  0  0  0  0  0
   11.1080   -2.5760   22.7490 C   0  0  0  0  0  0  0  0  0  0  0  0
    9.1210   -2.3750   24.0250 C   0  0  0  0  0  0  0  0  0  0  0  0
    8.8890   -3.5400   23.7190 O   0  0  0  0  0  0  0  0  0  0  0  0
   10.6290   -0.3470   23.6040 C   0  0  2  0  0  0  0  0  0  0  0  0
    9.6360    0.5720   23.6530 C   0  0  0  0  0  0  0  0  0  0  0  0
    8.5140    0.0920   22.9370 N   0  0  0  0  0  0  0  0  0  0  0  0
    8.3540    0.6570   21.7490 C   0  0  0  0  0  0  0  0  0  0  0  0
    9.2000    1.6930   21.2660 O   0  0  0  0  0  0  0  0  0  0  0  0
    7.3670    0.2480   21.0460 N   0  0  0  0  0  0  0  0  0  0  0  0
    6.5620    0.4340   20.0100 C   0  0  0  0  0  0  0  0  0  0  0  0
    5.3570    1.1080   20.2310 C   0  0  0  0  0  0  0  0  0  0  0  0
    4.5730    1.3250   19.1340 C   0  0  0  0  0  0  0  0  0  0  0  0
    5.0000    0.8830   17.9180 C   0  0  0  0  0  0  0  0  0  0  0  0
    6.1260    0.2320   17.6800 N   0  0  0  0  0  0  0  0  0  0  0  0
    6.8900    0.0160   18.7420 C   0  0  0  0  0  0  0  0  0  0  0  0
   11.9160    0.1120   23.1890 C   0  0  0  0  0  0  0  0  0  0  0  0
   12.3450    1.2980   23.5400 C   0  0  0  0  0  0  0  0  0  0  0  0
   12.9250    0.3310   22.8030 C   0  0  0  0  0  0  0  0  0  0  0  0
   12.1210   -0.8940   22.5920 C   0  0  0  0  0  0  0  0  0  0  0  0
   12.7770   -1.7810   21.8570 C   0  0  0  0  0  0  0  0  0  0  0  0
   12.9930   -0.5390   22.3540 C   0  0  0  0  0  0  0  0  0  0  0  0
  2  1  1  0
  2  3  1  0
  2  4  1  0
  4  5  1  0
  2  6  1  0
  6  7  1  6
  7  8  1  0
  8  9  1  0
  9 10  2  0
  9 11  1  0
 11 12  1  0
 12 13  2  0
 13 14  1  0
 14 15  2  0
 15 16  1  0
 12 17  1  0
 16 17  2  0
  6 18  1  0
 18 19  2  0
 19 20  1  0
 20 21  2  0
 21 22  1  0
 18 23  1  0
 22 23  2  0
M  END
