pyridine_urea_11594
     RDKit          3D

 30 33  0  0  0  0  0  0  0  0999 V2000
    9.0330    0.5600   21.6190 O   0  0  0  0  0  0  0  0  0  0  0  0
    8.2350   -0.2830   21.2300 C   0  0  0  0  0  0  0  0  0  0  0  0
    8.5190   -1.5210   20.7800 N   0  0  0  0  0  0  0  0  0  0  0  0
    8.9450   -2.5240   21.6080 C   0  0  0  0  0  0  0  0  0  0  0  0
    9.6320   -1.9330   22.5090 C   0  0  0  0  0  0  0  0  0  0  0  0
   10.5720   -2.3360   21.5170 C   0  0  0  0  0  0  0  0  0  0  0  0
   11.9570   -2.3640   21.0160 C   0  0  0  0  0  0  0  0  0  0  0  0
   12.6010   -1.7040   21.9060 C   0  0  0  0  0  0  0  0  0  0  0  0
   12.0340   -1.2650   22.9100 C   0  0  0  0  0  0  0  0  0  0  0  0
   10.4750   -1.3800   23.2760 C   0  0  0  0  0  0  0  0  0  0  0  0
    9.5900   -1.0070   24.3700 C   0  0  0  0  0  0  0  0  0  0  0  0
    8.5890   -1.7990   24.8380 N   0  0  0  0  0  0  0  0  0  0  0  0
    8.0650   -1.6410   26.1150 C   0  0  0  0  0  0  0  0  0  0  0  0
    7.8230   -0.4340   26.7220 O   0  0  0  0  0  0  0  0  0  0  0  0
    7.8620   -2.8690   26.5810 N   0  0  0  0  0  0  0  0  0  0  0  0
    7.6000   -3.7970   25.6200 C   0  0  0  0  0  0  0  0  0  0  0  0
    6.2470   -4.0060   25.3280 C   0  0  0  0  0  0  0  0  0  0  0  0
    5.9240   -5.3500   25.3760 C   0  0  0  0  0  0  0  0  0  0  0  0
    6.1700   -5.6750   26.8360 C   0  0  0  0  0  0  0  0  0  0  0  0
    7.6690   -5.5540   27.0890 C   0  0  0  0  0  0  0  0  0  0  0  0
    8.2830   -4.9680   26.0000 C   0  0  0  0  0  0  0  0  0  0  0  0
    8.3630   -3.2400   24.5560 C   0  0  0  0  0  0  0  0  0  0  0  0
    8.7770   -3.9680   23.4830 O   0  0  0  0  0  0  0  0  0  0  0  0
    6.8980   -0.1420   21.1230 N   0  0  0  0  0  0  0  0  0  0  0  0
    6.2900    0.3860   20.0130 C   0  0  0  0  0  0  0  0  0  0  0  0
    5.1290    1.1240   20.1740 C   0  0  0  0  0  0  0  0  0  0  0  0
    4.5350    1.6740   19.0510 C   0  0  0  0  0  0  0  0  0  0  0  0
    5.1480    1.4470   17.8270 C   0  0  0  0  0  0  0  0  0  0  0  0
    6.2560    0.7330   17.6340 N   0  0  0  0  0  0  0  0  0  0  0  0
    6.8050    0.2140   18.7390 C   0  0  0  0  0  0  0  0  0  0  0  0
  1  2  2  0
  2  3  1  0
  3  4  1  0
  4  5  1  0
  5  6  2  0
  6  7  1  0
  7  8  2  0
  8  9  1  0
  5 10  1  0
  9 10  2  0
 10 11  1  0
 11 12  1  0
 12 13  1  0
 13 14  2  0
 13 15  1  0
 15 16  1  0
 16 17  1  0
 17 18  1  0
 18 19  1  0
 19 20  1  0
 16 21  1  0
 20 21  1  0
 12 22  1  0
 16 22  1  0
 22 23  2  0
  2 24  1  0
 24 25  1  0
 25 26  2  0
 26 27  1  0
 27 28  2  0
 28 29  1  0
 25 30  1  0
 29 30  2  0
M  END
