pyridine_urea_13855
     RDKit          3D

 24 26  0  0  0  0  0  0  0  0999 V2000
    8.7130    1.0120   21.2940 O   0  0  0  0  0  0  0  0  0  0  0  0
    8.4890   -0.1790   21.3410 C   0  0  0  0  0  0  0  0  0  0  0  0
    7.2270   -0.6970   21.1180 N   0  0  0  0  0  0  0  0  0  0  0  0
    6.5200   -0.0430   20.0380 C   0  0  0  0  0  0  0  0  0  0  0  0
    5.2360    0.7020   20.3990 C   0  0  0  0  0  0  0  0  0  0  0  0
    4.5670    1.3740   19.2480 C   0  0  0  0  0  0  0  0  0  0  0  0
    5.1420    1.2720   17.9950 C   0  0  0  0  0  0  0  0  0  0  0  0
    6.2740    0.5940   17.7280 N   0  0  0  0  0  0  0  0  0  0  0  0
    6.9250   -0.0360   18.7270 C   0  0  0  0  0  0  0  0  0  0  0  0
    9.4610   -1.1280   21.5590 N   0  0  0  0  0  0  0  0  0  0  0  0
   10.2810   -1.3020   22.7990 C   0  0  1  0  0  0  0  0  0  0  0  0
   11.5790   -1.3370   22.6190 C   0  0  0  0  0  0  0  0  0  0  0  0
   12.8900   -0.4930   22.5750 C   0  0  0  0  0  0  0  0  0  0  0  0
   13.3130    0.8450   22.6980 C   0  0  0  0  0  0  0  0  0  0  0  0
   12.4840    1.8910   22.8980 C   0  0  0  0  0  0  0  0  0  0  0  0
   11.2680    1.4410   22.9570 C   0  0  0  0  0  0  0  0  0  0  0  0
    9.8430    1.9990   23.1350 C   0  0  0  0  0  0  0  0  0  0  0  0
    9.4170    2.6880   22.0510 F   0  0  0  0  0  0  0  0  0  0  0  0
    9.7090    2.9050   24.1220 F   0  0  0  0  0  0  0  0  0  0  0  0
    8.8610    1.0950   23.3870 F   0  0  0  0  0  0  0  0  0  0  0  0
   10.7350    0.0300   22.8580 C   0  0  0  0  0  0  0  0  0  0  0  0
   10.1190   -0.3430   24.0210 C   0  0  0  0  0  0  0  0  0  0  0  0
   11.0270   -0.3440   24.9320 C   0  0  0  0  0  0  0  0  0  0  0  0
   11.0850    0.9180   24.2800 C   0  0  0  0  0  0  0  0  0  0  0  0
  1  2  2  0
  2  3  1  0
  3  4  1  0
  4  5  2  0
  5  6  1  0
  6  7  2  0
  7  8  1  0
  4  9  1  0
  8  9  2  0
  2 10  1  0
 11 10  1  6
 11 12  1  0
 12 13  2  0
 13 14  1  0
 14 15  2  0
 15 16  1  0
 16 17  1  0
 17 18  1  0
 17 19  1  0
 17 20  1  0
 12 21  1  0
 16 21  2  0
 11 22  1  0
 22 23  1  0
 22 24  1  0
 23 24  1  0
M  END
