pyridine_urea_3063
     RDKit          3D

 21 23  0  0  0  0  0  0  0  0999 V2000
    8.8170    1.4830   21.0880 O   0  0  0  0  0  0  0  0  0  0  0  0
    8.0900    0.6160   21.5800 C   0  0  0  0  0  0  0  0  0  0  0  0
    7.2030   -0.1990   20.9530 N   0  0  0  0  0  0  0  0  0  0  0  0
    6.4920    0.3090   19.9050 C   0  0  0  0  0  0  0  0  0  0  0  0
    5.3310    1.0260   20.1760 C   0  0  0  0  0  0  0  0  0  0  0  0
    4.6190    1.5770   19.1240 C   0  0  0  0  0  0  0  0  0  0  0  0
    5.1080    1.3820   17.8580 C   0  0  0  0  0  0  0  0  0  0  0  0
    6.2130    0.6840   17.5810 N   0  0  0  0  0  0  0  0  0  0  0  0
    6.8810    0.1610   18.6120 C   0  0  0  0  0  0  0  0  0  0  0  0
    8.0510    0.3710   22.8980 N   0  0  0  0  0  0  0  0  0  0  0  0
    8.7860   -0.7390   23.3240 C   0  0  1  0  0  0  0  0  0  0  0  0
    9.0150   -1.7120   22.2080 C   0  0  0  0  0  0  0  0  0  0  0  0
   10.1830   -2.2920   22.3730 C   0  0  0  0  0  0  0  0  0  0  0  0
   11.1230   -1.3970   22.5100 C   0  0  0  0  0  0  0  0  0  0  0  0
   12.0280   -1.6480   21.8150 C   0  0  0  0  0  0  0  0  0  0  0  0
   12.9880   -0.8400   21.8540 C   0  0  0  0  0  0  0  0  0  0  0  0
   13.7610   -1.6660   20.6770 Br  0  0  0  0  0  0  0  0  0  0  0  0
   13.2640    0.2660   22.5290 C   0  0  0  0  0  0  0  0  0  0  0  0
   12.2690    0.5800   23.2970 C   0  0  0  0  0  0  0  0  0  0  0  0
   11.1690   -0.3100   23.2580 C   0  0  0  0  0  0  0  0  0  0  0  0
   10.0720   -0.2230   23.9160 C   0  0  0  0  0  0  0  0  0  0  0  0
  1  2  2  0
  2  3  1  0
  3  4  1  0
  4  5  2  0
  5  6  1  0
  6  7  2  0
  7  8  1  0
  4  9  1  0
  8  9  2  0
  2 10  1  0
 11 10  1  6
 11 12  1  0
 12 13  1  0
 13 14  1  0
 14 15  2  0
 15 16  1  0
 16 17  1  0
 16 18  2  0
 18 19  1  0
 14 20  1  0
 19 20  2  0
 11 21  1  0
 20 21  1  0
M  END
