pyridine_urea_7960
     RDKit          3D

 25 27  0  0  0  0  0  0  0  0999 V2000
    8.6370    1.6020   20.8880 O   0  0  0  0  0  0  0  0  0  0  0  0
    8.2850    0.5220   21.3330 C   0  0  0  0  0  0  0  0  0  0  0  0
    8.8870   -0.1160   22.3150 N   0  0  0  0  0  0  0  0  0  0  0  0
    9.4990    0.5270   23.3560 C   0  0  0  0  0  0  0  0  0  0  0  0
   10.6810    1.1880   23.1300 C   0  0  0  0  0  0  0  0  0  0  0  0
   12.0780    1.4610   22.9150 C   0  0  0  0  0  0  0  0  0  0  0  0
   13.1820    0.6030   22.8450 C   0  0  0  0  0  0  0  0  0  0  0  0
   13.0860   -0.7370   22.9790 C   0  0  0  0  0  0  0  0  0  0  0  0
   11.8640   -1.1690   23.1910 C   0  0  0  0  0  0  0  0  0  0  0  0
   11.3700   -2.5600   23.4000 C   0  0  0  0  0  0  0  0  0  0  0  0
   12.2430   -3.3170   24.2540 O   0  0  0  0  0  0  0  0  0  0  0  0
   10.1660   -2.9350   22.8450 N   0  0  0  0  0  0  0  0  0  0  0  0
    9.4420   -2.3750   21.7950 C   0  0  0  0  0  0  0  0  0  0  0  0
    8.0360   -2.3700   22.0340 C   0  0  0  0  0  0  0  0  0  0  0  0
    7.6690   -3.5110   22.3190 O   0  0  0  0  0  0  0  0  0  0  0  0
    8.0380   -3.9240   23.6240 C   0  0  0  0  0  0  0  0  0  0  0  0
    9.2920   -3.3790   23.8080 C   0  0  0  0  0  0  0  0  0  0  0  0
   10.7580   -0.1810   23.2510 C   0  0  0  0  0  0  0  0  0  0  0  0
    7.1940   -0.1620   20.8970 N   0  0  0  0  0  0  0  0  0  0  0  0
    6.4050    0.3880   19.9280 C   0  0  0  0  0  0  0  0  0  0  0  0
    5.2200    1.0770   20.1480 C   0  0  0  0  0  0  0  0  0  0  0  0
    4.5580    1.6040   19.0560 C   0  0  0  0  0  0  0  0  0  0  0  0
    5.1090    1.4160   17.8040 C   0  0  0  0  0  0  0  0  0  0  0  0
    6.2370    0.7400   17.5780 N   0  0  0  0  0  0  0  0  0  0  0  0
    6.8530    0.2460   18.6460 C   0  0  0  0  0  0  0  0  0  0  0  0
  1  2  2  0
  2  3  1  0
  3  4  1  0
  4  5  1  0
  5  6  2  0
  6  7  1  0
  7  8  2  0
  8  9  1  0
  9 10  1  0
 10 11  2  0
 10 12  1  0
 12 13  1  0
 13 14  1  0
 14 15  1  0
 15 16  1  0
 12 17  1  0
 16 17  1  0
  5 18  1  0
  9 18  2  0
  2 19  1  0
 19 20  1  0
 20 21  2  0
 21 22  1  0
 22 23  2  0
 23 24  1  0
 20 25  1  0
 24 25  2  0
M  END
