pyridine_urea_3487
     RDKit          3D

 18 19  0  0  0  0  0  0  0  0999 V2000
    7.9780   -0.2380   27.1430 C   0  0  0  0  0  0  0  0  0  0  0  0
    8.8420   -0.3560   25.8800 C   0  0  0  0  0  0  0  0  0  0  0  0
   10.2800   -0.2400   26.0320 N   0  0  0  0  0  0  0  0  0  0  0  0
   10.9140   -0.3500   24.8320 C   0  0  0  0  0  0  0  0  0  0  0  0
   12.4160   -0.2740   24.5640 C   0  0  0  0  0  0  0  0  0  0  0  0
    9.9180   -0.5750   23.7190 C   0  0  0  0  0  0  0  0  0  0  0  0
   10.4290   -0.7350   22.3250 C   0  0  0  0  0  0  0  0  0  0  0  0
    9.3570   -0.8900   21.4960 N   0  0  0  0  0  0  0  0  0  0  0  0
    8.4040    0.1080   21.2430 C   0  0  0  0  0  0  0  0  0  0  0  0
    8.7110    1.3050   21.1420 O   0  0  0  0  0  0  0  0  0  0  0  0
    7.1670   -0.4130   21.0960 N   0  0  0  0  0  0  0  0  0  0  0  0
    6.4930    0.1380   20.0660 C   0  0  0  0  0  0  0  0  0  0  0  0
    5.3270    0.8600   20.3290 C   0  0  0  0  0  0  0  0  0  0  0  0
    4.6530    1.4390   19.2680 C   0  0  0  0  0  0  0  0  0  0  0  0
    5.1470    1.2880   17.9850 C   0  0  0  0  0  0  0  0  0  0  0  0
    6.2530    0.5920   17.7090 N   0  0  0  0  0  0  0  0  0  0  0  0
    6.9010    0.0330   18.7520 C   0  0  0  0  0  0  0  0  0  0  0  0
    8.2780   -0.6150   24.2740 S   0  0  0  0  0  0  0  0  0  0  0  0
  1  2  1  0
  2  3  2  0
  3  4  1  0
  4  5  1  0
  4  6  2  0
  6  7  1  0
  7  8  1  0
  8  9  1  0
  9 10  2  0
  9 11  1  0
 11 12  1  0
 12 13  2  0
 13 14  1  0
 14 15  2  0
 15 16  1  0
 12 17  1  0
 16 17  2  0
  2 18  1  0
  6 18  1  0
M  END
