pyridine_urea_7183
     RDKit          3D

 19 21  0  0  0  0  0  0  0  0999 V2000
    8.7770    1.4790   21.1290 O   0  0  0  0  0  0  0  0  0  0  0  0
    8.4350    0.3760   21.5560 C   0  0  0  0  0  0  0  0  0  0  0  0
    7.3630   -0.3530   21.0690 N   0  0  0  0  0  0  0  0  0  0  0  0
    6.5300    0.1930   20.0840 C   0  0  0  0  0  0  0  0  0  0  0  0
    5.3430    0.8800   20.3220 C   0  0  0  0  0  0  0  0  0  0  0  0
    4.6220    1.3990   19.2470 C   0  0  0  0  0  0  0  0  0  0  0  0
    5.1190    1.2080   17.9790 C   0  0  0  0  0  0  0  0  0  0  0  0
    6.2490    0.5430   17.7170 N   0  0  0  0  0  0  0  0  0  0  0  0
    6.9210    0.0550   18.7670 C   0  0  0  0  0  0  0  0  0  0  0  0
    9.1250   -0.2580   22.5650 N   0  0  0  0  0  0  0  0  0  0  0  0
   10.5190   -0.1390   22.5990 C   0  0  2  0  0  0  0  0  0  0  0  0
   11.1360   -1.2780   22.0560 C   0  0  0  0  0  0  0  0  0  0  0  0
   12.5150   -1.3780   22.1280 C   0  0  0  0  0  0  0  0  0  0  0  0
   12.7490   -1.3750   23.4300 C   0  0  0  0  0  0  0  0  0  0  0  0
   13.5780   -2.0630   24.2500 C   0  0  0  0  0  0  0  0  0  0  0  0
   13.4310   -1.6980   25.5160 N   0  0  0  0  0  0  0  0  0  0  0  0
   12.4470   -0.7180   25.5150 N   0  0  0  0  0  0  0  0  0  0  0  0
   11.9580   -0.4710   24.2840 C   0  0  0  0  0  0  0  0  0  0  0  0
   10.9630    0.3710   23.8320 C   0  0  0  0  0  0  0  0  0  0  0  0
  1  2  2  0
  2  3  1  0
  3  4  1  0
  4  5  2  0
  5  6  1  0
  6  7  2  0
  7  8  1  0
  4  9  1  0
  8  9  2  0
  2 10  1  0
 11 10  1  1
 11 12  1  0
 12 13  1  0
 13 14  1  0
 14 15  2  0
 15 16  1  0
 16 17  1  0
 14 18  1  0
 17 18  2  0
 11 19  1  0
 18 19  1  0
M  END
