pyridine_urea_4529
     RDKit          3D

 23 24  0  0  0  0  0  0  0  0999 V2000
   12.7110   -2.3460   21.3370 C   0  0  0  0  0  0  0  0  0  0  0  0
   12.8660   -2.9990   22.5940 O   0  0  0  0  0  0  0  0  0  0  0  0
   11.8480   -2.7090   23.5620 C   0  0  0  0  0  0  0  0  0  0  0  0
   12.4770   -1.9750   24.7100 C   0  0  0  0  0  0  0  0  0  0  0  0
   13.5140   -1.2400   24.3280 N   0  0  0  0  0  0  0  0  0  0  0  0
   13.3270   -0.3780   23.3050 C   0  0  0  0  0  0  0  0  0  0  0  0
   13.7040   -0.6150   21.9640 O   0  0  0  0  0  0  0  0  0  0  0  0
   12.6520    0.9660   23.4140 C   0  0  0  0  0  0  0  0  0  0  0  0
   11.3250    0.8820   23.5750 N   0  0  0  0  0  0  0  0  0  0  0  0
   10.0260    0.4740   23.4590 C   0  0  0  0  0  0  0  0  0  0  0  0
    9.4800   -0.6210   22.6360 C   0  0  0  0  0  0  0  0  0  0  0  0
    8.2990   -1.1210   22.3970 N   0  0  0  0  0  0  0  0  0  0  0  0
    7.7590   -0.4050   21.4020 C   0  0  0  0  0  0  0  0  0  0  0  0
    8.2550    0.6350   20.9820 O   0  0  0  0  0  0  0  0  0  0  0  0
    6.6570   -0.9530   20.9650 N   0  0  0  0  0  0  0  0  0  0  0  0
    6.1640   -0.1620   19.9650 C   0  0  0  0  0  0  0  0  0  0  0  0
    5.0200    0.5800   20.1490 C   0  0  0  0  0  0  0  0  0  0  0  0
    4.5620    1.3650   19.1120 C   0  0  0  0  0  0  0  0  0  0  0  0
    5.2280    1.4220   17.8990 C   0  0  0  0  0  0  0  0  0  0  0  0
    6.3580    0.6990   17.6930 N   0  0  0  0  0  0  0  0  0  0  0  0
    6.7810   -0.0630   18.7310 C   0  0  0  0  0  0  0  0  0  0  0  0
   10.8420   -0.9210   22.1620 C   0  0  0  0  0  0  0  0  0  0  0  0
   11.7700   -0.1060   22.6820 N   0  0  0  0  0  0  0  0  0  0  0  0
  1  2  1  0
  2  3  1  0
  3  4  1  0
  4  5  1  0
  5  6  1  0
  6  7  2  0
  6  8  1  0
  8  9  1  0
  9 10  1  0
 10 11  2  0
 11 12  1  0
 12 13  1  0
 13 14  2  0
 13 15  1  0
 15 16  1  0
 16 17  2  0
 17 18  1  0
 18 19  2  0
 19 20  1  0
 16 21  1  0
 20 21  2  0
 11 22  1  0
  9 23  1  0
 22 23  2  0
M  END
