pyridine_urea_65
     RDKit          3D

 22 23  0  0  0  0  0  0  0  0999 V2000
    9.0380   -5.3780   27.9020 C   0  0  0  0  0  0  0  0  0  0  0  0
    9.4100   -5.6710   26.8010 C   0  0  0  0  0  0  0  0  0  0  0  0
   10.5300   -4.7940   26.5720 O   0  0  0  0  0  0  0  0  0  0  0  0
   10.4170   -3.9000   25.5640 C   0  0  0  0  0  0  0  0  0  0  0  0
   11.3140   -3.6930   24.7580 O   0  0  0  0  0  0  0  0  0  0  0  0
    9.1160   -3.1790   25.5450 C   0  0  0  0  0  0  0  0  0  0  0  0
    9.1100   -1.9870   24.7720 N   0  0  0  0  0  0  0  0  0  0  0  0
    7.9040   -1.3530   24.7880 C   0  0  0  0  0  0  0  0  0  0  0  0
    7.7280   -0.0530   24.0060 C   0  0  0  0  0  0  0  0  0  0  0  0
    8.5030   -0.3370   22.9070 N   0  0  0  0  0  0  0  0  0  0  0  0
    8.3110    0.2060   21.6410 C   0  0  0  0  0  0  0  0  0  0  0  0
    9.0540    1.3350   21.1590 O   0  0  0  0  0  0  0  0  0  0  0  0
    7.3170   -0.4670   20.9900 N   0  0  0  0  0  0  0  0  0  0  0  0
    6.5970    0.1360   19.9780 C   0  0  0  0  0  0  0  0  0  0  0  0
    5.3750    0.9370   20.3100 C   0  0  0  0  0  0  0  0  0  0  0  0
    4.6940    1.5520   19.2710 C   0  0  0  0  0  0  0  0  0  0  0  0
    5.0910    1.4610   17.9430 C   0  0  0  0  0  0  0  0  0  0  0  0
    6.2830    0.6590   17.6270 N   0  0  0  0  0  0  0  0  0  0  0  0
    6.9500    0.0550   18.6650 C   0  0  0  0  0  0  0  0  0  0  0  0
    6.6550   -2.0960   25.7100 S   0  0  0  0  0  0  0  0  0  0  0  0
    7.7270   -3.4430   26.2020 C   0  0  0  0  0  0  0  0  0  0  0  0
    7.2080   -4.4790   27.0580 N   0  0  0  0  0  0  0  0  0  0  0  0
  1  2  1  0
  2  3  1  0
  3  4  1  0
  4  5  2  0
  4  6  1  0
  6  7  1  0
  7  8  2  0
  8  9  1  0
  9 10  1  0
 10 11  1  0
 11 12  2  0
 11 13  1  0
 13 14  1  0
 14 15  2  0
 15 16  1  0
 16 17  2  0
 17 18  1  0
 14 19  1  0
 18 19  2  0
  8 20  1  0
  6 21  2  0
 20 21  1  0
 21 22  1  0
M  END
