pyridine_urea_11985
     RDKit          3D

 24 25  0  0  0  0  0  0  0  0999 V2000
    8.7480    2.1160   24.0100 C   0  0  0  0  0  0  0  0  0  0  0  0
    9.9970    1.2500   23.9060 C   0  0  0  0  0  0  0  0  0  0  0  0
   11.1870    1.9420   24.0040 C   0  0  0  0  0  0  0  0  0  0  0  0
   10.1880    0.7020   22.5240 C   0  0  2  0  0  0  0  0  0  0  0  0
    9.2120   -0.3290   22.1510 N   0  0  0  0  0  0  0  0  0  0  0  0
    8.2680    0.1430   21.3120 C   0  0  0  0  0  0  0  0  0  0  0  0
    8.4170    1.2820   20.8590 O   0  0  0  0  0  0  0  0  0  0  0  0
    7.2110   -0.6270   21.0040 N   0  0  0  0  0  0  0  0  0  0  0  0
    6.4420    0.0180   20.1020 C   0  0  0  0  0  0  0  0  0  0  0  0
    5.2450    0.6870   20.3570 C   0  0  0  0  0  0  0  0  0  0  0  0
    4.5590    1.3700   19.1790 C   0  0  0  0  0  0  0  0  0  0  0  0
    5.1650    1.2870   17.9240 C   0  0  0  0  0  0  0  0  0  0  0  0
    6.3140    0.6230   17.7200 N   0  0  0  0  0  0  0  0  0  0  0  0
    6.8820    0.0340   18.7880 C   0  0  0  0  0  0  0  0  0  0  0  0
   11.6060    0.2520   22.5540 C   0  0  0  0  0  0  0  0  0  0  0  0
   12.8570   -0.4200   22.6930 C   0  0  0  0  0  0  0  0  0  0  0  0
   13.4750   -1.6400   23.1230 C   0  0  0  0  0  0  0  0  0  0  0  0
   12.3440   -2.3360   23.5030 C   0  0  0  0  0  0  0  0  0  0  0  0
   11.0450   -2.0170   23.4930 C   0  0  0  0  0  0  0  0  0  0  0  0
    9.9400   -2.7240   23.8650 C   0  0  0  0  0  0  0  0  0  0  0  0
    9.1000   -2.0130   24.6650 F   0  0  0  0  0  0  0  0  0  0  0  0
   10.3050   -3.8050   24.5310 F   0  0  0  0  0  0  0  0  0  0  0  0
    9.1660   -3.1440   22.8290 F   0  0  0  0  0  0  0  0  0  0  0  0
   10.7560   -0.6980   23.0070 C   0  0  0  0  0  0  0  0  0  0  0  0
  1  2  1  0
  2  3  1  0
  2  4  1  0
  4  5  1  1
  5  6  1  0
  6  7  2  0
  6  8  1  0
  8  9  1  0
  9 10  2  0
 10 11  1  0
 11 12  2  0
 12 13  1  0
  9 14  1  0
 13 14  2  0
  4 15  1  0
 15 16  2  0
 16 17  1  0
 17 18  2  0
 18 19  1  0
 19 20  1  0
 20 21  1  0
 20 22  1  0
 20 23  1  0
 15 24  1  0
 19 24  2  0
M  END
