pyridine_urea_4082
     RDKit          3D

 26 28  0  0  0  0  0  0  0  0999 V2000
    8.9630    1.2160   21.1450 O   0  0  0  0  0  0  0  0  0  0  0  0
    8.5890    0.0540   21.3470 C   0  0  0  0  0  0  0  0  0  0  0  0
    7.3490   -0.4380   21.0250 N   0  0  0  0  0  0  0  0  0  0  0  0
    6.5760    0.1230   20.0080 C   0  0  0  0  0  0  0  0  0  0  0  0
    5.4020    0.8140   20.3210 C   0  0  0  0  0  0  0  0  0  0  0  0
    4.6510    1.3980   19.3000 C   0  0  0  0  0  0  0  0  0  0  0  0
    5.1120    1.2620   18.0090 C   0  0  0  0  0  0  0  0  0  0  0  0
    6.2250    0.5970   17.6850 N   0  0  0  0  0  0  0  0  0  0  0  0
    6.9280    0.0440   18.6870 C   0  0  0  0  0  0  0  0  0  0  0  0
    9.4160   -0.8730   21.9230 N   0  0  0  0  0  0  0  0  0  0  0  0
    9.5770   -0.7840   23.3490 C   0  0  1  0  0  0  0  0  0  0  0  0
   10.9380   -1.2500   23.9230 C   0  0  0  0  0  0  0  0  0  0  0  0
   11.9550   -1.6290   23.0810 C   0  0  0  0  0  0  0  0  0  0  0  0
   12.2950   -0.4060   23.2200 C   0  0  0  0  0  0  0  0  0  0  0  0
   11.7440    0.5680   23.8890 C   0  0  0  0  0  0  0  0  0  0  0  0
   12.6540    1.3600   23.4820 C   0  0  0  0  0  0  0  0  0  0  0  0
   13.5090    0.5560   22.6880 C   0  0  0  0  0  0  0  0  0  0  0  0
   13.1840   -0.9900   22.4340 C   0  0  0  0  0  0  0  0  0  0  0  0
    9.2470    0.6390   23.8450 C   0  0  0  0  0  0  0  0  0  0  0  0
   10.0120    1.5340   23.4830 O   0  0  0  0  0  0  0  0  0  0  0  0
    8.0570    0.7440   24.6450 O   0  0  0  0  0  0  0  0  0  0  0  0
    8.3090    1.2030   25.9710 C   0  0  0  0  0  0  0  0  0  0  0  0
    8.6740    0.0440   26.6380 C   0  0  0  0  0  0  0  0  0  0  0  0
    7.7920   -0.1680   27.6850 C   0  0  0  0  0  0  0  0  0  0  0  0
    6.8880    0.8870   27.6050 C   0  0  0  0  0  0  0  0  0  0  0  0
    7.1200    1.7040   26.4970 C   0  0  0  0  0  0  0  0  0  0  0  0
  1  2  2  0
  2  3  1  0
  3  4  1  0
  4  5  2  0
  5  6  1  0
  6  7  2  0
  7  8  1  0
  4  9  1  0
  8  9  2  0
  2 10  1  0
 10 11  1  0
 11 12  1  6
 12 13  1  0
 13 14  2  0
 14 15  1  0
 15 16  2  0
 16 17  1  0
 13 18  1  0
 17 18  2  0
 11 19  1  0
 19 20  2  0
 19 21  1  0
 21 22  1  0
 22 23  1  0
 23 24  1  0
 24 25  1  0
 22 26  1  0
 25 26  1  0
M  END
