pyridine_urea_10230
     RDKit          3D

 23 25  0  0  0  0  0  0  0  0999 V2000
    9.2730    0.4820   21.5940 O   0  0  0  0  0  0  0  0  0  0  0  0
    8.1860    0.1920   21.1350 C   0  0  0  0  0  0  0  0  0  0  0  0
    7.8230   -0.8690   20.3550 N   0  0  0  0  0  0  0  0  0  0  0  0
    6.6260   -1.5990   20.5920 C   0  0  0  0  0  0  0  0  0  0  0  0
    6.9550   -2.3600   21.6160 C   0  0  0  0  0  0  0  0  0  0  0  0
    8.1730   -2.0120   21.9490 N   0  0  0  0  0  0  0  0  0  0  0  0
    8.5120   -2.7780   22.9730 C   0  0  0  0  0  0  0  0  0  0  0  0
    9.7460   -2.5610   23.4410 C   0  0  0  0  0  0  0  0  0  0  0  0
   10.2480   -3.5510   24.1250 C   0  0  0  0  0  0  0  0  0  0  0  0
   11.6090   -3.3900   24.6950 C   0  0  0  0  0  0  0  0  0  0  0  0
   12.3220   -2.2850   24.5200 C   0  0  0  0  0  0  0  0  0  0  0  0
   13.8240   -2.3730   25.2820 Cl  0  0  0  0  0  0  0  0  0  0  0  0
   11.7960   -1.2300   23.7770 C   0  0  0  0  0  0  0  0  0  0  0  0
   10.5020   -1.3760   23.2430 C   0  0  0  0  0  0  0  0  0  0  0  0
    7.4030   -3.6710   23.3010 N   0  0  0  0  0  0  0  0  0  0  0  0
    6.4210   -3.2760   22.3030 O   0  0  0  0  0  0  0  0  0  0  0  0
    7.0350    0.8500   21.2490 N   0  0  0  0  0  0  0  0  0  0  0  0
    6.3310    1.0460   20.1080 C   0  0  0  0  0  0  0  0  0  0  0  0
    5.0580    1.7770   20.1620 C   0  0  0  0  0  0  0  0  0  0  0  0
    4.4260    1.9420   18.9420 C   0  0  0  0  0  0  0  0  0  0  0  0
    5.0360    1.4160   17.8030 C   0  0  0  0  0  0  0  0  0  0  0  0
    6.1770    0.7410   17.7250 N   0  0  0  0  0  0  0  0  0  0  0  0
    6.8010    0.5680   18.8830 C   0  0  0  0  0  0  0  0  0  0  0  0
  1  2  2  0
  2  3  1  0
  3  4  1  0
  4  5  1  0
  5  6  2  0
  6  7  1  0
  7  8  1  0
  8  9  2  0
  9 10  1  0
 10 11  2  0
 11 12  1  0
 11 13  1  0
  8 14  1  0
 13 14  2  0
  7 15  2  0
  5 16  1  0
 15 16  1  0
  2 17  1  0
 17 18  1  0
 18 19  2  0
 19 20  1  0
 20 21  2  0
 21 22  1  0
 18 23  1  0
 22 23  2  0
M  END
