pyridine_urea_2932
     RDKit          3D

 22 25  0  0  0  0  0  0  0  0999 V2000
    8.4340    1.3310   20.6850 O   0  0  0  0  0  0  0  0  0  0  0  0
    7.6830    0.7910   21.4740 C   0  0  0  0  0  0  0  0  0  0  0  0
    6.8570   -0.2380   21.1220 N   0  0  0  0  0  0  0  0  0  0  0  0
    6.2310    0.2790   19.9710 C   0  0  0  0  0  0  0  0  0  0  0  0
    4.8770    1.0070   20.1560 C   0  0  0  0  0  0  0  0  0  0  0  0
    4.3220    1.5460   19.0240 C   0  0  0  0  0  0  0  0  0  0  0  0
    5.1100    1.3600   17.7280 C   0  0  0  0  0  0  0  0  0  0  0  0
    6.2820    0.6980   17.6270 N   0  0  0  0  0  0  0  0  0  0  0  0
    6.8090    0.1760   18.7330 C   0  0  0  0  0  0  0  0  0  0  0  0
    7.5920    1.1790   22.7540 N   0  0  0  0  0  0  0  0  0  0  0  0
    8.9290    1.0790   23.0920 C   0  0  0  0  0  0  0  0  0  0  0  0
    9.8900    2.1560   23.5680 C   0  0  0  0  0  0  0  0  0  0  0  0
   11.3130    1.7100   23.8220 C   0  0  0  0  0  0  0  0  0  0  0  0
   11.5280    0.2670   23.5790 C   0  0  0  0  0  0  0  0  0  0  0  0
   12.5700   -0.4700   23.7020 N   0  0  0  0  0  0  0  0  0  0  0  0
   12.0430   -1.6770   23.3130 C   0  0  0  0  0  0  0  0  0  0  0  0
   12.8040   -2.7730   23.2590 C   0  0  0  0  0  0  0  0  0  0  0  0
   13.8920   -2.4520   23.1210 C   0  0  0  0  0  0  0  0  0  0  0  0
   13.3540   -2.7210   21.8070 C   0  0  0  0  0  0  0  0  0  0  0  0
   10.9500   -1.7970   22.9950 O   0  0  0  0  0  0  0  0  0  0  0  0
   10.5440   -0.5730   23.1440 C   0  0  0  0  0  0  0  0  0  0  0  0
    9.3670   -0.2830   22.9000 C   0  0  0  0  0  0  0  0  0  0  0  0
  1  2  2  0
  2  3  1  0
  3  4  1  0
  4  5  2  0
  5  6  1  0
  6  7  2  0
  7  8  1  0
  4  9  1  0
  8  9  2  0
  2 10  1  0
 10 11  1  0
 11 12  2  0
 12 13  1  0
 13 14  2  0
 14 15  1  0
 15 16  2  0
 16 17  1  0
 17 18  1  0
 17 19  1  0
 18 19  1  0
 16 20  1  0
 14 21  1  0
 20 21  1  0
 11 22  1  0
 21 22  2  0
M  END
