pyridine_urea_2540
     RDKit          3D

 24 26  0  0  0  0  0  0  0  0999 V2000
    8.8050    0.4780   21.2340 O   0  0  0  0  0  0  0  0  0  0  0  0
    8.2850   -0.5670   21.5900 C   0  0  0  0  0  0  0  0  0  0  0  0
    7.0550   -0.9510   21.1270 N   0  0  0  0  0  0  0  0  0  0  0  0
    6.4310   -0.2360   20.0800 C   0  0  0  0  0  0  0  0  0  0  0  0
    5.2050    0.4080   20.3010 C   0  0  0  0  0  0  0  0  0  0  0  0
    4.5930    1.1300   19.2680 C   0  0  0  0  0  0  0  0  0  0  0  0
    5.2310    1.1900   18.0440 C   0  0  0  0  0  0  0  0  0  0  0  0
    6.4040    0.5800   17.8070 N   0  0  0  0  0  0  0  0  0  0  0  0
    6.9740   -0.1140   18.8140 C   0  0  0  0  0  0  0  0  0  0  0  0
    8.9600   -1.3710   22.5030 N   0  0  0  0  0  0  0  0  0  0  0  0
   10.1230   -0.5400   22.7770 C   0  0  0  0  0  0  0  0  0  0  0  0
   11.4640   -1.0420   22.2510 C   0  0  0  0  0  0  0  0  0  0  0  0
   12.5450   -0.2030   22.4190 C   0  0  0  0  0  0  0  0  0  0  0  0
   12.2710    0.9990   23.0310 C   0  0  0  0  0  0  0  0  0  0  0  0
   13.3220    1.9250   23.1280 N   0  0  0  0  0  0  0  0  0  0  0  0
   13.2610    3.1470   22.4570 C   0  0  0  0  0  0  0  0  0  0  0  0
   12.3080    4.1210   22.7730 C   0  0  2  0  0  0  0  0  0  0  0  0
   12.7390    5.3800   22.2950 C   0  0  0  0  0  0  0  0  0  0  0  0
   12.2790    6.3640   23.1360 C   0  0  0  0  0  0  0  0  0  0  0  0
   11.9210    5.6730   24.2540 C   0  0  0  0  0  0  0  0  0  0  0  0
   12.0390    4.3330   23.9780 O   0  0  0  0  0  0  0  0  0  0  0  0
   11.0200    1.3560   23.5190 C   0  0  0  0  0  0  0  0  0  0  0  0
   10.9370    2.5690   24.1180 F   0  0  0  0  0  0  0  0  0  0  0  0
    9.8350    0.6470   23.4590 C   0  0  0  0  0  0  0  0  0  0  0  0
  1  2  2  0
  2  3  1  0
  3  4  1  0
  4  5  2  0
  5  6  1  0
  6  7  2  0
  7  8  1  0
  4  9  1  0
  8  9  2  0
  2 10  1  0
 10 11  1  0
 11 12  2  0
 12 13  1  0
 13 14  2  0
 14 15  1  0
 15 16  1  0
 17 16  1  1
 17 18  1  0
 18 19  1  0
 19 20  1  0
 17 21  1  0
 20 21  1  0
 14 22  1  0
 22 23  1  0
 11 24  1  0
 22 24  2  0
M  END
