pyridine_urea_13337
     RDKit          3D

 22 23  0  0  0  0  0  0  0  0999 V2000
   12.1000   -1.6580   24.6720 C   0  0  0  0  0  0  0  0  0  0  0  0
   12.4430   -1.7310   23.2100 C   0  0  0  0  0  0  0  0  0  0  0  0
   13.4160   -2.6330   22.9980 C   0  0  0  0  0  0  0  0  0  0  0  0
   13.0950   -0.3640   22.8550 C   0  0  0  0  0  0  0  0  0  0  0  0
   12.2900    0.6890   23.1960 C   0  0  0  0  0  0  0  0  0  0  0  0
   10.9070    0.1890   23.5120 C   0  0  0  0  0  0  0  0  0  0  0  0
    9.9540    1.0720   23.8690 C   0  0  2  0  0  0  0  0  0  0  0  0
    9.9650    2.4270   23.1390 C   0  0  0  0  0  0  0  0  0  0  0  0
   10.1950    1.4070   24.9930 O   0  0  0  0  0  0  0  0  0  0  0  0
    8.6640    0.3660   24.0310 C   0  0  0  0  0  0  0  0  0  0  0  0
    8.2940   -0.3770   22.8440 N   0  0  0  0  0  0  0  0  0  0  0  0
    8.1470    0.1530   21.5970 C   0  0  0  0  0  0  0  0  0  0  0  0
    8.8800    1.2210   21.1050 O   0  0  0  0  0  0  0  0  0  0  0  0
    7.1460   -0.5010   20.9310 N   0  0  0  0  0  0  0  0  0  0  0  0
    6.4480    0.1230   19.9220 C   0  0  0  0  0  0  0  0  0  0  0  0
    5.2790    0.8300   20.2240 C   0  0  0  0  0  0  0  0  0  0  0  0
    4.5990    1.4780   19.1880 C   0  0  0  0  0  0  0  0  0  0  0  0
    5.1410    1.3710   17.9200 C   0  0  0  0  0  0  0  0  0  0  0  0
    6.2470    0.6960   17.5930 N   0  0  0  0  0  0  0  0  0  0  0  0
    6.8570    0.0980   18.6150 C   0  0  0  0  0  0  0  0  0  0  0  0
   10.4700   -0.7610   22.5740 C   0  0  0  0  0  0  0  0  0  0  0  0
   11.4070   -1.8900   22.3380 C   0  0  0  0  0  0  0  0  0  0  0  0
  2  1  1  0
  2  3  1  0
  2  4  1  0
  4  5  1  0
  5  6  1  0
  6  7  1  0
  7  8  1  6
  7  9  1  0
  7 10  1  0
 10 11  1  0
 11 12  1  0
 12 13  2  0
 12 14  1  0
 14 15  1  0
 15 16  2  0
 16 17  1  0
 17 18  2  0
 18 19  1  0
 15 20  1  0
 19 20  2  0
  6 21  1  0
  2 22  1  0
 21 22  1  0
M  END
