pyridine_urea_10206
     RDKit          3D

 23 25  0  0  0  0  0  0  0  0999 V2000
    6.4010    1.0180   25.3060 C   0  0  0  0  0  0  0  0  0  0  0  0
    7.4410   -0.0910   25.3140 C   0  0  0  0  0  0  0  0  0  0  0  0
    8.6390    0.1770   25.9870 C   0  0  0  0  0  0  0  0  0  0  0  0
    7.7780   -0.5330   23.8650 C   0  0  1  0  0  0  0  0  0  0  0  0
    8.2810    0.5300   23.0140 N   0  0  0  0  0  0  0  0  0  0  0  0
    8.1690    0.5340   21.6270 C   0  0  0  0  0  0  0  0  0  0  0  0
    8.8010    1.3760   20.9860 O   0  0  0  0  0  0  0  0  0  0  0  0
    7.3350   -0.3790   21.0820 N   0  0  0  0  0  0  0  0  0  0  0  0
    6.6350    0.1410   20.0600 C   0  0  0  0  0  0  0  0  0  0  0  0
    5.3640    0.9860   20.3080 C   0  0  0  0  0  0  0  0  0  0  0  0
    4.6650    1.5370   19.2320 C   0  0  0  0  0  0  0  0  0  0  0  0
    5.1520    1.3000   17.9450 C   0  0  0  0  0  0  0  0  0  0  0  0
    6.2670    0.5440   17.7250 N   0  0  0  0  0  0  0  0  0  0  0  0
    7.0060   -0.0370   18.7490 C   0  0  0  0  0  0  0  0  0  0  0  0
    8.9050   -1.5180   23.8580 C   0  0  0  0  0  0  0  0  0  0  0  0
    8.6420   -2.8520   23.8430 N   0  0  0  0  0  0  0  0  0  0  0  0
    9.9060   -3.3720   23.8340 N   0  0  0  0  0  0  0  0  0  0  0  0
   10.8570   -2.3930   23.8460 C   0  0  0  0  0  0  0  0  0  0  0  0
   12.2450   -2.3840   23.8430 C   0  0  0  0  0  0  0  0  0  0  0  0
   12.9040   -1.1780   23.8490 C   0  0  0  0  0  0  0  0  0  0  0  0
   12.2400    0.0350   23.8610 C   0  0  0  0  0  0  0  0  0  0  0  0
   10.8530   -0.0260   23.8730 C   0  0  0  0  0  0  0  0  0  0  0  0
   10.2120   -1.2080   23.8610 N   0  0  0  0  0  0  0  0  0  0  0  0
  1  2  1  0
  2  3  1  0
  2  4  1  0
  4  5  1  6
  5  6  1  0
  6  7  2  0
  6  8  1  0
  8  9  1  0
  9 10  2  0
 10 11  1  0
 11 12  2  0
 12 13  1  0
  9 14  1  0
 13 14  2  0
  4 15  1  0
 15 16  2  0
 16 17  1  0
 17 18  2  0
 18 19  1  0
 19 20  2  0
 20 21  1  0
 21 22  2  0
 15 23  1  0
 18 23  1  0
 22 23  1  0
M  END
