pyridine_urea_603
     RDKit          3D

 24 26  0  0  0  0  0  0  0  0999 V2000
    1.0760    3.6040   22.6310 C   0  0  0  0  0  0  0  0  0  0  0  0
    2.0780    3.1790   21.5710 C   0  0  0  0  0  0  0  0  0  0  0  0
    1.9390    2.0290   20.8280 C   0  0  0  0  0  0  0  0  0  0  0  0
    2.8830    1.6750   19.8620 C   0  0  0  0  0  0  0  0  0  0  0  0
    4.0000    2.4480   19.5930 C   0  0  0  0  0  0  0  0  0  0  0  0
    4.9310    2.0570   18.6020 C   0  0  0  0  0  0  0  0  0  0  0  0
    5.2020    0.6410   18.6530 N   0  0  0  0  0  0  0  0  0  0  0  0
    4.4760    0.0000   19.6050 C   0  0  0  0  0  0  0  0  0  0  0  0
    5.1910    0.1180   20.7830 C   0  0  0  0  0  0  0  0  0  0  0  0
    6.4710    0.4030   20.3700 C   0  0  1  0  0  0  0  0  0  0  0  0
    7.4020   -0.5410   20.9230 N   0  0  0  0  0  0  0  0  0  0  0  0
    8.5350    0.0100   21.5190 C   0  0  0  0  0  0  0  0  0  0  0  0
    8.9450    1.1500   21.2510 O   0  0  0  0  0  0  0  0  0  0  0  0
    9.0980   -0.8590   22.3780 N   0  0  0  0  0  0  0  0  0  0  0  0
   10.5010   -0.5630   22.5150 C   0  0  0  0  0  0  0  0  0  0  0  0
   10.8140    0.8330   22.8930 C   0  0  0  0  0  0  0  0  0  0  0  0
   12.1340    1.2640   23.0400 C   0  0  0  0  0  0  0  0  0  0  0  0
   13.1340    0.3490   22.8300 C   0  0  0  0  0  0  0  0  0  0  0  0
   12.8630   -0.9380   22.4880 N   0  0  0  0  0  0  0  0  0  0  0  0
   11.5650   -1.4350   22.3180 C   0  0  0  0  0  0  0  0  0  0  0  0
    6.4770    0.2740   19.0000 C   0  0  0  0  0  0  0  0  0  0  0  0
    7.4040   -0.0880   18.3390 O   0  0  0  0  0  0  0  0  0  0  0  0
    4.2040    3.6380   20.3200 C   0  0  0  0  0  0  0  0  0  0  0  0
    3.2930    4.0220   21.2840 C   0  0  0  0  0  0  0  0  0  0  0  0
  1  2  1  0
  2  3  2  0
  3  4  1  0
  4  5  2  0
  5  6  1  0
  6  7  1  0
  7  8  1  0
  8  9  1  0
  9 10  1  0
 10 11  1  1
 11 12  1  0
 12 13  2  0
 12 14  1  0
 14 15  1  0
 15 16  2  0
 16 17  1  0
 17 18  2  0
 18 19  1  0
 15 20  1  0
 19 20  2  0
  7 21  1  0
 10 21  1  0
 21 22  2  0
  5 23  1  0
  2 24  1  0
 23 24  2  0
M  END
