pyridine_urea_664
     RDKit          3D

 24 26  0  0  0  0  0  0  0  0999 V2000
    8.5400    0.3310   21.1680 O   0  0  0  0  0  0  0  0  0  0  0  0
    8.0600   -0.7670   20.8810 C   0  0  0  0  0  0  0  0  0  0  0  0
    6.7350   -0.9720   20.6730 N   0  0  0  0  0  0  0  0  0  0  0  0
    6.0800   -0.1210   19.8130 C   0  0  0  0  0  0  0  0  0  0  0  0
    4.8860    0.5420   20.0350 C   0  0  0  0  0  0  0  0  0  0  0  0
    4.3920    1.3780   19.0360 C   0  0  0  0  0  0  0  0  0  0  0  0
    5.1160    1.5060   17.8670 C   0  0  0  0  0  0  0  0  0  0  0  0
    6.2750    0.8680   17.6370 N   0  0  0  0  0  0  0  0  0  0  0  0
    6.7160    0.0780   18.6140 C   0  0  0  0  0  0  0  0  0  0  0  0
    8.8100   -1.9070   20.7290 N   0  0  0  0  0  0  0  0  0  0  0  0
    9.9160   -1.7670   21.4390 C   0  0  0  0  0  0  0  0  0  0  0  0
   11.3340   -1.8120   21.1930 C   0  0  0  0  0  0  0  0  0  0  0  0
   12.2000   -1.5380   22.0420 C   0  0  0  0  0  0  0  0  0  0  0  0
   11.6960   -1.2650   23.1450 C   0  0  0  0  0  0  0  0  0  0  0  0
   10.2570   -1.2690   23.5660 C   0  0  0  0  0  0  0  0  0  0  0  0
    9.3680   -1.0760   24.7980 C   0  0  2  0  0  0  0  0  0  0  0  0
    9.8330   -1.0370   25.9120 O   0  0  0  0  0  0  0  0  0  0  0  0
    8.5700   -2.2360   24.9240 C   0  0  0  0  0  0  0  0  0  0  0  0
    7.6060   -2.2690   25.9370 C   0  0  0  0  0  0  0  0  0  0  0  0
    6.7990   -3.3900   26.1120 C   0  0  0  0  0  0  0  0  0  0  0  0
    6.9570   -4.4810   25.2710 C   0  0  0  0  0  0  0  0  0  0  0  0
    7.9030   -4.4790   24.2570 C   0  0  0  0  0  0  0  0  0  0  0  0
    8.7110   -3.3660   24.0770 C   0  0  0  0  0  0  0  0  0  0  0  0
    9.3190   -1.5110   22.6370 C   0  0  0  0  0  0  0  0  0  0  0  0
  1  2  2  0
  2  3  1  0
  3  4  1  0
  4  5  2  0
  5  6  1  0
  6  7  2  0
  7  8  1  0
  4  9  1  0
  8  9  2  0
  2 10  1  0
 10 11  1  0
 11 12  2  0
 12 13  1  0
 13 14  2  0
 14 15  1  0
 15 16  1  0
 16 17  1  1
 16 18  1  0
 18 19  2  0
 19 20  1  0
 20 21  2  0
 21 22  1  0
 18 23  1  0
 22 23  2  0
 11 24  1  0
 15 24  2  0
M  END
