pyridine_urea_1539
     RDKit          3D

 20 20  0  0  0  0  0  0  0  0999 V2000
    7.7610   -5.9040   23.3710 C   0  0  0  0  0  0  0  0  0  0  0  0
    6.6290   -6.0380   22.3970 C   0  0  0  0  0  0  0  0  0  0  0  0
    5.8720   -4.9200   22.0260 C   0  0  0  0  0  0  0  0  0  0  0  0
    4.9560   -4.3830   22.9280 C   0  0  1  0  0  0  0  0  0  0  0  0
    3.9180   -5.2500   23.2320 C   0  0  0  0  0  0  0  0  0  0  0  0
    5.5380   -3.7150   24.0220 C   0  0  0  0  0  0  0  0  0  0  0  0
    5.5750   -4.1940   25.1570 O   0  0  0  0  0  0  0  0  0  0  0  0
    6.1030   -2.4290   23.8200 N   0  0  0  0  0  0  0  0  0  0  0  0
    7.3510   -1.9530   24.2250 C   0  0  0  0  0  0  0  0  0  0  0  0
    8.3960   -1.9980   23.0840 C   0  0  0  0  0  0  0  0  0  0  0  0
    8.8000   -0.6720   22.6290 N   0  0  0  0  0  0  0  0  0  0  0  0
    8.2980    0.0160   21.5550 C   0  0  0  0  0  0  0  0  0  0  0  0
    8.8600    1.0760   21.2110 O   0  0  0  0  0  0  0  0  0  0  0  0
    7.2090   -0.5700   21.0100 N   0  0  0  0  0  0  0  0  0  0  0  0
    6.5490    0.0610   20.0170 C   0  0  0  0  0  0  0  0  0  0  0  0
    5.4110    0.8080   20.3290 C   0  0  0  0  0  0  0  0  0  0  0  0
    4.7210    1.4680   19.3190 C   0  0  0  0  0  0  0  0  0  0  0  0
    5.1890    1.3580   18.0300 C   0  0  0  0  0  0  0  0  0  0  0  0
    6.2760    0.6400   17.7020 N   0  0  0  0  0  0  0  0  0  0  0  0
    6.9290    0.0110   18.6960 C   0  0  0  0  0  0  0  0  0  0  0  0
  1  2  1  0
  2  3  1  0
  3  4  1  0
  4  5  1  1
  4  6  1  0
  6  7  2  0
  6  8  1  0
  8  9  1  0
  9 10  1  0
 10 11  1  0
 11 12  1  0
 12 13  2  0
 12 14  1  0
 14 15  1  0
 15 16  2  0
 16 17  1  0
 17 18  2  0
 18 19  1  0
 15 20  1  0
 19 20  2  0
M  END
