pyridine_urea_9051
     RDKit          3D

 19 20  0  0  0  0  0  0  0  0999 V2000
    8.7850    0.6160   21.2390 O   0  0  0  0  0  0  0  0  0  0  0  0
    8.1760   -0.4290   21.4440 C   0  0  0  0  0  0  0  0  0  0  0  0
    8.6760   -1.4250   22.2220 N   0  0  0  0  0  0  0  0  0  0  0  0
    9.3100   -1.0090   23.4260 C   0  0  0  0  0  0  0  0  0  0  0  0
    9.9230    0.3650   23.1740 C   0  0  0  0  0  0  0  0  0  0  0  0
   10.7400    1.5000   22.9510 C   0  0  0  0  0  0  0  0  0  0  0  0
   12.1080    1.6490   22.8620 C   0  0  0  0  0  0  0  0  0  0  0  0
   12.6430    3.2690   22.6020 Cl  0  0  0  0  0  0  0  0  0  0  0  0
   12.9280    0.5810   22.9840 C   0  0  0  0  0  0  0  0  0  0  0  0
   12.2770   -0.5700   23.2080 C   0  0  0  0  0  0  0  0  0  0  0  0
   13.2130   -2.3690   23.4860 I   0  0  0  0  0  0  0  0  0  0  0  0
   10.9240   -0.6350   23.2870 C   0  0  0  0  0  0  0  0  0  0  0  0
    6.9460   -0.7470   20.9650 N   0  0  0  0  0  0  0  0  0  0  0  0
    6.3400   -0.0390   19.9590 C   0  0  0  0  0  0  0  0  0  0  0  0
    5.1430    0.6340   20.2290 C   0  0  0  0  0  0  0  0  0  0  0  0
    4.5310    1.3680   19.2080 C   0  0  0  0  0  0  0  0  0  0  0  0
    5.2000    1.3900   17.8750 C   0  0  0  0  0  0  0  0  0  0  0  0
    6.3420    0.7280   17.6610 N   0  0  0  0  0  0  0  0  0  0  0  0
    6.8720    0.0410   18.6890 C   0  0  0  0  0  0  0  0  0  0  0  0
  1  2  2  0
  2  3  1  0
  3  4  1  0
  4  5  1  0
  5  6  2  0
  6  7  1  0
  7  8  1  0
  7  9  2  0
  9 10  1  0
 10 11  1  0
  5 12  1  0
 10 12  2  0
  2 13  1  0
 13 14  1  0
 14 15  2  0
 15 16  1  0
 16 17  2  0
 17 18  1  0
 14 19  1  0
 18 19  2  0
M  END
