pyridine_urea_4923
     RDKit          3D

 21 22  0  0  0  0  0  0  0  0999 V2000
    9.0770   -3.1930   23.5230 C   0  0  0  0  0  0  0  0  0  0  0  0
    9.2220   -1.7510   22.9920 C   0  0  1  0  0  0  0  0  0  0  0  0
   10.5980   -1.6410   22.2980 C   0  0  0  0  0  0  0  0  0  0  0  0
   11.6610   -1.9910   23.1990 N   0  0  0  0  0  0  0  0  0  0  0  0
   12.9300   -1.4940   23.3340 C   0  0  0  0  0  0  0  0  0  0  0  0
   13.4810   -2.1920   24.3290 C   0  0  0  0  0  0  0  0  0  0  0  0
   12.5680   -3.0720   24.7500 C   0  0  0  0  0  0  0  0  0  0  0  0
   11.3620   -2.9990   24.0720 N   0  0  0  0  0  0  0  0  0  0  0  0
    8.2320   -1.6240   22.1190 N   0  0  0  0  0  0  0  0  0  0  0  0
    7.9800   -0.5090   21.4170 C   0  0  0  0  0  0  0  0  0  0  0  0
    8.7560    0.4330   21.2860 O   0  0  0  0  0  0  0  0  0  0  0  0
    6.7830   -0.6330   20.9400 N   0  0  0  0  0  0  0  0  0  0  0  0
    6.1840    0.0960   19.9370 C   0  0  0  0  0  0  0  0  0  0  0  0
    5.0200    0.8150   20.0700 C   0  0  0  0  0  0  0  0  0  0  0  0
    4.4970    1.5240   19.0040 C   0  0  0  0  0  0  0  0  0  0  0  0
    5.1930    1.4800   17.7940 C   0  0  0  0  0  0  0  0  0  0  0  0
    6.3360    0.7770   17.6410 N   0  0  0  0  0  0  0  0  0  0  0  0
    6.8030    0.1050   18.7040 C   0  0  0  0  0  0  0  0  0  0  0  0
    8.7770   -0.7260   23.8370 C   0  0  0  0  0  0  0  0  0  0  0  0
    8.5410   -0.9560   25.1420 N   0  0  0  0  0  0  0  0  0  0  0  0
    8.5680    0.4110   23.4080 O   0  0  0  0  0  0  0  0  0  0  0  0
  2  1  1  1
  2  3  1  0
  3  4  1  0
  4  5  1  0
  5  6  2  0
  6  7  1  0
  4  8  1  0
  7  8  2  0
  2  9  1  0
  9 10  1  0
 10 11  2  0
 10 12  1  0
 12 13  1  0
 13 14  2  0
 14 15  1  0
 15 16  2  0
 16 17  1  0
 13 18  1  0
 17 18  2  0
  2 19  1  0
 19 20  1  0
 19 21  2  0
M  END
