pyridine_urea_1117
     RDKit          3D

 21 23  0  0  0  0  0  0  0  0999 V2000
    8.6140    1.5180   21.0910 O   0  0  0  0  0  0  0  0  0  0  0  0
    8.3770    0.3240   21.2720 C   0  0  0  0  0  0  0  0  0  0  0  0
    9.3900   -0.5680   21.7120 N   0  0  0  0  0  0  0  0  0  0  0  0
   10.2510    0.0510   22.6010 C   0  0  0  0  0  0  0  0  0  0  0  0
   11.2230   -0.7280   23.2150 C   0  0  0  0  0  0  0  0  0  0  0  0
   12.4680   -0.4140   22.7200 C   0  0  0  0  0  0  0  0  0  0  0  0
   12.9930    0.7770   23.1220 C   0  0  0  0  0  0  0  0  0  0  0  0
   11.6590    0.4510   23.7010 C   0  0  0  0  0  0  0  0  0  0  0  0
   11.0700   -0.9310   23.2300 C   0  0  0  0  0  0  0  0  0  0  0  0
    9.6750   -1.3710   23.7910 C   0  0  0  0  0  0  0  0  0  0  0  0
    9.2890   -2.6050   23.9710 C   0  0  0  0  0  0  0  0  0  0  0  0
    8.8100   -2.3530   22.7900 C   0  0  0  0  0  0  0  0  0  0  0  0
   11.7870   -1.8130   22.2980 C   0  0  0  0  0  0  0  0  0  0  0  0
   13.0550   -1.4520   21.7910 C   0  0  0  0  0  0  0  0  0  0  0  0
    7.1680   -0.2880   21.0340 N   0  0  0  0  0  0  0  0  0  0  0  0
    6.4440    0.2370   19.9890 C   0  0  0  0  0  0  0  0  0  0  0  0
    5.2640    0.9220   20.2510 C   0  0  0  0  0  0  0  0  0  0  0  0
    4.5800    1.4720   19.1780 C   0  0  0  0  0  0  0  0  0  0  0  0
    5.1010    1.3120   17.9020 C   0  0  0  0  0  0  0  0  0  0  0  0
    6.2220    0.6450   17.6390 N   0  0  0  0  0  0  0  0  0  0  0  0
    6.8700    0.1220   18.6880 C   0  0  0  0  0  0  0  0  0  0  0  0
  1  2  2  0
  2  3  1  0
  3  4  1  0
  4  5  1  0
  5  6  1  0
  6  7  2  0
  7  8  1  0
  8  9  2  0
  9 10  1  0
 10 11  1  0
 10 12  1  0
 11 12  1  0
  9 13  1  0
  6 14  1  0
 13 14  2  0
  2 15  1  0
 15 16  1  0
 16 17  2  0
 17 18  1  0
 18 19  2  0
 19 20  1  0
 16 21  1  0
 20 21  2  0
M  END
