pyridine_urea_11274
     RDKit          3D

 16 18  0  0  0  0  0  0  0  0999 V2000
    8.7550    1.0140   21.2970 O   0  0  0  0  0  0  0  0  0  0  0  0
    8.3470   -0.1410   21.3260 C   0  0  0  0  0  0  0  0  0  0  0  0
    7.0340   -0.4740   21.1540 N   0  0  0  0  0  0  0  0  0  0  0  0
    6.4090    0.1260   20.0170 C   0  0  0  0  0  0  0  0  0  0  0  0
    5.1170    0.8840   20.2880 C   0  0  0  0  0  0  0  0  0  0  0  0
    4.5160    1.5100   19.0860 C   0  0  0  0  0  0  0  0  0  0  0  0
    5.1540    1.3580   17.8700 C   0  0  0  0  0  0  0  0  0  0  0  0
    6.2950    0.6690   17.6850 N   0  0  0  0  0  0  0  0  0  0  0  0
    6.8870    0.0750   18.7330 C   0  0  0  0  0  0  0  0  0  0  0  0
    9.1550   -1.2170   21.5180 N   0  0  0  0  0  0  0  0  0  0  0  0
    9.8800   -1.2810   22.7680 C   0  0  2  0  0  0  0  0  0  0  0  0
   10.3610   -0.1290   23.1080 C   0  0  0  0  0  0  0  0  0  0  0  0
   11.4310   -1.0920   22.9810 C   0  0  0  0  0  0  0  0  0  0  0  0
   12.0960   -1.3970   24.1020 C   0  0  0  0  0  0  0  0  0  0  0  0
   13.1150   -0.6340   23.7540 C   0  0  0  0  0  0  0  0  0  0  0  0
   12.7110   -0.3570   22.4650 C   0  0  0  0  0  0  0  0  0  0  0  0
  1  2  2  0
  2  3  1  0
  3  4  1  0
  4  5  2  0
  5  6  1  0
  6  7  2  0
  7  8  1  0
  4  9  1  0
  8  9  2  0
  2 10  1  0
 11 10  1  6
 11 12  1  0
 11 13  1  0
 13 12  1  0
 13 14  1  0
 14 15  1  0
 13 16  1  0
 15 16  1  0
M  END
