pyridine_urea_2549
     RDKit          3D

 24 26  0  0  0  0  0  0  0  0999 V2000
    8.6150    0.5350   21.2730 O   0  0  0  0  0  0  0  0  0  0  0  0
    8.2760   -0.6030   21.5700 C   0  0  0  0  0  0  0  0  0  0  0  0
    9.0440   -1.4230   22.4010 N   0  0  0  0  0  0  0  0  0  0  0  0
   10.2270   -0.7410   22.6520 C   0  0  0  0  0  0  0  0  0  0  0  0
   11.5440   -1.1310   22.3250 C   0  0  0  0  0  0  0  0  0  0  0  0
   12.6380   -0.2950   22.5380 C   0  0  0  0  0  0  0  0  0  0  0  0
   12.3890    0.9360   23.0770 C   0  0  0  0  0  0  0  0  0  0  0  0
   13.2160    1.9240   23.2660 N   0  0  0  0  0  0  0  0  0  0  0  0
   12.4650    3.0030   22.8380 C   0  0  0  0  0  0  0  0  0  0  0  0
   11.3980    2.8300   22.2700 O   0  0  0  0  0  0  0  0  0  0  0  0
   12.7360    4.3480   22.9770 C   0  0  0  0  0  0  0  0  0  0  0  0
   12.0760    5.2780   23.9870 C   0  0  0  0  0  0  0  0  0  0  0  0
   12.5220    6.5700   23.8850 C   0  0  0  0  0  0  0  0  0  0  0  0
   13.4620    6.7140   22.8830 C   0  0  0  0  0  0  0  0  0  0  0  0
   13.8450    5.2160   22.0010 S   0  0  0  0  0  0  0  0  0  0  0  0
   11.1570    1.3580   23.4790 C   0  0  0  0  0  0  0  0  0  0  0  0
   10.0310    0.6210   23.3240 C   0  0  0  0  0  0  0  0  0  0  0  0
    7.0940   -1.0690   21.0490 N   0  0  0  0  0  0  0  0  0  0  0  0
    6.4200   -0.3160   20.1210 C   0  0  0  0  0  0  0  0  0  0  0  0
    5.2030    0.3720   20.3280 C   0  0  0  0  0  0  0  0  0  0  0  0
    4.6020    1.1340   19.2940 C   0  0  0  0  0  0  0  0  0  0  0  0
    5.2290    1.2040   18.0560 C   0  0  0  0  0  0  0  0  0  0  0  0
    6.3950    0.5440   17.8520 N   0  0  0  0  0  0  0  0  0  0  0  0
    6.9890   -0.2070   18.8620 C   0  0  0  0  0  0  0  0  0  0  0  0
  1  2  2  0
  2  3  1  0
  3  4  1  0
  4  5  2  0
  5  6  1  0
  6  7  2  0
  7  8  1  0
  8  9  1  0
  9 10  2  0
  9 11  1  0
 11 12  2  0
 12 13  1  0
 13 14  2  0
 11 15  1  0
 14 15  1  0
  7 16  1  0
  4 17  1  0
 16 17  2  0
  2 18  1  0
 18 19  1  0
 19 20  2  0
 20 21  1  0
 21 22  2  0
 22 23  1  0
 19 24  1  0
 23 24  2  0
M  END
