pyridine_urea_6042
     RDKit          3D

 25 27  0  0  0  0  0  0  0  0999 V2000
    8.7150    0.7510   21.3710 O   0  0  0  0  0  0  0  0  0  0  0  0
    8.4430   -0.4200   21.6140 C   0  0  0  0  0  0  0  0  0  0  0  0
    9.2930   -1.2050   22.4860 N   0  0  0  0  0  0  0  0  0  0  0  0
   10.6150   -0.7840   22.6140 C   0  0  0  0  0  0  0  0  0  0  0  0
   10.8560    0.5800   22.9750 C   0  0  0  0  0  0  0  0  0  0  0  0
   12.1890    0.9720   23.0940 C   0  0  0  0  0  0  0  0  0  0  0  0
   12.9690   -0.0910   22.8280 C   0  0  0  0  0  0  0  0  0  0  0  0
   13.0290   -1.3500   22.4970 N   0  0  0  0  0  0  0  0  0  0  0  0
   11.7020   -1.6900   22.3880 C   0  0  0  0  0  0  0  0  0  0  0  0
    7.3460   -1.1040   21.1120 N   0  0  0  0  0  0  0  0  0  0  0  0
    6.7480   -0.3700   20.0230 C   0  0  2  0  0  0  0  0  0  0  0  0
    6.1230    0.9000   20.5000 C   0  0  0  0  0  0  0  0  0  0  0  0
    6.3410    1.7880   19.5160 C   0  0  0  0  0  0  0  0  0  0  0  0
    6.3000    1.1040   18.2890 C   0  0  0  0  0  0  0  0  0  0  0  0
    5.2930    0.2700   18.3960 N   0  0  0  0  0  0  0  0  0  0  0  0
    4.2020    1.1100   18.9330 C   0  0  0  0  0  0  0  0  0  0  0  0
    4.2110    2.3230   18.2630 C   0  0  0  0  0  0  0  0  0  0  0  0
    3.2640    3.2940   18.5950 C   0  0  0  0  0  0  0  0  0  0  0  0
    2.3230    3.0770   19.5790 C   0  0  0  0  0  0  0  0  0  0  0  0
    1.4030    4.0160   19.8990 F   0  0  0  0  0  0  0  0  0  0  0  0
    2.3340    1.8760   20.2370 C   0  0  0  0  0  0  0  0  0  0  0  0
    1.3850    1.7510   21.1770 F   0  0  0  0  0  0  0  0  0  0  0  0
    3.2800    0.8800   19.9190 C   0  0  0  0  0  0  0  0  0  0  0  0
    5.6050   -0.8700   19.1510 C   0  0  0  0  0  0  0  0  0  0  0  0
    5.1130   -1.9930   19.1230 O   0  0  0  0  0  0  0  0  0  0  0  0
  1  2  2  0
  2  3  1  0
  3  4  1  0
  4  5  2  0
  5  6  1  0
  6  7  2  0
  7  8  1  0
  4  9  1  0
  8  9  2  0
  2 10  1  0
 11 10  1  1
 11 12  1  0
 12 13  1  0
 13 14  1  0
 14 15  1  0
 15 16  1  0
 16 17  2  0
 17 18  1  0
 18 19  2  0
 19 20  1  0
 19 21  1  0
 21 22  1  0
 16 23  1  0
 21 23  2  0
 11 24  1  0
 15 24  1  0
 24 25  2  0
M  END
