pyridine_urea_8510
     RDKit          3D

 22 23  0  0  0  0  0  0  0  0999 V2000
    8.9900    1.0250   21.6780 O   0  0  0  0  0  0  0  0  0  0  0  0
    8.7410   -0.1500   21.4650 C   0  0  0  0  0  0  0  0  0  0  0  0
    9.6470   -1.1830   21.6160 N   0  0  0  0  0  0  0  0  0  0  0  0
   10.5550   -1.3380   22.7040 C   0  0  0  0  0  0  0  0  0  0  0  0
   11.9300   -1.6840   22.4930 C   0  0  2  0  0  0  0  0  0  0  0  0
   12.4100   -2.5490   23.4860 C   0  0  0  0  0  0  0  0  0  0  0  0
   11.4970   -3.2280   23.9350 O   0  0  0  0  0  0  0  0  0  0  0  0
   12.7580   -0.4040   22.8030 C   0  0  0  0  0  0  0  0  0  0  0  0
   12.0630    0.8800   23.1450 C   0  0  0  0  0  0  0  0  0  0  0  0
   11.1820    1.8590   23.6570 C   0  0  0  0  0  0  0  0  0  0  0  0
    9.9500    1.7210   24.5610 C   0  0  0  0  0  0  0  0  0  0  0  0
    9.5660    0.5240   25.0250 C   0  0  0  0  0  0  0  0  0  0  0  0
    8.4950    0.3610   25.8240 F   0  0  0  0  0  0  0  0  0  0  0  0
   10.3480   -0.4620   24.6150 C   0  0  0  0  0  0  0  0  0  0  0  0
   11.4550   -0.2730   23.7720 C   0  0  0  0  0  0  0  0  0  0  0  0
    7.5070   -0.5810   21.0100 N   0  0  0  0  0  0  0  0  0  0  0  0
    6.6840    0.0200   20.0390 C   0  0  0  0  0  0  0  0  0  0  0  0
    5.5280    0.7160   20.4250 C   0  0  0  0  0  0  0  0  0  0  0  0
    4.7510    1.3160   19.4400 C   0  0  0  0  0  0  0  0  0  0  0  0
    5.1320    1.2120   18.1130 C   0  0  0  0  0  0  0  0  0  0  0  0
    6.2240    0.5450   17.7280 N   0  0  0  0  0  0  0  0  0  0  0  0
    6.9670   -0.0310   18.6940 C   0  0  0  0  0  0  0  0  0  0  0  0
  1  2  2  0
  2  3  1  0
  3  4  1  0
  5  4  1  1
  5  6  1  0
  6  7  1  0
  5  8  1  0
  8  9  1  0
  9 10  2  0
 10 11  1  0
 11 12  2  0
 12 13  1  0
 12 14  1  0
  9 15  1  0
 14 15  2  0
  2 16  1  0
 16 17  1  0
 17 18  2  0
 18 19  1  0
 19 20  2  0
 20 21  1  0
 17 22  1  0
 21 22  2  0
M  END
