pyridine_urea_11839
     RDKit          3D

 25 27  0  0  0  0  0  0  0  0999 V2000
    8.9600    1.4710   21.2810 O   0  0  0  0  0  0  0  0  0  0  0  0
    8.4090    0.4970   21.8020 C   0  0  0  0  0  0  0  0  0  0  0  0
    7.2780   -0.1220   21.3100 N   0  0  0  0  0  0  0  0  0  0  0  0
    6.5790    0.3020   20.1660 C   0  0  0  0  0  0  0  0  0  0  0  0
    5.4330    1.0730   20.3590 C   0  0  0  0  0  0  0  0  0  0  0  0
    4.7090    1.5380   19.2650 C   0  0  0  0  0  0  0  0  0  0  0  0
    5.1620    1.2130   18.0080 C   0  0  0  0  0  0  0  0  0  0  0  0
    6.2480    0.4700   17.7800 N   0  0  0  0  0  0  0  0  0  0  0  0
    6.9350    0.0250   18.8550 C   0  0  0  0  0  0  0  0  0  0  0  0
    8.9010   -0.0830   22.9790 N   0  0  0  0  0  0  0  0  0  0  0  0
   10.2960   -0.5250   22.9580 C   0  0  0  0  0  0  0  0  0  0  0  0
   10.2470   -1.7600   22.0680 C   0  0  0  0  0  0  0  0  0  0  0  0
    8.9780   -2.3130   22.1960 C   0  0  0  0  0  0  0  0  0  0  0  0
    7.8540   -2.0560   21.4300 C   0  0  0  0  0  0  0  0  0  0  0  0
    6.6350   -2.6720   21.6630 C   0  0  0  0  0  0  0  0  0  0  0  0
    6.4900   -3.5880   22.6880 C   0  0  0  0  0  0  0  0  0  0  0  0
    5.2970   -4.1670   22.8830 F   0  0  0  0  0  0  0  0  0  0  0  0
    7.5650   -3.9090   23.5090 C   0  0  0  0  0  0  0  0  0  0  0  0
    8.9390   -3.2830   23.3340 C   0  0  0  0  0  0  0  0  0  0  0  0
    9.9950   -3.5650   24.1070 F   0  0  0  0  0  0  0  0  0  0  0  0
   11.0010   -1.0590   24.1820 C   0  0  0  0  0  0  0  0  0  0  0  0
   12.3910   -0.8310   24.1720 C   0  0  0  0  0  0  0  0  0  0  0  0
   12.7630    0.3270   24.1960 O   0  0  0  0  0  0  0  0  0  0  0  0
   11.7410    1.1070   23.7600 C   0  0  0  0  0  0  0  0  0  0  0  0
   11.1380    0.5280   22.6710 C   0  0  0  0  0  0  0  0  0  0  0  0
  1  2  2  0
  2  3  1  0
  3  4  1  0
  4  5  2  0
  5  6  1  0
  6  7  2  0
  7  8  1  0
  4  9  1  0
  8  9  2  0
  2 10  1  0
 11 10  1  0
 11 12  1  0
 12 13  1  0
 13 14  2  0
 14 15  1  0
 15 16  2  0
 16 17  1  0
 16 18  1  0
 13 19  1  0
 18 19  2  0
 19 20  1  0
 11 21  1  0
 21 22  1  0
 22 23  1  0
 23 24  1  0
 11 25  1  0
 24 25  1  0
M  END
