pyridine_urea_3028
     RDKit          3D

 21 23  0  0  0  0  0  0  0  0999 V2000
    7.1780    1.6380   23.0000 O   0  0  0  0  0  0  0  0  0  0  0  0
    7.3100    0.4350   23.0420 C   0  0  0  0  0  0  0  0  0  0  0  0
    8.1520   -0.1350   24.0800 N   0  0  0  0  0  0  0  0  0  0  0  0
    9.2310    0.6500   24.8420 C   0  0  0  0  0  0  0  0  0  0  0  0
   10.7960    0.4280   24.5160 C   0  0  0  0  0  0  0  0  0  0  0  0
   11.6510   -0.7140   24.9650 N   0  0  0  0  0  0  0  0  0  0  0  0
   12.8500   -0.4750   24.3120 N   0  0  0  0  0  0  0  0  0  0  0  0
   12.7130    0.7080   23.5540 C   0  0  0  0  0  0  0  0  0  0  0  0
   13.7930    1.0910   22.6730 N   0  0  0  0  0  0  0  0  0  0  0  0
   14.2230    2.3650   22.0630 C   0  0  0  0  0  0  0  0  0  0  0  0
   14.3100    2.5290   20.6940 C   0  0  0  0  0  0  0  0  0  0  0  0
   14.4620    1.0920   20.3500 C   0  0  0  0  0  0  0  0  0  0  0  0
   13.7820    0.2000   21.5940 C   0  0  0  0  0  0  0  0  0  0  0  0
   11.4890    1.3630   23.6720 O   0  0  0  0  0  0  0  0  0  0  0  0
    6.7290   -0.3830   22.0360 N   0  0  0  0  0  0  0  0  0  0  0  0
    6.3070    0.0800   20.6750 C   0  0  0  0  0  0  0  0  0  0  0  0
    5.0540    0.9340   20.6330 C   0  0  0  0  0  0  0  0  0  0  0  0
    4.5570    1.4590   19.2940 C   0  0  0  0  0  0  0  0  0  0  0  0
    5.3900    1.0620   18.0970 C   0  0  0  0  0  0  0  0  0  0  0  0
    6.5350    0.2680   18.1950 N   0  0  0  0  0  0  0  0  0  0  0  0
    6.9490   -0.1900   19.4390 C   0  0  0  0  0  0  0  0  0  0  0  0
  1  2  2  0
  2  3  1  0
  3  4  1  0
  4  5  1  0
  5  6  2  0
  6  7  1  0
  7  8  2  0
  8  9  1  0
  9 10  1  0
 10 11  1  0
 11 12  1  0
  9 13  1  0
 12 13  1  0
  5 14  1  0
  8 14  1  0
  2 15  1  0
 15 16  1  0
 16 17  2  0
 17 18  1  0
 18 19  2  0
 19 20  1  0
 16 21  1  0
 20 21  2  0
M  END
