pyridine_urea_996
     RDKit          3D

 22 23  0  0  0  0  0  0  0  0999 V2000
   11.8630   -2.0110   21.8940 C   0  0  0  0  0  0  0  0  0  0  0  0
   11.6100   -0.9960   22.9680 C   0  0  2  0  0  0  0  0  0  0  0  0
   10.4200   -0.2680   22.9890 C   0  0  0  0  0  0  0  0  0  0  0  0
    9.3320   -0.9570   22.2520 N   0  0  0  0  0  0  0  0  0  0  0  0
    8.4540   -0.2450   21.5020 C   0  0  0  0  0  0  0  0  0  0  0  0
    8.7920    0.8960   21.2040 O   0  0  0  0  0  0  0  0  0  0  0  0
    7.1850   -0.8220   21.0960 N   0  0  0  0  0  0  0  0  0  0  0  0
    6.5400   -0.1380   20.0890 C   0  0  0  0  0  0  0  0  0  0  0  0
    5.2480    0.5930   20.4120 C   0  0  0  0  0  0  0  0  0  0  0  0
    4.5410    1.3650   19.2920 C   0  0  0  0  0  0  0  0  0  0  0  0
    5.2090    1.3320   17.9330 C   0  0  0  0  0  0  0  0  0  0  0  0
    6.3670    0.6360   17.7660 N   0  0  0  0  0  0  0  0  0  0  0  0
    7.0110   -0.0720   18.7860 C   0  0  0  0  0  0  0  0  0  0  0  0
   12.8260   -0.0350   22.9600 C   0  0  0  0  0  0  0  0  0  0  0  0
   12.5080    1.2890   22.5070 O   0  0  0  0  0  0  0  0  0  0  0  0
   11.5750    2.0680   23.2700 C   0  0  0  0  0  0  0  0  0  0  0  0
   11.8900    3.4210   23.1560 C   0  0  0  0  0  0  0  0  0  0  0  0
   10.9270    4.3630   23.4500 C   0  0  0  0  0  0  0  0  0  0  0  0
   11.2120    5.7130   23.3550 C   0  0  0  0  0  0  0  0  0  0  0  0
   12.4540    6.1770   22.9660 C   0  0  0  0  0  0  0  0  0  0  0  0
   13.4430    5.2410   22.6590 C   0  0  0  0  0  0  0  0  0  0  0  0
   13.1670    3.8570   22.7530 C   0  0  0  0  0  0  0  0  0  0  0  0
  2  1  1  6
  2  3  1  0
  3  4  1  0
  4  5  1  0
  5  6  2  0
  5  7  1  0
  7  8  1  0
  8  9  2  0
  9 10  1  0
 10 11  2  0
 11 12  1  0
  8 13  1  0
 12 13  2  0
  2 14  1  0
 14 15  1  0
 15 16  1  0
 16 17  1  0
 17 18  2  0
 18 19  1  0
 19 20  2  0
 20 21  1  0
 17 22  1  0
 21 22  2  0
M  END
