pyridine_urea_2741
     RDKit          3D

 22 23  0  0  0  0  0  0  0  0999 V2000
   13.5690   -2.0730   22.9600 C   0  0  0  0  0  0  0  0  0  0  0  0
   12.1770   -1.5760   22.9640 C   0  0  0  0  0  0  0  0  0  0  0  0
   11.3770   -1.9820   21.7530 C   0  0  0  0  0  0  0  0  0  0  0  0
   10.0800   -1.5900   21.6690 C   0  0  0  0  0  0  0  0  0  0  0  0
    9.2580   -1.8090   20.8220 O   0  0  0  0  0  0  0  0  0  0  0  0
    9.5980   -0.7640   22.8070 C   0  0  0  0  0  0  0  0  0  0  0  0
    8.3430   -0.3400   22.7510 N   0  0  0  0  0  0  0  0  0  0  0  0
    7.9740    0.3190   21.6110 C   0  0  0  0  0  0  0  0  0  0  0  0
    8.5580    1.3190   21.1530 O   0  0  0  0  0  0  0  0  0  0  0  0
    6.8730   -0.3160   21.0650 N   0  0  0  0  0  0  0  0  0  0  0  0
    6.3080    0.2660   19.8870 C   0  0  0  0  0  0  0  0  0  0  0  0
    5.0280    1.0400   20.1940 C   0  0  0  0  0  0  0  0  0  0  0  0
    4.4040    1.7150   18.9880 C   0  0  0  0  0  0  0  0  0  0  0  0
    5.1330    1.5270   17.6780 C   0  0  0  0  0  0  0  0  0  0  0  0
    6.2720    0.7880   17.5550 N   0  0  0  0  0  0  0  0  0  0  0  0
    6.8470    0.1690   18.6350 C   0  0  0  0  0  0  0  0  0  0  0  0
   10.3020   -0.4010   23.8670 C   0  0  0  0  0  0  0  0  0  0  0  0
   11.5820   -0.8260   23.9200 C   0  0  0  0  0  0  0  0  0  0  0  0
   12.1650   -0.4450   24.9550 C   0  0  0  0  0  0  0  0  0  0  0  0
   12.5640    0.7670   24.5640 F   0  0  0  0  0  0  0  0  0  0  0  0
   11.1630   -0.4130   25.8540 F   0  0  0  0  0  0  0  0  0  0  0  0
   13.1780   -1.2210   25.3960 F   0  0  0  0  0  0  0  0  0  0  0  0
  1  2  1  0
  2  3  2  0
  3  4  1  0
  4  5  1  0
  4  6  2  0
  6  7  1  0
  7  8  1  0
  8  9  2  0
  8 10  1  0
 10 11  1  0
 11 12  2  0
 12 13  1  0
 13 14  2  0
 14 15  1  0
 11 16  1  0
 15 16  2  0
  6 17  1  0
  2 18  1  0
 17 18  2  0
 18 19  1  0
 19 20  1  0
 19 21  1  0
 19 22  1  0
M  END
