pyridine_urea_10016
     RDKit          3D

 24 25  0  0  0  0  0  0  0  0999 V2000
   10.6450    4.1210   23.4110 C   0  0  0  0  0  0  0  0  0  0  0  0
   10.4850    2.6430   23.0890 C   0  0  0  0  0  0  0  0  0  0  0  0
   11.5590    1.8510   23.4020 C   0  0  0  0  0  0  0  0  0  0  0  0
    9.1470    2.0890   23.6620 C   0  0  0  0  0  0  0  0  0  0  0  0
    8.9860    0.7580   23.9440 C   0  0  2  0  0  0  0  0  0  0  0  0
   10.0710    0.1970   24.4750 C   0  0  0  0  0  0  0  0  0  0  0  0
   10.8240   -0.5550   23.4730 C   0  0  0  0  0  0  0  0  0  0  0  0
   10.2420   -1.6670   22.9040 C   0  0  0  0  0  0  0  0  0  0  0  0
   10.9470   -2.3360   22.0410 C   0  0  0  0  0  0  0  0  0  0  0  0
   12.1600   -1.8830   21.8180 C   0  0  0  0  0  0  0  0  0  0  0  0
   13.2250   -2.6080   20.8220 Cl  0  0  0  0  0  0  0  0  0  0  0  0
   12.6070   -0.7840   22.4090 C   0  0  0  0  0  0  0  0  0  0  0  0
   12.0380    0.1480   23.3720 C   0  0  0  0  0  0  0  0  0  0  0  0
   13.5590    0.5960   22.9000 Cl  0  0  0  0  0  0  0  0  0  0  0  0
    8.5410   -0.1040   22.9280 N   0  0  0  0  0  0  0  0  0  0  0  0
    8.3140    0.3680   21.6730 C   0  0  0  0  0  0  0  0  0  0  0  0
    8.9460    1.3050   21.1770 O   0  0  0  0  0  0  0  0  0  0  0  0
    7.2920   -0.3290   21.0900 N   0  0  0  0  0  0  0  0  0  0  0  0
    6.5720    0.2130   19.9780 C   0  0  0  0  0  0  0  0  0  0  0  0
    5.4310    0.9520   20.2690 C   0  0  0  0  0  0  0  0  0  0  0  0
    4.6900    1.5340   19.2540 C   0  0  0  0  0  0  0  0  0  0  0  0
    5.1160    1.3620   17.9510 C   0  0  0  0  0  0  0  0  0  0  0  0
    6.2040    0.6480   17.6190 N   0  0  0  0  0  0  0  0  0  0  0  0
    6.9240    0.0740   18.6640 C   0  0  0  0  0  0  0  0  0  0  0  0
  1  2  1  0
  2  3  1  0
  2  4  1  0
  5  4  1  6
  5  6  1  0
  6  7  1  0
  7  8  2  0
  8  9  1  0
  9 10  2  0
 10 11  1  0
 10 12  1  0
  7 13  1  0
 12 13  2  0
 13 14  1  0
  5 15  1  0
 15 16  1  0
 16 17  2  0
 16 18  1  0
 18 19  1  0
 19 20  2  0
 20 21  1  0
 21 22  2  0
 22 23  1  0
 19 24  1  0
 23 24  2  0
M  END
