pyridine_urea_3391
     RDKit          3D

 19 20  0  0  0  0  0  0  0  0999 V2000
   13.0720   -2.1160   21.2900 C   0  0  0  0  0  0  0  0  0  0  0  0
   12.6410   -1.8100   22.6930 C   0  0  0  0  0  0  0  0  0  0  0  0
   13.2800   -2.5360   23.7040 C   0  0  0  0  0  0  0  0  0  0  0  0
   13.0620   -0.3460   22.9770 C   0  0  0  0  0  0  0  0  0  0  0  0
   11.9600    0.3440   23.3230 C   0  0  0  0  0  0  0  0  0  0  0  0
   10.8130   -0.4310   23.3070 N   0  0  0  0  0  0  0  0  0  0  0  0
    9.8160   -0.5100   24.2400 C   0  0  0  0  0  0  0  0  0  0  0  0
    8.6590   -1.0600   23.7110 C   0  0  0  0  0  0  0  0  0  0  0  0
    7.9280   -0.0650   22.9670 N   0  0  0  0  0  0  0  0  0  0  0  0
    8.0980    0.2250   21.6250 C   0  0  0  0  0  0  0  0  0  0  0  0
    8.8480    1.1310   21.2110 O   0  0  0  0  0  0  0  0  0  0  0  0
    7.3060   -0.5830   20.8950 N   0  0  0  0  0  0  0  0  0  0  0  0
    6.5300    0.0660   20.0080 C   0  0  0  0  0  0  0  0  0  0  0  0
    5.3670    0.7620   20.3040 C   0  0  0  0  0  0  0  0  0  0  0  0
    4.6750    1.4010   19.2710 C   0  0  0  0  0  0  0  0  0  0  0  0
    5.1810    1.3150   17.9760 C   0  0  0  0  0  0  0  0  0  0  0  0
    6.2960    0.6400   17.6800 N   0  0  0  0  0  0  0  0  0  0  0  0
    6.9350    0.0380   18.6950 C   0  0  0  0  0  0  0  0  0  0  0  0
   11.2240   -1.7850   22.8680 C   0  0  0  0  0  0  0  0  0  0  0  0
  2  1  1  0
  2  3  1  0
  2  4  1  0
  4  5  1  0
  5  6  1  0
  6  7  1  0
  7  8  1  0
  8  9  1  0
  9 10  1  0
 10 11  2  0
 10 12  1  0
 12 13  1  0
 13 14  2  0
 14 15  1  0
 15 16  2  0
 16 17  1  0
 13 18  1  0
 17 18  2  0
  2 19  1  0
  6 19  1  0
M  END
