pyridine_urea_13476
     RDKit          3D

 20 21  0  0  0  0  0  0  0  0999 V2000
    6.4270   -1.6700   27.0090 C   0  0  0  0  0  0  0  0  0  0  0  0
    5.8260   -2.7700   26.1070 C   0  0  0  0  0  0  0  0  0  0  0  0
    5.6690   -3.9020   26.8600 F   0  0  0  0  0  0  0  0  0  0  0  0
    4.5660   -2.3920   25.7320 F   0  0  0  0  0  0  0  0  0  0  0  0
    6.7770   -2.9700   24.9170 C   0  0  0  0  0  0  0  0  0  0  0  0
    6.7650   -4.2030   24.0250 N   0  0  0  0  0  0  0  0  0  0  0  0
    7.8140   -3.9210   23.0980 O   0  0  0  0  0  0  0  0  0  0  0  0
    8.3200   -2.6920   23.4560 C   0  0  0  0  0  0  0  0  0  0  0  0
    9.4610   -1.9790   22.7620 C   0  0  0  0  0  0  0  0  0  0  0  0
    9.1840   -1.4330   21.5560 N   0  0  0  0  0  0  0  0  0  0  0  0
    8.4810   -0.2900   21.4480 C   0  0  0  0  0  0  0  0  0  0  0  0
    9.0050    0.8150   21.5200 O   0  0  0  0  0  0  0  0  0  0  0  0
    7.0820   -0.5630   21.2100 N   0  0  0  0  0  0  0  0  0  0  0  0
    6.4520    0.0750   20.0860 C   0  0  0  0  0  0  0  0  0  0  0  0
    5.3020    0.8480   20.2620 C   0  0  0  0  0  0  0  0  0  0  0  0
    4.7070    1.4750   19.1730 C   0  0  0  0  0  0  0  0  0  0  0  0
    5.2000    1.3800   17.8820 C   0  0  0  0  0  0  0  0  0  0  0  0
    6.3240    0.6020   17.7680 N   0  0  0  0  0  0  0  0  0  0  0  0
    7.0080   -0.0890   18.8350 C   0  0  0  0  0  0  0  0  0  0  0  0
    7.7180   -2.1240   24.5160 N   0  0  0  0  0  0  0  0  0  0  0  0
  1  2  1  0
  2  3  1  0
  2  4  1  0
  2  5  1  0
  5  6  2  0
  6  7  1  0
  7  8  1  0
  8  9  1  0
  9 10  1  0
 10 11  1  0
 11 12  2  0
 11 13  1  0
 13 14  1  0
 14 15  2  0
 15 16  1  0
 16 17  2  0
 17 18  1  0
 14 19  1  0
 18 19  2  0
  5 20  1  0
  8 20  2  0
M  END
