pyridine_urea_4080
     RDKit          3D

 24 25  0  0  0  0  0  0  0  0999 V2000
    8.9520    1.1610   21.2350 O   0  0  0  0  0  0  0  0  0  0  0  0
    8.5210    0.0540   21.5940 C   0  0  0  0  0  0  0  0  0  0  0  0
    9.0200   -0.7320   22.6070 N   0  0  0  0  0  0  0  0  0  0  0  0
    8.7450   -0.6480   23.9950 C   0  0  0  0  0  0  0  0  0  0  0  0
    7.9290    0.3990   24.4660 C   0  0  0  0  0  0  0  0  0  0  0  0
    6.8950    0.1290   25.3480 N   0  0  0  0  0  0  0  0  0  0  0  0
    5.6170   -0.3460   24.9570 C   0  0  0  0  0  0  0  0  0  0  0  0
    4.5640   -0.2170   25.8460 C   0  0  0  0  0  0  0  0  0  0  0  0
    4.0800   -1.2300   26.3350 O   0  0  0  0  0  0  0  0  0  0  0  0
    7.3360   -0.6350   26.3850 C   0  0  0  0  0  0  0  0  0  0  0  0
    7.6580   -0.0270   27.6080 C   0  0  0  0  0  0  0  0  0  0  0  0
    9.1150    0.1300   28.0310 C   0  0  0  0  0  0  0  0  0  0  0  0
    9.4770    0.7070   29.2250 C   0  0  0  0  0  0  0  0  0  0  0  0
    8.4770    1.1770   30.0910 C   0  0  0  0  0  0  0  0  0  0  0  0
    7.1070    1.0680   29.7620 C   0  0  0  0  0  0  0  0  0  0  0  0
    5.8040    1.5970   30.7180 Cl  0  0  0  0  0  0  0  0  0  0  0  0
    6.7570    0.4730   28.5420 C   0  0  0  0  0  0  0  0  0  0  0  0
    7.4280   -0.5340   21.0050 N   0  0  0  0  0  0  0  0  0  0  0  0
    6.6530    0.0770   20.0890 C   0  0  0  0  0  0  0  0  0  0  0  0
    5.4090    0.8790   20.3550 C   0  0  0  0  0  0  0  0  0  0  0  0
    4.6500    1.5310   19.2110 C   0  0  0  0  0  0  0  0  0  0  0  0
    5.1410    1.3640   17.9290 C   0  0  0  0  0  0  0  0  0  0  0  0
    6.2820    0.6110   17.7330 N   0  0  0  0  0  0  0  0  0  0  0  0
    7.0130   -0.0130   18.7530 C   0  0  0  0  0  0  0  0  0  0  0  0
  1  2  2  0
  2  3  1  0
  3  4  1  0
  4  5  1  0
  5  6  1  0
  6  7  1  0
  7  8  1  0
  8  9  1  0
  6 10  1  0
 10 11  1  0
 11 12  2  0
 12 13  1  0
 13 14  2  0
 14 15  1  0
 15 16  1  0
 11 17  1  0
 15 17  2  0
  2 18  1  0
 18 19  1  0
 19 20  2  0
 20 21  1  0
 21 22  2  0
 22 23  1  0
 19 24  1  0
 23 24  2  0
M  END
