pyridine_urea_8850
     RDKit          3D

 20 22  0  0  0  0  0  0  0  0999 V2000
    8.2540    1.5230   20.8950 O   0  0  0  0  0  0  0  0  0  0  0  0
    8.2250    0.4170   21.4270 C   0  0  0  0  0  0  0  0  0  0  0  0
    7.2290   -0.4640   21.1400 N   0  0  0  0  0  0  0  0  0  0  0  0
    6.5690    0.0490   19.9850 C   0  0  0  0  0  0  0  0  0  0  0  0
    5.3020    0.8760   20.2560 C   0  0  0  0  0  0  0  0  0  0  0  0
    4.6110    1.4520   19.2020 C   0  0  0  0  0  0  0  0  0  0  0  0
    5.1110    1.2510   17.9230 C   0  0  0  0  0  0  0  0  0  0  0  0
    6.2360    0.4960   17.7240 N   0  0  0  0  0  0  0  0  0  0  0  0
    6.9810   -0.1160   18.7270 C   0  0  0  0  0  0  0  0  0  0  0  0
    9.1850    0.0180   22.2700 N   0  0  0  0  0  0  0  0  0  0  0  0
   10.3150   -0.1300   22.9380 C   0  0  1  0  0  0  0  0  0  0  0  0
   10.4330   -0.3410   24.2430 C   0  0  0  0  0  0  0  0  0  0  0  0
   11.6470    0.1960   24.5660 C   0  0  0  0  0  0  0  0  0  0  0  0
   12.6900    0.1910   23.6270 C   0  0  0  0  0  0  0  0  0  0  0  0
   12.5740   -0.8040   22.6890 C   0  0  0  0  0  0  0  0  0  0  0  0
   13.5610   -1.5090   22.1830 N   0  0  0  0  0  0  0  0  0  0  0  0
   13.2110   -2.4150   21.2810 C   0  0  0  0  0  0  0  0  0  0  0  0
   11.9750   -2.6400   20.8980 C   0  0  0  0  0  0  0  0  0  0  0  0
   10.9430   -1.8910   21.4660 C   0  0  0  0  0  0  0  0  0  0  0  0
   11.2790   -0.9670   22.3480 C   0  0  0  0  0  0  0  0  0  0  0  0
  1  2  2  0
  2  3  1  0
  3  4  1  0
  4  5  2  0
  5  6  1  0
  6  7  2  0
  7  8  1  0
  4  9  1  0
  8  9  2  0
  2 10  1  0
 11 10  1  6
 11 12  1  0
 12 13  1  0
 13 14  1  0
 14 15  1  0
 15 16  2  0
 16 17  1  0
 17 18  2  0
 18 19  1  0
 11 20  1  0
 15 20  1  0
 19 20  2  0
M  END
