pyridine_urea_6545
     RDKit          3D

 22 23  0  0  0  0  0  0  0  0999 V2000
    7.4360    0.3880   24.9950 C   0  0  0  0  0  0  0  0  0  0  0  0
    8.2130   -0.6750   25.3900 N   0  0  0  0  0  0  0  0  0  0  0  0
    8.7090   -1.7130   24.5760 C   0  0  0  0  0  0  0  0  0  0  0  0
    8.0030   -2.9200   24.2360 O   0  0  0  0  0  0  0  0  0  0  0  0
   10.0990   -1.3900   24.1030 N   0  0  0  0  0  0  0  0  0  0  0  0
   10.2770   -1.1950   22.7270 C   0  0  0  0  0  0  0  0  0  0  0  0
   11.7440   -1.0840   22.1540 C   0  0  0  0  0  0  0  0  0  0  0  0
   12.8630   -1.4320   23.0660 C   0  0  0  0  0  0  0  0  0  0  0  0
   12.3980   -1.8940   24.2440 C   0  0  0  0  0  0  0  0  0  0  0  0
   11.0600   -2.2750   24.0750 C   0  0  2  0  0  0  0  0  0  0  0  0
   10.7650   -2.6740   22.8130 C   0  0  0  0  0  0  0  0  0  0  0  0
   10.0150   -1.7640   22.0260 C   0  0  0  0  0  0  0  0  0  0  0  0
    8.7950   -1.2730   22.3810 N   0  0  0  0  0  0  0  0  0  0  0  0
    8.2650   -0.3060   21.5880 C   0  0  0  0  0  0  0  0  0  0  0  0
    8.8920    0.9160   21.2650 O   0  0  0  0  0  0  0  0  0  0  0  0
    7.0220   -0.6380   21.1150 N   0  0  0  0  0  0  0  0  0  0  0  0
    6.4210    0.0200   19.9850 C   0  0  0  0  0  0  0  0  0  0  0  0
    5.2380    0.7040   20.3990 C   0  0  0  0  0  0  0  0  0  0  0  0
    4.6050    1.4240   19.1960 C   0  0  0  0  0  0  0  0  0  0  0  0
    5.1880    1.3450   17.9510 C   0  0  0  0  0  0  0  0  0  0  0  0
    6.3030    0.6630   17.6780 N   0  0  0  0  0  0  0  0  0  0  0  0
    6.8860    0.0220   18.6950 C   0  0  0  0  0  0  0  0  0  0  0  0
  1  2  1  0
  2  3  1  0
  3  4  2  0
  3  5  1  0
  5  6  1  0
  6  7  1  0
  7  8  1  0
  8  9  1  0
  5 10  1  0
  9 10  1  0
 10 11  1  6
 11 12  1  0
 12 13  1  0
 13 14  1  0
 14 15  2  0
 14 16  1  0
 16 17  1  0
 17 18  2  0
 18 19  1  0
 19 20  2  0
 20 21  1  0
 17 22  1  0
 21 22  2  0
M  END
