pyridine_urea_13210
     RDKit          3D

 17 18  0  0  0  0  0  0  0  0999 V2000
    8.6820    0.9100   21.1770 O   0  0  0  0  0  0  0  0  0  0  0  0
    8.1230   -0.1210   21.5280 C   0  0  0  0  0  0  0  0  0  0  0  0
    8.4850   -0.8820   22.5810 N   0  0  0  0  0  0  0  0  0  0  0  0
    9.2600   -0.4120   23.6290 C   0  0  0  0  0  0  0  0  0  0  0  0
   10.5970   -0.5330   23.4210 C   0  0  0  0  0  0  0  0  0  0  0  0
   11.0430   -1.3320   22.3590 C   0  0  0  0  0  0  0  0  0  0  0  0
   12.3870   -1.4760   22.1840 C   0  0  0  0  0  0  0  0  0  0  0  0
   13.0080   -1.5600   23.5310 C   0  0  0  0  0  0  0  0  0  0  0  0
   12.9120   -0.3480   24.1810 C   0  0  0  0  0  0  0  0  0  0  0  0
   11.4750    0.1200   24.2670 C   0  0  0  0  0  0  0  0  0  0  0  0
    7.0270   -0.6630   20.9320 N   0  0  0  0  0  0  0  0  0  0  0  0
    6.3120    0.0410   19.9710 C   0  0  0  0  0  0  0  0  0  0  0  0
    5.1210    0.7110   20.1820 C   0  0  0  0  0  0  0  0  0  0  0  0
    4.5390    1.3870   19.1160 C   0  0  0  0  0  0  0  0  0  0  0  0
    5.1780    1.3640   17.8770 C   0  0  0  0  0  0  0  0  0  0  0  0
    6.3280    0.7090   17.6670 N   0  0  0  0  0  0  0  0  0  0  0  0
    6.8580    0.0710   18.7100 C   0  0  0  0  0  0  0  0  0  0  0  0
  1  2  2  0
  2  3  1  0
  3  4  1  0
  4  5  1  0
  5  6  2  0
  6  7  1  0
  7  8  1  0
  8  9  1  0
  5 10  1  0
  9 10  1  0
  2 11  1  0
 11 12  1  0
 12 13  2  0
 13 14  1  0
 14 15  2  0
 15 16  1  0
 12 17  1  0
 16 17  2  0
M  END
