pyridine_urea_8913
     RDKit          3D

 20 21  0  0  0  0  0  0  0  0999 V2000
    6.3690   -1.3010   18.2700 C   0  0  0  0  0  0  0  0  0  0  0  0
    5.4290   -0.1010   18.0450 C   0  0  0  0  0  0  0  0  0  0  0  0
    6.0940    1.1770   17.5670 C   0  0  0  0  0  0  0  0  0  0  0  0
    5.2300    0.2640   19.3510 N   0  0  0  0  0  0  0  0  0  0  0  0
    5.0430    1.6220   19.7020 C   0  0  0  0  0  0  0  0  0  0  0  0
    5.5860    2.5100   20.6280 C   0  0  0  0  0  0  0  0  0  0  0  0
    6.4850    1.7820   21.2990 C   0  0  0  0  0  0  0  0  0  0  0  0
    6.1850    0.5900   20.6870 C   0  0  0  0  0  0  0  0  0  0  0  0
    7.1450   -0.0390   21.4450 N   0  0  0  0  0  0  0  0  0  0  0  0
    8.4850    0.2270   21.6340 C   0  0  0  0  0  0  0  0  0  0  0  0
    8.9780    1.2550   21.1340 O   0  0  0  0  0  0  0  0  0  0  0  0
    9.1520   -0.6910   22.3770 N   0  0  0  0  0  0  0  0  0  0  0  0
   10.4950   -0.5270   22.5070 C   0  0  0  0  0  0  0  0  0  0  0  0
   10.8080    0.7930   22.8780 C   0  0  0  0  0  0  0  0  0  0  0  0
   12.1100    1.1410   23.0450 C   0  0  0  0  0  0  0  0  0  0  0  0
   13.0290    0.0760   22.8220 C   0  0  0  0  0  0  0  0  0  0  0  0
   12.6680   -1.1570   22.4750 N   0  0  0  0  0  0  0  0  0  0  0  0
   11.3780   -1.6530   22.2620 C   0  0  0  0  0  0  0  0  0  0  0  0
    5.9990   -0.6540   20.1730 C   0  0  0  0  0  0  0  0  0  0  0  0
    6.8480   -1.2260   21.1790 O   0  0  0  0  0  0  0  0  0  0  0  0
  1  2  1  0
  2  3  1  0
  2  4  1  0
  4  5  1  0
  5  6  2  0
  6  7  1  0
  7  8  2  0
  8  9  1  0
  9 10  1  0
 10 11  2  0
 10 12  1  0
 12 13  1  0
 13 14  2  0
 14 15  1  0
 15 16  2  0
 16 17  1  0
 13 18  1  0
 17 18  2  0
  4 19  1  0
  8 19  1  0
 19 20  2  0
M  END
