pyridine_urea_13249
     RDKit          3D

 16 16  0  0  0  0  0  0  0  0999 V2000
    9.4360    2.0340   23.3180 C   0  0  0  0  0  0  0  0  0  0  0  0
    9.4020    0.6840   23.7910 O   0  0  0  0  0  0  0  0  0  0  0  0
   10.4700   -0.1140   23.4900 C   0  0  0  0  0  0  0  0  0  0  0  0
   10.4890   -0.8140   22.3240 C   0  0  1  0  0  0  0  0  0  0  0  0
   11.4040   -1.8510   22.2020 C   0  0  0  0  0  0  0  0  0  0  0  0
   12.4370   -1.6420   22.8270 O   0  0  0  0  0  0  0  0  0  0  0  0
    9.1340   -1.2430   21.9970 N   0  0  0  0  0  0  0  0  0  0  0  0
    8.3270   -0.3430   21.3960 C   0  0  0  0  0  0  0  0  0  0  0  0
    8.6740    0.8190   21.2170 O   0  0  0  0  0  0  0  0  0  0  0  0
    7.1460   -0.8750   21.0230 N   0  0  0  0  0  0  0  0  0  0  0  0
    6.4670   -0.1500   20.0930 C   0  0  0  0  0  0  0  0  0  0  0  0
    5.2870    0.5800   20.3380 C   0  0  0  0  0  0  0  0  0  0  0  0
    4.6100    1.3770   19.1920 C   0  0  0  0  0  0  0  0  0  0  0  0
    5.2110    1.3360   17.9460 C   0  0  0  0  0  0  0  0  0  0  0  0
    6.3400    0.6100   17.7930 N   0  0  0  0  0  0  0  0  0  0  0  0
    6.9690   -0.1180   18.8010 C   0  0  0  0  0  0  0  0  0  0  0  0
  1  2  1  0
  2  3  1  0
  4  3  1  1
  4  5  1  0
  5  6  1  0
  4  7  1  0
  7  8  1  0
  8  9  2  0
  8 10  1  0
 10 11  1  0
 11 12  2  0
 12 13  1  0
 13 14  2  0
 14 15  1  0
 11 16  1  0
 15 16  2  0
M  END
