pyridine_urea_5357
     RDKit          3D

 19 19  0  0  0  0  0  0  0  0999 V2000
   12.6960    5.8860   22.3410 C   0  0  0  0  0  0  0  0  0  0  0  0
   12.2230    4.8180   23.1510 O   0  0  0  0  0  0  0  0  0  0  0  0
   12.4880    3.5690   22.5110 C   0  0  0  0  0  0  0  0  0  0  0  0
   11.3970    2.5650   23.0260 C   0  0  0  0  0  0  0  0  0  0  0  0
   11.9140    1.2570   23.4410 N   0  0  0  0  0  0  0  0  0  0  0  0
   13.0670    0.7810   22.8830 C   0  0  0  0  0  0  0  0  0  0  0  0
   11.2340    0.5470   24.3610 C   0  0  0  0  0  0  0  0  0  0  0  0
   10.4440   -0.5100   23.9880 C   0  0  0  0  0  0  0  0  0  0  0  0
   10.2460   -0.7580   22.5000 C   0  0  0  0  0  0  0  0  0  0  0  0
    8.8560   -1.0130   22.4000 N   0  0  0  0  0  0  0  0  0  0  0  0
    8.2570   -0.1920   21.4570 C   0  0  0  0  0  0  0  0  0  0  0  0
    8.7140    1.1330   21.0850 O   0  0  0  0  0  0  0  0  0  0  0  0
    7.1530   -0.7510   20.9180 N   0  0  0  0  0  0  0  0  0  0  0  0
    6.4580   -0.0300   20.0250 C   0  0  0  0  0  0  0  0  0  0  0  0
    5.1850    0.7480   20.3160 C   0  0  0  0  0  0  0  0  0  0  0  0
    4.5080    1.5230   19.2030 C   0  0  0  0  0  0  0  0  0  0  0  0
    5.2560    1.3940   17.8900 C   0  0  0  0  0  0  0  0  0  0  0  0
    6.3780    0.6820   17.7040 N   0  0  0  0  0  0  0  0  0  0  0  0
    6.9300    0.0130   18.7290 C   0  0  0  0  0  0  0  0  0  0  0  0
  1  2  1  0
  2  3  1  0
  3  4  1  0
  4  5  1  0
  5  6  1  0
  5  7  1  0
  7  8  1  0
  8  9  1  0
  9 10  1  0
 10 11  1  0
 11 12  2  0
 11 13  1  0
 13 14  1  0
 14 15  2  0
 15 16  1  0
 16 17  2  0
 17 18  1  0
 14 19  1  0
 18 19  2  0
M  END
