pyridine_urea_1972
     RDKit          3D

 30 33  0  0  0  0  0  0  0  0999 V2000
    8.7610    0.9640   21.3170 O   0  0  0  0  0  0  0  0  0  0  0  0
    8.4580   -0.2190   21.3110 C   0  0  0  0  0  0  0  0  0  0  0  0
    7.2320   -0.7120   20.9610 N   0  0  0  0  0  0  0  0  0  0  0  0
    6.4350   -0.0150   20.0580 C   0  0  0  0  0  0  0  0  0  0  0  0
    5.1170    0.6900   20.4050 C   0  0  0  0  0  0  0  0  0  0  0  0
    4.4680    1.3990   19.2190 C   0  0  0  0  0  0  0  0  0  0  0  0
    5.1690    1.3260   17.9010 C   0  0  0  0  0  0  0  0  0  0  0  0
    6.3210    0.6670   17.7170 N   0  0  0  0  0  0  0  0  0  0  0  0
    6.9000    0.0370   18.7570 C   0  0  0  0  0  0  0  0  0  0  0  0
    9.3550   -1.1980   21.6350 N   0  0  0  0  0  0  0  0  0  0  0  0
   10.2270   -0.9380   22.7450 C   0  0  2  0  0  0  0  0  0  0  0  0
    9.4570   -0.8430   23.8690 C   0  0  0  0  0  0  0  0  0  0  0  0
   10.1780   -0.2390   24.9200 C   0  0  0  0  0  0  0  0  0  0  0  0
    9.1270   -0.2900   25.8710 C   0  0  0  0  0  0  0  0  0  0  0  0
    7.7890   -0.7490   25.8940 C   0  0  0  0  0  0  0  0  0  0  0  0
    6.9070   -0.5690   27.3590 Cl  0  0  0  0  0  0  0  0  0  0  0  0
    7.1390   -1.3340   24.8300 C   0  0  0  0  0  0  0  0  0  0  0  0
    8.1450   -1.3480   23.7410 C   0  0  0  0  0  0  0  0  0  0  0  0
   10.9020    0.2480   22.7680 C   0  0  0  0  0  0  0  0  0  0  0  0
   12.1450    0.4710   22.7510 C   0  0  0  0  0  0  0  0  0  0  0  0
   13.1070   -0.3360   22.7130 C   0  0  0  0  0  0  0  0  0  0  0  0
   13.2120    1.0460   22.7230 C   0  0  0  0  0  0  0  0  0  0  0  0
   11.8160    1.9150   22.7820 C   0  0  0  0  0  0  0  0  0  0  0  0
   12.0960    3.4120   22.7930 C   0  0  0  0  0  0  0  0  0  0  0  0
   11.1950    4.3280   23.3320 C   0  0  0  0  0  0  0  0  0  0  0  0
   11.4780    5.6960   23.3250 C   0  0  0  0  0  0  0  0  0  0  0  0
   12.6720    6.1530   22.7730 C   0  0  0  0  0  0  0  0  0  0  0  0
   13.5640    5.2390   22.2370 C   0  0  0  0  0  0  0  0  0  0  0  0
   13.2800    3.8900   22.2500 C   0  0  0  0  0  0  0  0  0  0  0  0
   10.3790    1.4930   22.8150 C   0  0  0  0  0  0  0  0  0  0  0  0
  1  2  2  0
  2  3  1  0
  3  4  1  0
  4  5  2  0
  5  6  1  0
  6  7  2  0
  7  8  1  0
  4  9  1  0
  8  9  2  0
  2 10  1  0
 11 10  1  6
 11 12  1  0
 12 13  2  0
 13 14  1  0
 14 15  2  0
 15 16  1  0
 15 17  1  0
 12 18  1  0
 17 18  2  0
 11 19  1  0
 19 20  2  0
 20 21  1  0
 21 22  2  0
 22 23  1  0
 23 24  1  0
 24 25  2  0
 25 26  1  0
 26 27  2  0
 27 28  1  0
 24 29  1  0
 28 29  2  0
 19 30  1  0
 23 30  2  0
M  END
