pyridine_urea_6120
     RDKit          3D

 25 27  0  0  0  0  0  0  0  0999 V2000
    8.3840    0.5750   20.9790 O   0  0  0  0  0  0  0  0  0  0  0  0
    7.9700   -0.4630   21.4770 C   0  0  0  0  0  0  0  0  0  0  0  0
    6.8030   -1.0040   21.0480 N   0  0  0  0  0  0  0  0  0  0  0  0
    6.2610   -0.2130   19.9670 C   0  0  0  0  0  0  0  0  0  0  0  0
    4.9690    0.5460   20.2440 C   0  0  0  0  0  0  0  0  0  0  0  0
    4.4710    1.3570   19.0960 C   0  0  0  0  0  0  0  0  0  0  0  0
    5.1950    1.3560   17.9180 C   0  0  0  0  0  0  0  0  0  0  0  0
    6.3330    0.6600   17.7240 N   0  0  0  0  0  0  0  0  0  0  0  0
    6.8340   -0.0930   18.7270 C   0  0  0  0  0  0  0  0  0  0  0  0
    8.6420   -1.1050   22.4830 N   0  0  0  0  0  0  0  0  0  0  0  0
    9.7770   -0.2490   22.7460 C   0  0  1  0  0  0  0  0  0  0  0  0
    9.3780    0.8900   23.3150 C   0  0  0  0  0  0  0  0  0  0  0  0
   10.6140    1.6850   23.6130 C   0  0  0  0  0  0  0  0  0  0  0  0
   10.4810    2.9800   24.1540 C   0  0  0  0  0  0  0  0  0  0  0  0
    9.1990    3.5200   24.4280 C   0  0  0  0  0  0  0  0  0  0  0  0
    9.0880    4.7690   24.9330 F   0  0  0  0  0  0  0  0  0  0  0  0
    8.0600    2.7810   24.1830 C   0  0  0  0  0  0  0  0  0  0  0  0
    8.1140    1.4090   23.6050 C   0  0  0  0  0  0  0  0  0  0  0  0
   11.1150   -0.9170   22.9740 C   0  0  0  0  0  0  0  0  0  0  0  0
   12.6170   -0.6900   23.0650 C   0  0  0  0  0  0  0  0  0  0  0  0
   13.6690    0.2440   23.0180 C   0  0  0  0  0  0  0  0  0  0  0  0
   12.9800    1.3920   22.8350 C   0  0  0  0  0  0  0  0  0  0  0  0
   11.6960    1.5310   22.7230 C   0  0  0  0  0  0  0  0  0  0  0  0
   11.1170    3.1510   22.4860 Cl  0  0  0  0  0  0  0  0  0  0  0  0
   10.8690    0.4650   22.7790 C   0  0  0  0  0  0  0  0  0  0  0  0
  1  2  2  0
  2  3  1  0
  3  4  1  0
  4  5  2  0
  5  6  1  0
  6  7  2  0
  7  8  1  0
  4  9  1  0
  8  9  2  0
  2 10  1  0
 11 10  1  1
 11 12  1  0
 12 13  2  0
 13 14  1  0
 14 15  2  0
 15 16  1  0
 15 17  1  0
 12 18  1  0
 17 18  2  0
 11 19  1  0
 19 20  2  0
 20 21  1  0
 21 22  2  0
 22 23  1  0
 23 24  1  0
 19 25  1  0
 23 25  2  0
M  END
