pyridine_urea_10993
     RDKit          3D

 19 20  0  0  0  0  0  0  0  0999 V2000
   13.0730   -2.4540   21.2340 C   0  0  0  0  0  0  0  0  0  0  0  0
   13.2290   -2.5440   22.7320 C   0  0  0  0  0  0  0  0  0  0  0  0
   11.6560   -2.6160   23.5750 S   0  0  0  0  0  0  0  0  0  0  0  0
   11.4250   -1.1470   22.6530 C   0  0  2  0  0  0  0  0  0  0  0  0
   12.5730   -0.3530   22.7410 C   0  0  0  0  0  0  0  0  0  0  0  0
   12.5720    0.7510   23.5610 C   0  0  0  0  0  0  0  0  0  0  0  0
   11.2890    1.4260   23.9050 C   0  0  0  0  0  0  0  0  0  0  0  0
   10.1230    0.8930   23.1460 C   0  0  0  0  0  0  0  0  0  0  0  0
   10.2050   -0.6110   23.0570 C   0  0  1  0  0  0  0  0  0  0  0  0
    9.1720   -1.1120   22.1610 N   0  0  0  0  0  0  0  0  0  0  0  0
    8.4380   -0.1700   21.4680 C   0  0  0  0  0  0  0  0  0  0  0  0
    8.8630    0.9450   21.2210 O   0  0  0  0  0  0  0  0  0  0  0  0
    7.1980   -0.6060   21.0830 N   0  0  0  0  0  0  0  0  0  0  0  0
    6.4900    0.0060   20.0410 C   0  0  0  0  0  0  0  0  0  0  0  0
    5.3230    0.7160   20.3210 C   0  0  0  0  0  0  0  0  0  0  0  0
    4.6250    1.3470   19.3050 C   0  0  0  0  0  0  0  0  0  0  0  0
    5.1260    1.2450   18.0250 C   0  0  0  0  0  0  0  0  0  0  0  0
    6.2390    0.5630   17.7210 N   0  0  0  0  0  0  0  0  0  0  0  0
    6.8960   -0.0410   18.7290 C   0  0  0  0  0  0  0  0  0  0  0  0
  1  2  1  0
  2  3  1  0
  4  3  1  1
  4  5  1  0
  5  6  1  0
  6  7  1  0
  7  8  1  0
  4  9  1  0
  8  9  1  0
  9 10  1  6
 10 11  1  0
 11 12  2  0
 11 13  1  0
 13 14  1  0
 14 15  2  0
 15 16  1  0
 16 17  2  0
 17 18  1  0
 14 19  1  0
 18 19  2  0
M  END
