pyridine_urea_14715
     RDKit          3D

 20 22  0  0  0  0  0  0  0  0999 V2000
   13.2320   -2.8980   25.0080 C   0  0  0  0  0  0  0  0  0  0  0  0
   13.5320   -2.5070   23.5660 C   0  0  0  0  0  0  0  0  0  0  0  0
   12.4330   -2.5940   22.6700 O   0  0  0  0  0  0  0  0  0  0  0  0
   11.7400   -1.4500   22.3690 C   0  0  1  0  0  0  0  0  0  0  0  0
   10.4960   -1.4790   21.8040 C   0  0  0  0  0  0  0  0  0  0  0  0
    9.9230   -1.0910   22.9210 C   0  0  2  0  0  0  0  0  0  0  0  0
    9.0540   -0.0070   22.9650 N   0  0  0  0  0  0  0  0  0  0  0  0
    8.5020    0.4250   21.6550 C   0  0  0  0  0  0  0  0  0  0  0  0
    8.9730    1.4390   21.1230 O   0  0  0  0  0  0  0  0  0  0  0  0
    7.4670   -0.2900   21.0920 N   0  0  0  0  0  0  0  0  0  0  0  0
    6.6430    0.2280   20.1260 C   0  0  0  0  0  0  0  0  0  0  0  0
    5.4840    0.9770   20.3720 C   0  0  0  0  0  0  0  0  0  0  0  0
    4.7310    1.4790   19.3090 C   0  0  0  0  0  0  0  0  0  0  0  0
    5.1560    1.2200   18.0250 C   0  0  0  0  0  0  0  0  0  0  0  0
    6.2310    0.5130   17.6870 N   0  0  0  0  0  0  0  0  0  0  0  0
    6.9840    0.0070   18.8050 C   0  0  0  0  0  0  0  0  0  0  0  0
   11.1540   -0.8470   23.5620 C   0  0  0  0  0  0  0  0  0  0  0  0
   11.4760   -1.2660   24.8110 C   0  0  0  0  0  0  0  0  0  0  0  0
   12.4400   -0.3630   24.8460 C   0  0  0  0  0  0  0  0  0  0  0  0
   11.8190    0.5140   23.9530 C   0  0  0  0  0  0  0  0  0  0  0  0
  1  2  1  0
  2  3  1  0
  4  3  1  1
  4  5  1  0
  5  6  1  0
  6  7  1  6
  7  8  1  0
  8  9  2  0
  8 10  1  0
 10 11  1  0
 11 12  2  0
 12 13  1  0
 13 14  2  0
 14 15  1  0
 11 16  1  0
 15 16  2  0
  4 17  1  0
  6 17  1  0
 17 18  1  0
 18 19  1  0
 17 20  1  0
 19 20  1  0
M  END
