pyridine_urea_11550
     RDKit          3D

 18 20  0  0  0  0  0  0  0  0999 V2000
   13.4890   -2.3510   23.8560 C   0  0  0  0  0  0  0  0  0  0  0  0
   12.8250   -1.3070   23.0070 C   0  0  0  0  0  0  0  0  0  0  0  0
   13.4280   -0.2450   22.3990 C   0  0  0  0  0  0  0  0  0  0  0  0
   11.9520   -0.5870   23.9430 C   0  0  0  0  0  0  0  0  0  0  0  0
   11.0730   -0.7480   23.0080 C   0  0  0  0  0  0  0  0  0  0  0  0
   10.4030    0.2480   22.6770 C   0  0  0  0  0  0  0  0  0  0  0  0
    9.5620   -0.6540   23.4250 C   0  0  1  0  0  0  0  0  0  0  0  0
    8.5000   -1.1240   22.5980 N   0  0  0  0  0  0  0  0  0  0  0  0
    8.0820   -0.2670   21.6160 C   0  0  0  0  0  0  0  0  0  0  0  0
    8.6730    0.7680   21.3300 O   0  0  0  0  0  0  0  0  0  0  0  0
    6.8720   -0.7180   20.9910 N   0  0  0  0  0  0  0  0  0  0  0  0
    6.3030   -0.0410   19.9740 C   0  0  0  0  0  0  0  0  0  0  0  0
    5.1050    0.6470   20.1980 C   0  0  0  0  0  0  0  0  0  0  0  0
    4.5630    1.3430   19.1300 C   0  0  0  0  0  0  0  0  0  0  0  0
    5.1990    1.3420   17.9090 C   0  0  0  0  0  0  0  0  0  0  0  0
    6.3400    0.6860   17.6740 N   0  0  0  0  0  0  0  0  0  0  0  0
    6.8610    0.0100   18.7130 C   0  0  0  0  0  0  0  0  0  0  0  0
   11.7190   -1.7120   22.2000 C   0  0  0  0  0  0  0  0  0  0  0  0
  2  1  1  0
  2  3  1  0
  2  4  1  0
  5  4  1  0
  5  6  1  0
  5  7  1  0
  6  7  1  0
  7  8  1  6
  8  9  1  0
  9 10  2  0
  9 11  1  0
 11 12  1  0
 12 13  2  0
 13 14  1  0
 14 15  2  0
 15 16  1  0
 12 17  1  0
 16 17  2  0
  2 18  1  0
  5 18  1  0
M  END
