pyridine_urea_5547
     RDKit          3D

 16 17  0  0  0  0  0  0  0  0999 V2000
   13.4180   -2.6550   24.8880 C   0  0  0  0  0  0  0  0  0  0  0  0
   12.1090   -2.1990   24.5600 O   0  0  0  0  0  0  0  0  0  0  0  0
   12.1430   -0.9680   23.8210 C   0  0  1  0  0  0  0  0  0  0  0  0
   11.6160   -1.2910   22.4530 C   0  0  0  0  0  0  0  0  0  0  0  0
   10.6270   -0.3530   22.6080 C   0  0  1  0  0  0  0  0  0  0  0  0
    9.2640   -0.6140   22.3720 N   0  0  0  0  0  0  0  0  0  0  0  0
    8.4340    0.0300   21.4870 C   0  0  0  0  0  0  0  0  0  0  0  0
    8.6930    1.3150   21.0630 O   0  0  0  0  0  0  0  0  0  0  0  0
    7.3500   -0.6720   21.0710 N   0  0  0  0  0  0  0  0  0  0  0  0
    6.6100   -0.0340   20.1300 C   0  0  0  0  0  0  0  0  0  0  0  0
    5.3310    0.7810   20.3910 C   0  0  0  0  0  0  0  0  0  0  0  0
    4.5240    1.5070   19.3100 C   0  0  0  0  0  0  0  0  0  0  0  0
    5.2060    1.2810   17.9760 C   0  0  0  0  0  0  0  0  0  0  0  0
    6.3340    0.5460   17.7910 N   0  0  0  0  0  0  0  0  0  0  0  0
    7.0240   -0.1020   18.8160 C   0  0  0  0  0  0  0  0  0  0  0  0
   11.0750   -0.0450   24.0880 C   0  0  0  0  0  0  0  0  0  0  0  0
  1  2  1  0
  3  2  1  1
  3  4  1  0
  4  5  1  0
  5  6  1  1
  6  7  1  0
  7  8  2  0
  7  9  1  0
  9 10  1  0
 10 11  2  0
 11 12  1  0
 12 13  2  0
 13 14  1  0
 10 15  1  0
 14 15  2  0
  3 16  1  0
  5 16  1  0
M  END
