pyridine_urea_1800
     RDKit          3D

 17 18  0  0  0  0  0  0  0  0999 V2000
   11.3510   -0.2420   25.0300 C   0  0  0  0  0  0  0  0  0  0  0  0
   10.9930   -1.2360   24.0270 C   0  0  1  0  0  0  0  0  0  0  0  0
   10.6700   -0.7070   22.8120 C   0  0  2  0  0  0  0  0  0  0  0  0
    9.3460   -0.8970   22.3120 N   0  0  0  0  0  0  0  0  0  0  0  0
    8.6370    0.0230   21.5300 C   0  0  0  0  0  0  0  0  0  0  0  0
    9.0400    1.1560   21.2370 O   0  0  0  0  0  0  0  0  0  0  0  0
    7.4080   -0.4820   21.1110 N   0  0  0  0  0  0  0  0  0  0  0  0
    6.6280    0.0950   20.0870 C   0  0  0  0  0  0  0  0  0  0  0  0
    5.4650    0.7970   20.4480 C   0  0  0  0  0  0  0  0  0  0  0  0
    4.6820    1.3940   19.4650 C   0  0  0  0  0  0  0  0  0  0  0  0
    5.1620    1.2360   18.0280 C   0  0  0  0  0  0  0  0  0  0  0  0
    6.2650    0.5560   17.7210 N   0  0  0  0  0  0  0  0  0  0  0  0
    6.9600    0.0080   18.7440 C   0  0  0  0  0  0  0  0  0  0  0  0
   11.7680   -1.0940   22.0720 C   0  0  0  0  0  0  0  0  0  0  0  0
   12.5450   -1.9900   22.7400 C   0  0  0  0  0  0  0  0  0  0  0  0
   12.0250   -2.1320   23.9590 N   0  0  0  0  0  0  0  0  0  0  0  0
   12.9750   -2.1520   24.9340 C   0  0  0  0  0  0  0  0  0  0  0  0
  2  1  1  1
  2  3  1  0
  3  4  1  6
  4  5  1  0
  5  6  2  0
  5  7  1  0
  7  8  1  0
  8  9  2  0
  9 10  1  0
 10 11  2  0
 11 12  1  0
  8 13  1  0
 12 13  2  0
  3 14  1  0
 14 15  1  0
  2 16  1  0
 15 16  1  0
 16 17  1  0
M  END
