pyridine_urea_4527
     RDKit          3D

 23 24  0  0  0  0  0  0  0  0999 V2000
    8.6010    0.7420   21.2010 O   0  0  0  0  0  0  0  0  0  0  0  0
    8.1690   -0.3590   21.5150 C   0  0  0  0  0  0  0  0  0  0  0  0
    8.7660   -1.1950   22.4260 N   0  0  0  0  0  0  0  0  0  0  0  0
   10.1650   -1.5020   22.2340 C   0  0  0  0  0  0  0  0  0  0  0  0
   11.0620   -0.4050   22.7420 C   0  0  0  0  0  0  0  0  0  0  0  0
   10.3460    0.9130   22.7390 C   0  0  0  0  0  0  0  0  0  0  0  0
   11.1610    2.0450   23.0960 N   0  0  0  0  0  0  0  0  0  0  0  0
   12.4790    1.8230   23.3500 C   0  0  0  0  0  0  0  0  0  0  0  0
   13.2400    2.7300   23.2080 O   0  0  0  0  0  0  0  0  0  0  0  0
   12.8610    0.3410   23.5900 C   0  0  0  0  0  0  0  0  0  0  0  0
   12.7950    0.1860   22.2520 C   0  0  0  0  0  0  0  0  0  0  0  0
   12.9990   -0.9930   21.7750 C   0  0  0  0  0  0  0  0  0  0  0  0
   13.2440   -1.9900   22.4670 C   0  0  0  0  0  0  0  0  0  0  0  0
   13.2700   -3.0550   21.0110 Br  0  0  0  0  0  0  0  0  0  0  0  0
   13.3850   -2.0090   23.8270 C   0  0  0  0  0  0  0  0  0  0  0  0
   13.1920   -0.7690   24.4610 C   0  0  0  0  0  0  0  0  0  0  0  0
    7.0060   -0.8770   20.9940 N   0  0  0  0  0  0  0  0  0  0  0  0
    6.3510   -0.1330   20.0810 C   0  0  0  0  0  0  0  0  0  0  0  0
    5.0850    0.6260   20.3320 C   0  0  0  0  0  0  0  0  0  0  0  0
    4.5360    1.3610   19.2860 C   0  0  0  0  0  0  0  0  0  0  0  0
    5.1610    1.4160   17.9490 C   0  0  0  0  0  0  0  0  0  0  0  0
    6.3930    0.6860   17.6640 N   0  0  0  0  0  0  0  0  0  0  0  0
    6.9120   -0.0710   18.8150 C   0  0  0  0  0  0  0  0  0  0  0  0
  1  2  2  0
  2  3  1  0
  3  4  1  0
  4  5  1  0
  5  6  1  0
  6  7  1  0
  7  8  1  0
  8  9  2  0
  8 10  1  0
 10 11  2  0
 11 12  1  0
 12 13  2  0
 13 14  1  0
 13 15  1  0
 10 16  1  0
 15 16  2  0
  2 17  1  0
 17 18  1  0
 18 19  2  0
 19 20  1  0
 20 21  2  0
 21 22  1  0
 18 23  1  0
 22 23  2  0
M  END
