pyridine_urea_8189
     RDKit          3D

 23 25  0  0  0  0  0  0  0  0999 V2000
   13.9390   -2.8730   25.6820 C   0  0  0  0  0  0  0  0  0  0  0  0
   12.5080   -2.9420   25.2660 C   0  0  0  0  0  0  0  0  0  0  0  0
   11.6340   -4.0280   25.9660 C   0  0  0  0  0  0  0  0  0  0  0  0
   10.3080   -4.1600   25.6690 C   0  0  0  0  0  0  0  0  0  0  0  0
    9.7590   -3.2020   24.6310 C   0  0  0  0  0  0  0  0  0  0  0  0
    8.4610   -3.2320   24.2860 N   0  0  0  0  0  0  0  0  0  0  0  0
    7.4290   -4.2150   24.1770 C   0  0  0  0  0  0  0  0  0  0  0  0
    6.2220   -3.4520   23.7130 C   0  0  0  0  0  0  0  0  0  0  0  0
    6.8120   -2.0870   23.6350 C   0  0  0  0  0  0  0  0  0  0  0  0
    6.0530   -0.8850   23.2040 C   0  0  0  0  0  0  0  0  0  0  0  0
    7.0270    0.0840   22.8320 N   0  0  0  0  0  0  0  0  0  0  0  0
    7.8780   -0.0420   21.7560 C   0  0  0  0  0  0  0  0  0  0  0  0
    9.2080    0.4580   21.6130 O   0  0  0  0  0  0  0  0  0  0  0  0
    7.1730   -0.7310   20.8180 N   0  0  0  0  0  0  0  0  0  0  0  0
    6.4930   -0.0300   19.8420 C   0  0  0  0  0  0  0  0  0  0  0  0
    5.1750    0.6420   20.1760 C   0  0  0  0  0  0  0  0  0  0  0  0
    4.5370    1.3480   19.1690 C   0  0  0  0  0  0  0  0  0  0  0  0
    5.1490    1.3990   17.9200 C   0  0  0  0  0  0  0  0  0  0  0  0
    6.3130    0.7990   17.6220 N   0  0  0  0  0  0  0  0  0  0  0  0
    6.9480    0.1030   18.5780 C   0  0  0  0  0  0  0  0  0  0  0  0
    8.0820   -1.9720   23.9640 N   0  0  0  0  0  0  0  0  0  0  0  0
   10.5930   -2.2550   24.0280 C   0  0  0  0  0  0  0  0  0  0  0  0
   11.9400   -2.1120   24.3260 C   0  0  0  0  0  0  0  0  0  0  0  0
  1  2  1  0
  2  3  2  0
  3  4  1  0
  4  5  2  0
  5  6  1  0
  6  7  1  0
  7  8  2  0
  8  9  1  0
  9 10  1  0
 10 11  1  0
 11 12  1  0
 12 13  2  0
 12 14  1  0
 14 15  1  0
 15 16  2  0
 16 17  1  0
 17 18  2  0
 18 19  1  0
 15 20  1  0
 19 20  2  0
  6 21  1  0
  9 21  2  0
  5 22  1  0
  2 23  1  0
 22 23  2  0
M  END
