pyridine_urea_1513
     RDKit          3D

 19 20  0  0  0  0  0  0  0  0999 V2000
   11.6560   -0.7860   22.9090 N   0  0  0  0  0  0  0  0  0  0  0  0
   12.7680   -0.9740   22.7100 C   0  0  0  0  0  0  0  0  0  0  0  0
   13.4330    0.3100   22.6350 C   0  0  0  0  0  0  0  0  0  0  0  0
   12.2250    1.1530   22.8680 C   0  0  0  0  0  0  0  0  0  0  0  0
   10.9630    0.5040   23.0580 C   0  0  0  0  0  0  0  0  0  0  0  0
   10.0130    1.2530   23.2300 O   0  0  0  0  0  0  0  0  0  0  0  0
   10.6330   -0.9290   23.0730 C   0  0  0  0  0  0  0  0  0  0  0  0
    9.3170   -1.2380   23.2790 C   0  0  0  0  0  0  0  0  0  0  0  0
    8.4280   -0.2640   22.9270 N   0  0  0  0  0  0  0  0  0  0  0  0
    8.1860    0.1770   21.6140 C   0  0  0  0  0  0  0  0  0  0  0  0
    8.7680    1.1580   21.1140 O   0  0  0  0  0  0  0  0  0  0  0  0
    7.2520   -0.5650   20.9830 N   0  0  0  0  0  0  0  0  0  0  0  0
    6.5650    0.0560   20.0050 C   0  0  0  0  0  0  0  0  0  0  0  0
    5.4230    0.7800   20.3200 C   0  0  0  0  0  0  0  0  0  0  0  0
    4.7100    1.4340   19.3180 C   0  0  0  0  0  0  0  0  0  0  0  0
    5.1840    1.3300   18.0090 C   0  0  0  0  0  0  0  0  0  0  0  0
    6.2790    0.6280   17.6860 N   0  0  0  0  0  0  0  0  0  0  0  0
    6.9420    0.0100   18.6820 C   0  0  0  0  0  0  0  0  0  0  0  0
   11.7400   -1.7650   22.8630 C   0  0  0  0  0  0  0  0  0  0  0  0
  1  2  1  0
  2  3  2  0
  3  4  1  0
  4  5  2  0
  5  6  1  0
  5  7  1  0
  7  8  1  0
  8  9  1  0
  9 10  1  0
 10 11  2  0
 10 12  1  0
 12 13  1  0
 13 14  2  0
 14 15  1  0
 15 16  2  0
 16 17  1  0
 13 18  1  0
 17 18  2  0
  2 19  1  0
  7 19  2  0
M  END
