pyridine_urea_643
     RDKit          3D

 24 26  0  0  0  0  0  0  0  0999 V2000
    8.8430    0.8790   21.3030 O   0  0  0  0  0  0  0  0  0  0  0  0
    8.4080   -0.2610   21.3880 C   0  0  0  0  0  0  0  0  0  0  0  0
    7.1310   -0.6250   21.0130 N   0  0  0  0  0  0  0  0  0  0  0  0
    6.3920    0.0510   20.0430 C   0  0  0  0  0  0  0  0  0  0  0  0
    5.1990    0.7390   20.2510 C   0  0  0  0  0  0  0  0  0  0  0  0
    4.5820    1.3870   19.1820 C   0  0  0  0  0  0  0  0  0  0  0  0
    5.1830    1.3230   17.9390 C   0  0  0  0  0  0  0  0  0  0  0  0
    6.3270    0.6600   17.7150 N   0  0  0  0  0  0  0  0  0  0  0  0
    6.8940    0.0460   18.7600 C   0  0  0  0  0  0  0  0  0  0  0  0
    9.1180   -1.3340   21.8690 N   0  0  0  0  0  0  0  0  0  0  0  0
    9.8980   -1.3010   23.0250 C   0  0  1  0  0  0  0  0  0  0  0  0
   11.2090   -1.0310   22.7220 C   0  0  0  0  0  0  0  0  0  0  0  0
   12.0870   -1.7170   22.0230 C   0  0  0  0  0  0  0  0  0  0  0  0
   13.2660   -0.9100   22.0470 C   0  0  0  0  0  0  0  0  0  0  0  0
   13.3620    0.4150   22.7600 C   0  0  0  0  0  0  0  0  0  0  0  0
   12.1950    1.0240   23.5370 C   0  0  0  0  0  0  0  0  0  0  0  0
   12.1030   -0.1000   22.9320 C   0  0  0  0  0  0  0  0  0  0  0  0
    9.4240   -0.5870   24.1310 C   0  0  0  0  0  0  0  0  0  0  0  0
    8.2110    0.0980   23.9690 C   0  0  0  0  0  0  0  0  0  0  0  0
    7.6420    0.7890   25.0260 C   0  0  0  0  0  0  0  0  0  0  0  0
    8.2470    0.8150   26.2630 C   0  0  0  0  0  0  0  0  0  0  0  0
    9.4390    0.1490   26.4280 C   0  0  0  0  0  0  0  0  0  0  0  0
   10.0120    0.1700   27.6350 F   0  0  0  0  0  0  0  0  0  0  0  0
   10.0730   -0.5590   25.3720 C   0  0  0  0  0  0  0  0  0  0  0  0
  1  2  2  0
  2  3  1  0
  3  4  1  0
  4  5  2  0
  5  6  1  0
  6  7  2  0
  7  8  1  0
  4  9  1  0
  8  9  2  0
  2 10  1  0
 11 10  1  6
 11 12  1  0
 12 13  2  0
 13 14  1  0
 14 15  2  0
 15 16  1  0
 12 17  1  0
 16 17  2  0
 11 18  1  0
 18 19  2  0
 19 20  1  0
 20 21  2  0
 21 22  1  0
 22 23  1  0
 18 24  1  0
 22 24  2  0
M  END
