pyridine_urea_6405
     RDKit          3D

 23 24  0  0  0  0  0  0  0  0999 V2000
   13.3390   -2.6220   21.3480 C   0  0  0  0  0  0  0  0  0  0  0  0
   13.1030   -1.8620   22.1750 C   0  0  0  0  0  0  0  0  0  0  0  0
   13.2100   -0.6200   23.0420 C   0  0  0  0  0  0  0  0  0  0  0  0
   11.7290   -1.7380   21.5860 C   0  0  0  0  0  0  0  0  0  0  0  0
   12.7740   -2.7590   23.2860 N   0  0  0  0  0  0  0  0  0  0  0  0
   11.5230   -2.3400   23.6190 C   0  0  0  0  0  0  0  0  0  0  0  0
   10.4090   -3.0570   24.2020 O   0  0  0  0  0  0  0  0  0  0  0  0
   11.3210   -0.8660   23.2660 C   0  0  0  0  0  0  0  0  0  0  0  0
   12.5470   -0.0630   23.4470 C   0  0  0  0  0  0  0  0  0  0  0  0
   12.7180    1.2420   23.2100 C   0  0  0  0  0  0  0  0  0  0  0  0
   11.4250    1.7830   22.7370 C   0  0  0  0  0  0  0  0  0  0  0  0
   10.2590    1.0740   22.5550 C   0  0  0  0  0  0  0  0  0  0  0  0
   10.1830   -0.2510   22.8000 C   0  0  0  0  0  0  0  0  0  0  0  0
    8.9620   -0.7890   22.5250 N   0  0  0  0  0  0  0  0  0  0  0  0
    8.2290   -0.1340   21.5050 C   0  0  0  0  0  0  0  0  0  0  0  0
    8.6050    1.1780   20.9890 O   0  0  0  0  0  0  0  0  0  0  0  0
    7.1620   -0.8330   21.0790 N   0  0  0  0  0  0  0  0  0  0  0  0
    6.4800   -0.1460   20.1400 C   0  0  0  0  0  0  0  0  0  0  0  0
    5.2160    0.6280   20.3400 C   0  0  0  0  0  0  0  0  0  0  0  0
    4.5750    1.3620   19.2010 C   0  0  0  0  0  0  0  0  0  0  0  0
    5.1980    1.2990   17.9540 C   0  0  0  0  0  0  0  0  0  0  0  0
    6.3370    0.6050   17.7340 N   0  0  0  0  0  0  0  0  0  0  0  0
    6.9660   -0.1190   18.8440 C   0  0  0  0  0  0  0  0  0  0  0  0
  1  2  1  0
  2  3  1  0
  2  4  1  0
  2  5  1  0
  5  6  1  0
  6  7  2  0
  6  8  1  0
  8  9  2  0
  9 10  1  0
 10 11  2  0
 11 12  1  0
  8 13  1  0
 12 13  2  0
 13 14  1  0
 14 15  1  0
 15 16  2  0
 15 17  1  0
 17 18  1  0
 18 19  2  0
 19 20  1  0
 20 21  2  0
 21 22  1  0
 18 23  1  0
 22 23  2  0
M  END
