pyridine_urea_6362
     RDKit          3D

 23 25  0  0  0  0  0  0  0  0999 V2000
    8.6310    1.2510   21.0340 O   0  0  0  0  0  0  0  0  0  0  0  0
    8.3380    0.0940   21.3500 C   0  0  0  0  0  0  0  0  0  0  0  0
    7.1180   -0.4770   21.0930 N   0  0  0  0  0  0  0  0  0  0  0  0
    6.4480    0.1280   19.9850 C   0  0  0  0  0  0  0  0  0  0  0  0
    5.1640    0.8780   20.3010 C   0  0  0  0  0  0  0  0  0  0  0  0
    4.5290    1.5120   19.1180 C   0  0  0  0  0  0  0  0  0  0  0  0
    5.1380    1.3680   17.8860 C   0  0  0  0  0  0  0  0  0  0  0  0
    6.2710    0.6810   17.6680 N   0  0  0  0  0  0  0  0  0  0  0  0
    6.8910    0.0850   18.6930 C   0  0  0  0  0  0  0  0  0  0  0  0
    9.1790   -0.7590   21.9890 N   0  0  0  0  0  0  0  0  0  0  0  0
    9.6090   -0.4260   23.3430 C   0  0  1  0  0  0  0  0  0  0  0  0
   10.0150   -1.5760   23.9120 C   0  0  0  0  0  0  0  0  0  0  0  0
   11.0360   -0.7810   24.6800 C   0  0  0  0  0  0  0  0  0  0  0  0
   11.7090   -0.1250   23.8000 N   0  0  0  0  0  0  0  0  0  0  0  0
   12.2360   -1.1180   23.0910 C   0  0  0  0  0  0  0  0  0  0  0  0
   11.8950   -1.5260   21.8230 C   0  0  0  0  0  0  0  0  0  0  0  0
   12.4990   -2.5620   21.0870 C   0  0  0  0  0  0  0  0  0  0  0  0
   13.6480   -3.5160   21.4210 C   0  0  0  0  0  0  0  0  0  0  0  0
   14.7930   -4.9740   20.6050 Br  0  0  0  0  0  0  0  0  0  0  0  0
   13.7890   -2.9160   22.8530 C   0  0  0  0  0  0  0  0  0  0  0  0
   13.1880   -1.8420   23.6430 C   0  0  0  0  0  0  0  0  0  0  0  0
   10.7520    0.6130   23.2880 C   0  0  0  0  0  0  0  0  0  0  0  0
   10.7010    1.8980   22.8360 O   0  0  0  0  0  0  0  0  0  0  0  0
  1  2  2  0
  2  3  1  0
  3  4  1  0
  4  5  2  0
  5  6  1  0
  6  7  2  0
  7  8  1  0
  4  9  1  0
  8  9  2  0
  2 10  1  0
 11 10  1  6
 11 12  1  0
 12 13  1  0
 13 14  1  0
 14 15  1  0
 15 16  2  0
 16 17  1  0
 17 18  2  0
 18 19  1  0
 18 20  1  0
 15 21  1  0
 20 21  2  0
 11 22  1  0
 14 22  1  0
 22 23  2  0
M  END
