pyridine_urea_15277
     RDKit          3D

 17 18  0  0  0  0  0  0  0  0999 V2000
   13.0410    0.9610   23.0750 C   0  0  0  0  0  0  0  0  0  0  0  0
   12.6990   -0.3590   22.4560 C   0  0  0  0  0  0  0  0  0  0  0  0
   13.6250   -1.1460   21.7050 O   0  0  0  0  0  0  0  0  0  0  0  0
   12.8840   -2.3630   21.2690 N   0  0  0  0  0  0  0  0  0  0  0  0
   11.5950   -2.2070   21.7780 C   0  0  0  0  0  0  0  0  0  0  0  0
   11.3660   -0.9790   22.5550 C   0  0  0  0  0  0  0  0  0  0  0  0
   10.0900   -0.5310   23.2400 C   0  0  0  0  0  0  0  0  0  0  0  0
    8.9120   -0.7520   22.5150 N   0  0  0  0  0  0  0  0  0  0  0  0
    8.4210    0.0690   21.5260 C   0  0  0  0  0  0  0  0  0  0  0  0
    8.9160    1.1600   21.2090 O   0  0  0  0  0  0  0  0  0  0  0  0
    7.2940   -0.4990   20.9660 N   0  0  0  0  0  0  0  0  0  0  0  0
    6.4920    0.1370   20.0190 C   0  0  0  0  0  0  0  0  0  0  0  0
    5.3180    0.8470   20.2810 C   0  0  0  0  0  0  0  0  0  0  0  0
    4.6320    1.4490   19.2310 C   0  0  0  0  0  0  0  0  0  0  0  0
    5.1440    1.3170   17.9610 C   0  0  0  0  0  0  0  0  0  0  0  0
    6.2610    0.6320   17.6800 N   0  0  0  0  0  0  0  0  0  0  0  0
    6.8990    0.0650   18.7120 C   0  0  0  0  0  0  0  0  0  0  0  0
  1  2  1  0
  2  3  1  0
  3  4  1  0
  4  5  2  0
  2  6  2  0
  5  6  1  0
  6  7  1  0
  7  8  1  0
  8  9  1  0
  9 10  2  0
  9 11  1  0
 11 12  1  0
 12 13  2  0
 13 14  1  0
 14 15  2  0
 15 16  1  0
 12 17  1  0
 16 17  2  0
M  END
