pyridine_urea_3836
     RDKit          3D

 17 19  0  0  0  0  0  0  0  0999 V2000
    8.6490    0.8820   21.4540 O   0  0  0  0  0  0  0  0  0  0  0  0
    8.3140   -0.2940   21.5390 C   0  0  0  0  0  0  0  0  0  0  0  0
    7.1400   -0.7900   21.0440 N   0  0  0  0  0  0  0  0  0  0  0  0
    6.4630   -0.1080   20.0220 C   0  0  0  0  0  0  0  0  0  0  0  0
    5.2750    0.5760   20.3010 C   0  0  0  0  0  0  0  0  0  0  0  0
    4.6120    1.2690   19.2810 C   0  0  0  0  0  0  0  0  0  0  0  0
    5.1670    1.2490   18.0180 C   0  0  0  0  0  0  0  0  0  0  0  0
    6.3000    0.5940   17.7310 N   0  0  0  0  0  0  0  0  0  0  0  0
    6.9180   -0.0650   18.7270 C   0  0  0  0  0  0  0  0  0  0  0  0
    9.1450   -1.2030   22.1430 N   0  0  0  0  0  0  0  0  0  0  0  0
   10.4840   -0.6610   22.2650 C   0  0  2  0  0  0  0  0  0  0  0  0
   11.7030   -1.5050   21.9810 C   0  0  0  0  0  0  0  0  0  0  0  0
   12.6680   -0.8040   22.7490 C   0  0  2  0  0  0  0  0  0  0  0  0
   12.6240   -1.2430   24.0600 C   0  0  0  0  0  0  0  0  0  0  0  0
   11.2580   -1.2000   24.2650 C   0  0  0  0  0  0  0  0  0  0  0  0
   10.9260   -0.1760   23.4230 C   0  0  1  0  0  0  0  0  0  0  0  0
   12.1520    0.3370   23.0300 O   0  0  0  0  0  0  0  0  0  0  0  0
  1  2  2  0
  2  3  1  0
  3  4  1  0
  4  5  2  0
  5  6  1  0
  6  7  2  0
  7  8  1  0
  4  9  1  0
  8  9  2  0
  2 10  1  0
 11 10  1  1
 11 12  1  0
 13 12  1  6
 13 14  1  0
 14 15  1  0
 11 16  1  0
 16 15  1  1
 13 17  1  0
 16 17  1  0
M  END
