pyridine_urea_8753
     RDKit          3D

 20 22  0  0  0  0  0  0  0  0999 V2000
   11.8870   -2.2330   21.5070 C   0  0  0  0  0  0  0  0  0  0  0  0
   11.6990   -1.3240   22.6590 C   0  0  1  0  0  0  0  0  0  0  0  0
   10.4830   -0.6260   22.7820 C   0  0  0  0  0  0  0  0  0  0  0  0
    9.3590   -1.1730   22.0180 N   0  0  0  0  0  0  0  0  0  0  0  0
    8.4920   -0.2520   21.4410 C   0  0  0  0  0  0  0  0  0  0  0  0
    8.7940    0.9210   21.2780 O   0  0  0  0  0  0  0  0  0  0  0  0
    7.1940   -0.8190   21.0460 N   0  0  0  0  0  0  0  0  0  0  0  0
    6.5070   -0.1310   20.0680 C   0  0  0  0  0  0  0  0  0  0  0  0
    5.2300    0.6240   20.4120 C   0  0  0  0  0  0  0  0  0  0  0  0
    4.5740    1.3180   19.3990 C   0  0  0  0  0  0  0  0  0  0  0  0
    5.2080    1.2610   18.0060 C   0  0  0  0  0  0  0  0  0  0  0  0
    6.3390    0.5740   17.7510 N   0  0  0  0  0  0  0  0  0  0  0  0
    6.9480   -0.0930   18.7620 C   0  0  0  0  0  0  0  0  0  0  0  0
   11.8040   -2.1890   23.9030 C   0  0  0  0  0  0  0  0  0  0  0  0
   12.9990   -1.9440   24.5300 C   0  0  0  0  0  0  0  0  0  0  0  0
   13.2320   -0.7860   24.2460 O   0  0  0  0  0  0  0  0  0  0  0  0
   12.7010   -0.3850   22.9680 C   0  0  2  0  0  0  0  0  0  0  0  0
   12.3550    0.9570   23.0820 C   0  0  0  0  0  0  0  0  0  0  0  0
   11.1210    1.2860   22.9670 C   0  0  0  0  0  0  0  0  0  0  0  0
   11.1940    1.1990   24.2400 C   0  0  0  0  0  0  0  0  0  0  0  0
  2  1  1  6
  2  3  1  0
  3  4  1  0
  4  5  1  0
  5  6  2  0
  5  7  1  0
  7  8  1  0
  8  9  2  0
  9 10  1  0
 10 11  2  0
 11 12  1  0
  8 13  1  0
 12 13  2  0
  2 14  1  0
 14 15  1  0
 15 16  1  0
  2 17  1  0
 16 17  1  0
 17 18  1  1
 18 19  1  0
 18 20  1  0
 19 20  1  0
M  END
