pyridine_urea_11463
     RDKit          3D

 20 21  0  0  0  0  0  0  0  0999 V2000
   10.4930    3.4150   22.2690 C   0  0  0  0  0  0  0  0  0  0  0  0
    9.7110    2.2910   21.8630 O   0  0  0  0  0  0  0  0  0  0  0  0
    9.3600    1.5320   23.0300 C   0  0  0  0  0  0  0  0  0  0  0  0
    8.7090    2.0030   23.9550 O   0  0  0  0  0  0  0  0  0  0  0  0
    9.8870    0.0760   22.9990 C   0  0  1  0  0  0  0  0  0  0  0  0
    8.8260   -0.8240   22.5190 N   0  0  0  0  0  0  0  0  0  0  0  0
    8.0980   -0.0910   21.4510 C   0  0  0  0  0  0  0  0  0  0  0  0
    8.6440    1.1030   20.9890 O   0  0  0  0  0  0  0  0  0  0  0  0
    6.9370   -0.7470   21.0950 N   0  0  0  0  0  0  0  0  0  0  0  0
    6.4880   -0.1250   20.0330 C   0  0  0  0  0  0  0  0  0  0  0  0
    5.2090    0.6660   20.3470 C   0  0  0  0  0  0  0  0  0  0  0  0
    4.6380    1.3970   19.2000 C   0  0  0  0  0  0  0  0  0  0  0  0
    5.2510    1.3250   18.0100 C   0  0  0  0  0  0  0  0  0  0  0  0
    6.3780    0.6200   17.7540 N   0  0  0  0  0  0  0  0  0  0  0  0
    6.9730   -0.0870   18.7500 C   0  0  0  0  0  0  0  0  0  0  0  0
   11.1700   -0.2530   22.3890 C   0  0  0  0  0  0  0  0  0  0  0  0
   11.9000   -0.8470   23.4240 C   0  0  1  0  0  0  0  0  0  0  0  0
   12.1880   -0.1130   24.5130 C   0  0  0  0  0  0  0  0  0  0  0  0
   12.2060    1.2460   24.0570 O   0  0  0  0  0  0  0  0  0  0  0  0
   10.6090   -0.3950   24.2460 C   0  0  0  0  0  0  0  0  0  0  0  0
  1  2  1  0
  2  3  1  0
  3  4  2  0
  5  3  1  0
  5  6  1  6
  6  7  1  0
  7  8  2  0
  7  9  1  0
  9 10  1  0
 10 11  2  0
 11 12  1  0
 12 13  2  0
 13 14  1  0
 10 15  1  0
 14 15  2  0
  5 16  1  0
 16 17  1  0
 17 18  1  1
 18 19  1  0
  5 20  1  0
 17 20  1  0
M  END
