pyridine_urea_1561
     RDKit          3D

 20 21  0  0  0  0  0  0  0  0999 V2000
    3.1870   -7.5950   24.7140 C   0  0  0  0  0  0  0  0  0  0  0  0
    3.9530   -6.4210   24.1700 C   0  0  0  0  0  0  0  0  0  0  0  0
    4.5850   -5.5030   25.0210 C   0  0  0  0  0  0  0  0  0  0  0  0
    5.4060   -4.5080   24.4290 N   0  0  0  0  0  0  0  0  0  0  0  0
    5.9840   -3.3780   25.0080 C   0  0  0  0  0  0  0  0  0  0  0  0
    6.9140   -2.5690   24.3670 C   0  0  0  0  0  0  0  0  0  0  0  0
    7.5050   -3.0110   23.1770 C   0  0  0  0  0  0  0  0  0  0  0  0
    8.7110   -2.3780   22.8450 C   0  0  0  0  0  0  0  0  0  0  0  0
    8.8250   -0.9940   22.6780 N   0  0  0  0  0  0  0  0  0  0  0  0
    8.2990   -0.1640   21.5740 C   0  0  0  0  0  0  0  0  0  0  0  0
    8.7680    0.9160   21.2280 O   0  0  0  0  0  0  0  0  0  0  0  0
    7.2170   -0.7500   21.0080 N   0  0  0  0  0  0  0  0  0  0  0  0
    6.5100   -0.0450   20.0860 C   0  0  0  0  0  0  0  0  0  0  0  0
    5.3460    0.6910   20.3460 C   0  0  0  0  0  0  0  0  0  0  0  0
    4.7130    1.3760   19.3090 C   0  0  0  0  0  0  0  0  0  0  0  0
    5.2540    1.3100   18.0370 C   0  0  0  0  0  0  0  0  0  0  0  0
    6.3650    0.6090   17.7610 N   0  0  0  0  0  0  0  0  0  0  0  0
    6.9570   -0.0440   18.7770 C   0  0  0  0  0  0  0  0  0  0  0  0
    7.5860   -4.4140   23.1310 C   0  0  0  0  0  0  0  0  0  0  0  0
    6.2470   -5.1050   23.3780 C   0  0  0  0  0  0  0  0  0  0  0  0
  1  2  1  0
  2  3  1  0
  3  4  1  0
  4  5  1  0
  5  6  1  0
  6  7  1  0
  7  8  1  0
  8  9  1  0
  9 10  1  0
 10 11  2  0
 10 12  1  0
 12 13  1  0
 13 14  2  0
 14 15  1  0
 15 16  2  0
 16 17  1  0
 13 18  1  0
 17 18  2  0
  7 19  1  0
  4 20  1  0
 19 20  1  0
M  END
