pyridine_urea_4432
     RDKit          3D

 23 25  0  0  0  0  0  0  0  0999 V2000
    8.7290    0.4800   21.1790 O   0  0  0  0  0  0  0  0  0  0  0  0
    8.3910   -0.6650   21.4390 C   0  0  0  0  0  0  0  0  0  0  0  0
    9.2620   -1.4810   22.1720 N   0  0  0  0  0  0  0  0  0  0  0  0
   10.2820   -0.5450   22.5460 C   0  0  0  0  0  0  0  0  0  0  0  0
   11.6990   -0.7460   23.0800 C   0  0  0  0  0  0  0  0  0  0  0  0
   12.5510    0.5320   23.3600 C   0  0  0  0  0  0  0  0  0  0  0  0
   11.8710    1.8980   23.0780 C   0  0  0  0  0  0  0  0  0  0  0  0
   12.1380    3.4100   23.1570 C   0  0  0  0  0  0  0  0  0  0  0  0
   13.3820    4.0300   22.5870 C   0  0  0  0  0  0  0  0  0  0  0  0
   13.5030    5.4140   22.6930 C   0  0  0  0  0  0  0  0  0  0  0  0
   12.5280    6.2000   23.3080 C   0  0  0  0  0  0  0  0  0  0  0  0
   11.3980    5.6160   23.8370 C   0  0  0  0  0  0  0  0  0  0  0  0
   10.4390    6.3700   24.4500 O   0  0  0  0  0  0  0  0  0  0  0  0
   11.1790    4.2440   23.7740 C   0  0  0  0  0  0  0  0  0  0  0  0
   10.6390    1.9680   22.6230 C   0  0  0  0  0  0  0  0  0  0  0  0
    9.8310    0.8350   22.3490 C   0  0  0  0  0  0  0  0  0  0  0  0
    7.1830   -1.1370   21.0140 N   0  0  0  0  0  0  0  0  0  0  0  0
    6.4970   -0.3720   20.0420 C   0  0  0  0  0  0  0  0  0  0  0  0
    5.2160    0.3330   20.3630 C   0  0  0  0  0  0  0  0  0  0  0  0
    4.5880    1.0890   19.3700 C   0  0  0  0  0  0  0  0  0  0  0  0
    5.1800    1.1600   18.1210 C   0  0  0  0  0  0  0  0  0  0  0  0
    6.3300    0.5320   17.8090 N   0  0  0  0  0  0  0  0  0  0  0  0
    6.9530   -0.2080   18.7540 C   0  0  0  0  0  0  0  0  0  0  0  0
  1  2  2  0
  2  3  1  0
  3  4  1  0
  4  5  2  0
  5  6  1  0
  6  7  2  0
  7  8  1  0
  8  9  2  0
  9 10  1  0
 10 11  2  0
 11 12  1  0
 12 13  1  0
  8 14  1  0
 12 14  2  0
  7 15  1  0
  4 16  1  0
 15 16  2  0
  2 17  1  0
 17 18  1  0
 18 19  2  0
 19 20  1  0
 20 21  2  0
 21 22  1  0
 18 23  1  0
 22 23  2  0
M  END
