pyridine_urea_4120
     RDKit          3D

 25 28  0  0  0  0  0  0  0  0999 V2000
    8.4860    0.5070   21.0450 O   0  0  0  0  0  0  0  0  0  0  0  0
    7.9540   -0.5410   21.3800 C   0  0  0  0  0  0  0  0  0  0  0  0
    6.7350   -0.9190   20.9590 N   0  0  0  0  0  0  0  0  0  0  0  0
    6.1870   -0.1540   19.9370 C   0  0  0  0  0  0  0  0  0  0  0  0
    5.0030    0.5460   20.1490 C   0  0  0  0  0  0  0  0  0  0  0  0
    4.4760    1.3280   19.1200 C   0  0  0  0  0  0  0  0  0  0  0  0
    5.1610    1.3750   17.9210 C   0  0  0  0  0  0  0  0  0  0  0  0
    6.3020    0.7020   17.7020 N   0  0  0  0  0  0  0  0  0  0  0  0
    6.7870   -0.0440   18.7080 C   0  0  0  0  0  0  0  0  0  0  0  0
    8.5980   -1.3990   22.2110 N   0  0  0  0  0  0  0  0  0  0  0  0
    9.9060   -0.8800   22.4110 C   0  0  0  0  0  0  0  0  0  0  0  0
   10.1000    0.5810   22.7240 C   0  0  0  0  0  0  0  0  0  0  0  0
    9.0630    1.4960   22.8340 C   0  0  0  0  0  0  0  0  0  0  0  0
    7.8080    1.2530   23.3790 C   0  0  0  0  0  0  0  0  0  0  0  0
    6.8610    2.2570   23.4260 C   0  0  0  0  0  0  0  0  0  0  0  0
    7.1400    3.5170   22.9360 C   0  0  0  0  0  0  0  0  0  0  0  0
    8.3510    3.8900   22.3710 C   0  0  0  0  0  0  0  0  0  0  0  0
    9.4460    2.8430   22.2800 C   0  0  0  0  0  0  0  0  0  0  0  0
   11.3180    0.7920   22.9420 N   0  0  0  0  0  0  0  0  0  0  0  0
   11.7530   -0.4760   22.7550 C   0  0  0  0  0  0  0  0  0  0  0  0
   12.8570   -0.7310   23.5220 C   0  0  0  0  0  0  0  0  0  0  0  0
   13.0520    0.4600   23.7960 C   0  0  0  0  0  0  0  0  0  0  0  0
   13.2280   -0.2190   22.6030 C   0  0  0  0  0  0  0  0  0  0  0  0
   12.6610   -1.5380   22.1850 C   0  0  0  0  0  0  0  0  0  0  0  0
   11.2380   -1.5920   22.2200 C   0  0  0  0  0  0  0  0  0  0  0  0
  1  2  2  0
  2  3  1  0
  3  4  1  0
  4  5  2  0
  5  6  1  0
  6  7  2  0
  7  8  1  0
  4  9  1  0
  8  9  2  0
  2 10  1  0
 10 11  1  0
 11 12  2  0
 12 13  1  0
 13 14  2  0
 14 15  1  0
 15 16  2  0
 16 17  1  0
 13 18  1  0
 17 18  2  0
 12 19  1  0
 19 20  1  0
 20 21  2  0
 21 22  1  0
 22 23  2  0
 23 24  1  0
 11 25  1  0
 20 25  1  0
 24 25  2  0
M  END
