pyridine_urea_6792
     RDKit          3D

 21 22  0  0  0  0  0  0  0  0999 V2000
   12.4850   -2.5320   24.7490 C   0  0  0  0  0  0  0  0  0  0  0  0
   11.5840   -3.3630   24.0200 O   0  0  0  0  0  0  0  0  0  0  0  0
   10.3240   -2.8940   23.7260 C   0  0  0  0  0  0  0  0  0  0  0  0
    9.3020   -3.4610   24.1020 O   0  0  0  0  0  0  0  0  0  0  0  0
   10.2740   -1.6420   22.8530 C   0  0  2  0  0  0  0  0  0  0  0  0
    8.8390   -1.4700   22.3940 N   0  0  0  0  0  0  0  0  0  0  0  0
    8.3890   -0.4200   21.6070 C   0  0  0  0  0  0  0  0  0  0  0  0
    9.0340    0.6060   21.4300 O   0  0  0  0  0  0  0  0  0  0  0  0
    7.1410   -0.7050   21.0900 N   0  0  0  0  0  0  0  0  0  0  0  0
    6.4980   -0.0250   20.0450 C   0  0  0  0  0  0  0  0  0  0  0  0
    5.3410    0.6970   20.3170 C   0  0  0  0  0  0  0  0  0  0  0  0
    4.6850    1.3850   19.2920 C   0  0  0  0  0  0  0  0  0  0  0  0
    5.2290    1.3210   18.0100 C   0  0  0  0  0  0  0  0  0  0  0  0
    6.3440    0.6270   17.7360 N   0  0  0  0  0  0  0  0  0  0  0  0
    6.9480   -0.0260   18.7460 C   0  0  0  0  0  0  0  0  0  0  0  0
   11.1900   -1.5830   21.5950 C   0  0  0  0  0  0  0  0  0  0  0  0
   12.4500   -1.3090   22.1640 C   0  0  0  0  0  0  0  0  0  0  0  0
   12.4720   -0.0230   23.2180 S   0  0  0  0  0  0  0  0  0  0  0  0
   13.2640   -0.3960   24.3610 O   0  0  0  0  0  0  0  0  0  0  0  0
   12.6700    1.2310   22.5170 O   0  0  0  0  0  0  0  0  0  0  0  0
   10.7630   -0.2990   23.5450 C   0  0  0  0  0  0  0  0  0  0  0  0
  1  2  1  0
  2  3  1  0
  3  4  2  0
  5  3  1  0
  5  6  1  6
  6  7  1  0
  7  8  2  0
  7  9  1  0
  9 10  1  0
 10 11  2  0
 11 12  1  0
 12 13  2  0
 13 14  1  0
 10 15  1  0
 14 15  2  0
  5 16  1  0
 16 17  1  0
 18 17  1  0
 18 19  2  0
 18 20  2  0
  5 21  1  0
 18 21  1  0
M  END
