pyridine_urea_9849
     RDKit          3D

 26 28  0  0  0  0  0  0  0  0999 V2000
    8.8040    0.7550   21.3740 O   0  0  0  0  0  0  0  0  0  0  0  0
    8.2480   -0.3340   21.3660 C   0  0  0  0  0  0  0  0  0  0  0  0
    8.8460   -1.5310   21.6300 N   0  0  0  0  0  0  0  0  0  0  0  0
    9.7360   -1.6670   22.7450 C   0  0  0  0  0  0  0  0  0  0  0  0
   11.1160   -1.1020   22.4590 C   0  0  0  0  0  0  0  0  0  0  0  0
   12.3600   -0.1100   22.4180 C   0  0  0  0  0  0  0  0  0  0  0  0
   12.5020    1.3230   22.9920 C   0  0  0  0  0  0  0  0  0  0  0  0
   11.4060    2.0290   23.7230 C   0  0  0  0  0  0  0  0  0  0  0  0
   10.2440    1.1400   23.7910 C   0  0  0  0  0  0  0  0  0  0  0  0
   11.2540    0.7810   23.2160 O   0  0  0  0  0  0  0  0  0  0  0  0
   12.3080    0.3690   24.0430 C   0  0  0  0  0  0  0  0  0  0  0  0
   11.8570   -0.6600   24.8510 C   0  0  0  0  0  0  0  0  0  0  0  0
   11.5370   -1.8640   24.3030 N   0  0  0  0  0  0  0  0  0  0  0  0
   12.0760   -3.0480   24.6660 C   0  0  0  0  0  0  0  0  0  0  0  0
   13.3790   -2.9220   25.0810 C   0  0  0  0  0  0  0  0  0  0  0  0
   14.0840   -2.9840   23.8420 O   0  0  0  0  0  0  0  0  0  0  0  0
   13.4150   -2.3300   22.7230 C   0  0  0  0  0  0  0  0  0  0  0  0
   12.0070   -1.9610   23.0000 C   0  0  0  0  0  0  0  0  0  0  0  0
   10.0760   -0.2350   23.2500 C   0  0  0  0  0  0  0  0  0  0  0  0
    6.9220   -0.5070   21.0590 N   0  0  0  0  0  0  0  0  0  0  0  0
    6.3460    0.1000   20.0180 C   0  0  0  0  0  0  0  0  0  0  0  0
    5.1610    0.8070   20.2240 C   0  0  0  0  0  0  0  0  0  0  0  0
    4.5780    1.4460   19.1460 C   0  0  0  0  0  0  0  0  0  0  0  0
    5.1850    1.3670   17.8970 C   0  0  0  0  0  0  0  0  0  0  0  0
    6.3220    0.6820   17.6910 N   0  0  0  0  0  0  0  0  0  0  0  0
    6.8710    0.0670   18.7470 C   0  0  0  0  0  0  0  0  0  0  0  0
  1  2  2  0
  2  3  1  0
  3  4  1  0
  4  5  1  0
  5  6  2  0
  6  7  1  0
  7  8  2  0
  8  9  1  0
  9 10  1  0
 10 11  1  0
 11 12  1  0
 12 13  1  0
 13 14  1  0
 14 15  1  0
 15 16  1  0
 16 17  1  0
 13 18  1  0
 17 18  1  0
  5 19  1  0
  9 19  2  0
  2 20  1  0
 20 21  1  0
 21 22  2  0
 22 23  1  0
 23 24  2  0
 24 25  1  0
 21 26  1  0
 25 26  2  0
M  END
