pyridine_urea_9592
     RDKit          3D

 20 21  0  0  0  0  0  0  0  0999 V2000
   13.2050    0.5880   22.8580 C   0  0  0  0  0  0  0  0  0  0  0  0
   13.3760   -0.7750   22.8730 N   0  0  0  0  0  0  0  0  0  0  0  0
   13.2910   -1.5020   21.6140 C   0  0  0  0  0  0  0  0  0  0  0  0
   12.6520   -1.2900   23.8900 C   0  0  2  0  0  0  0  0  0  0  0  0
   13.3910   -2.1610   24.8880 C   0  0  0  0  0  0  0  0  0  0  0  0
   11.6040   -2.1810   23.2730 C   0  0  0  0  0  0  0  0  0  0  0  0
   10.6820   -1.4720   22.3140 C   0  0  0  0  0  0  0  0  0  0  0  0
   10.0510   -0.1940   22.8680 C   0  0  1  0  0  0  0  0  0  0  0  0
    8.6290   -0.2420   22.6690 N   0  0  0  0  0  0  0  0  0  0  0  0
    8.1530    0.3080   21.4900 C   0  0  0  0  0  0  0  0  0  0  0  0
    8.6430    1.3350   21.0090 O   0  0  0  0  0  0  0  0  0  0  0  0
    7.1290   -0.4290   21.0220 N   0  0  0  0  0  0  0  0  0  0  0  0
    6.5020    0.1320   19.9830 C   0  0  0  0  0  0  0  0  0  0  0  0
    5.3780    0.8930   20.2600 C   0  0  0  0  0  0  0  0  0  0  0  0
    4.6820    1.5220   19.2500 C   0  0  0  0  0  0  0  0  0  0  0  0
    5.1340    1.3750   17.9600 C   0  0  0  0  0  0  0  0  0  0  0  0
    6.2240    0.6350   17.6200 N   0  0  0  0  0  0  0  0  0  0  0  0
    6.9590   -0.0300   18.6870 C   0  0  0  0  0  0  0  0  0  0  0  0
   10.4580   -0.3690   24.3350 C   0  0  0  0  0  0  0  0  0  0  0  0
   11.9020   -0.1870   24.6090 C   0  0  0  0  0  0  0  0  0  0  0  0
  1  2  1  0
  2  3  1  0
  4  2  1  0
  4  5  1  1
  4  6  1  0
  6  7  1  0
  7  8  1  0
  8  9  1  1
  9 10  1  0
 10 11  2  0
 10 12  1  0
 12 13  1  0
 13 14  2  0
 14 15  1  0
 15 16  2  0
 16 17  1  0
 13 18  1  0
 17 18  2  0
  8 19  1  0
  4 20  1  0
 19 20  1  0
M  END
