pyridine_urea_14675
     RDKit          3D

 21 22  0  0  0  0  0  0  0  0999 V2000
   12.1330   -2.4290   24.6360 C   0  0  0  0  0  0  0  0  0  0  0  0
   11.2510   -1.5610   24.6870 O   0  0  0  0  0  0  0  0  0  0  0  0
   10.9750   -0.7720   23.5650 C   0  0  2  0  0  0  0  0  0  0  0  0
   10.0840   -1.3420   22.6500 C   0  0  0  0  0  0  0  0  0  0  0  0
    8.7130   -0.9120   22.8820 N   0  0  0  0  0  0  0  0  0  0  0  0
    8.1550   -0.2690   21.6970 C   0  0  0  0  0  0  0  0  0  0  0  0
    8.6340    0.7750   21.2430 O   0  0  0  0  0  0  0  0  0  0  0  0
    7.0500   -0.8470   21.1010 N   0  0  0  0  0  0  0  0  0  0  0  0
    6.4150   -0.0950   20.0360 C   0  0  0  0  0  0  0  0  0  0  0  0
    5.2580    0.6560   20.2730 C   0  0  0  0  0  0  0  0  0  0  0  0
    4.6390    1.4430   19.1100 C   0  0  0  0  0  0  0  0  0  0  0  0
    5.1780    1.4390   17.8400 C   0  0  0  0  0  0  0  0  0  0  0  0
    6.2990    0.6680   17.7260 N   0  0  0  0  0  0  0  0  0  0  0  0
    6.9290   -0.0810   18.7270 C   0  0  0  0  0  0  0  0  0  0  0  0
   12.2860   -0.4660   22.7810 C   0  0  0  0  0  0  0  0  0  0  0  0
   12.3820   -1.3680   22.2020 C   0  0  0  0  0  0  0  0  0  0  0  0
   13.4640   -0.8770   21.6950 C   0  0  0  0  0  0  0  0  0  0  0  0
   12.3050   -1.7170   22.0590 C   0  0  0  0  0  0  0  0  0  0  0  0
   11.7910   -0.4310   23.1570 C   0  0  0  0  0  0  0  0  0  0  0  0
   10.6580   -0.5720   23.8920 F   0  0  0  0  0  0  0  0  0  0  0  0
   12.6950    0.6390   23.1080 C   0  0  0  0  0  0  0  0  0  0  0  0
  1  2  1  0
  2  3  1  0
  3  4  1  6
  4  5  1  0
  5  6  1  0
  6  7  2  0
  6  8  1  0
  8  9  1  0
  9 10  2  0
 10 11  1  0
 11 12  2  0
 12 13  1  0
  9 14  1  0
 13 14  2  0
  3 15  1  0
 15 16  2  0
 16 17  1  0
 17 18  2  0
 18 19  1  0
 19 20  1  0
 15 21  1  0
 19 21  2  0
M  END
