pyridine_urea_8816
     RDKit          3D

 20 20  0  0  0  0  0  0  0  0999 V2000
   13.3230    5.0370   22.1630 C   0  0  0  0  0  0  0  0  0  0  0  0
   12.6250    6.2720   22.0770 O   0  0  0  0  0  0  0  0  0  0  0  0
   11.8870    6.6790   23.1550 C   0  0  0  0  0  0  0  0  0  0  0  0
   11.2890    5.5470   24.0020 C   0  0  0  0  0  0  0  0  0  0  0  0
   10.6690    4.5850   23.0850 O   0  0  0  0  0  0  0  0  0  0  0  0
   10.6980    3.2970   23.5550 C   0  0  0  0  0  0  0  0  0  0  0  0
   10.0020    2.3480   22.8000 C   0  0  0  0  0  0  0  0  0  0  0  0
   10.6460    1.3440   22.4760 O   0  0  0  0  0  0  0  0  0  0  0  0
   10.5910    0.1910   23.3340 C   0  0  0  0  0  0  0  0  0  0  0  0
   10.3360   -0.9930   22.6610 C   0  0  0  0  0  0  0  0  0  0  0  0
    9.0810   -1.2140   22.0700 N   0  0  0  0  0  0  0  0  0  0  0  0
    8.3580   -0.2270   21.4410 C   0  0  0  0  0  0  0  0  0  0  0  0
    8.8070    0.8920   21.2630 O   0  0  0  0  0  0  0  0  0  0  0  0
    7.1080   -0.6600   21.0390 N   0  0  0  0  0  0  0  0  0  0  0  0
    6.4340   -0.0050   20.0260 C   0  0  0  0  0  0  0  0  0  0  0  0
    5.2500    0.6710   20.3250 C   0  0  0  0  0  0  0  0  0  0  0  0
    4.5740    1.3520   19.3030 C   0  0  0  0  0  0  0  0  0  0  0  0
    5.1670    1.3150   17.9380 C   0  0  0  0  0  0  0  0  0  0  0  0
    6.3000    0.6510   17.6900 N   0  0  0  0  0  0  0  0  0  0  0  0
    6.8960    0.0160   18.7230 C   0  0  0  0  0  0  0  0  0  0  0  0
  1  2  1  0
  2  3  1  0
  3  4  1  0
  4  5  1  0
  5  6  1  0
  6  7  1  0
  7  8  1  0
  8  9  1  0
  9 10  1  0
 10 11  1  0
 11 12  1  0
 12 13  2  0
 12 14  1  0
 14 15  1  0
 15 16  2  0
 16 17  1  0
 17 18  2  0
 18 19  1  0
 15 20  1  0
 19 20  2  0
M  END
