pyridine_urea_7906
     RDKit          3D

 26 28  0  0  0  0  0  0  0  0999 V2000
    8.8950    1.4330   21.3060 O   0  0  0  0  0  0  0  0  0  0  0  0
    8.6450    0.2420   21.1030 C   0  0  0  0  0  0  0  0  0  0  0  0
    9.5720   -0.7540   20.9070 N   0  0  0  0  0  0  0  0  0  0  0  0
   10.4300   -1.4230   21.8120 C   0  0  0  0  0  0  0  0  0  0  0  0
   11.6130   -0.8360   22.2460 C   0  0  0  0  0  0  0  0  0  0  0  0
   10.5240   -1.0050   23.1720 C   0  0  0  0  0  0  0  0  0  0  0  0
   10.0660   -0.8330   24.4780 C   0  0  0  0  0  0  0  0  0  0  0  0
   11.0150   -0.3360   25.0830 C   0  0  0  0  0  0  0  0  0  0  0  0
   10.6640   -0.1400   26.5050 N   0  0  0  0  0  0  0  0  0  0  0  0
    9.4050   -0.3190   27.0480 C   0  0  0  0  0  0  0  0  0  0  0  0
    8.3470   -0.7230   26.1550 O   0  0  0  0  0  0  0  0  0  0  0  0
    9.1170   -0.1140   28.5450 C   0  0  0  0  0  0  0  0  0  0  0  0
    7.9470   -0.7070   29.0530 C   0  0  0  0  0  0  0  0  0  0  0  0
    7.6090   -0.5720   30.3830 C   0  0  0  0  0  0  0  0  0  0  0  0
    8.4230    0.1570   31.2090 C   0  0  0  0  0  0  0  0  0  0  0  0
    9.5480    0.7620   30.8090 N   0  0  0  0  0  0  0  0  0  0  0  0
    9.8650    0.6110   29.4890 C   0  0  0  0  0  0  0  0  0  0  0  0
   12.3540    0.0380   24.5510 C   0  0  0  0  0  0  0  0  0  0  0  0
   12.6370   -0.1740   23.2290 C   0  0  0  0  0  0  0  0  0  0  0  0
    7.3680   -0.2830   20.9800 N   0  0  0  0  0  0  0  0  0  0  0  0
    6.5520    0.1960   19.9470 C   0  0  0  0  0  0  0  0  0  0  0  0
    5.3110    0.7790   20.2300 C   0  0  0  0  0  0  0  0  0  0  0  0
    4.5150    1.2610   19.2020 C   0  0  0  0  0  0  0  0  0  0  0  0
    4.9790    1.1540   17.9120 C   0  0  0  0  0  0  0  0  0  0  0  0
    6.1590    0.5880   17.6040 N   0  0  0  0  0  0  0  0  0  0  0  0
    6.9170    0.1220   18.6110 C   0  0  0  0  0  0  0  0  0  0  0  0
  1  2  2  0
  2  3  1  0
  3  4  1  0
  4  5  1  0
  5  6  2  0
  6  7  1  0
  7  8  2  0
  8  9  1  0
  9 10  1  0
 10 11  2  0
 10 12  1  0
 12 13  2  0
 13 14  1  0
 14 15  2  0
 15 16  1  0
 12 17  1  0
 16 17  2  0
  8 18  1  0
  5 19  1  0
 18 19  2  0
  2 20  1  0
 20 21  1  0
 21 22  2  0
 22 23  1  0
 23 24  2  0
 24 25  1  0
 21 26  1  0
 25 26  2  0
M  END
