pyridine_urea_15173
     RDKit          3D

 17 18  0  0  0  0  0  0  0  0999 V2000
   13.3720    0.7190   22.9750 C   0  0  0  0  0  0  0  0  0  0  0  0
   11.9060    0.9330   23.0220 C   0  0  0  0  0  0  0  0  0  0  0  0
   10.5420    0.4590   22.8840 C   0  0  0  0  0  0  0  0  0  0  0  0
   10.2780   -0.8990   22.5100 C   0  0  0  0  0  0  0  0  0  0  0  0
    8.8420   -1.1130   22.4070 N   0  0  0  0  0  0  0  0  0  0  0  0
    8.2020   -0.2580   21.5410 C   0  0  0  0  0  0  0  0  0  0  0  0
    8.6480    0.8530   21.2920 O   0  0  0  0  0  0  0  0  0  0  0  0
    7.0230   -0.7840   20.9990 N   0  0  0  0  0  0  0  0  0  0  0  0
    6.3290   -0.0720   20.0470 C   0  0  0  0  0  0  0  0  0  0  0  0
    5.0150    0.6830   20.2860 C   0  0  0  0  0  0  0  0  0  0  0  0
    4.5420    1.3350   19.1500 C   0  0  0  0  0  0  0  0  0  0  0  0
    5.2090    1.2880   17.9430 C   0  0  0  0  0  0  0  0  0  0  0  0
    6.3500    0.6280   17.7260 N   0  0  0  0  0  0  0  0  0  0  0  0
    6.8780   -0.0340   18.7750 C   0  0  0  0  0  0  0  0  0  0  0  0
   11.2400   -1.9870   22.2330 C   0  0  0  0  0  0  0  0  0  0  0  0
   12.6350   -1.8300   22.3080 C   0  0  0  0  0  0  0  0  0  0  0  0
   12.3700   -0.7060   22.6000 S   0  0  0  0  0  0  0  0  0  0  0  0
  1  2  1  0
  2  3  2  0
  3  4  1  0
  4  5  1  0
  5  6  1  0
  6  7  2  0
  6  8  1  0
  8  9  1  0
  9 10  2  0
 10 11  1  0
 11 12  2  0
 12 13  1  0
  9 14  1  0
 13 14  2  0
  4 15  2  0
 15 16  1  0
  2 17  1  0
 15 17  1  0
M  END
