pyridine_urea_13977
     RDKit          3D

 23 25  0  0  0  0  0  0  0  0999 V2000
   12.5580    1.0500   23.2930 C   0  0  0  0  0  0  0  0  0  0  0  0
   11.3630    0.9520   23.3420 C   0  0  2  0  0  0  0  0  0  0  0  0
    9.8660    1.3170   23.4310 C   0  0  0  0  0  0  0  0  0  0  0  0
    9.0470    0.0680   23.5620 C   0  0  1  0  0  0  0  0  0  0  0  0
    8.7140   -0.5900   22.3330 N   0  0  0  0  0  0  0  0  0  0  0  0
    8.1260    0.1210   21.3550 C   0  0  0  0  0  0  0  0  0  0  0  0
    8.6260    1.4260   20.9260 O   0  0  0  0  0  0  0  0  0  0  0  0
    7.0520   -0.5440   20.9020 N   0  0  0  0  0  0  0  0  0  0  0  0
    6.4320    0.0770   19.8970 C   0  0  0  0  0  0  0  0  0  0  0  0
    5.1780    0.8090   20.1780 C   0  0  0  0  0  0  0  0  0  0  0  0
    4.4510    1.4950   19.2530 C   0  0  0  0  0  0  0  0  0  0  0  0
    5.1780    1.3560   17.9270 C   0  0  0  0  0  0  0  0  0  0  0  0
    6.3070    0.6930   17.6600 N   0  0  0  0  0  0  0  0  0  0  0  0
    6.9110    0.0670   18.6450 C   0  0  0  0  0  0  0  0  0  0  0  0
   10.0980   -0.7430   24.1440 C   0  0  0  0  0  0  0  0  0  0  0  0
    9.8000   -2.0250   24.4240 O   0  0  0  0  0  0  0  0  0  0  0  0
   11.3730   -0.1790   24.3200 N   0  0  0  0  0  0  0  0  0  0  0  0
   12.1650   -1.1000   23.8090 C   0  0  0  0  0  0  0  0  0  0  0  0
   11.9830   -1.4380   22.3160 C   0  0  0  0  0  0  0  0  0  0  0  0
   13.0610   -2.4690   22.2990 C   0  0  0  0  0  0  0  0  0  0  0  0
   13.9040   -2.9010   23.4350 C   0  0  0  0  0  0  0  0  0  0  0  0
   13.8280   -2.4200   24.6860 C   0  0  0  0  0  0  0  0  0  0  0  0
   12.9430   -1.4860   24.8820 C   0  0  0  0  0  0  0  0  0  0  0  0
  2  1  1  1
  2  3  1  0
  3  4  1  0
  4  5  1  6
  5  6  1  0
  6  7  2  0
  6  8  1  0
  8  9  1  0
  9 10  2  0
 10 11  1  0
 11 12  2  0
 12 13  1  0
  9 14  1  0
 13 14  2  0
  4 15  1  0
 15 16  2  0
  2 17  1  0
 15 17  1  0
 17 18  1  0
 18 19  2  0
 19 20  1  0
 20 21  2  0
 21 22  1  0
 18 23  1  0
 22 23  2  0
M  END
