pyridine_urea_5008
     RDKit          3D

 21 22  0  0  0  0  0  0  0  0999 V2000
    8.8800    0.8600   21.4060 O   0  0  0  0  0  0  0  0  0  0  0  0
    8.3830   -0.2610   21.4260 C   0  0  0  0  0  0  0  0  0  0  0  0
    9.0230   -1.4200   21.7530 N   0  0  0  0  0  0  0  0  0  0  0  0
    9.7710   -1.6450   22.9080 C   0  0  0  0  0  0  0  0  0  0  0  0
   10.5340   -0.5900   23.3540 C   0  0  0  0  0  0  0  0  0  0  0  0
   10.7940   -0.8340   24.5300 O   0  0  0  0  0  0  0  0  0  0  0  0
   11.8290   -1.6630   24.7690 C   0  0  0  0  0  0  0  0  0  0  0  0
   12.4200   -1.6070   23.5980 C   0  0  0  0  0  0  0  0  0  0  0  0
   12.6770   -2.8910   22.9830 C   0  0  0  0  0  0  0  0  0  0  0  0
   13.2630   -3.0050   21.7430 C   0  0  0  0  0  0  0  0  0  0  0  0
   13.6190   -1.7430   21.0900 C   0  0  0  0  0  0  0  0  0  0  0  0
   13.3420   -0.6660   21.7780 C   0  0  0  0  0  0  0  0  0  0  0  0
   12.7940   -0.4820   22.9140 C   0  0  0  0  0  0  0  0  0  0  0  0
   12.6720    1.1700   23.2500 Cl  0  0  0  0  0  0  0  0  0  0  0  0
    7.0860   -0.5470   21.0940 N   0  0  0  0  0  0  0  0  0  0  0  0
    6.4380    0.0760   20.0270 C   0  0  0  0  0  0  0  0  0  0  0  0
    5.2650    0.8020   20.2760 C   0  0  0  0  0  0  0  0  0  0  0  0
    4.6170    1.4450   19.2180 C   0  0  0  0  0  0  0  0  0  0  0  0
    5.1730    1.3320   17.9550 C   0  0  0  0  0  0  0  0  0  0  0  0
    6.2910    0.6330   17.6960 N   0  0  0  0  0  0  0  0  0  0  0  0
    6.9020    0.0200   18.7270 C   0  0  0  0  0  0  0  0  0  0  0  0
  1  2  2  0
  2  3  1  0
  3  4  1  0
  4  5  1  0
  5  6  1  0
  6  7  1  0
  7  8  1  0
  8  9  2  0
  9 10  1  0
 10 11  2  0
 11 12  1  0
  8 13  1  0
 12 13  2  0
 13 14  1  0
  2 15  1  0
 15 16  1  0
 16 17  2  0
 17 18  1  0
 18 19  2  0
 19 20  1  0
 16 21  1  0
 20 21  2  0
M  END
