pyridine_urea_5076
     RDKit          3D

 20 22  0  0  0  0  0  0  0  0999 V2000
    7.9940    0.1410   25.1650 C   0  0  0  0  0  0  0  0  0  0  0  0
    9.2170   -0.1070   24.3340 C   0  0  0  0  0  0  0  0  0  0  0  0
   10.4540    0.3290   24.6070 N   0  0  0  0  0  0  0  0  0  0  0  0
   11.1660   -0.2160   23.4670 C   0  0  0  0  0  0  0  0  0  0  0  0
   12.3490   -0.1400   23.1520 C   0  0  0  0  0  0  0  0  0  0  0  0
   12.5580    0.6030   24.2110 C   0  0  0  0  0  0  0  0  0  0  0  0
   13.2680    0.0240   23.0740 C   0  0  0  0  0  0  0  0  0  0  0  0
   12.3530   -0.7410   22.2340 C   0  0  0  0  0  0  0  0  0  0  0  0
   10.7360   -0.9610   22.4200 C   0  0  0  0  0  0  0  0  0  0  0  0
    9.4340   -0.8680   22.9960 C   0  0  0  0  0  0  0  0  0  0  0  0
    8.5380   -1.4790   22.2150 N   0  0  0  0  0  0  0  0  0  0  0  0
    7.9180   -0.6150   21.3090 C   0  0  0  0  0  0  0  0  0  0  0  0
    8.4560    0.4540   21.0530 O   0  0  0  0  0  0  0  0  0  0  0  0
    6.7540   -1.0650   20.8460 N   0  0  0  0  0  0  0  0  0  0  0  0
    6.1780   -0.2330   19.9600 C   0  0  0  0  0  0  0  0  0  0  0  0
    5.0090    0.4980   20.1790 C   0  0  0  0  0  0  0  0  0  0  0  0
    4.5480    1.3200   19.1480 C   0  0  0  0  0  0  0  0  0  0  0  0
    5.2510    1.3880   17.9610 C   0  0  0  0  0  0  0  0  0  0  0  0
    6.3810    0.7010   17.7080 N   0  0  0  0  0  0  0  0  0  0  0  0
    6.7870   -0.0770   18.7250 C   0  0  0  0  0  0  0  0  0  0  0  0
  1  2  1  0
  2  3  1  0
  3  4  1  0
  4  5  2  0
  5  6  1  0
  6  7  2  0
  7  8  1  0
  4  9  1  0
  8  9  2  0
  2 10  2  0
  9 10  1  0
 10 11  1  0
 11 12  1  0
 12 13  2  0
 12 14  1  0
 14 15  1  0
 15 16  2  0
 16 17  1  0
 17 18  2  0
 18 19  1  0
 15 20  1  0
 19 20  2  0
M  END
