pyridine_urea_9218
     RDKit          3D

 18 18  0  0  0  0  0  0  0  0999 V2000
   13.0500    0.4470   23.0730 C   0  0  0  0  0  0  0  0  0  0  0  0
   11.8600    0.6570   23.9500 C   0  0  0  0  0  0  0  0  0  0  0  0
   10.5720    0.3970   23.4960 C   0  0  0  0  0  0  0  0  0  0  0  0
   10.2900   -0.8440   22.9580 C   0  0  1  0  0  0  0  0  0  0  0  0
    9.2790   -0.9720   21.9730 N   0  0  0  0  0  0  0  0  0  0  0  0
    8.4860    0.0290   21.4140 C   0  0  0  0  0  0  0  0  0  0  0  0
    8.8980    1.1700   21.1740 O   0  0  0  0  0  0  0  0  0  0  0  0
    7.2340   -0.4330   21.1750 N   0  0  0  0  0  0  0  0  0  0  0  0
    6.5650    0.1110   20.1290 C   0  0  0  0  0  0  0  0  0  0  0  0
    5.4070    0.8370   20.4000 C   0  0  0  0  0  0  0  0  0  0  0  0
    4.6550    1.4700   19.2190 C   0  0  0  0  0  0  0  0  0  0  0  0
    5.1810    1.2740   17.9700 C   0  0  0  0  0  0  0  0  0  0  0  0
    6.2950    0.5600   17.7500 N   0  0  0  0  0  0  0  0  0  0  0  0
    6.9460    0.0050   18.7990 C   0  0  0  0  0  0  0  0  0  0  0  0
   11.4250   -1.6060   22.6680 C   0  0  0  0  0  0  0  0  0  0  0  0
   11.9290   -2.3150   23.6870 F   0  0  0  0  0  0  0  0  0  0  0  0
   12.5310   -1.0380   22.1300 F   0  0  0  0  0  0  0  0  0  0  0  0
   11.0440   -2.5210   21.7720 F   0  0  0  0  0  0  0  0  0  0  0  0
  1  2  1  0
  2  3  1  0
  4  3  1  6
  4  5  1  0
  5  6  1  0
  6  7  2  0
  6  8  1  0
  8  9  1  0
  9 10  2  0
 10 11  1  0
 11 12  2  0
 12 13  1  0
  9 14  1  0
 13 14  2  0
  4 15  1  0
 15 16  1  0
 15 17  1  0
 15 18  1  0
M  END
