pyridine_urea_14152
     RDKit          3D

 22 23  0  0  0  0  0  0  0  0999 V2000
   12.9990   -1.9400   21.3720 C   0  0  0  0  0  0  0  0  0  0  0  0
   12.6160   -0.8110   22.1530 O   0  0  0  0  0  0  0  0  0  0  0  0
   11.5570   -1.0760   22.9750 C   0  0  0  0  0  0  0  0  0  0  0  0
   11.3110   -2.2370   23.2940 O   0  0  0  0  0  0  0  0  0  0  0  0
   10.7360   -0.0080   23.4610 C   0  0  1  0  0  0  0  0  0  0  0  0
    9.4430   -0.4520   22.7250 N   0  0  0  0  0  0  0  0  0  0  0  0
    8.7170    0.0980   21.6500 C   0  0  0  0  0  0  0  0  0  0  0  0
    9.1160    1.4120   21.2070 O   0  0  0  0  0  0  0  0  0  0  0  0
    7.5900   -0.6660   21.0800 N   0  0  0  0  0  0  0  0  0  0  0  0
    6.8080   -0.0520   20.1030 C   0  0  0  0  0  0  0  0  0  0  0  0
    5.5870    0.7560   20.5240 C   0  0  0  0  0  0  0  0  0  0  0  0
    4.7080    1.4620   19.4860 C   0  0  0  0  0  0  0  0  0  0  0  0
    5.1910    1.2560   18.0670 C   0  0  0  0  0  0  0  0  0  0  0  0
    6.2890    0.5110   17.7730 N   0  0  0  0  0  0  0  0  0  0  0  0
    7.0720   -0.1240   18.7460 C   0  0  0  0  0  0  0  0  0  0  0  0
   11.0420   -0.3040   24.8530 C   0  0  0  0  0  0  0  0  0  0  0  0
   12.1950   -0.3230   24.1970 C   0  0  0  0  0  0  0  0  0  0  0  0
   11.9050    0.1190   22.9360 C   0  0  0  0  0  0  0  0  0  0  0  0
   10.5240    0.4670   22.6700 C   0  0  0  0  0  0  0  0  0  0  0  0
    9.4130    0.3740   23.6500 C   0  0  0  0  0  0  0  0  0  0  0  0
    7.4020    0.9400   23.2490 I   0  0  0  0  0  0  0  0  0  0  0  0
    9.7320   -0.0810   24.8910 C   0  0  0  0  0  0  0  0  0  0  0  0
  1  2  1  0
  2  3  1  0
  3  4  2  0
  3  5  1  0
  5  6  1  1
  6  7  1  0
  7  8  2  0
  7  9  1  0
  9 10  1  0
 10 11  2  0
 11 12  1  0
 12 13  2  0
 13 14  1  0
 10 15  1  0
 14 15  2  0
  5 16  1  0
 16 17  2  0
 17 18  1  0
 18 19  2  0
 19 20  1  0
 20 21  1  0
 16 22  1  0
 20 22  2  0
M  END
