pyridine_urea_14555
     RDKit          3D

 21 23  0  0  0  0  0  0  0  0999 V2000
    9.3530   -2.7830   22.3760 C   0  0  0  0  0  0  0  0  0  0  0  0
    9.7830   -1.3590   22.5580 C   0  0  2  0  0  0  0  0  0  0  0  0
    8.6980   -0.4240   22.5830 N   0  0  0  0  0  0  0  0  0  0  0  0
    8.1810    0.1360   21.4060 C   0  0  0  0  0  0  0  0  0  0  0  0
    8.7960    1.3670   20.9720 O   0  0  0  0  0  0  0  0  0  0  0  0
    7.1300   -0.5430   20.8660 N   0  0  0  0  0  0  0  0  0  0  0  0
    6.4020    0.1430   19.8640 C   0  0  0  0  0  0  0  0  0  0  0  0
    5.2060    0.7750   20.1410 C   0  0  0  0  0  0  0  0  0  0  0  0
    4.5030    1.4760   19.1710 C   0  0  0  0  0  0  0  0  0  0  0  0
    5.1090    1.5270   17.7630 C   0  0  0  0  0  0  0  0  0  0  0  0
    6.2890    0.8680   17.5570 N   0  0  0  0  0  0  0  0  0  0  0  0
    6.9020    0.1970   18.5970 C   0  0  0  0  0  0  0  0  0  0  0  0
   11.0300   -0.9460   21.9040 C   0  0  0  0  0  0  0  0  0  0  0  0
   12.2950   -1.3080   22.3870 C   0  0  0  0  0  0  0  0  0  0  0  0
   12.4260   -0.8630   23.6700 C   0  0  0  0  0  0  0  0  0  0  0  0
   11.1460   -0.7760   24.4090 C   0  0  0  0  0  0  0  0  0  0  0  0
   11.1990   -0.4580   25.6390 C   0  0  0  0  0  0  0  0  0  0  0  0
   10.0570   -0.3090   26.4480 C   0  0  0  0  0  0  0  0  0  0  0  0
    8.8070   -0.5120   25.9720 C   0  0  0  0  0  0  0  0  0  0  0  0
    8.7180   -0.8750   24.6700 C   0  0  0  0  0  0  0  0  0  0  0  0
    9.9060   -0.9940   23.9290 C   0  0  0  0  0  0  0  0  0  0  0  0
  2  1  1  1
  2  3  1  0
  3  4  1  0
  4  5  2  0
  4  6  1  0
  6  7  1  0
  7  8  2  0
  8  9  1  0
  9 10  2  0
 10 11  1  0
  7 12  1  0
 11 12  2  0
  2 13  1  0
 13 14  1  0
 14 15  1  0
 15 16  1  0
 16 17  2  0
 17 18  1  0
 18 19  2  0
 19 20  1  0
  2 21  1  0
 16 21  1  0
 20 21  2  0
M  END
