pyridine_urea_5897
     RDKit          3D

 28 31  0  0  0  0  0  0  0  0999 V2000
    8.8370    0.6160   21.2720 O   0  0  0  0  0  0  0  0  0  0  0  0
    8.2350   -0.4370   21.4240 C   0  0  0  0  0  0  0  0  0  0  0  0
    8.7360   -1.5430   22.1970 N   0  0  0  0  0  0  0  0  0  0  0  0
    8.9000   -1.2610   23.5290 C   0  0  0  0  0  0  0  0  0  0  0  0
    9.1230    0.0760   23.7850 C   0  0  0  0  0  0  0  0  0  0  0  0
    9.7100    1.4250   23.9930 C   0  0  0  0  0  0  0  0  0  0  0  0
   11.0340    1.9400   23.9240 C   0  0  0  0  0  0  0  0  0  0  0  0
   12.0570    1.0380   23.6050 C   0  0  0  0  0  0  0  0  0  0  0  0
   13.1560    1.1590   23.5210 O   0  0  0  0  0  0  0  0  0  0  0  0
   13.2170   -0.1810   23.8320 C   0  0  0  0  0  0  0  0  0  0  0  0
   13.0660   -0.6870   25.2420 C   0  0  0  0  0  0  0  0  0  0  0  0
   13.1690   -2.0140   25.3870 C   0  0  0  0  0  0  0  0  0  0  0  0
   13.3390   -2.8000   24.3440 C   0  0  0  0  0  0  0  0  0  0  0  0
   13.4300   -2.2990   23.0990 C   0  0  0  0  0  0  0  0  0  0  0  0
   13.5740   -3.0770   22.0680 C   0  0  0  0  0  0  0  0  0  0  0  0
   13.6960   -2.6780   20.8360 C   0  0  0  0  0  0  0  0  0  0  0  0
   13.7010   -1.3690   20.6350 C   0  0  0  0  0  0  0  0  0  0  0  0
   13.5240   -0.5220   21.6830 C   0  0  0  0  0  0  0  0  0  0  0  0
   13.3870   -1.0110   22.8820 C   0  0  0  0  0  0  0  0  0  0  0  0
   11.4320   -0.0740   23.4410 C   0  0  0  0  0  0  0  0  0  0  0  0
   10.2820   -0.6780   23.4600 C   0  0  0  0  0  0  0  0  0  0  0  0
    6.9890   -0.7390   20.9260 N   0  0  0  0  0  0  0  0  0  0  0  0
    6.3090    0.0040   19.9690 C   0  0  0  0  0  0  0  0  0  0  0  0
    5.1130    0.6940   20.1620 C   0  0  0  0  0  0  0  0  0  0  0  0
    4.5440    1.4130   19.1040 C   0  0  0  0  0  0  0  0  0  0  0  0
    5.1990    1.4130   17.8850 C   0  0  0  0  0  0  0  0  0  0  0  0
    6.3520    0.7470   17.6800 N   0  0  0  0  0  0  0  0  0  0  0  0
    6.8690    0.0670   18.7160 C   0  0  0  0  0  0  0  0  0  0  0  0
  1  2  2  0
  2  3  1  0
  3  4  1  0
  4  5  1  0
  5  6  2  0
  6  7  1  0
  7  8  2  0
  8  9  1  0
  9 10  1  0
 10 11  2  0
 11 12  1  0
 12 13  2  0
 13 14  1  0
 14 15  1  0
 15 16  2  0
 16 17  1  0
 17 18  2  0
 10 19  1  0
 14 19  2  0
 18 19  1  0
  8 20  1  0
  5 21  1  0
 20 21  2  0
  2 22  1  0
 22 23  1  0
 23 24  2  0
 24 25  1  0
 25 26  2  0
 26 27  1  0
 23 28  1  0
 27 28  2  0
M  END
