pyridine_urea_12605
     RDKit          3D

 21 22  0  0  0  0  0  0  0  0999 V2000
   12.2680    2.1240   22.9770 C   0  0  0  0  0  0  0  0  0  0  0  0
   11.5730    0.7740   22.8710 C   0  0  0  0  0  0  0  0  0  0  0  0
   10.1360    0.9640   22.2970 C   0  0  0  0  0  0  0  0  0  0  0  0
   12.5170   -0.2930   22.2920 C   0  0  0  0  0  0  0  0  0  0  0  0
   11.3690    0.1370   24.1800 C   0  0  2  0  0  0  0  0  0  0  0  0
   12.6190   -0.2360   24.5440 C   0  0  0  0  0  0  0  0  0  0  0  0
   13.1830   -1.4440   23.8210 C   0  0  0  0  0  0  0  0  0  0  0  0
   12.1900   -2.5000   23.4370 C   0  0  0  0  0  0  0  0  0  0  0  0
   11.0570   -2.2640   24.4130 C   0  0  0  0  0  0  0  0  0  0  0  0
   10.4700   -0.9190   24.0490 C   0  0  2  0  0  0  0  0  0  0  0  0
    9.9520   -1.1570   22.6360 C   0  0  0  0  0  0  0  0  0  0  0  0
    8.5190   -0.9660   22.5710 N   0  0  0  0  0  0  0  0  0  0  0  0
    8.0190   -0.1940   21.5580 C   0  0  0  0  0  0  0  0  0  0  0  0
    8.5060    0.8730   21.2130 O   0  0  0  0  0  0  0  0  0  0  0  0
    6.9160   -0.7440   20.9940 N   0  0  0  0  0  0  0  0  0  0  0  0
    6.2230    0.0090   19.9660 C   0  0  0  0  0  0  0  0  0  0  0  0
    5.0210    0.7010   20.1350 C   0  0  0  0  0  0  0  0  0  0  0  0
    4.5110    1.3900   19.0440 C   0  0  0  0  0  0  0  0  0  0  0  0
    5.1980    1.3660   17.8600 C   0  0  0  0  0  0  0  0  0  0  0  0
    6.3460    0.7090   17.6610 N   0  0  0  0  0  0  0  0  0  0  0  0
    6.8250    0.0470   18.7240 C   0  0  0  0  0  0  0  0  0  0  0  0
  2  1  1  0
  2  3  1  0
  2  4  1  0
  5  2  1  6
  5  6  1  0
  6  7  1  0
  7  8  1  0
  8  9  1  0
  5 10  1  0
  9 10  1  0
 10 11  1  6
 11 12  1  0
 12 13  1  0
 13 14  2  0
 13 15  1  0
 15 16  1  0
 16 17  2  0
 17 18  1  0
 18 19  2  0
 19 20  1  0
 16 21  1  0
 20 21  2  0
M  END
