pyridine_urea_14609
     RDKit          3D

 21 22  0  0  0  0  0  0  0  0999 V2000
   13.6210   -2.7420   25.3410 C   0  0  0  0  0  0  0  0  0  0  0  0
   12.1880   -2.5410   24.9230 C   0  0  0  0  0  0  0  0  0  0  0  0
   11.9450   -1.9470   23.7350 C   0  0  0  0  0  0  0  0  0  0  0  0
   12.4230   -2.5870   22.6210 C   0  0  0  0  0  0  0  0  0  0  0  0
   12.9920   -1.8370   21.8580 O   0  0  0  0  0  0  0  0  0  0  0  0
   13.2720   -0.6050   22.2950 C   0  0  0  0  0  0  0  0  0  0  0  0
   13.0890    0.7050   22.7500 C   0  0  0  0  0  0  0  0  0  0  0  0
   11.9200    1.6020   23.0420 C   0  0  0  0  0  0  0  0  0  0  0  0
   10.6840    1.1230   22.8740 C   0  0  0  0  0  0  0  0  0  0  0  0
   10.6340   -0.1530   22.4380 C   0  0  0  0  0  0  0  0  0  0  0  0
    9.3880   -0.7460   22.2020 N   0  0  0  0  0  0  0  0  0  0  0  0
    8.4320    0.0490   21.4190 C   0  0  0  0  0  0  0  0  0  0  0  0
    8.6960    1.2210   21.1120 O   0  0  0  0  0  0  0  0  0  0  0  0
    7.2710   -0.5980   21.0520 N   0  0  0  0  0  0  0  0  0  0  0  0
    6.4780    0.0300   20.0820 C   0  0  0  0  0  0  0  0  0  0  0  0
    5.2030    0.7570   20.2890 C   0  0  0  0  0  0  0  0  0  0  0  0
    4.5590    1.3550   19.2140 C   0  0  0  0  0  0  0  0  0  0  0  0
    5.1480    1.2420   17.9670 C   0  0  0  0  0  0  0  0  0  0  0  0
    6.2960    0.5850   17.7260 N   0  0  0  0  0  0  0  0  0  0  0  0
    6.9280   -0.0030   18.7710 C   0  0  0  0  0  0  0  0  0  0  0  0
   11.8310   -0.8790   22.1940 C   0  0  0  0  0  0  0  0  0  0  0  0
  1  2  1  0
  2  3  1  0
  3  4  1  0
  4  5  1  0
  5  6  1  0
  6  7  2  0
  7  8  1  0
  8  9  2  0
  9 10  1  0
 10 11  1  0
 11 12  1  0
 12 13  2  0
 12 14  1  0
 14 15  1  0
 15 16  2  0
 16 17  1  0
 17 18  2  0
 18 19  1  0
 15 20  1  0
 19 20  2  0
  6 21  1  0
 10 21  2  0
M  END
