pyridine_urea_9020
     RDKit          3D

 19 20  0  0  0  0  0  0  0  0999 V2000
    8.9670    1.1980   21.2120 O   0  0  0  0  0  0  0  0  0  0  0  0
    8.5040    0.0800   21.4740 C   0  0  0  0  0  0  0  0  0  0  0  0
    9.1050   -0.7590   22.3790 N   0  0  0  0  0  0  0  0  0  0  0  0
   10.4360   -0.4590   22.8520 C   0  0  0  0  0  0  0  0  0  0  0  0
   10.4090    0.4050   24.1310 C   0  0  0  0  0  0  0  0  0  0  0  0
    8.8560    0.3320   25.0150 S   0  0  0  0  0  0  0  0  0  0  0  0
    8.5880    1.6830   25.4570 O   0  0  0  0  0  0  0  0  0  0  0  0
    7.9360   -0.4110   24.1860 O   0  0  0  0  0  0  0  0  0  0  0  0
    9.1330   -0.6740   26.4760 C   0  0  0  0  0  0  0  0  0  0  0  0
    8.0140   -1.4160   26.8300 C   0  0  0  0  0  0  0  0  0  0  0  0
    7.8840   -1.7140   28.0250 C   0  0  0  0  0  0  0  0  0  0  0  0
    6.9120   -0.7380   27.5270 C   0  0  0  0  0  0  0  0  0  0  0  0
    7.3610   -0.4800   20.9510 N   0  0  0  0  0  0  0  0  0  0  0  0
    6.5640    0.1310   20.0410 C   0  0  0  0  0  0  0  0  0  0  0  0
    5.4020    0.8350   20.3040 C   0  0  0  0  0  0  0  0  0  0  0  0
    4.6710    1.4420   19.2910 C   0  0  0  0  0  0  0  0  0  0  0  0
    5.1580    1.3100   17.9870 C   0  0  0  0  0  0  0  0  0  0  0  0
    6.2740    0.6240   17.6940 N   0  0  0  0  0  0  0  0  0  0  0  0
    6.9390    0.0590   18.7180 C   0  0  0  0  0  0  0  0  0  0  0  0
  1  2  2  0
  2  3  1  0
  3  4  1  0
  4  5  1  0
  6  5  1  0
  6  7  2  0
  6  8  2  0
  6  9  1  0
  9 10  1  0
 10 11  1  0
 10 12  1  0
 11 12  1  0
  2 13  1  0
 13 14  1  0
 14 15  2  0
 15 16  1  0
 16 17  2  0
 17 18  1  0
 14 19  1  0
 18 19  2  0
M  END
