pyridine_urea_4794
     RDKit          3D

 21 23  0  0  0  0  0  0  0  0999 V2000
    7.9700    1.1760   20.7580 O   0  0  0  0  0  0  0  0  0  0  0  0
    7.7370    0.0640   21.2070 C   0  0  0  0  0  0  0  0  0  0  0  0
    8.5660   -0.4050   22.1040 N   0  0  0  0  0  0  0  0  0  0  0  0
    9.6100    0.5610   22.0710 C   0  0  0  0  0  0  0  0  0  0  0  0
   10.8720   -0.1410   22.3020 C   0  0  0  0  0  0  0  0  0  0  0  0
   10.0880    0.3350   23.3820 C   0  0  0  0  0  0  0  0  0  0  0  0
   10.2640    0.2680   24.7020 C   0  0  0  0  0  0  0  0  0  0  0  0
   11.3310   -0.3360   25.1310 C   0  0  0  0  0  0  0  0  0  0  0  0
   12.1540   -0.8200   24.2520 C   0  0  0  0  0  0  0  0  0  0  0  0
   11.9640   -0.7380   22.9330 C   0  0  0  0  0  0  0  0  0  0  0  0
   12.9700   -1.3420   22.2380 C   0  0  0  0  0  0  0  0  0  0  0  0
   12.9630   -2.6640   22.6160 C   0  0  0  0  0  0  0  0  0  0  0  0
   13.2230   -2.8040   23.9910 C   0  0  0  0  0  0  0  0  0  0  0  0
   13.2640   -1.4670   24.5800 C   0  0  0  0  0  0  0  0  0  0  0  0
    6.6950   -0.6850   20.8380 N   0  0  0  0  0  0  0  0  0  0  0  0
    6.0980   -0.0020   19.8410 C   0  0  0  0  0  0  0  0  0  0  0  0
    4.8350    0.6180   20.0810 C   0  0  0  0  0  0  0  0  0  0  0  0
    4.3230    1.3350   19.0320 C   0  0  0  0  0  0  0  0  0  0  0  0
    5.1260    1.3910   17.7690 C   0  0  0  0  0  0  0  0  0  0  0  0
    6.2900    0.7910   17.5800 N   0  0  0  0  0  0  0  0  0  0  0  0
    6.7430    0.1070   18.6300 C   0  0  0  0  0  0  0  0  0  0  0  0
  1  2  2  0
  2  3  1  0
  3  4  1  0
  4  5  1  0
  5  6  2  0
  6  7  1  0
  7  8  2  0
  8  9  1  0
  5 10  1  0
  9 10  2  0
 10 11  1  0
 11 12  1  0
 12 13  1  0
  9 14  1  0
 13 14  1  0
  2 15  1  0
 15 16  1  0
 16 17  2  0
 17 18  1  0
 18 19  2  0
 19 20  1  0
 16 21  1  0
 20 21  2  0
M  END
