pyridine_urea_2251
     RDKit          3D

 27 29  0  0  0  0  0  0  0  0999 V2000
    9.0000   -2.3680   24.8900 C   0  0  0  0  0  0  0  0  0  0  0  0
    9.7040   -1.3110   23.9520 C   0  0  0  0  0  0  0  0  0  0  0  0
    8.8900   -1.7480   22.9080 C   0  0  0  0  0  0  0  0  0  0  0  0
    9.0010   -1.1820   21.7200 C   0  0  0  0  0  0  0  0  0  0  0  0
    8.2600   -1.4740   20.6560 N   0  0  0  0  0  0  0  0  0  0  0  0
    7.5170   -0.3810   20.6780 C   0  0  0  0  0  0  0  0  0  0  0  0
    7.9970    0.7470   20.7040 O   0  0  0  0  0  0  0  0  0  0  0  0
    6.2410   -0.6860   20.7030 N   0  0  0  0  0  0  0  0  0  0  0  0
    5.7610    0.0980   19.7910 C   0  0  0  0  0  0  0  0  0  0  0  0
    4.6030    0.8440   19.9000 C   0  0  0  0  0  0  0  0  0  0  0  0
    4.2720    1.6400   18.8120 C   0  0  0  0  0  0  0  0  0  0  0  0
    5.0840    1.6560   17.6930 C   0  0  0  0  0  0  0  0  0  0  0  0
    6.2150    0.9590   17.5130 N   0  0  0  0  0  0  0  0  0  0  0  0
    6.5580    0.1890   18.5420 C   0  0  0  0  0  0  0  0  0  0  0  0
    9.9670   -0.1830   21.6900 C   0  0  0  0  0  0  0  0  0  0  0  0
   10.7780    0.2920   22.5880 C   0  0  0  0  0  0  0  0  0  0  0  0
   10.8430   -0.1530   23.9610 C   0  0  0  0  0  0  0  0  0  0  0  0
   11.6090    0.8780   23.4050 N   0  0  0  0  0  0  0  0  0  0  0  0
   10.7330    1.9360   22.9230 C   0  0  0  0  0  0  0  0  0  0  0  0
    9.8200    1.9050   21.8150 O   0  0  0  0  0  0  0  0  0  0  0  0
   10.4620    3.2040   23.5380 C   0  0  0  0  0  0  0  0  0  0  0  0
    9.2890    3.2580   24.3280 C   0  0  0  0  0  0  0  0  0  0  0  0
    8.8420    4.3690   25.0180 C   0  0  0  0  0  0  0  0  0  0  0  0
    9.6720    5.6460   24.9200 C   0  0  0  0  0  0  0  0  0  0  0  0
   10.9160    5.5580   24.0550 C   0  0  0  0  0  0  0  0  0  0  0  0
   11.2550    4.3730   23.4100 C   0  0  0  0  0  0  0  0  0  0  0  0
   12.9970    4.5620   22.2880 I   0  0  0  0  0  0  0  0  0  0  0  0
  1  2  1  0
  2  3  2  0
  3  4  1  0
  4  5  1  0
  5  6  1  0
  6  7  2  0
  6  8  1  0
  8  9  1  0
  9 10  2  0
 10 11  1  0
 11 12  2  0
 12 13  1  0
  9 14  1  0
 13 14  2  0
  4 15  2  0
 15 16  1  0
  2 17  1  0
 16 17  2  0
 17 18  1  0
 18 19  1  0
 19 20  2  0
 19 21  1  0
 21 22  2  0
 22 23  1  0
 23 24  2  0
 24 25  1  0
 21 26  1  0
 25 26  2  0
 26 27  1  0
M  END
