pyridine_urea_8941
     RDKit          3D

 20 21  0  0  0  0  0  0  0  0999 V2000
   12.8030   -1.5480   22.1770 C   0  0  0  0  0  0  0  0  0  0  0  0
   11.3120   -2.0310   22.0930 C   0  0  0  0  0  0  0  0  0  0  0  0
   10.4080   -0.8090   22.1180 C   0  0  1  0  0  0  0  0  0  0  0  0
    9.0260   -0.9090   22.5360 N   0  0  0  0  0  0  0  0  0  0  0  0
    8.2210   -0.1560   21.6790 C   0  0  0  0  0  0  0  0  0  0  0  0
    8.4930    1.0000   21.3870 O   0  0  0  0  0  0  0  0  0  0  0  0
    7.1200   -0.7740   21.1470 N   0  0  0  0  0  0  0  0  0  0  0  0
    6.4520   -0.1180   20.0890 C   0  0  0  0  0  0  0  0  0  0  0  0
    5.2540    0.5650   20.3350 C   0  0  0  0  0  0  0  0  0  0  0  0
    4.6120    1.2340   19.2900 C   0  0  0  0  0  0  0  0  0  0  0  0
    5.1860    1.2020   18.0260 C   0  0  0  0  0  0  0  0  0  0  0  0
    6.3260    0.5490   17.7680 N   0  0  0  0  0  0  0  0  0  0  0  0
    6.9280   -0.0940   18.7920 C   0  0  0  0  0  0  0  0  0  0  0  0
   11.2250    0.3560   22.5700 C   0  0  0  0  0  0  0  0  0  0  0  0
   10.1070    1.1820   22.4750 C   0  0  0  0  0  0  0  0  0  0  0  0
   10.3910    2.6280   22.8120 C   0  0  0  0  0  0  0  0  0  0  0  0
   11.6350    3.1390   23.1890 C   0  0  0  0  0  0  0  0  0  0  0  0
   11.8740    4.8110   23.5350 Cl  0  0  0  0  0  0  0  0  0  0  0  0
   12.6620    2.1170   23.2450 C   0  0  0  0  0  0  0  0  0  0  0  0
   11.4850    1.6400   22.8910 C   0  0  0  0  0  0  0  0  0  0  0  0
  1  2  1  0
  3  2  1  1
  3  4  1  0
  4  5  1  0
  5  6  2  0
  5  7  1  0
  7  8  1  0
  8  9  2  0
  9 10  1  0
 10 11  2  0
 11 12  1  0
  8 13  1  0
 12 13  2  0
  3 14  1  0
 14 15  2  0
 15 16  1  0
 16 17  2  0
 17 18  1  0
 17 19  1  0
 14 20  1  0
 19 20  2  0
M  END
