pyridine_urea_12127
     RDKit          3D

 23 24  0  0  0  0  0  0  0  0999 V2000
   13.3580   -2.9940   20.8290 C   0  0  0  0  0  0  0  0  0  0  0  0
   13.8100   -1.8690   20.7700 O   0  0  0  0  0  0  0  0  0  0  0  0
   12.9250   -1.1620   21.5490 N   0  0  0  0  0  0  0  0  0  0  0  0
   13.4360   -0.3200   22.5560 C   0  0  0  0  0  0  0  0  0  0  0  0
   11.7560   -1.7710   21.7430 C   0  0  0  0  0  0  0  0  0  0  0  0
   11.1420   -2.8200   21.0660 O   0  0  0  0  0  0  0  0  0  0  0  0
   11.1990   -1.2610   22.7790 C   0  0  0  0  0  0  0  0  0  0  0  0
   12.1090   -1.0540   23.7410 C   0  0  0  0  0  0  0  0  0  0  0  0
   11.8170   -0.5360   24.9250 C   0  0  0  0  0  0  0  0  0  0  0  0
   12.8320   -0.4040   25.7740 F   0  0  0  0  0  0  0  0  0  0  0  0
   10.5140   -0.1680   25.2460 C   0  0  0  0  0  0  0  0  0  0  0  0
    9.5070   -0.3970   24.1560 C   0  0  0  0  0  0  0  0  0  0  0  0
    9.8710   -0.9430   22.9430 C   0  0  0  0  0  0  0  0  0  0  0  0
    8.9300   -1.1440   21.9880 N   0  0  0  0  0  0  0  0  0  0  0  0
    8.1430   -0.1800   21.3670 C   0  0  0  0  0  0  0  0  0  0  0  0
    8.5230    0.9560   21.1200 O   0  0  0  0  0  0  0  0  0  0  0  0
    6.9180   -0.6360   21.0570 N   0  0  0  0  0  0  0  0  0  0  0  0
    6.3060    0.0360   20.0700 C   0  0  0  0  0  0  0  0  0  0  0  0
    5.1320    0.7710   20.2250 C   0  0  0  0  0  0  0  0  0  0  0  0
    4.5790    1.4430   19.1350 C   0  0  0  0  0  0  0  0  0  0  0  0
    5.2170    1.3630   17.9110 C   0  0  0  0  0  0  0  0  0  0  0  0
    6.3440    0.6670   17.7130 N   0  0  0  0  0  0  0  0  0  0  0  0
    6.8910   -0.0080   18.8110 C   0  0  0  0  0  0  0  0  0  0  0  0
  1  2  1  0
  2  3  1  0
  3  4  1  0
  3  5  1  0
  5  6  2  0
  5  7  1  0
  7  8  2  0
  8  9  1  0
  9 10  1  0
  9 11  2  0
 11 12  1  0
  7 13  1  0
 12 13  2  0
 13 14  1  0
 14 15  1  0
 15 16  2  0
 15 17  1  0
 17 18  1  0
 18 19  2  0
 19 20  1  0
 20 21  2  0
 21 22  1  0
 18 23  1  0
 22 23  2  0
M  END
