pyridine_urea_776
     RDKit          3D

 23 24  0  0  0  0  0  0  0  0999 V2000
   10.7930   -1.4380   22.0250 C   0  0  0  0  0  0  0  0  0  0  0  0
   10.1810   -0.5730   23.0900 C   0  0  2  0  0  0  0  0  0  0  0  0
    8.7760   -0.3360   22.8130 N   0  0  0  0  0  0  0  0  0  0  0  0
    8.3930    0.2460   21.6320 C   0  0  0  0  0  0  0  0  0  0  0  0
    8.9450    1.2490   21.1660 O   0  0  0  0  0  0  0  0  0  0  0  0
    7.3290   -0.4200   21.0870 N   0  0  0  0  0  0  0  0  0  0  0  0
    6.5520    0.1820   19.9980 C   0  0  0  0  0  0  0  0  0  0  0  0
    5.3980    0.8810   20.3400 C   0  0  0  0  0  0  0  0  0  0  0  0
    4.5860    1.5380   19.2900 C   0  0  0  0  0  0  0  0  0  0  0  0
    5.1470    1.3540   17.9020 C   0  0  0  0  0  0  0  0  0  0  0  0
    6.2640    0.6540   17.6320 N   0  0  0  0  0  0  0  0  0  0  0  0
    6.9270    0.0930   18.6710 C   0  0  0  0  0  0  0  0  0  0  0  0
   10.9910    0.7320   23.2400 C   0  0  0  0  0  0  0  0  0  0  0  0
   10.6090    1.9570   22.9390 C   0  0  0  0  0  0  0  0  0  0  0  0
   11.8540    1.7150   23.4390 C   0  0  0  0  0  0  0  0  0  0  0  0
   11.3170    0.3150   23.4040 C   0  0  0  0  0  0  0  0  0  0  0  0
   12.2170   -0.6560   23.8890 C   0  0  0  0  0  0  0  0  0  0  0  0
   13.4060   -0.9680   24.4060 O   0  0  0  0  0  0  0  0  0  0  0  0
   13.4580   -2.3560   24.6620 C   0  0  0  0  0  0  0  0  0  0  0  0
   14.1730   -2.6560   25.7610 F   0  0  0  0  0  0  0  0  0  0  0  0
   13.9150   -3.0010   23.5820 F   0  0  0  0  0  0  0  0  0  0  0  0
   12.1970   -2.7910   24.8660 F   0  0  0  0  0  0  0  0  0  0  0  0
   12.3150    0.5990   23.7640 C   0  0  0  0  0  0  0  0  0  0  0  0
  2  1  1  6
  2  3  1  0
  3  4  1  0
  4  5  2  0
  4  6  1  0
  6  7  1  0
  7  8  2  0
  8  9  1  0
  9 10  2  0
 10 11  1  0
  7 12  1  0
 11 12  2  0
  2 13  1  0
 13 14  2  0
 14 15  1  0
 15 16  2  0
 16 17  1  0
 17 18  1  0
 18 19  1  0
 19 20  1  0
 19 21  1  0
 19 22  1  0
 13 23  1  0
 17 23  2  0
M  END
