pyridine_urea_5858
     RDKit          3D

 22 24  0  0  0  0  0  0  0  0999 V2000
    8.7430    1.4790   21.1950 O   0  0  0  0  0  0  0  0  0  0  0  0
    8.5370    0.2680   21.3040 C   0  0  0  0  0  0  0  0  0  0  0  0
    9.5940   -0.6470   21.6540 N   0  0  0  0  0  0  0  0  0  0  0  0
   10.6480   -0.0620   22.3580 C   0  0  0  0  0  0  0  0  0  0  0  0
   11.9400   -0.6270   22.2640 C   0  0  1  0  0  0  0  0  0  0  0  0
   12.9210   -0.1010   22.9330 C   0  0  0  0  0  0  0  0  0  0  0  0
   12.4810   -1.0380   23.7350 C   0  0  1  0  0  0  0  0  0  0  0  0
   11.2010   -1.0490   24.4520 C   0  0  0  0  0  0  0  0  0  0  0  0
    9.7690   -1.3660   24.7010 C   0  0  0  0  0  0  0  0  0  0  0  0
   10.0440   -1.9710   23.5280 F   0  0  0  0  0  0  0  0  0  0  0  0
    8.4900   -2.0050   24.3150 C   0  0  0  0  0  0  0  0  0  0  0  0
    8.5880   -2.6470   23.1670 C   0  0  0  0  0  0  0  0  0  0  0  0
    9.8800   -2.5460   22.6360 C   0  0  0  0  0  0  0  0  0  0  0  0
   11.0040   -1.8430   23.2230 C   0  0  0  0  0  0  0  0  0  0  0  0
   12.0970   -1.9720   22.4310 F   0  0  0  0  0  0  0  0  0  0  0  0
    7.3200   -0.3430   21.0560 N   0  0  0  0  0  0  0  0  0  0  0  0
    6.4980    0.2050   20.0750 C   0  0  0  0  0  0  0  0  0  0  0  0
    5.3220    0.8950   20.2910 C   0  0  0  0  0  0  0  0  0  0  0  0
    4.5920    1.4320   19.2480 C   0  0  0  0  0  0  0  0  0  0  0  0
    5.1100    1.2330   17.9820 C   0  0  0  0  0  0  0  0  0  0  0  0
    6.2330    0.5630   17.7010 N   0  0  0  0  0  0  0  0  0  0  0  0
    6.8980    0.0650   18.7570 C   0  0  0  0  0  0  0  0  0  0  0  0
  1  2  2  0
  2  3  1  0
  3  4  1  0
  5  4  1  1
  5  6  1  0
  5  7  1  0
  6  7  1  0
  7  8  1  1
  8  9  2  0
  9 10  1  0
  9 11  1  0
 11 12  2  0
 12 13  1  0
  8 14  1  0
 13 14  2  0
 14 15  1  0
  2 16  1  0
 16 17  1  0
 17 18  2  0
 18 19  1  0
 19 20  2  0
 20 21  1  0
 17 22  1  0
 21 22  2  0
M  END
