pyridine_urea_8923
     RDKit          3D

 20 22  0  0  0  0  0  0  0  0999 V2000
    8.3740    1.4180   20.9220 O   0  0  0  0  0  0  0  0  0  0  0  0
    8.2130    0.2870   21.3840 C   0  0  0  0  0  0  0  0  0  0  0  0
    7.1070   -0.4480   21.0920 N   0  0  0  0  0  0  0  0  0  0  0  0
    6.4940    0.1010   19.9390 C   0  0  0  0  0  0  0  0  0  0  0  0
    5.2240    0.9210   20.1880 C   0  0  0  0  0  0  0  0  0  0  0  0
    4.5720    1.5250   19.1250 C   0  0  0  0  0  0  0  0  0  0  0  0
    5.1190    1.3550   17.8590 C   0  0  0  0  0  0  0  0  0  0  0  0
    6.2510    0.6030   17.6830 N   0  0  0  0  0  0  0  0  0  0  0  0
    6.9540   -0.0350   18.6970 C   0  0  0  0  0  0  0  0  0  0  0  0
    9.0840   -0.3330   22.1790 N   0  0  0  0  0  0  0  0  0  0  0  0
   10.0710   -0.7910   22.9240 C   0  0  2  0  0  0  0  0  0  0  0  0
   10.4330    0.1940   23.8570 C   0  0  0  0  0  0  0  0  0  0  0  0
   11.7040    0.6780   23.5860 C   0  0  0  0  0  0  0  0  0  0  0  0
   12.3500   -0.4090   22.9170 N   0  0  0  0  0  0  0  0  0  0  0  0
   13.1950   -1.1300   23.6900 C   0  0  0  0  0  0  0  0  0  0  0  0
   13.2840   -2.4970   23.3880 C   0  0  0  0  0  0  0  0  0  0  0  0
   12.9030   -2.6610   24.7300 C   0  0  0  0  0  0  0  0  0  0  0  0
   12.8130   -1.3350   25.0860 C   0  0  0  0  0  0  0  0  0  0  0  0
   11.3240   -1.0750   22.4370 C   0  0  0  0  0  0  0  0  0  0  0  0
   11.5950   -2.0640   21.4330 O   0  0  0  0  0  0  0  0  0  0  0  0
  1  2  2  0
  2  3  1  0
  3  4  1  0
  4  5  2  0
  5  6  1  0
  6  7  2  0
  7  8  1  0
  4  9  1  0
  8  9  2  0
  2 10  1  0
 11 10  1  6
 11 12  1  0
 12 13  1  0
 13 14  1  0
 14 15  1  0
 15 16  1  0
 16 17  1  0
 15 18  1  0
 17 18  1  0
 11 19  1  0
 14 19  1  0
 19 20  2  0
M  END
