pyridine_urea_4325
     RDKit          3D

 24 26  0  0  0  0  0  0  0  0999 V2000
    7.8990    2.8430   22.1420 C   0  0  0  0  0  0  0  0  0  0  0  0
    9.0750    2.3870   22.7140 N   0  0  0  0  0  0  0  0  0  0  0  0
   10.0140    3.1700   23.2070 C   0  0  0  0  0  0  0  0  0  0  0  0
   11.2010    2.4800   23.7780 C   0  0  0  0  0  0  0  0  0  0  0  0
   10.6780    0.9930   23.4610 C   0  0  0  0  0  0  0  0  0  0  0  0
   10.1080   -0.3770   23.1250 C   0  0  1  0  0  0  0  0  0  0  0  0
    8.8580   -0.5580   22.5110 N   0  0  0  0  0  0  0  0  0  0  0  0
    8.3650    0.1210   21.4300 C   0  0  0  0  0  0  0  0  0  0  0  0
    8.8520    1.1870   21.0430 O   0  0  0  0  0  0  0  0  0  0  0  0
    7.2730   -0.5330   20.8960 N   0  0  0  0  0  0  0  0  0  0  0  0
    6.4620    0.1140   19.9720 C   0  0  0  0  0  0  0  0  0  0  0  0
    5.2740    0.7900   20.2410 C   0  0  0  0  0  0  0  0  0  0  0  0
    4.5930    1.4130   19.2010 C   0  0  0  0  0  0  0  0  0  0  0  0
    5.1320    1.3280   17.9330 C   0  0  0  0  0  0  0  0  0  0  0  0
    6.2640    0.6710   17.6540 N   0  0  0  0  0  0  0  0  0  0  0  0
    6.8940    0.0870   18.6740 C   0  0  0  0  0  0  0  0  0  0  0  0
   11.2660   -0.8120   22.5920 C   0  0  0  0  0  0  0  0  0  0  0  0
   12.6350   -1.4470   22.3600 C   0  0  0  0  0  0  0  0  0  0  0  0
   13.6250   -2.1850   23.0790 C   0  0  0  0  0  0  0  0  0  0  0  0
   13.0110   -2.3050   24.4040 C   0  0  0  0  0  0  0  0  0  0  0  0
   13.6840   -2.9660   25.3660 F   0  0  0  0  0  0  0  0  0  0  0  0
   11.8470   -1.8140   24.7270 C   0  0  0  0  0  0  0  0  0  0  0  0
   11.0610   -1.1450   23.9320 C   0  0  0  0  0  0  0  0  0  0  0  0
    9.4500    1.1620   22.8600 N   0  0  0  0  0  0  0  0  0  0  0  0
  1  2  1  0
  2  3  1  0
  3  4  2  0
  4  5  1  0
  5  6  1  0
  6  7  1  6
  7  8  1  0
  8  9  2  0
  8 10  1  0
 10 11  1  0
 11 12  2  0
 12 13  1  0
 13 14  2  0
 14 15  1  0
 11 16  1  0
 15 16  2  0
  6 17  1  0
 17 18  2  0
 18 19  1  0
 19 20  2  0
 20 21  1  0
 20 22  1  0
 17 23  1  0
 22 23  2  0
  2 24  1  0
  5 24  2  0
M  END
