pyridine_urea_1960
     RDKit          3D

 24 26  0  0  0  0  0  0  0  0999 V2000
    8.7010   -5.5150   27.6040 C   0  0  0  0  0  0  0  0  0  0  0  0
    8.0170   -4.3520   28.0860 O   0  0  0  0  0  0  0  0  0  0  0  0
    7.1120   -3.8020   27.2170 C   0  0  0  0  0  0  0  0  0  0  0  0
    5.8980   -3.7770   27.4310 O   0  0  0  0  0  0  0  0  0  0  0  0
    7.7920   -3.2260   25.9650 C   0  0  0  0  0  0  0  0  0  0  0  0
    8.0920   -1.7350   26.0170 C   0  0  0  0  0  0  0  0  0  0  0  0
    8.7590   -1.1100   24.8300 C   0  0  0  0  0  0  0  0  0  0  0  0
    9.0930   -1.8830   23.7240 C   0  0  0  0  0  0  0  0  0  0  0  0
    9.7290   -1.3580   22.6010 C   0  0  0  0  0  0  0  0  0  0  0  0
    8.8040   -1.1160   21.5750 N   0  0  0  0  0  0  0  0  0  0  0  0
    8.2080    0.0680   21.4620 C   0  0  0  0  0  0  0  0  0  0  0  0
    8.8630    1.1000   21.4950 O   0  0  0  0  0  0  0  0  0  0  0  0
    6.8790   -0.1040   21.2780 N   0  0  0  0  0  0  0  0  0  0  0  0
    6.2960    0.3910   20.1420 C   0  0  0  0  0  0  0  0  0  0  0  0
    5.1280    1.1350   20.1760 C   0  0  0  0  0  0  0  0  0  0  0  0
    4.5320    1.6700   19.0340 C   0  0  0  0  0  0  0  0  0  0  0  0
    5.1390    1.4480   17.7870 C   0  0  0  0  0  0  0  0  0  0  0  0
    6.2520    0.7380   17.6280 N   0  0  0  0  0  0  0  0  0  0  0  0
    6.8140    0.2270   18.7250 C   0  0  0  0  0  0  0  0  0  0  0  0
   11.1800   -1.3320   22.2910 C   0  0  0  0  0  0  0  0  0  0  0  0
   10.6500   -2.3880   22.2170 C   0  0  0  0  0  0  0  0  0  0  0  0
    8.7640   -3.2570   23.7710 C   0  0  0  0  0  0  0  0  0  0  0  0
    8.1480   -3.9300   24.8130 C   0  0  0  0  0  0  0  0  0  0  0  0
    7.9060   -5.4220   24.6100 C   0  0  0  0  0  0  0  0  0  0  0  0
  1  2  1  0
  2  3  1  0
  3  4  2  0
  3  5  1  0
  5  6  2  0
  6  7  1  0
  7  8  2  0
  8  9  1  0
  9 10  1  0
 10 11  1  0
 11 12  2  0
 11 13  1  0
 13 14  1  0
 14 15  2  0
 15 16  1  0
 16 17  2  0
 17 18  1  0
 14 19  1  0
 18 19  2  0
  9 20  1  0
  9 21  1  0
 20 21  1  0
  8 22  1  0
  5 23  1  0
 22 23  2  0
 23 24  1  0
M  END
