pyridine_urea_3498
     RDKit          3D

 18 18  0  0  0  0  0  0  0  0999 V2000
   12.8670   -0.9110   24.4250 C   0  0  0  0  0  0  0  0  0  0  0  0
   13.2530   -1.2750   23.0390 C   0  0  0  0  0  0  0  0  0  0  0  0
   13.4260   -0.0080   22.3020 C   0  0  0  0  0  0  0  0  0  0  0  0
   12.1420   -1.9760   22.3700 C   0  0  0  0  0  0  0  0  0  0  0  0
   10.8880   -1.1980   22.5790 C   0  0  2  0  0  0  0  0  0  0  0  0
    9.9030   -1.5230   23.7030 C   0  0  0  0  0  0  0  0  0  0  0  0
   10.4650   -1.4650   24.7680 O   0  0  0  0  0  0  0  0  0  0  0  0
    9.5440   -1.7050   22.2790 C   0  0  0  0  0  0  0  0  0  0  0  0
    8.5530   -0.6790   22.5460 N   0  0  0  0  0  0  0  0  0  0  0  0
    8.1750    0.1140   21.5120 C   0  0  0  0  0  0  0  0  0  0  0  0
    8.8210    1.2890   21.1540 O   0  0  0  0  0  0  0  0  0  0  0  0
    7.0750   -0.4400   20.9280 N   0  0  0  0  0  0  0  0  0  0  0  0
    6.3450    0.2020   19.9540 C   0  0  0  0  0  0  0  0  0  0  0  0
    5.1640    0.8850   20.1510 C   0  0  0  0  0  0  0  0  0  0  0  0
    4.5460    1.5060   19.0780 C   0  0  0  0  0  0  0  0  0  0  0  0
    5.1520    1.4130   17.8320 C   0  0  0  0  0  0  0  0  0  0  0  0
    6.2930    0.7440   17.6270 N   0  0  0  0  0  0  0  0  0  0  0  0
    6.8550    0.1580   18.6830 C   0  0  0  0  0  0  0  0  0  0  0  0
  1  2  1  0
  2  3  1  0
  2  4  1  0
  5  4  1  1
  5  6  1  0
  6  7  1  0
  5  8  1  0
  8  9  1  0
  9 10  1  0
 10 11  2  0
 10 12  1  0
 12 13  1  0
 13 14  2  0
 14 15  1  0
 15 16  2  0
 16 17  1  0
 13 18  1  0
 17 18  2  0
M  END
