pyridine_urea_15037
     RDKit          3D

 19 20  0  0  0  0  0  0  0  0999 V2000
    7.5800   -2.7110   22.4600 C   0  0  0  0  0  0  0  0  0  0  0  0
    8.9310   -2.0600   22.7860 C   0  0  2  0  0  0  0  0  0  0  0  0
    9.3910   -2.5430   24.1660 C   0  0  0  0  0  0  0  0  0  0  0  0
    8.5420   -3.3580   24.8540 N   0  0  0  0  0  0  0  0  0  0  0  0
    8.9770   -4.5980   25.1470 C   0  0  0  0  0  0  0  0  0  0  0  0
    8.3970   -5.0840   26.4580 C   0  0  0  0  0  0  0  0  0  0  0  0
    7.4080   -4.0110   26.8690 C   0  0  0  0  0  0  0  0  0  0  0  0
    7.6190   -2.9020   25.8020 C   0  0  0  0  0  0  0  0  0  0  0  0
    7.0010   -1.8520   25.9180 O   0  0  0  0  0  0  0  0  0  0  0  0
    8.7420   -0.6940   22.7880 N   0  0  0  0  0  0  0  0  0  0  0  0
    8.3120   -0.0020   21.6200 C   0  0  0  0  0  0  0  0  0  0  0  0
    8.9450    1.1510   21.1750 O   0  0  0  0  0  0  0  0  0  0  0  0
    7.2260   -0.6060   21.0780 N   0  0  0  0  0  0  0  0  0  0  0  0
    6.5850    0.0150   20.0560 C   0  0  0  0  0  0  0  0  0  0  0  0
    5.4770    0.7980   20.3740 C   0  0  0  0  0  0  0  0  0  0  0  0
    4.7890    1.4570   19.3760 C   0  0  0  0  0  0  0  0  0  0  0  0
    5.2030    1.3360   18.0790 C   0  0  0  0  0  0  0  0  0  0  0  0
    6.2670    0.5910   17.6810 N   0  0  0  0  0  0  0  0  0  0  0  0
    7.0090   -0.1180   18.7300 C   0  0  0  0  0  0  0  0  0  0  0  0
  2  1  1  1
  2  3  1  0
  3  4  1  0
  4  5  1  0
  5  6  1  0
  6  7  1  0
  4  8  1  0
  7  8  1  0
  8  9  2  0
  2 10  1  0
 10 11  1  0
 11 12  2  0
 11 13  1  0
 13 14  1  0
 14 15  2  0
 15 16  1  0
 16 17  2  0
 17 18  1  0
 14 19  1  0
 18 19  2  0
M  END
