pyridine_urea_5003
     RDKit          3D

 21 22  0  0  0  0  0  0  0  0999 V2000
   12.6060    3.2760   22.8030 C   0  0  0  0  0  0  0  0  0  0  0  0
   12.9170    2.1140   23.5760 O   0  0  0  0  0  0  0  0  0  0  0  0
   12.5850    0.9250   23.0950 C   0  0  0  0  0  0  0  0  0  0  0  0
   13.5250    0.0320   22.6540 C   0  0  0  0  0  0  0  0  0  0  0  0
   12.6480   -0.9290   22.2620 C   0  0  0  0  0  0  0  0  0  0  0  0
   11.2930   -1.0060   22.2810 C   0  0  0  0  0  0  0  0  0  0  0  0
   10.9690   -2.0810   21.8000 O   0  0  0  0  0  0  0  0  0  0  0  0
   10.1840   -0.0470   22.7700 C   0  0  0  0  0  0  0  0  0  0  0  0
    9.6380   -1.1680   22.2590 C   0  0  1  0  0  0  0  0  0  0  0  0
   10.0550   -2.5700   22.5870 C   0  0  0  0  0  0  0  0  0  0  0  0
    8.2800   -0.9890   22.5030 N   0  0  0  0  0  0  0  0  0  0  0  0
    7.7900   -0.1160   21.6040 C   0  0  0  0  0  0  0  0  0  0  0  0
    8.3660    0.9420   21.3490 O   0  0  0  0  0  0  0  0  0  0  0  0
    6.6520   -0.5740   21.0410 N   0  0  0  0  0  0  0  0  0  0  0  0
    6.1510    0.0870   19.9440 C   0  0  0  0  0  0  0  0  0  0  0  0
    4.9610    0.7890   20.0810 C   0  0  0  0  0  0  0  0  0  0  0  0
    4.4590    1.4790   18.9820 C   0  0  0  0  0  0  0  0  0  0  0  0
    5.1660    1.4390   17.7930 C   0  0  0  0  0  0  0  0  0  0  0  0
    6.3150    0.7540   17.6470 N   0  0  0  0  0  0  0  0  0  0  0  0
    6.7830    0.0960   18.7150 C   0  0  0  0  0  0  0  0  0  0  0  0
   11.2450    0.9230   23.1710 C   0  0  0  0  0  0  0  0  0  0  0  0
  1  2  1  0
  2  3  1  0
  3  4  2  0
  4  5  1  0
  5  6  2  0
  6  7  1  0
  6  8  1  0
  8  9  1  0
  9 10  1  1
  9 11  1  0
 11 12  1  0
 12 13  2  0
 12 14  1  0
 14 15  1  0
 15 16  2  0
 16 17  1  0
 17 18  2  0
 18 19  1  0
 15 20  1  0
 19 20  2  0
  3 21  1  0
  8 21  2  0
M  END
