pyridine_urea_15237
     RDKit          3D

 18 19  0  0  0  0  0  0  0  0999 V2000
   13.8900   -1.5570   22.3180 N   0  0  0  0  0  0  0  0  0  0  0  0
   13.0940   -0.6120   22.6460 C   0  0  0  0  0  0  0  0  0  0  0  0
   13.4380    0.6920   23.0610 O   0  0  0  0  0  0  0  0  0  0  0  0
   11.7770   -1.1650   22.4900 C   0  0  0  0  0  0  0  0  0  0  0  0
   10.3480   -1.1780   22.4810 C   0  0  0  0  0  0  0  0  0  0  0  0
    9.5670   -0.0480   22.7890 C   0  0  0  0  0  0  0  0  0  0  0  0
    8.1920   -0.2510   22.7080 N   0  0  0  0  0  0  0  0  0  0  0  0
    7.8410    0.2230   21.5050 C   0  0  0  0  0  0  0  0  0  0  0  0
    8.4540    1.1840   21.0030 O   0  0  0  0  0  0  0  0  0  0  0  0
    6.8040   -0.4550   20.9670 N   0  0  0  0  0  0  0  0  0  0  0  0
    6.2320    0.1590   19.8950 C   0  0  0  0  0  0  0  0  0  0  0  0
    4.9200    0.9050   20.1050 C   0  0  0  0  0  0  0  0  0  0  0  0
    4.4870    1.5080   18.9420 C   0  0  0  0  0  0  0  0  0  0  0  0
    5.1660    1.4340   17.7460 C   0  0  0  0  0  0  0  0  0  0  0  0
    6.3090    0.7600   17.5870 N   0  0  0  0  0  0  0  0  0  0  0  0
    6.8210    0.1370   18.6570 C   0  0  0  0  0  0  0  0  0  0  0  0
   10.1490    1.2420   23.1370 C   0  0  0  0  0  0  0  0  0  0  0  0
   11.7140    0.5300   22.9530 S   0  0  0  0  0  0  0  0  0  0  0  0
  1  2  1  0
  2  3  2  0
  2  4  1  0
  4  5  2  0
  5  6  1  0
  6  7  1  0
  7  8  1  0
  8  9  2  0
  8 10  1  0
 10 11  1  0
 11 12  2  0
 12 13  1  0
 13 14  2  0
 14 15  1  0
 11 16  1  0
 15 16  2  0
  6 17  2  0
  4 18  1  0
 17 18  1  0
M  END
