pyridine_urea_14642
     RDKit          3D

 20 21  0  0  0  0  0  0  0  0999 V2000
    8.6480   -1.8770   23.2770 C   0  0  0  0  0  0  0  0  0  0  0  0
   10.1350   -1.7130   22.9480 C   0  0  0  0  0  0  0  0  0  0  0  0
   10.8190   -1.3060   23.9880 C   0  0  0  0  0  0  0  0  0  0  0  0
   12.1000   -1.1180   23.9240 C   0  0  0  0  0  0  0  0  0  0  0  0
   12.8340   -0.6590   25.3930 Br  0  0  0  0  0  0  0  0  0  0  0  0
   12.8180   -1.2770   22.8670 C   0  0  0  0  0  0  0  0  0  0  0  0
   12.1610   -1.6880   21.7930 C   0  0  0  0  0  0  0  0  0  0  0  0
   13.0070   -1.8390   20.7600 F   0  0  0  0  0  0  0  0  0  0  0  0
   10.6290   -1.9940   21.6550 C   0  0  0  0  0  0  0  0  0  0  0  0
    9.3110   -2.1670   21.8580 C   0  0  0  0  0  0  0  0  0  0  0  0
    8.7830   -1.2350   20.9100 N   0  0  0  0  0  0  0  0  0  0  0  0
    8.2080    0.0330   21.3390 C   0  0  0  0  0  0  0  0  0  0  0  0
    8.8500    1.0230   21.6430 O   0  0  0  0  0  0  0  0  0  0  0  0
    6.7910   -0.1340   21.2950 N   0  0  0  0  0  0  0  0  0  0  0  0
    6.2350    0.3840   20.1460 C   0  0  0  0  0  0  0  0  0  0  0  0
    5.0750    1.1470   20.2030 C   0  0  0  0  0  0  0  0  0  0  0  0
    4.4920    1.7230   18.9690 C   0  0  0  0  0  0  0  0  0  0  0  0
    5.1270    1.4900   17.7560 C   0  0  0  0  0  0  0  0  0  0  0  0
    6.2840    0.7040   17.7630 N   0  0  0  0  0  0  0  0  0  0  0  0
    6.8070    0.1790   18.8920 C   0  0  0  0  0  0  0  0  0  0  0  0
  1  2  1  0
  2  3  2  0
  3  4  1  0
  4  5  1  0
  4  6  2  0
  6  7  1  0
  7  8  1  0
  2  9  1  0
  7  9  2  0
  9 10  1  0
 10 11  1  0
 11 12  1  0
 12 13  2  0
 12 14  1  0
 14 15  1  0
 15 16  2  0
 16 17  1  0
 17 18  2  0
 18 19  1  0
 15 20  1  0
 19 20  2  0
M  END
