pyridine_urea_5973
     RDKit          3D

 26 28  0  0  0  0  0  0  0  0999 V2000
   17.7910    4.0300   24.2440 C   0  0  0  0  0  0  0  0  0  0  0  0
   16.5690    4.7870   24.4650 C   0  0  2  0  0  0  0  0  0  0  0  0
   14.5750    4.6810   23.7220 C   0  0  0  0  0  0  0  0  0  0  0  0
   13.5970    5.4520   23.7930 O   0  0  0  0  0  0  0  0  0  0  0  0
   14.0290    3.3980   22.8740 N   0  0  0  0  0  0  0  0  0  0  0  0
   12.9020    2.4370   22.9660 C   0  0  0  0  0  0  0  0  0  0  0  0
   11.6140    2.9080   23.2490 C   0  0  0  0  0  0  0  0  0  0  0  0
   10.4110    1.9860   23.2950 C   0  0  0  0  0  0  0  0  0  0  0  0
   10.5120    0.5020   23.0370 C   0  0  0  0  0  0  0  0  0  0  0  0
    9.2680   -0.3060   23.0520 N   0  0  0  0  0  0  0  0  0  0  0  0
    8.6470   -0.4820   21.8010 C   0  0  0  0  0  0  0  0  0  0  0  0
    9.2380   -0.9150   20.8870 O   0  0  0  0  0  0  0  0  0  0  0  0
    7.3050   -0.1280   21.6590 N   0  0  0  0  0  0  0  0  0  0  0  0
    6.6540    0.2600   20.4320 C   0  0  0  0  0  0  0  0  0  0  0  0
    5.5100    1.0640   20.5250 C   0  0  0  0  0  0  0  0  0  0  0  0
    4.8350    1.4830   19.3710 C   0  0  0  0  0  0  0  0  0  0  0  0
    5.3150    1.0940   18.1400 C   0  0  0  0  0  0  0  0  0  0  0  0
    6.4030    0.3220   18.0000 N   0  0  0  0  0  0  0  0  0  0  0  0
    7.0460   -0.0830   19.1320 C   0  0  0  0  0  0  0  0  0  0  0  0
   11.8420    0.1220   22.7990 C   0  0  0  0  0  0  0  0  0  0  0  0
   12.9830    0.9950   22.7610 C   0  0  0  0  0  0  0  0  0  0  0  0
   18.3340    5.5760   24.2990 N   0  0  0  0  0  0  0  0  0  0  0  0
   19.2360    6.8470   24.6130 C   0  0  0  0  0  0  0  0  0  0  0  0
   20.4800    6.9080   24.2750 N   0  0  0  0  0  0  0  0  0  0  0  0
   20.5550    5.7720   23.7540 C   0  0  0  0  0  0  0  0  0  0  0  0
   19.3660    5.0820   23.8020 N   0  0  0  0  0  0  0  0  0  0  0  0
  2  1  1  6
  2  3  1  0
  3  4  2  0
  3  5  1  0
  5  6  1  0
  6  7  2  0
  7  8  1  0
  8  9  2  0
  9 10  1  0
 10 11  1  0
 11 12  2  0
 11 13  1  0
 13 14  1  0
 14 15  2  0
 15 16  1  0
 16 17  2  0
 17 18  1  0
 14 19  1  0
 18 19  2  0
  9 20  1  0
  6 21  1  0
 20 21  2  0
  2 22  1  0
 22 23  1  0
 23 24  2  0
 24 25  1  0
 22 26  1  0
 25 26  2  0
M  END
