pyridine_urea_158
     RDKit          3D

 20 22  0  0  0  0  0  0  0  0999 V2000
    9.0210    1.0790   21.2380 O   0  0  0  0  0  0  0  0  0  0  0  0
    8.5630   -0.0370   21.5160 C   0  0  0  0  0  0  0  0  0  0  0  0
    9.1690   -0.9020   22.4250 N   0  0  0  0  0  0  0  0  0  0  0  0
   10.5390   -0.6940   22.9180 C   0  0  0  0  0  0  0  0  0  0  0  0
   10.9200    0.7880   22.9790 C   0  0  0  0  0  0  0  0  0  0  0  0
    9.7870    1.7060   23.2190 C   0  0  0  0  0  0  0  0  0  0  0  0
    9.9720    3.0600   23.2580 C   0  0  0  0  0  0  0  0  0  0  0  0
   11.1940    3.5340   23.0800 N   0  0  0  0  0  0  0  0  0  0  0  0
   11.5030    4.8140   23.0790 C   0  0  0  0  0  0  0  0  0  0  0  0
   12.8710    4.9000   22.8620 N   0  0  0  0  0  0  0  0  0  0  0  0
   13.3460    3.6150   22.7350 N   0  0  0  0  0  0  0  0  0  0  0  0
   12.2570    2.7010   22.8740 C   0  0  0  0  0  0  0  0  0  0  0  0
   12.2460    1.3360   22.8120 C   0  0  0  0  0  0  0  0  0  0  0  0
    7.3990   -0.5790   21.0040 N   0  0  0  0  0  0  0  0  0  0  0  0
    6.5730    0.0620   20.0660 C   0  0  0  0  0  0  0  0  0  0  0  0
    5.4020    0.7640   20.3550 C   0  0  0  0  0  0  0  0  0  0  0  0
    4.6860    1.3710   19.3200 C   0  0  0  0  0  0  0  0  0  0  0  0
    5.1670    1.2530   18.0340 C   0  0  0  0  0  0  0  0  0  0  0  0
    6.2750    0.5820   17.7260 N   0  0  0  0  0  0  0  0  0  0  0  0
    6.9450    0.0070   18.7370 C   0  0  0  0  0  0  0  0  0  0  0  0
  1  2  2  0
  2  3  1  0
  3  4  1  0
  4  5  1  0
  5  6  1  0
  6  7  2  0
  7  8  1  0
  8  9  1  0
  9 10  2  0
 10 11  1  0
  8 12  1  0
 11 12  2  0
  5 13  2  0
 12 13  1  0
  2 14  1  0
 14 15  1  0
 15 16  2  0
 16 17  1  0
 17 18  2  0
 18 19  1  0
 15 20  1  0
 19 20  2  0
M  END
