pyridine_urea_12062
     RDKit          3D

 23 24  0  0  0  0  0  0  0  0999 V2000
    7.7870   -3.2480   27.7160 C   0  0  0  0  0  0  0  0  0  0  0  0
    8.1130   -2.0880   27.0500 N   0  0  0  0  0  0  0  0  0  0  0  0
    8.2630   -0.8290   27.6630 C   0  0  0  0  0  0  0  0  0  0  0  0
    8.6510   -2.3080   25.7900 C   0  0  0  0  0  0  0  0  0  0  0  0
    8.5320   -3.3120   25.1030 O   0  0  0  0  0  0  0  0  0  0  0  0
    9.4320   -1.2870   25.2430 C   0  0  0  0  0  0  0  0  0  0  0  0
    9.7350   -1.6180   23.8240 N   0  0  0  0  0  0  0  0  0  0  0  0
   11.0640   -1.6550   23.0690 C   0  0  0  0  0  0  0  0  0  0  0  0
   11.2310   -1.1310   21.9350 C   0  0  0  0  0  0  0  0  0  0  0  0
   10.1060   -0.6450   21.5630 C   0  0  0  0  0  0  0  0  0  0  0  0
    8.9510   -1.4500   21.8120 C   0  0  2  0  0  0  0  0  0  0  0  0
    8.1050   -1.3410   20.8940 N   0  0  0  0  0  0  0  0  0  0  0  0
    7.6120   -0.1390   21.0080 C   0  0  0  0  0  0  0  0  0  0  0  0
    8.3770    1.0010   21.0780 O   0  0  0  0  0  0  0  0  0  0  0  0
    6.3070   -0.2580   21.0160 N   0  0  0  0  0  0  0  0  0  0  0  0
    5.8600    0.3600   19.9500 C   0  0  0  0  0  0  0  0  0  0  0  0
    4.7110    1.1120   19.9700 C   0  0  0  0  0  0  0  0  0  0  0  0
    4.3400    1.7420   18.8050 C   0  0  0  0  0  0  0  0  0  0  0  0
    5.1360    1.5870   17.6730 C   0  0  0  0  0  0  0  0  0  0  0  0
    6.2580    0.8430   17.6340 N   0  0  0  0  0  0  0  0  0  0  0  0
    6.5860    0.2510   18.7800 C   0  0  0  0  0  0  0  0  0  0  0  0
    8.8040   -0.9840   23.1370 C   0  0  0  0  0  0  0  0  0  0  0  0
    7.9390   -0.1590   23.4150 O   0  0  0  0  0  0  0  0  0  0  0  0
  1  2  1  0
  2  3  1  0
  2  4  1  0
  4  5  2  0
  4  6  1  0
  6  7  1  0
  7  8  1  0
  8  9  1  0
  9 10  1  0
 10 11  1  0
 11 12  1  6
 12 13  1  0
 13 14  2  0
 13 15  1  0
 15 16  1  0
 16 17  2  0
 17 18  1  0
 18 19  2  0
 19 20  1  0
 16 21  1  0
 20 21  2  0
  7 22  1  0
 11 22  1  0
 22 23  2  0
M  END
