pyridine_urea_5994
     RDKit          3D

 26 28  0  0  0  0  0  0  0  0999 V2000
   11.2440   -3.0390   23.2540 O   0  0  0  0  0  0  0  0  0  0  0  0
   12.3010   -2.6480   23.7060 C   0  0  0  0  0  0  0  0  0  0  0  0
   13.2380   -1.6200   23.1090 C   0  0  0  0  0  0  0  0  0  0  0  0
   13.3490   -0.4740   24.0450 N   0  0  0  0  0  0  0  0  0  0  0  0
   12.5330    0.5860   23.7120 C   0  0  0  0  0  0  0  0  0  0  0  0
   12.7110    1.7660   23.7740 O   0  0  0  0  0  0  0  0  0  0  0  0
   11.5670   -0.0810   23.2560 C   0  0  0  0  0  0  0  0  0  0  0  0
   12.0780   -0.7980   22.3140 C   0  0  0  0  0  0  0  0  0  0  0  0
   11.3300   -1.7140   21.5880 C   0  0  0  0  0  0  0  0  0  0  0  0
    9.8740   -1.9240   21.8640 C   0  0  0  0  0  0  0  0  0  0  0  0
    8.5130   -1.7780   22.4910 C   0  0  0  0  0  0  0  0  0  0  0  0
    8.1560   -0.3810   22.5670 N   0  0  0  0  0  0  0  0  0  0  0  0
    8.2720    0.5510   21.5800 C   0  0  0  0  0  0  0  0  0  0  0  0
    8.1660    1.2040   20.5580 O   0  0  0  0  0  0  0  0  0  0  0  0
    7.3800   -0.3570   21.1750 N   0  0  0  0  0  0  0  0  0  0  0  0
    6.6520    0.2020   20.1060 C   0  0  0  0  0  0  0  0  0  0  0  0
    5.5310    0.9880   20.3800 C   0  0  0  0  0  0  0  0  0  0  0  0
    4.8150    1.5400   19.3370 C   0  0  0  0  0  0  0  0  0  0  0  0
    5.1930    1.3250   18.0390 C   0  0  0  0  0  0  0  0  0  0  0  0
    6.2590    0.5730   17.7300 N   0  0  0  0  0  0  0  0  0  0  0  0
    6.9580    0.0320   18.7630 C   0  0  0  0  0  0  0  0  0  0  0  0
    9.6490   -0.8900   23.0370 C   0  0  0  0  0  0  0  0  0  0  0  0
   10.3680    0.0880   23.8320 C   0  0  0  0  0  0  0  0  0  0  0  0
   12.8990   -0.9190   25.3100 C   0  0  0  0  0  0  0  0  0  0  0  0
   13.4880   -2.1890   25.4020 C   0  0  0  0  0  0  0  0  0  0  0  0
   12.7410   -3.1010   24.8720 N   0  0  0  0  0  0  0  0  0  0  0  0
  1  2  2  0
  2  3  1  0
  3  4  1  0
  4  5  1  0
  5  6  2  0
  5  7  1  0
  7  8  2  0
  8  9  1  0
  9 10  2  0
 10 11  1  0
 11 12  1  0
 12 13  1  0
 13 14  2  0
 13 15  1  0
 15 16  1  0
 16 17  2  0
 17 18  1  0
 18 19  2  0
 19 20  1  0
 16 21  1  0
 20 21  2  0
 10 22  1  0
  7 23  1  0
 22 23  2  0
  4 24  1  0
 24 25  1  0
  2 26  1  0
 25 26  1  0
M  END
