pyridine_urea_9203
     RDKit          3D

 18 18  0  0  0  0  0  0  0  0999 V2000
    8.8420   -3.1110   22.9720 C   0  0  0  0  0  0  0  0  0  0  0  0
    9.7890   -3.1680   24.0390 O   0  0  0  0  0  0  0  0  0  0  0  0
   11.0510   -2.6720   23.7570 C   0  0  0  0  0  0  0  0  0  0  0  0
   12.0200   -2.8710   24.4830 O   0  0  0  0  0  0  0  0  0  0  0  0
   11.1580   -1.9200   22.5850 C   0  0  2  0  0  0  0  0  0  0  0  0
   12.0870   -0.8650   22.4970 C   0  0  0  0  0  0  0  0  0  0  0  0
   10.4200   -0.5950   22.3650 C   0  0  2  0  0  0  0  0  0  0  0  0
   10.8490    0.4360   23.1470 C   0  0  0  0  0  0  0  0  0  0  0  0
    8.9790   -0.6940   22.6070 N   0  0  0  0  0  0  0  0  0  0  0  0
    8.2060   -0.6620   21.4670 C   0  0  0  0  0  0  0  0  0  0  0  0
    8.6440   -1.0470   20.4590 O   0  0  0  0  0  0  0  0  0  0  0  0
    6.9360   -0.1660   21.5460 N   0  0  0  0  0  0  0  0  0  0  0  0
    6.2620    0.3500   20.3360 C   0  0  0  0  0  0  0  0  0  0  0  0
    5.0870    1.0700   20.3390 C   0  0  0  0  0  0  0  0  0  0  0  0
    4.5420    1.5280   19.1390 C   0  0  0  0  0  0  0  0  0  0  0  0
    5.2030    1.2430   17.9580 C   0  0  0  0  0  0  0  0  0  0  0  0
    6.3430    0.5420   17.9060 N   0  0  0  0  0  0  0  0  0  0  0  0
    6.8420    0.1120   19.0830 C   0  0  0  0  0  0  0  0  0  0  0  0
  1  2  1  0
  2  3  1  0
  3  4  2  0
  3  5  1  0
  5  6  1  1
  5  7  1  0
  7  8  1  1
  7  9  1  0
  9 10  1  0
 10 11  2  0
 10 12  1  0
 12 13  1  0
 13 14  2  0
 14 15  1  0
 15 16  2  0
 16 17  1  0
 13 18  1  0
 17 18  2  0
M  END
