pyridine_urea_6157
     RDKit          3D

 24 26  0  0  0  0  0  0  0  0999 V2000
   13.9750   -2.5170   25.5320 C   0  0  0  0  0  0  0  0  0  0  0  0
   12.9770   -2.7550   25.0000 C   0  0  0  0  0  0  0  0  0  0  0  0
   11.6890   -3.4770   24.6850 C   0  0  0  0  0  0  0  0  0  0  0  0
   10.6820   -3.1970   23.6850 C   0  0  0  0  0  0  0  0  0  0  0  0
    9.2870   -3.3330   23.9790 O   0  0  0  0  0  0  0  0  0  0  0  0
   11.3900   -2.8500   22.5640 N   0  0  0  0  0  0  0  0  0  0  0  0
   12.1720   -1.8730   22.9460 C   0  0  0  0  0  0  0  0  0  0  0  0
   12.0280   -0.9940   22.0700 N   0  0  0  0  0  0  0  0  0  0  0  0
   12.5770    0.1170   22.5130 C   0  0  0  0  0  0  0  0  0  0  0  0
   11.7340    0.7020   23.4510 C   0  0  0  0  0  0  0  0  0  0  0  0
   10.5440    1.1950   23.0090 C   0  0  0  0  0  0  0  0  0  0  0  0
   10.0110   -0.2000   22.9740 C   0  0  1  0  0  0  0  0  0  0  0  0
    8.6380   -0.2690   22.8900 N   0  0  0  0  0  0  0  0  0  0  0  0
    8.0870   -0.4620   21.6600 C   0  0  0  0  0  0  0  0  0  0  0  0
    8.8520   -0.8910   20.6220 O   0  0  0  0  0  0  0  0  0  0  0  0
    6.7660   -0.2270   21.5600 N   0  0  0  0  0  0  0  0  0  0  0  0
    6.2760    0.2480   20.3700 C   0  0  0  0  0  0  0  0  0  0  0  0
    5.1400    1.0210   20.2870 C   0  0  0  0  0  0  0  0  0  0  0  0
    4.3940    1.6740   19.1200 C   0  0  0  0  0  0  0  0  0  0  0  0
    5.3190    1.1990   18.0050 C   0  0  0  0  0  0  0  0  0  0  0  0
    6.4340    0.4440   18.0010 N   0  0  0  0  0  0  0  0  0  0  0  0
    6.8730   -0.0060   19.1690 C   0  0  0  0  0  0  0  0  0  0  0  0
   10.6130   -0.9010   21.9420 C   0  0  0  0  0  0  0  0  0  0  0  0
   12.8800   -1.7840   24.0280 N   0  0  0  0  0  0  0  0  0  0  0  0
  1  2  1  0
  2  3  2  0
  3  4  1  0
  4  5  2  0
  4  6  1  0
  6  7  1  0
  7  8  1  0
  8  9  1  0
  9 10  1  0
 10 11  1  0
 11 12  1  0
 12 13  1  6
 13 14  1  0
 14 15  2  0
 14 16  1  0
 16 17  1  0
 17 18  2  0
 18 19  1  0
 19 20  2  0
 20 21  1  0
 17 22  1  0
 21 22  2  0
  8 23  1  0
 12 23  1  0
  2 24  1  0
  7 24  2  0
M  END
