pyridine_urea_5827
     RDKit          3D

 21 22  0  0  0  0  0  0  0  0999 V2000
    8.4370    0.6740   21.0790 O   0  0  0  0  0  0  0  0  0  0  0  0
    8.0450   -0.4210   21.4640 C   0  0  0  0  0  0  0  0  0  0  0  0
    6.7820   -0.9470   20.9980 N   0  0  0  0  0  0  0  0  0  0  0  0
    6.2240   -0.1670   19.9980 C   0  0  0  0  0  0  0  0  0  0  0  0
    5.0400    0.5430   20.2130 C   0  0  0  0  0  0  0  0  0  0  0  0
    4.5280    1.3190   19.1700 C   0  0  0  0  0  0  0  0  0  0  0  0
    5.2140    1.3580   17.9550 C   0  0  0  0  0  0  0  0  0  0  0  0
    6.3510    0.6780   17.7380 N   0  0  0  0  0  0  0  0  0  0  0  0
    6.8310   -0.0690   18.7610 C   0  0  0  0  0  0  0  0  0  0  0  0
    8.7100   -1.2340   22.3350 N   0  0  0  0  0  0  0  0  0  0  0  0
   10.0090   -0.6690   22.5470 C   0  0  0  0  0  0  0  0  0  0  0  0
   11.2610   -1.5440   22.4190 C   0  0  0  0  0  0  0  0  0  0  0  0
   12.5080   -0.9540   22.5960 C   0  0  0  0  0  0  0  0  0  0  0  0
   13.5650   -1.7550   22.4760 F   0  0  0  0  0  0  0  0  0  0  0  0
   12.6130    0.4130   22.8700 C   0  0  0  0  0  0  0  0  0  0  0  0
   13.7480    1.0240   23.0070 F   0  0  0  0  0  0  0  0  0  0  0  0
   11.4630    1.1440   22.9800 C   0  0  0  0  0  0  0  0  0  0  0  0
   10.8610    2.3830   23.1940 C   0  0  0  0  0  0  0  0  0  0  0  0
   11.7320    3.3610   23.5020 F   0  0  0  0  0  0  0  0  0  0  0  0
    9.9360    2.3430   24.1930 F   0  0  0  0  0  0  0  0  0  0  0  0
   10.0860    0.6780   22.8410 C   0  0  0  0  0  0  0  0  0  0  0  0
  1  2  2  0
  2  3  1  0
  3  4  1  0
  4  5  2  0
  5  6  1  0
  6  7  2  0
  7  8  1  0
  4  9  1  0
  8  9  2  0
  2 10  1  0
 10 11  1  0
 11 12  2  0
 12 13  1  0
 13 14  1  0
 13 15  2  0
 15 16  1  0
 15 17  1  0
 17 18  1  0
 18 19  1  0
 18 20  1  0
 11 21  1  0
 17 21  2  0
M  END
