pyridine_urea_3832
     RDKit          3D

 16 17  0  0  0  0  0  0  0  0999 V2000
   10.4150    1.1630   22.8610 C   0  0  0  0  0  0  0  0  0  0  0  0
   10.5720   -0.3060   22.5910 C   0  0  1  0  0  0  0  0  0  0  0  0
    9.5490   -0.8440   21.7080 N   0  0  0  0  0  0  0  0  0  0  0  0
    8.5830    0.0640   21.3270 C   0  0  0  0  0  0  0  0  0  0  0  0
    8.8480    1.2610   21.1710 O   0  0  0  0  0  0  0  0  0  0  0  0
    7.3430   -0.4600   21.0970 N   0  0  0  0  0  0  0  0  0  0  0  0
    6.5760    0.0870   20.0660 C   0  0  0  0  0  0  0  0  0  0  0  0
    5.4160    0.7810   20.3450 C   0  0  0  0  0  0  0  0  0  0  0  0
    4.6770    1.3510   19.3310 C   0  0  0  0  0  0  0  0  0  0  0  0
    5.1070    1.2230   18.0330 C   0  0  0  0  0  0  0  0  0  0  0  0
    6.2180    0.5490   17.7010 N   0  0  0  0  0  0  0  0  0  0  0  0
    6.9240   -0.0020   18.7260 C   0  0  0  0  0  0  0  0  0  0  0  0
   11.9700   -0.7420   22.3760 C   0  0  0  0  0  0  0  0  0  0  0  0
   12.0490   -1.2110   23.6310 C   0  0  2  0  0  0  0  0  0  0  0  0
   12.5820   -2.4330   23.7580 F   0  0  0  0  0  0  0  0  0  0  0  0
   10.6570   -1.1730   23.8990 C   0  0  0  0  0  0  0  0  0  0  0  0
  2  1  1  1
  2  3  1  0
  3  4  1  0
  4  5  2  0
  4  6  1  0
  6  7  1  0
  7  8  2  0
  8  9  1  0
  9 10  2  0
 10 11  1  0
  7 12  1  0
 11 12  2  0
  2 13  1  0
 13 14  1  0
 14 15  1  6
  2 16  1  0
 14 16  1  0
M  END
