pyridine_urea_2578
     RDKit          3D

 23 25  0  0  0  0  0  0  0  0999 V2000
   13.6130   -0.4900   22.2760 C   0  0  0  0  0  0  0  0  0  0  0  0
   12.4060    0.1050   22.7940 C   0  0  0  0  0  0  0  0  0  0  0  0
   12.1800    1.4950   23.0440 N   0  0  0  0  0  0  0  0  0  0  0  0
   10.9170    1.6430   23.5200 C   0  0  0  0  0  0  0  0  0  0  0  0
   10.3280    2.8150   23.8530 C   0  0  0  0  0  0  0  0  0  0  0  0
    9.0140    2.7470   24.3270 C   0  0  0  0  0  0  0  0  0  0  0  0
    8.3070    1.5380   24.4750 C   0  0  0  0  0  0  0  0  0  0  0  0
    8.8990    0.3240   24.1350 C   0  0  0  0  0  0  0  0  0  0  0  0
    7.8470   -1.2400   24.3780 Br  0  0  0  0  0  0  0  0  0  0  0  0
   10.3260    0.4130   23.6040 C   0  0  0  0  0  0  0  0  0  0  0  0
   11.1780   -0.5770   23.1590 C   0  0  0  0  0  0  0  0  0  0  0  0
   10.9350   -1.9120   23.0590 C   0  0  0  0  0  0  0  0  0  0  0  0
    9.6300   -2.0960   22.6260 C   0  0  0  0  0  0  0  0  0  0  0  0
    9.4380   -1.2770   21.5350 N   0  0  0  0  0  0  0  0  0  0  0  0
    8.4670   -0.2620   21.3400 C   0  0  0  0  0  0  0  0  0  0  0  0
    8.7530    0.9300   21.3780 O   0  0  0  0  0  0  0  0  0  0  0  0
    7.2340   -0.7590   21.0710 N   0  0  0  0  0  0  0  0  0  0  0  0
    6.5250   -0.0760   20.1270 C   0  0  0  0  0  0  0  0  0  0  0  0
    5.3470    0.6630   20.3590 C   0  0  0  0  0  0  0  0  0  0  0  0
    4.6910    1.3460   19.3060 C   0  0  0  0  0  0  0  0  0  0  0  0
    5.2200    1.2870   18.0270 C   0  0  0  0  0  0  0  0  0  0  0  0
    6.3500    0.5750   17.7950 N   0  0  0  0  0  0  0  0  0  0  0  0
    6.9920   -0.0990   18.8250 C   0  0  0  0  0  0  0  0  0  0  0  0
  1  2  1  0
  2  3  1  0
  3  4  1  0
  4  5  2  0
  5  6  1  0
  6  7  2  0
  7  8  1  0
  8  9  1  0
  4 10  1  0
  8 10  2  0
  2 11  2  0
 10 11  1  0
 11 12  1  0
 12 13  1  0
 13 14  1  0
 14 15  1  0
 15 16  2  0
 15 17  1  0
 17 18  1  0
 18 19  2  0
 19 20  1  0
 20 21  2  0
 21 22  1  0
 18 23  1  0
 22 23  2  0
M  END
