pyridine_urea_8732
     RDKit          3D

 21 23  0  0  0  0  0  0  0  0999 V2000
    9.6450   -0.0220   24.0590 C   0  0  0  0  0  0  0  0  0  0  0  0
   10.2450   -1.0650   23.1390 C   0  0  1  0  0  0  0  0  0  0  0  0
    9.4790   -1.2050   21.8840 N   0  0  0  0  0  0  0  0  0  0  0  0
    8.5470   -0.1100   21.5470 C   0  0  0  0  0  0  0  0  0  0  0  0
    8.9200    1.0720   21.6170 O   0  0  0  0  0  0  0  0  0  0  0  0
    7.3080   -0.5560   21.1360 N   0  0  0  0  0  0  0  0  0  0  0  0
    6.5820    0.0480   20.0960 C   0  0  0  0  0  0  0  0  0  0  0  0
    5.4380    0.7590   20.3920 C   0  0  0  0  0  0  0  0  0  0  0  0
    4.6650    1.4270   19.2760 C   0  0  0  0  0  0  0  0  0  0  0  0
    5.1530    1.2900   17.9900 C   0  0  0  0  0  0  0  0  0  0  0  0
    6.2680    0.5830   17.7330 N   0  0  0  0  0  0  0  0  0  0  0  0
    6.9460   -0.0110   18.7560 C   0  0  0  0  0  0  0  0  0  0  0  0
   11.8010   -0.9430   22.8630 C   0  0  0  0  0  0  0  0  0  0  0  0
   12.4800   -1.9750   22.6140 C   0  0  0  0  0  0  0  0  0  0  0  0
   13.1020   -0.7200   22.6480 C   0  0  0  0  0  0  0  0  0  0  0  0
   11.7200   -0.1250   22.9950 C   0  0  0  0  0  0  0  0  0  0  0  0
   10.9270    1.0500   23.2870 N   0  0  0  0  0  0  0  0  0  0  0  0
   11.4690    2.3810   23.3220 C   0  0  0  0  0  0  0  0  0  0  0  0
   12.7460    2.2020   23.0430 N   0  0  0  0  0  0  0  0  0  0  0  0
   12.0760    1.1090   23.0590 C   0  0  0  0  0  0  0  0  0  0  0  0
   12.8930    0.1810   22.7910 C   0  0  0  0  0  0  0  0  0  0  0  0
  2  1  1  6
  2  3  1  0
  3  4  1  0
  4  5  2  0
  4  6  1  0
  6  7  1  0
  7  8  2  0
  8  9  1  0
  9 10  2  0
 10 11  1  0
  7 12  1  0
 11 12  2  0
  2 13  1  0
 13 14  2  0
 14 15  1  0
 15 16  2  0
 16 17  1  0
 17 18  1  0
 18 19  2  0
 16 20  1  0
 19 20  1  0
 13 21  1  0
 20 21  2  0
M  END
