pyridine_urea_11811
     RDKit          3D

 25 27  0  0  0  0  0  0  0  0999 V2000
   13.9940   -2.3990   25.7840 C   0  0  0  0  0  0  0  0  0  0  0  0
   12.9440   -1.7620   24.9470 C   0  0  0  0  0  0  0  0  0  0  0  0
   11.9600   -0.8350   25.4680 N   0  0  0  0  0  0  0  0  0  0  0  0
   11.1600   -0.5300   24.4780 C   0  0  0  0  0  0  0  0  0  0  0  0
   10.0610    0.2180   24.3530 C   0  0  0  0  0  0  0  0  0  0  0  0
    9.4540    0.2750   23.1260 C   0  0  0  0  0  0  0  0  0  0  0  0
    8.3680    0.9430   22.9500 N   0  0  0  0  0  0  0  0  0  0  0  0
    8.1750    0.9900   21.6360 C   0  0  0  0  0  0  0  0  0  0  0  0
    8.7930    1.8110   20.9680 O   0  0  0  0  0  0  0  0  0  0  0  0
    7.2720    0.0520   21.1850 N   0  0  0  0  0  0  0  0  0  0  0  0
    6.5270    0.4020   20.0210 C   0  0  0  0  0  0  0  0  0  0  0  0
    5.2640    1.2210   20.2430 C   0  0  0  0  0  0  0  0  0  0  0  0
    4.5840    1.5810   19.1120 C   0  0  0  0  0  0  0  0  0  0  0  0
    5.0940    1.1760   17.8820 C   0  0  0  0  0  0  0  0  0  0  0  0
    6.1990    0.4410   17.6840 N   0  0  0  0  0  0  0  0  0  0  0  0
    6.9100    0.0540   18.7500 C   0  0  0  0  0  0  0  0  0  0  0  0
    9.8950   -0.3560   21.9620 C   0  0  0  0  0  0  0  0  0  0  0  0
   10.9970   -1.1000   22.0440 C   0  0  0  0  0  0  0  0  0  0  0  0
   11.6690   -1.2320   23.3050 C   0  0  0  0  0  0  0  0  0  0  0  0
   12.7310   -1.9380   23.6180 N   0  0  0  0  0  0  0  0  0  0  0  0
   13.3360   -2.6440   22.6640 C   0  0  0  0  0  0  0  0  0  0  0  0
   12.9620   -2.7010   21.3260 C   0  0  0  0  0  0  0  0  0  0  0  0
   13.5420   -3.4650   20.5800 O   0  0  0  0  0  0  0  0  0  0  0  0
   13.2690   -1.6730   21.6410 C   0  0  0  0  0  0  0  0  0  0  0  0
   12.3460   -2.0570   20.7090 O   0  0  0  0  0  0  0  0  0  0  0  0
  1  2  1  0
  2  3  2  0
  3  4  1  0
  4  5  2  0
  5  6  1  0
  6  7  1  0
  7  8  1  0
  8  9  2  0
  8 10  1  0
 10 11  1  0
 11 12  2  0
 12 13  1  0
 13 14  2  0
 14 15  1  0
 11 16  1  0
 15 16  2  0
  6 17  2  0
 17 18  1  0
  4 19  1  0
 18 19  2  0
  2 20  1  0
 19 20  1  0
 20 21  1  0
 21 22  1  0
 22 23  1  0
 21 24  1  0
 24 25  1  0
M  END
