pyridine_urea_7181
     RDKit          3D

 19 20  0  0  0  0  0  0  0  0999 V2000
   12.8410   -2.1570   21.4930 C   0  0  0  0  0  0  0  0  0  0  0  0
   12.8870   -1.4700   22.8520 C   0  0  1  0  0  0  0  0  0  0  0  0
   12.8920   -0.0830   22.8120 C   0  0  0  0  0  0  0  0  0  0  0  0
   12.2410    0.6900   23.7550 C   0  0  1  0  0  0  0  0  0  0  0  0
   11.9860    1.9700   23.3030 C   0  0  0  0  0  0  0  0  0  0  0  0
   11.1860    0.0870   24.4070 C   0  0  0  0  0  0  0  0  0  0  0  0
   10.6920   -1.2110   23.8120 C   0  0  1  0  0  0  0  0  0  0  0  0
   10.0640   -1.2200   22.5960 C   0  0  0  0  0  0  0  0  0  0  0  0
    8.7730   -0.5390   22.7170 N   0  0  0  0  0  0  0  0  0  0  0  0
    8.2680    0.1840   21.5320 C   0  0  0  0  0  0  0  0  0  0  0  0
    8.7570    1.2500   21.1290 O   0  0  0  0  0  0  0  0  0  0  0  0
    7.1440   -0.5420   20.9790 N   0  0  0  0  0  0  0  0  0  0  0  0
    6.4630    0.1110   19.9690 C   0  0  0  0  0  0  0  0  0  0  0  0
    5.2820    0.8320   20.1960 C   0  0  0  0  0  0  0  0  0  0  0  0
    4.5860    1.5440   19.0860 C   0  0  0  0  0  0  0  0  0  0  0  0
    5.1610    1.4600   17.8230 C   0  0  0  0  0  0  0  0  0  0  0  0
    6.3290    0.7190   17.6590 N   0  0  0  0  0  0  0  0  0  0  0  0
    6.9340    0.0840   18.6790 C   0  0  0  0  0  0  0  0  0  0  0  0
   11.9450   -2.0770   23.6750 C   0  0  0  0  0  0  0  0  0  0  0  0
  2  1  1  6
  2  3  1  0
  3  4  1  0
  4  5  1  6
  4  6  1  0
  6  7  1  0
  7  8  1  6
  8  9  1  0
  9 10  1  0
 10 11  2  0
 10 12  1  0
 12 13  1  0
 13 14  2  0
 14 15  1  0
 15 16  2  0
 16 17  1  0
 13 18  1  0
 17 18  2  0
  2 19  1  0
  7 19  1  0
M  END
