pyridine_urea_12197
     RDKit          3D

 21 22  0  0  0  0  0  0  0  0999 V2000
    9.1400   -1.9680   24.6490 C   0  0  0  0  0  0  0  0  0  0  0  0
    9.8700   -0.6410   24.8960 C   0  0  0  0  0  0  0  0  0  0  0  0
    9.5310   -0.1540   26.1580 C   0  0  0  0  0  0  0  0  0  0  0  0
    9.2820    0.3000   23.8840 C   0  0  0  0  0  0  0  0  0  0  0  0
   10.0370    0.3650   22.7790 C   0  0  0  0  0  0  0  0  0  0  0  0
   10.0600   -0.9040   22.2000 C   0  0  0  0  0  0  0  0  0  0  0  0
    8.7270   -1.2590   21.9290 N   0  0  0  0  0  0  0  0  0  0  0  0
    8.1240   -0.1700   21.5030 C   0  0  0  0  0  0  0  0  0  0  0  0
    8.5490    0.9610   21.6620 O   0  0  0  0  0  0  0  0  0  0  0  0
    7.0680   -0.2600   20.8120 N   0  0  0  0  0  0  0  0  0  0  0  0
    6.3410    0.2670   19.8480 C   0  0  0  0  0  0  0  0  0  0  0  0
    5.1290    0.9040   20.1190 C   0  0  0  0  0  0  0  0  0  0  0  0
    4.4630    1.4830   19.0570 C   0  0  0  0  0  0  0  0  0  0  0  0
    5.0440    1.3850   17.8080 C   0  0  0  0  0  0  0  0  0  0  0  0
    6.1880    0.7570   17.5460 N   0  0  0  0  0  0  0  0  0  0  0  0
    6.8100    0.2140   18.5760 C   0  0  0  0  0  0  0  0  0  0  0  0
   11.2570    0.8410   23.1060 C   0  0  0  0  0  0  0  0  0  0  0  0
   11.8590   -0.2390   23.6000 C   0  0  0  0  0  0  0  0  0  0  0  0
   13.0880   -0.0050   23.9780 C   0  0  0  0  0  0  0  0  0  0  0  0
   12.0280   -1.4370   22.6290 C   0  0  0  0  0  0  0  0  0  0  0  0
   11.1260   -0.6460   24.7360 O   0  0  0  0  0  0  0  0  0  0  0  0
  2  1  1  0
  2  3  1  0
  2  4  1  0
  4  5  1  0
  5  6  1  0
  6  7  1  0
  7  8  1  0
  8  9  2  0
  8 10  1  0
 10 11  1  0
 11 12  2  0
 12 13  1  0
 13 14  2  0
 14 15  1  0
 11 16  1  0
 15 16  2  0
  5 17  1  0
 17 18  1  0
 18 19  1  0
 18 20  1  0
  2 21  1  0
 18 21  1  0
M  END
