pyridine_urea_9045
     RDKit          3D

 19 20  0  0  0  0  0  0  0  0999 V2000
   13.0040    1.2620   23.0110 C   0  0  0  0  0  0  0  0  0  0  0  0
   12.0180    0.1370   23.2340 C   0  0  0  0  0  0  0  0  0  0  0  0
   10.6440    0.6210   22.8290 C   0  0  0  0  0  0  0  0  0  0  0  0
    9.5780   -0.1980   22.9140 C   0  0  0  0  0  0  0  0  0  0  0  0
    8.2440    0.0930   22.5680 N   0  0  0  0  0  0  0  0  0  0  0  0
    7.9260   -0.4890   21.4030 C   0  0  0  0  0  0  0  0  0  0  0  0
    8.7880   -0.9030   20.7010 O   0  0  0  0  0  0  0  0  0  0  0  0
    6.6020   -0.5340   21.1570 N   0  0  0  0  0  0  0  0  0  0  0  0
    6.0670    0.1430   20.0690 C   0  0  0  0  0  0  0  0  0  0  0  0
    4.9090    0.8900   20.0870 C   0  0  0  0  0  0  0  0  0  0  0  0
    4.4980    1.5230   18.9500 C   0  0  0  0  0  0  0  0  0  0  0  0
    5.2190    1.4250   17.8010 C   0  0  0  0  0  0  0  0  0  0  0  0
    6.3540    0.7090   17.7060 N   0  0  0  0  0  0  0  0  0  0  0  0
    6.7540    0.0820   18.8450 C   0  0  0  0  0  0  0  0  0  0  0  0
    9.7240   -1.4790   23.3630 C   0  0  0  0  0  0  0  0  0  0  0  0
   11.0570   -1.9210   23.7600 C   0  0  0  0  0  0  0  0  0  0  0  0
   11.2020   -3.1700   24.2120 F   0  0  0  0  0  0  0  0  0  0  0  0
   12.1500   -1.1700   23.7130 C   0  0  0  0  0  0  0  0  0  0  0  0
   13.5560   -2.2010   24.3450 Br  0  0  0  0  0  0  0  0  0  0  0  0
  1  2  1  0
  2  3  2  0
  3  4  1  0
  4  5  1  0
  5  6  1  0
  6  7  2  0
  6  8  1  0
  8  9  1  0
  9 10  2  0
 10 11  1  0
 11 12  2  0
 12 13  1  0
  9 14  1  0
 13 14  2  0
  4 15  2  0
 15 16  1  0
 16 17  1  0
  2 18  1  0
 16 18  2  0
 18 19  1  0
M  END
