pyridine_urea_511
     RDKit          3D

 25 27  0  0  0  0  0  0  0  0999 V2000
   12.8550    8.1930   23.7650 N   0  0  0  0  0  0  0  0  0  0  0  0
   12.1770    7.5210   24.7120 C   0  0  0  0  0  0  0  0  0  0  0  0
   11.8410    6.1460   24.2410 C   0  0  0  0  0  0  0  0  0  0  0  0
   12.5340    5.5170   23.2100 C   0  0  0  0  0  0  0  0  0  0  0  0
   12.1510    4.2340   22.8200 C   0  0  0  0  0  0  0  0  0  0  0  0
   11.0880    3.6500   23.4830 C   0  0  0  0  0  0  0  0  0  0  0  0
   10.6100    2.5710   23.2730 O   0  0  0  0  0  0  0  0  0  0  0  0
   11.1930    1.3620   23.0080 C   0  0  0  0  0  0  0  0  0  0  0  0
   12.6270    0.8200   23.0100 C   0  0  0  0  0  0  0  0  0  0  0  0
   12.8030   -0.5280   22.6630 C   0  0  0  0  0  0  0  0  0  0  0  0
   11.6750   -1.3270   22.3230 C   0  0  0  0  0  0  0  0  0  0  0  0
   10.3920   -0.7650   22.3400 C   0  0  0  0  0  0  0  0  0  0  0  0
    9.2300   -1.4150   22.0080 N   0  0  0  0  0  0  0  0  0  0  0  0
    8.2760   -0.5640   21.3820 C   0  0  0  0  0  0  0  0  0  0  0  0
    8.5580    0.6020   21.1360 O   0  0  0  0  0  0  0  0  0  0  0  0
    7.0790   -1.0890   21.0760 N   0  0  0  0  0  0  0  0  0  0  0  0
    6.4560   -0.2970   19.9990 C   0  0  0  0  0  0  0  0  0  0  0  0
    5.2560    0.3930   20.3100 C   0  0  0  0  0  0  0  0  0  0  0  0
    4.6080    1.1840   19.3310 C   0  0  0  0  0  0  0  0  0  0  0  0
    5.1640    1.2800   18.0580 C   0  0  0  0  0  0  0  0  0  0  0  0
    6.3210    0.6060   17.7730 N   0  0  0  0  0  0  0  0  0  0  0  0
    6.9630   -0.1760   18.7260 C   0  0  0  0  0  0  0  0  0  0  0  0
   10.2070    0.5300   22.6830 C   0  0  0  0  0  0  0  0  0  0  0  0
   10.4250    4.3130   24.5130 C   0  0  0  0  0  0  0  0  0  0  0  0
   10.7880    5.5770   24.9180 C   0  0  0  0  0  0  0  0  0  0  0  0
  1  2  3  0
  2  3  1  0
  3  4  2  0
  4  5  1  0
  5  6  2  0
  6  7  1  0
  7  8  1  0
  8  9  2  0
  9 10  1  0
 10 11  2  0
 11 12  1  0
 12 13  1  0
 13 14  1  0
 14 15  2  0
 14 16  1  0
 16 17  1  0
 17 18  2  0
 18 19  1  0
 19 20  2  0
 20 21  1  0
 17 22  1  0
 21 22  2  0
  8 23  1  0
 12 23  2  0
  6 24  1  0
  3 25  1  0
 24 25  2  0
M  END
