pyridine_urea_14276
     RDKit          3D

 22 24  0  0  0  0  0  0  0  0999 V2000
   12.9130   -0.6580   25.2780 C   0  0  0  0  0  0  0  0  0  0  0  0
   11.9310   -0.7260   24.3050 C   0  0  0  0  0  0  0  0  0  0  0  0
   10.7490   -0.0310   24.3870 C   0  0  0  0  0  0  0  0  0  0  0  0
    9.8280   -0.1680   23.3930 C   0  0  0  0  0  0  0  0  0  0  0  0
   10.0660   -1.0070   22.3000 C   0  0  0  0  0  0  0  0  0  0  0  0
    9.1510   -1.1930   21.2870 N   0  0  0  0  0  0  0  0  0  0  0  0
    8.3020   -0.1460   21.2040 C   0  0  0  0  0  0  0  0  0  0  0  0
    8.6800    1.0110   21.3060 O   0  0  0  0  0  0  0  0  0  0  0  0
    7.0230   -0.5400   20.9750 N   0  0  0  0  0  0  0  0  0  0  0  0
    6.3060    0.1070   19.9920 C   0  0  0  0  0  0  0  0  0  0  0  0
    5.0050    0.8580   20.1400 C   0  0  0  0  0  0  0  0  0  0  0  0
    4.4380    1.4780   19.0590 C   0  0  0  0  0  0  0  0  0  0  0  0
    5.1130    1.3790   17.8440 C   0  0  0  0  0  0  0  0  0  0  0  0
    6.2710    0.7060   17.6710 N   0  0  0  0  0  0  0  0  0  0  0  0
    6.8310    0.0950   18.7250 C   0  0  0  0  0  0  0  0  0  0  0  0
   11.3730   -1.7650   22.1960 C   0  0  0  0  0  0  0  0  0  0  0  0
   11.9720   -2.6510   21.3500 C   0  0  0  0  0  0  0  0  0  0  0  0
   11.4860   -3.3680   20.2990 N   0  0  0  0  0  0  0  0  0  0  0  0
   12.5240   -4.1260   19.8290 N   0  0  0  0  0  0  0  0  0  0  0  0
   13.5680   -3.8750   20.5620 C   0  0  0  0  0  0  0  0  0  0  0  0
   13.2580   -3.0040   21.4650 N   0  0  0  0  0  0  0  0  0  0  0  0
   12.2970   -1.5420   23.3110 C   0  0  0  0  0  0  0  0  0  0  0  0
  1  2  1  0
  2  3  2  0
  3  4  1  0
  4  5  2  0
  5  6  1  0
  6  7  1  0
  7  8  2  0
  7  9  1  0
  9 10  1  0
 10 11  2  0
 11 12  1  0
 12 13  2  0
 13 14  1  0
 10 15  1  0
 14 15  2  0
  5 16  1  0
 16 17  1  0
 17 18  2  0
 18 19  1  0
 19 20  2  0
 17 21  1  0
 20 21  1  0
  2 22  1  0
 16 22  2  0
M  END
