pyridine_urea_531
     RDKit          3D

 25 26  0  0  0  0  0  0  0  0999 V2000
   14.9940   -4.9820   20.4770 C   0  0  0  0  0  0  0  0  0  0  0  0
   14.4190   -3.9090   20.1360 O   0  0  0  0  0  0  0  0  0  0  0  0
   13.2770   -3.5840   20.8080 C   0  0  0  0  0  0  0  0  0  0  0  0
   12.8850   -2.3100   21.1530 C   0  0  0  0  0  0  0  0  0  0  0  0
   12.1330   -2.2170   22.1410 O   0  0  0  0  0  0  0  0  0  0  0  0
   11.8020   -0.8770   22.4550 C   0  0  0  0  0  0  0  0  0  0  0  0
   12.8940   -0.0650   22.6470 C   0  0  0  0  0  0  0  0  0  0  0  0
   12.7640    1.2820   22.9280 C   0  0  0  0  0  0  0  0  0  0  0  0
   11.3790    1.9200   23.0470 C   0  0  0  0  0  0  0  0  0  0  0  0
   11.1300    3.2820   23.2990 C   0  0  0  0  0  0  0  0  0  0  0  0
   10.5950    3.5560   24.5190 F   0  0  0  0  0  0  0  0  0  0  0  0
   10.2250    3.7920   22.4290 F   0  0  0  0  0  0  0  0  0  0  0  0
   12.2250    4.0810   23.1630 F   0  0  0  0  0  0  0  0  0  0  0  0
   10.2180    0.9780   22.8530 C   0  0  0  0  0  0  0  0  0  0  0  0
   10.4830   -0.3560   22.5600 C   0  0  0  0  0  0  0  0  0  0  0  0
    9.2570   -1.1030   22.3520 N   0  0  0  0  0  0  0  0  0  0  0  0
    8.3600   -0.2720   21.5380 C   0  0  0  0  0  0  0  0  0  0  0  0
    8.6810    0.8620   21.2180 O   0  0  0  0  0  0  0  0  0  0  0  0
    7.1460   -0.8300   21.1330 N   0  0  0  0  0  0  0  0  0  0  0  0
    6.5160   -0.1710   19.9880 C   0  0  0  0  0  0  0  0  0  0  0  0
    5.3610    0.5460   20.3610 C   0  0  0  0  0  0  0  0  0  0  0  0
    4.6440    1.2670   19.3800 C   0  0  0  0  0  0  0  0  0  0  0  0
    5.1040    1.2480   18.0650 C   0  0  0  0  0  0  0  0  0  0  0  0
    6.2180    0.5400   17.7310 N   0  0  0  0  0  0  0  0  0  0  0  0
    6.9290   -0.1720   18.6850 C   0  0  0  0  0  0  0  0  0  0  0  0
  1  2  1  0
  2  3  1  0
  3  4  1  0
  4  5  1  0
  5  6  1  0
  6  7  2  0
  7  8  1  0
  8  9  2  0
  9 10  1  0
 10 11  1  0
 10 12  1  0
 10 13  1  0
  9 14  1  0
  6 15  1  0
 14 15  2  0
 15 16  1  0
 16 17  1  0
 17 18  2  0
 17 19  1  0
 19 20  1  0
 20 21  2  0
 21 22  1  0
 22 23  2  0
 23 24  1  0
 20 25  1  0
 24 25  2  0
M  END
