pyridine_urea_1114
     RDKit          3D

 21 23  0  0  0  0  0  0  0  0999 V2000
    9.1920   -0.5050   24.4270 C   0  0  0  0  0  0  0  0  0  0  0  0
   10.6180   -0.3680   24.1560 N   0  0  0  0  0  0  0  0  0  0  0  0
   11.0690    0.7980   23.8010 C   0  0  0  0  0  0  0  0  0  0  0  0
   12.1550    0.4250   23.1660 C   0  0  0  0  0  0  0  0  0  0  0  0
   13.1790    1.0090   23.0570 C   0  0  0  0  0  0  0  0  0  0  0  0
   13.1570   -0.3280   22.4030 C   0  0  0  0  0  0  0  0  0  0  0  0
   11.5690   -0.7840   22.7340 C   0  0  0  0  0  0  0  0  0  0  0  0
   10.3620   -1.7800   22.6500 C   0  0  0  0  0  0  0  0  0  0  0  0
    9.4320   -1.4820   21.5280 N   0  0  0  0  0  0  0  0  0  0  0  0
    8.6250   -0.3450   21.4480 C   0  0  0  0  0  0  0  0  0  0  0  0
    8.9820    0.8140   21.5930 O   0  0  0  0  0  0  0  0  0  0  0  0
    7.3100   -0.6390   21.1250 N   0  0  0  0  0  0  0  0  0  0  0  0
    6.5930   -0.0070   20.0850 C   0  0  0  0  0  0  0  0  0  0  0  0
    5.4400    0.7250   20.3740 C   0  0  0  0  0  0  0  0  0  0  0  0
    4.7150    1.3710   19.3740 C   0  0  0  0  0  0  0  0  0  0  0  0
    5.1780    1.2650   18.0810 C   0  0  0  0  0  0  0  0  0  0  0  0
    6.2780    0.5650   17.7590 N   0  0  0  0  0  0  0  0  0  0  0  0
    6.9590   -0.0530   18.7560 C   0  0  0  0  0  0  0  0  0  0  0  0
   12.1800   -1.8120   22.0170 C   0  0  0  0  0  0  0  0  0  0  0  0
   12.4860   -0.6680   22.4850 C   0  0  0  0  0  0  0  0  0  0  0  0
   11.1010   -0.9720   22.8730 C   0  0  0  0  0  0  0  0  0  0  0  0
  1  2  1  0
  2  3  1  0
  3  4  1  0
  4  5  2  0
  5  6  1  0
  6  7  2  0
  7  8  1  0
  8  9  1  0
  9 10  1  0
 10 11  2  0
 10 12  1  0
 12 13  1  0
 13 14  2  0
 14 15  1  0
 15 16  2  0
 16 17  1  0
 13 18  1  0
 17 18  2  0
  7 19  1  0
  4 20  1  0
 19 20  2  0
  2 21  1  0
 20 21  1  0
M  END
