pyridine_urea_9708
     RDKit          3D

 27 30  0  0  0  0  0  0  0  0999 V2000
    8.9040    1.1580   21.2240 O   0  0  0  0  0  0  0  0  0  0  0  0
    8.1870    0.2530   21.6800 C   0  0  0  0  0  0  0  0  0  0  0  0
    8.2330   -0.1850   22.9820 N   0  0  0  0  0  0  0  0  0  0  0  0
    8.3610    0.8210   24.0350 C   0  0  0  0  0  0  0  0  0  0  0  0
    9.6490    1.5050   23.7860 C   0  0  0  0  0  0  0  0  0  0  0  0
   11.2230    1.7110   23.6760 C   0  0  0  0  0  0  0  0  0  0  0  0
   12.3960    0.7480   23.9510 C   0  0  0  0  0  0  0  0  0  0  0  0
   12.1140   -0.6010   24.4290 C   0  0  0  0  0  0  0  0  0  0  0  0
   12.9830   -1.5340   24.6350 N   0  0  0  0  0  0  0  0  0  0  0  0
   13.8990   -2.3160   25.2550 C   0  0  0  0  0  0  0  0  0  0  0  0
   14.2760   -3.2130   24.2940 N   0  0  0  0  0  0  0  0  0  0  0  0
   13.5320   -2.9000   23.1470 C   0  0  0  0  0  0  0  0  0  0  0  0
   13.4430   -3.4020   21.8530 C   0  0  0  0  0  0  0  0  0  0  0  0
   12.5340   -2.8540   20.9840 C   0  0  0  0  0  0  0  0  0  0  0  0
   11.7300   -1.8100   21.3670 C   0  0  0  0  0  0  0  0  0  0  0  0
   11.8170   -1.2890   22.5600 C   0  0  0  0  0  0  0  0  0  0  0  0
   12.7600   -1.8910   23.4390 C   0  0  0  0  0  0  0  0  0  0  0  0
   10.7190   -0.6830   24.5190 C   0  0  0  0  0  0  0  0  0  0  0  0
    9.5400    0.0230   24.3230 C   0  0  0  0  0  0  0  0  0  0  0  0
    8.0500   -0.7880   24.6790 Cl  0  0  0  0  0  0  0  0  0  0  0  0
    7.2240   -0.4430   21.0080 N   0  0  0  0  0  0  0  0  0  0  0  0
    6.3980    0.2000   20.0050 C   0  0  0  0  0  0  0  0  0  0  0  0
    5.2570    0.8810   20.3060 C   0  0  0  0  0  0  0  0  0  0  0  0
    4.5910    1.4680   19.2240 C   0  0  0  0  0  0  0  0  0  0  0  0
    5.1180    1.3270   17.9360 C   0  0  0  0  0  0  0  0  0  0  0  0
    6.2610    0.6320   17.6240 N   0  0  0  0  0  0  0  0  0  0  0  0
    6.9170    0.0600   18.6420 C   0  0  0  0  0  0  0  0  0  0  0  0
  1  2  2  0
  2  3  1  0
  3  4  1  0
  4  5  1  0
  5  6  2  0
  6  7  1  0
  7  8  2  0
  8  9  1  0
  9 10  1  0
 10 11  2  0
 11 12  1  0
 12 13  1  0
 13 14  2  0
 14 15  1  0
 15 16  2  0
  9 17  1  0
 12 17  2  0
 16 17  1  0
  8 18  1  0
  5 19  1  0
 18 19  2  0
 19 20  1  0
  2 21  1  0
 21 22  1  0
 22 23  2  0
 23 24  1  0
 24 25  2  0
 25 26  1  0
 22 27  1  0
 26 27  2  0
M  END
