pyridine_urea_14948
     RDKit          3D

 19 21  0  0  0  0  0  0  0  0999 V2000
    8.8930    1.2450   21.1380 O   0  0  0  0  0  0  0  0  0  0  0  0
    8.4310    0.1990   21.6140 C   0  0  0  0  0  0  0  0  0  0  0  0
    7.4020   -0.5450   21.0620 N   0  0  0  0  0  0  0  0  0  0  0  0
    6.6310    0.0900   20.0350 C   0  0  0  0  0  0  0  0  0  0  0  0
    5.3770    0.8570   20.4540 C   0  0  0  0  0  0  0  0  0  0  0  0
    4.5820    1.5450   19.3450 C   0  0  0  0  0  0  0  0  0  0  0  0
    5.1460    1.3800   17.9340 C   0  0  0  0  0  0  0  0  0  0  0  0
    6.3060    0.6330   17.7250 N   0  0  0  0  0  0  0  0  0  0  0  0
    7.0030    0.0220   18.7190 C   0  0  0  0  0  0  0  0  0  0  0  0
    8.8670   -0.3640   22.7950 N   0  0  0  0  0  0  0  0  0  0  0  0
   10.2050   -0.7600   23.0090 C   0  0  1  0  0  0  0  0  0  0  0  0
   10.9300   -1.3430   21.9430 C   0  0  0  0  0  0  0  0  0  0  0  0
   12.3460   -1.4440   22.0680 C   0  0  0  0  0  0  0  0  0  0  0  0
   12.6350   -1.3530   23.3670 C   0  0  0  0  0  0  0  0  0  0  0  0
   13.5250   -1.9640   24.1380 N   0  0  0  0  0  0  0  0  0  0  0  0
   13.4090   -1.5260   25.4470 N   0  0  0  0  0  0  0  0  0  0  0  0
   12.4250   -0.5870   25.5270 N   0  0  0  0  0  0  0  0  0  0  0  0
   11.9970   -0.5600   24.1920 C   0  0  0  0  0  0  0  0  0  0  0  0
   10.9700    0.1840   23.7110 C   0  0  0  0  0  0  0  0  0  0  0  0
  1  2  2  0
  2  3  1  0
  3  4  1  0
  4  5  2  0
  5  6  1  0
  6  7  2  0
  7  8  1  0
  4  9  1  0
  8  9  2  0
  2 10  1  0
 11 10  1  6
 11 12  1  0
 12 13  1  0
 13 14  1  0
 14 15  1  0
 15 16  1  0
 16 17  2  0
 14 18  2  0
 17 18  1  0
 11 19  1  0
 18 19  1  0
M  END
