pyridine_urea_1568
     RDKit          3D

 19 20  0  0  0  0  0  0  0  0999 V2000
    8.7820    1.1340   21.1950 O   0  0  0  0  0  0  0  0  0  0  0  0
    8.2920    0.0550   21.5790 C   0  0  0  0  0  0  0  0  0  0  0  0
    8.7340   -0.7420   22.6100 N   0  0  0  0  0  0  0  0  0  0  0  0
   10.0780   -1.0720   22.8700 C   0  0  0  0  0  0  0  0  0  0  0  0
   10.7680   -0.1920   23.7000 C   0  0  0  0  0  0  0  0  0  0  0  0
   11.9280    0.4910   23.2850 C   0  0  0  0  0  0  0  0  0  0  0  0
   13.1160   -0.1360   23.1490 C   0  0  0  0  0  0  0  0  0  0  0  0
   13.1700   -1.4280   22.6560 C   0  0  0  0  0  0  0  0  0  0  0  0
   12.1980   -2.2600   22.0300 C   0  0  0  0  0  0  0  0  0  0  0  0
   11.0330   -1.2260   21.9470 C   0  0  0  0  0  0  0  0  0  0  0  0
   11.1040    0.1140   22.2510 C   0  0  0  0  0  0  0  0  0  0  0  0
   12.2260    0.6620   22.6450 N   0  0  0  0  0  0  0  0  0  0  0  0
    7.1760   -0.4850   21.0020 N   0  0  0  0  0  0  0  0  0  0  0  0
    6.5050    0.1030   19.9970 C   0  0  0  0  0  0  0  0  0  0  0  0
    5.3460    0.8220   20.2890 C   0  0  0  0  0  0  0  0  0  0  0  0
    4.6560    1.4480   19.2560 C   0  0  0  0  0  0  0  0  0  0  0  0
    5.1530    1.3290   17.9790 C   0  0  0  0  0  0  0  0  0  0  0  0
    6.2610    0.6360   17.6720 N   0  0  0  0  0  0  0  0  0  0  0  0
    6.9100    0.0400   18.6870 C   0  0  0  0  0  0  0  0  0  0  0  0
  1  2  2  0
  2  3  1  0
  3  4  1  0
  4  5  1  0
  5  6  1  0
  6  7  1  0
  7  8  2  0
  8  9  1  0
  9 10  2  0
 10 11  1  0
  7 12  1  0
 11 12  2  0
  2 13  1  0
 13 14  1  0
 14 15  2  0
 15 16  1  0
 16 17  2  0
 17 18  1  0
 14 19  1  0
 18 19  2  0
M  END
