pyridine_urea_3557
     RDKit          3D

 18 19  0  0  0  0  0  0  0  0999 V2000
   13.0930   -2.1200   21.1270 C   0  0  0  0  0  0  0  0  0  0  0  0
   12.2190   -1.4540   22.1620 C   0  0  0  0  0  0  0  0  0  0  0  0
   12.8850   -1.1690   23.4660 C   0  0  0  0  0  0  0  0  0  0  0  0
   12.1640   -0.5400   24.6080 C   0  0  0  0  0  0  0  0  0  0  0  0
   12.8310   -0.3640   25.7050 F   0  0  0  0  0  0  0  0  0  0  0  0
   10.6980   -0.1610   24.4250 C   0  0  0  0  0  0  0  0  0  0  0  0
   10.0350   -0.4500   23.1010 C   0  0  0  0  0  0  0  0  0  0  0  0
    8.6450   -0.1160   22.8800 N   0  0  0  0  0  0  0  0  0  0  0  0
    8.3090    0.3490   21.6300 C   0  0  0  0  0  0  0  0  0  0  0  0
    8.8590    1.3400   21.1330 O   0  0  0  0  0  0  0  0  0  0  0  0
    7.2550   -0.4660   21.0310 N   0  0  0  0  0  0  0  0  0  0  0  0
    6.4800    0.1530   20.0510 C   0  0  0  0  0  0  0  0  0  0  0  0
    5.3030    0.8610   20.2890 C   0  0  0  0  0  0  0  0  0  0  0  0
    4.6400    1.4440   19.2260 C   0  0  0  0  0  0  0  0  0  0  0  0
    5.1650    1.3070   17.9560 C   0  0  0  0  0  0  0  0  0  0  0  0
    6.2860    0.6250   17.6960 N   0  0  0  0  0  0  0  0  0  0  0  0
    6.9160    0.0630   18.7450 C   0  0  0  0  0  0  0  0  0  0  0  0
   10.7640   -1.0920   21.9590 C   0  0  0  0  0  0  0  0  0  0  0  0
  1  2  1  0
  2  3  2  0
  3  4  1  0
  4  5  1  0
  4  6  2  0
  6  7  1  0
  7  8  1  0
  8  9  1  0
  9 10  2  0
  9 11  1  0
 11 12  1  0
 12 13  2  0
 13 14  1  0
 14 15  2  0
 15 16  1  0
 12 17  1  0
 16 17  2  0
  2 18  1  0
  7 18  2  0
M  END
