pyridine_urea_10425
     RDKit          3D

 22 23  0  0  0  0  0  0  0  0999 V2000
   12.5570   -0.7620   25.4190 C   0  0  0  0  0  0  0  0  0  0  0  0
   13.2530   -2.3850   25.1640 S   0  0  0  0  0  0  0  0  0  0  0  0
   14.4910   -2.5990   25.8610 O   0  0  0  0  0  0  0  0  0  0  0  0
   12.2330   -3.3570   24.8570 O   0  0  0  0  0  0  0  0  0  0  0  0
   13.5610   -1.5390   23.6560 C   0  0  0  0  0  0  0  0  0  0  0  0
   12.2330   -1.0130   23.3770 C   0  0  0  0  0  0  0  0  0  0  0  0
   11.4600   -0.2600   24.4050 C   0  0  0  0  0  0  0  0  0  0  0  0
   10.1400    0.2120   24.1500 C   0  0  0  0  0  0  0  0  0  0  0  0
    9.5930   -0.0380   22.9510 C   0  0  0  0  0  0  0  0  0  0  0  0
    8.3460    0.3570   22.6530 N   0  0  0  0  0  0  0  0  0  0  0  0
    7.9990   -0.3340   21.5460 C   0  0  0  0  0  0  0  0  0  0  0  0
    8.9050   -0.9180   20.7840 O   0  0  0  0  0  0  0  0  0  0  0  0
    6.6690   -0.3470   21.2940 N   0  0  0  0  0  0  0  0  0  0  0  0
    6.1830    0.2200   20.1200 C   0  0  0  0  0  0  0  0  0  0  0  0
    5.0120    0.9440   20.1740 C   0  0  0  0  0  0  0  0  0  0  0  0
    4.5180    1.5280   19.0410 C   0  0  0  0  0  0  0  0  0  0  0  0
    5.1900    1.3970   17.8310 C   0  0  0  0  0  0  0  0  0  0  0  0
    6.3300    0.6920   17.7400 N   0  0  0  0  0  0  0  0  0  0  0  0
    6.8040    0.1160   18.8750 C   0  0  0  0  0  0  0  0  0  0  0  0
   10.5680   -0.8270   22.0030 C   0  0  0  0  0  0  0  0  0  0  0  0
   11.8620   -1.3760   22.0140 C   0  0  0  0  0  0  0  0  0  0  0  0
   12.8250   -2.2180   20.9230 Cl  0  0  0  0  0  0  0  0  0  0  0  0
  2  1  1  0
  2  3  2  0
  2  4  2  0
  2  5  1  0
  5  6  1  0
  6  7  2  0
  7  8  1  0
  8  9  2  0
  9 10  1  0
 10 11  1  0
 11 12  2  0
 11 13  1  0
 13 14  1  0
 14 15  2  0
 15 16  1  0
 16 17  2  0
 17 18  1  0
 14 19  1  0
 18 19  2  0
  9 20  1  0
  6 21  1  0
 20 21  2  0
 21 22  1  0
M  END
