pyridine_urea_12345
     RDKit          3D

 22 24  0  0  0  0  0  0  0  0999 V2000
    5.3890    4.1370   27.5970 C   0  0  0  0  0  0  0  0  0  0  0  0
    5.0250    2.8140   27.2220 O   0  0  0  0  0  0  0  0  0  0  0  0
    6.0860    1.8910   27.4880 C   0  0  0  0  0  0  0  0  0  0  0  0
    6.6080    1.9620   28.9740 C   0  0  0  0  0  0  0  0  0  0  0  0
    7.6380    1.1350   29.4150 C   0  0  0  0  0  0  0  0  0  0  0  0
    8.2600    0.1500   28.4320 C   0  0  0  0  0  0  0  0  0  0  0  0
    7.7510    0.1400   27.1340 C   0  0  0  0  0  0  0  0  0  0  0  0
    8.1430   -0.6740   26.0160 N   0  0  0  0  0  0  0  0  0  0  0  0
    7.3060   -0.2960   24.9190 C   0  0  0  0  0  0  0  0  0  0  0  0
    7.3340   -0.8860   23.5140 C   0  0  0  0  0  0  0  0  0  0  0  0
    8.5550   -0.5430   22.8110 N   0  0  0  0  0  0  0  0  0  0  0  0
    8.4130    0.1110   21.6100 C   0  0  0  0  0  0  0  0  0  0  0  0
    9.0490    1.1040   21.2340 O   0  0  0  0  0  0  0  0  0  0  0  0
    7.4160   -0.5120   20.9040 N   0  0  0  0  0  0  0  0  0  0  0  0
    6.5670    0.1330   20.0100 C   0  0  0  0  0  0  0  0  0  0  0  0
    5.2790    0.8660   20.3640 C   0  0  0  0  0  0  0  0  0  0  0  0
    4.5800    1.4920   19.1690 C   0  0  0  0  0  0  0  0  0  0  0  0
    5.1460    1.3480   17.9140 C   0  0  0  0  0  0  0  0  0  0  0  0
    6.2810    0.6790   17.6680 N   0  0  0  0  0  0  0  0  0  0  0  0
    6.9360    0.1080   18.6900 C   0  0  0  0  0  0  0  0  0  0  0  0
    6.4310    0.6980   25.2920 N   0  0  0  0  0  0  0  0  0  0  0  0
    6.7090    0.9570   26.6380 C   0  0  0  0  0  0  0  0  0  0  0  0
  1  2  1  0
  2  3  1  0
  3  4  2  0
  4  5  1  0
  5  6  2  0
  6  7  1  0
  7  8  1  0
  8  9  1  0
  9 10  1  0
 10 11  1  0
 11 12  1  0
 12 13  2  0
 12 14  1  0
 14 15  1  0
 15 16  2  0
 16 17  1  0
 17 18  2  0
 18 19  1  0
 15 20  1  0
 19 20  2  0
  9 21  2  0
  3 22  1  0
  7 22  2  0
 21 22  1  0
M  END
