pyridine_urea_6868
     RDKit          3D

 20 21  0  0  0  0  0  0  0  0999 V2000
   13.5010   -2.8740   24.7930 C   0  0  0  0  0  0  0  0  0  0  0  0
   12.8210   -1.8390   24.1260 O   0  0  0  0  0  0  0  0  0  0  0  0
   12.7990   -0.6740   24.8160 C   0  0  0  0  0  0  0  0  0  0  0  0
   13.1810   -0.5620   25.9500 O   0  0  0  0  0  0  0  0  0  0  0  0
   12.2560    0.4300   23.9640 C   0  0  1  0  0  0  0  0  0  0  0  0
   12.6970    0.0770   22.6010 C   0  0  0  0  0  0  0  0  0  0  0  0
   11.7840   -0.6280   22.1980 O   0  0  0  0  0  0  0  0  0  0  0  0
   10.7580   -0.8660   23.1040 C   0  0  2  0  0  0  0  0  0  0  0  0
    9.5490   -1.2420   22.5830 C   0  0  0  0  0  0  0  0  0  0  0  0
    8.7530   -0.1840   22.8370 N   0  0  0  0  0  0  0  0  0  0  0  0
    8.3760    0.3770   21.6470 C   0  0  0  0  0  0  0  0  0  0  0  0
    8.9360    1.3760   21.1860 O   0  0  0  0  0  0  0  0  0  0  0  0
    7.3200   -0.3020   21.0930 N   0  0  0  0  0  0  0  0  0  0  0  0
    6.5750    0.2200   20.0380 C   0  0  0  0  0  0  0  0  0  0  0  0
    5.4160    0.9440   20.3200 C   0  0  0  0  0  0  0  0  0  0  0  0
    4.6900    1.4830   19.2770 C   0  0  0  0  0  0  0  0  0  0  0  0
    5.1350    1.2870   17.9720 C   0  0  0  0  0  0  0  0  0  0  0  0
    6.2370    0.5860   17.6880 N   0  0  0  0  0  0  0  0  0  0  0  0
    6.9270    0.0700   18.7170 C   0  0  0  0  0  0  0  0  0  0  0  0
   10.7340    0.4050   23.9590 C   0  0  0  0  0  0  0  0  0  0  0  0
  1  2  1  0
  2  3  1  0
  3  4  2  0
  5  3  1  1
  5  6  1  0
  6  7  1  0
  7  8  1  0
  8  9  1  6
  9 10  1  0
 10 11  1  0
 11 12  2  0
 11 13  1  0
 13 14  1  0
 14 15  2  0
 15 16  1  0
 16 17  2  0
 17 18  1  0
 14 19  1  0
 18 19  2  0
  5 20  1  0
  8 20  1  0
M  END
