pyridine_urea_75
     RDKit          3D

 22 24  0  0  0  0  0  0  0  0999 V2000
    8.9310    1.1920   21.1580 O   0  0  0  0  0  0  0  0  0  0  0  0
    8.3910    0.1780   21.6300 C   0  0  0  0  0  0  0  0  0  0  0  0
    7.3570   -0.5190   21.0410 N   0  0  0  0  0  0  0  0  0  0  0  0
    6.6180    0.1020   19.9780 C   0  0  0  0  0  0  0  0  0  0  0  0
    5.3640    0.8710   20.3840 C   0  0  0  0  0  0  0  0  0  0  0  0
    4.6460    1.5070   19.2460 C   0  0  0  0  0  0  0  0  0  0  0  0
    5.1570    1.3510   17.9750 C   0  0  0  0  0  0  0  0  0  0  0  0
    6.2650    0.6510   17.6760 N   0  0  0  0  0  0  0  0  0  0  0  0
    6.9580    0.0540   18.6620 C   0  0  0  0  0  0  0  0  0  0  0  0
    8.7360   -0.3820   22.8400 N   0  0  0  0  0  0  0  0  0  0  0  0
    9.8610   -1.3250   23.0580 C   0  0  0  0  0  0  0  0  0  0  0  0
    9.5510   -2.5860   23.3810 C   0  0  0  0  0  0  0  0  0  0  0  0
    8.2620   -3.0200   23.2240 N   0  0  0  0  0  0  0  0  0  0  0  0
    7.8580   -4.2660   23.5050 C   0  0  0  0  0  0  0  0  0  0  0  0
    6.5490   -4.3760   23.2430 C   0  0  0  0  0  0  0  0  0  0  0  0
    6.1390   -3.1450   22.7860 C   0  0  0  0  0  0  0  0  0  0  0  0
    7.1940   -2.2650   22.7610 N   0  0  0  0  0  0  0  0  0  0  0  0
   10.8430   -1.3660   22.0030 C   0  0  0  0  0  0  0  0  0  0  0  0
   12.1810   -1.2040   22.6850 C   0  0  0  0  0  0  0  0  0  0  0  0
   13.0690   -0.3220   22.1880 F   0  0  0  0  0  0  0  0  0  0  0  0
   12.8410   -2.3110   23.0860 F   0  0  0  0  0  0  0  0  0  0  0  0
   11.1090   -0.6210   23.6470 C   0  0  0  0  0  0  0  0  0  0  0  0
  1  2  2  0
  2  3  1  0
  3  4  1  0
  4  5  2  0
  5  6  1  0
  6  7  2  0
  7  8  1  0
  4  9  1  0
  8  9  2  0
  2 10  1  0
 11 10  1  0
 11 12  1  0
 12 13  1  0
 13 14  1  0
 14 15  2  0
 15 16  1  0
 13 17  1  0
 16 17  2  0
 11 18  1  0
 18 19  1  0
 19 20  1  0
 19 21  1  0
 11 22  1  0
 19 22  1  0
M  END
