pyridine_urea_221
     RDKit          3D

 26 29  0  0  0  0  0  0  0  0999 V2000
    8.7430    0.9860   21.4530 O   0  0  0  0  0  0  0  0  0  0  0  0
    8.2860   -0.1300   21.2700 C   0  0  0  0  0  0  0  0  0  0  0  0
    9.0290   -1.2600   21.2160 N   0  0  0  0  0  0  0  0  0  0  0  0
    9.8060   -1.6900   22.3250 C   0  0  0  0  0  0  0  0  0  0  0  0
   11.2920   -1.4970   22.1310 C   0  0  2  0  0  0  0  0  0  0  0  0
   11.9070   -2.4830   22.9660 C   0  0  0  0  0  0  0  0  0  0  0  0
   11.8080   -1.9990   24.2060 N   0  0  0  0  0  0  0  0  0  0  0  0
   12.3980   -2.8780   24.9110 C   0  0  0  0  0  0  0  0  0  0  0  0
   11.1030   -3.6610   25.2880 C   0  0  0  0  0  0  0  0  0  0  0  0
    9.8730   -3.4900   24.4430 C   0  0  0  0  0  0  0  0  0  0  0  0
    8.6680   -4.1170   24.6570 C   0  0  0  0  0  0  0  0  0  0  0  0
    8.7930   -4.9940   25.8760 C   0  0  0  0  0  0  0  0  0  0  0  0
    9.9060   -5.1480   26.6470 C   0  0  0  0  0  0  0  0  0  0  0  0
   11.0670   -4.4860   26.3580 C   0  0  0  0  0  0  0  0  0  0  0  0
   12.3540   -0.7330   23.9920 C   0  0  0  0  0  0  0  0  0  0  0  0
   11.7250   -0.1610   22.7230 C   0  0  0  0  0  0  0  0  0  0  0  0
   13.0090    0.2800   23.1560 C   0  0  0  0  0  0  0  0  0  0  0  0
   12.2190    1.4660   23.4950 C   0  0  0  0  0  0  0  0  0  0  0  0
   10.9270    1.0460   23.0540 C   0  0  0  0  0  0  0  0  0  0  0  0
    6.9650   -0.4030   21.0460 N   0  0  0  0  0  0  0  0  0  0  0  0
    6.2970    0.1990   20.0620 C   0  0  0  0  0  0  0  0  0  0  0  0
    5.1030    0.8910   20.1970 C   0  0  0  0  0  0  0  0  0  0  0  0
    4.5270    1.4890   19.0870 C   0  0  0  0  0  0  0  0  0  0  0  0
    5.1760    1.3730   17.8630 C   0  0  0  0  0  0  0  0  0  0  0  0
    6.3260    0.7010   17.7060 N   0  0  0  0  0  0  0  0  0  0  0  0
    6.8520    0.1340   18.7970 C   0  0  0  0  0  0  0  0  0  0  0  0
  1  2  2  0
  2  3  1  0
  3  4  1  0
  5  4  1  1
  5  6  1  0
  6  7  1  0
  7  8  1  0
  8  9  1  0
  9 10  2  0
 10 11  1  0
 11 12  2  0
 12 13  1  0
  9 14  1  0
 13 14  2  0
  7 15  1  0
  5 16  1  0
 16 15  1  0
 16 17  1  0
 17 18  1  0
 16 19  1  0
 18 19  1  0
  2 20  1  0
 20 21  1  0
 21 22  2  0
 22 23  1  0
 23 24  2  0
 24 25  1  0
 21 26  1  0
 25 26  2  0
M  END
