pyridine_urea_6188
     RDKit          3D

 24 26  0  0  0  0  0  0  0  0999 V2000
    5.5210   -7.6860   29.6840 C   0  0  0  0  0  0  0  0  0  0  0  0
    5.7290   -6.3460   30.1130 O   0  0  0  0  0  0  0  0  0  0  0  0
    6.3460   -5.5600   29.0950 C   0  0  0  0  0  0  0  0  0  0  0  0
    7.5660   -6.1190   28.4120 C   0  0  0  0  0  0  0  0  0  0  0  0
    8.2770   -5.3960   27.3470 C   0  0  0  0  0  0  0  0  0  0  0  0
    7.8890   -4.1550   26.8880 C   0  0  0  0  0  0  0  0  0  0  0  0
    8.4890   -3.2640   25.8050 C   0  0  0  0  0  0  0  0  0  0  0  0
    9.9070   -3.3790   25.3760 N   0  0  0  0  0  0  0  0  0  0  0  0
    9.9320   -2.4110   24.4510 N   0  0  0  0  0  0  0  0  0  0  0  0
    8.6950   -1.7570   24.3030 C   0  0  0  0  0  0  0  0  0  0  0  0
    8.3750   -0.7650   23.4890 C   0  0  0  0  0  0  0  0  0  0  0  0
    8.9890   -0.7330   22.3060 N   0  0  0  0  0  0  0  0  0  0  0  0
    8.3810    0.0740   21.4130 C   0  0  0  0  0  0  0  0  0  0  0  0
    8.8050    1.1850   21.0760 O   0  0  0  0  0  0  0  0  0  0  0  0
    7.2390   -0.5340   20.9960 N   0  0  0  0  0  0  0  0  0  0  0  0
    6.5050    0.1180   20.0760 C   0  0  0  0  0  0  0  0  0  0  0  0
    5.3610    0.8670   20.3900 C   0  0  0  0  0  0  0  0  0  0  0  0
    4.6710    1.5150   19.3790 C   0  0  0  0  0  0  0  0  0  0  0  0
    5.1670    1.4050   17.9710 C   0  0  0  0  0  0  0  0  0  0  0  0
    6.3280    0.6260   17.6980 N   0  0  0  0  0  0  0  0  0  0  0  0
    6.9900   -0.0080   18.6980 C   0  0  0  0  0  0  0  0  0  0  0  0
    7.8140   -2.3160   25.1620 N   0  0  0  0  0  0  0  0  0  0  0  0
    6.6140   -3.5350   27.5860 C   0  0  0  0  0  0  0  0  0  0  0  0
    5.9010   -4.1780   28.6030 C   0  0  0  0  0  0  0  0  0  0  0  0
  1  2  1  0
  2  3  1  0
  3  4  2  0
  4  5  1  0
  5  6  2  0
  6  7  1  0
  7  8  2  0
  8  9  1  0
  9 10  2  0
 10 11  1  0
 11 12  1  0
 12 13  1  0
 13 14  2  0
 13 15  1  0
 15 16  1  0
 16 17  2  0
 17 18  1  0
 18 19  2  0
 19 20  1  0
 16 21  1  0
 20 21  2  0
  7 22  1  0
 10 22  1  0
  6 23  1  0
  3 24  1  0
 23 24  2  0
M  END
