pyridine_urea_6899
     RDKit          3D

 21 22  0  0  0  0  0  0  0  0999 V2000
    8.1510   -1.2730   24.9730 O   0  0  0  0  0  0  0  0  0  0  0  0
    8.6260   -2.2010   24.3360 C   0  0  0  0  0  0  0  0  0  0  0  0
    8.9280   -2.0440   22.8560 C   0  0  0  0  0  0  0  0  0  0  0  0
    9.3740   -0.6930   22.5230 N   0  0  0  0  0  0  0  0  0  0  0  0
    8.5780    0.0790   21.5670 C   0  0  0  0  0  0  0  0  0  0  0  0
    8.9460    1.2160   21.1980 O   0  0  0  0  0  0  0  0  0  0  0  0
    7.3980   -0.4920   21.1020 N   0  0  0  0  0  0  0  0  0  0  0  0
    6.6080    0.1290   20.0490 C   0  0  0  0  0  0  0  0  0  0  0  0
    5.4690    0.8690   20.4120 C   0  0  0  0  0  0  0  0  0  0  0  0
    4.6950    1.4970   19.4230 C   0  0  0  0  0  0  0  0  0  0  0  0
    5.1690    1.3220   17.9850 C   0  0  0  0  0  0  0  0  0  0  0  0
    6.2690    0.5910   17.6820 N   0  0  0  0  0  0  0  0  0  0  0  0
    6.9850   -0.0070   18.7150 C   0  0  0  0  0  0  0  0  0  0  0  0
    8.9350   -3.4460   24.8290 N   0  0  0  0  0  0  0  0  0  0  0  0
    7.9870   -4.3170   25.2390 C   0  0  0  0  0  0  0  0  0  0  0  0
    7.0830   -4.8310   24.3170 C   0  0  0  0  0  0  0  0  0  0  0  0
    5.7970   -4.2930   24.2000 C   0  0  0  0  0  0  0  0  0  0  0  0
    4.8430   -4.8690   23.1990 C   0  0  0  0  0  0  0  0  0  0  0  0
    5.2980   -5.9400   22.4170 C   0  0  0  0  0  0  0  0  0  0  0  0
    6.5960   -6.3960   22.6160 C   0  0  0  0  0  0  0  0  0  0  0  0
    7.4200   -5.8490   23.5230 N   0  0  0  0  0  0  0  0  0  0  0  0
  1  2  2  0
  2  3  1  0
  3  4  1  0
  4  5  1  0
  5  6  2  0
  5  7  1  0
  7  8  1  0
  8  9  2  0
  9 10  1  0
 10 11  2  0
 11 12  1  0
  8 13  1  0
 12 13  2  0
  2 14  1  0
 14 15  1  0
 15 16  1  0
 16 17  2  0
 17 18  1  0
 18 19  2  0
 19 20  1  0
 16 21  1  0
 20 21  2  0
M  END
