pyridine_urea_14782
     RDKit          3D

 20 22  0  0  0  0  0  0  0  0999 V2000
   13.0710   -2.5590   21.0120 C   0  0  0  0  0  0  0  0  0  0  0  0
   12.9390   -2.1420   22.3040 N   0  0  0  0  0  0  0  0  0  0  0  0
   13.9150   -2.3750   23.2630 N   0  0  0  0  0  0  0  0  0  0  0  0
   13.4220   -1.8100   24.3620 C   0  0  0  0  0  0  0  0  0  0  0  0
   12.2240   -1.2670   24.1320 C   0  0  0  0  0  0  0  0  0  0  0  0
   11.4030   -0.6150   24.9870 C   0  0  0  0  0  0  0  0  0  0  0  0
   10.2190   -0.2200   24.4740 C   0  0  0  0  0  0  0  0  0  0  0  0
    9.8180   -0.4160   23.1750 C   0  0  0  0  0  0  0  0  0  0  0  0
    8.5130    0.0420   22.7940 N   0  0  0  0  0  0  0  0  0  0  0  0
    8.2410    0.3660   21.4840 C   0  0  0  0  0  0  0  0  0  0  0  0
    8.7910    1.3450   20.9820 O   0  0  0  0  0  0  0  0  0  0  0  0
    7.3470   -0.4410   20.8910 N   0  0  0  0  0  0  0  0  0  0  0  0
    6.6170    0.1540   19.9600 C   0  0  0  0  0  0  0  0  0  0  0  0
    5.4710    0.9020   20.2760 C   0  0  0  0  0  0  0  0  0  0  0  0
    4.7220    1.5430   19.2880 C   0  0  0  0  0  0  0  0  0  0  0  0
    5.0930    1.4590   17.9540 C   0  0  0  0  0  0  0  0  0  0  0  0
    6.2700    0.6700   17.6520 N   0  0  0  0  0  0  0  0  0  0  0  0
    6.9710    0.0610   18.6470 C   0  0  0  0  0  0  0  0  0  0  0  0
   10.7300   -1.0990   22.2200 C   0  0  0  0  0  0  0  0  0  0  0  0
   11.8920   -1.4730   22.8510 C   0  0  0  0  0  0  0  0  0  0  0  0
  1  2  1  0
  2  3  1  0
  3  4  2  0
  4  5  1  0
  5  6  1  0
  6  7  2  0
  7  8  1  0
  8  9  1  0
  9 10  1  0
 10 11  2  0
 10 12  1  0
 12 13  1  0
 13 14  2  0
 14 15  1  0
 15 16  2  0
 16 17  1  0
 13 18  1  0
 17 18  2  0
  8 19  2  0
  2 20  1  0
  5 20  2  0
 19 20  1  0
M  END
