pyridine_urea_8001
     RDKit          3D

 25 27  0  0  0  0  0  0  0  0999 V2000
   10.0520    6.8820   22.7680 C   0  0  0  0  0  0  0  0  0  0  0  0
   10.9540    5.6570   22.8090 C   0  0  0  0  0  0  0  0  0  0  0  0
   12.3060    5.6680   22.4760 C   0  0  0  0  0  0  0  0  0  0  0  0
   13.1520    4.5610   22.5080 C   0  0  0  0  0  0  0  0  0  0  0  0
   12.5520    3.3750   22.9120 C   0  0  0  0  0  0  0  0  0  0  0  0
   13.1640    2.2950   23.0050 O   0  0  0  0  0  0  0  0  0  0  0  0
   12.3130    1.2550   22.8490 C   0  0  0  0  0  0  0  0  0  0  0  0
   12.6430   -0.0500   22.6150 C   0  0  0  0  0  0  0  0  0  0  0  0
   11.5400   -1.0420   22.4050 C   0  0  0  0  0  0  0  0  0  0  0  0
   10.2330   -0.5200   22.4800 C   0  0  0  0  0  0  0  0  0  0  0  0
    9.1190   -1.3780   22.2180 N   0  0  0  0  0  0  0  0  0  0  0  0
    8.2750   -0.5760   21.4500 C   0  0  0  0  0  0  0  0  0  0  0  0
    8.5860    0.5730   21.1700 O   0  0  0  0  0  0  0  0  0  0  0  0
    7.0840   -1.0750   20.9970 N   0  0  0  0  0  0  0  0  0  0  0  0
    6.3790   -0.3150   20.0850 C   0  0  0  0  0  0  0  0  0  0  0  0
    5.1750    0.3560   20.3220 C   0  0  0  0  0  0  0  0  0  0  0  0
    4.5820    1.1130   19.2940 C   0  0  0  0  0  0  0  0  0  0  0  0
    5.1940    1.1940   18.0490 C   0  0  0  0  0  0  0  0  0  0  0  0
    6.3460    0.5650   17.7790 N   0  0  0  0  0  0  0  0  0  0  0  0
    6.9190   -0.1870   18.8140 C   0  0  0  0  0  0  0  0  0  0  0  0
    9.8110    0.7920   22.7590 C   0  0  0  0  0  0  0  0  0  0  0  0
   10.9760    1.5110   22.9040 N   0  0  0  0  0  0  0  0  0  0  0  0
   11.2110    3.2750   23.2540 C   0  0  0  0  0  0  0  0  0  0  0  0
   10.3380    4.3440   23.2370 C   0  0  0  0  0  0  0  0  0  0  0  0
    8.9900    4.1950   23.5940 C   0  0  0  0  0  0  0  0  0  0  0  0
  1  2  1  0
  2  3  2  0
  3  4  1  0
  4  5  2  0
  5  6  1  0
  6  7  1  0
  7  8  2  0
  8  9  1  0
  9 10  2  0
 10 11  1  0
 11 12  1  0
 12 13  2  0
 12 14  1  0
 14 15  1  0
 15 16  2  0
 16 17  1  0
 17 18  2  0
 18 19  1  0
 15 20  1  0
 19 20  2  0
 10 21  1  0
  7 22  1  0
 21 22  2  0
  5 23  1  0
  2 24  1  0
 23 24  2  0
 24 25  1  0
M  END
