pyridine_urea_1896
     RDKit          3D

 15 15  0  0  0  0  0  0  0  0999 V2000
   12.5380    1.0490   23.0000 C   0  0  0  0  0  0  0  0  0  0  0  0
   11.0980    0.6080   22.9730 C   0  0  0  0  0  0  0  0  0  0  0  0
   10.6620   -0.6790   22.6890 C   0  0  0  0  0  0  0  0  0  0  0  0
   11.5110   -1.6090   22.0730 C   0  0  0  0  0  0  0  0  0  0  0  0
   11.1710   -1.8910   23.4480 C   0  0  0  0  0  0  0  0  0  0  0  0
    9.2990   -0.9070   22.3450 N   0  0  0  0  0  0  0  0  0  0  0  0
    8.6520    0.0310   21.5550 C   0  0  0  0  0  0  0  0  0  0  0  0
    9.1350    1.1520   21.3140 O   0  0  0  0  0  0  0  0  0  0  0  0
    7.3630   -0.4450   21.0640 N   0  0  0  0  0  0  0  0  0  0  0  0
    6.6260    0.0860   20.0560 C   0  0  0  0  0  0  0  0  0  0  0  0
    5.3350    0.8600   20.3830 C   0  0  0  0  0  0  0  0  0  0  0  0
    4.6400    1.3990   19.3190 C   0  0  0  0  0  0  0  0  0  0  0  0
    5.1270    1.2210   18.0310 C   0  0  0  0  0  0  0  0  0  0  0  0
    6.2450    0.5440   17.7230 N   0  0  0  0  0  0  0  0  0  0  0  0
    6.9650   -0.0080   18.7210 C   0  0  0  0  0  0  0  0  0  0  0  0
  1  2  2  3
  3  2  1  0
  3  4  1  0
  3  5  1  0
  3  6  1  0
  6  7  1  0
  7  8  2  0
  7  9  1  0
  9 10  1  0
 10 11  2  0
 11 12  1  0
 12 13  2  0
 13 14  1  0
 10 15  1  0
 14 15  2  0
M  END
