pyridine_urea_2409
     RDKit          3D

 25 27  0  0  0  0  0  0  0  0999 V2000
   13.4880   -3.3550   20.6550 C   0  0  0  0  0  0  0  0  0  0  0  0
   13.7160   -2.1630   20.6870 O   0  0  0  0  0  0  0  0  0  0  0  0
   12.8300   -1.6480   21.5050 C   0  0  0  0  0  0  0  0  0  0  0  0
   11.6540   -2.2120   21.5220 C   0  0  0  0  0  0  0  0  0  0  0  0
   10.7450   -1.7270   22.3170 C   0  0  0  0  0  0  0  0  0  0  0  0
   11.1550   -0.6230   23.0780 C   0  0  0  0  0  0  0  0  0  0  0  0
   10.1060   -0.1870   23.8730 C   0  0  2  0  0  0  0  0  0  0  0  0
    8.9040   -0.4700   23.0320 N   0  0  0  0  0  0  0  0  0  0  0  0
    8.6290    0.2720   21.8940 C   0  0  0  0  0  0  0  0  0  0  0  0
    9.3810    1.4100   21.4690 O   0  0  0  0  0  0  0  0  0  0  0  0
    7.5870   -0.0610   21.1660 N   0  0  0  0  0  0  0  0  0  0  0  0
    6.7350    0.2300   20.1450 C   0  0  0  0  0  0  0  0  0  0  0  0
    5.5470    0.9150   20.3900 C   0  0  0  0  0  0  0  0  0  0  0  0
    4.7010    1.2510   19.3630 C   0  0  0  0  0  0  0  0  0  0  0  0
    5.0170    0.9150   18.0680 C   0  0  0  0  0  0  0  0  0  0  0  0
    6.1420    0.2430   17.7700 N   0  0  0  0  0  0  0  0  0  0  0  0
    6.9450   -0.0710   18.8080 C   0  0  0  0  0  0  0  0  0  0  0  0
   10.1020    1.3500   23.9740 C   0  0  0  0  0  0  0  0  0  0  0  0
   11.3960    0.9710   23.8850 C   0  0  0  0  0  0  0  0  0  0  0  0
   11.4640   -0.4160   23.9270 C   0  0  0  0  0  0  0  0  0  0  0  0
   10.2170   -1.1530   24.0480 C   0  0  0  0  0  0  0  0  0  0  0  0
    8.9140   -0.5080   24.1180 C   0  0  0  0  0  0  0  0  0  0  0  0
    8.8350    0.9050   24.0750 C   0  0  0  0  0  0  0  0  0  0  0  0
   12.4100    0.1250   23.1840 C   0  0  0  0  0  0  0  0  0  0  0  0
   13.1890   -0.5720   22.2670 C   0  0  0  0  0  0  0  0  0  0  0  0
  1  2  1  0
  2  3  1  0
  3  4  2  0
  4  5  1  0
  5  6  2  0
  6  7  1  0
  7  8  1  6
  8  9  1  0
  9 10  2  0
  9 11  1  0
 11 12  1  0
 12 13  2  0
 13 14  1  0
 14 15  2  0
 15 16  1  0
 12 17  1  0
 16 17  2  0
  7 18  1  0
 18 19  2  0
 19 20  1  0
 20 21  2  0
 21 22  1  0
 18 23  1  0
 22 23  2  0
  6 24  1  0
  3 25  1  0
 24 25  2  0
M  END
