pyridine_urea_6122
     RDKit          3D

 25 27  0  0  0  0  0  0  0  0999 V2000
    9.6540   -3.3590   23.5050 C   0  0  0  0  0  0  0  0  0  0  0  0
    8.0870   -4.2740   23.5390 S   0  0  0  0  0  0  0  0  0  0  0  0
    7.2910   -2.7310   24.0040 C   0  0  0  0  0  0  0  0  0  0  0  0
    7.9780   -1.7640   24.8500 N   0  0  0  0  0  0  0  0  0  0  0  0
    7.1710   -0.7310   24.9880 N   0  0  0  0  0  0  0  0  0  0  0  0
    6.0450   -1.0220   24.2730 C   0  0  0  0  0  0  0  0  0  0  0  0
    5.1730    0.1630   24.4080 C   0  0  0  0  0  0  0  0  0  0  0  0
    5.9180    1.3370   24.4560 C   0  0  0  0  0  0  0  0  0  0  0  0
    7.2810    1.6320   23.7400 C   0  0  0  0  0  0  0  0  0  0  0  0
    7.9130    0.5330   23.1450 N   0  0  0  0  0  0  0  0  0  0  0  0
    8.1220    0.4280   21.6870 C   0  0  0  0  0  0  0  0  0  0  0  0
    9.0330    1.3790   21.1290 O   0  0  0  0  0  0  0  0  0  0  0  0
    7.4150   -0.5190   20.8800 N   0  0  0  0  0  0  0  0  0  0  0  0
    6.6130    0.0960   20.0030 C   0  0  0  0  0  0  0  0  0  0  0  0
    5.3590    0.8430   20.3150 C   0  0  0  0  0  0  0  0  0  0  0  0
    4.7100    1.4170   19.2450 C   0  0  0  0  0  0  0  0  0  0  0  0
    5.1490    1.3370   17.9300 C   0  0  0  0  0  0  0  0  0  0  0  0
    6.2690    0.6490   17.6800 N   0  0  0  0  0  0  0  0  0  0  0  0
    6.9590    0.0600   18.6810 C   0  0  0  0  0  0  0  0  0  0  0  0
    6.0460   -2.2680   23.6560 N   0  0  0  0  0  0  0  0  0  0  0  0
    5.1110   -2.8920   22.8870 C   0  0  0  0  0  0  0  0  0  0  0  0
    4.1880   -3.6780   23.7400 C   0  0  0  0  0  0  0  0  0  0  0  0
    4.3270   -5.0780   23.2910 C   0  0  0  0  0  0  0  0  0  0  0  0
    5.3500   -5.0800   22.3320 C   0  0  0  0  0  0  0  0  0  0  0  0
    5.7110   -3.7540   21.9370 C   0  0  0  0  0  0  0  0  0  0  0  0
  1  2  1  0
  2  3  1  0
  3  4  2  0
  4  5  1  0
  5  6  2  0
  6  7  1  0
  7  8  1  0
  8  9  1  0
  9 10  1  0
 10 11  1  0
 11 12  2  0
 11 13  1  0
 13 14  1  0
 14 15  2  0
 15 16  1  0
 16 17  2  0
 17 18  1  0
 14 19  1  0
 18 19  2  0
  3 20  1  0
  6 20  1  0
 20 21  1  0
 21 22  1  0
 22 23  1  0
 23 24  1  0
 21 25  1  0
 24 25  1  0
M  END
