pyridine_urea_3552
     RDKit          3D

 17 17  0  0  0  0  0  0  0  0999 V2000
    9.1060   -5.9810   26.7530 C   0  0  0  0  0  0  0  0  0  0  0  0
    9.1010   -5.1100   25.6820 N   0  0  0  0  0  0  0  0  0  0  0  0
    8.0580   -4.1190   25.5600 C   0  0  0  0  0  0  0  0  0  0  0  0
    6.7390   -4.2250   26.1080 O   0  0  0  0  0  0  0  0  0  0  0  0
    8.4890   -3.0290   24.8430 N   0  0  0  0  0  0  0  0  0  0  0  0
    8.2790   -2.9250   23.5440 C   0  0  0  0  0  0  0  0  0  0  0  0
    9.1530   -2.1820   22.5360 C   0  0  0  0  0  0  0  0  0  0  0  0
    8.9830   -0.7290   22.6410 N   0  0  0  0  0  0  0  0  0  0  0  0
    8.4830    0.0400   21.5980 C   0  0  0  0  0  0  0  0  0  0  0  0
    9.0090    1.1180   21.2600 O   0  0  0  0  0  0  0  0  0  0  0  0
    7.3670   -0.5260   21.0440 N   0  0  0  0  0  0  0  0  0  0  0  0
    6.6110    0.0730   20.0290 C   0  0  0  0  0  0  0  0  0  0  0  0
    5.3410    0.8390   20.4040 C   0  0  0  0  0  0  0  0  0  0  0  0
    4.6640    1.4160   19.3240 C   0  0  0  0  0  0  0  0  0  0  0  0
    5.1470    1.2780   18.0290 C   0  0  0  0  0  0  0  0  0  0  0  0
    6.2660    0.5910   17.7050 N   0  0  0  0  0  0  0  0  0  0  0  0
    6.9570    0.0130   18.7030 C   0  0  0  0  0  0  0  0  0  0  0  0
  1  2  1  0
  2  3  1  0
  3  4  2  0
  3  5  1  0
  5  6  1  0
  6  7  1  0
  7  8  1  0
  8  9  1  0
  9 10  2  0
  9 11  1  0
 11 12  1  0
 12 13  2  0
 13 14  1  0
 14 15  2  0
 15 16  1  0
 12 17  1  0
 16 17  2  0
M  END
