pyridine_urea_9677
     RDKit          3D

 28 30  0  0  0  0  0  0  0  0999 V2000
    8.6940    0.8710   21.3610 O   0  0  0  0  0  0  0  0  0  0  0  0
    8.4450   -0.2810   21.6780 C   0  0  0  0  0  0  0  0  0  0  0  0
    7.3220   -0.9230   21.1840 N   0  0  0  0  0  0  0  0  0  0  0  0
    6.6090   -0.2030   20.1340 C   0  0  0  0  0  0  0  0  0  0  0  0
    5.3290    0.5500   20.5120 C   0  0  0  0  0  0  0  0  0  0  0  0
    4.5910    1.3160   19.4050 C   0  0  0  0  0  0  0  0  0  0  0  0
    5.2270    1.2480   18.0160 C   0  0  0  0  0  0  0  0  0  0  0  0
    6.4000    0.5140   17.8310 N   0  0  0  0  0  0  0  0  0  0  0  0
    7.0510   -0.1730   18.8240 C   0  0  0  0  0  0  0  0  0  0  0  0
    9.2770   -1.0180   22.5420 N   0  0  0  0  0  0  0  0  0  0  0  0
   10.5880   -0.4820   22.5860 C   0  0  0  0  0  0  0  0  0  0  0  0
   11.8790   -1.0130   22.4230 C   0  0  0  0  0  0  0  0  0  0  0  0
   13.0910   -0.2940   22.4570 C   0  0  0  0  0  0  0  0  0  0  0  0
   13.0430    1.0810   22.6550 C   0  0  0  0  0  0  0  0  0  0  0  0
   14.0070    2.0450   22.7050 N   0  0  0  0  0  0  0  0  0  0  0  0
   15.3590    2.1580   22.2660 C   0  0  0  0  0  0  0  0  0  0  0  0
   15.2420    2.4070   21.0540 O   0  0  0  0  0  0  0  0  0  0  0  0
   17.4420    2.4670   23.6770 C   0  0  0  0  0  0  0  0  0  0  0  0
   18.9820    1.3910   24.0800 C   0  0  0  0  0  0  0  0  0  0  0  0
   20.2770    1.9260   25.0110 C   0  0  0  0  0  0  0  0  0  0  0  0
   22.0510    1.5990   25.4320 Cl  0  0  0  0  0  0  0  0  0  0  0  0
   20.2080    3.0040   25.6710 C   0  0  0  0  0  0  0  0  0  0  0  0
   19.1780    3.6000   25.4430 C   0  0  0  0  0  0  0  0  0  0  0  0
   17.8190    3.5380   24.5860 C   0  0  0  0  0  0  0  0  0  0  0  0
   16.9630    4.3860   24.5930 O   0  0  0  0  0  0  0  0  0  0  0  0
   11.7910    1.6940   22.8420 C   0  0  0  0  0  0  0  0  0  0  0  0
   11.7540    3.4180   23.0350 Cl  0  0  0  0  0  0  0  0  0  0  0  0
   10.5690    1.0400   22.8450 C   0  0  0  0  0  0  0  0  0  0  0  0
  1  2  2  0
  2  3  1  0
  3  4  1  0
  4  5  2  0
  5  6  1  0
  6  7  2  0
  7  8  1  0
  4  9  1  0
  8  9  2  0
  2 10  1  0
 10 11  1  0
 11 12  2  0
 12 13  1  0
 13 14  2  0
 14 15  1  0
 15 16  1  0
 16 17  2  0
 16 18  1  0
 18 19  2  0
 19 20  1  0
 20 21  1  0
 20 22  2  0
 22 23  1  0
 18 24  1  0
 23 24  2  0
 24 25  1  0
 14 26  1  0
 26 27  1  0
 11 28  1  0
 26 28  2  0
M  END
