pyridine_urea_9751
     RDKit          3D

 28 30  0  0  0  0  0  0  0  0999 V2000
    8.4360    0.3440   21.1100 O   0  0  0  0  0  0  0  0  0  0  0  0
    7.8570   -0.7010   21.3980 C   0  0  0  0  0  0  0  0  0  0  0  0
    8.4150   -1.6470   22.2150 N   0  0  0  0  0  0  0  0  0  0  0  0
    9.6730   -1.0960   22.4240 C   0  0  0  0  0  0  0  0  0  0  0  0
   10.9180   -1.8390   21.9940 C   0  0  0  0  0  0  0  0  0  0  0  0
   12.2130   -1.1390   22.2030 C   0  0  0  0  0  0  0  0  0  0  0  0
   12.0710    0.2380   22.8140 C   0  0  0  0  0  0  0  0  0  0  0  0
   13.4090    1.0280   23.0230 S   0  0  0  0  0  0  0  0  0  0  0  0
   12.9960    1.1960   24.3330 O   0  0  0  0  0  0  0  0  0  0  0  0
   14.4170    0.1440   22.5890 O   0  0  0  0  0  0  0  0  0  0  0  0
   13.3820    2.4410   22.0550 N   0  0  0  0  0  0  0  0  0  0  0  0
   12.8400    3.6800   22.4010 C   0  0  0  0  0  0  0  0  0  0  0  0
   13.5970    4.9730   22.7050 C   0  0  0  0  0  0  0  0  0  0  0  0
   12.8430    6.1060   23.0100 C   0  0  0  0  0  0  0  0  0  0  0  0
   11.4480    6.0380   23.0320 C   0  0  0  0  0  0  0  0  0  0  0  0
   10.7930    7.1690   23.3360 F   0  0  0  0  0  0  0  0  0  0  0  0
   10.7660    4.8650   22.7620 C   0  0  0  0  0  0  0  0  0  0  0  0
   11.4400    3.6980   22.4480 C   0  0  0  0  0  0  0  0  0  0  0  0
   10.6200    2.6430   22.2030 F   0  0  0  0  0  0  0  0  0  0  0  0
   10.9790    0.8820   23.2110 C   0  0  0  0  0  0  0  0  0  0  0  0
    9.7090    0.2720   23.0530 C   0  0  0  0  0  0  0  0  0  0  0  0
    6.6230   -0.9790   20.9120 N   0  0  0  0  0  0  0  0  0  0  0  0
    6.1050   -0.1800   19.9680 C   0  0  0  0  0  0  0  0  0  0  0  0
    4.8550    0.6100   20.0990 C   0  0  0  0  0  0  0  0  0  0  0  0
    4.4640    1.3990   19.0240 C   0  0  0  0  0  0  0  0  0  0  0  0
    5.2490    1.4120   17.8910 C   0  0  0  0  0  0  0  0  0  0  0  0
    6.3870    0.7000   17.7470 N   0  0  0  0  0  0  0  0  0  0  0  0
    6.7880   -0.0710   18.7790 C   0  0  0  0  0  0  0  0  0  0  0  0
  1  2  2  0
  2  3  1  0
  3  4  1  0
  4  5  2  0
  5  6  1  0
  6  7  2  0
  7  8  1  0
  8  9  2  0
  8 10  2  0
  8 11  1  0
 11 12  1  0
 12 13  2  0
 13 14  1  0
 14 15  2  0
 15 16  1  0
 15 17  1  0
 12 18  1  0
 17 18  2  0
 18 19  1  0
  7 20  1  0
  4 21  1  0
 20 21  2  0
  2 22  1  0
 22 23  1  0
 23 24  2  0
 24 25  1  0
 25 26  2  0
 26 27  1  0
 23 28  1  0
 27 28  2  0
M  END
