pyridine_urea_4084
     RDKit          3D

 25 27  0  0  0  0  0  0  0  0999 V2000
    9.8440    6.6090   22.5350 C   0  0  0  0  0  0  0  0  0  0  0  0
    9.8000    5.3190   23.0080 N   0  0  0  0  0  0  0  0  0  0  0  0
    8.9070    4.2980   22.6020 C   0  0  0  0  0  0  0  0  0  0  0  0
    7.4730    4.4510   22.5540 O   0  0  0  0  0  0  0  0  0  0  0  0
    9.4360    3.0510   22.2380 C   0  0  0  0  0  0  0  0  0  0  0  0
   10.3880    2.5350   23.0990 C   0  0  1  0  0  0  0  0  0  0  0  0
   10.9360    1.2510   22.8290 N   0  0  0  0  0  0  0  0  0  0  0  0
   12.2990    0.8920   22.9690 C   0  0  0  0  0  0  0  0  0  0  0  0
   12.6190   -0.4800   22.9290 C   0  0  0  0  0  0  0  0  0  0  0  0
   11.6840   -1.4050   22.3830 C   0  0  0  0  0  0  0  0  0  0  0  0
   10.1680   -1.1100   22.5800 C   0  0  2  0  0  0  0  0  0  0  0  0
    9.2730   -1.3340   21.5980 N   0  0  0  0  0  0  0  0  0  0  0  0
    8.3760   -0.3610   21.2710 C   0  0  0  0  0  0  0  0  0  0  0  0
    8.6720    0.8200   21.1960 O   0  0  0  0  0  0  0  0  0  0  0  0
    7.1200   -0.8530   21.0170 N   0  0  0  0  0  0  0  0  0  0  0  0
    6.4420   -0.1320   20.1030 C   0  0  0  0  0  0  0  0  0  0  0  0
    5.2740    0.5960   20.2990 C   0  0  0  0  0  0  0  0  0  0  0  0
    4.7060    1.2940   19.2480 C   0  0  0  0  0  0  0  0  0  0  0  0
    5.2590    1.3000   17.9860 C   0  0  0  0  0  0  0  0  0  0  0  0
    6.3790    0.6060   17.7660 N   0  0  0  0  0  0  0  0  0  0  0  0
    6.9320   -0.0830   18.8050 C   0  0  0  0  0  0  0  0  0  0  0  0
   10.1360    0.1750   23.3540 C   0  0  0  0  0  0  0  0  0  0  0  0
   11.3390    3.4390   23.2380 N   0  0  0  0  0  0  0  0  0  0  0  0
   11.0040    4.7970   23.6100 C   0  0  0  0  0  0  0  0  0  0  0  0
   11.7410    5.3960   24.3810 O   0  0  0  0  0  0  0  0  0  0  0  0
  1  2  1  0
  2  3  1  0
  3  4  2  0
  3  5  1  0
  5  6  1  0
  6  7  1  6
  7  8  1  0
  8  9  1  0
  9 10  1  0
 10 11  1  0
 11 12  1  6
 12 13  1  0
 13 14  2  0
 13 15  1  0
 15 16  1  0
 16 17  2  0
 17 18  1  0
 18 19  2  0
 19 20  1  0
 16 21  1  0
 20 21  2  0
  7 22  1  0
 11 22  1  0
  6 23  1  0
  2 24  1  0
 23 24  1  0
 24 25  2  0
M  END
