pyridine_urea_11440
     RDKit          3D

 17 18  0  0  0  0  0  0  0  0999 V2000
   10.0530   -0.2290   25.9710 N   0  0  0  0  0  0  0  0  0  0  0  0
   10.9290   -0.3140   25.2110 C   0  0  0  0  0  0  0  0  0  0  0  0
   11.7670   -0.3970   24.3860 C   0  0  0  0  0  0  0  0  0  0  0  0
   12.2480   -0.6010   22.9990 C   0  0  1  0  0  0  0  0  0  0  0  0
   11.5750   -1.6010   22.2430 C   0  0  0  0  0  0  0  0  0  0  0  0
   10.4130   -0.8690   21.9990 C   0  0  1  0  0  0  0  0  0  0  0  0
    9.1390   -1.0730   22.3560 N   0  0  0  0  0  0  0  0  0  0  0  0
    8.3660   -0.1800   21.6750 C   0  0  0  0  0  0  0  0  0  0  0  0
    8.7260    0.9810   21.5350 O   0  0  0  0  0  0  0  0  0  0  0  0
    7.1960   -0.6880   21.1600 N   0  0  0  0  0  0  0  0  0  0  0  0
    6.4610   -0.0060   20.0670 C   0  0  0  0  0  0  0  0  0  0  0  0
    5.3260    0.6280   20.4740 C   0  0  0  0  0  0  0  0  0  0  0  0
    4.6860    1.3050   19.2690 C   0  0  0  0  0  0  0  0  0  0  0  0
    5.2200    1.2470   17.9960 C   0  0  0  0  0  0  0  0  0  0  0  0
    6.3290    0.5880   17.7290 N   0  0  0  0  0  0  0  0  0  0  0  0
    6.9160   -0.0170   18.7610 C   0  0  0  0  0  0  0  0  0  0  0  0
   11.0650    0.3600   22.8440 C   0  0  0  0  0  0  0  0  0  0  0  0
  1  2  3  0
  2  3  1  0
  4  3  1  1
  4  5  1  0
  5  6  1  0
  6  7  1  1
  7  8  1  0
  8  9  2  0
  8 10  1  0
 10 11  1  0
 11 12  2  0
 12 13  1  0
 13 14  2  0
 14 15  1  0
 11 16  1  0
 15 16  2  0
  4 17  1  0
  6 17  1  0
M  END
