pyridine_urea_11837
     RDKit          3D

 25 28  0  0  0  0  0  0  0  0999 V2000
    8.3220    1.0100   21.1280 O   0  0  0  0  0  0  0  0  0  0  0  0
    7.7110    0.0420   21.5800 C   0  0  0  0  0  0  0  0  0  0  0  0
    6.6280   -0.5310   21.0270 N   0  0  0  0  0  0  0  0  0  0  0  0
    6.1300    0.1050   19.9230 C   0  0  0  0  0  0  0  0  0  0  0  0
    4.9440    0.8060   20.0560 C   0  0  0  0  0  0  0  0  0  0  0  0
    4.4340    1.4820   18.9610 C   0  0  0  0  0  0  0  0  0  0  0  0
    5.1450    1.4220   17.7800 C   0  0  0  0  0  0  0  0  0  0  0  0
    6.2900    0.7400   17.6360 N   0  0  0  0  0  0  0  0  0  0  0  0
    6.7580    0.0940   18.7090 C   0  0  0  0  0  0  0  0  0  0  0  0
    8.1080   -0.5530   22.7060 N   0  0  0  0  0  0  0  0  0  0  0  0
    9.5030   -0.6100   22.6130 C   0  0  0  0  0  0  0  0  0  0  0  0
    9.9640   -1.7020   21.6890 C   0  0  0  0  0  0  0  0  0  0  0  0
   11.2690   -1.8530   21.4930 C   0  0  0  0  0  0  0  0  0  0  0  0
   12.0840   -1.0370   22.1230 C   0  0  0  0  0  0  0  0  0  0  0  0
   13.3730   -1.1530   21.9800 O   0  0  0  0  0  0  0  0  0  0  0  0
   13.3940   -1.4480   23.2350 C   0  0  0  0  0  0  0  0  0  0  0  0
   13.7600   -2.7110   23.5100 C   0  0  0  0  0  0  0  0  0  0  0  0
   13.8120   -3.1480   24.7740 C   0  0  0  0  0  0  0  0  0  0  0  0
   13.4840   -2.1830   25.7410 C   0  0  0  0  0  0  0  0  0  0  0  0
   13.0510   -0.8080   25.4370 C   0  0  0  0  0  0  0  0  0  0  0  0
   13.0170   -0.4920   24.1560 C   0  0  0  0  0  0  0  0  0  0  0  0
   12.5780    0.6690   23.6280 C   0  0  0  0  0  0  0  0  0  0  0  0
   12.8340    2.0060   23.5510 O   0  0  0  0  0  0  0  0  0  0  0  0
   11.6160    0.0340   23.0480 C   0  0  0  0  0  0  0  0  0  0  0  0
   10.3110    0.2480   23.2840 C   0  0  0  0  0  0  0  0  0  0  0  0
  1  2  2  0
  2  3  1  0
  3  4  1  0
  4  5  2  0
  5  6  1  0
  6  7  2  0
  7  8  1  0
  4  9  1  0
  8  9  2  0
  2 10  1  0
 10 11  1  0
 11 12  2  0
 12 13  1  0
 13 14  2  0
 14 15  1  0
 15 16  1  0
 16 17  2  0
 17 18  1  0
 18 19  2  0
 19 20  1  0
 16 21  1  0
 20 21  2  0
 21 22  1  0
 22 23  2  0
 14 24  1  0
 22 24  1  0
 11 25  1  0
 24 25  2  0
M  END
