pyridine_urea_14965
     RDKit          3D

 19 21  0  0  0  0  0  0  0  0999 V2000
    8.6210    1.6000   21.1600 O   0  0  0  0  0  0  0  0  0  0  0  0
    8.0960    0.5550   21.5480 C   0  0  0  0  0  0  0  0  0  0  0  0
    8.6170   -0.1800   22.5230 N   0  0  0  0  0  0  0  0  0  0  0  0
    9.6900   -0.8850   21.9730 C   0  0  0  0  0  0  0  0  0  0  0  0
   10.9190   -0.6490   22.7230 C   0  0  0  0  0  0  0  0  0  0  0  0
   11.7870    0.4080   22.6270 N   0  0  0  0  0  0  0  0  0  0  0  0
   12.8610    0.3170   23.4360 N   0  0  0  0  0  0  0  0  0  0  0  0
   12.5750   -0.8950   24.0500 C   0  0  0  0  0  0  0  0  0  0  0  0
   13.2420   -1.7040   25.0390 C   0  0  0  0  0  0  0  0  0  0  0  0
   13.8100   -2.9650   24.8000 C   0  0  0  0  0  0  0  0  0  0  0  0
   12.4360   -3.1000   24.6460 C   0  0  0  0  0  0  0  0  0  0  0  0
   11.1770   -1.8800   23.7490 S   0  0  0  0  0  0  0  0  0  0  0  0
    6.9730   -0.0580   21.0890 N   0  0  0  0  0  0  0  0  0  0  0  0
    6.3380    0.4100   19.9700 C   0  0  0  0  0  0  0  0  0  0  0  0
    5.1690    1.1310   20.1590 C   0  0  0  0  0  0  0  0  0  0  0  0
    4.5440    1.6340   19.0470 C   0  0  0  0  0  0  0  0  0  0  0  0
    5.1050    1.3990   17.8100 C   0  0  0  0  0  0  0  0  0  0  0  0
    6.2180    0.6960   17.6020 N   0  0  0  0  0  0  0  0  0  0  0  0
    6.8110    0.2140   18.6990 C   0  0  0  0  0  0  0  0  0  0  0  0
  1  2  2  0
  2  3  1  0
  3  4  1  0
  4  5  1  0
  5  6  2  0
  6  7  1  0
  7  8  2  0
  8  9  1  0
  9 10  1  0
  9 11  1  0
 10 11  1  0
  5 12  1  0
  8 12  1  0
  2 13  1  0
 13 14  1  0
 14 15  2  0
 15 16  1  0
 16 17  2  0
 17 18  1  0
 14 19  1  0
 18 19  2  0
M  END
