pyridine_urea_14159
     RDKit          3D

 22 23  0  0  0  0  0  0  0  0999 V2000
   13.1040   -1.8080   24.4670 C   0  0  0  0  0  0  0  0  0  0  0  0
   12.6100   -3.0820   25.0560 C   0  0  0  0  0  0  0  0  0  0  0  0
   13.4570   -3.7400   25.9560 C   0  0  0  0  0  0  0  0  0  0  0  0
   11.5380   -2.8660   25.5960 O   0  0  0  0  0  0  0  0  0  0  0  0
   10.6400   -3.8730   25.7540 C   0  0  0  0  0  0  0  0  0  0  0  0
    9.5520   -3.3490   25.1330 C   0  0  0  0  0  0  0  0  0  0  0  0
    9.6330   -2.6450   23.9680 N   0  0  0  0  0  0  0  0  0  0  0  0
    8.3500   -2.3970   23.8720 C   0  0  0  0  0  0  0  0  0  0  0  0
    8.0340   -1.6060   22.6380 C   0  0  2  0  0  0  0  0  0  0  0  0
    9.0360   -2.0320   21.5850 C   0  0  0  0  0  0  0  0  0  0  0  0
    8.3020   -0.1940   22.7730 N   0  0  0  0  0  0  0  0  0  0  0  0
    8.0620    0.2580   21.5050 C   0  0  0  0  0  0  0  0  0  0  0  0
    8.6940    1.2650   21.1450 O   0  0  0  0  0  0  0  0  0  0  0  0
    7.1770   -0.5450   20.9450 N   0  0  0  0  0  0  0  0  0  0  0  0
    6.4980    0.1380   19.9430 C   0  0  0  0  0  0  0  0  0  0  0  0
    5.3620    0.8780   20.2740 C   0  0  0  0  0  0  0  0  0  0  0  0
    4.6930    1.5510   19.2650 C   0  0  0  0  0  0  0  0  0  0  0  0
    5.1790    1.4570   17.9830 C   0  0  0  0  0  0  0  0  0  0  0  0
    6.2610    0.7500   17.6380 N   0  0  0  0  0  0  0  0  0  0  0  0
    6.8980    0.1050   18.6330 C   0  0  0  0  0  0  0  0  0  0  0  0
    7.5840   -2.9130   24.8960 N   0  0  0  0  0  0  0  0  0  0  0  0
    8.4450   -3.5110   25.6590 O   0  0  0  0  0  0  0  0  0  0  0  0
  1  2  1  0
  2  3  1  0
  2  4  1  0
  4  5  1  0
  5  6  1  0
  6  7  2  0
  7  8  1  0
  8  9  1  0
  9 10  1  6
  9 11  1  0
 11 12  1  0
 12 13  2  0
 12 14  1  0
 14 15  1  0
 15 16  2  0
 16 17  1  0
 17 18  2  0
 18 19  1  0
 15 20  1  0
 19 20  2  0
  8 21  2  0
  6 22  1  0
 21 22  1  0
M  END
