pyridine_urea_6615
     RDKit          3D

 22 24  0  0  0  0  0  0  0  0999 V2000
    8.4310    1.3660   20.7360 O   0  0  0  0  0  0  0  0  0  0  0  0
    8.2920    0.3330   21.3670 C   0  0  0  0  0  0  0  0  0  0  0  0
    9.0630    0.0550   22.4250 N   0  0  0  0  0  0  0  0  0  0  0  0
    9.5350    1.1680   23.1220 C   0  0  0  0  0  0  0  0  0  0  0  0
   10.9380    1.7570   22.9490 C   0  0  0  0  0  0  0  0  0  0  0  0
   12.1370    1.4970   22.9590 C   0  0  0  0  0  0  0  0  0  0  0  0
   12.4410    0.3420   23.1830 C   0  0  0  0  0  0  0  0  0  0  0  0
   12.1080   -0.9180   23.4520 C   0  0  0  0  0  0  0  0  0  0  0  0
   10.9740   -1.3960   22.7060 C   0  0  0  0  0  0  0  0  0  0  0  0
   10.8800   -2.6590   23.3010 C   0  0  0  0  0  0  0  0  0  0  0  0
   11.5830   -3.3120   24.2620 C   0  0  0  0  0  0  0  0  0  0  0  0
   12.6260   -2.8060   24.8700 C   0  0  0  0  0  0  0  0  0  0  0  0
   12.9960   -1.5730   24.5460 C   0  0  0  0  0  0  0  0  0  0  0  0
   13.1530    1.4630   22.9300 N   0  0  0  0  0  0  0  0  0  0  0  0
   12.0010    2.6660   22.7240 N   0  0  0  0  0  0  0  0  0  0  0  0
    7.2820   -0.4690   20.9730 N   0  0  0  0  0  0  0  0  0  0  0  0
    6.4980    0.0660   20.0290 C   0  0  0  0  0  0  0  0  0  0  0  0
    5.1770    0.7590   20.3490 C   0  0  0  0  0  0  0  0  0  0  0  0
    4.5390    1.2840   19.2500 C   0  0  0  0  0  0  0  0  0  0  0  0
    5.0920    1.1610   17.9840 C   0  0  0  0  0  0  0  0  0  0  0  0
    6.2360    0.5490   17.6740 N   0  0  0  0  0  0  0  0  0  0  0  0
    6.8990    0.0210   18.7150 C   0  0  0  0  0  0  0  0  0  0  0  0
  1  2  2  0
  2  3  1  0
  3  4  1  0
  4  5  1  0
  5  6  1  0
  6  7  2  0
  7  8  1  0
  8  9  2  0
  9 10  1  0
 10 11  2  0
 11 12  1  0
  8 13  1  0
 12 13  2  0
  7 14  1  0
  5 15  2  0
 14 15  1  0
  2 16  1  0
 16 17  1  0
 17 18  2  0
 18 19  1  0
 19 20  2  0
 20 21  1  0
 17 22  1  0
 21 22  2  0
M  END
