pyridine_urea_5411
     RDKit          3D

 18 19  0  0  0  0  0  0  0  0999 V2000
   11.8020   -2.6430   24.4990 C   0  0  0  0  0  0  0  0  0  0  0  0
   10.4130   -2.0120   24.3200 C   0  0  0  0  0  0  0  0  0  0  0  0
   10.4180   -1.0810   23.0600 C   0  0  0  0  0  0  0  0  0  0  0  0
    9.1440   -1.2260   22.3390 N   0  0  0  0  0  0  0  0  0  0  0  0
    8.5030   -0.2680   21.5750 C   0  0  0  0  0  0  0  0  0  0  0  0
    8.9530    0.8500   21.3740 O   0  0  0  0  0  0  0  0  0  0  0  0
    7.2340   -0.7750   21.0780 N   0  0  0  0  0  0  0  0  0  0  0  0
    6.5430   -0.0810   20.1110 C   0  0  0  0  0  0  0  0  0  0  0  0
    5.3850    0.6260   20.4180 C   0  0  0  0  0  0  0  0  0  0  0  0
    4.6300    1.3960   19.3560 C   0  0  0  0  0  0  0  0  0  0  0  0
    5.2280    1.3330   17.9770 C   0  0  0  0  0  0  0  0  0  0  0  0
    6.3570    0.6200   17.7490 N   0  0  0  0  0  0  0  0  0  0  0  0
    6.9620   -0.0460   18.7800 C   0  0  0  0  0  0  0  0  0  0  0  0
   11.5820   -1.4510   22.1570 C   0  0  0  0  0  0  0  0  0  0  0  0
   12.9140   -0.7720   22.4710 C   0  0  0  0  0  0  0  0  0  0  0  0
   12.9230    0.3200   22.9950 O   0  0  0  0  0  0  0  0  0  0  0  0
   11.8510    0.6370   23.8760 C   0  0  0  0  0  0  0  0  0  0  0  0
   10.6670    0.2920   23.2200 C   0  0  0  0  0  0  0  0  0  0  0  0
  1  2  1  0
  2  3  1  0
  3  4  1  0
  4  5  1  0
  5  6  2  0
  5  7  1  0
  7  8  1  0
  8  9  2  0
  9 10  1  0
 10 11  2  0
 11 12  1  0
  8 13  1  0
 12 13  2  0
  3 14  1  0
 14 15  1  0
 15 16  1  0
 16 17  1  0
  3 18  1  0
 17 18  1  0
M  END
