pyridine_urea_4897
     RDKit          3D

 18 20  0  0  0  0  0  0  0  0999 V2000
    8.4320    1.1120   21.2720 O   0  0  0  0  0  0  0  0  0  0  0  0
    8.4660   -0.0880   21.5030 C   0  0  0  0  0  0  0  0  0  0  0  0
    7.3970   -0.8500   21.1100 N   0  0  0  0  0  0  0  0  0  0  0  0
    6.6760   -0.2050   20.0250 C   0  0  0  0  0  0  0  0  0  0  0  0
    5.4120    0.5970   20.4030 C   0  0  0  0  0  0  0  0  0  0  0  0
    4.6750    1.2690   19.4220 C   0  0  0  0  0  0  0  0  0  0  0  0
    5.1240    1.1860   18.1080 C   0  0  0  0  0  0  0  0  0  0  0  0
    6.2460    0.4590   17.8080 N   0  0  0  0  0  0  0  0  0  0  0  0
    7.0320   -0.2420   18.7360 C   0  0  0  0  0  0  0  0  0  0  0  0
    9.5590   -0.6830   22.1010 N   0  0  0  0  0  0  0  0  0  0  0  0
   10.8160   -0.9270   22.6010 C   0  0  1  0  0  0  0  0  0  0  0  0
   11.6700   -1.8030   21.7810 C   0  0  0  0  0  0  0  0  0  0  0  0
   12.8690   -1.9140   22.4710 C   0  0  0  0  0  0  0  0  0  0  0  0
   12.3170   -1.1120   23.3220 C   0  0  2  0  0  0  0  0  0  0  0  0
   11.6010   -0.6800   22.2990 F   0  0  0  0  0  0  0  0  0  0  0  0
   12.6720    0.1350   23.5230 C   0  0  0  0  0  0  0  0  0  0  0  0
   11.3340    0.3800   22.9530 C   0  0  0  0  0  0  0  0  0  0  0  0
   11.1000   -1.3710   23.9290 C   0  0  0  0  0  0  0  0  0  0  0  0
  1  2  2  0
  2  3  1  0
  3  4  1  0
  4  5  2  0
  5  6  1  0
  6  7  2  0
  7  8  1  0
  4  9  1  0
  8  9  2  0
  2 10  1  0
 11 10  1  6
 11 12  1  0
 12 13  1  0
 13 14  1  0
 14 15  1  6
 14 16  1  0
 11 17  1  0
 16 17  1  0
 11 18  1  0
 14 18  1  0
M  END
