pyridine_urea_14539
     RDKit          3D

 21 22  0  0  0  0  0  0  0  0999 V2000
    7.2440   -2.1900   24.2210 C   0  0  0  0  0  0  0  0  0  0  0  0
    8.2510   -1.7620   23.1690 C   0  0  1  0  0  0  0  0  0  0  0  0
    8.3200   -0.3200   23.0120 N   0  0  0  0  0  0  0  0  0  0  0  0
    8.1160    0.1490   21.6620 C   0  0  0  0  0  0  0  0  0  0  0  0
    8.9240    1.2610   21.1940 O   0  0  0  0  0  0  0  0  0  0  0  0
    7.1390   -0.5260   20.9800 N   0  0  0  0  0  0  0  0  0  0  0  0
    6.4340    0.1470   19.9310 C   0  0  0  0  0  0  0  0  0  0  0  0
    5.2710    0.8570   20.2220 C   0  0  0  0  0  0  0  0  0  0  0  0
    4.6170    1.5250   19.1940 C   0  0  0  0  0  0  0  0  0  0  0  0
    5.1790    1.4710   17.7860 C   0  0  0  0  0  0  0  0  0  0  0  0
    6.3120    0.7500   17.5750 N   0  0  0  0  0  0  0  0  0  0  0  0
    6.9240    0.0970   18.6390 C   0  0  0  0  0  0  0  0  0  0  0  0
    9.6140   -2.1260   23.5230 C   0  0  0  0  0  0  0  0  0  0  0  0
   10.7900   -1.3700   23.5080 N   0  0  0  0  0  0  0  0  0  0  0  0
   11.7600   -2.2270   23.9500 C   0  0  0  0  0  0  0  0  0  0  0  0
   13.0470   -1.8140   24.0510 C   0  0  0  0  0  0  0  0  0  0  0  0
   13.8710   -2.4290   23.2220 F   0  0  0  0  0  0  0  0  0  0  0  0
   13.2040   -0.5100   23.8130 F   0  0  0  0  0  0  0  0  0  0  0  0
   13.5040   -2.0410   25.2920 F   0  0  0  0  0  0  0  0  0  0  0  0
   11.3440   -3.4470   24.2530 N   0  0  0  0  0  0  0  0  0  0  0  0
    9.9430   -3.4460   23.9840 O   0  0  0  0  0  0  0  0  0  0  0  0
  2  1  1  1
  2  3  1  0
  3  4  1  0
  4  5  2  0
  4  6  1  0
  6  7  1  0
  7  8  2  0
  8  9  1  0
  9 10  2  0
 10 11  1  0
  7 12  1  0
 11 12  2  0
  2 13  1  0
 13 14  2  0
 14 15  1  0
 15 16  1  0
 16 17  1  0
 16 18  1  0
 16 19  1  0
 15 20  2  0
 13 21  1  0
 20 21  1  0
M  END
