pyridine_urea_10832
     RDKit          3D

 20 21  0  0  0  0  0  0  0  0999 V2000
   10.6510   -2.3840   22.1230 C   0  0  0  0  0  0  0  0  0  0  0  0
   10.9700   -1.0220   22.6300 C   0  0  0  0  0  0  0  0  0  0  0  0
   10.0160   -0.0980   22.9580 C   0  0  0  0  0  0  0  0  0  0  0  0
    8.6840   -0.6380   22.7090 N   0  0  0  0  0  0  0  0  0  0  0  0
    8.0730   -0.1530   21.6180 C   0  0  0  0  0  0  0  0  0  0  0  0
    8.5500    0.8930   21.1750 O   0  0  0  0  0  0  0  0  0  0  0  0
    6.9370   -0.8330   21.0510 N   0  0  0  0  0  0  0  0  0  0  0  0
    6.3570   -0.1240   20.0360 C   0  0  0  0  0  0  0  0  0  0  0  0
    5.0700    0.6300   20.3640 C   0  0  0  0  0  0  0  0  0  0  0  0
    4.5060    1.4080   19.1760 C   0  0  0  0  0  0  0  0  0  0  0  0
    5.2280    1.3680   17.8550 C   0  0  0  0  0  0  0  0  0  0  0  0
    6.3600    0.6520   17.7040 N   0  0  0  0  0  0  0  0  0  0  0  0
    6.9070   -0.0720   18.7580 C   0  0  0  0  0  0  0  0  0  0  0  0
   10.4710    1.1390   23.4330 C   0  0  0  0  0  0  0  0  0  0  0  0
   11.8180    1.4490   23.5590 C   0  0  0  0  0  0  0  0  0  0  0  0
   12.7950    0.5540   23.2300 C   0  0  0  0  0  0  0  0  0  0  0  0
   12.4390   -0.6650   22.7790 C   0  0  0  0  0  0  0  0  0  0  0  0
   13.3200   -1.5790   22.4530 N   0  0  0  0  0  0  0  0  0  0  0  0
   13.4500   -2.5280   23.4130 C   0  0  0  0  0  0  0  0  0  0  0  0
   13.2640   -1.9660   21.1540 C   0  0  0  0  0  0  0  0  0  0  0  0
  1  2  1  0
  2  3  2  0
  3  4  1  0
  4  5  1  0
  5  6  2  0
  5  7  1  0
  7  8  1  0
  8  9  2  0
  9 10  1  0
 10 11  2  0
 11 12  1  0
  8 13  1  0
 12 13  2  0
  3 14  1  0
 14 15  2  0
 15 16  1  0
  2 17  1  0
 16 17  2  0
 17 18  1  0
 18 19  1  0
 18 20  1  0
M  END
