pyridine_urea_5493
     RDKit          3D

 18 19  0  0  0  0  0  0  0  0999 V2000
    8.4960    0.9240   21.1160 O   0  0  0  0  0  0  0  0  0  0  0  0
    8.0200   -0.1140   21.5590 C   0  0  0  0  0  0  0  0  0  0  0  0
    6.9620   -0.7570   20.9890 N   0  0  0  0  0  0  0  0  0  0  0  0
    6.3270   -0.0160   19.9420 C   0  0  0  0  0  0  0  0  0  0  0  0
    4.9950    0.7380   20.2310 C   0  0  0  0  0  0  0  0  0  0  0  0
    4.4400    1.4490   19.1800 C   0  0  0  0  0  0  0  0  0  0  0  0
    5.1970    1.4150   17.8480 C   0  0  0  0  0  0  0  0  0  0  0  0
    6.3480    0.7350   17.6580 N   0  0  0  0  0  0  0  0  0  0  0  0
    6.8740    0.0490   18.6870 C   0  0  0  0  0  0  0  0  0  0  0  0
    8.4410   -0.7770   22.6540 N   0  0  0  0  0  0  0  0  0  0  0  0
    9.8180   -0.5410   22.9630 C   0  0  0  0  0  0  0  0  0  0  0  0
   10.8610   -1.1710   22.2610 C   0  0  0  0  0  0  0  0  0  0  0  0
   12.0380   -0.8120   22.7090 N   0  0  0  0  0  0  0  0  0  0  0  0
   11.8920    0.1280   23.7990 N   0  0  0  0  0  0  0  0  0  0  0  0
   13.2250   -0.1890   23.4890 C   0  0  0  0  0  0  0  0  0  0  0  0
   13.2580   -1.5540   22.7720 C   0  0  0  0  0  0  0  0  0  0  0  0
   13.1610   -1.6470   21.4110 O   0  0  0  0  0  0  0  0  0  0  0  0
   10.4130    0.2480   23.8820 C   0  0  0  0  0  0  0  0  0  0  0  0
  1  2  2  0
  2  3  1  0
  3  4  1  0
  4  5  2  0
  5  6  1  0
  6  7  2  0
  7  8  1  0
  4  9  1  0
  8  9  2  0
  2 10  1  0
 10 11  1  0
 11 12  1  0
 12 13  2  0
 13 14  1  0
 14 15  1  0
 15 16  1  0
 16 17  1  0
 11 18  2  0
 14 18  1  0
M  END
