pyridine_urea_655
     RDKit          3D

 24 26  0  0  0  0  0  0  0  0999 V2000
    8.5790    0.9560   21.3330 O   0  0  0  0  0  0  0  0  0  0  0  0
    8.2840   -0.2090   21.5600 C   0  0  0  0  0  0  0  0  0  0  0  0
    7.1480   -0.7870   21.0340 N   0  0  0  0  0  0  0  0  0  0  0  0
    6.4040   -0.0850   20.0650 C   0  0  0  0  0  0  0  0  0  0  0  0
    5.2000    0.5850   20.2790 C   0  0  0  0  0  0  0  0  0  0  0  0
    4.5830    1.2610   19.2190 C   0  0  0  0  0  0  0  0  0  0  0  0
    5.1950    1.2420   17.9830 C   0  0  0  0  0  0  0  0  0  0  0  0
    6.3490    0.5990   17.7490 N   0  0  0  0  0  0  0  0  0  0  0  0
    6.9190   -0.0440   18.7830 C   0  0  0  0  0  0  0  0  0  0  0  0
    9.0690   -1.0360   22.3400 N   0  0  0  0  0  0  0  0  0  0  0  0
   10.3990   -0.6530   22.5460 C   0  0  0  0  0  0  0  0  0  0  0  0
   11.5350   -1.4730   22.5830 C   0  0  0  0  0  0  0  0  0  0  0  0
   12.8370   -0.9560   22.7750 C   0  0  0  0  0  0  0  0  0  0  0  0
   13.0760    0.4070   22.9320 C   0  0  0  0  0  0  0  0  0  0  0  0
   12.0380    1.3010   22.9110 C   0  0  0  0  0  0  0  0  0  0  0  0
   12.1450    2.7740   23.0370 C   0  0  0  0  0  0  0  0  0  0  0  0
   11.6770    3.4920   22.1800 O   0  0  0  0  0  0  0  0  0  0  0  0
   11.3200    4.7170   22.6880 C   0  0  0  0  0  0  0  0  0  0  0  0
   12.2860    5.6820   22.9700 C   0  0  0  0  0  0  0  0  0  0  0  0
   11.8930    6.9040   23.4980 C   0  0  0  0  0  0  0  0  0  0  0  0
   10.5370    7.1360   23.7320 C   0  0  0  0  0  0  0  0  0  0  0  0
    9.5680    6.1830   23.4490 C   0  0  0  0  0  0  0  0  0  0  0  0
    9.9520    4.9630   22.9250 C   0  0  0  0  0  0  0  0  0  0  0  0
   10.5980    0.8110   22.7230 C   0  0  0  0  0  0  0  0  0  0  0  0
  1  2  2  0
  2  3  1  0
  3  4  1  0
  4  5  2  0
  5  6  1  0
  6  7  2  0
  7  8  1  0
  4  9  1  0
  8  9  2  0
  2 10  1  0
 10 11  1  0
 11 12  2  0
 12 13  1  0
 13 14  2  0
 14 15  1  0
 15 16  1  0
 16 17  1  0
 17 18  1  0
 18 19  2  0
 19 20  1  0
 20 21  2  0
 21 22  1  0
 18 23  1  0
 22 23  2  0
 11 24  1  0
 15 24  2  0
M  END
