pyridine_urea_10468
     RDKit          3D

 22 23  0  0  0  0  0  0  0  0999 V2000
   12.9050    3.4660   22.7040 C   0  0  0  0  0  0  0  0  0  0  0  0
   13.2450    2.1500   23.1710 O   0  0  0  0  0  0  0  0  0  0  0  0
   12.2670    1.2980   22.9820 C   0  0  0  0  0  0  0  0  0  0  0  0
   10.9290    1.9630   22.8750 C   0  0  0  0  0  0  0  0  0  0  0  0
    9.7360    1.1400   22.6410 C   0  0  0  0  0  0  0  0  0  0  0  0
    9.8420   -0.3070   22.4980 C   0  0  0  0  0  0  0  0  0  0  0  0
    8.7740   -1.2070   22.2220 N   0  0  0  0  0  0  0  0  0  0  0  0
    7.9960   -0.4730   21.3660 C   0  0  0  0  0  0  0  0  0  0  0  0
    8.3740    0.6270   20.9920 O   0  0  0  0  0  0  0  0  0  0  0  0
    6.7520   -1.0320   20.9400 N   0  0  0  0  0  0  0  0  0  0  0  0
    6.2120   -0.2570   19.9480 C   0  0  0  0  0  0  0  0  0  0  0  0
    5.0150    0.4360   20.1570 C   0  0  0  0  0  0  0  0  0  0  0  0
    4.5110    1.2240   19.1340 C   0  0  0  0  0  0  0  0  0  0  0  0
    5.1710    1.3290   17.9290 C   0  0  0  0  0  0  0  0  0  0  0  0
    6.3200    0.6690   17.7060 N   0  0  0  0  0  0  0  0  0  0  0  0
    6.8090   -0.1010   18.7100 C   0  0  0  0  0  0  0  0  0  0  0  0
   11.0600   -1.0310   22.6010 C   0  0  0  0  0  0  0  0  0  0  0  0
   12.3430   -0.2340   22.8710 C   0  0  0  0  0  0  0  0  0  0  0  0
   13.4280   -1.0750   23.0000 O   0  0  0  0  0  0  0  0  0  0  0  0
   13.1430   -1.5760   24.3040 C   0  0  0  0  0  0  0  0  0  0  0  0
   11.7760   -1.7630   24.4440 C   0  0  0  0  0  0  0  0  0  0  0  0
   13.7120   -2.8970   24.7020 C   0  0  0  0  0  0  0  0  0  0  0  0
  1  2  1  0
  2  3  1  0
  3  4  2  0
  4  5  1  0
  5  6  2  0
  6  7  1  0
  7  8  1  0
  8  9  2  0
  8 10  1  0
 10 11  1  0
 11 12  2  0
 12 13  1  0
 13 14  2  0
 14 15  1  0
 11 16  1  0
 15 16  2  0
  6 17  1  0
  3 18  1  0
 17 18  2  0
 18 19  1  0
 19 20  1  0
 20 21  1  0
 20 22  1  0
M  END
