pyridine_urea_12996
     RDKit          3D

 19 20  0  0  0  0  0  0  0  0999 V2000
    8.9280    1.1060   21.2880 O   0  0  0  0  0  0  0  0  0  0  0  0
    8.3590    0.0410   21.5910 C   0  0  0  0  0  0  0  0  0  0  0  0
    8.7090   -0.8460   22.5840 N   0  0  0  0  0  0  0  0  0  0  0  0
    9.3180   -0.5960   23.8400 C   0  0  0  0  0  0  0  0  0  0  0  0
   10.4880    0.1260   23.8150 C   0  0  0  0  0  0  0  0  0  0  0  0
   11.8420    0.7220   23.6340 C   0  0  0  0  0  0  0  0  0  0  0  0
   13.0160    0.3420   22.9120 C   0  0  0  0  0  0  0  0  0  0  0  0
   13.0070   -0.9200   22.1250 C   0  0  0  0  0  0  0  0  0  0  0  0
   13.8380   -1.4400   21.4410 O   0  0  0  0  0  0  0  0  0  0  0  0
   11.8550   -1.4190   22.3000 C   0  0  0  0  0  0  0  0  0  0  0  0
   10.6550   -1.0640   23.0210 C   0  0  0  0  0  0  0  0  0  0  0  0
    9.5990   -2.0180   22.8850 O   0  0  0  0  0  0  0  0  0  0  0  0
    7.2350   -0.4690   20.9840 N   0  0  0  0  0  0  0  0  0  0  0  0
    6.4640    0.1750   20.0210 C   0  0  0  0  0  0  0  0  0  0  0  0
    5.3030    0.8890   20.2710 C   0  0  0  0  0  0  0  0  0  0  0  0
    4.6390    1.4970   19.2060 C   0  0  0  0  0  0  0  0  0  0  0  0
    5.1700    1.3610   17.9240 C   0  0  0  0  0  0  0  0  0  0  0  0
    6.2840    0.6670   17.6690 N   0  0  0  0  0  0  0  0  0  0  0  0
    6.8980    0.0950   18.7150 C   0  0  0  0  0  0  0  0  0  0  0  0
  1  2  2  0
  2  3  1  0
  3  4  1  0
  4  5  1  0
  5  6  2  0
  6  7  1  0
  7  8  2  0
  8  9  1  0
  8 10  1  0
  5 11  1  0
 10 11  2  0
 11 12  1  0
  2 13  1  0
 13 14  1  0
 14 15  2  0
 15 16  1  0
 16 17  2  0
 17 18  1  0
 14 19  1  0
 18 19  2  0
M  END
