pyridine_urea_2914
     RDKit          3D

 22 23  0  0  0  0  0  0  0  0999 V2000
   12.7450   -2.1330   21.3230 C   0  0  0  0  0  0  0  0  0  0  0  0
   12.0060   -1.0990   21.9600 O   0  0  0  0  0  0  0  0  0  0  0  0
   10.6780   -1.5120   22.2700 C   0  0  0  0  0  0  0  0  0  0  0  0
   10.1200   -2.5120   21.8440 O   0  0  0  0  0  0  0  0  0  0  0  0
    9.9430   -0.5240   23.2800 C   0  0  1  0  0  0  0  0  0  0  0  0
   10.4960    0.7420   23.5870 C   0  0  0  0  0  0  0  0  0  0  0  0
   11.9710    0.8430   23.2270 C   0  0  0  0  0  0  0  0  0  0  0  0
   12.0970   -0.3190   23.7190 C   0  0  0  0  0  0  0  0  0  0  0  0
   11.1840   -1.2500   24.3470 C   0  0  0  0  0  0  0  0  0  0  0  0
   12.2330   -2.2050   24.5060 C   0  0  0  0  0  0  0  0  0  0  0  0
   13.3860   -1.3720   23.8610 C   0  0  0  0  0  0  0  0  0  0  0  0
   13.2200    0.1490   23.2420 C   0  0  0  0  0  0  0  0  0  0  0  0
    8.5780   -0.3830   22.8290 N   0  0  0  0  0  0  0  0  0  0  0  0
    8.3220    0.2250   21.6250 C   0  0  0  0  0  0  0  0  0  0  0  0
    9.0080    1.3360   21.1740 O   0  0  0  0  0  0  0  0  0  0  0  0
    7.2590   -0.4320   20.9690 N   0  0  0  0  0  0  0  0  0  0  0  0
    6.4790    0.1780   20.0220 C   0  0  0  0  0  0  0  0  0  0  0  0
    5.2990    0.8790   20.2840 C   0  0  0  0  0  0  0  0  0  0  0  0
    4.6570    1.4500   19.1970 C   0  0  0  0  0  0  0  0  0  0  0  0
    5.1650    1.3230   17.9290 C   0  0  0  0  0  0  0  0  0  0  0  0
    6.2810    0.6490   17.6490 N   0  0  0  0  0  0  0  0  0  0  0  0
    6.9040    0.0960   18.7070 C   0  0  0  0  0  0  0  0  0  0  0  0
  1  2  1  0
  2  3  1  0
  3  4  2  0
  3  5  1  0
  5  6  1  6
  6  7  1  0
  7  8  2  0
  8  9  1  0
  9 10  2  0
 10 11  1  0
  7 12  1  0
 11 12  2  0
  5 13  1  0
 13 14  1  0
 14 15  2  0
 14 16  1  0
 16 17  1  0
 17 18  2  0
 18 19  1  0
 19 20  2  0
 20 21  1  0
 17 22  1  0
 21 22  2  0
M  END
