pyridine_urea_13596
     RDKit          3D

 28 30  0  0  0  0  0  0  0  0999 V2000
    8.9880    0.8280   21.4220 O   0  0  0  0  0  0  0  0  0  0  0  0
    8.4920   -0.2900   21.5030 C   0  0  0  0  0  0  0  0  0  0  0  0
    9.0880   -1.3730   22.1150 N   0  0  0  0  0  0  0  0  0  0  0  0
    8.5370   -2.2270   23.0990 C   0  0  0  0  0  0  0  0  0  0  0  0
    7.1610   -2.8970   22.9120 C   0  0  0  0  0  0  0  0  0  0  0  0
    6.7230   -3.5780   24.0280 N   0  0  0  0  0  0  0  0  0  0  0  0
    6.4400   -4.9600   24.0230 C   0  0  0  0  0  0  0  0  0  0  0  0
    5.2620   -5.3370   24.8810 C   0  0  0  0  0  0  0  0  0  0  0  0
    5.5020   -4.8110   26.2130 N   0  0  0  0  0  0  0  0  0  0  0  0
    5.2030   -5.4310   27.4460 C   0  0  0  0  0  0  0  0  0  0  0  0
    6.0630   -6.3400   28.1440 C   0  0  0  0  0  0  0  0  0  0  0  0
    5.6810   -6.9170   29.3800 C   0  0  0  0  0  0  0  0  0  0  0  0
    4.4480   -6.5150   29.8030 C   0  0  0  0  0  0  0  0  0  0  0  0
    3.8590   -6.9450   30.9900 C   0  0  0  0  0  0  0  0  0  0  0  0
    4.7420   -7.3240   31.9520 F   0  0  0  0  0  0  0  0  0  0  0  0
    3.0200   -8.0030   30.8060 F   0  0  0  0  0  0  0  0  0  0  0  0
    3.0890   -5.9700   31.5540 F   0  0  0  0  0  0  0  0  0  0  0  0
    3.5490   -5.5600   29.0670 C   0  0  0  0  0  0  0  0  0  0  0  0
    3.9520   -5.0420   27.9040 N   0  0  0  0  0  0  0  0  0  0  0  0
    5.7490   -3.4760   26.3050 C   0  0  0  0  0  0  0  0  0  0  0  0
    6.4240   -2.7780   25.1180 C   0  0  0  0  0  0  0  0  0  0  0  0
    7.2580   -0.6460   21.0000 N   0  0  0  0  0  0  0  0  0  0  0  0
    6.5520    0.0030   20.0330 C   0  0  0  0  0  0  0  0  0  0  0  0
    5.3850    0.7170   20.3210 C   0  0  0  0  0  0  0  0  0  0  0  0
    4.6950    1.3770   19.3020 C   0  0  0  0  0  0  0  0  0  0  0  0
    5.2320    1.2720   18.0420 C   0  0  0  0  0  0  0  0  0  0  0  0
    6.3410    0.5980   17.7070 N   0  0  0  0  0  0  0  0  0  0  0  0
    6.9780   -0.0280   18.7220 C   0  0  0  0  0  0  0  0  0  0  0  0
  1  2  2  0
  2  3  1  0
  3  4  1  0
  4  5  1  0
  5  6  1  0
  6  7  1  0
  7  8  1  0
  8  9  1  0
  9 10  1  0
 10 11  2  0
 11 12  1  0
 12 13  2  0
 13 14  1  0
 14 15  1  0
 14 16  1  0
 14 17  1  0
 13 18  1  0
 10 19  1  0
 18 19  2  0
  9 20  1  0
  6 21  1  0
 20 21  1  0
  2 22  1  0
 22 23  1  0
 23 24  2  0
 24 25  1  0
 25 26  2  0
 26 27  1  0
 23 28  1  0
 27 28  2  0
M  END
