pyridine_urea_3033
     RDKit          3D

 21 22  0  0  0  0  0  0  0  0999 V2000
    8.3830    2.2060   25.2630 N   0  0  0  0  0  0  0  0  0  0  0  0
    9.1490    2.3390   24.3960 C   0  0  0  0  0  0  0  0  0  0  0  0
    9.3230    3.7510   24.4230 O   0  0  0  0  0  0  0  0  0  0  0  0
   10.0820    1.9390   23.2460 C   0  0  0  0  0  0  0  0  0  0  0  0
   10.5530    0.4390   23.4130 C   0  0  0  0  0  0  0  0  0  0  0  0
    9.5330   -0.3770   23.8670 C   0  0  0  0  0  0  0  0  0  0  0  0
    8.8420   -0.8980   22.6900 N   0  0  0  0  0  0  0  0  0  0  0  0
    8.3540   -0.0970   21.6660 C   0  0  0  0  0  0  0  0  0  0  0  0
    8.9160    1.1130   21.2870 O   0  0  0  0  0  0  0  0  0  0  0  0
    7.2390   -0.6550   21.0890 N   0  0  0  0  0  0  0  0  0  0  0  0
    6.5670   -0.0080   20.0500 C   0  0  0  0  0  0  0  0  0  0  0  0
    5.2950    0.7740   20.3450 C   0  0  0  0  0  0  0  0  0  0  0  0
    4.5050    1.5340   19.2860 C   0  0  0  0  0  0  0  0  0  0  0  0
    5.1300    1.4330   17.8920 C   0  0  0  0  0  0  0  0  0  0  0  0
    6.3550    0.6420   17.7160 N   0  0  0  0  0  0  0  0  0  0  0  0
    6.9850   -0.0160   18.7580 C   0  0  0  0  0  0  0  0  0  0  0  0
   11.7910    0.2040   24.3390 C   0  0  0  0  0  0  0  0  0  0  0  0
   12.9290   -0.3030   23.4480 C   0  0  0  0  0  0  0  0  0  0  0  0
   12.6670   -1.5050   22.8350 C   0  0  0  0  0  0  0  0  0  0  0  0
   11.4290   -1.4010   22.2810 C   0  0  0  0  0  0  0  0  0  0  0  0
   11.0440   -0.0750   22.2670 C   0  0  0  0  0  0  0  0  0  0  0  0
  1  2  1  0
  2  3  2  0
  2  4  1  0
  5  4  1  0
  5  6  1  0
  6  7  1  0
  7  8  1  0
  8  9  2  0
  8 10  1  0
 10 11  1  0
 11 12  2  0
 12 13  1  0
 13 14  2  0
 14 15  1  0
 11 16  1  0
 15 16  2  0
  5 17  1  0
 17 18  1  0
 18 19  1  0
 19 20  1  0
  5 21  1  0
 20 21  1  0
M  END
