pyridine_urea_7665
     RDKit          3D

 18 18  0  0  0  0  0  0  0  0999 V2000
   12.2550   -1.5830   24.4780 C   0  0  0  0  0  0  0  0  0  0  0  0
   11.2140   -0.9110   24.4610 O   0  0  0  0  0  0  0  0  0  0  0  0
   11.0410   -0.1090   23.3760 C   0  0  0  0  0  0  0  0  0  0  0  0
   11.2710    1.0840   23.2510 O   0  0  0  0  0  0  0  0  0  0  0  0
   10.5740   -0.8520   22.3400 C   0  0  1  0  0  0  0  0  0  0  0  0
   11.3720   -1.9520   22.0890 C   0  0  0  0  0  0  0  0  0  0  0  0
   12.7170   -1.5650   22.0420 C   0  0  0  0  0  0  0  0  0  0  0  0
   13.3620   -1.7190   20.8780 F   0  0  0  0  0  0  0  0  0  0  0  0
    9.2620   -1.1000   22.2560 N   0  0  0  0  0  0  0  0  0  0  0  0
    8.4490   -0.2350   21.5690 C   0  0  0  0  0  0  0  0  0  0  0  0
    8.7450    0.9440   21.4190 O   0  0  0  0  0  0  0  0  0  0  0  0
    7.2160   -0.8290   21.0280 N   0  0  0  0  0  0  0  0  0  0  0  0
    6.4880   -0.1250   20.0840 C   0  0  0  0  0  0  0  0  0  0  0  0
    5.1940    0.6440   20.3280 C   0  0  0  0  0  0  0  0  0  0  0  0
    4.5960    1.3180   19.2510 C   0  0  0  0  0  0  0  0  0  0  0  0
    5.2100    1.2570   18.0020 C   0  0  0  0  0  0  0  0  0  0  0  0
    6.3530    0.5770   17.7670 N   0  0  0  0  0  0  0  0  0  0  0  0
    6.9500   -0.0870   18.7830 C   0  0  0  0  0  0  0  0  0  0  0  0
  1  2  1  0
  2  3  1  0
  3  4  2  0
  3  5  1  0
  5  6  1  1
  6  7  1  0
  7  8  1  0
  5  9  1  0
  9 10  1  0
 10 11  2  0
 10 12  1  0
 12 13  1  0
 13 14  2  0
 14 15  1  0
 15 16  2  0
 16 17  1  0
 13 18  1  0
 17 18  2  0
M  END
