pyridine_urea_12228
     RDKit          3D

 23 24  0  0  0  0  0  0  0  0999 V2000
   13.3130   -1.9440   21.2830 C   0  0  0  0  0  0  0  0  0  0  0  0
   11.9200   -1.9520   21.8220 C   0  0  0  0  0  0  0  0  0  0  0  0
   11.9670   -1.1640   23.0040 O   0  0  0  0  0  0  0  0  0  0  0  0
   11.8010    0.1860   22.8240 C   0  0  0  0  0  0  0  0  0  0  0  0
   13.2410    0.1600   22.8310 O   0  0  0  0  0  0  0  0  0  0  0  0
   10.5540   -0.4590   22.8890 C   0  0  2  0  0  0  0  0  0  0  0  0
    9.2800    0.3400   22.8760 N   0  0  0  0  0  0  0  0  0  0  0  0
    8.5580    0.5990   21.7030 C   0  0  0  0  0  0  0  0  0  0  0  0
    8.7600    1.6070   21.0260 O   0  0  0  0  0  0  0  0  0  0  0  0
    7.5780   -0.2640   21.2620 N   0  0  0  0  0  0  0  0  0  0  0  0
    6.7430    0.2250   20.2850 C   0  0  0  0  0  0  0  0  0  0  0  0
    5.6070    1.0060   20.5320 C   0  0  0  0  0  0  0  0  0  0  0  0
    4.7890    1.4860   19.3380 C   0  0  0  0  0  0  0  0  0  0  0  0
    5.2100    1.1250   18.0670 C   0  0  0  0  0  0  0  0  0  0  0  0
    6.2980    0.3670   17.8620 N   0  0  0  0  0  0  0  0  0  0  0  0
    7.0170   -0.0550   18.9400 C   0  0  0  0  0  0  0  0  0  0  0  0
   10.4080   -1.6620   23.7240 C   0  0  0  0  0  0  0  0  0  0  0  0
   11.2770   -1.0610   24.5800 C   0  0  0  0  0  0  0  0  0  0  0  0
   11.6820    0.1890   24.2400 C   0  0  0  0  0  0  0  0  0  0  0  0
   11.1370    0.7040   23.0550 C   0  0  0  0  0  0  0  0  0  0  0  0
   11.6430    2.3220   22.7110 Cl  0  0  0  0  0  0  0  0  0  0  0  0
   10.1860   -0.0950   22.1940 C   0  0  0  0  0  0  0  0  0  0  0  0
    9.7700   -1.4430   22.5710 C   0  0  0  0  0  0  0  0  0  0  0  0
  1  2  1  0
  2  3  1  0
  3  4  1  0
  4  5  2  0
  4  6  1  0
  6  7  1  1
  7  8  1  0
  8  9  2  0
  8 10  1  0
 10 11  1  0
 11 12  2  0
 12 13  1  0
 13 14  2  0
 14 15  1  0
 11 16  1  0
 15 16  2  0
  6 17  1  0
 17 18  2  0
 18 19  1  0
 19 20  2  0
 20 21  1  0
 20 22  1  0
 17 23  1  0
 22 23  2  0
M  END
