pyridine_urea_8996
     RDKit          3D

 19 20  0  0  0  0  0  0  0  0999 V2000
   13.1860   -2.0600   21.3680 C   0  0  0  0  0  0  0  0  0  0  0  0
   12.9080   -2.3420   22.8690 C   0  0  2  0  0  0  0  0  0  0  0  0
   11.3990   -2.1560   22.9970 C   0  0  0  0  0  0  0  0  0  0  0  0
   10.9970   -0.9170   22.5490 C   0  0  0  0  0  0  0  0  0  0  0  0
    9.9620   -0.3320   23.2340 C   0  0  0  0  0  0  0  0  0  0  0  0
    8.6920   -0.6680   22.6440 N   0  0  0  0  0  0  0  0  0  0  0  0
    8.2850    0.0710   21.5650 C   0  0  0  0  0  0  0  0  0  0  0  0
    8.9100    1.2410   21.1780 O   0  0  0  0  0  0  0  0  0  0  0  0
    7.1920   -0.5170   20.9860 N   0  0  0  0  0  0  0  0  0  0  0  0
    6.4470    0.1240   20.0090 C   0  0  0  0  0  0  0  0  0  0  0  0
    5.2590    0.8480   20.2390 C   0  0  0  0  0  0  0  0  0  0  0  0
    4.6050    1.4730   19.1780 C   0  0  0  0  0  0  0  0  0  0  0  0
    5.1380    1.3720   17.9000 C   0  0  0  0  0  0  0  0  0  0  0  0
    6.2790    0.6640   17.6770 N   0  0  0  0  0  0  0  0  0  0  0  0
    6.9260    0.0440   18.7220 C   0  0  0  0  0  0  0  0  0  0  0  0
   12.2160    0.0060   22.6290 C   0  0  0  0  0  0  0  0  0  0  0  0
   12.9740   -0.4260   23.6260 C   0  0  1  0  0  0  0  0  0  0  0  0
   12.2160   -0.4050   24.8150 C   0  0  0  0  0  0  0  0  0  0  0  0
   13.5240   -1.5330   23.5730 O   0  0  0  0  0  0  0  0  0  0  0  0
  2  1  1  6
  2  3  1  0
  3  4  1  0
  4  5  1  0
  5  6  1  0
  6  7  1  0
  7  8  2  0
  7  9  1  0
  9 10  1  0
 10 11  2  0
 11 12  1  0
 12 13  2  0
 13 14  1  0
 10 15  1  0
 14 15  2  0
  4 16  1  0
 16 17  1  0
 17 18  1  1
  2 19  1  0
 17 19  1  0
M  END
