pyridine_urea_2186
     RDKit          3D

 28 31  0  0  0  0  0  0  0  0999 V2000
    9.0040    0.9150   21.3610 O   0  0  0  0  0  0  0  0  0  0  0  0
    8.5540   -0.2010   21.5610 C   0  0  0  0  0  0  0  0  0  0  0  0
    7.4040   -0.7190   20.9860 N   0  0  0  0  0  0  0  0  0  0  0  0
    6.5760   -0.0150   20.0910 C   0  0  0  0  0  0  0  0  0  0  0  0
    5.2890    0.7320   20.4800 C   0  0  0  0  0  0  0  0  0  0  0  0
    4.5840    1.4300   19.3120 C   0  0  0  0  0  0  0  0  0  0  0  0
    5.2090    1.3120   17.9620 C   0  0  0  0  0  0  0  0  0  0  0  0
    6.3390    0.6260   17.7340 N   0  0  0  0  0  0  0  0  0  0  0  0
    6.9620    0.0060   18.7600 C   0  0  0  0  0  0  0  0  0  0  0  0
    9.1570   -1.1010   22.4160 N   0  0  0  0  0  0  0  0  0  0  0  0
   10.2150   -0.7010   23.3360 C   0  0  2  0  0  0  0  0  0  0  0  0
   10.0850    0.6530   23.7220 C   0  0  0  0  0  0  0  0  0  0  0  0
    8.8430    1.1090   24.1100 N   0  0  0  0  0  0  0  0  0  0  0  0
    8.0160    0.5990   25.1280 C   0  0  0  0  0  0  0  0  0  0  0  0
    6.8830    1.3230   25.2010 N   0  0  0  0  0  0  0  0  0  0  0  0
    6.8900    2.3410   24.2510 C   0  0  0  0  0  0  0  0  0  0  0  0
    5.9150    3.3140   23.9870 C   0  0  0  0  0  0  0  0  0  0  0  0
    6.0720    4.3090   22.9600 C   0  0  0  0  0  0  0  0  0  0  0  0
    7.4170    4.1710   22.2100 C   0  0  0  0  0  0  0  0  0  0  0  0
    8.3310    3.1820   22.5270 C   0  0  0  0  0  0  0  0  0  0  0  0
    8.1000    2.2570   23.5340 C   0  0  0  0  0  0  0  0  0  0  0  0
   11.4740   -0.9560   22.7420 C   0  0  0  0  0  0  0  0  0  0  0  0
   11.8200   -1.8870   22.0690 C   0  0  0  0  0  0  0  0  0  0  0  0
   13.0520   -1.0150   22.1530 C   0  0  0  0  0  0  0  0  0  0  0  0
   11.9460   -0.0790   23.1120 C   0  0  0  0  0  0  0  0  0  0  0  0
   11.5820    0.9900   23.8830 F   0  0  0  0  0  0  0  0  0  0  0  0
   13.0070    0.7410   23.2030 C   0  0  0  0  0  0  0  0  0  0  0  0
   12.8400   -0.3590   22.6120 C   0  0  0  0  0  0  0  0  0  0  0  0
  1  2  2  0
  2  3  1  0
  3  4  1  0
  4  5  2  0
  5  6  1  0
  6  7  2  0
  7  8  1  0
  4  9  1  0
  8  9  2  0
  2 10  1  0
 10 11  1  0
 11 12  1  6
 12 13  1  0
 13 14  1  0
 14 15  2  0
 15 16  1  0
 16 17  1  0
 17 18  2  0
 18 19  1  0
 19 20  2  0
 13 21  1  0
 16 21  2  0
 20 21  1  0
 11 22  1  0
 22 23  2  0
 23 24  1  0
 24 25  2  0
 25 26  1  0
 25 27  1  0
 22 28  1  0
 27 28  2  0
M  END
