pyridine_urea_14361
     RDKit          3D

 20 21  0  0  0  0  0  0  0  0999 V2000
    8.5590    1.3080   24.2920 C   0  0  0  0  0  0  0  0  0  0  0  0
    9.6080    1.9570   23.5710 O   0  0  0  0  0  0  0  0  0  0  0  0
   10.6590    1.1360   23.2980 C   0  0  0  0  0  0  0  0  0  0  0  0
   10.4840   -0.2060   23.2080 C   0  0  0  0  0  0  0  0  0  0  0  0
   11.3740   -1.2790   22.9380 C   0  0  0  0  0  0  0  0  0  0  0  0
   10.0380   -1.6550   23.1330 C   0  0  0  0  0  0  0  0  0  0  0  0
    9.2020   -1.6530   21.9500 N   0  0  0  0  0  0  0  0  0  0  0  0
    8.5340   -0.5090   21.5100 C   0  0  0  0  0  0  0  0  0  0  0  0
    8.9950    0.6190   21.4600 O   0  0  0  0  0  0  0  0  0  0  0  0
    7.2360   -0.7620   21.0920 N   0  0  0  0  0  0  0  0  0  0  0  0
    6.5040   -0.0590   20.1130 C   0  0  0  0  0  0  0  0  0  0  0  0
    5.2200    0.7330   20.3390 C   0  0  0  0  0  0  0  0  0  0  0  0
    4.6380    1.3710   19.2670 C   0  0  0  0  0  0  0  0  0  0  0  0
    5.2240    1.2850   18.0100 C   0  0  0  0  0  0  0  0  0  0  0  0
    6.3580    0.5880   17.7760 N   0  0  0  0  0  0  0  0  0  0  0  0
    6.9600   -0.0580   18.8030 C   0  0  0  0  0  0  0  0  0  0  0  0
   12.8170   -0.5480   22.7570 C   0  0  0  0  0  0  0  0  0  0  0  0
   12.8690    0.8380   22.8650 C   0  0  0  0  0  0  0  0  0  0  0  0
   11.8460    1.6780   23.1110 C   0  0  0  0  0  0  0  0  0  0  0  0
   12.0460    3.0540   23.1440 C   0  0  0  0  0  0  0  0  0  0  0  0
  1  2  1  0
  2  3  1  0
  3  4  2  0
  4  5  1  0
  5  6  1  0
  6  7  1  0
  7  8  1  0
  8  9  2  0
  8 10  1  0
 10 11  1  0
 11 12  2  0
 12 13  1  0
 13 14  2  0
 14 15  1  0
 11 16  1  0
 15 16  2  0
  5 17  2  0
 17 18  1  0
  3 19  1  0
 18 19  2  0
 19 20  1  0
M  END
