pyridine_urea_4974
     RDKit          3D

 21 23  0  0  0  0  0  0  0  0999 V2000
   13.1800   -0.5990   22.9270 C   0  0  0  0  0  0  0  0  0  0  0  0
   12.6040    0.7820   22.9260 C   0  0  0  0  0  0  0  0  0  0  0  0
   13.3710    1.9590   22.9710 N   0  0  0  0  0  0  0  0  0  0  0  0
   12.4080    2.9290   22.9380 N   0  0  0  0  0  0  0  0  0  0  0  0
   12.9450    4.2380   22.9600 C   0  0  0  0  0  0  0  0  0  0  0  0
   11.0410    2.5310   22.8770 C   0  0  0  0  0  0  0  0  0  0  0  0
   10.4240    1.1790   22.8160 N   0  0  0  0  0  0  0  0  0  0  0  0
   11.0960   -0.2160   22.8040 C   0  0  0  0  0  0  0  0  0  0  0  0
    9.7210   -0.3840   22.6750 C   0  0  0  0  0  0  0  0  0  0  0  0
    8.7200   -1.1720   22.5260 N   0  0  0  0  0  0  0  0  0  0  0  0
    8.0510   -0.5130   21.5120 C   0  0  0  0  0  0  0  0  0  0  0  0
    8.5170    0.5320   21.0850 O   0  0  0  0  0  0  0  0  0  0  0  0
    6.8910   -1.0300   21.0280 N   0  0  0  0  0  0  0  0  0  0  0  0
    6.2390   -0.2520   20.0510 C   0  0  0  0  0  0  0  0  0  0  0  0
    5.0450    0.4480   20.1960 C   0  0  0  0  0  0  0  0  0  0  0  0
    4.5080    1.1950   19.1740 C   0  0  0  0  0  0  0  0  0  0  0  0
    5.1840    1.2490   17.9660 C   0  0  0  0  0  0  0  0  0  0  0  0
    6.3450    0.5860   17.7680 N   0  0  0  0  0  0  0  0  0  0  0  0
    6.8360   -0.1390   18.8040 C   0  0  0  0  0  0  0  0  0  0  0  0
    9.9130    0.9330   22.7710 C   0  0  0  0  0  0  0  0  0  0  0  0
   11.3350    1.2300   22.8660 C   0  0  0  0  0  0  0  0  0  0  0  0
  1  2  1  0
  2  3  2  0
  3  4  1  0
  4  5  1  0
  4  6  1  0
  6  7  1  0
  7  8  2  0
  8  9  1  0
  9 10  1  0
 10 11  1  0
 11 12  2  0
 11 13  1  0
 13 14  1  0
 14 15  2  0
 15 16  1  0
 16 17  2  0
 17 18  1  0
 14 19  1  0
 18 19  2  0
  9 20  2  0
  2 21  1  0
  6 21  2  0
 20 21  1  0
M  END
