pyridine_urea_11490
     RDKit          3D

 21 22  0  0  0  0  0  0  0  0999 V2000
   10.2420   -0.2480   24.5770 C   0  0  0  0  0  0  0  0  0  0  0  0
   10.4760   -0.1270   23.0990 C   0  0  2  0  0  0  0  0  0  0  0  0
    9.3160   -0.6740   22.3820 N   0  0  0  0  0  0  0  0  0  0  0  0
    8.5870    0.1280   21.5150 C   0  0  0  0  0  0  0  0  0  0  0  0
    8.9810    1.2490   21.1810 O   0  0  0  0  0  0  0  0  0  0  0  0
    7.4060   -0.4420   21.0910 N   0  0  0  0  0  0  0  0  0  0  0  0
    6.6270    0.1100   20.0660 C   0  0  0  0  0  0  0  0  0  0  0  0
    5.4790    0.8170   20.3860 C   0  0  0  0  0  0  0  0  0  0  0  0
    4.7150    1.3890   19.3700 C   0  0  0  0  0  0  0  0  0  0  0  0
    5.1290    1.2300   18.0600 C   0  0  0  0  0  0  0  0  0  0  0  0
    6.2280    0.5440   17.7250 N   0  0  0  0  0  0  0  0  0  0  0  0
    6.9470    0.0020   18.7300 C   0  0  0  0  0  0  0  0  0  0  0  0
   11.7140   -0.8810   22.6830 C   0  0  0  0  0  0  0  0  0  0  0  0
   12.9130   -0.9660   22.4800 C   0  0  0  0  0  0  0  0  0  0  0  0
   12.8480    0.3050   22.8800 C   0  0  0  0  0  0  0  0  0  0  0  0
   11.4620    0.8420   23.2490 C   0  0  0  0  0  0  0  0  0  0  0  0
   10.8040    1.9770   23.6820 N   0  0  0  0  0  0  0  0  0  0  0  0
   11.2340    3.1510   23.1440 C   0  0  0  0  0  0  0  0  0  0  0  0
    9.4770    1.9390   24.0250 C   0  0  0  0  0  0  0  0  0  0  0  0
   12.3330    1.5300   23.3200 N   0  0  0  0  0  0  0  0  0  0  0  0
   12.9590    0.3330   22.8670 C   0  0  0  0  0  0  0  0  0  0  0  0
  2  1  1  1
  2  3  1  0
  3  4  1  0
  4  5  2  0
  4  6  1  0
  6  7  1  0
  7  8  2  0
  8  9  1  0
  9 10  2  0
 10 11  1  0
  7 12  1  0
 11 12  2  0
  2 13  1  0
 13 14  2  0
 14 15  1  0
 15 16  2  0
 16 17  1  0
 17 18  1  0
 17 19  1  0
 16 20  1  0
 13 21  1  0
 20 21  2  0
M  END
