pyridine_urea_9585
     RDKit          3D

 19 20  0  0  0  0  0  0  0  0999 V2000
   12.9230   -2.1430   24.2640 C   0  0  0  0  0  0  0  0  0  0  0  0
   12.5120   -1.8060   22.9850 N   0  0  0  0  0  0  0  0  0  0  0  0
   12.9910   -2.5310   21.8410 C   0  0  0  0  0  0  0  0  0  0  0  0
   12.2130   -0.4920   22.7720 C   0  0  2  0  0  0  0  0  0  0  0  0
   12.7050    0.4910   23.7820 C   0  0  0  0  0  0  0  0  0  0  0  0
   11.8420    1.3300   24.0490 O   0  0  0  0  0  0  0  0  0  0  0  0
   10.6290    1.1270   23.3450 C   0  0  0  0  0  0  0  0  0  0  0  0
   10.8410   -0.2010   22.6520 C   0  0  2  0  0  0  0  0  0  0  0  0
    9.8960   -1.2360   23.2220 C   0  0  0  0  0  0  0  0  0  0  0  0
    8.7730   -1.4290   22.3130 N   0  0  0  0  0  0  0  0  0  0  0  0
    8.2110   -0.3790   21.5480 C   0  0  0  0  0  0  0  0  0  0  0  0
    8.8590    0.8080   21.2910 O   0  0  0  0  0  0  0  0  0  0  0  0
    6.9700   -0.7280   21.1390 N   0  0  0  0  0  0  0  0  0  0  0  0
    6.4320   -0.0710   20.0760 C   0  0  0  0  0  0  0  0  0  0  0  0
    5.2930    0.6850   20.3090 C   0  0  0  0  0  0  0  0  0  0  0  0
    4.6750    1.3920   19.2890 C   0  0  0  0  0  0  0  0  0  0  0  0
    5.2160    1.3350   18.0240 C   0  0  0  0  0  0  0  0  0  0  0  0
    6.3310    0.6100   17.7240 N   0  0  0  0  0  0  0  0  0  0  0  0
    6.9860   -0.1420   18.7980 C   0  0  0  0  0  0  0  0  0  0  0  0
  1  2  1  0
  2  3  1  0
  4  2  1  1
  4  5  1  0
  5  6  1  0
  6  7  1  0
  4  8  1  0
  7  8  1  0
  8  9  1  1
  9 10  1  0
 10 11  1  0
 11 12  2  0
 11 13  1  0
 13 14  1  0
 14 15  2  0
 15 16  1  0
 16 17  2  0
 17 18  1  0
 14 19  1  0
 18 19  2  0
M  END
