pyridine_urea_352
     RDKit          3D

 26 28  0  0  0  0  0  0  0  0999 V2000
    8.9180    0.2920   21.3340 O   0  0  0  0  0  0  0  0  0  0  0  0
    8.1700   -0.6750   21.4480 C   0  0  0  0  0  0  0  0  0  0  0  0
    8.4890   -1.8850   22.0290 N   0  0  0  0  0  0  0  0  0  0  0  0
    9.8090   -2.1920   22.5180 C   0  0  0  0  0  0  0  0  0  0  0  0
   10.3050   -1.0900   23.3800 C   0  0  0  0  0  0  0  0  0  0  0  0
   11.2690   -1.5370   22.3110 C   0  0  0  0  0  0  0  0  0  0  0  0
   12.4170   -0.9590   22.1920 C   0  0  0  0  0  0  0  0  0  0  0  0
   13.2310    0.0790   22.7550 C   0  0  0  0  0  0  0  0  0  0  0  0
   12.3490    0.5430   23.8040 C   0  0  0  0  0  0  0  0  0  0  0  0
   11.0940   -0.0200   24.0160 C   0  0  0  0  0  0  0  0  0  0  0  0
   10.5250    0.5010   24.9420 O   0  0  0  0  0  0  0  0  0  0  0  0
    9.6280   -0.3760   25.6420 C   0  0  0  0  0  0  0  0  0  0  0  0
    8.3110    0.1060   25.5890 C   0  0  0  0  0  0  0  0  0  0  0  0
    7.5670    0.1600   26.7670 N   0  0  0  0  0  0  0  0  0  0  0  0
    7.0570   -0.8960   27.5440 C   0  0  0  0  0  0  0  0  0  0  0  0
    5.8690   -0.6060   28.1770 C   0  0  0  0  0  0  0  0  0  0  0  0
    6.0890    0.5410   29.0050 O   0  0  0  0  0  0  0  0  0  0  0  0
    6.5950    1.6630   28.2910 C   0  0  0  0  0  0  0  0  0  0  0  0
    7.8650    1.2710   27.5810 C   0  0  0  0  0  0  0  0  0  0  0  0
    6.8610   -0.7140   21.0250 N   0  0  0  0  0  0  0  0  0  0  0  0
    6.2850   -0.0010   20.0430 C   0  0  0  0  0  0  0  0  0  0  0  0
    5.1110    0.7540   20.2030 C   0  0  0  0  0  0  0  0  0  0  0  0
    4.6040    1.4570   19.1160 C   0  0  0  0  0  0  0  0  0  0  0  0
    5.2820    1.3830   17.9120 C   0  0  0  0  0  0  0  0  0  0  0  0
    6.4040    0.6710   17.7250 N   0  0  0  0  0  0  0  0  0  0  0  0
    6.8760   -0.0040   18.7900 C   0  0  0  0  0  0  0  0  0  0  0  0
  1  2  2  0
  2  3  1  0
  3  4  1  0
  4  5  1  0
  5  6  2  0
  6  7  1  0
  7  8  2  0
  8  9  1  0
  5 10  1  0
  9 10  2  0
 10 11  1  0
 11 12  1  0
 12 13  1  0
 13 14  1  0
 14 15  1  0
 15 16  1  0
 16 17  1  0
 17 18  1  0
 14 19  1  0
 18 19  1  0
  2 20  1  0
 20 21  1  0
 21 22  2  0
 22 23  1  0
 23 24  2  0
 24 25  1  0
 21 26  1  0
 25 26  2  0
M  END
