pyridine_urea_966
     RDKit          3D

 22 24  0  0  0  0  0  0  0  0999 V2000
    8.8660    1.2590   21.1670 O   0  0  0  0  0  0  0  0  0  0  0  0
    8.5540    0.0850   21.4030 C   0  0  0  0  0  0  0  0  0  0  0  0
    7.1960   -0.3980   21.1760 N   0  0  0  0  0  0  0  0  0  0  0  0
    6.4970    0.1570   20.1120 C   0  0  0  0  0  0  0  0  0  0  0  0
    5.3230    0.8710   20.3450 C   0  0  0  0  0  0  0  0  0  0  0  0
    4.6540    1.4360   19.2540 C   0  0  0  0  0  0  0  0  0  0  0  0
    5.1860    1.2620   17.9750 C   0  0  0  0  0  0  0  0  0  0  0  0
    6.3060    0.5710   17.7370 N   0  0  0  0  0  0  0  0  0  0  0  0
    6.9400    0.0290   18.8070 C   0  0  0  0  0  0  0  0  0  0  0  0
    9.3730   -0.9150   21.8740 N   0  0  0  0  0  0  0  0  0  0  0  0
   10.1920   -0.7290   23.0590 C   0  0  0  0  0  0  0  0  0  0  0  0
    9.5390   -0.2830   24.3140 C   0  0  0  0  0  0  0  0  0  0  0  0
   10.3710   -0.1570   25.3820 C   0  0  0  0  0  0  0  0  0  0  0  0
    9.7660    0.2190   26.5260 F   0  0  0  0  0  0  0  0  0  0  0  0
   11.7650   -0.4150   25.2740 C   0  0  0  0  0  0  0  0  0  0  0  0
   12.3070   -0.7980   24.1570 C   0  0  0  0  0  0  0  0  0  0  0  0
   11.5510   -0.9550   23.1140 C   0  0  0  0  0  0  0  0  0  0  0  0
   12.1810   -1.3500   22.1920 N   0  0  0  0  0  0  0  0  0  0  0  0
   11.8170   -2.3840   21.5770 C   0  0  0  0  0  0  0  0  0  0  0  0
   12.7490   -2.5550   20.6550 C   0  0  0  0  0  0  0  0  0  0  0  0
   13.6910   -1.5380   20.7370 C   0  0  0  0  0  0  0  0  0  0  0  0
   13.3430   -0.7220   21.7790 C   0  0  0  0  0  0  0  0  0  0  0  0
  1  2  2  0
  2  3  1  0
  3  4  1  0
  4  5  2  0
  5  6  1  0
  6  7  2  0
  7  8  1  0
  4  9  1  0
  8  9  2  0
  2 10  1  0
 10 11  1  0
 11 12  2  0
 12 13  1  0
 13 14  1  0
 13 15  2  0
 15 16  1  0
 11 17  1  0
 16 17  2  0
 17 18  1  0
 18 19  1  0
 19 20  2  0
 20 21  1  0
 18 22  1  0
 21 22  2  0
M  END
