pyridine_urea_3681
     RDKit          3D

 19 21  0  0  0  0  0  0  0  0999 V2000
    8.8200    0.7210   21.3880 O   0  0  0  0  0  0  0  0  0  0  0  0
    8.3300   -0.3350   21.7700 C   0  0  0  0  0  0  0  0  0  0  0  0
    7.2000   -0.8880   21.1930 N   0  0  0  0  0  0  0  0  0  0  0  0
    6.5400   -0.1570   20.1210 C   0  0  0  0  0  0  0  0  0  0  0  0
    5.2760    0.6250   20.4800 C   0  0  0  0  0  0  0  0  0  0  0  0
    4.5760    1.4060   19.3640 C   0  0  0  0  0  0  0  0  0  0  0  0
    5.2320    1.3200   17.9840 C   0  0  0  0  0  0  0  0  0  0  0  0
    6.3920    0.5540   17.8170 N   0  0  0  0  0  0  0  0  0  0  0  0
    7.0060   -0.1450   18.8210 C   0  0  0  0  0  0  0  0  0  0  0  0
    8.8440   -1.0930   22.8370 N   0  0  0  0  0  0  0  0  0  0  0  0
   10.2340   -0.9840   23.1020 C   0  0  2  0  0  0  0  0  0  0  0  0
   11.0530   -0.9840   21.9640 C   0  0  0  0  0  0  0  0  0  0  0  0
   12.3880   -1.0590   22.3640 C   0  0  0  0  0  0  0  0  0  0  0  0
   11.8380   -0.9780   23.5370 C   0  0  2  0  0  0  0  0  0  0  0  0
   10.9020   -1.8990   23.9500 C   0  0  0  0  0  0  0  0  0  0  0  0
   12.0870    0.0910   24.4570 C   0  0  2  0  0  0  0  0  0  0  0  0
   12.2610   -0.3630   25.5640 O   0  0  0  0  0  0  0  0  0  0  0  0
   10.6700    0.2090   24.0170 C   0  0  2  0  0  0  0  0  0  0  0  0
    9.9440    0.2270   25.0080 O   0  0  0  0  0  0  0  0  0  0  0  0
  1  2  2  0
  2  3  1  0
  3  4  1  0
  4  5  2  0
  5  6  1  0
  6  7  2  0
  7  8  1  0
  4  9  1  0
  8  9  2  0
  2 10  1  0
 11 10  1  6
 11 12  1  0
 12 13  1  0
 14 13  1  6
 11 15  1  0
 14 15  1  0
 14 16  1  0
 16 17  1  1
 11 18  1  0
 16 18  1  0
 18 19  1  1
M  END
