pyridine_urea_13
     RDKit          3D

 27 27  0  0  0  0  0  0  0  0999 V2000
    5.4690    4.3830   21.5040 C   0  0  0  0  0  0  0  0  0  0  0  0
    5.4360    3.4430   22.2470 C   0  0  0  0  0  0  0  0  0  0  0  0
    4.9340    2.2520   23.0760 C   0  0  0  0  0  0  0  0  0  0  0  0
    6.6230    2.7450   21.5580 C   0  0  0  0  0  0  0  0  0  0  0  0
    5.9320    4.2600   23.3460 O   0  0  0  0  0  0  0  0  0  0  0  0
    6.5710    3.7250   24.4240 C   0  0  0  0  0  0  0  0  0  0  0  0
    6.0420    3.5340   25.5120 O   0  0  0  0  0  0  0  0  0  0  0  0
    8.0480    3.3940   24.1010 C   0  0  0  0  0  0  0  0  0  0  0  0
    8.4380    1.9820   24.3260 C   0  0  0  0  0  0  0  0  0  0  0  0
    9.8050    1.7360   23.8880 N   0  0  0  0  0  0  0  0  0  0  0  0
   10.5300    0.6800   24.4090 C   0  0  0  0  0  0  0  0  0  0  0  0
   10.0300   -0.4080   25.2220 O   0  0  0  0  0  0  0  0  0  0  0  0
   12.0130    0.6820   24.1440 C   0  0  0  0  0  0  0  0  0  0  0  0
   12.5510    0.3840   22.9180 C   0  0  0  0  0  0  0  0  0  0  0  0
   12.7200   -0.9370   22.5440 C   0  0  0  0  0  0  0  0  0  0  0  0
   11.5680   -1.6320   22.2280 C   0  0  0  0  0  0  0  0  0  0  0  0
   10.2470   -1.0280   22.6510 C   0  0  0  0  0  0  0  0  0  0  0  0
    9.1220   -1.4070   21.8220 N   0  0  0  0  0  0  0  0  0  0  0  0
    8.2960   -0.3930   21.2930 C   0  0  0  0  0  0  0  0  0  0  0  0
    8.6710    0.7640   21.1640 O   0  0  0  0  0  0  0  0  0  0  0  0
    7.0800   -0.8730   20.9510 N   0  0  0  0  0  0  0  0  0  0  0  0
    6.3940   -0.1400   20.0370 C   0  0  0  0  0  0  0  0  0  0  0  0
    5.1930    0.5460   20.2620 C   0  0  0  0  0  0  0  0  0  0  0  0
    4.5970    1.2730   19.2260 C   0  0  0  0  0  0  0  0  0  0  0  0
    5.2220    1.2950   17.9860 C   0  0  0  0  0  0  0  0  0  0  0  0
    6.3700    0.6420   17.7440 N   0  0  0  0  0  0  0  0  0  0  0  0
    6.9200   -0.0510   18.7610 C   0  0  0  0  0  0  0  0  0  0  0  0
  1  2  1  0
  2  3  1  0
  2  4  1  0
  2  5  1  0
  5  6  1  0
  6  7  2  0
  6  8  1  0
  8  9  1  0
  9 10  1  0
 10 11  1  0
 11 12  2  0
 11 13  1  0
 13 14  1  0
 14 15  1  0
 15 16  1  0
 16 17  1  0
 17 18  1  0
 18 19  1  0
 19 20  2  0
 19 21  1  0
 21 22  1  0
 22 23  2  0
 23 24  1  0
 24 25  2  0
 25 26  1  0
 22 27  1  0
 26 27  2  0
M  END
