pyridine_urea_9318
     RDKit          3D

 17 18  0  0  0  0  0  0  0  0999 V2000
   11.6240    0.8880   23.9440 C   0  0  0  0  0  0  0  0  0  0  0  0
   12.8610    0.4190   23.2470 C   0  0  0  0  0  0  0  0  0  0  0  0
   12.2580   -0.5560   22.7290 C   0  0  0  0  0  0  0  0  0  0  0  0
   11.1730   -1.2370   22.5690 C   0  0  0  0  0  0  0  0  0  0  0  0
    9.8820   -1.2120   22.9830 C   0  0  0  0  0  0  0  0  0  0  0  0
    9.0410   -1.2760   21.8130 N   0  0  0  0  0  0  0  0  0  0  0  0
    8.3630   -0.1540   21.4800 C   0  0  0  0  0  0  0  0  0  0  0  0
    8.8620    0.9700   21.5240 O   0  0  0  0  0  0  0  0  0  0  0  0
    7.0210   -0.4830   21.0570 N   0  0  0  0  0  0  0  0  0  0  0  0
    6.4120    0.1000   20.0170 C   0  0  0  0  0  0  0  0  0  0  0  0
    5.1130    0.8790   20.2270 C   0  0  0  0  0  0  0  0  0  0  0  0
    4.5240    1.4820   19.1430 C   0  0  0  0  0  0  0  0  0  0  0  0
    5.1460    1.3530   17.9030 C   0  0  0  0  0  0  0  0  0  0  0  0
    6.2860    0.6650   17.6920 N   0  0  0  0  0  0  0  0  0  0  0  0
    6.8930    0.0570   18.7280 C   0  0  0  0  0  0  0  0  0  0  0  0
   11.9300   -1.9660   21.8030 C   0  0  0  0  0  0  0  0  0  0  0  0
   13.4870   -0.9570   22.0710 S   0  0  0  0  0  0  0  0  0  0  0  0
  1  2  1  0
  2  3  2  0
  3  4  1  0
  4  5  1  0
  5  6  1  0
  6  7  1  0
  7  8  2  0
  7  9  1  0
  9 10  1  0
 10 11  2  0
 11 12  1  0
 12 13  2  0
 13 14  1  0
 10 15  1  0
 14 15  2  0
  4 16  2  0
  2 17  1  0
 16 17  1  0
M  END
