pyridine_urea_4778
     RDKit          3D

 22 23  0  0  0  0  0  0  0  0999 V2000
   11.0710   -0.4160   24.7690 C   0  0  0  0  0  0  0  0  0  0  0  0
   11.1600   -1.2930   23.4950 C   0  0  0  0  0  0  0  0  0  0  0  0
   12.1070   -2.4740   23.8090 C   0  0  0  0  0  0  0  0  0  0  0  0
    9.7610   -1.8040   23.0190 C   0  0  2  0  0  0  0  0  0  0  0  0
    9.3580   -1.2890   21.7040 N   0  0  0  0  0  0  0  0  0  0  0  0
    8.5620   -0.1900   21.4760 C   0  0  0  0  0  0  0  0  0  0  0  0
    8.9700    0.9530   21.6000 O   0  0  0  0  0  0  0  0  0  0  0  0
    7.2940   -0.5550   21.0780 N   0  0  0  0  0  0  0  0  0  0  0  0
    6.5120    0.0930   20.0980 C   0  0  0  0  0  0  0  0  0  0  0  0
    5.3370    0.7980   20.3440 C   0  0  0  0  0  0  0  0  0  0  0  0
    4.6590    1.4070   19.2830 C   0  0  0  0  0  0  0  0  0  0  0  0
    5.1890    1.2880   18.0140 C   0  0  0  0  0  0  0  0  0  0  0  0
    6.3160    0.6070   17.7490 N   0  0  0  0  0  0  0  0  0  0  0  0
    6.9390    0.0310   18.7870 C   0  0  0  0  0  0  0  0  0  0  0  0
    8.6720   -1.6870   23.9180 C   0  0  0  0  0  0  0  0  0  0  0  0
    8.5550   -0.7030   24.6420 O   0  0  0  0  0  0  0  0  0  0  0  0
    7.8050   -2.7270   23.9000 N   0  0  0  0  0  0  0  0  0  0  0  0
    6.6750   -2.6280   24.6450 C   0  0  0  0  0  0  0  0  0  0  0  0
    5.5830   -3.3860   24.2570 C   0  0  0  0  0  0  0  0  0  0  0  0
    5.9690   -4.7470   24.3770 C   0  0  0  0  0  0  0  0  0  0  0  0
    7.0960   -5.0470   23.6460 C   0  0  0  0  0  0  0  0  0  0  0  0
    8.1280   -3.9540   23.4290 C   0  0  0  0  0  0  0  0  0  0  0  0
  1  2  1  0
  2  3  1  0
  2  4  1  0
  4  5  1  6
  5  6  1  0
  6  7  2  0
  6  8  1  0
  8  9  1  0
  9 10  2  0
 10 11  1  0
 11 12  2  0
 12 13  1  0
  9 14  1  0
 13 14  2  0
  4 15  1  0
 15 16  2  0
 15 17  1  0
 17 18  1  0
 18 19  1  0
 19 20  1  0
 20 21  1  0
 17 22  1  0
 21 22  1  0
M  END
