pyridine_urea_1943
     RDKit          3D

 19 20  0  0  0  0  0  0  0  0999 V2000
   13.1380   -1.8300   21.4320 C   0  0  0  0  0  0  0  0  0  0  0  0
   13.5020   -2.5800   22.7210 C   0  0  0  0  0  0  0  0  0  0  0  0
   12.5010   -2.4250   23.6870 N   0  0  0  0  0  0  0  0  0  0  0  0
   11.2090   -2.8180   23.4170 C   0  0  0  0  0  0  0  0  0  0  0  0
   10.7320   -1.4860   23.5020 C   0  0  2  0  0  0  0  0  0  0  0  0
    9.7900   -1.2440   24.6430 C   0  0  0  0  0  0  0  0  0  0  0  0
   10.2070   -0.9850   22.1840 C   0  0  0  0  0  0  0  0  0  0  0  0
    8.7760   -0.9820   22.2030 N   0  0  0  0  0  0  0  0  0  0  0  0
    8.1300   -0.0770   21.4400 C   0  0  0  0  0  0  0  0  0  0  0  0
    8.6090    1.0080   21.1390 O   0  0  0  0  0  0  0  0  0  0  0  0
    6.8490   -0.5830   21.0540 N   0  0  0  0  0  0  0  0  0  0  0  0
    6.2960    0.0610   19.9950 C   0  0  0  0  0  0  0  0  0  0  0  0
    5.1150    0.7730   20.1850 C   0  0  0  0  0  0  0  0  0  0  0  0
    4.5530    1.4440   19.1120 C   0  0  0  0  0  0  0  0  0  0  0  0
    5.1930    1.3840   17.8710 C   0  0  0  0  0  0  0  0  0  0  0  0
    6.3300    0.6940   17.6800 N   0  0  0  0  0  0  0  0  0  0  0  0
    6.8510    0.0510   18.7390 C   0  0  0  0  0  0  0  0  0  0  0  0
   12.1570   -1.0700   23.7070 C   0  0  0  0  0  0  0  0  0  0  0  0
   12.8230   -0.0840   23.8160 O   0  0  0  0  0  0  0  0  0  0  0  0
  1  2  1  0
  2  3  1  0
  3  4  1  0
  4  5  1  0
  5  6  1  1
  5  7  1  0
  7  8  1  0
  8  9  1  0
  9 10  2  0
  9 11  1  0
 11 12  1  0
 12 13  2  0
 13 14  1  0
 14 15  2  0
 15 16  1  0
 12 17  1  0
 16 17  2  0
  3 18  1  0
  5 18  1  0
 18 19  2  0
M  END
