pyridine_urea_2668
     RDKit          3D

 23 24  0  0  0  0  0  0  0  0999 V2000
   11.8740    2.3410   22.9470 C   0  0  0  0  0  0  0  0  0  0  0  0
   11.5780    1.3300   23.5980 O   0  0  0  0  0  0  0  0  0  0  0  0
   11.7810    0.1200   22.9500 C   0  0  0  0  0  0  0  0  0  0  0  0
   12.9420    0.8370   23.1210 C   0  0  0  0  0  0  0  0  0  0  0  0
   12.8920   -0.2920   22.5570 C   0  0  0  0  0  0  0  0  0  0  0  0
   11.5140   -0.6920   22.5670 C   0  0  0  0  0  0  0  0  0  0  0  0
   10.3310   -0.0970   23.0460 C   0  0  2  0  0  0  0  0  0  0  0  0
   10.2430   -0.1580   24.4360 C   0  0  0  0  0  0  0  0  0  0  0  0
   11.2370   -1.1480   24.9130 N   0  0  0  0  0  0  0  0  0  0  0  0
   10.8450   -2.4500   25.0300 C   0  0  0  0  0  0  0  0  0  0  0  0
   12.5660   -0.8380   25.1110 C   0  0  0  0  0  0  0  0  0  0  0  0
    9.2130   -0.7540   22.3460 N   0  0  0  0  0  0  0  0  0  0  0  0
    8.4600    0.0380   21.4490 C   0  0  0  0  0  0  0  0  0  0  0  0
    8.7440    1.1960   21.1080 O   0  0  0  0  0  0  0  0  0  0  0  0
    7.3530   -0.6120   21.0040 N   0  0  0  0  0  0  0  0  0  0  0  0
    6.6030    0.0350   20.0840 C   0  0  0  0  0  0  0  0  0  0  0  0
    5.4730    0.7990   20.3250 C   0  0  0  0  0  0  0  0  0  0  0  0
    4.7310    1.4550   19.3430 C   0  0  0  0  0  0  0  0  0  0  0  0
    5.1680    1.3230   18.0350 C   0  0  0  0  0  0  0  0  0  0  0  0
    6.2550    0.5910   17.7050 N   0  0  0  0  0  0  0  0  0  0  0  0
    6.9590   -0.0470   18.7490 C   0  0  0  0  0  0  0  0  0  0  0  0
   11.5800   -1.7860   22.0070 C   0  0  0  0  0  0  0  0  0  0  0  0
   12.7070   -0.9310   22.2700 C   0  0  0  0  0  0  0  0  0  0  0  0
  1  2  1  0
  2  3  1  0
  3  4  2  0
  4  5  1  0
  5  6  2  0
  6  7  1  0
  7  8  1  1
  8  9  1  0
  9 10  1  0
  9 11  1  0
  7 12  1  0
 12 13  1  0
 13 14  2  0
 13 15  1  0
 15 16  1  0
 16 17  2  0
 17 18  1  0
 18 19  2  0
 19 20  1  0
 16 21  1  0
 20 21  2  0
  6 22  1  0
  3 23  1  0
 22 23  2  0
M  END
