pyridine_urea_7154
     RDKit          3D

 19 20  0  0  0  0  0  0  0  0999 V2000
   12.4590    4.4230   21.7380 C   0  0  0  0  0  0  0  0  0  0  0  0
   11.6610    3.7330   23.1670 S   0  0  0  0  0  0  0  0  0  0  0  0
   11.6150    1.9650   22.9810 C   0  0  0  0  0  0  0  0  0  0  0  0
   12.7780    1.2150   22.9960 C   0  0  0  0  0  0  0  0  0  0  0  0
   12.8010   -0.1640   22.8560 C   0  0  0  0  0  0  0  0  0  0  0  0
   11.6210   -0.8450   22.6830 C   0  0  0  0  0  0  0  0  0  0  0  0
   11.6960   -2.5230   22.5170 Cl  0  0  0  0  0  0  0  0  0  0  0  0
   10.4160   -0.1640   22.6470 C   0  0  0  0  0  0  0  0  0  0  0  0
    9.1470   -0.8530   22.4330 N   0  0  0  0  0  0  0  0  0  0  0  0
    8.2950   -0.1870   21.5750 C   0  0  0  0  0  0  0  0  0  0  0  0
    8.5330    0.9230   21.1180 O   0  0  0  0  0  0  0  0  0  0  0  0
    7.0410   -0.8720   21.2100 N   0  0  0  0  0  0  0  0  0  0  0  0
    6.4380   -0.1520   20.0880 C   0  0  0  0  0  0  0  0  0  0  0  0
    5.2730    0.5940   20.3500 C   0  0  0  0  0  0  0  0  0  0  0  0
    4.6570    1.3160   19.3190 C   0  0  0  0  0  0  0  0  0  0  0  0
    5.2100    1.2820   18.0520 C   0  0  0  0  0  0  0  0  0  0  0  0
    6.3100    0.5960   17.7230 N   0  0  0  0  0  0  0  0  0  0  0  0
    6.9500   -0.1580   18.8010 C   0  0  0  0  0  0  0  0  0  0  0  0
   10.4050    1.2990   22.8110 C   0  0  0  0  0  0  0  0  0  0  0  0
  1  2  1  0
  2  3  1  0
  3  4  2  0
  4  5  1  0
  5  6  2  0
  6  7  1  0
  6  8  1  0
  8  9  1  0
  9 10  1  0
 10 11  2  0
 10 12  1  0
 12 13  1  0
 13 14  2  0
 14 15  1  0
 15 16  2  0
 16 17  1  0
 13 18  1  0
 17 18  2  0
  3 19  1  0
  8 19  2  0
M  END
