pyridine_urea_7109
     RDKit          3D

 20 21  0  0  0  0  0  0  0  0999 V2000
    9.0780    0.9110   21.3170 O   0  0  0  0  0  0  0  0  0  0  0  0
    8.6760   -0.2390   21.4320 C   0  0  0  0  0  0  0  0  0  0  0  0
    9.4300   -1.3050   21.9320 N   0  0  0  0  0  0  0  0  0  0  0  0
   10.8020   -1.3410   22.3790 C   0  0  0  0  0  0  0  0  0  0  0  0
   11.3760   -0.5570   23.4280 C   0  0  0  0  0  0  0  0  0  0  0  0
   12.7850   -0.4460   23.4300 C   0  0  0  0  0  0  0  0  0  0  0  0
   12.2470    0.6270   22.8710 C   0  0  0  0  0  0  0  0  0  0  0  0
   10.8550    0.5740   22.9140 C   0  0  0  0  0  0  0  0  0  0  0  0
   10.2050   -0.7200   23.5930 C   0  0  0  0  0  0  0  0  0  0  0  0
    8.4920   -0.9690   23.7340 Cl  0  0  0  0  0  0  0  0  0  0  0  0
   11.0750   -1.7330   24.1120 C   0  0  0  0  0  0  0  0  0  0  0  0
   12.4640   -1.6150   24.0460 C   0  0  0  0  0  0  0  0  0  0  0  0
   13.4560   -2.8480   24.7210 Cl  0  0  0  0  0  0  0  0  0  0  0  0
    7.4020   -0.6410   21.0620 N   0  0  0  0  0  0  0  0  0  0  0  0
    6.6280   -0.0020   20.0770 C   0  0  0  0  0  0  0  0  0  0  0  0
    5.4610    0.7270   20.3720 C   0  0  0  0  0  0  0  0  0  0  0  0
    4.6800    1.4110   19.2920 C   0  0  0  0  0  0  0  0  0  0  0  0
    5.1290    1.3150   17.9800 C   0  0  0  0  0  0  0  0  0  0  0  0
    6.2890    0.5680   17.7580 N   0  0  0  0  0  0  0  0  0  0  0  0
    6.9870   -0.0490   18.7410 C   0  0  0  0  0  0  0  0  0  0  0  0
  1  2  2  0
  2  3  1  0
  3  4  1  0
  4  5  1  0
  5  6  1  0
  6  7  2  0
  7  8  1  0
  8  9  2  0
  9 10  1  0
  9 11  1  0
  6 12  1  0
 11 12  2  0
 12 13  1  0
  2 14  1  0
 14 15  1  0
 15 16  2  0
 16 17  1  0
 17 18  2  0
 18 19  1  0
 15 20  1  0
 19 20  2  0
M  END
