pyridine_urea_2520
     RDKit          3D

 24 26  0  0  0  0  0  0  0  0999 V2000
    8.6190    1.5620   21.1000 O   0  0  0  0  0  0  0  0  0  0  0  0
    8.3320    0.3820   21.2540 C   0  0  0  0  0  0  0  0  0  0  0  0
    7.1180   -0.1930   21.0480 N   0  0  0  0  0  0  0  0  0  0  0  0
    6.4190    0.3030   19.9790 C   0  0  0  0  0  0  0  0  0  0  0  0
    5.2480    1.0120   20.2110 C   0  0  0  0  0  0  0  0  0  0  0  0
    4.5650    1.5430   19.1300 C   0  0  0  0  0  0  0  0  0  0  0  0
    5.0900    1.3370   17.8730 C   0  0  0  0  0  0  0  0  0  0  0  0
    6.2060    0.6460   17.6290 N   0  0  0  0  0  0  0  0  0  0  0  0
    6.8480    0.1420   18.6860 C   0  0  0  0  0  0  0  0  0  0  0  0
    9.2460   -0.5170   21.6130 N   0  0  0  0  0  0  0  0  0  0  0  0
   10.1760   -0.1310   22.6560 C   0  0  0  0  0  0  0  0  0  0  0  0
    9.5040   -0.6470   23.8700 C   0  0  0  0  0  0  0  0  0  0  0  0
   10.5480   -1.3140   24.3110 C   0  0  0  0  0  0  0  0  0  0  0  0
   11.6100   -0.6120   24.8140 C   0  0  0  0  0  0  0  0  0  0  0  0
   12.7180   -1.2710   25.2370 C   0  0  0  0  0  0  0  0  0  0  0  0
   12.7500   -2.6380   25.1550 C   0  0  0  0  0  0  0  0  0  0  0  0
   13.8410   -3.2970   25.5840 F   0  0  0  0  0  0  0  0  0  0  0  0
   11.6420   -3.3010   24.6480 C   0  0  0  0  0  0  0  0  0  0  0  0
   10.5470   -2.6510   24.2210 C   0  0  0  0  0  0  0  0  0  0  0  0
    9.4780   -3.3320   23.7220 F   0  0  0  0  0  0  0  0  0  0  0  0
   11.5720   -0.8530   22.4620 C   0  0  0  0  0  0  0  0  0  0  0  0
   12.5760    0.0600   22.7730 C   0  0  0  0  0  0  0  0  0  0  0  0
   11.9800    1.2530   23.1460 C   0  0  0  0  0  0  0  0  0  0  0  0
   10.6150    1.1870   22.8510 C   0  0  0  0  0  0  0  0  0  0  0  0
  1  2  2  0
  2  3  1  0
  3  4  1  0
  4  5  2  0
  5  6  1  0
  6  7  2  0
  7  8  1  0
  4  9  1  0
  8  9  2  0
  2 10  1  0
 11 10  1  0
 11 12  1  0
 12 13  1  0
 13 14  2  0
 14 15  1  0
 15 16  2  0
 16 17  1  0
 16 18  1  0
 13 19  1  0
 18 19  2  0
 19 20  1  0
 11 21  1  0
 21 22  1  0
 22 23  1  0
 11 24  1  0
 23 24  1  0
M  END
