pyridine_urea_9988
     RDKit          3D

 24 26  0  0  0  0  0  0  0  0999 V2000
    8.8660    1.1900   21.2980 O   0  0  0  0  0  0  0  0  0  0  0  0
    8.6730   -0.0230   21.3780 C   0  0  0  0  0  0  0  0  0  0  0  0
    9.3070   -0.8100   22.3150 N   0  0  0  0  0  0  0  0  0  0  0  0
   10.6810   -0.6360   22.5800 C   0  0  0  0  0  0  0  0  0  0  0  0
   11.1110    0.6930   22.9150 C   0  0  0  0  0  0  0  0  0  0  0  0
   12.4270    0.9180   23.1660 C   0  0  0  0  0  0  0  0  0  0  0  0
   12.9380   -0.2520   23.0180 C   0  0  0  0  0  0  0  0  0  0  0  0
   12.7470   -1.4980   22.7400 N   0  0  0  0  0  0  0  0  0  0  0  0
   11.4500   -1.8880   22.4510 C   0  0  0  0  0  0  0  0  0  0  0  0
    7.8580   -0.7640   20.5170 N   0  0  0  0  0  0  0  0  0  0  0  0
    6.8830   -0.1800   19.6650 C   0  0  1  0  0  0  0  0  0  0  0  0
    5.5140   -0.3480   19.9240 C   0  0  0  0  0  0  0  0  0  0  0  0
    4.6260    0.1700   18.9650 C   0  0  0  0  0  0  0  0  0  0  0  0
    5.0960    1.3080   18.3810 C   0  0  0  0  0  0  0  0  0  0  0  0
    5.8120    1.9100   19.3770 N   0  0  0  0  0  0  0  0  0  0  0  0
    5.2610    2.8020   20.3140 C   0  0  0  0  0  0  0  0  0  0  0  0
    6.1980    3.2500   21.3950 C   0  0  0  0  0  0  0  0  0  0  0  0
    5.7170    4.1390   22.3530 C   0  0  0  0  0  0  0  0  0  0  0  0
    4.4080    4.5800   22.2910 C   0  0  0  0  0  0  0  0  0  0  0  0
    3.5090    4.1890   21.3110 C   0  0  0  0  0  0  0  0  0  0  0  0
    3.9230    3.2970   20.3140 C   0  0  0  0  0  0  0  0  0  0  0  0
    2.7270    2.8740   19.1460 Cl  0  0  0  0  0  0  0  0  0  0  0  0
    7.0000    1.3240   19.7910 C   0  0  0  0  0  0  0  0  0  0  0  0
    7.9780    1.8870   20.2270 O   0  0  0  0  0  0  0  0  0  0  0  0
  1  2  2  0
  2  3  1  0
  3  4  1  0
  4  5  2  0
  5  6  1  0
  6  7  2  0
  7  8  1  0
  4  9  1  0
  8  9  2  0
  2 10  1  0
 11 10  1  1
 11 12  1  0
 12 13  1  0
 13 14  1  0
 14 15  1  0
 15 16  1  0
 16 17  2  0
 17 18  1  0
 18 19  2  0
 19 20  1  0
 16 21  1  0
 20 21  2  0
 21 22  1  0
 11 23  1  0
 15 23  1  0
 23 24  2  0
M  END
