pyridine_urea_2981
     RDKit          3D

 21 22  0  0  0  0  0  0  0  0999 V2000
    8.4630    0.9030   21.1540 O   0  0  0  0  0  0  0  0  0  0  0  0
    7.9990   -0.1020   21.6780 C   0  0  0  0  0  0  0  0  0  0  0  0
    6.9370   -0.7740   21.1370 N   0  0  0  0  0  0  0  0  0  0  0  0
    6.3230   -0.0600   20.0410 C   0  0  0  0  0  0  0  0  0  0  0  0
    4.9990    0.7220   20.2970 C   0  0  0  0  0  0  0  0  0  0  0  0
    4.4530    1.4080   19.2230 C   0  0  0  0  0  0  0  0  0  0  0  0
    5.2110    1.3290   17.8940 C   0  0  0  0  0  0  0  0  0  0  0  0
    6.3560    0.6300   17.7300 N   0  0  0  0  0  0  0  0  0  0  0  0
    6.8770   -0.0390   18.7830 C   0  0  0  0  0  0  0  0  0  0  0  0
    8.4640   -0.6630   22.8320 N   0  0  0  0  0  0  0  0  0  0  0  0
    9.8550   -0.3440   22.9510 C   0  0  0  0  0  0  0  0  0  0  0  0
   10.2080    0.9730   23.6310 C   0  0  0  0  0  0  0  0  0  0  0  0
   11.6880    1.3590   23.7380 C   0  0  0  0  0  0  0  0  0  0  0  0
   12.7630    0.4230   23.1670 C   0  0  0  0  0  0  0  0  0  0  0  0
   12.1880   -0.8140   22.5520 C   0  0  0  0  0  0  0  0  0  0  0  0
   13.0380   -1.8520   21.9330 C   0  0  0  0  0  0  0  0  0  0  0  0
   13.8320   -1.2840   21.0240 F   0  0  0  0  0  0  0  0  0  0  0  0
   12.2910   -2.6800   21.2220 F   0  0  0  0  0  0  0  0  0  0  0  0
   13.7140   -2.5460   22.8650 F   0  0  0  0  0  0  0  0  0  0  0  0
   10.7600   -1.2050   22.4420 C   0  0  0  0  0  0  0  0  0  0  0  0
   10.3590   -2.3460   21.8670 F   0  0  0  0  0  0  0  0  0  0  0  0
  1  2  2  0
  2  3  1  0
  3  4  1  0
  4  5  2  0
  5  6  1  0
  6  7  2  0
  7  8  1  0
  4  9  1  0
  8  9  2  0
  2 10  1  0
 10 11  1  0
 11 12  2  0
 12 13  1  0
 13 14  2  0
 14 15  1  0
 15 16  1  0
 16 17  1  0
 16 18  1  0
 16 19  1  0
 11 20  1  0
 15 20  2  0
 20 21  1  0
M  END
