pyridine_urea_4200
     RDKit          3D

 24 26  0  0  0  0  0  0  0  0999 V2000
   13.4720   -3.3430   25.7290 C   0  0  0  0  0  0  0  0  0  0  0  0
   13.4060   -2.7600   24.3530 C   0  0  0  0  0  0  0  0  0  0  0  0
   13.7330   -1.3720   24.4720 O   0  0  0  0  0  0  0  0  0  0  0  0
   12.9920   -0.5380   23.7250 C   0  0  1  0  0  0  0  0  0  0  0  0
   12.3140   -1.0500   22.7040 C   0  0  0  0  0  0  0  0  0  0  0  0
   11.1740   -0.7730   23.3800 C   0  0  1  0  0  0  0  0  0  0  0  0
   10.2630    0.0270   22.7640 C   0  0  0  0  0  0  0  0  0  0  0  0
    9.1000   -0.5450   22.2500 N   0  0  0  0  0  0  0  0  0  0  0  0
    8.3170    0.1480   21.3870 C   0  0  0  0  0  0  0  0  0  0  0  0
    8.7390    1.4570   21.0090 O   0  0  0  0  0  0  0  0  0  0  0  0
    7.1760   -0.4990   20.9740 N   0  0  0  0  0  0  0  0  0  0  0  0
    6.3620    0.1570   19.9760 C   0  0  0  0  0  0  0  0  0  0  0  0
    5.1710    0.8150   20.2000 C   0  0  0  0  0  0  0  0  0  0  0  0
    4.5240    1.4250   19.1300 C   0  0  0  0  0  0  0  0  0  0  0  0
    5.1190    1.3360   17.8830 C   0  0  0  0  0  0  0  0  0  0  0  0
    6.2640    0.6900   17.6500 N   0  0  0  0  0  0  0  0  0  0  0  0
    6.8570    0.1180   18.6960 C   0  0  0  0  0  0  0  0  0  0  0  0
   10.5430   -1.8300   23.9850 N   0  0  0  0  0  0  0  0  0  0  0  0
   10.0770   -2.8290   23.1920 C   0  0  0  0  0  0  0  0  0  0  0  0
    9.1240   -3.8590   23.7510 C   0  0  0  0  0  0  0  0  0  0  0  0
    8.1550   -3.2580   24.5850 O   0  0  0  0  0  0  0  0  0  0  0  0
    8.3430   -1.8680   24.8040 C   0  0  0  0  0  0  0  0  0  0  0  0
    9.7080   -1.6400   25.0360 C   0  0  0  0  0  0  0  0  0  0  0  0
   11.8620   -0.0640   24.4290 C   0  0  0  0  0  0  0  0  0  0  0  0
  1  2  1  0
  2  3  1  0
  4  3  1  1
  4  5  1  0
  5  6  1  0
  6  7  1  6
  7  8  1  0
  8  9  1  0
  9 10  2  0
  9 11  1  0
 11 12  1  0
 12 13  2  0
 13 14  1  0
 14 15  2  0
 15 16  1  0
 12 17  1  0
 16 17  2  0
  6 18  1  0
 18 19  1  0
 19 20  1  0
 20 21  1  0
 21 22  1  0
 18 23  1  0
 22 23  1  0
  4 24  1  0
  6 24  1  0
M  END
