pyridine_urea_354
     RDKit          3D

 27 29  0  0  0  0  0  0  0  0999 V2000
    8.6810    0.7460   21.2380 O   0  0  0  0  0  0  0  0  0  0  0  0
    8.3360   -0.4050   21.4720 C   0  0  0  0  0  0  0  0  0  0  0  0
    7.0990   -0.8820   21.0810 N   0  0  0  0  0  0  0  0  0  0  0  0
    6.4640   -0.1480   20.0080 C   0  0  0  0  0  0  0  0  0  0  0  0
    5.1810    0.6060   20.3510 C   0  0  0  0  0  0  0  0  0  0  0  0
    4.5730    1.3560   19.2150 C   0  0  0  0  0  0  0  0  0  0  0  0
    5.2010    1.3100   17.9830 C   0  0  0  0  0  0  0  0  0  0  0  0
    6.3320    0.6240   17.7330 N   0  0  0  0  0  0  0  0  0  0  0  0
    6.9270   -0.0750   18.7210 C   0  0  0  0  0  0  0  0  0  0  0  0
    9.1430   -1.3100   22.1350 N   0  0  0  0  0  0  0  0  0  0  0  0
   10.4840   -0.7540   22.4110 C   0  0  0  0  0  0  0  0  0  0  0  0
   11.6070   -1.3500   21.9330 C   0  0  0  0  0  0  0  0  0  0  0  0
   12.7970   -0.5140   22.3510 C   0  0  0  0  0  0  0  0  0  0  0  0
   12.7920    0.6490   23.0850 C   0  0  0  0  0  0  0  0  0  0  0  0
   11.6150    1.1840   23.5520 C   0  0  0  0  0  0  0  0  0  0  0  0
   10.4610    0.5150   23.2430 C   0  0  0  0  0  0  0  0  0  0  0  0
    9.2190    0.9330   23.6740 N   0  0  0  0  0  0  0  0  0  0  0  0
    8.5880   -0.2070   24.6970 S   0  0  0  0  0  0  0  0  0  0  0  0
    7.7080   -1.0530   23.9200 O   0  0  0  0  0  0  0  0  0  0  0  0
    8.1610    0.3970   25.9370 O   0  0  0  0  0  0  0  0  0  0  0  0
   10.1450   -1.0210   24.9240 C   0  0  0  0  0  0  0  0  0  0  0  0
   10.2070   -2.4630   25.1770 C   0  0  0  0  0  0  0  0  0  0  0  0
   11.5480   -3.0920   25.3590 C   0  0  0  0  0  0  0  0  0  0  0  0
   12.6840   -2.3270   25.2730 C   0  0  0  0  0  0  0  0  0  0  0  0
   13.8530   -2.9640   25.4460 F   0  0  0  0  0  0  0  0  0  0  0  0
   12.5810   -0.9690   25.0230 C   0  0  0  0  0  0  0  0  0  0  0  0
   11.3500   -0.3270   24.8580 C   0  0  0  0  0  0  0  0  0  0  0  0
  1  2  2  0
  2  3  1  0
  3  4  1  0
  4  5  2  0
  5  6  1  0
  6  7  2  0
  7  8  1  0
  4  9  1  0
  8  9  2  0
  2 10  1  0
 10 11  1  0
 11 12  2  0
 12 13  1  0
 13 14  2  0
 14 15  1  0
 11 16  1  0
 15 16  2  0
 16 17  1  0
 18 17  1  0
 18 19  2  0
 18 20  2  0
 18 21  1  0
 21 22  2  0
 22 23  1  0
 23 24  2  0
 24 25  1  0
 24 26  1  0
 21 27  1  0
 26 27  2  0
M  END
