pyridine_urea_342
     RDKit          3D

 27 29  0  0  0  0  0  0  0  0999 V2000
   11.7500   -6.3760   16.0460 C   0  0  0  0  0  0  0  0  0  0  0  0
   12.0910   -5.1760   17.0450 O   0  0  0  0  0  0  0  0  0  0  0  0
   12.3790   -4.7760   18.6170 C   0  0  0  0  0  0  0  0  0  0  0  0
   13.7620   -4.8110   19.3160 C   0  0  0  0  0  0  0  0  0  0  0  0
   13.8810   -4.2400   20.6420 C   0  0  0  0  0  0  0  0  0  0  0  0
   12.7610   -3.6670   21.1940 C   0  0  0  0  0  0  0  0  0  0  0  0
   12.8330   -2.9920   22.4480 N   0  0  0  0  0  0  0  0  0  0  0  0
   12.7750   -1.7350   21.9600 C   0  0  0  0  0  0  0  0  0  0  0  0
   13.4930   -1.3950   20.8550 O   0  0  0  0  0  0  0  0  0  0  0  0
   12.0350   -0.5410   22.3240 C   0  0  0  0  0  0  0  0  0  0  0  0
   12.9230    0.4260   22.5850 C   0  0  0  0  0  0  0  0  0  0  0  0
   12.2710    1.7220   22.8780 C   0  0  0  0  0  0  0  0  0  0  0  0
   10.9420    1.9930   22.9190 C   0  0  0  0  0  0  0  0  0  0  0  0
   10.0480    1.0110   22.6950 C   0  0  0  0  0  0  0  0  0  0  0  0
   10.5200   -0.2200   22.3940 C   0  0  0  0  0  0  0  0  0  0  0  0
    9.4070   -0.9950   22.1480 N   0  0  0  0  0  0  0  0  0  0  0  0
    8.3860   -0.3230   21.4040 C   0  0  0  0  0  0  0  0  0  0  0  0
    8.5340    1.0490   21.0720 O   0  0  0  0  0  0  0  0  0  0  0  0
    7.2990   -1.0250   21.0290 N   0  0  0  0  0  0  0  0  0  0  0  0
    6.5420   -0.3030   20.1370 C   0  0  0  0  0  0  0  0  0  0  0  0
    5.3300    0.5240   20.4400 C   0  0  0  0  0  0  0  0  0  0  0  0
    4.6650    1.2250   19.4360 C   0  0  0  0  0  0  0  0  0  0  0  0
    5.1460    1.1460   18.1350 C   0  0  0  0  0  0  0  0  0  0  0  0
    6.2340    0.4060   17.8080 N   0  0  0  0  0  0  0  0  0  0  0  0
    6.8870   -0.2840   18.7890 C   0  0  0  0  0  0  0  0  0  0  0  0
   11.5670   -3.6970   20.5730 C   0  0  0  0  0  0  0  0  0  0  0  0
   11.3630   -4.2300   19.4090 N   0  0  0  0  0  0  0  0  0  0  0  0
  1  2  1  0
  2  3  1  0
  3  4  2  0
  4  5  1  0
  5  6  2  0
  6  7  1  0
  7  8  1  0
  8  9  2  0
  8 10  1  0
 10 11  2  0
 11 12  1  0
 12 13  2  0
 13 14  1  0
 10 15  1  0
 14 15  2  0
 15 16  1  0
 16 17  1  0
 17 18  2  0
 17 19  1  0
 19 20  1  0
 20 21  2  0
 21 22  1  0
 22 23  2  0
 23 24  1  0
 20 25  1  0
 24 25  2  0
  6 26  1  0
  3 27  1  0
 26 27  2  0
M  END
