pyridine_urea_15042
     RDKit          3D

 19 20  0  0  0  0  0  0  0  0999 V2000
    7.8790   -0.1330   28.6350 C   0  0  0  0  0  0  0  0  0  0  0  0
    6.5670   -0.5580   27.9450 C   0  0  0  0  0  0  0  0  0  0  0  0
    6.8870   -1.1870   26.5920 C   0  0  0  0  0  0  0  0  0  0  0  0
    6.2550   -2.4530   26.0910 C   0  0  0  0  0  0  0  0  0  0  0  0
    6.8390   -2.7110   24.7750 N   0  0  0  0  0  0  0  0  0  0  0  0
    7.7550   -1.7160   24.4600 C   0  0  0  0  0  0  0  0  0  0  0  0
    8.4660   -1.8610   23.1090 C   0  0  2  0  0  0  0  0  0  0  0  0
    9.7450   -2.6510   23.3580 C   0  0  0  0  0  0  0  0  0  0  0  0
    8.8360   -0.6160   22.6650 N   0  0  0  0  0  0  0  0  0  0  0  0
    8.3100    0.0820   21.5550 C   0  0  0  0  0  0  0  0  0  0  0  0
    8.8090    1.1430   21.1460 O   0  0  0  0  0  0  0  0  0  0  0  0
    7.2240   -0.5570   21.0650 N   0  0  0  0  0  0  0  0  0  0  0  0
    6.5850    0.0340   20.0330 C   0  0  0  0  0  0  0  0  0  0  0  0
    5.4780    0.8150   20.3260 C   0  0  0  0  0  0  0  0  0  0  0  0
    4.7690    1.4650   19.3500 C   0  0  0  0  0  0  0  0  0  0  0  0
    5.1690    1.3380   18.0490 C   0  0  0  0  0  0  0  0  0  0  0  0
    6.2440    0.5820   17.6830 N   0  0  0  0  0  0  0  0  0  0  0  0
    7.0210   -0.1300   18.7180 C   0  0  0  0  0  0  0  0  0  0  0  0
    8.0340   -0.4200   25.5810 S   0  0  0  0  0  0  0  0  0  0  0  0
  1  2  1  0
  2  3  1  0
  3  4  2  0
  4  5  1  0
  5  6  2  0
  6  7  1  0
  7  8  1  1
  7  9  1  0
  9 10  1  0
 10 11  2  0
 10 12  1  0
 12 13  1  0
 13 14  2  0
 14 15  1  0
 15 16  2  0
 16 17  1  0
 13 18  1  0
 17 18  2  0
  3 19  1  0
  6 19  1  0
M  END
