pyridine_urea_10285
     RDKit          3D

 22 24  0  0  0  0  0  0  0  0999 V2000
    8.8490   -1.2300   20.6860 O   0  0  0  0  0  0  0  0  0  0  0  0
    8.3030   -0.6290   21.5190 C   0  0  0  0  0  0  0  0  0  0  0  0
    6.9750   -0.2700   21.4340 N   0  0  0  0  0  0  0  0  0  0  0  0
    6.3360    0.2660   20.2900 C   0  0  0  0  0  0  0  0  0  0  0  0
    5.1670    1.0110   20.3330 C   0  0  0  0  0  0  0  0  0  0  0  0
    4.6090    1.5090   19.1580 C   0  0  0  0  0  0  0  0  0  0  0  0
    5.2420    1.2450   17.9620 C   0  0  0  0  0  0  0  0  0  0  0  0
    6.3710    0.5240   17.8730 N   0  0  0  0  0  0  0  0  0  0  0  0
    6.8880    0.0500   19.0260 C   0  0  0  0  0  0  0  0  0  0  0  0
    8.9680   -0.2140   22.6390 N   0  0  0  0  0  0  0  0  0  0  0  0
    9.8610    0.8700   22.6190 C   0  0  0  0  0  0  0  0  0  0  0  0
    9.5270    2.1740   22.4050 C   0  0  0  0  0  0  0  0  0  0  0  0
   10.3820    3.3570   22.3910 C   0  0  0  0  0  0  0  0  0  0  0  0
   11.8150    2.3240   22.7390 S   0  0  0  0  0  0  0  0  0  0  0  0
   11.1380    0.7420   22.8350 C   0  0  0  0  0  0  0  0  0  0  0  0
   11.8530   -0.2870   23.1560 C   0  0  0  0  0  0  0  0  0  0  0  0
   11.2010   -0.9250   24.2490 C   0  0  0  0  0  0  0  0  0  0  0  0
   11.8250   -1.9030   24.8330 C   0  0  0  0  0  0  0  0  0  0  0  0
   12.9820   -2.2950   24.4160 C   0  0  0  0  0  0  0  0  0  0  0  0
   13.6290   -3.4610   25.3880 Cl  0  0  0  0  0  0  0  0  0  0  0  0
   13.5910   -1.7790   23.3280 C   0  0  0  0  0  0  0  0  0  0  0  0
   13.0340   -0.7190   22.6550 C   0  0  0  0  0  0  0  0  0  0  0  0
  1  2  2  0
  2  3  1  0
  3  4  1  0
  4  5  2  0
  5  6  1  0
  6  7  2  0
  7  8  1  0
  4  9  1  0
  8  9  2  0
  2 10  1  0
 10 11  1  0
 11 12  1  0
 12 13  2  0
 13 14  1  0
 11 15  2  0
 14 15  1  0
 15 16  1  0
 16 17  2  0
 17 18  1  0
 18 19  2  0
 19 20  1  0
 19 21  1  0
 16 22  1  0
 21 22  2  0
M  END
