pyridine_urea_9075
     RDKit          3D

 19 20  0  0  0  0  0  0  0  0999 V2000
   13.9590   -2.8960   25.7770 C   0  0  0  0  0  0  0  0  0  0  0  0
   13.7730   -2.6080   24.2850 C   0  0  0  0  0  0  0  0  0  0  0  0
   13.7780   -1.2620   23.8870 O   0  0  0  0  0  0  0  0  0  0  0  0
   12.4940   -1.2500   23.5920 C   0  0  0  0  0  0  0  0  0  0  0  0
   11.5290   -1.4150   24.5680 C   0  0  0  0  0  0  0  0  0  0  0  0
   10.1850   -1.4030   24.2860 C   0  0  0  0  0  0  0  0  0  0  0  0
    9.8310   -1.2370   22.9920 C   0  0  0  0  0  0  0  0  0  0  0  0
    8.4600   -1.1950   22.5160 N   0  0  0  0  0  0  0  0  0  0  0  0
    8.1320   -0.2580   21.5730 C   0  0  0  0  0  0  0  0  0  0  0  0
    8.7670    0.7650   21.3330 O   0  0  0  0  0  0  0  0  0  0  0  0
    6.9960   -0.6190   20.9420 N   0  0  0  0  0  0  0  0  0  0  0  0
    6.3150    0.0630   19.9950 C   0  0  0  0  0  0  0  0  0  0  0  0
    5.1270    0.7460   20.1950 C   0  0  0  0  0  0  0  0  0  0  0  0
    4.5480    1.4180   19.1230 C   0  0  0  0  0  0  0  0  0  0  0  0
    5.1890    1.3800   17.8810 C   0  0  0  0  0  0  0  0  0  0  0  0
    6.3350    0.7180   17.6810 N   0  0  0  0  0  0  0  0  0  0  0  0
    6.8690    0.0760   18.7320 C   0  0  0  0  0  0  0  0  0  0  0  0
   10.8620   -1.0700   21.8980 C   0  0  0  0  0  0  0  0  0  0  0  0
   12.2210   -1.0800   22.2620 C   0  0  0  0  0  0  0  0  0  0  0  0
  1  2  2  3
  2  3  1  0
  3  4  1  0
  4  5  2  0
  5  6  1  0
  6  7  2  0
  7  8  1  0
  8  9  1  0
  9 10  2  0
  9 11  1  0
 11 12  1  0
 12 13  2  0
 13 14  1  0
 14 15  2  0
 15 16  1  0
 12 17  1  0
 16 17  2  0
  7 18  1  0
  4 19  1  0
 18 19  2  0
M  END
