pyridine_urea_2639
     RDKit          3D

 23 25  0  0  0  0  0  0  0  0999 V2000
    8.9050    0.7380   21.3040 O   0  0  0  0  0  0  0  0  0  0  0  0
    8.5310   -0.4030   21.5110 C   0  0  0  0  0  0  0  0  0  0  0  0
    9.2680   -1.3830   22.1660 N   0  0  0  0  0  0  0  0  0  0  0  0
   10.5410   -1.1120   22.7440 C   0  0  0  0  0  0  0  0  0  0  0  0
   10.7520    0.2520   22.8120 C   0  0  0  0  0  0  0  0  0  0  0  0
   11.9450    0.9670   22.6750 C   0  0  0  0  0  0  0  0  0  0  0  0
   11.5350    2.3680   22.7970 N   0  0  0  0  0  0  0  0  0  0  0  0
   12.4260    3.4560   22.6810 C   0  0  0  0  0  0  0  0  0  0  0  0
   11.7800    4.5970   23.1530 C   0  0  0  0  0  0  0  0  0  0  0  0
   12.4760    5.4850   23.9480 C   0  0  0  0  0  0  0  0  0  0  0  0
   11.8640    6.7550   24.4980 C   0  0  0  0  0  0  0  0  0  0  0  0
   10.5490    7.0060   24.1700 C   0  0  0  0  0  0  0  0  0  0  0  0
    9.8570    6.1030   23.3690 C   0  0  0  0  0  0  0  0  0  0  0  0
   10.4250    4.9180   22.8560 C   0  0  0  0  0  0  0  0  0  0  0  0
   10.2120    2.4480   23.0170 N   0  0  0  0  0  0  0  0  0  0  0  0
    9.7270    1.1610   23.0310 N   0  0  0  0  0  0  0  0  0  0  0  0
    7.2790   -0.8210   21.0760 N   0  0  0  0  0  0  0  0  0  0  0  0
    6.5490   -0.1390   20.0690 C   0  0  0  0  0  0  0  0  0  0  0  0
    5.3740    0.5550   20.3960 C   0  0  0  0  0  0  0  0  0  0  0  0
    4.6810    1.2370   19.3940 C   0  0  0  0  0  0  0  0  0  0  0  0
    5.1740    1.2090   18.0970 C   0  0  0  0  0  0  0  0  0  0  0  0
    6.2890    0.5480   17.7570 N   0  0  0  0  0  0  0  0  0  0  0  0
    6.9510   -0.1100   18.7430 C   0  0  0  0  0  0  0  0  0  0  0  0
  1  2  2  0
  2  3  1  0
  3  4  1  0
  4  5  1  0
  5  6  2  0
  6  7  1  0
  7  8  1  0
  8  9  1  0
  9 10  2  0
 10 11  1  0
 11 12  2  0
 12 13  1  0
  9 14  1  0
 13 14  2  0
  7 15  1  0
  5 16  1  0
 15 16  2  0
  2 17  1  0
 17 18  1  0
 18 19  2  0
 19 20  1  0
 20 21  2  0
 21 22  1  0
 18 23  1  0
 22 23  2  0
M  END
