pyridine_urea_4212
     RDKit          3D

 25 28  0  0  0  0  0  0  0  0999 V2000
    8.7680    0.5330   21.0900 O   0  0  0  0  0  0  0  0  0  0  0  0
    8.3560   -0.5410   21.5060 C   0  0  0  0  0  0  0  0  0  0  0  0
    9.1230   -1.3070   22.3900 N   0  0  0  0  0  0  0  0  0  0  0  0
   10.2730   -0.4780   22.6040 C   0  0  0  0  0  0  0  0  0  0  0  0
    9.8710    0.9570   22.8020 C   0  0  0  0  0  0  0  0  0  0  0  0
   10.7750    2.1090   22.9860 C   0  0  0  0  0  0  0  0  0  0  0  0
   12.2530    1.9810   23.0040 C   0  0  0  0  0  0  0  0  0  0  0  0
   12.8570    3.2450   23.1540 N   0  0  0  0  0  0  0  0  0  0  0  0
   13.5880    3.8860   22.1570 C   0  0  0  0  0  0  0  0  0  0  0  0
   13.8030    5.3790   22.3620 C   0  0  0  0  0  0  0  0  0  0  0  0
   12.8340    5.5620   23.3040 C   0  0  0  0  0  0  0  0  0  0  0  0
   12.4350    6.8070   23.7690 C   0  0  0  0  0  0  0  0  0  0  0  0
   11.4360    6.9100   24.7240 C   0  0  0  0  0  0  0  0  0  0  0  0
   10.7990    5.7810   25.2480 C   0  0  0  0  0  0  0  0  0  0  0  0
   11.1700    4.5060   24.8090 C   0  0  0  0  0  0  0  0  0  0  0  0
   12.2540    4.3940   23.7830 C   0  0  0  0  0  0  0  0  0  0  0  0
   12.8350    0.5340   22.8570 C   0  0  0  0  0  0  0  0  0  0  0  0
   11.8330   -0.5860   22.6710 C   0  0  0  0  0  0  0  0  0  0  0  0
    7.1200   -0.9690   21.0810 N   0  0  0  0  0  0  0  0  0  0  0  0
    6.3960   -0.2590   20.1630 C   0  0  0  0  0  0  0  0  0  0  0  0
    5.1720    0.3470   20.3670 C   0  0  0  0  0  0  0  0  0  0  0  0
    4.5740    1.0600   19.3100 C   0  0  0  0  0  0  0  0  0  0  0  0
    5.2190    1.1460   18.0750 C   0  0  0  0  0  0  0  0  0  0  0  0
    6.4150    0.5720   17.8130 N   0  0  0  0  0  0  0  0  0  0  0  0
    7.0050   -0.1150   18.8080 C   0  0  0  0  0  0  0  0  0  0  0  0
  1  2  2  0
  2  3  1  0
  3  4  1  0
  4  5  2  0
  5  6  1  0
  6  7  2  0
  7  8  1  0
  8  9  1  0
  9 10  1  0
 10 11  1  0
 11 12  1  0
 12 13  2  0
 13 14  1  0
 14 15  2  0
  8 16  1  0
 11 16  2  0
 15 16  1  0
  7 17  1  0
  4 18  1  0
 17 18  2  0
  2 19  1  0
 19 20  1  0
 20 21  2  0
 21 22  1  0
 22 23  2  0
 23 24  1  0
 20 25  1  0
 24 25  2  0
M  END
