pyridine_urea_6824
     RDKit          3D

 21 23  0  0  0  0  0  0  0  0999 V2000
    9.0530    0.6650   21.3600 O   0  0  0  0  0  0  0  0  0  0  0  0
    8.5130   -0.4200   21.5270 C   0  0  0  0  0  0  0  0  0  0  0  0
    7.3320   -0.8430   20.9430 N   0  0  0  0  0  0  0  0  0  0  0  0
    6.5280   -0.0970   20.0570 C   0  0  0  0  0  0  0  0  0  0  0  0
    5.2250    0.6270   20.4420 C   0  0  0  0  0  0  0  0  0  0  0  0
    4.5540    1.3730   19.2840 C   0  0  0  0  0  0  0  0  0  0  0  0
    5.2250    1.3180   17.9490 C   0  0  0  0  0  0  0  0  0  0  0  0
    6.3650    0.6470   17.7310 N   0  0  0  0  0  0  0  0  0  0  0  0
    6.9590   -0.0170   18.7460 C   0  0  0  0  0  0  0  0  0  0  0  0
    9.0370   -1.3890   22.3700 N   0  0  0  0  0  0  0  0  0  0  0  0
   10.2670   -1.1930   23.1150 C   0  0  1  0  0  0  0  0  0  0  0  0
   11.2370   -0.7080   22.2630 C   0  0  0  0  0  0  0  0  0  0  0  0
   12.5150   -0.8110   22.7660 C   0  0  0  0  0  0  0  0  0  0  0  0
   12.3210   -1.0960   23.9260 O   0  0  0  0  0  0  0  0  0  0  0  0
   11.4330   -0.1610   24.5400 C   0  0  0  0  0  0  0  0  0  0  0  0
   10.0580   -0.3660   24.2180 C   0  0  1  0  0  0  0  0  0  0  0  0
    9.2910    0.6770   23.7950 N   0  0  0  0  0  0  0  0  0  0  0  0
    7.9290    0.4640   23.6780 C   0  0  0  0  0  0  0  0  0  0  0  0
    7.1390    1.6010   24.3700 C   0  0  0  0  0  0  0  0  0  0  0  0
    8.0840    2.3560   25.0230 C   0  0  0  0  0  0  0  0  0  0  0  0
    9.2950    1.7720   24.7190 C   0  0  0  0  0  0  0  0  0  0  0  0
  1  2  2  0
  2  3  1  0
  3  4  1  0
  4  5  2  0
  5  6  1  0
  6  7  2  0
  7  8  1  0
  4  9  1  0
  8  9  2  0
  2 10  1  0
 11 10  1  6
 11 12  1  0
 12 13  1  0
 13 14  1  0
 14 15  1  0
 11 16  1  0
 15 16  1  0
 16 17  1  6
 17 18  1  0
 18 19  1  0
 19 20  1  0
 17 21  1  0
 20 21  1  0
M  END
