pyridine_urea_8122
     RDKit          3D

 24 26  0  0  0  0  0  0  0  0999 V2000
   13.3500    2.7650   22.2710 C   0  0  0  0  0  0  0  0  0  0  0  0
   13.0710    2.0630   23.4730 O   0  0  0  0  0  0  0  0  0  0  0  0
   12.0210    1.2030   23.2880 C   0  0  0  0  0  0  0  0  0  0  0  0
   10.6770    1.9040   23.3810 C   0  0  0  0  0  0  0  0  0  0  0  0
    9.5860    1.1570   23.1720 C   0  0  0  0  0  0  0  0  0  0  0  0
    9.7880   -0.3080   22.8600 C   0  0  0  0  0  0  0  0  0  0  0  0
    8.6640   -1.0040   22.5940 N   0  0  0  0  0  0  0  0  0  0  0  0
    8.0100   -0.3650   21.5530 C   0  0  0  0  0  0  0  0  0  0  0  0
    8.4500    0.6780   21.0830 O   0  0  0  0  0  0  0  0  0  0  0  0
    6.8460   -0.9290   21.0650 N   0  0  0  0  0  0  0  0  0  0  0  0
    6.2840   -0.1740   19.9490 C   0  0  0  0  0  0  0  0  0  0  0  0
    4.9870    0.5650   20.2910 C   0  0  0  0  0  0  0  0  0  0  0  0
    4.3920    1.3910   19.1500 C   0  0  0  0  0  0  0  0  0  0  0  0
    5.1540    1.3740   17.8390 C   0  0  0  0  0  0  0  0  0  0  0  0
    6.3040    0.6580   17.6750 N   0  0  0  0  0  0  0  0  0  0  0  0
    6.8560   -0.0960   18.6960 C   0  0  0  0  0  0  0  0  0  0  0  0
   11.0150   -0.9220   22.8070 C   0  0  0  0  0  0  0  0  0  0  0  0
   12.1540   -0.1540   23.0330 C   0  0  0  0  0  0  0  0  0  0  0  0
   13.3050   -0.7240   23.0070 N   0  0  0  0  0  0  0  0  0  0  0  0
   13.2700   -1.5820   24.0670 C   0  0  0  0  0  0  0  0  0  0  0  0
   12.7990   -2.7460   23.5600 C   0  0  0  0  0  0  0  0  0  0  0  0
   12.9280   -2.6830   22.2010 C   0  0  0  0  0  0  0  0  0  0  0  0
   13.3800   -1.4420   21.8680 C   0  0  0  0  0  0  0  0  0  0  0  0
   13.7560   -1.1650   20.7460 O   0  0  0  0  0  0  0  0  0  0  0  0
  1  2  1  0
  2  3  1  0
  3  4  2  0
  4  5  1  0
  5  6  2  0
  6  7  1  0
  7  8  1  0
  8  9  2  0
  8 10  1  0
 10 11  1  0
 11 12  2  0
 12 13  1  0
 13 14  2  0
 14 15  1  0
 11 16  1  0
 15 16  2  0
  6 17  1  0
  3 18  1  0
 17 18  2  0
 18 19  1  0
 19 20  1  0
 20 21  1  0
 21 22  1  0
 19 23  1  0
 22 23  1  0
 23 24  2  0
M  END
