pyridine_urea_12019
     RDKit          3D

 24 26  0  0  0  0  0  0  0  0999 V2000
    8.6310    1.4960   21.1470 O   0  0  0  0  0  0  0  0  0  0  0  0
    8.3240    0.3100   21.2180 C   0  0  0  0  0  0  0  0  0  0  0  0
    9.1820   -0.6830   21.4350 N   0  0  0  0  0  0  0  0  0  0  0  0
   10.3260   -0.5660   22.1670 C   0  0  0  0  0  0  0  0  0  0  0  0
   11.3140   -1.5060   21.9510 C   0  0  0  0  0  0  0  0  0  0  0  0
   12.4600   -1.4690   22.6820 C   0  0  0  0  0  0  0  0  0  0  0  0
   12.6050   -0.4930   23.6300 C   0  0  0  0  0  0  0  0  0  0  0  0
   13.5190   -0.5090   24.3100 O   0  0  0  0  0  0  0  0  0  0  0  0
   13.1300   -1.6750   24.9110 C   0  0  0  0  0  0  0  0  0  0  0  0
   13.9640   -2.5630   25.5520 C   0  0  0  0  0  0  0  0  0  0  0  0
   13.2570   -3.7780   26.0890 C   0  0  0  0  0  0  0  0  0  0  0  0
   11.8770   -3.9800   25.9480 C   0  0  0  0  0  0  0  0  0  0  0  0
   11.1190   -3.0490   25.3110 C   0  0  0  0  0  0  0  0  0  0  0  0
   11.7300   -1.9270   24.8100 C   0  0  0  0  0  0  0  0  0  0  0  0
   10.9240   -1.0600   24.2080 F   0  0  0  0  0  0  0  0  0  0  0  0
   11.5650    0.5570   23.8440 C   0  0  0  0  0  0  0  0  0  0  0  0
   10.4290    0.4760   23.0840 C   0  0  0  0  0  0  0  0  0  0  0  0
    7.0830   -0.2050   21.0470 N   0  0  0  0  0  0  0  0  0  0  0  0
    6.3900    0.3050   19.9770 C   0  0  0  0  0  0  0  0  0  0  0  0
    5.2090    0.9940   20.2000 C   0  0  0  0  0  0  0  0  0  0  0  0
    4.5460    1.5350   19.1120 C   0  0  0  0  0  0  0  0  0  0  0  0
    5.0930    1.3610   17.8570 C   0  0  0  0  0  0  0  0  0  0  0  0
    6.2230    0.6850   17.6250 N   0  0  0  0  0  0  0  0  0  0  0  0
    6.8420    0.1740   18.6910 C   0  0  0  0  0  0  0  0  0  0  0  0
  1  2  2  0
  2  3  1  0
  3  4  1  0
  4  5  2  0
  5  6  1  0
  6  7  2  0
  7  8  1  0
  8  9  1  0
  9 10  2  0
 10 11  1  0
 11 12  2  0
 12 13  1  0
  9 14  1  0
 13 14  2  0
 14 15  1  0
  7 16  1  0
  4 17  1  0
 16 17  2  0
  2 18  1  0
 18 19  1  0
 19 20  2  0
 20 21  1  0
 21 22  2  0
 22 23  1  0
 19 24  1  0
 23 24  2  0
M  END
