pyridine_urea_1342
     RDKit          3D

 20 22  0  0  0  0  0  0  0  0999 V2000
    8.8010    1.5360   21.1570 O   0  0  0  0  0  0  0  0  0  0  0  0
    8.8110    0.3360   21.4240 C   0  0  0  0  0  0  0  0  0  0  0  0
    7.6900   -0.4360   21.1610 N   0  0  0  0  0  0  0  0  0  0  0  0
    6.8670    0.0450   20.0600 C   0  0  0  0  0  0  0  0  0  0  0  0
    5.6550    0.9180   20.4420 C   0  0  0  0  0  0  0  0  0  0  0  0
    4.8210    1.4470   19.4560 C   0  0  0  0  0  0  0  0  0  0  0  0
    5.1250    1.1610   18.1310 C   0  0  0  0  0  0  0  0  0  0  0  0
    6.2050    0.3740   17.8260 N   0  0  0  0  0  0  0  0  0  0  0  0
    7.0830   -0.1940   18.7580 C   0  0  0  0  0  0  0  0  0  0  0  0
    9.9060   -0.3340   21.9500 N   0  0  0  0  0  0  0  0  0  0  0  0
   11.0090   -0.9600   22.4860 C   0  0  0  0  0  0  0  0  0  0  0  0
   11.2600   -0.7440   23.8290 C   0  0  0  0  0  0  0  0  0  0  0  0
   12.3620   -1.4400   24.3030 C   0  0  0  0  0  0  0  0  0  0  0  0
   12.9720   -1.5280   25.5310 N   0  0  0  0  0  0  0  0  0  0  0  0
   14.0440   -2.3920   25.6430 C   0  0  0  0  0  0  0  0  0  0  0  0
   14.1590   -2.8770   24.3900 N   0  0  0  0  0  0  0  0  0  0  0  0
   13.2290   -2.3280   23.6060 C   0  0  0  0  0  0  0  0  0  0  0  0
   12.9270   -2.4420   22.2740 C   0  0  0  0  0  0  0  0  0  0  0  0
   11.9100   -1.8150   21.7680 C   0  0  0  0  0  0  0  0  0  0  0  0
   11.9050   -2.1330   20.5690 F   0  0  0  0  0  0  0  0  0  0  0  0
  1  2  2  0
  2  3  1  0
  3  4  1  0
  4  5  2  0
  5  6  1  0
  6  7  2  0
  7  8  1  0
  4  9  1  0
  8  9  2  0
  2 10  1  0
 10 11  1  0
 11 12  2  0
 12 13  1  0
 13 14  1  0
 14 15  1  0
 15 16  2  0
 13 17  2  0
 16 17  1  0
 17 18  1  0
 11 19  1  0
 18 19  2  0
 19 20  1  0
M  END
