pyridine_urea_2818
     RDKit          3D

 22 23  0  0  0  0  0  0  0  0999 V2000
    8.8070    1.3080   21.1300 O   0  0  0  0  0  0  0  0  0  0  0  0
    8.2950    0.2520   21.5160 C   0  0  0  0  0  0  0  0  0  0  0  0
    8.7740   -0.4370   22.5860 N   0  0  0  0  0  0  0  0  0  0  0  0
   10.2050   -0.4370   22.7020 C   0  0  0  0  0  0  0  0  0  0  0  0
   10.8070    0.7290   23.5420 C   0  0  0  0  0  0  0  0  0  0  0  0
   12.1960    0.8310   23.5900 C   0  0  0  0  0  0  0  0  0  0  0  0
   12.9170   -0.4770   23.2360 C   0  0  0  0  0  0  0  0  0  0  0  0
   11.9360   -1.1650   22.5540 C   0  0  0  0  0  0  0  0  0  0  0  0
   10.7760   -2.0100   22.0250 C   0  0  0  0  0  0  0  0  0  0  0  0
    9.6800   -2.9290   22.5650 C   0  0  0  0  0  0  0  0  0  0  0  0
    9.6830   -3.1340   24.0430 C   0  0  0  0  0  0  0  0  0  0  0  0
    8.5340   -4.1360   24.8510 Cl  0  0  0  0  0  0  0  0  0  0  0  0
   10.7570   -2.4120   24.7840 C   0  0  0  0  0  0  0  0  0  0  0  0
   11.7690   -1.5170   24.0510 C   0  0  0  0  0  0  0  0  0  0  0  0
   12.8600   -0.8320   25.1370 Cl  0  0  0  0  0  0  0  0  0  0  0  0
    7.2070   -0.3840   20.9810 N   0  0  0  0  0  0  0  0  0  0  0  0
    6.4380    0.2100   20.0210 C   0  0  0  0  0  0  0  0  0  0  0  0
    5.2590    0.9090   20.2610 C   0  0  0  0  0  0  0  0  0  0  0  0
    4.6290    1.4690   19.1650 C   0  0  0  0  0  0  0  0  0  0  0  0
    5.1530    1.3320   17.9050 C   0  0  0  0  0  0  0  0  0  0  0  0
    6.2730    0.6570   17.6440 N   0  0  0  0  0  0  0  0  0  0  0  0
    6.8850    0.1140   18.7100 C   0  0  0  0  0  0  0  0  0  0  0  0
  1  2  2  0
  2  3  1  0
  3  4  1  0
  4  5  1  0
  5  6  1  0
  6  7  1  0
  7  8  1  0
  8  9  2  0
  9 10  1  0
 10 11  2  0
 11 12  1  0
 11 13  1  0
  8 14  1  0
 13 14  2  0
 14 15  1  0
  2 16  1  0
 16 17  1  0
 17 18  2  0
 18 19  1  0
 19 20  2  0
 20 21  1  0
 17 22  1  0
 21 22  2  0
M  END
