pyridine_urea_11111
     RDKit          3D

 18 20  0  0  0  0  0  0  0  0999 V2000
    8.8150    1.1330   21.1550 O   0  0  0  0  0  0  0  0  0  0  0  0
    8.2840    0.0460   21.4410 C   0  0  0  0  0  0  0  0  0  0  0  0
    8.9530   -0.9470   22.0830 N   0  0  0  0  0  0  0  0  0  0  0  0
   10.3470   -0.6870   22.2760 C   0  0  0  0  0  0  0  0  0  0  0  0
   11.2860   -1.8100   21.8510 C   0  0  0  0  0  0  0  0  0  0  0  0
   12.3590   -1.7470   22.8100 C   0  0  2  0  0  0  0  0  0  0  0  0
   11.2310   -1.8340   23.6760 C   0  0  0  0  0  0  0  0  0  0  0  0
   10.5760   -0.5720   24.2890 C   0  0  0  0  0  0  0  0  0  0  0  0
   11.8140    0.0730   24.4490 C   0  0  1  0  0  0  0  0  0  0  0  0
   12.6710   -0.7290   25.0710 C   0  0  0  0  0  0  0  0  0  0  0  0
   12.9740   -0.6010   23.6680 C   0  0  1  0  0  0  0  0  0  0  0  0
    7.0050   -0.3310   21.1680 N   0  0  0  0  0  0  0  0  0  0  0  0
    6.3420    0.2440   20.0180 C   0  0  0  0  0  0  0  0  0  0  0  0
    5.1730    0.9380   20.3000 C   0  0  0  0  0  0  0  0  0  0  0  0
    4.5300    1.5260   19.2330 C   0  0  0  0  0  0  0  0  0  0  0  0
    5.1260    1.3790   17.8610 C   0  0  0  0  0  0  0  0  0  0  0  0
    6.2510    0.6900   17.6140 N   0  0  0  0  0  0  0  0  0  0  0  0
    6.8570    0.1290   18.6650 C   0  0  0  0  0  0  0  0  0  0  0  0
  1  2  2  0
  2  3  1  0
  3  4  1  0
  4  5  1  0
  6  5  1  6
  6  7  1  0
  7  8  1  0
  9  8  1  6
  9 10  1  0
  6 11  1  0
  9 11  1  0
 11 10  1  1
  2 12  1  0
 12 13  1  0
 13 14  2  0
 14 15  1  0
 15 16  2  0
 16 17  1  0
 13 18  1  0
 17 18  2  0
M  END
