pyridine_urea_7978
     RDKit          3D

 25 27  0  0  0  0  0  0  0  0999 V2000
   13.8710    0.4990   22.7120 N   0  0  0  0  0  0  0  0  0  0  0  0
   13.2360   -0.5530   22.2160 C   0  0  0  0  0  0  0  0  0  0  0  0
   13.6610   -1.3520   21.3920 O   0  0  0  0  0  0  0  0  0  0  0  0
   11.9330   -0.5030   22.8400 C   0  0  0  0  0  0  0  0  0  0  0  0
   11.7400    0.0130   24.0940 C   0  0  0  0  0  0  0  0  0  0  0  0
   10.4900    0.0980   24.6990 C   0  0  0  0  0  0  0  0  0  0  0  0
    9.3770   -0.3460   24.0160 C   0  0  0  0  0  0  0  0  0  0  0  0
    8.1080   -0.2810   24.5070 N   0  0  0  0  0  0  0  0  0  0  0  0
    7.7810   -1.0200   25.5860 C   0  0  0  0  0  0  0  0  0  0  0  0
    6.5090   -0.8170   26.1170 C   0  0  0  0  0  0  0  0  0  0  0  0
    6.1850    0.6620   26.2670 C   0  0  0  0  0  0  0  0  0  0  0  0
    7.1270    1.4910   25.6410 C   0  0  0  0  0  0  0  0  0  0  0  0
    7.4780    0.9880   24.3750 C   0  0  0  0  0  0  0  0  0  0  0  0
    9.5270   -0.8920   22.7460 C   0  0  0  0  0  0  0  0  0  0  0  0
    8.4620   -1.3240   22.1030 N   0  0  0  0  0  0  0  0  0  0  0  0
    7.9080   -0.4370   21.2650 C   0  0  0  0  0  0  0  0  0  0  0  0
    8.3610    0.6600   20.9570 O   0  0  0  0  0  0  0  0  0  0  0  0
    6.7350   -0.9530   20.8110 N   0  0  0  0  0  0  0  0  0  0  0  0
    6.1440   -0.1180   19.9130 C   0  0  0  0  0  0  0  0  0  0  0  0
    4.9410    0.6070   20.0540 C   0  0  0  0  0  0  0  0  0  0  0  0
    4.4920    1.4020   19.0260 C   0  0  0  0  0  0  0  0  0  0  0  0
    5.4050    1.2830   18.0440 C   0  0  0  0  0  0  0  0  0  0  0  0
    6.3720    0.8320   17.6690 N   0  0  0  0  0  0  0  0  0  0  0  0
    6.8250    0.0340   18.6820 C   0  0  0  0  0  0  0  0  0  0  0  0
   10.7390   -0.9950   22.1330 C   0  0  0  0  0  0  0  0  0  0  0  0
  1  2  1  0
  2  3  2  0
  2  4  1  0
  4  5  2  0
  5  6  1  0
  6  7  2  0
  7  8  1  0
  8  9  1  0
  9 10  1  0
 10 11  1  0
 11 12  1  0
  8 13  1  0
 12 13  1  0
  7 14  1  0
 14 15  1  0
 15 16  1  0
 16 17  2  0
 16 18  1  0
 18 19  1  0
 19 20  2  0
 20 21  1  0
 21 22  2  0
 22 23  1  0
 19 24  1  0
 23 24  2  0
  4 25  1  0
 14 25  2  0
M  END
