pyridine_urea_12054
     RDKit          3D

 23 24  0  0  0  0  0  0  0  0999 V2000
    7.8290    1.1920   30.0100 C   0  0  0  0  0  0  0  0  0  0  0  0
    7.9040    0.3250   28.7600 C   0  0  0  0  0  0  0  0  0  0  0  0
    7.8180    0.8360   27.4750 C   0  0  0  0  0  0  0  0  0  0  0  0
    7.8860    0.1110   26.2830 C   0  0  0  0  0  0  0  0  0  0  0  0
    8.0580   -1.2750   26.3630 C   0  0  0  0  0  0  0  0  0  0  0  0
    8.1700   -2.2720   24.8880 S   0  0  0  0  0  0  0  0  0  0  0  0
    8.8760   -3.4890   25.2320 O   0  0  0  0  0  0  0  0  0  0  0  0
    6.8990   -2.2990   24.2000 O   0  0  0  0  0  0  0  0  0  0  0  0
    9.3090   -1.1900   23.9400 C   0  0  0  0  0  0  0  0  0  0  0  0
    9.8450   -1.8810   22.8390 C   0  0  2  0  0  0  0  0  0  0  0  0
   11.1150   -1.3450   22.1740 C   0  0  0  0  0  0  0  0  0  0  0  0
    8.7940   -1.7000   21.8490 N   0  0  0  0  0  0  0  0  0  0  0  0
    8.3230   -0.4780   21.4610 C   0  0  0  0  0  0  0  0  0  0  0  0
    9.1210    0.7260   21.4270 O   0  0  0  0  0  0  0  0  0  0  0  0
    7.0020   -0.5940   21.1140 N   0  0  0  0  0  0  0  0  0  0  0  0
    6.3470    0.0870   20.0830 C   0  0  0  0  0  0  0  0  0  0  0  0
    5.1730    0.8280   20.2410 C   0  0  0  0  0  0  0  0  0  0  0  0
    4.6340    1.4650   19.1310 C   0  0  0  0  0  0  0  0  0  0  0  0
    5.2540    1.3600   17.9040 C   0  0  0  0  0  0  0  0  0  0  0  0
    6.3740    0.6620   17.6900 N   0  0  0  0  0  0  0  0  0  0  0  0
    6.9070    0.0220   18.8160 C   0  0  0  0  0  0  0  0  0  0  0  0
    8.1500   -1.8990   27.6390 C   0  0  0  0  0  0  0  0  0  0  0  0
    8.0860   -1.1930   28.8290 C   0  0  0  0  0  0  0  0  0  0  0  0
  1  2  1  0
  2  3  2  0
  3  4  1  0
  4  5  2  0
  5  6  1  0
  6  7  2  0
  6  8  2  0
  6  9  1  0
  9 10  1  0
 10 11  1  6
 10 12  1  0
 12 13  1  0
 13 14  2  0
 13 15  1  0
 15 16  1  0
 16 17  2  0
 17 18  1  0
 18 19  2  0
 19 20  1  0
 16 21  1  0
 20 21  2  0
  5 22  1  0
  2 23  1  0
 22 23  2  0
M  END
