pyridine_urea_8354
     RDKit          3D

 22 24  0  0  0  0  0  0  0  0999 V2000
    8.2120    0.6040   21.1160 O   0  0  0  0  0  0  0  0  0  0  0  0
    7.5760   -0.3990   21.4420 C   0  0  0  0  0  0  0  0  0  0  0  0
    6.4470   -0.8250   20.8440 N   0  0  0  0  0  0  0  0  0  0  0  0
    5.9870   -0.0010   19.7970 C   0  0  0  0  0  0  0  0  0  0  0  0
    4.7050    0.8330   20.0270 C   0  0  0  0  0  0  0  0  0  0  0  0
    4.3010    1.6250   18.9790 C   0  0  0  0  0  0  0  0  0  0  0  0
    5.1660    1.5860   17.7130 C   0  0  0  0  0  0  0  0  0  0  0  0
    6.2790    0.8280   17.5750 N   0  0  0  0  0  0  0  0  0  0  0  0
    6.6590    0.0640   18.6080 C   0  0  0  0  0  0  0  0  0  0  0  0
    7.8470   -1.2660   22.4160 N   0  0  0  0  0  0  0  0  0  0  0  0
    9.2200   -1.3770   22.6080 C   0  0  0  0  0  0  0  0  0  0  0  0
    9.9700   -1.2780   21.4340 C   0  0  0  0  0  0  0  0  0  0  0  0
   11.2660   -1.3630   21.3670 N   0  0  0  0  0  0  0  0  0  0  0  0
   11.8990   -1.5070   22.5250 C   0  0  0  0  0  0  0  0  0  0  0  0
   13.3660   -1.5840   22.6780 C   0  0  0  0  0  0  0  0  0  0  0  0
   13.5940   -1.4580   21.3670 F   0  0  0  0  0  0  0  0  0  0  0  0
   12.2740   -1.6380   23.6570 C   0  0  0  0  0  0  0  0  0  0  0  0
   13.3410   -1.7740   24.6100 C   0  0  0  0  0  0  0  0  0  0  0  0
   12.0060   -1.7580   24.9120 C   0  0  0  0  0  0  0  0  0  0  0  0
   11.2130   -1.6070   23.7870 C   0  0  0  0  0  0  0  0  0  0  0  0
    9.8030   -1.5530   23.7130 C   0  0  0  0  0  0  0  0  0  0  0  0
    8.4910   -1.6820   24.7820 Cl  0  0  0  0  0  0  0  0  0  0  0  0
  1  2  2  0
  2  3  1  0
  3  4  1  0
  4  5  2  0
  5  6  1  0
  6  7  2  0
  7  8  1  0
  4  9  1  0
  8  9  2  0
  2 10  1  0
 10 11  1  0
 11 12  2  0
 12 13  1  0
 13 14  2  0
 14 15  1  0
 15 16  1  0
 15 17  2  0
 17 18  1  0
 18 19  2  0
 14 20  1  0
 19 20  1  0
 11 21  1  0
 20 21  2  0
 21 22  1  0
M  END
