pyridine_urea_12636
     RDKit          3D

 21 22  0  0  0  0  0  0  0  0999 V2000
    8.9130    0.7940   21.4950 O   0  0  0  0  0  0  0  0  0  0  0  0
    8.4190   -0.3140   21.3420 C   0  0  0  0  0  0  0  0  0  0  0  0
    9.1550   -1.4650   21.3910 N   0  0  0  0  0  0  0  0  0  0  0  0
   10.0600   -1.7340   22.4790 C   0  0  0  0  0  0  0  0  0  0  0  0
   11.0420   -0.5880   22.6320 C   0  0  2  0  0  0  0  0  0  0  0  0
   12.3990   -0.8780   22.5400 C   0  0  0  0  0  0  0  0  0  0  0  0
   13.0510   -0.0280   23.3800 C   0  0  0  0  0  0  0  0  0  0  0  0
   12.0530    0.4400   24.2190 C   0  0  0  0  0  0  0  0  0  0  0  0
   10.8100    0.1450   23.7460 N   0  0  0  0  0  0  0  0  0  0  0  0
    9.5260    0.2910   24.3350 C   0  0  0  0  0  0  0  0  0  0  0  0
    9.0880   -0.4900   25.4210 C   0  0  0  0  0  0  0  0  0  0  0  0
    9.9340   -0.4430   26.4800 F   0  0  0  0  0  0  0  0  0  0  0  0
    7.8750   -0.1110   25.9210 F   0  0  0  0  0  0  0  0  0  0  0  0
    8.9570   -1.8190   25.1350 F   0  0  0  0  0  0  0  0  0  0  0  0
    7.1000   -0.5720   21.0560 N   0  0  0  0  0  0  0  0  0  0  0  0
    6.4440    0.0540   20.0570 C   0  0  0  0  0  0  0  0  0  0  0  0
    5.2650    0.7590   20.3620 C   0  0  0  0  0  0  0  0  0  0  0  0
    4.6120    1.4130   19.3090 C   0  0  0  0  0  0  0  0  0  0  0  0
    5.2000    1.3230   17.9540 C   0  0  0  0  0  0  0  0  0  0  0  0
    6.3130    0.6440   17.6880 N   0  0  0  0  0  0  0  0  0  0  0  0
    6.9020    0.0290   18.7430 C   0  0  0  0  0  0  0  0  0  0  0  0
  1  2  2  0
  2  3  1  0
  3  4  1  0
  5  4  1  1
  5  6  1  0
  6  7  1  0
  7  8  1  0
  5  9  1  0
  8  9  1  0
  9 10  1  0
 10 11  1  0
 11 12  1  0
 11 13  1  0
 11 14  1  0
  2 15  1  0
 15 16  1  0
 16 17  2  0
 17 18  1  0
 18 19  2  0
 19 20  1  0
 16 21  1  0
 20 21  2  0
M  END
