pyridine_urea_10777
     RDKit          3D

 20 21  0  0  0  0  0  0  0  0999 V2000
   13.0670   -2.9550   20.9010 C   0  0  0  0  0  0  0  0  0  0  0  0
   12.4880   -2.8900   22.1870 O   0  0  0  0  0  0  0  0  0  0  0  0
   11.3040   -2.2450   22.1490 C   0  0  0  0  0  0  0  0  0  0  0  0
   11.3550   -0.9450   22.5330 C   0  0  0  0  0  0  0  0  0  0  0  0
   12.5850   -0.3040   22.6400 C   0  0  0  0  0  0  0  0  0  0  0  0
   12.6300    1.0260   23.0360 C   0  0  0  0  0  0  0  0  0  0  0  0
   13.6050    1.6760   23.1270 O   0  0  0  0  0  0  0  0  0  0  0  0
   11.4350    1.8320   23.3940 C   0  0  0  0  0  0  0  0  0  0  0  0
   10.1010    1.1680   23.2850 C   0  0  0  0  0  0  0  0  0  0  0  0
   10.1830   -0.2590   22.8140 C   0  0  0  0  0  0  0  0  0  0  0  0
    8.9380   -0.9600   22.6130 N   0  0  0  0  0  0  0  0  0  0  0  0
    8.2600   -0.2360   21.6430 C   0  0  0  0  0  0  0  0  0  0  0  0
    8.6510    0.8650   21.2720 O   0  0  0  0  0  0  0  0  0  0  0  0
    7.1240   -0.7990   21.1150 N   0  0  0  0  0  0  0  0  0  0  0  0
    6.4520   -0.1340   20.0700 C   0  0  0  0  0  0  0  0  0  0  0  0
    5.2710    0.5670   20.3410 C   0  0  0  0  0  0  0  0  0  0  0  0
    4.6220    1.2410   19.3130 C   0  0  0  0  0  0  0  0  0  0  0  0
    5.1690    1.1990   18.0490 C   0  0  0  0  0  0  0  0  0  0  0  0
    6.2930    0.5330   17.7620 N   0  0  0  0  0  0  0  0  0  0  0  0
    6.9080   -0.1180   18.7680 C   0  0  0  0  0  0  0  0  0  0  0  0
  1  2  1  0
  2  3  1  0
  3  4  1  0
  4  5  2  0
  5  6  1  0
  6  7  1  0
  6  8  2  0
  8  9  1  0
  4 10  1  0
  9 10  2  0
 10 11  1  0
 11 12  1  0
 12 13  2  0
 12 14  1  0
 14 15  1  0
 15 16  2  0
 16 17  1  0
 17 18  2  0
 18 19  1  0
 15 20  1  0
 19 20  2  0
M  END
