pyridine_urea_2869
     RDKit          3D

 22 23  0  0  0  0  0  0  0  0999 V2000
   13.9400   -2.2670   25.6330 C   0  0  0  0  0  0  0  0  0  0  0  0
   13.3380   -3.1960   24.6820 C   0  0  0  0  0  0  0  0  0  0  0  0
   12.2060   -2.6480   24.0480 N   0  0  0  0  0  0  0  0  0  0  0  0
   11.8910   -1.5570   24.9280 C   0  0  0  0  0  0  0  0  0  0  0  0
   11.3940   -0.4650   24.3650 C   0  0  0  0  0  0  0  0  0  0  0  0
   12.4320    0.1300   23.6110 N   0  0  0  0  0  0  0  0  0  0  0  0
   11.9190    1.1050   22.9110 C   0  0  0  0  0  0  0  0  0  0  0  0
   10.5420    0.9040   22.7570 C   0  0  2  0  0  0  0  0  0  0  0  0
    9.6570    1.3010   23.9520 C   0  0  0  0  0  0  0  0  0  0  0  0
   10.0370   -0.5390   22.3790 C   0  0  0  0  0  0  0  0  0  0  0  0
    8.7280   -0.6060   22.0380 N   0  0  0  0  0  0  0  0  0  0  0  0
    8.2940    0.4450   21.3140 C   0  0  0  0  0  0  0  0  0  0  0  0
    9.2910    1.0190   21.6570 O   0  0  0  0  0  0  0  0  0  0  0  0
    7.2180   -0.5170   21.0900 N   0  0  0  0  0  0  0  0  0  0  0  0
    6.4710    0.0440   20.0690 C   0  0  0  0  0  0  0  0  0  0  0  0
    5.1490    0.7390   20.3840 C   0  0  0  0  0  0  0  0  0  0  0  0
    4.5090    1.3270   19.1450 C   0  0  0  0  0  0  0  0  0  0  0  0
    5.0970    1.2150   17.9070 C   0  0  0  0  0  0  0  0  0  0  0  0
    6.2560    0.5770   17.7030 N   0  0  0  0  0  0  0  0  0  0  0  0
    6.8950    0.0220   18.7530 C   0  0  0  0  0  0  0  0  0  0  0  0
   13.0020   -0.8910   22.6970 C   0  0  0  0  0  0  0  0  0  0  0  0
   12.3810   -2.1100   22.7460 C   0  0  0  0  0  0  0  0  0  0  0  0
  1  2  1  0
  2  3  1  0
  3  4  1  0
  4  5  1  0
  5  6  1  0
  6  7  1  0
  7  8  1  0
  8  9  1  1
  8 10  1  0
 10 11  1  0
 11 12  1  0
 12 13  2  0
 12 14  1  0
 14 15  1  0
 15 16  2  0
 16 17  1  0
 17 18  2  0
 18 19  1  0
 15 20  1  0
 19 20  2  0
  6 21  1  0
  3 22  1  0
 21 22  1  0
M  END
