pyridine_urea_8314
     RDKit          3D

 22 23  0  0  0  0  0  0  0  0999 V2000
   12.2350    3.9560   22.3510 C   0  0  0  0  0  0  0  0  0  0  0  0
   11.3480    2.8340   22.2150 O   0  0  0  0  0  0  0  0  0  0  0  0
   11.2250    1.9610   23.3770 C   0  0  0  0  0  0  0  0  0  0  0  0
   10.6340    2.2390   24.4190 O   0  0  0  0  0  0  0  0  0  0  0  0
   11.9290    0.5400   23.1610 C   0  0  0  0  0  0  0  0  0  0  0  0
   12.8900    1.4340   23.1760 C   0  0  0  0  0  0  0  0  0  0  0  0
   11.8420    2.2200   23.3590 O   0  0  0  0  0  0  0  0  0  0  0  0
   10.4200    1.8370   23.4340 N   0  0  0  0  0  0  0  0  0  0  0  0
   10.5140    0.5460   23.2820 C   0  0  0  0  0  0  0  0  0  0  0  0
    9.7100   -0.5710   23.2230 C   0  0  0  0  0  0  0  0  0  0  0  0
   10.5020   -1.7160   22.5550 C   0  0  0  0  0  0  0  0  0  0  0  0
    9.3010   -1.0500   24.6430 C   0  0  0  0  0  0  0  0  0  0  0  0
    8.4070   -0.4140   22.7630 N   0  0  0  0  0  0  0  0  0  0  0  0
    8.3060    0.1670   21.5400 C   0  0  0  0  0  0  0  0  0  0  0  0
    8.9500    1.1510   21.1490 O   0  0  0  0  0  0  0  0  0  0  0  0
    7.3440   -0.5020   20.8400 N   0  0  0  0  0  0  0  0  0  0  0  0
    6.5110    0.1410   19.9480 C   0  0  0  0  0  0  0  0  0  0  0  0
    5.2050    0.8450   20.2960 C   0  0  0  0  0  0  0  0  0  0  0  0
    4.5360    1.4850   19.0970 C   0  0  0  0  0  0  0  0  0  0  0  0
    5.1380    1.3790   17.8570 C   0  0  0  0  0  0  0  0  0  0  0  0
    6.2910    0.7280   17.6290 N   0  0  0  0  0  0  0  0  0  0  0  0
    6.9240    0.1440   18.6480 C   0  0  0  0  0  0  0  0  0  0  0  0
  1  2  1  0
  2  3  1  0
  3  4  2  0
  3  5  1  0
  5  6  2  0
  6  7  1  0
  7  8  1  0
  5  9  1  0
  8  9  2  0
  9 10  1  0
 10 11  1  0
 10 12  1  0
 10 13  1  0
 13 14  1  0
 14 15  2  0
 14 16  1  0
 16 17  1  0
 17 18  2  0
 18 19  1  0
 19 20  2  0
 20 21  1  0
 17 22  1  0
 21 22  2  0
M  END
