pyridine_urea_1909
     RDKit          3D

 19 22  0  0  0  0  0  0  0  0999 V2000
    8.5490   -1.0950   20.2730 O   0  0  0  0  0  0  0  0  0  0  0  0
    8.1000   -0.8830   21.3170 C   0  0  0  0  0  0  0  0  0  0  0  0
    6.8520   -0.3710   21.4350 N   0  0  0  0  0  0  0  0  0  0  0  0
    6.2750    0.1910   20.2680 C   0  0  0  0  0  0  0  0  0  0  0  0
    5.0850    0.9120   20.3620 C   0  0  0  0  0  0  0  0  0  0  0  0
    4.5230    1.4780   19.2160 C   0  0  0  0  0  0  0  0  0  0  0  0
    5.1670    1.3050   18.0040 C   0  0  0  0  0  0  0  0  0  0  0  0
    6.3090    0.6140   17.8720 N   0  0  0  0  0  0  0  0  0  0  0  0
    6.8350    0.0730   18.9930 C   0  0  0  0  0  0  0  0  0  0  0  0
    8.8730   -1.1230   22.4090 N   0  0  0  0  0  0  0  0  0  0  0  0
   10.2640   -0.6940   22.2210 C   0  0  2  0  0  0  0  0  0  0  0  0
   11.3240   -1.7450   21.8040 C   0  0  1  0  0  0  0  0  0  0  0  0
   12.7190   -1.7070   22.0100 C   0  0  0  0  0  0  0  0  0  0  0  0
   12.9600   -1.3170   23.4050 C   0  0  0  0  0  0  0  0  0  0  0  0
   12.3550   -0.0870   23.6200 C   0  0  1  0  0  0  0  0  0  0  0  0
   12.1340    0.1830   22.5280 C   0  0  1  0  0  0  0  0  0  0  0  0
   11.5670   -1.0440   22.9680 C   0  0  0  0  0  0  0  0  0  0  0  0
   11.2070    1.2970   22.8090 C   0  0  0  0  0  0  0  0  0  0  0  0
   10.8800   -0.0270   23.5040 C   0  0  1  0  0  0  0  0  0  0  0  0
  1  2  2  0
  2  3  1  0
  3  4  1  0
  4  5  2  0
  5  6  1  0
  6  7  2  0
  7  8  1  0
  4  9  1  0
  8  9  2  0
  2 10  1  0
 11 10  1  1
 11 12  1  0
 12 13  1  6
 13 14  1  0
 15 14  1  6
 15 16  1  0
 12 17  1  0
 16 17  1  0
 16 18  1  1
 11 19  1  0
 15 19  1  0
 19 18  1  6
M  END
