pyridine_urea_46
     RDKit          3D

 17 17  0  0  0  0  0  0  0  0999 V2000
    8.9270    1.0690   21.2370 O   0  0  0  0  0  0  0  0  0  0  0  0
    8.3320    0.0100   21.4950 C   0  0  0  0  0  0  0  0  0  0  0  0
    8.7740   -0.9100   22.4160 N   0  0  0  0  0  0  0  0  0  0  0  0
   10.1770   -1.2190   22.4890 C   0  0  0  0  0  0  0  0  0  0  0  0
   10.8320   -0.4180   23.5870 C   0  0  0  0  0  0  0  0  0  0  0  0
   12.3130   -0.4040   23.4990 C   0  0  0  0  0  0  0  0  0  0  0  0
   12.8580   -0.9640   24.6090 F   0  0  0  0  0  0  0  0  0  0  0  0
   12.7420    0.8820   23.4180 F   0  0  0  0  0  0  0  0  0  0  0  0
   12.8930   -1.0920   22.4870 C   0  0  0  0  0  0  0  0  0  0  0  0
   13.5960   -0.3040   21.9090 O   0  0  0  0  0  0  0  0  0  0  0  0
    7.1570   -0.4420   20.9620 N   0  0  0  0  0  0  0  0  0  0  0  0
    6.5040    0.1290   19.9450 C   0  0  0  0  0  0  0  0  0  0  0  0
    5.2680    0.8920   20.2400 C   0  0  0  0  0  0  0  0  0  0  0  0
    4.5100    1.5360   19.3140 C   0  0  0  0  0  0  0  0  0  0  0  0
    5.1730    1.3180   17.9650 C   0  0  0  0  0  0  0  0  0  0  0  0
    6.2820    0.6290   17.6780 N   0  0  0  0  0  0  0  0  0  0  0  0
    6.9260    0.0470   18.6700 C   0  0  0  0  0  0  0  0  0  0  0  0
  1  2  2  0
  2  3  1  0
  3  4  1  0
  4  5  1  0
  5  6  1  0
  6  7  1  0
  6  8  1  0
  6  9  1  0
  9 10  1  0
  2 11  1  0
 11 12  1  0
 12 13  2  0
 13 14  1  0
 14 15  2  0
 15 16  1  0
 12 17  1  0
 16 17  2  0
M  END
