pyridine_urea_2706
     RDKit          3D

 23 25  0  0  0  0  0  0  0  0999 V2000
   12.6630    0.6650   22.9840 C   0  0  0  0  0  0  0  0  0  0  0  0
   11.6650    0.9430   24.0940 C   0  0  0  0  0  0  0  0  0  0  0  0
   10.1920    1.0410   23.5870 C   0  0  0  0  0  0  0  0  0  0  0  0
    9.4260   -0.1120   23.5490 C   0  0  1  0  0  0  0  0  0  0  0  0
    8.2390   -0.0900   22.8560 N   0  0  0  0  0  0  0  0  0  0  0  0
    8.0380    0.2080   21.5530 C   0  0  0  0  0  0  0  0  0  0  0  0
    8.6520    1.1840   21.0830 O   0  0  0  0  0  0  0  0  0  0  0  0
    7.1720   -0.5980   20.9120 N   0  0  0  0  0  0  0  0  0  0  0  0
    6.4680    0.0570   19.9970 C   0  0  0  0  0  0  0  0  0  0  0  0
    5.1690    0.8240   20.2460 C   0  0  0  0  0  0  0  0  0  0  0  0
    4.4290    1.5700   19.1480 C   0  0  0  0  0  0  0  0  0  0  0  0
    5.1500    1.4440   17.8160 C   0  0  0  0  0  0  0  0  0  0  0  0
    6.3050    0.7280   17.6850 N   0  0  0  0  0  0  0  0  0  0  0  0
    6.9440    0.0600   18.7150 C   0  0  0  0  0  0  0  0  0  0  0  0
   10.3490   -0.9530   22.7820 C   0  0  0  0  0  0  0  0  0  0  0  0
   10.2050   -1.2680   21.5000 N   0  0  0  0  0  0  0  0  0  0  0  0
   11.2680   -2.0360   21.1680 N   0  0  0  0  0  0  0  0  0  0  0  0
   11.9930   -2.1550   22.2180 C   0  0  0  0  0  0  0  0  0  0  0  0
   13.1480   -2.7940   22.4130 C   0  0  0  0  0  0  0  0  0  0  0  0
   13.7150   -2.7820   23.6550 C   0  0  0  0  0  0  0  0  0  0  0  0
   13.1650   -2.1380   24.7350 C   0  0  0  0  0  0  0  0  0  0  0  0
   12.0080   -1.4770   24.5470 C   0  0  0  0  0  0  0  0  0  0  0  0
   11.4490   -1.4970   23.2890 N   0  0  0  0  0  0  0  0  0  0  0  0
  1  2  1  0
  2  3  1  0
  4  3  1  6
  4  5  1  0
  5  6  1  0
  6  7  2  0
  6  8  1  0
  8  9  1  0
  9 10  2  0
 10 11  1  0
 11 12  2  0
 12 13  1  0
  9 14  1  0
 13 14  2  0
  4 15  1  0
 15 16  2  0
 16 17  1  0
 17 18  2  0
 18 19  1  0
 19 20  2  0
 20 21  1  0
 21 22  2  0
 15 23  1  0
 18 23  1  0
 22 23  1  0
M  END
