pyridine_urea_4937
     RDKit          3D

 21 22  0  0  0  0  0  0  0  0999 V2000
   12.8940   -0.9280   22.7380 C   0  0  0  0  0  0  0  0  0  0  0  0
   11.5380   -1.5960   22.3690 C   0  0  0  0  0  0  0  0  0  0  0  0
   10.3480   -0.8520   23.0230 C   0  0  2  0  0  0  0  0  0  0  0  0
    9.1060   -1.2140   22.3410 N   0  0  0  0  0  0  0  0  0  0  0  0
    8.4580   -0.2870   21.5420 C   0  0  0  0  0  0  0  0  0  0  0  0
    8.9460    0.7850   21.2420 O   0  0  0  0  0  0  0  0  0  0  0  0
    7.2150   -0.6920   21.1190 N   0  0  0  0  0  0  0  0  0  0  0  0
    6.5180   -0.0480   20.0770 C   0  0  0  0  0  0  0  0  0  0  0  0
    5.3440    0.6600   20.3630 C   0  0  0  0  0  0  0  0  0  0  0  0
    4.6660    1.3120   19.3350 C   0  0  0  0  0  0  0  0  0  0  0  0
    5.1750    1.2420   18.0450 C   0  0  0  0  0  0  0  0  0  0  0  0
    6.2920    0.5640   17.7480 N   0  0  0  0  0  0  0  0  0  0  0  0
    6.9330   -0.0610   18.7590 C   0  0  0  0  0  0  0  0  0  0  0  0
   10.5530    0.6390   22.9390 C   0  0  0  0  0  0  0  0  0  0  0  0
    9.8200    1.8160   22.8630 C   0  0  0  0  0  0  0  0  0  0  0  0
   10.8540    3.0450   22.7950 C   0  0  0  0  0  0  0  0  0  0  0  0
   12.3430    3.0210   22.8110 C   0  0  0  0  0  0  0  0  0  0  0  0
   13.1210    4.1090   22.7470 F   0  0  0  0  0  0  0  0  0  0  0  0
   12.7760    1.6550   22.9070 C   0  0  0  0  0  0  0  0  0  0  0  0
   11.5490    1.4470   22.9030 C   0  0  0  0  0  0  0  0  0  0  0  0
   10.9960    2.6590   22.8230 F   0  0  0  0  0  0  0  0  0  0  0  0
  1  2  1  0
  3  2  1  6
  3  4  1  0
  4  5  1  0
  5  6  2  0
  5  7  1  0
  7  8  1  0
  8  9  2  0
  9 10  1  0
 10 11  2  0
 11 12  1  0
  8 13  1  0
 12 13  2  0
  3 14  1  0
 14 15  2  0
 15 16  1  0
 16 17  2  0
 17 18  1  0
 17 19  1  0
 14 20  1  0
 19 20  2  0
 20 21  1  0
M  END
