pyridine_urea_4298
     RDKit          3D

 24 26  0  0  0  0  0  0  0  0999 V2000
    8.7750    0.5410   21.2070 O   0  0  0  0  0  0  0  0  0  0  0  0
    8.3560   -0.5510   21.5640 C   0  0  0  0  0  0  0  0  0  0  0  0
    9.1350   -1.3290   22.4180 N   0  0  0  0  0  0  0  0  0  0  0  0
   10.2090   -0.4360   22.6980 C   0  0  0  0  0  0  0  0  0  0  0  0
   11.6440   -0.8500   22.3960 C   0  0  0  0  0  0  0  0  0  0  0  0
   12.6700    0.2410   22.6590 C   0  0  0  0  0  0  0  0  0  0  0  0
   12.0210    1.5390   23.1760 C   0  0  0  0  0  0  0  0  0  0  0  0
   12.7270    2.4860   23.3760 O   0  0  0  0  0  0  0  0  0  0  0  0
   12.9850    3.4330   22.2890 C   0  0  0  0  0  0  0  0  0  0  0  0
   14.4100    3.4440   22.6990 C   0  0  0  0  0  0  0  0  0  0  0  0
   15.4380    2.1900   22.4020 C   0  0  0  0  0  0  0  0  0  0  0  0
   17.1930    2.5170   23.2510 N   0  0  0  0  0  0  0  0  0  0  0  0
   17.6880    3.7070   24.2550 C   0  0  0  0  0  0  0  0  0  0  0  0
   16.6130    4.5750   24.3900 C   0  0  0  0  0  0  0  0  0  0  0  0
   15.0760    4.5210   23.6240 N   0  0  0  0  0  0  0  0  0  0  0  0
   10.7050    1.7910   23.4470 C   0  0  0  0  0  0  0  0  0  0  0  0
    9.7110    0.8740   23.2490 C   0  0  0  0  0  0  0  0  0  0  0  0
    7.1410   -1.0210   21.1500 N   0  0  0  0  0  0  0  0  0  0  0  0
    6.4810   -0.2650   20.0810 C   0  0  0  0  0  0  0  0  0  0  0  0
    5.2610    0.3610   20.3110 C   0  0  0  0  0  0  0  0  0  0  0  0
    4.5790    1.1440   19.2640 C   0  0  0  0  0  0  0  0  0  0  0  0
    5.1870    1.2450   18.0320 C   0  0  0  0  0  0  0  0  0  0  0  0
    6.3750    0.6380   17.7880 N   0  0  0  0  0  0  0  0  0  0  0  0
    6.9820   -0.0870   18.7890 C   0  0  0  0  0  0  0  0  0  0  0  0
  1  2  2  0
  2  3  1  0
  3  4  1  0
  4  5  2  0
  5  6  1  0
  6  7  2  0
  7  8  1  0
  8  9  1  0
  9 10  1  0
 10 11  2  0
 11 12  1  0
 12 13  2  0
 13 14  1  0
 10 15  1  0
 14 15  2  0
  7 16  1  0
  4 17  1  0
 16 17  2  0
  2 18  1  0
 18 19  1  0
 19 20  2  0
 20 21  1  0
 21 22  2  0
 22 23  1  0
 19 24  1  0
 23 24  2  0
M  END
