pyridine_urea_13128
     RDKit          3D

 18 19  0  0  0  0  0  0  0  0999 V2000
   13.1490   -1.8630   21.0970 C   0  0  0  0  0  0  0  0  0  0  0  0
   12.7540   -2.6380   22.2830 C   0  0  0  0  0  0  0  0  0  0  0  0
   12.3390   -1.8170   23.3290 N   0  0  0  0  0  0  0  0  0  0  0  0
   13.1910   -1.4730   24.4070 C   0  0  0  0  0  0  0  0  0  0  0  0
   12.4510   -0.6800   25.2010 C   0  0  0  0  0  0  0  0  0  0  0  0
   11.1040   -0.5410   24.6010 N   0  0  0  0  0  0  0  0  0  0  0  0
   11.1240   -1.2940   23.4230 C   0  0  0  0  0  0  0  0  0  0  0  0
    9.9750   -1.4870   22.4400 C   0  0  0  0  0  0  0  0  0  0  0  0
    8.9280   -0.5260   22.7160 N   0  0  0  0  0  0  0  0  0  0  0  0
    8.4200    0.2370   21.5990 C   0  0  0  0  0  0  0  0  0  0  0  0
    8.9480    1.2910   21.2210 O   0  0  0  0  0  0  0  0  0  0  0  0
    7.3110   -0.3710   21.0670 N   0  0  0  0  0  0  0  0  0  0  0  0
    6.5890    0.1810   20.0100 C   0  0  0  0  0  0  0  0  0  0  0  0
    5.4350    0.9090   20.2660 C   0  0  0  0  0  0  0  0  0  0  0  0
    4.7010    1.4890   19.2630 C   0  0  0  0  0  0  0  0  0  0  0  0
    5.1450    1.3280   17.9650 C   0  0  0  0  0  0  0  0  0  0  0  0
    6.2500    0.6230   17.6720 N   0  0  0  0  0  0  0  0  0  0  0  0
    6.9540    0.0590   18.6870 C   0  0  0  0  0  0  0  0  0  0  0  0
  1  2  1  0
  2  3  1  0
  3  4  1  0
  4  5  2  0
  5  6  1  0
  3  7  1  0
  6  7  2  0
  7  8  1  0
  8  9  1  0
  9 10  1  0
 10 11  2  0
 10 12  1  0
 12 13  1  0
 13 14  2  0
 14 15  1  0
 15 16  2  0
 16 17  1  0
 13 18  1  0
 17 18  2  0
M  END
