pyridine_urea_14178
     RDKit          3D

 22 24  0  0  0  0  0  0  0  0999 V2000
    9.8300    1.7420   24.4590 C   0  0  0  0  0  0  0  0  0  0  0  0
    9.6850    0.4690   23.7280 C   0  0  0  0  0  0  0  0  0  0  0  0
    8.4360   -0.0950   23.7260 C   0  0  0  0  0  0  0  0  0  0  0  0
    7.4480   -0.9300   23.4850 C   0  0  0  0  0  0  0  0  0  0  0  0
    6.6410   -0.5970   22.5670 N   0  0  0  0  0  0  0  0  0  0  0  0
    7.4530   -0.3100   21.5160 C   0  0  0  0  0  0  0  0  0  0  0  0
    8.4170    0.4560   21.4930 O   0  0  0  0  0  0  0  0  0  0  0  0
    6.9680   -1.0140   20.5340 N   0  0  0  0  0  0  0  0  0  0  0  0
    6.3520   -0.2020   19.6910 C   0  0  0  0  0  0  0  0  0  0  0  0
    5.0170    0.3510   20.1130 C   0  0  0  0  0  0  0  0  0  0  0  0
    4.4470    1.2660   19.0580 C   0  0  0  0  0  0  0  0  0  0  0  0
    5.1370    1.5010   17.8840 C   0  0  0  0  0  0  0  0  0  0  0  0
    6.3140    0.9990   17.5280 N   0  0  0  0  0  0  0  0  0  0  0  0
    6.8640    0.1490   18.4980 C   0  0  0  0  0  0  0  0  0  0  0  0
    8.8310   -1.5800   22.6790 S   0  0  0  0  0  0  0  0  0  0  0  0
   10.4880   -1.1620   22.5180 C   0  0  0  0  0  0  0  0  0  0  0  0
   11.4460   -1.8710   21.8500 C   0  0  0  0  0  0  0  0  0  0  0  0
   12.6760   -1.3170   21.8560 C   0  0  0  0  0  0  0  0  0  0  0  0
   12.7440   -0.1220   22.5280 C   0  0  0  0  0  0  0  0  0  0  0  0
   13.8980    0.8360   22.7270 Cl  0  0  0  0  0  0  0  0  0  0  0  0
   11.8280    0.5030   23.1550 C   0  0  0  0  0  0  0  0  0  0  0  0
   10.7350   -0.0300   23.1370 C   0  0  0  0  0  0  0  0  0  0  0  0
  1  2  1  0
  2  3  2  0
  3  4  1  0
  4  5  1  0
  5  6  1  0
  6  7  2  0
  6  8  1  0
  8  9  1  0
  9 10  2  0
 10 11  1  0
 11 12  2  0
 12 13  1  0
  9 14  1  0
 13 14  2  0
  3 15  1  0
 15 16  1  0
 16 17  1  0
 17 18  2  0
 18 19  1  0
 19 20  1  0
 19 21  2  0
  2 22  1  0
 16 22  2  0
 21 22  1  0
M  END
