pyridine_urea_13381
     RDKit          3D

 21 22  0  0  0  0  0  0  0  0999 V2000
   14.0340   -3.1680   25.7860 C   0  0  0  0  0  0  0  0  0  0  0  0
   13.0700   -2.9320   24.6650 C   0  0  0  0  0  0  0  0  0  0  0  0
   13.6720   -2.8450   23.2800 C   0  0  0  0  0  0  0  0  0  0  0  0
   12.7620   -1.5580   25.0200 C   0  0  0  0  0  0  0  0  0  0  0  0
   13.4540   -1.1340   25.8750 O   0  0  0  0  0  0  0  0  0  0  0  0
   11.7490   -1.0260   24.2740 N   0  0  0  0  0  0  0  0  0  0  0  0
   12.0680   -0.6210   23.0530 C   0  0  0  0  0  0  0  0  0  0  0  0
   11.0120   -1.0420   22.4030 C   0  0  0  0  0  0  0  0  0  0  0  0
   11.3210   -1.7300   21.3010 F   0  0  0  0  0  0  0  0  0  0  0  0
    9.9880   -0.1600   22.3570 C   0  0  0  0  0  0  0  0  0  0  0  0
    8.8630   -0.8150   22.0420 N   0  0  0  0  0  0  0  0  0  0  0  0
    7.9800   -0.1040   21.2790 C   0  0  0  0  0  0  0  0  0  0  0  0
    8.1350    1.0330   20.8590 O   0  0  0  0  0  0  0  0  0  0  0  0
    6.8570   -0.7630   20.9990 N   0  0  0  0  0  0  0  0  0  0  0  0
    6.2040   -0.0610   20.0740 C   0  0  0  0  0  0  0  0  0  0  0  0
    5.0040    0.6360   20.1500 C   0  0  0  0  0  0  0  0  0  0  0  0
    4.4540    1.3570   19.0810 C   0  0  0  0  0  0  0  0  0  0  0  0
    5.1520    1.3820   17.8560 C   0  0  0  0  0  0  0  0  0  0  0  0
    6.3090    0.7510   17.6470 N   0  0  0  0  0  0  0  0  0  0  0  0
    6.8000    0.0740   18.6850 C   0  0  0  0  0  0  0  0  0  0  0  0
   10.8650   -1.9220   23.6810 C   0  0  0  0  0  0  0  0  0  0  0  0
  1  2  1  0
  2  3  1  0
  2  4  1  0
  4  5  2  0
  4  6  1  0
  6  7  1  0
  7  8  1  0
  8  9  1  0
  8 10  1  0
 10 11  1  0
 11 12  1  0
 12 13  2  0
 12 14  1  0
 14 15  1  0
 15 16  2  0
 16 17  1  0
 17 18  2  0
 18 19  1  0
 15 20  1  0
 19 20  2  0
  6 21  1  0
  8 21  1  0
M  END
