pyridine_urea_7177
     RDKit          3D

 19 21  0  0  0  0  0  0  0  0999 V2000
    8.6560    1.0020   21.3280 O   0  0  0  0  0  0  0  0  0  0  0  0
    8.4350   -0.1910   21.4870 C   0  0  0  0  0  0  0  0  0  0  0  0
    7.2810   -0.7850   21.0110 N   0  0  0  0  0  0  0  0  0  0  0  0
    6.4790   -0.0950   20.0740 C   0  0  0  0  0  0  0  0  0  0  0  0
    5.2800    0.5690   20.3330 C   0  0  0  0  0  0  0  0  0  0  0  0
    4.6110    1.2290   19.2960 C   0  0  0  0  0  0  0  0  0  0  0  0
    5.1660    1.2020   18.0320 C   0  0  0  0  0  0  0  0  0  0  0  0
    6.3130    0.5650   17.7550 N   0  0  0  0  0  0  0  0  0  0  0  0
    6.9310   -0.0610   18.7690 C   0  0  0  0  0  0  0  0  0  0  0  0
    9.3380   -1.0190   22.1450 N   0  0  0  0  0  0  0  0  0  0  0  0
   10.5400   -0.4010   22.5390 C   0  0  1  0  0  0  0  0  0  0  0  0
   10.6340    0.1480   23.7420 C   0  0  0  0  0  0  0  0  0  0  0  0
   11.9640    0.4800   23.8340 C   0  0  0  0  0  0  0  0  0  0  0  0
   12.4980   -0.8350   24.1120 N   0  0  0  0  0  0  0  0  0  0  0  0
   13.1600   -1.2560   25.3640 N   0  0  0  0  0  0  0  0  0  0  0  0
   13.4850   -2.5880   25.1530 C   0  0  0  0  0  0  0  0  0  0  0  0
   12.8960   -1.7950   24.3480 C   0  0  0  0  0  0  0  0  0  0  0  0
   12.3720   -1.8390   23.0940 C   0  0  0  0  0  0  0  0  0  0  0  0
   11.7400   -1.0220   22.1800 C   0  0  0  0  0  0  0  0  0  0  0  0
  1  2  2  0
  2  3  1  0
  3  4  1  0
  4  5  2  0
  5  6  1  0
  6  7  2  0
  7  8  1  0
  4  9  1  0
  8  9  2  0
  2 10  1  0
 11 10  1  1
 11 12  1  0
 12 13  1  0
 13 14  1  0
 14 15  1  0
 15 16  2  0
 16 17  1  0
 14 18  1  0
 17 18  2  0
 11 19  1  0
 18 19  1  0
M  END
