pyridine_urea_10204
     RDKit          3D

 23 24  0  0  0  0  0  0  0  0999 V2000
   13.3880   -2.3930   25.0760 C   0  0  0  0  0  0  0  0  0  0  0  0
   13.4960   -2.6250   23.5830 C   0  0  0  0  0  0  0  0  0  0  0  0
   13.4510   -1.3760   22.8410 N   0  0  0  0  0  0  0  0  0  0  0  0
   13.2310   -1.5230   21.4370 C   0  0  0  0  0  0  0  0  0  0  0  0
   13.2580   -2.7800   20.9990 C   0  0  0  0  0  0  0  0  0  0  0  0
   12.4320   -0.5840   23.1300 C   0  0  0  0  0  0  0  0  0  0  0  0
   11.2750   -0.9910   23.3930 C   0  0  0  0  0  0  0  0  0  0  0  0
   10.0130   -0.3900   23.7180 C   0  0  0  0  0  0  0  0  0  0  0  0
    9.8540    1.0010   23.8080 C   0  0  0  0  0  0  0  0  0  0  0  0
    8.7130    0.2820   24.0440 C   0  0  0  0  0  0  0  0  0  0  0  0
    8.5070   -0.5540   22.8670 N   0  0  0  0  0  0  0  0  0  0  0  0
    8.2170    0.0380   21.6230 C   0  0  0  0  0  0  0  0  0  0  0  0
    8.8070    1.0410   21.1790 O   0  0  0  0  0  0  0  0  0  0  0  0
    7.2130   -0.6550   21.0540 N   0  0  0  0  0  0  0  0  0  0  0  0
    6.5330    0.0200   19.9760 C   0  0  0  0  0  0  0  0  0  0  0  0
    5.2850    0.7940   20.2940 C   0  0  0  0  0  0  0  0  0  0  0  0
    4.6460    1.4550   19.2240 C   0  0  0  0  0  0  0  0  0  0  0  0
    5.1660    1.3810   17.9370 C   0  0  0  0  0  0  0  0  0  0  0  0
    6.2890    0.6630   17.7030 N   0  0  0  0  0  0  0  0  0  0  0  0
    6.9820   -0.0180   18.6830 C   0  0  0  0  0  0  0  0  0  0  0  0
   11.2410    1.4390   23.4980 C   0  0  0  0  0  0  0  0  0  0  0  0
   12.4530    0.7500   23.1720 C   0  0  0  0  0  0  0  0  0  0  0  0
   13.5290    1.4560   22.9180 F   0  0  0  0  0  0  0  0  0  0  0  0
  1  2  1  0
  2  3  1  0
  3  4  1  0
  4  5  1  0
  3  6  1  0
  6  7  2  0
  7  8  1  0
  8  9  2  0
  9 10  1  0
 10 11  1  0
 11 12  1  0
 12 13  2  0
 12 14  1  0
 14 15  1  0
 15 16  2  0
 16 17  1  0
 17 18  2  0
 18 19  1  0
 15 20  1  0
 19 20  2  0
  9 21  1  0
  6 22  1  0
 21 22  2  0
 22 23  1  0
M  END
