pyridine_urea_7140
     RDKit          3D

 19 20  0  0  0  0  0  0  0  0999 V2000
   13.5560   -0.1280   22.9030 C   0  0  0  0  0  0  0  0  0  0  0  0
   12.2380   -0.4740   23.3080 C   0  0  0  0  0  0  0  0  0  0  0  0
   11.3480    0.2250   22.7300 C   0  0  0  0  0  0  0  0  0  0  0  0
   10.0370    0.0940   22.8870 C   0  0  0  0  0  0  0  0  0  0  0  0
    8.9330   -0.4710   23.4170 C   0  0  0  0  0  0  0  0  0  0  0  0
    7.7730   -0.0140   22.9200 N   0  0  0  0  0  0  0  0  0  0  0  0
    7.9780    0.3570   21.5330 C   0  0  0  0  0  0  0  0  0  0  0  0
    8.7710    1.2310   21.1560 O   0  0  0  0  0  0  0  0  0  0  0  0
    7.1440   -0.3950   20.7950 N   0  0  0  0  0  0  0  0  0  0  0  0
    6.4050    0.2240   19.8820 C   0  0  0  0  0  0  0  0  0  0  0  0
    5.2230    0.9190   20.1050 C   0  0  0  0  0  0  0  0  0  0  0  0
    4.5940    1.5400   19.0500 C   0  0  0  0  0  0  0  0  0  0  0  0
    5.1270    1.4730   17.7880 C   0  0  0  0  0  0  0  0  0  0  0  0
    6.2440    0.8150   17.4740 N   0  0  0  0  0  0  0  0  0  0  0  0
    6.8720    0.1840   18.6020 C   0  0  0  0  0  0  0  0  0  0  0  0
   10.1540   -0.9980   23.8770 N   0  0  0  0  0  0  0  0  0  0  0  0
   10.7960   -1.8980   24.6710 C   0  0  0  0  0  0  0  0  0  0  0  0
   12.0070   -1.4600   24.2050 C   0  0  0  0  0  0  0  0  0  0  0  0
   13.4310   -2.4240   24.9550 Br  0  0  0  0  0  0  0  0  0  0  0  0
  1  2  1  0
  2  3  2  0
  3  4  1  0
  4  5  1  0
  5  6  1  0
  6  7  1  0
  7  8  2  0
  7  9  1  0
  9 10  1  0
 10 11  2  0
 11 12  1  0
 12 13  2  0
 13 14  1  0
 10 15  1  0
 14 15  2  0
  4 16  2  0
 16 17  1  0
  2 18  1  0
 17 18  2  0
 18 19  1  0
M  END
