pyridine_urea_12004
     RDKit          3D

 24 26  0  0  0  0  0  0  0  0999 V2000
    8.9600    1.3300   21.1800 O   0  0  0  0  0  0  0  0  0  0  0  0
    8.4990    0.2580   21.5910 C   0  0  0  0  0  0  0  0  0  0  0  0
    8.9720   -0.4260   22.6960 N   0  0  0  0  0  0  0  0  0  0  0  0
   10.2250   -0.2020   23.3700 C   0  0  0  0  0  0  0  0  0  0  0  0
   11.2420   -0.9270   22.7990 C   0  0  0  0  0  0  0  0  0  0  0  0
   11.0940   -2.0960   22.2740 C   0  0  0  0  0  0  0  0  0  0  0  0
   12.2920   -1.4640   22.2720 C   0  0  0  0  0  0  0  0  0  0  0  0
   11.6740   -0.3040   23.0920 C   0  0  0  0  0  0  0  0  0  0  0  0
   10.4100   -0.0240   23.6930 C   0  0  0  0  0  0  0  0  0  0  0  0
    9.6650    1.3300   23.6430 C   0  0  0  0  0  0  0  0  0  0  0  0
    8.4270    1.4290   24.3130 C   0  0  0  0  0  0  0  0  0  0  0  0
    7.9230    0.3120   24.9960 C   0  0  0  0  0  0  0  0  0  0  0  0
    8.6170   -0.9010   25.0300 C   0  0  0  0  0  0  0  0  0  0  0  0
    9.8520   -1.1210   24.4040 C   0  0  0  0  0  0  0  0  0  0  0  0
   12.8010    0.7170   23.2420 C   0  0  0  0  0  0  0  0  0  0  0  0
   12.7620   -0.4610   22.6480 C   0  0  0  0  0  0  0  0  0  0  0  0
   13.7370   -1.1470   22.0320 F   0  0  0  0  0  0  0  0  0  0  0  0
    7.4330   -0.4120   21.0270 N   0  0  0  0  0  0  0  0  0  0  0  0
    6.5910    0.1670   20.0700 C   0  0  0  0  0  0  0  0  0  0  0  0
    5.4270    0.8790   20.3560 C   0  0  0  0  0  0  0  0  0  0  0  0
    4.6880    1.4260   19.3150 C   0  0  0  0  0  0  0  0  0  0  0  0
    5.1400    1.2410   18.0150 C   0  0  0  0  0  0  0  0  0  0  0  0
    6.2470    0.5540   17.7130 N   0  0  0  0  0  0  0  0  0  0  0  0
    6.9400    0.0350   18.7400 C   0  0  0  0  0  0  0  0  0  0  0  0
  1  2  2  0
  2  3  1  0
  3  4  1  0
  4  5  1  0
  5  6  2  0
  6  7  1  0
  7  8  2  0
  8  9  1  0
  9 10  2  0
 10 11  1  0
 11 12  2  0
 12 13  1  0
  9 14  1  0
 13 14  2  0
  8 15  1  0
  5 16  1  0
 15 16  2  0
 16 17  1  0
  2 18  1  0
 18 19  1  0
 19 20  2  0
 20 21  1  0
 21 22  2  0
 22 23  1  0
 19 24  1  0
 23 24  2  0
M  END
