pyridine_urea_3713
     RDKit          3D

 20 21  0  0  0  0  0  0  0  0999 V2000
    8.7870    1.1590   21.1630 O   0  0  0  0  0  0  0  0  0  0  0  0
    8.2890    0.0640   21.4600 C   0  0  0  0  0  0  0  0  0  0  0  0
    8.8500   -0.7720   22.3860 N   0  0  0  0  0  0  0  0  0  0  0  0
   10.2160   -0.5040   22.7030 C   0  0  0  0  0  0  0  0  0  0  0  0
   11.0660   -1.7450   22.5580 C   0  0  2  0  0  0  0  0  0  0  0  0
   10.5240   -2.5790   21.6590 F   0  0  0  0  0  0  0  0  0  0  0  0
   11.2510   -2.4660   23.8650 C   0  0  0  0  0  0  0  0  0  0  0  0
   12.5580   -1.9280   24.3860 C   0  0  0  0  0  0  0  0  0  0  0  0
   12.7310   -0.4500   24.0320 C   0  0  2  0  0  0  0  0  0  0  0  0
   11.6170    0.2630   23.2560 C   0  0  0  0  0  0  0  0  0  0  0  0
   11.9990    1.4320   23.1690 O   0  0  0  0  0  0  0  0  0  0  0  0
   12.8960   -0.2400   22.5760 C   0  0  0  0  0  0  0  0  0  0  0  0
   12.5090   -1.4910   22.1040 C   0  0  0  0  0  0  0  0  0  0  0  0
    7.1410   -0.4850   20.9550 N   0  0  0  0  0  0  0  0  0  0  0  0
    6.3730    0.1650   19.9970 C   0  0  0  0  0  0  0  0  0  0  0  0
    5.1940    0.8630   20.2630 C   0  0  0  0  0  0  0  0  0  0  0  0
    4.5400    1.4870   19.2150 C   0  0  0  0  0  0  0  0  0  0  0  0
    5.1450    1.3650   17.8760 C   0  0  0  0  0  0  0  0  0  0  0  0
    6.2660    0.6820   17.6470 N   0  0  0  0  0  0  0  0  0  0  0  0
    6.8550    0.0990   18.7010 C   0  0  0  0  0  0  0  0  0  0  0  0
  1  2  2  0
  2  3  1  0
  3  4  1  0
  4  5  1  0
  5  6  1  6
  5  7  1  0
  7  8  1  0
  8  9  1  0
  9 10  1  6
 10 11  1  0
  9 12  1  0
  5 13  1  0
 12 13  1  0
  2 14  1  0
 14 15  1  0
 15 16  2  0
 16 17  1  0
 17 18  2  0
 18 19  1  0
 15 20  1  0
 19 20  2  0
M  END
