pyridine_urea_3111
     RDKit          3D

 21 23  0  0  0  0  0  0  0  0999 V2000
    8.8360    0.8090   21.3630 O   0  0  0  0  0  0  0  0  0  0  0  0
    8.3550   -0.2940   21.5850 C   0  0  0  0  0  0  0  0  0  0  0  0
    7.1750   -0.7550   21.0600 N   0  0  0  0  0  0  0  0  0  0  0  0
    6.4880   -0.0840   20.0310 C   0  0  0  0  0  0  0  0  0  0  0  0
    5.3030    0.6070   20.3160 C   0  0  0  0  0  0  0  0  0  0  0  0
    4.6310    1.2910   19.2950 C   0  0  0  0  0  0  0  0  0  0  0  0
    5.1710    1.2570   18.0270 C   0  0  0  0  0  0  0  0  0  0  0  0
    6.2980    0.5940   17.7330 N   0  0  0  0  0  0  0  0  0  0  0  0
    6.9260   -0.0570   18.7310 C   0  0  0  0  0  0  0  0  0  0  0  0
    9.0180   -1.1810   22.4100 N   0  0  0  0  0  0  0  0  0  0  0  0
   10.3440   -0.7100   22.7260 C   0  0  0  0  0  0  0  0  0  0  0  0
   11.5340   -1.3730   22.0480 C   0  0  0  0  0  0  0  0  0  0  0  0
   12.7970   -0.8850   22.3370 C   0  0  0  0  0  0  0  0  0  0  0  0
   12.9340    0.1740   23.2190 C   0  0  0  0  0  0  0  0  0  0  0  0
   11.8390    0.7750   23.8510 C   0  0  0  0  0  0  0  0  0  0  0  0
   10.5350    0.3480   23.6270 C   0  0  0  0  0  0  0  0  0  0  0  0
    9.4470    0.9470   24.2680 C   0  0  0  0  0  0  0  0  0  0  0  0
    8.8910    2.1260   23.9270 N   0  0  0  0  0  0  0  0  0  0  0  0
    7.8480    2.3770   24.7750 C   0  0  0  0  0  0  0  0  0  0  0  0
    7.5310    1.4780   25.7730 C   0  0  0  0  0  0  0  0  0  0  0  0
    8.6580    0.1930   25.6360 S   0  0  0  0  0  0  0  0  0  0  0  0
  1  2  2  0
  2  3  1  0
  3  4  1  0
  4  5  2  0
  5  6  1  0
  6  7  2  0
  7  8  1  0
  4  9  1  0
  8  9  2  0
  2 10  1  0
 10 11  1  0
 11 12  2  0
 12 13  1  0
 13 14  2  0
 14 15  1  0
 11 16  1  0
 15 16  2  0
 16 17  1  0
 17 18  2  0
 18 19  1  0
 19 20  2  0
 17 21  1  0
 20 21  1  0
M  END
