pyridine_urea_11745
     RDKit          3D

 26 28  0  0  0  0  0  0  0  0999 V2000
    8.6310   -0.8140   20.5910 O   0  0  0  0  0  0  0  0  0  0  0  0
    7.7700   -0.9970   21.3870 C   0  0  0  0  0  0  0  0  0  0  0  0
    7.9750   -1.3140   22.7000 N   0  0  0  0  0  0  0  0  0  0  0  0
    9.2260   -1.2810   23.3520 C   0  0  0  0  0  0  0  0  0  0  0  0
    9.8840   -0.0410   23.4110 C   0  0  0  0  0  0  0  0  0  0  0  0
    9.1320    1.1430   23.6190 C   0  0  0  0  0  0  0  0  0  0  0  0
    9.3110    1.9180   22.6080 N   0  0  0  0  0  0  0  0  0  0  0  0
    9.2090    1.0750   21.5880 C   0  0  0  0  0  0  0  0  0  0  0  0
   10.1040   -0.0150   21.8230 C   0  0  0  0  0  0  0  0  0  0  0  0
   11.4300    0.1270   22.2830 N   0  0  0  0  0  0  0  0  0  0  0  0
   12.1380   -0.9760   22.9150 C   0  0  0  0  0  0  0  0  0  0  0  0
   13.3200   -1.7530   22.3750 C   0  0  0  0  0  0  0  0  0  0  0  0
   13.7920   -2.7470   23.2540 C   0  0  0  0  0  0  0  0  0  0  0  0
   13.2500   -2.9860   24.4810 C   0  0  0  0  0  0  0  0  0  0  0  0
   12.2060   -2.2590   24.8450 C   0  0  0  0  0  0  0  0  0  0  0  0
   11.6710   -1.3120   24.0970 C   0  0  0  0  0  0  0  0  0  0  0  0
   10.6520   -0.6760   24.5070 F   0  0  0  0  0  0  0  0  0  0  0  0
   11.7180    1.4010   22.7400 C   0  0  0  0  0  0  0  0  0  0  0  0
   10.6010    2.4360   22.7080 C   0  0  0  0  0  0  0  0  0  0  0  0
    6.4540   -0.8880   21.0690 N   0  0  0  0  0  0  0  0  0  0  0  0
    5.9930   -0.1180   20.0620 C   0  0  0  0  0  0  0  0  0  0  0  0
    4.8580    0.6820   20.1540 C   0  0  0  0  0  0  0  0  0  0  0  0
    4.4670    1.4460   19.0610 C   0  0  0  0  0  0  0  0  0  0  0  0
    5.2220    1.3880   17.9040 C   0  0  0  0  0  0  0  0  0  0  0  0
    6.3220    0.6290   17.7690 N   0  0  0  0  0  0  0  0  0  0  0  0
    6.6830   -0.1050   18.8470 C   0  0  0  0  0  0  0  0  0  0  0  0
  1  2  2  0
  2  3  1  0
  3  4  1  0
  4  5  1  0
  5  6  1  0
  6  7  1  0
  7  8  1  0
  8  9  1  0
  9 10  1  0
 10 11  1  0
 11 12  2  0
 12 13  1  0
 13 14  2  0
 14 15  1  0
 11 16  1  0
 15 16  2  0
 16 17  1  0
 10 18  1  0
  7 19  1  0
 18 19  1  0
  2 20  1  0
 20 21  1  0
 21 22  2  0
 22 23  1  0
 23 24  2  0
 24 25  1  0
 21 26  1  0
 25 26  2  0
M  END
