pyridine_urea_10510
     RDKit          3D

 22 24  0  0  0  0  0  0  0  0999 V2000
    8.6930    1.2450   21.0810 O   0  0  0  0  0  0  0  0  0  0  0  0
    8.4310    0.0430   21.2260 C   0  0  0  0  0  0  0  0  0  0  0  0
    7.2330   -0.5430   20.9380 N   0  0  0  0  0  0  0  0  0  0  0  0
    6.4110    0.1000   20.0250 C   0  0  0  0  0  0  0  0  0  0  0  0
    5.0760    0.7790   20.3570 C   0  0  0  0  0  0  0  0  0  0  0  0
    4.4190    1.4380   19.1490 C   0  0  0  0  0  0  0  0  0  0  0  0
    5.1290    1.3460   17.8400 C   0  0  0  0  0  0  0  0  0  0  0  0
    6.2950    0.7090   17.6730 N   0  0  0  0  0  0  0  0  0  0  0  0
    6.8770    0.1260   18.7290 C   0  0  0  0  0  0  0  0  0  0  0  0
    9.3690   -0.8290   21.6780 N   0  0  0  0  0  0  0  0  0  0  0  0
   10.1520   -0.2850   22.7410 C   0  0  2  0  0  0  0  0  0  0  0  0
   11.4200   -0.8720   22.8210 C   0  0  0  0  0  0  0  0  0  0  0  0
   11.8710   -1.9780   22.8230 C   0  0  0  0  0  0  0  0  0  0  0  0
   13.0480   -1.2670   22.9240 C   0  0  0  0  0  0  0  0  0  0  0  0
   11.9640   -0.0790   22.9020 C   0  0  0  0  0  0  0  0  0  0  0  0
   12.9960    0.9170   22.9840 C   0  0  0  0  0  0  0  0  0  0  0  0
   12.8200   -0.4480   22.9320 C   0  0  0  0  0  0  0  0  0  0  0  0
    9.4980   -0.2210   23.9540 C   0  0  0  0  0  0  0  0  0  0  0  0
    8.7610   -1.2620   24.4460 N   0  0  0  0  0  0  0  0  0  0  0  0
    8.1640   -0.8990   25.7000 C   0  0  0  0  0  0  0  0  0  0  0  0
    8.5290    0.3750   26.0060 C   0  0  0  0  0  0  0  0  0  0  0  0
    9.5370    1.2100   24.9130 S   0  0  0  0  0  0  0  0  0  0  0  0
  1  2  2  0
  2  3  1  0
  3  4  1  0
  4  5  2  0
  5  6  1  0
  6  7  2  0
  7  8  1  0
  4  9  1  0
  8  9  2  0
  2 10  1  0
 11 10  1  6
 11 12  1  0
 12 13  2  0
 13 14  1  0
 14 15  2  0
 15 16  1  0
 12 17  1  0
 16 17  2  0
 11 18  1  0
 18 19  2  0
 19 20  1  0
 20 21  2  0
 18 22  1  0
 21 22  1  0
M  END
