pyridine_urea_2544
     RDKit          3D

 24 25  0  0  0  0  0  0  0  0999 V2000
   12.7730   -1.4060   24.6040 C   0  0  0  0  0  0  0  0  0  0  0  0
   12.3900   -1.1100   23.4600 O   0  0  0  0  0  0  0  0  0  0  0  0
   11.7370    0.0910   23.3510 C   0  0  0  0  0  0  0  0  0  0  0  0
   13.0990    0.2060   23.2950 C   0  0  0  0  0  0  0  0  0  0  0  0
   12.2770    1.1510   23.2340 C   0  0  0  0  0  0  0  0  0  0  0  0
   10.9390    0.6000   23.2810 C   0  0  0  0  0  0  0  0  0  0  0  0
   10.3460   -0.6990   23.3560 C   0  0  1  0  0  0  0  0  0  0  0  0
    8.9940   -0.7030   22.7780 N   0  0  0  0  0  0  0  0  0  0  0  0
    8.6250    0.1450   21.7600 C   0  0  0  0  0  0  0  0  0  0  0  0
    9.3190    1.3380   21.3880 O   0  0  0  0  0  0  0  0  0  0  0  0
    7.5430   -0.1320   21.0790 N   0  0  0  0  0  0  0  0  0  0  0  0
    6.6870    0.2200   20.0870 C   0  0  0  0  0  0  0  0  0  0  0  0
    5.4920    0.8870   20.3530 C   0  0  0  0  0  0  0  0  0  0  0  0
    4.6670    1.2730   19.3270 C   0  0  0  0  0  0  0  0  0  0  0  0
    5.0110    1.0050   18.0250 C   0  0  0  0  0  0  0  0  0  0  0  0
    6.1400    0.3530   17.7140 N   0  0  0  0  0  0  0  0  0  0  0  0
    6.9200   -0.0090   18.7480 C   0  0  0  0  0  0  0  0  0  0  0  0
   11.0160   -1.8450   22.5390 C   0  0  0  0  0  0  0  0  0  0  0  0
   11.4090   -2.8370   23.3790 F   0  0  0  0  0  0  0  0  0  0  0  0
   12.0790   -1.5180   21.7720 F   0  0  0  0  0  0  0  0  0  0  0  0
   10.1020   -2.4160   21.7260 F   0  0  0  0  0  0  0  0  0  0  0  0
   10.3010    1.6800   23.2260 C   0  0  0  0  0  0  0  0  0  0  0  0
   11.7360    1.6470   23.2010 C   0  0  0  0  0  0  0  0  0  0  0  0
   11.2130    3.4860   23.0350 Br  0  0  0  0  0  0  0  0  0  0  0  0
  1  2  1  0
  2  3  1  0
  3  4  2  0
  4  5  1  0
  5  6  2  0
  6  7  1  0
  7  8  1  6
  8  9  1  0
  9 10  2  0
  9 11  1  0
 11 12  1  0
 12 13  2  0
 13 14  1  0
 14 15  2  0
 15 16  1  0
 12 17  1  0
 16 17  2  0
  7 18  1  0
 18 19  1  0
 18 20  1  0
 18 21  1  0
  6 22  1  0
  3 23  1  0
 22 23  2  0
 23 24  1  0
M  END
