pyridine_urea_1940
     RDKit          3D

 22 23  0  0  0  0  0  0  0  0999 V2000
   13.3250   -1.8930   25.3640 C   0  0  0  0  0  0  0  0  0  0  0  0
   12.5410   -0.6760   25.3530 O   0  0  0  0  0  0  0  0  0  0  0  0
   11.9260   -0.5980   24.1560 C   0  0  0  0  0  0  0  0  0  0  0  0
   10.4770   -1.0230   24.1400 C   0  0  0  0  0  0  0  0  0  0  0  0
    9.7120   -0.2740   24.9820 F   0  0  0  0  0  0  0  0  0  0  0  0
   10.3650   -2.3160   24.5610 F   0  0  0  0  0  0  0  0  0  0  0  0
    9.9700   -0.9730   22.7070 C   0  0  0  0  0  0  0  0  0  0  0  0
    8.5610   -0.7050   22.6090 N   0  0  0  0  0  0  0  0  0  0  0  0
    8.1330    0.0440   21.5500 C   0  0  0  0  0  0  0  0  0  0  0  0
    8.7810    1.2560   21.1180 O   0  0  0  0  0  0  0  0  0  0  0  0
    7.0320   -0.5350   21.0400 N   0  0  0  0  0  0  0  0  0  0  0  0
    6.3780    0.1020   20.0720 C   0  0  0  0  0  0  0  0  0  0  0  0
    5.2090    0.8360   20.2370 C   0  0  0  0  0  0  0  0  0  0  0  0
    4.6130    1.4750   19.1510 C   0  0  0  0  0  0  0  0  0  0  0  0
    5.1890    1.3790   17.9010 C   0  0  0  0  0  0  0  0  0  0  0  0
    6.3100    0.6850   17.6450 N   0  0  0  0  0  0  0  0  0  0  0  0
    6.9010    0.0590   18.6840 C   0  0  0  0  0  0  0  0  0  0  0  0
   12.0220    0.7630   23.4830 C   0  0  0  0  0  0  0  0  0  0  0  0
   13.2650    0.7330   22.8920 C   0  0  0  0  0  0  0  0  0  0  0  0
   13.3360   -0.1220   21.7740 O   0  0  0  0  0  0  0  0  0  0  0  0
   12.6660   -1.3470   21.9780 C   0  0  0  0  0  0  0  0  0  0  0  0
   12.6570   -1.6370   23.3010 C   0  0  0  0  0  0  0  0  0  0  0  0
  1  2  1  0
  3  2  1  0
  3  4  1  0
  4  5  1  0
  4  6  1  0
  4  7  1  0
  7  8  1  0
  8  9  1  0
  9 10  2  0
  9 11  1  0
 11 12  1  0
 12 13  2  0
 13 14  1  0
 14 15  2  0
 15 16  1  0
 12 17  1  0
 16 17  2  0
  3 18  1  0
 18 19  1  0
 19 20  1  0
 20 21  1  0
  3 22  1  0
 21 22  1  0
M  END
