pyridine_urea_14181
     RDKit          3D

 22 23  0  0  0  0  0  0  0  0999 V2000
    5.4530   -5.2930   21.2570 C   0  0  0  0  0  0  0  0  0  0  0  0
    5.3500   -3.9420   21.7290 O   0  0  0  0  0  0  0  0  0  0  0  0
    6.5930   -3.5590   22.1190 C   0  0  0  0  0  0  0  0  0  0  0  0
    7.2280   -2.5150   21.4580 C   0  0  0  0  0  0  0  0  0  0  0  0
    8.5330   -2.1290   21.8190 C   0  0  0  0  0  0  0  0  0  0  0  0
    9.2160   -2.7780   22.8560 C   0  0  0  0  0  0  0  0  0  0  0  0
   10.3620   -2.4570   23.1780 O   0  0  0  0  0  0  0  0  0  0  0  0
   11.0670   -1.5660   22.3750 C   0  0  0  0  0  0  0  0  0  0  0  0
   10.5330   -0.2510   22.8880 C   0  0  0  0  0  0  0  0  0  0  0  0
    9.1500   -0.0320   22.7230 N   0  0  0  0  0  0  0  0  0  0  0  0
    8.5550    0.6070   21.6510 C   0  0  0  0  0  0  0  0  0  0  0  0
    8.9270    1.6530   21.1340 O   0  0  0  0  0  0  0  0  0  0  0  0
    7.3710   -0.0690   21.1500 N   0  0  0  0  0  0  0  0  0  0  0  0
    6.6200    0.3600   20.1060 C   0  0  0  0  0  0  0  0  0  0  0  0
    5.4830    1.1320   20.2970 C   0  0  0  0  0  0  0  0  0  0  0  0
    4.7290    1.5910   19.2250 C   0  0  0  0  0  0  0  0  0  0  0  0
    5.1520    1.2480   17.9600 C   0  0  0  0  0  0  0  0  0  0  0  0
    6.2330    0.4960   17.7070 N   0  0  0  0  0  0  0  0  0  0  0  0
    6.9670    0.0510   18.8110 C   0  0  0  0  0  0  0  0  0  0  0  0
    8.5360   -3.8020   23.4970 C   0  0  0  0  0  0  0  0  0  0  0  0
    7.2580   -4.1900   23.1450 C   0  0  0  0  0  0  0  0  0  0  0  0
    6.5090   -5.4810   24.0000 Cl  0  0  0  0  0  0  0  0  0  0  0  0
  1  2  1  0
  2  3  1  0
  3  4  2  0
  4  5  1  0
  5  6  2  0
  6  7  1  0
  7  8  1  0
  8  9  1  0
  9 10  1  0
 10 11  1  0
 11 12  2  0
 11 13  1  0
 13 14  1  0
 14 15  2  0
 15 16  1  0
 16 17  2  0
 17 18  1  0
 14 19  1  0
 18 19  2  0
  6 20  1  0
  3 21  1  0
 20 21  2  0
 21 22  1  0
M  END
