pyridine_urea_12794
     RDKit          3D

 20 22  0  0  0  0  0  0  0  0999 V2000
    8.9530    1.0210   21.3870 O   0  0  0  0  0  0  0  0  0  0  0  0
    8.6370   -0.1560   21.4220 C   0  0  0  0  0  0  0  0  0  0  0  0
    9.5440   -1.1590   21.7010 N   0  0  0  0  0  0  0  0  0  0  0  0
   10.4410   -1.1360   22.8720 C   0  0  0  0  0  0  0  0  0  0  0  0
   11.5060    0.0150   22.8890 C   0  0  0  0  0  0  0  0  0  0  0  0
   12.3310   -1.1230   22.7970 C   0  0  0  0  0  0  0  0  0  0  0  0
   12.7880    0.0220   22.8430 C   0  0  0  0  0  0  0  0  0  0  0  0
   11.7580    0.9820   22.9550 C   0  0  0  0  0  0  0  0  0  0  0  0
   10.2940    0.9430   23.0460 C   0  0  0  0  0  0  0  0  0  0  0  0
   10.2220    2.3230   23.1070 C   0  0  0  0  0  0  0  0  0  0  0  0
   11.3870    2.9150   23.0640 N   0  0  0  0  0  0  0  0  0  0  0  0
   12.5060    2.1900   22.9640 C   0  0  0  0  0  0  0  0  0  0  0  0
   12.8610    0.7970   22.8730 N   0  0  0  0  0  0  0  0  0  0  0  0
    7.3650   -0.5980   21.1270 N   0  0  0  0  0  0  0  0  0  0  0  0
    6.5970    0.0040   20.1130 C   0  0  0  0  0  0  0  0  0  0  0  0
    5.4200    0.6980   20.4470 C   0  0  0  0  0  0  0  0  0  0  0  0
    4.6770    1.3340   19.3170 C   0  0  0  0  0  0  0  0  0  0  0  0
    5.1410    1.2320   18.0370 C   0  0  0  0  0  0  0  0  0  0  0  0
    6.2610    0.5570   17.7450 N   0  0  0  0  0  0  0  0  0  0  0  0
    6.9480   -0.0310   18.7660 C   0  0  0  0  0  0  0  0  0  0  0  0
  1  2  2  0
  2  3  1  0
  3  4  1  0
  4  5  1  0
  5  6  2  0
  6  7  1  0
  7  8  2  0
  8  9  1  0
  9 10  2  0
 10 11  1  0
  8 12  1  0
 11 12  1  0
  5 13  1  0
 12 13  2  0
  2 14  1  0
 14 15  1  0
 15 16  2  0
 16 17  1  0
 17 18  2  0
 18 19  1  0
 15 20  1  0
 19 20  2  0
M  END
