pyridine_urea_7711
     RDKit          3D

 21 22  0  0  0  0  0  0  0  0999 V2000
    8.1270   -2.9940   22.5230 C   0  0  0  0  0  0  0  0  0  0  0  0
    8.6860   -3.1060   23.9230 C   0  0  0  0  0  0  0  0  0  0  0  0
    9.5360   -1.9870   24.2030 O   0  0  0  0  0  0  0  0  0  0  0  0
   10.8370   -2.1470   23.8350 C   0  0  0  0  0  0  0  0  0  0  0  0
   11.8760   -2.9460   24.4060 O   0  0  0  0  0  0  0  0  0  0  0  0
   11.2130   -1.4040   22.7210 C   0  0  2  0  0  0  0  0  0  0  0  0
   12.5530   -1.0440   22.7040 C   0  0  0  0  0  0  0  0  0  0  0  0
   12.9400    0.1760   23.2350 C   0  0  0  0  0  0  0  0  0  0  0  0
   12.0710    1.2440   23.0780 C   0  0  0  0  0  0  0  0  0  0  0  0
   10.5870    0.8720   22.9180 C   0  0  0  0  0  0  0  0  0  0  0  0
   10.3180   -0.3770   22.3730 C   0  0  2  0  0  0  0  0  0  0  0  0
    8.9020   -0.6010   22.5890 N   0  0  0  0  0  0  0  0  0  0  0  0
    8.1610   -0.6220   21.4350 C   0  0  0  0  0  0  0  0  0  0  0  0
    8.5860   -1.0400   20.4270 O   0  0  0  0  0  0  0  0  0  0  0  0
    6.8890   -0.1360   21.4760 N   0  0  0  0  0  0  0  0  0  0  0  0
    6.2790    0.3540   20.3420 C   0  0  0  0  0  0  0  0  0  0  0  0
    5.1150    1.0940   20.3030 C   0  0  0  0  0  0  0  0  0  0  0  0
    4.5560    1.5720   19.1310 C   0  0  0  0  0  0  0  0  0  0  0  0
    5.1830    1.3060   17.9250 C   0  0  0  0  0  0  0  0  0  0  0  0
    6.3210    0.5840   17.8600 N   0  0  0  0  0  0  0  0  0  0  0  0
    6.8480    0.1150   19.0820 C   0  0  0  0  0  0  0  0  0  0  0  0
  1  2  1  0
  2  3  1  0
  3  4  1  0
  4  5  2  0
  6  4  1  1
  6  7  1  0
  7  8  1  0
  8  9  1  0
  9 10  1  0
  6 11  1  0
 10 11  1  0
 11 12  1  1
 12 13  1  0
 13 14  2  0
 13 15  1  0
 15 16  1  0
 16 17  2  0
 17 18  1  0
 18 19  2  0
 19 20  1  0
 16 21  1  0
 20 21  2  0
M  END
