pyridine_urea_13907
     RDKit          3D

 24 26  0  0  0  0  0  0  0  0999 V2000
   10.7290    0.0690   23.3120 C   0  0  0  0  0  0  0  0  0  0  0  0
   11.8750    0.2400   23.0840 C   0  0  0  0  0  0  0  0  0  0  0  0
   13.1750    0.8930   22.9540 C   0  0  0  0  0  0  0  0  0  0  0  0
   12.8480   -0.4610   22.6550 C   0  0  0  0  0  0  0  0  0  0  0  0
   11.4820   -0.9080   22.8370 C   0  0  0  0  0  0  0  0  0  0  0  0
   10.0450   -0.4920   23.2600 C   0  0  0  0  0  0  0  0  0  0  0  0
    9.1330   -0.8210   22.1440 N   0  0  0  0  0  0  0  0  0  0  0  0
    8.3710    0.1170   21.5180 C   0  0  0  0  0  0  0  0  0  0  0  0
    8.6560    1.4550   21.0740 O   0  0  0  0  0  0  0  0  0  0  0  0
    7.0290   -0.3320   21.2210 N   0  0  0  0  0  0  0  0  0  0  0  0
    6.4420    0.2230   20.0210 C   0  0  0  0  0  0  0  0  0  0  0  0
    5.2020    1.0330   20.2420 C   0  0  0  0  0  0  0  0  0  0  0  0
    4.6090    1.6120   19.1310 C   0  0  0  0  0  0  0  0  0  0  0  0
    5.1340    1.4590   17.8510 C   0  0  0  0  0  0  0  0  0  0  0  0
    6.3260    0.6630   17.6610 N   0  0  0  0  0  0  0  0  0  0  0  0
    6.9120    0.0890   18.7440 C   0  0  0  0  0  0  0  0  0  0  0  0
   11.6810   -2.1910   22.4550 C   0  0  0  0  0  0  0  0  0  0  0  0
   10.3840   -2.5270   22.6880 N   0  0  0  0  0  0  0  0  0  0  0  0
    9.3070   -2.5320   21.8660 C   0  0  0  0  0  0  0  0  0  0  0  0
    8.1370   -2.9650   22.6360 C   0  0  0  0  0  0  0  0  0  0  0  0
    6.4910   -3.1640   22.1570 Cl  0  0  0  0  0  0  0  0  0  0  0  0
    8.6740   -3.1740   23.8630 C   0  0  0  0  0  0  0  0  0  0  0  0
   10.0270   -2.9330   23.9560 N   0  0  0  0  0  0  0  0  0  0  0  0
   12.4860   -1.0450   22.5740 N   0  0  0  0  0  0  0  0  0  0  0  0
  1  2  1  0
  2  3  2  0
  3  4  1  0
  4  5  2  0
  5  6  1  0
  6  7  1  0
  7  8  1  0
  8  9  2  0
  8 10  1  0
 10 11  1  0
 11 12  2  0
 12 13  1  0
 13 14  2  0
 14 15  1  0
 11 16  1  0
 15 16  2  0
  5 17  1  0
 17 18  1  0
 18 19  1  0
 19 20  2  0
 20 21  1  0
 20 22  1  0
 18 23  1  0
 22 23  2  0
  2 24  1  0
 17 24  2  0
M  END
