pyridine_urea_1249
     RDKit          3D

 21 22  0  0  0  0  0  0  0  0999 V2000
   13.7680   -2.3640   24.5110 C   0  0  0  0  0  0  0  0  0  0  0  0
   13.7410   -1.0740   23.8710 O   0  0  0  0  0  0  0  0  0  0  0  0
   12.4740   -0.7370   23.7140 C   0  0  0  0  0  0  0  0  0  0  0  0
   11.8780    0.6120   23.9800 C   0  0  0  0  0  0  0  0  0  0  0  0
   10.5690    1.0950   23.9020 C   0  0  0  0  0  0  0  0  0  0  0  0
    9.2060    1.1320   23.6970 C   0  0  0  0  0  0  0  0  0  0  0  0
    8.7870    0.0510   22.8010 N   0  0  0  0  0  0  0  0  0  0  0  0
    8.4150    0.4570   21.5510 C   0  0  0  0  0  0  0  0  0  0  0  0
    8.9530    1.4320   21.0400 O   0  0  0  0  0  0  0  0  0  0  0  0
    7.3970   -0.3070   21.0250 N   0  0  0  0  0  0  0  0  0  0  0  0
    6.5730    0.2300   20.0450 C   0  0  0  0  0  0  0  0  0  0  0  0
    5.3880    0.9470   20.2910 C   0  0  0  0  0  0  0  0  0  0  0  0
    4.6550    1.4720   19.2300 C   0  0  0  0  0  0  0  0  0  0  0  0
    5.0980    1.2880   17.9310 C   0  0  0  0  0  0  0  0  0  0  0  0
    6.2340    0.5830   17.6890 N   0  0  0  0  0  0  0  0  0  0  0  0
    6.9640    0.0570   18.7360 C   0  0  0  0  0  0  0  0  0  0  0  0
    9.8660   -0.2470   23.4270 C   0  0  0  0  0  0  0  0  0  0  0  0
   10.3790   -1.5000   23.1580 C   0  0  0  0  0  0  0  0  0  0  0  0
    9.1370   -2.8160   22.6200 Br  0  0  0  0  0  0  0  0  0  0  0  0
   11.7110   -1.7130   23.3100 C   0  0  0  0  0  0  0  0  0  0  0  0
   12.1980   -3.0060   23.0330 O   0  0  0  0  0  0  0  0  0  0  0  0
  1  2  1  0
  2  3  1  0
  3  4  2  0
  4  5  1  0
  5  6  1  0
  6  7  1  0
  7  8  1  0
  8  9  2  0
  8 10  1  0
 10 11  1  0
 11 12  2  0
 12 13  1  0
 13 14  2  0
 14 15  1  0
 11 16  1  0
 15 16  2  0
  5 17  2  0
 17 18  1  0
 18 19  1  0
  3 20  1  0
 18 20  2  0
 20 21  1  0
M  END
