pyridine_urea_1289
     RDKit          3D

 20 22  0  0  0  0  0  0  0  0999 V2000
    7.6850   -3.0580   23.1070 C   0  0  0  0  0  0  0  0  0  0  0  0
    8.2390   -2.6420   24.2920 N   0  0  0  0  0  0  0  0  0  0  0  0
    7.5670   -2.7690   25.5510 C   0  0  0  0  0  0  0  0  0  0  0  0
    8.0290   -1.6340   26.4010 C   0  0  0  0  0  0  0  0  0  0  0  0
    8.9060   -0.8330   25.7670 N   0  0  0  0  0  0  0  0  0  0  0  0
    9.6420    0.2800   25.9580 N   0  0  0  0  0  0  0  0  0  0  0  0
   10.2670    0.4130   24.7710 C   0  0  0  0  0  0  0  0  0  0  0  0
    9.9690   -0.5460   23.8430 C   0  0  0  0  0  0  0  0  0  0  0  0
   10.5260   -0.5450   22.5830 C   0  0  0  0  0  0  0  0  0  0  0  0
    9.4260   -0.8210   21.8170 N   0  0  0  0  0  0  0  0  0  0  0  0
    8.5440    0.1200   21.3470 C   0  0  0  0  0  0  0  0  0  0  0  0
    8.8690    1.3020   21.1960 O   0  0  0  0  0  0  0  0  0  0  0  0
    7.3160   -0.4120   21.0520 N   0  0  0  0  0  0  0  0  0  0  0  0
    6.5570    0.1430   20.0260 C   0  0  0  0  0  0  0  0  0  0  0  0
    5.4000    0.8340   20.3130 C   0  0  0  0  0  0  0  0  0  0  0  0
    4.6430    1.4180   19.3030 C   0  0  0  0  0  0  0  0  0  0  0  0
    5.1030    1.2760   17.9900 C   0  0  0  0  0  0  0  0  0  0  0  0
    6.2160    0.6000   17.6830 N   0  0  0  0  0  0  0  0  0  0  0  0
    6.9130    0.0510   18.7010 C   0  0  0  0  0  0  0  0  0  0  0  0
    9.0760   -1.3860   24.4670 C   0  0  0  0  0  0  0  0  0  0  0  0
  1  2  1  0
  2  3  1  0
  3  4  2  0
  4  5  1  0
  5  6  1  0
  6  7  2  0
  7  8  1  0
  8  9  1  0
  9 10  1  0
 10 11  1  0
 11 12  2  0
 11 13  1  0
 13 14  1  0
 14 15  2  0
 15 16  1  0
 16 17  2  0
 17 18  1  0
 14 19  1  0
 18 19  2  0
  2 20  1  0
  5 20  1  0
  8 20  2  0
M  END
