pyridine_urea_4693
     RDKit          3D

 22 24  0  0  0  0  0  0  0  0999 V2000
    8.8190    1.3080   21.0080 O   0  0  0  0  0  0  0  0  0  0  0  0
    8.5000    0.1940   21.4460 C   0  0  0  0  0  0  0  0  0  0  0  0
    7.2800   -0.3750   21.1760 N   0  0  0  0  0  0  0  0  0  0  0  0
    6.6130    0.1400   20.0210 C   0  0  0  0  0  0  0  0  0  0  0  0
    5.3580    0.9840   20.2870 C   0  0  0  0  0  0  0  0  0  0  0  0
    4.6540    1.5450   19.2290 C   0  0  0  0  0  0  0  0  0  0  0  0
    5.1330    1.3100   17.9460 C   0  0  0  0  0  0  0  0  0  0  0  0
    6.2500    0.5420   17.7550 N   0  0  0  0  0  0  0  0  0  0  0  0
    7.0050   -0.0530   18.7630 C   0  0  0  0  0  0  0  0  0  0  0  0
    9.2600   -0.6220   22.2290 N   0  0  0  0  0  0  0  0  0  0  0  0
   10.0000   -1.4200   23.0230 C   0  0  2  0  0  0  0  0  0  0  0  0
   10.5060   -0.8170   24.1490 C   0  0  0  0  0  0  0  0  0  0  0  0
   12.2580   -1.1360   24.2510 S   0  0  0  0  0  0  0  0  0  0  0  0
   12.7370   -1.7340   25.4680 O   0  0  0  0  0  0  0  0  0  0  0  0
   13.0010   -0.1620   23.4770 O   0  0  0  0  0  0  0  0  0  0  0  0
   11.7700   -2.4780   23.3690 C   0  0  0  0  0  0  0  0  0  0  0  0
   10.9570   -2.1070   22.3340 C   0  0  2  0  0  0  0  0  0  0  0  0
   11.6710   -1.3780   21.5940 N   0  0  0  0  0  0  0  0  0  0  0  0
   12.3530   -2.3710   20.8750 C   0  0  0  0  0  0  0  0  0  0  0  0
   13.1720   -2.7730   21.9710 C   0  0  0  0  0  0  0  0  0  0  0  0
   13.5800   -1.7130   22.6690 C   0  0  0  0  0  0  0  0  0  0  0  0
   12.6520   -0.6970   22.2790 C   0  0  0  0  0  0  0  0  0  0  0  0
  1  2  2  0
  2  3  1  0
  3  4  1  0
  4  5  2  0
  5  6  1  0
  6  7  2  0
  7  8  1  0
  4  9  1  0
  8  9  2  0
  2 10  1  0
 11 10  1  6
 11 12  1  0
 13 12  1  0
 13 14  2  0
 13 15  2  0
 13 16  1  0
 11 17  1  0
 16 17  1  0
 17 18  1  6
 18 19  1  0
 19 20  1  0
 20 21  1  0
 18 22  1  0
 21 22  1  0
M  END
