pyridine_urea_5556
     RDKit          3D

 17 17  0  0  0  0  0  0  0  0999 V2000
    8.9650   -0.1690   25.7820 C   0  0  0  0  0  0  0  0  0  0  0  0
    9.4620    0.6840   24.6150 C   0  0  0  0  0  0  0  0  0  0  0  0
   10.6070   -0.1150   23.9110 C   0  0  0  0  0  0  0  0  0  0  0  0
   11.2740   -1.0220   24.7400 C   0  0  0  0  0  0  0  0  0  0  0  0
   11.6890    0.9300   23.5290 C   0  0  0  0  0  0  0  0  0  0  0  0
   12.8880    0.3100   23.1620 C   0  0  0  0  0  0  0  0  0  0  0  0
   10.3160   -0.6070   22.6280 C   0  0  0  0  0  0  0  0  0  0  0  0
    9.1920   -0.8770   22.4810 N   0  0  0  0  0  0  0  0  0  0  0  0
    8.5580    0.0630   21.5430 C   0  0  0  0  0  0  0  0  0  0  0  0
    8.9310    1.1890   21.1960 O   0  0  0  0  0  0  0  0  0  0  0  0
    7.3410   -0.5850   21.0800 N   0  0  0  0  0  0  0  0  0  0  0  0
    6.6460    0.0160   20.0640 C   0  0  0  0  0  0  0  0  0  0  0  0
    5.3990    0.8160   20.4580 C   0  0  0  0  0  0  0  0  0  0  0  0
    4.6100    1.5160   19.3560 C   0  0  0  0  0  0  0  0  0  0  0  0
    5.1700    1.3340   17.9660 C   0  0  0  0  0  0  0  0  0  0  0  0
    6.2960    0.5850   17.7210 N   0  0  0  0  0  0  0  0  0  0  0  0
    7.0140   -0.0590   18.7350 C   0  0  0  0  0  0  0  0  0  0  0  0
  1  2  1  0
  3  2  1  0
  3  4  1  0
  3  5  1  0
  5  6  1  0
  3  7  1  0
  7  8  1  0
  8  9  1  0
  9 10  2  0
  9 11  1  0
 11 12  1  0
 12 13  2  0
 13 14  1  0
 14 15  2  0
 15 16  1  0
 12 17  1  0
 16 17  2  0
M  END
