pyridine_urea_2922
     RDKit          3D

 22 23  0  0  0  0  0  0  0  0999 V2000
    6.8630    1.7290   25.1290 O   0  0  0  0  0  0  0  0  0  0  0  0
    7.7590    1.2140   24.4720 C   0  0  0  0  0  0  0  0  0  0  0  0
    7.6240   -0.2020   23.9070 C   0  0  0  0  0  0  0  0  0  0  0  0
    8.6520   -0.5010   22.9120 N   0  0  0  0  0  0  0  0  0  0  0  0
    8.2540    0.0400   21.6060 C   0  0  0  0  0  0  0  0  0  0  0  0
    8.9370    1.2300   21.1490 O   0  0  0  0  0  0  0  0  0  0  0  0
    7.1560   -0.7660   20.9800 N   0  0  0  0  0  0  0  0  0  0  0  0
    6.4540   -0.0290   19.9450 C   0  0  0  0  0  0  0  0  0  0  0  0
    5.1490    0.7300   20.2710 C   0  0  0  0  0  0  0  0  0  0  0  0
    4.5130    1.4430   19.2470 C   0  0  0  0  0  0  0  0  0  0  0  0
    5.1600    1.4210   17.8690 C   0  0  0  0  0  0  0  0  0  0  0  0
    6.3190    0.7160   17.6520 N   0  0  0  0  0  0  0  0  0  0  0  0
    6.9440    0.0090   18.6670 C   0  0  0  0  0  0  0  0  0  0  0  0
    8.9580    1.8040   24.1560 N   0  0  0  0  0  0  0  0  0  0  0  0
   10.1970    1.1450   24.0590 C   0  0  0  0  0  0  0  0  0  0  0  0
   10.3260   -0.2280   24.7220 C   0  0  0  0  0  0  0  0  0  0  0  0
   11.2640   -1.0560   23.8700 C   0  0  0  0  0  0  0  0  0  0  0  0
   12.4600   -1.6600   24.5810 C   0  0  0  0  0  0  0  0  0  0  0  0
   13.3370   -2.4310   23.8450 C   0  0  0  0  0  0  0  0  0  0  0  0
   13.1000   -2.6260   22.4780 C   0  0  0  0  0  0  0  0  0  0  0  0
   12.0090   -2.0660   21.8350 C   0  0  0  0  0  0  0  0  0  0  0  0
   11.1080   -1.2990   22.5100 C   0  0  0  0  0  0  0  0  0  0  0  0
  1  2  2  0
  2  3  1  0
  3  4  1  0
  4  5  1  0
  5  6  2  0
  5  7  1  0
  7  8  1  0
  8  9  2  0
  9 10  1  0
 10 11  2  0
 11 12  1  0
  8 13  1  0
 12 13  2  0
  2 14  1  0
 14 15  1  0
 15 16  1  0
 16 17  1  0
 17 18  2  0
 18 19  1  0
 19 20  2  0
 20 21  1  0
 17 22  1  0
 21 22  2  0
M  END
