pyridine_urea_2824
     RDKit          3D

 22 23  0  0  0  0  0  0  0  0999 V2000
   13.4140   -1.8000   20.7450 C   0  0  0  0  0  0  0  0  0  0  0  0
   13.0280   -3.1710   21.1350 C   0  0  0  0  0  0  0  0  0  0  0  0
   12.2330   -2.8970   22.2410 O   0  0  0  0  0  0  0  0  0  0  0  0
   11.0690   -2.2180   22.0290 C   0  0  0  0  0  0  0  0  0  0  0  0
    9.9010   -2.4780   21.2770 O   0  0  0  0  0  0  0  0  0  0  0  0
   11.0490   -1.1170   22.7750 C   0  0  0  0  0  0  0  0  0  0  0  0
    9.9130   -0.2940   23.0620 C   0  0  0  0  0  0  0  0  0  0  0  0
    8.6760   -0.5180   22.5860 N   0  0  0  0  0  0  0  0  0  0  0  0
    8.1960    0.2050   21.5270 C   0  0  0  0  0  0  0  0  0  0  0  0
    8.7610    1.2280   21.1080 O   0  0  0  0  0  0  0  0  0  0  0  0
    7.0230   -0.3570   21.0490 N   0  0  0  0  0  0  0  0  0  0  0  0
    6.3890    0.2290   19.9020 C   0  0  0  0  0  0  0  0  0  0  0  0
    5.1140    0.9960   20.2510 C   0  0  0  0  0  0  0  0  0  0  0  0
    4.4420    1.6690   19.0620 C   0  0  0  0  0  0  0  0  0  0  0  0
    5.1250    1.4840   17.7260 C   0  0  0  0  0  0  0  0  0  0  0  0
    6.2590    0.7520   17.5670 N   0  0  0  0  0  0  0  0  0  0  0  0
    6.8770    0.1360   18.6260 C   0  0  0  0  0  0  0  0  0  0  0  0
   10.2250    0.6910   23.8320 C   0  0  0  0  0  0  0  0  0  0  0  0
   11.5290    0.5200   24.0520 N   0  0  0  0  0  0  0  0  0  0  0  0
   12.1420   -0.6400   23.4040 N   0  0  0  0  0  0  0  0  0  0  0  0
   13.0670   -0.0850   24.0440 C   0  0  0  0  0  0  0  0  0  0  0  0
   13.0570   -0.9100   25.1680 C   0  0  0  0  0  0  0  0  0  0  0  0
  1  2  1  0
  2  3  1  0
  3  4  1  0
  4  5  2  0
  4  6  1  0
  6  7  2  0
  7  8  1  0
  8  9  1  0
  9 10  2  0
  9 11  1  0
 11 12  1  0
 12 13  2  0
 13 14  1  0
 14 15  2  0
 15 16  1  0
 12 17  1  0
 16 17  2  0
  7 18  1  0
 18 19  2  0
  6 20  1  0
 19 20  1  0
 20 21  1  0
 21 22  1  0
M  END
