pyridine_urea_760
     RDKit          3D

 23 25  0  0  0  0  0  0  0  0999 V2000
   13.7750   -1.3010   20.5160 N   0  0  0  0  0  0  0  0  0  0  0  0
   13.3540   -2.4170   21.1300 C   0  0  0  0  0  0  0  0  0  0  0  0
   13.1390   -3.4770   20.5680 O   0  0  0  0  0  0  0  0  0  0  0  0
   13.2470   -2.1100   22.4250 N   0  0  0  0  0  0  0  0  0  0  0  0
   13.6670   -2.9300   23.3280 C   0  0  0  0  0  0  0  0  0  0  0  0
   13.8550   -2.2390   24.4480 C   0  0  0  0  0  0  0  0  0  0  0  0
   12.8040   -1.9340   25.1020 C   0  0  0  0  0  0  0  0  0  0  0  0
   11.8260   -1.6000   24.2450 C   0  0  0  0  0  0  0  0  0  0  0  0
   10.6330   -1.2140   24.6500 C   0  0  0  0  0  0  0  0  0  0  0  0
    9.5670   -0.8970   23.6700 C   0  0  0  0  0  0  0  0  0  0  0  0
    9.7660   -1.0010   22.3480 C   0  0  0  0  0  0  0  0  0  0  0  0
    8.8680   -0.7720   21.4530 N   0  0  0  0  0  0  0  0  0  0  0  0
    8.1430    0.3330   21.2490 C   0  0  0  0  0  0  0  0  0  0  0  0
    8.6680    1.6680   21.1370 O   0  0  0  0  0  0  0  0  0  0  0  0
    6.7890   -0.0640   21.1260 N   0  0  0  0  0  0  0  0  0  0  0  0
    6.2070    0.4570   20.0010 C   0  0  0  0  0  0  0  0  0  0  0  0
    5.0490    1.2030   20.0650 C   0  0  0  0  0  0  0  0  0  0  0  0
    4.4570    1.7960   18.8520 C   0  0  0  0  0  0  0  0  0  0  0  0
    5.1240    1.5640   17.6510 C   0  0  0  0  0  0  0  0  0  0  0  0
    6.2730    0.7960   17.6230 N   0  0  0  0  0  0  0  0  0  0  0  0
    6.8020    0.2490   18.7790 C   0  0  0  0  0  0  0  0  0  0  0  0
   11.1070   -1.4220   21.9600 C   0  0  0  0  0  0  0  0  0  0  0  0
   12.0340   -1.6880   22.8890 C   0  0  0  0  0  0  0  0  0  0  0  0
  1  2  1  0
  2  3  2  0
  2  4  1  0
  4  5  1  0
  5  6  1  0
  6  7  1  0
  7  8  1  0
  8  9  1  0
  9 10  2  0
 10 11  1  0
 11 12  1  0
 12 13  1  0
 13 14  2  0
 13 15  1  0
 15 16  1  0
 16 17  2  0
 17 18  1  0
 18 19  2  0
 19 20  1  0
 16 21  1  0
 20 21  2  0
 11 22  2  0
  4 23  1  0
  8 23  2  0
 22 23  1  0
M  END
