pyridine_urea_12504
     RDKit          3D

 21 23  0  0  0  0  0  0  0  0999 V2000
   12.9360    3.8640   22.6130 C   0  0  0  0  0  0  0  0  0  0  0  0
   11.7560    2.9810   23.0120 C   0  0  0  0  0  0  0  0  0  0  0  0
   12.1700    1.7230   23.6030 O   0  0  0  0  0  0  0  0  0  0  0  0
   11.1680    0.8580   23.9740 C   0  0  1  0  0  0  0  0  0  0  0  0
   10.0490    1.1190   23.2690 C   0  0  0  0  0  0  0  0  0  0  0  0
   10.3150   -0.1160   22.5120 C   0  0  2  0  0  0  0  0  0  0  0  0
    9.1370   -0.8020   22.4110 N   0  0  0  0  0  0  0  0  0  0  0  0
    8.2370   -0.1250   21.5930 C   0  0  0  0  0  0  0  0  0  0  0  0
    8.4410    1.0440   21.2770 O   0  0  0  0  0  0  0  0  0  0  0  0
    7.1200   -0.8060   21.1150 N   0  0  0  0  0  0  0  0  0  0  0  0
    6.4590   -0.1200   20.0010 C   0  0  0  0  0  0  0  0  0  0  0  0
    5.1470    0.5840   20.3820 C   0  0  0  0  0  0  0  0  0  0  0  0
    4.4430    1.3490   19.2460 C   0  0  0  0  0  0  0  0  0  0  0  0
    5.1590    1.2930   17.9050 C   0  0  0  0  0  0  0  0  0  0  0  0
    6.3240    0.6160   17.7080 N   0  0  0  0  0  0  0  0  0  0  0  0
    6.9540   -0.0710   18.7210 C   0  0  0  0  0  0  0  0  0  0  0  0
   11.3210   -0.6290   23.3160 C   0  0  0  0  0  0  0  0  0  0  0  0
   11.0900   -1.8410   23.9390 C   0  0  0  0  0  0  0  0  0  0  0  0
   12.3560   -2.2940   24.2940 C   0  0  0  0  0  0  0  0  0  0  0  0
   13.2760   -1.4780   23.6420 C   0  0  0  0  0  0  0  0  0  0  0  0
   12.5790   -0.7160   22.7630 C   0  0  0  0  0  0  0  0  0  0  0  0
  1  2  1  0
  2  3  1  0
  4  3  1  6
  4  5  1  0
  5  6  1  0
  6  7  1  1
  7  8  1  0
  8  9  2  0
  8 10  1  0
 10 11  1  0
 11 12  2  0
 12 13  1  0
 13 14  2  0
 14 15  1  0
 11 16  1  0
 15 16  2  0
  4 17  1  0
  6 17  1  0
 17 18  1  0
 18 19  1  0
 19 20  1  0
 17 21  1  0
 20 21  1  0
M  END
