pyridine_urea_4369
     RDKit          3D

 23 25  0  0  0  0  0  0  0  0999 V2000
   11.6840   -1.0900   22.4600 C   0  0  0  0  0  0  0  0  0  0  0  0
   10.4030   -0.7400   23.2440 C   0  0  2  0  0  0  0  0  0  0  0  0
    9.1830   -1.1300   22.5040 N   0  0  0  0  0  0  0  0  0  0  0  0
    8.5730   -0.2420   21.6240 C   0  0  0  0  0  0  0  0  0  0  0  0
    9.0520    0.8480   21.3550 O   0  0  0  0  0  0  0  0  0  0  0  0
    7.3790   -0.7160   21.1100 N   0  0  0  0  0  0  0  0  0  0  0  0
    6.6340   -0.0690   20.1010 C   0  0  0  0  0  0  0  0  0  0  0  0
    5.3310    0.6470   20.4600 C   0  0  0  0  0  0  0  0  0  0  0  0
    4.5470    1.3520   19.3600 C   0  0  0  0  0  0  0  0  0  0  0  0
    5.2030    1.2420   17.9900 C   0  0  0  0  0  0  0  0  0  0  0  0
    6.3560    0.5830   17.7660 N   0  0  0  0  0  0  0  0  0  0  0  0
    7.0210   -0.0350   18.7740 C   0  0  0  0  0  0  0  0  0  0  0  0
   10.3320    0.7560   23.5090 C   0  0  0  0  0  0  0  0  0  0  0  0
   11.2760    1.6760   23.2120 C   0  0  0  0  0  0  0  0  0  0  0  0
   10.8840    2.8980   23.5330 N   0  0  0  0  0  0  0  0  0  0  0  0
   11.5600    4.0600   23.3430 C   0  0  0  0  0  0  0  0  0  0  0  0
   12.6010    4.0040   22.4150 C   0  0  0  0  0  0  0  0  0  0  0  0
   13.4130    5.2220   22.1090 C   0  0  0  0  0  0  0  0  0  0  0  0
   13.0830    6.3830   22.7860 C   0  0  0  0  0  0  0  0  0  0  0  0
   11.9750    6.4230   23.7700 C   0  0  0  0  0  0  0  0  0  0  0  0
   11.2510    5.2600   24.0140 C   0  0  0  0  0  0  0  0  0  0  0  0
    9.6240    2.8070   24.0960 N   0  0  0  0  0  0  0  0  0  0  0  0
    9.2920    1.4680   24.0790 N   0  0  0  0  0  0  0  0  0  0  0  0
  2  1  1  6
  2  3  1  0
  3  4  1  0
  4  5  2  0
  4  6  1  0
  6  7  1  0
  7  8  2  0
  8  9  1  0
  9 10  2  0
 10 11  1  0
  7 12  1  0
 11 12  2  0
  2 13  1  0
 13 14  2  0
 14 15  1  0
 15 16  1  0
 16 17  2  0
 17 18  1  0
 18 19  2  0
 19 20  1  0
 16 21  1  0
 20 21  2  0
 15 22  1  0
 13 23  1  0
 22 23  2  0
M  END
