pyridine_urea_773
     RDKit          3D

 23 24  0  0  0  0  0  0  0  0999 V2000
   10.4310    3.4400   22.6690 C   0  0  0  0  0  0  0  0  0  0  0  0
    9.2540    2.5680   22.3150 C   0  0  0  0  0  0  0  0  0  0  0  0
    9.5730    1.3600   22.2590 O   0  0  0  0  0  0  0  0  0  0  0  0
    9.5230    0.6310   23.4290 C   0  0  0  0  0  0  0  0  0  0  0  0
    9.0310    1.6130   23.9620 O   0  0  0  0  0  0  0  0  0  0  0  0
   10.0860   -0.2790   22.5270 C   0  0  1  0  0  0  0  0  0  0  0  0
   10.8810   -1.2750   23.1030 C   0  0  0  0  0  0  0  0  0  0  0  0
   12.3300   -1.4530   22.7580 C   0  0  0  0  0  0  0  0  0  0  0  0
   12.3800    0.0010   22.8760 C   0  0  0  0  0  0  0  0  0  0  0  0
   11.2930    0.9100   23.1830 C   0  0  0  0  0  0  0  0  0  0  0  0
   12.5100    1.4730   22.9800 C   0  0  0  0  0  0  0  0  0  0  0  0
   13.5770    0.5720   22.6690 C   0  0  0  0  0  0  0  0  0  0  0  0
   13.5830   -0.8320   22.5360 N   0  0  0  0  0  0  0  0  0  0  0  0
    8.9490   -1.0030   22.0170 N   0  0  0  0  0  0  0  0  0  0  0  0
    8.1010   -0.2310   21.2770 C   0  0  0  0  0  0  0  0  0  0  0  0
    8.3900    0.9100   20.9660 O   0  0  0  0  0  0  0  0  0  0  0  0
    6.9630   -0.8540   20.9470 N   0  0  0  0  0  0  0  0  0  0  0  0
    6.3120   -0.1330   20.0170 C   0  0  0  0  0  0  0  0  0  0  0  0
    5.1200    0.5700   20.1950 C   0  0  0  0  0  0  0  0  0  0  0  0
    4.5400    1.3100   19.1440 C   0  0  0  0  0  0  0  0  0  0  0  0
    5.1700    1.3420   17.9010 C   0  0  0  0  0  0  0  0  0  0  0  0
    6.3200    0.6660   17.6980 N   0  0  0  0  0  0  0  0  0  0  0  0
    6.8810   -0.0720   18.7680 C   0  0  0  0  0  0  0  0  0  0  0  0
  1  2  1  0
  2  3  1  0
  3  4  1  0
  4  5  2  0
  4  6  1  0
  6  7  1  1
  7  8  1  0
  8  9  2  0
  9 10  1  0
 10 11  2  0
 11 12  1  0
  8 13  1  0
 12 13  2  0
  6 14  1  0
 14 15  1  0
 15 16  2  0
 15 17  1  0
 17 18  1  0
 18 19  2  0
 19 20  1  0
 20 21  2  0
 21 22  1  0
 18 23  1  0
 22 23  2  0
M  END
