pyridine_urea_14779
     RDKit          3D

 20 21  0  0  0  0  0  0  0  0999 V2000
    8.9490    1.0780   21.2600 O   0  0  0  0  0  0  0  0  0  0  0  0
    8.4150   -0.0090   21.5390 C   0  0  0  0  0  0  0  0  0  0  0  0
    8.8710   -0.9100   22.4700 N   0  0  0  0  0  0  0  0  0  0  0  0
   10.0590   -0.7840   23.1970 C   0  0  0  0  0  0  0  0  0  0  0  0
   10.4780    0.4450   23.6670 C   0  0  0  0  0  0  0  0  0  0  0  0
   11.8100    0.7110   23.4300 C   0  0  0  0  0  0  0  0  0  0  0  0
   12.5470   -0.4130   23.6770 N   0  0  0  0  0  0  0  0  0  0  0  0
   12.8650   -0.7530   25.0510 C   0  0  0  0  0  0  0  0  0  0  0  0
   13.3990   -1.9450   25.3550 C   0  0  0  0  0  0  0  0  0  0  0  0
   13.5970   -2.8710   24.2410 C   0  0  0  0  0  0  0  0  0  0  0  0
   13.4540   -2.5660   22.9190 C   0  0  0  0  0  0  0  0  0  0  0  0
   13.1390   -1.2570   22.5820 C   0  0  0  0  0  0  0  0  0  0  0  0
   13.5000   -0.9530   21.2390 O   0  0  0  0  0  0  0  0  0  0  0  0
    7.2570   -0.4800   20.9720 N   0  0  0  0  0  0  0  0  0  0  0  0
    6.4780    0.1550   20.0200 C   0  0  0  0  0  0  0  0  0  0  0  0
    5.3190    0.8830   20.2620 C   0  0  0  0  0  0  0  0  0  0  0  0
    4.5920    1.5400   19.1570 C   0  0  0  0  0  0  0  0  0  0  0  0
    5.1490    1.3700   17.8990 C   0  0  0  0  0  0  0  0  0  0  0  0
    6.2560    0.6650   17.6280 N   0  0  0  0  0  0  0  0  0  0  0  0
    6.9020    0.0660   18.7100 C   0  0  0  0  0  0  0  0  0  0  0  0
  1  2  2  0
  2  3  1  0
  3  4  1  0
  4  5  1  0
  5  6  1  0
  6  7  1  0
  7  8  1  0
  8  9  2  0
  9 10  1  0
 10 11  2  0
  7 12  1  0
 11 12  1  0
 12 13  2  0
  2 14  1  0
 14 15  1  0
 15 16  2  0
 16 17  1  0
 17 18  2  0
 18 19  1  0
 15 20  1  0
 19 20  2  0
M  END
