pyridine_urea_13940
     RDKit          3D

 24 26  0  0  0  0  0  0  0  0999 V2000
    8.4650    1.1660   20.9220 O   0  0  0  0  0  0  0  0  0  0  0  0
    7.9080    0.1300   21.3200 C   0  0  0  0  0  0  0  0  0  0  0  0
    8.3050   -0.4870   22.4270 N   0  0  0  0  0  0  0  0  0  0  0  0
    9.5860   -0.0330   22.7740 C   0  0  0  0  0  0  0  0  0  0  0  0
   10.5150   -1.1630   22.8990 C   0  0  0  0  0  0  0  0  0  0  0  0
   11.8130   -0.6160   23.0070 C   0  0  0  0  0  0  0  0  0  0  0  0
   12.7560   -0.2340   22.4090 C   0  0  0  0  0  0  0  0  0  0  0  0
   13.3540    0.0480   23.6960 C   0  0  0  0  0  0  0  0  0  0  0  0
   11.8750   -0.5570   24.0400 C   0  0  0  0  0  0  0  0  0  0  0  0
   12.1970   -0.4540   25.3350 C   0  0  0  0  0  0  0  0  0  0  0  0
   12.7590   -0.2150   24.1330 C   0  0  0  0  0  0  0  0  0  0  0  0
   10.4720   -1.8300   24.2980 C   0  0  0  0  0  0  0  0  0  0  0  0
   11.4600   -2.7600   24.1880 C   0  0  0  0  0  0  0  0  0  0  0  0
   11.8520   -2.5370   22.9030 C   0  0  0  0  0  0  0  0  0  0  0  0
   13.2970   -2.5130   22.6550 C   0  0  0  0  0  0  0  0  0  0  0  0
   12.2960   -2.2620   21.5460 C   0  0  0  0  0  0  0  0  0  0  0  0
   10.7720   -2.2740   21.8600 C   0  0  0  0  0  0  0  0  0  0  0  0
    6.8580   -0.5230   20.7820 N   0  0  0  0  0  0  0  0  0  0  0  0
    6.1690    0.1620   19.8320 C   0  0  0  0  0  0  0  0  0  0  0  0
    4.9460    0.7850   20.0090 C   0  0  0  0  0  0  0  0  0  0  0  0
    4.4050    1.4650   18.9390 C   0  0  0  0  0  0  0  0  0  0  0  0
    5.1060    1.4940   17.7430 C   0  0  0  0  0  0  0  0  0  0  0  0
    6.2840    0.8810   17.5650 N   0  0  0  0  0  0  0  0  0  0  0  0
    6.7790    0.2340   18.6150 C   0  0  0  0  0  0  0  0  0  0  0  0
  1  2  2  0
  2  3  1  0
  3  4  1  0
  5  4  1  0
  5  6  1  0
  6  7  2  0
  7  8  1  0
  8  9  2  0
  9 10  1  0
  6 11  1  0
 10 11  2  0
  5 12  1  0
 12 13  1  0
 13 14  1  0
 14 15  1  0
 15 16  1  0
  5 17  1  0
 16 17  1  0
  2 18  1  0
 18 19  1  0
 19 20  2  0
 20 21  1  0
 21 22  2  0
 22 23  1  0
 19 24  1  0
 23 24  2  0
M  END
