pyridine_urea_2198
     RDKit          3D

 28 31  0  0  0  0  0  0  0  0999 V2000
    8.2250   -0.2960   21.9810 C   0  0  0  0  0  0  0  0  0  0  0  0
    9.6860    0.1230   22.2640 C   0  0  0  0  0  0  0  0  0  0  0  0
    9.9350    1.4320   22.7310 C   0  0  0  0  0  0  0  0  0  0  0  0
    8.5810    1.9950   22.7780 N   0  0  0  0  0  0  0  0  0  0  0  0
    8.0370    1.5790   21.5980 C   0  0  0  0  0  0  0  0  0  0  0  0
    8.6430    1.8190   20.6110 O   0  0  0  0  0  0  0  0  0  0  0  0
    6.8600    0.8780   21.5630 N   0  0  0  0  0  0  0  0  0  0  0  0
    6.2540    0.8220   20.3120 C   0  0  0  0  0  0  0  0  0  0  0  0
    5.0350    1.4350   20.2050 C   0  0  0  0  0  0  0  0  0  0  0  0
    4.3870    1.4500   18.9920 C   0  0  0  0  0  0  0  0  0  0  0  0
    5.0150    0.8310   17.9230 C   0  0  0  0  0  0  0  0  0  0  0  0
    6.1930    0.2150   17.9780 N   0  0  0  0  0  0  0  0  0  0  0  0
    6.7950    0.2170   19.1780 C   0  0  0  0  0  0  0  0  0  0  0  0
   11.2860    2.1070   23.0890 C   0  0  0  0  0  0  0  0  0  0  0  0
   12.3260    1.1620   22.8930 C   0  0  0  0  0  0  0  0  0  0  0  0
   12.2310   -0.2100   22.4320 C   0  0  0  0  0  0  0  0  0  0  0  0
   10.7740   -0.7100   22.0970 C   0  0  0  0  0  0  0  0  0  0  0  0
   10.2380   -1.8480   21.6630 C   0  0  0  0  0  0  0  0  0  0  0  0
    9.0420   -1.6320   20.9180 O   0  0  0  0  0  0  0  0  0  0  0  0
   10.6840   -2.8890   22.0450 N   0  0  0  0  0  0  0  0  0  0  0  0
    9.7950   -3.1290   23.1920 C   0  0  0  0  0  0  0  0  0  0  0  0
    9.3890   -1.9090   23.6260 C   0  0  0  0  0  0  0  0  0  0  0  0
   10.4510   -1.0450   23.6260 C   0  0  0  0  0  0  0  0  0  0  0  0
   10.4210    0.3630   24.5240 S   0  0  0  0  0  0  0  0  0  0  0  0
   12.0040    0.7750   24.0030 C   0  0  0  0  0  0  0  0  0  0  0  0
   12.5730   -0.2730   23.1000 C   0  0  0  0  0  0  0  0  0  0  0  0
   11.6890   -1.2900   22.9050 C   0  0  0  0  0  0  0  0  0  0  0  0
   11.9240   -2.4260   22.1530 C   0  0  0  0  0  0  0  0  0  0  0  0
  1  2  1  0
  2  3  2  0
  3  4  1  0
  4  5  1  0
  5  6  2  0
  5  7  1  0
  7  8  1  0
  8  9  2  0
  9 10  1  0
 10 11  2  0
 11 12  1  0
  8 13  1  0
 12 13  2  0
  3 14  1  0
 14 15  2  0
 15 16  1  0
  2 17  1  0
 16 17  2  0
 17 18  1  0
 18 19  2  0
 18 20  1  0
 20 21  1  0
 21 22  1  0
 22 23  1  0
 23 24  1  0
 24 25  1  0
 25 26  2  0
 23 27  2  0
 26 27  1  0
 20 28  1  0
 27 28  1  0
M  END
