pyridine_urea_8188
     RDKit          3D

 23 24  0  0  0  0  0  0  0  0999 V2000
    1.9970    4.2660   20.6740 C   0  0  0  0  0  0  0  0  0  0  0  0
    1.5730    3.2690   19.5570 C   0  0  0  0  0  0  0  0  0  0  0  0
    1.1620    4.0330   18.2380 C   0  0  0  0  0  0  0  0  0  0  0  0
    0.4380    2.3440   20.0180 C   0  0  0  0  0  0  0  0  0  0  0  0
    2.7850    2.5560   19.2600 O   0  0  0  0  0  0  0  0  0  0  0  0
    3.1080    1.2780   19.7650 C   0  0  0  0  0  0  0  0  0  0  0  0
    2.2260    0.4800   20.4250 O   0  0  0  0  0  0  0  0  0  0  0  0
    4.4610    0.9000   19.5410 C   0  0  0  0  0  0  0  0  0  0  0  0
    5.2120    0.9530   18.2470 C   0  0  0  0  0  0  0  0  0  0  0  0
    6.1270    0.8050   17.5790 N   0  0  0  0  0  0  0  0  0  0  0  0
    7.0250    0.2560   18.5870 C   0  0  0  0  0  0  0  0  0  0  0  0
    6.6530    0.0510   20.0560 C   0  0  0  0  0  0  0  0  0  0  0  0
    7.5280   -0.4550   21.0250 N   0  0  0  0  0  0  0  0  0  0  0  0
    8.5570    0.2800   21.5970 C   0  0  0  0  0  0  0  0  0  0  0  0
    8.9420    1.5600   21.0460 O   0  0  0  0  0  0  0  0  0  0  0  0
    9.1250   -0.3750   22.7110 N   0  0  0  0  0  0  0  0  0  0  0  0
   10.5000   -0.6240   22.6320 C   0  0  0  0  0  0  0  0  0  0  0  0
   11.3170   -0.2460   23.7730 C   0  0  0  0  0  0  0  0  0  0  0  0
   12.6540   -0.4560   23.6710 C   0  0  0  0  0  0  0  0  0  0  0  0
   13.1230   -1.0280   22.4890 C   0  0  0  0  0  0  0  0  0  0  0  0
   12.3430   -1.4100   21.4140 N   0  0  0  0  0  0  0  0  0  0  0  0
   10.8890   -1.2010   21.4410 C   0  0  0  0  0  0  0  0  0  0  0  0
    5.3320    0.4000   20.5010 C   0  0  0  0  0  0  0  0  0  0  0  0
  1  2  1  0
  2  3  1  0
  2  4  1  0
  2  5  1  0
  5  6  1  0
  6  7  2  0
  6  8  1  0
  8  9  2  0
  9 10  1  0
 10 11  2  0
 11 12  1  0
 12 13  1  0
 13 14  1  0
 14 15  2  0
 14 16  1  0
 16 17  1  0
 17 18  2  0
 18 19  1  0
 19 20  2  0
 20 21  1  0
 17 22  1  0
 21 22  2  0
  8 23  1  0
 12 23  2  0
M  END
