pyridine_urea_14928
     RDKit          3D

 19 20  0  0  0  0  0  0  0  0999 V2000
    8.8820    1.0990   21.2050 O   0  0  0  0  0  0  0  0  0  0  0  0
    8.3390    0.0220   21.5010 C   0  0  0  0  0  0  0  0  0  0  0  0
    8.7980   -0.8120   22.4910 N   0  0  0  0  0  0  0  0  0  0  0  0
   10.1770   -0.7010   22.8800 C   0  0  0  0  0  0  0  0  0  0  0  0
   10.3400    0.2420   24.0490 C   0  0  2  0  0  0  0  0  0  0  0  0
    9.8100    1.4820   23.8010 O   0  0  0  0  0  0  0  0  0  0  0  0
   11.7530    0.1260   24.5520 C   0  0  0  0  0  0  0  0  0  0  0  0
   12.5700   -0.7250   23.8100 O   0  0  0  0  0  0  0  0  0  0  0  0
   13.0130   -0.2530   22.6300 C   0  0  0  0  0  0  0  0  0  0  0  0
   13.2450   -1.2910   21.5780 C   0  0  0  0  0  0  0  0  0  0  0  0
   13.0800   -2.5860   22.1340 C   0  0  0  0  0  0  0  0  0  0  0  0
   12.0310   -2.3330   21.3560 C   0  0  0  0  0  0  0  0  0  0  0  0
    7.2090   -0.5160   20.9420 N   0  0  0  0  0  0  0  0  0  0  0  0
    6.4370    0.1370   19.9930 C   0  0  0  0  0  0  0  0  0  0  0  0
    5.2750    0.8420   20.2430 C   0  0  0  0  0  0  0  0  0  0  0  0
    4.6060    1.4700   19.1980 C   0  0  0  0  0  0  0  0  0  0  0  0
    5.1420    1.3610   17.9220 C   0  0  0  0  0  0  0  0  0  0  0  0
    6.2600    0.6720   17.6560 N   0  0  0  0  0  0  0  0  0  0  0  0
    6.8740    0.0820   18.6910 C   0  0  0  0  0  0  0  0  0  0  0  0
  1  2  2  0
  2  3  1  0
  3  4  1  0
  4  5  1  0
  5  6  1  6
  5  7  1  0
  7  8  1  0
  8  9  1  0
  9 10  1  0
 10 11  1  0
 10 12  1  0
 11 12  1  0
  2 13  1  0
 13 14  1  0
 14 15  2  0
 15 16  1  0
 16 17  2  0
 17 18  1  0
 14 19  1  0
 18 19  2  0
M  END
