pyridine_urea_7697
     RDKit          3D

 20 21  0  0  0  0  0  0  0  0999 V2000
   13.1990   -2.5400   20.9800 C   0  0  0  0  0  0  0  0  0  0  0  0
   13.3660   -1.3850   21.2150 O   0  0  0  0  0  0  0  0  0  0  0  0
   12.5600   -1.1650   22.2410 C   0  0  0  0  0  0  0  0  0  0  0  0
   11.5520   -1.8030   22.4690 O   0  0  0  0  0  0  0  0  0  0  0  0
   13.0280   -0.1490   23.0280 C   0  0  0  0  0  0  0  0  0  0  0  0
   12.1570    0.3360   23.9500 C   0  0  2  0  0  0  0  0  0  0  0  0
   11.4770   -0.6020   24.6120 C   0  0  0  0  0  0  0  0  0  0  0  0
   10.3490   -0.0820   24.1030 C   0  0  2  0  0  0  0  0  0  0  0  0
    9.7370   -0.9300   23.1860 C   0  0  0  0  0  0  0  0  0  0  0  0
    8.4450   -0.3170   22.9430 N   0  0  0  0  0  0  0  0  0  0  0  0
    8.2090    0.2140   21.7110 C   0  0  0  0  0  0  0  0  0  0  0  0
    8.9390    1.2710   21.2010 O   0  0  0  0  0  0  0  0  0  0  0  0
    7.1680   -0.4340   21.1140 N   0  0  0  0  0  0  0  0  0  0  0  0
    6.4830    0.1460   20.0690 C   0  0  0  0  0  0  0  0  0  0  0  0
    5.3160    0.8850   20.2560 C   0  0  0  0  0  0  0  0  0  0  0  0
    4.6300    1.4940   19.2150 C   0  0  0  0  0  0  0  0  0  0  0  0
    5.1220    1.3630   17.9250 C   0  0  0  0  0  0  0  0  0  0  0  0
    6.2240    0.6700   17.6120 N   0  0  0  0  0  0  0  0  0  0  0  0
    6.8790    0.0880   18.6200 C   0  0  0  0  0  0  0  0  0  0  0  0
   11.0090    1.0710   23.5480 C   0  0  0  0  0  0  0  0  0  0  0  0
  1  2  1  0
  2  3  1  0
  3  4  2  0
  3  5  1  0
  6  5  1  6
  6  7  1  0
  7  8  1  0
  8  9  1  6
  9 10  1  0
 10 11  1  0
 11 12  2  0
 11 13  1  0
 13 14  1  0
 14 15  2  0
 15 16  1  0
 16 17  2  0
 17 18  1  0
 14 19  1  0
 18 19  2  0
  6 20  1  0
  8 20  1  0
M  END
