pyridine_urea_4402
     RDKit          3D

 23 24  0  0  0  0  0  0  0  0999 V2000
    8.7890    1.1570   21.1420 O   0  0  0  0  0  0  0  0  0  0  0  0
    8.2840    0.0590   21.4270 C   0  0  0  0  0  0  0  0  0  0  0  0
    8.8660   -0.8150   22.2900 N   0  0  0  0  0  0  0  0  0  0  0  0
   10.2550   -0.5800   22.5240 C   0  0  0  0  0  0  0  0  0  0  0  0
   10.4650    0.6260   23.3990 C   0  0  0  0  0  0  0  0  0  0  0  0
   11.8650    0.7100   23.9650 C   0  0  0  0  0  0  0  0  0  0  0  0
   12.8880    0.3890   22.9160 C   0  0  0  0  0  0  0  0  0  0  0  0
   13.1410   -1.0650   22.5750 C   0  0  0  0  0  0  0  0  0  0  0  0
   11.8500   -1.8540   22.4100 C   0  0  0  0  0  0  0  0  0  0  0  0
   11.4490   -2.2940   23.6890 C   0  0  0  0  0  0  0  0  0  0  0  0
   10.0800   -2.1320   23.9490 C   0  0  0  0  0  0  0  0  0  0  0  0
    9.0970   -2.9670   23.4300 C   0  0  0  0  0  0  0  0  0  0  0  0
    7.7390   -2.7750   23.7140 C   0  0  0  0  0  0  0  0  0  0  0  0
    7.3420   -1.7150   24.5420 C   0  0  0  0  0  0  0  0  0  0  0  0
    8.3880   -0.8130   25.1020 C   0  0  0  0  0  0  0  0  0  0  0  0
    9.7220   -1.0560   24.7850 C   0  0  0  0  0  0  0  0  0  0  0  0
    7.1090   -0.4560   20.9620 N   0  0  0  0  0  0  0  0  0  0  0  0
    6.3690    0.1800   19.9840 C   0  0  0  0  0  0  0  0  0  0  0  0
    5.1810    0.8730   20.1750 C   0  0  0  0  0  0  0  0  0  0  0  0
    4.5570    1.4830   19.1140 C   0  0  0  0  0  0  0  0  0  0  0  0
    5.1530    1.3830   17.8620 C   0  0  0  0  0  0  0  0  0  0  0  0
    6.2950    0.7100   17.6470 N   0  0  0  0  0  0  0  0  0  0  0  0
    6.8680    0.1280   18.7060 C   0  0  0  0  0  0  0  0  0  0  0  0
  1  2  2  0
  2  3  1  0
  3  4  1  0
  4  5  1  0
  5  6  1  0
  6  7  1  0
  7  8  1  0
  8  9  1  0
  9 10  1  0
 10 11  1  0
 11 12  2  0
 12 13  1  0
 13 14  2  0
 14 15  1  0
 11 16  1  0
 15 16  2  0
  2 17  1  0
 17 18  1  0
 18 19  2  0
 19 20  1  0
 20 21  2  0
 21 22  1  0
 18 23  1  0
 22 23  2  0
M  END
