pyridine_urea_13846
     RDKit          3D

 25 27  0  0  0  0  0  0  0  0999 V2000
   11.8880   -1.6890   25.0230 C   0  0  0  0  0  0  0  0  0  0  0  0
   10.9840   -1.9600   24.3970 C   0  0  0  0  0  0  0  0  0  0  0  0
    9.6220   -2.2330   23.8110 C   0  0  0  0  0  0  0  0  0  0  0  0
    9.8960   -2.6060   22.4020 C   0  0  0  0  0  0  0  0  0  0  0  0
   11.3570   -2.7400   22.1690 N   0  0  0  0  0  0  0  0  0  0  0  0
   12.0340   -1.7250   21.7340 C   0  0  0  0  0  0  0  0  0  0  0  0
   13.1760   -1.7920   20.8340 O   0  0  0  0  0  0  0  0  0  0  0  0
   11.6810   -0.3450   22.2460 C   0  0  0  0  0  0  0  0  0  0  0  0
   12.8410    0.5110   22.5560 C   0  0  0  0  0  0  0  0  0  0  0  0
   12.7290    1.7930   22.9590 C   0  0  0  0  0  0  0  0  0  0  0  0
   11.2870    2.1680   23.0480 C   0  0  0  0  0  0  0  0  0  0  0  0
   10.2220    1.3770   22.7910 C   0  0  0  0  0  0  0  0  0  0  0  0
   10.3740    0.1090   22.3810 C   0  0  0  0  0  0  0  0  0  0  0  0
    9.2350   -0.5800   22.1110 N   0  0  0  0  0  0  0  0  0  0  0  0
    8.2730    0.0750   21.3460 C   0  0  0  0  0  0  0  0  0  0  0  0
    8.4470    1.4480   20.9090 O   0  0  0  0  0  0  0  0  0  0  0  0
    7.2020   -0.6810   21.0510 N   0  0  0  0  0  0  0  0  0  0  0  0
    6.4710   -0.0370   20.1250 C   0  0  0  0  0  0  0  0  0  0  0  0
    5.2000    0.7190   20.3690 C   0  0  0  0  0  0  0  0  0  0  0  0
    4.5570    1.3910   19.1930 C   0  0  0  0  0  0  0  0  0  0  0  0
    5.1570    1.2880   17.9440 C   0  0  0  0  0  0  0  0  0  0  0  0
    6.2870    0.6160   17.6830 N   0  0  0  0  0  0  0  0  0  0  0  0
    6.9280   -0.0490   18.8170 C   0  0  0  0  0  0  0  0  0  0  0  0
   12.1890   -2.8690   23.2190 C   0  0  0  0  0  0  0  0  0  0  0  0
   11.4620   -3.2610   24.2490 C   0  0  0  0  0  0  0  0  0  0  0  0
  1  2  1  0
  2  3  1  0
  3  4  1  0
  4  5  1  0
  5  6  1  0
  6  7  2  0
  6  8  1  0
  8  9  2  0
  9 10  1  0
 10 11  2  0
 11 12  1  0
  8 13  1  0
 12 13  2  0
 13 14  1  0
 14 15  1  0
 15 16  2  0
 15 17  1  0
 17 18  1  0
 18 19  2  0
 19 20  1  0
 20 21  2  0
 21 22  1  0
 18 23  1  0
 22 23  2  0
  5 24  1  0
  2 25  1  0
 24 25  1  0
M  END
