pyridine_urea_9048
     RDKit          3D

 19 20  0  0  0  0  0  0  0  0999 V2000
    9.1990    0.5880   21.4780 O   0  0  0  0  0  0  0  0  0  0  0  0
    8.6840   -0.5160   21.5470 C   0  0  0  0  0  0  0  0  0  0  0  0
    9.3590   -1.6430   22.0460 N   0  0  0  0  0  0  0  0  0  0  0  0
   10.4520   -1.6460   23.0620 C   0  0  0  0  0  0  0  0  0  0  0  0
   11.5300   -0.5640   22.8230 C   0  0  0  0  0  0  0  0  0  0  0  0
   10.2980   -0.0530   23.3020 C   0  0  0  0  0  0  0  0  0  0  0  0
    9.8720    1.2140   23.5640 C   0  0  0  0  0  0  0  0  0  0  0  0
   10.6780    2.2520   23.3630 C   0  0  0  0  0  0  0  0  0  0  0  0
   10.1660    3.8710   23.6230 Cl  0  0  0  0  0  0  0  0  0  0  0  0
   11.9050    1.9930   22.9320 C   0  0  0  0  0  0  0  0  0  0  0  0
   12.8680    3.6260   22.7020 Br  0  0  0  0  0  0  0  0  0  0  0  0
   12.3220    0.6680   22.6890 C   0  0  0  0  0  0  0  0  0  0  0  0
    7.3880   -0.8010   21.1310 N   0  0  0  0  0  0  0  0  0  0  0  0
    6.6580   -0.1250   20.1390 C   0  0  0  0  0  0  0  0  0  0  0  0
    5.5040    0.5900   20.5100 C   0  0  0  0  0  0  0  0  0  0  0  0
    4.7640    1.2810   19.5300 C   0  0  0  0  0  0  0  0  0  0  0  0
    5.2460    1.2240   18.1190 C   0  0  0  0  0  0  0  0  0  0  0  0
    6.3440    0.5340   17.7950 N   0  0  0  0  0  0  0  0  0  0  0  0
    7.0090   -0.1130   18.7900 C   0  0  0  0  0  0  0  0  0  0  0  0
  1  2  2  0
  2  3  1  0
  3  4  1  0
  4  5  1  0
  5  6  2  0
  6  7  1  0
  7  8  2  0
  8  9  1  0
  8 10  1  0
 10 11  1  0
  5 12  1  0
 10 12  2  0
  2 13  1  0
 13 14  1  0
 14 15  2  0
 15 16  1  0
 16 17  2  0
 17 18  1  0
 14 19  1  0
 18 19  2  0
M  END
