pyridine_urea_1468
     RDKit          3D

 20 21  0  0  0  0  0  0  0  0999 V2000
    7.2320    1.1210   24.2250 C   0  0  0  0  0  0  0  0  0  0  0  0
    7.8320   -0.1620   24.0380 O   0  0  0  0  0  0  0  0  0  0  0  0
    9.1330   -0.2910   24.4400 C   0  0  0  0  0  0  0  0  0  0  0  0
   10.2920   -0.5070   23.5270 C   0  0  0  0  0  0  0  0  0  0  0  0
   10.3080   -0.6290   22.1930 C   0  0  0  0  0  0  0  0  0  0  0  0
    9.0750   -1.1450   21.6950 N   0  0  0  0  0  0  0  0  0  0  0  0
    8.2250   -0.1930   21.2510 C   0  0  0  0  0  0  0  0  0  0  0  0
    8.5820    0.9760   21.1580 O   0  0  0  0  0  0  0  0  0  0  0  0
    7.0000   -0.6760   20.9110 N   0  0  0  0  0  0  0  0  0  0  0  0
    6.2720    0.0310   19.9740 C   0  0  0  0  0  0  0  0  0  0  0  0
    5.0670    0.6990   20.1660 C   0  0  0  0  0  0  0  0  0  0  0  0
    4.5010    1.3840   19.0900 C   0  0  0  0  0  0  0  0  0  0  0  0
    5.1770    1.3600   17.8830 C   0  0  0  0  0  0  0  0  0  0  0  0
    6.3270    0.7260   17.6530 N   0  0  0  0  0  0  0  0  0  0  0  0
    6.8150    0.0920   18.7120 C   0  0  0  0  0  0  0  0  0  0  0  0
   11.4390   -0.5570   24.4420 C   0  0  0  0  0  0  0  0  0  0  0  0
   12.8480   -0.7370   23.9370 C   0  0  0  0  0  0  0  0  0  0  0  0
   10.9880   -0.4240   25.7160 N   0  0  0  0  0  0  0  0  0  0  0  0
    9.6100   -0.2470   25.6650 N   0  0  0  0  0  0  0  0  0  0  0  0
    8.8740   -0.0440   26.8160 C   0  0  0  0  0  0  0  0  0  0  0  0
  1  2  1  0
  2  3  1  0
  3  4  2  0
  4  5  1  0
  5  6  1  0
  6  7  1  0
  7  8  2  0
  7  9  1  0
  9 10  1  0
 10 11  2  0
 11 12  1  0
 12 13  2  0
 13 14  1  0
 10 15  1  0
 14 15  2  0
  4 16  1  0
 16 17  1  0
 16 18  2  0
  3 19  1  0
 18 19  1  0
 19 20  1  0
M  END
