pyridine_urea_594
     RDKit          3D

 24 26  0  0  0  0  0  0  0  0999 V2000
   13.5660   -2.5320   25.4800 C   0  0  0  0  0  0  0  0  0  0  0  0
   13.5360   -1.5850   24.7500 O   0  0  0  0  0  0  0  0  0  0  0  0
   13.1310   -1.9330   23.5260 C   0  0  0  0  0  0  0  0  0  0  0  0
   13.7510   -2.9150   22.8750 C   0  0  0  0  0  0  0  0  0  0  0  0
   13.3980   -3.3370   21.5850 C   0  0  0  0  0  0  0  0  0  0  0  0
   12.3780   -2.7610   20.9600 C   0  0  0  0  0  0  0  0  0  0  0  0
   11.6940   -1.7810   21.5450 C   0  0  0  0  0  0  0  0  0  0  0  0
   12.1170   -1.3350   22.9200 C   0  0  0  0  0  0  0  0  0  0  0  0
   11.4080   -0.3570   23.4200 N   0  0  0  0  0  0  0  0  0  0  0  0
   11.8230    0.9400   23.5130 C   0  0  0  0  0  0  0  0  0  0  0  0
   10.7420    1.5150   24.1510 C   0  0  0  0  0  0  0  0  0  0  0  0
    9.5320    1.3500   23.5220 C   0  0  0  0  0  0  0  0  0  0  0  0
    9.2280   -0.0030   23.4780 C   0  0  1  0  0  0  0  0  0  0  0  0
    7.9810   -0.2300   22.9540 N   0  0  0  0  0  0  0  0  0  0  0  0
    7.7940    0.0200   21.5450 C   0  0  0  0  0  0  0  0  0  0  0  0
    8.4790    0.8390   20.9520 O   0  0  0  0  0  0  0  0  0  0  0  0
    6.8030   -0.7100   21.0140 N   0  0  0  0  0  0  0  0  0  0  0  0
    6.2920   -0.0520   19.9710 C   0  0  0  0  0  0  0  0  0  0  0  0
    5.1090    0.6610   20.1280 C   0  0  0  0  0  0  0  0  0  0  0  0
    4.5450    1.3750   19.0900 C   0  0  0  0  0  0  0  0  0  0  0  0
    5.1760    1.3780   17.8650 C   0  0  0  0  0  0  0  0  0  0  0  0
    6.3210    0.7000   17.6560 N   0  0  0  0  0  0  0  0  0  0  0  0
    6.8780   -0.0200   18.7190 C   0  0  0  0  0  0  0  0  0  0  0  0
   10.1850   -0.5900   22.7600 C   0  0  0  0  0  0  0  0  0  0  0  0
  1  2  1  0
  2  3  1  0
  3  4  2  0
  4  5  1  0
  5  6  2  0
  6  7  1  0
  3  8  1  0
  7  8  2  0
  8  9  1  0
  9 10  1  0
 10 11  1  0
 11 12  1  0
 12 13  1  0
 13 14  1  6
 14 15  1  0
 15 16  2  0
 15 17  1  0
 17 18  1  0
 18 19  2  0
 19 20  1  0
 20 21  2  0
 21 22  1  0
 18 23  1  0
 22 23  2  0
  9 24  1  0
 13 24  1  0
M  END
