pyridine_urea_1701
     RDKit          3D

 18 19  0  0  0  0  0  0  0  0999 V2000
   13.3370   -1.6680   21.2770 C   0  0  0  0  0  0  0  0  0  0  0  0
   12.6230   -1.2290   22.5180 C   0  0  0  0  0  0  0  0  0  0  0  0
   12.0470   -2.1600   23.3350 C   0  0  0  0  0  0  0  0  0  0  0  0
   11.1780   -1.6530   24.2600 C   0  0  0  0  0  0  0  0  0  0  0  0
   10.9000   -0.3520   23.9210 C   0  0  0  0  0  0  0  0  0  0  0  0
   10.5020   -0.2620   22.5990 C   0  0  0  0  0  0  0  0  0  0  0  0
    9.1330   -0.4940   22.3970 N   0  0  0  0  0  0  0  0  0  0  0  0
    8.4220    0.2270   21.4760 C   0  0  0  0  0  0  0  0  0  0  0  0
    8.7510    1.3600   21.1070 O   0  0  0  0  0  0  0  0  0  0  0  0
    7.3080   -0.4520   21.0250 N   0  0  0  0  0  0  0  0  0  0  0  0
    6.4580    0.1730   20.0210 C   0  0  0  0  0  0  0  0  0  0  0  0
    5.2810    0.8520   20.2700 C   0  0  0  0  0  0  0  0  0  0  0  0
    4.5880    1.4260   19.2080 C   0  0  0  0  0  0  0  0  0  0  0  0
    5.1150    1.2900   17.9370 C   0  0  0  0  0  0  0  0  0  0  0  0
    6.2440    0.6250   17.6710 N   0  0  0  0  0  0  0  0  0  0  0  0
    6.8830    0.0850   18.7170 C   0  0  0  0  0  0  0  0  0  0  0  0
   12.0940    0.5500   24.2880 C   0  0  0  0  0  0  0  0  0  0  0  0
   12.4930    0.1160   22.8960 C   0  0  0  0  0  0  0  0  0  0  0  0
  1  2  2  3
  2  3  1  0
  3  4  1  0
  4  5  1  0
  5  6  1  0
  6  7  1  0
  7  8  1  0
  8  9  2  0
  8 10  1  0
 10 11  1  0
 11 12  2  0
 12 13  1  0
 13 14  2  0
 14 15  1  0
 11 16  1  0
 15 16  2  0
  5 17  1  0
  2 18  1  0
 17 18  1  0
M  END
