pyridine_urea_14590
     RDKit          3D

 23 25  0  0  0  0  0  0  0  0999 V2000
   12.4010   -2.9260   24.6390 C   0  0  0  0  0  0  0  0  0  0  0  0
   13.4440   -2.0670   25.3250 C   0  0  0  0  0  0  0  0  0  0  0  0
   12.9260   -0.7470   25.4110 O   0  0  0  0  0  0  0  0  0  0  0  0
   12.0150   -0.7410   24.4420 C   0  0  0  0  0  0  0  0  0  0  0  0
   12.4570   -1.0430   23.1580 C   0  0  0  0  0  0  0  0  0  0  0  0
   11.5460   -1.1140   22.1720 C   0  0  0  0  0  0  0  0  0  0  0  0
   10.2110   -0.8690   22.4070 C   0  0  0  0  0  0  0  0  0  0  0  0
    9.2700   -0.9560   21.3390 N   0  0  0  0  0  0  0  0  0  0  0  0
    8.3430    0.0210   21.2040 C   0  0  0  0  0  0  0  0  0  0  0  0
    8.6930    1.3580   21.0910 O   0  0  0  0  0  0  0  0  0  0  0  0
    6.9850   -0.5420   21.1680 N   0  0  0  0  0  0  0  0  0  0  0  0
    6.3730    0.0910   20.0390 C   0  0  0  0  0  0  0  0  0  0  0  0
    5.2150    0.8370   20.2300 C   0  0  0  0  0  0  0  0  0  0  0  0
    4.6050    1.4800   19.1790 C   0  0  0  0  0  0  0  0  0  0  0  0
    5.1240    1.4040   17.8970 C   0  0  0  0  0  0  0  0  0  0  0  0
    6.2330    0.7000   17.6080 N   0  0  0  0  0  0  0  0  0  0  0  0
    6.8590    0.0300   18.7510 C   0  0  0  0  0  0  0  0  0  0  0  0
    9.6880   -0.5270   23.7280 C   0  0  0  0  0  0  0  0  0  0  0  0
    8.3580   -0.2920   23.9170 N   0  0  0  0  0  0  0  0  0  0  0  0
    7.9050   -0.0000   25.1970 C   0  0  0  0  0  0  0  0  0  0  0  0
    8.7550    0.0490   26.2570 C   0  0  0  0  0  0  0  0  0  0  0  0
   10.0910   -0.1940   26.0180 C   0  0  0  0  0  0  0  0  0  0  0  0
   10.6320   -0.4830   24.7470 C   0  0  0  0  0  0  0  0  0  0  0  0
  1  2  1  0
  2  3  1  0
  3  4  1  0
  4  5  2  0
  5  6  1  0
  6  7  2  0
  7  8  1  0
  8  9  1  0
  9 10  2  0
  9 11  1  0
 11 12  1  0
 12 13  2  0
 13 14  1  0
 14 15  2  0
 15 16  1  0
 12 17  1  0
 16 17  2  0
  7 18  1  0
 18 19  1  0
 19 20  2  0
 20 21  1  0
 21 22  2  0
  4 23  1  0
 18 23  2  0
 22 23  1  0
M  END
