pyridine_urea_10613
     RDKit          3D

 21 23  0  0  0  0  0  0  0  0999 V2000
    8.8030    1.7240   21.1570 O   0  0  0  0  0  0  0  0  0  0  0  0
    8.1650    0.8900   21.7940 C   0  0  0  0  0  0  0  0  0  0  0  0
    7.1270    0.1080   21.3250 N   0  0  0  0  0  0  0  0  0  0  0  0
    6.3750    0.5120   20.2330 C   0  0  0  0  0  0  0  0  0  0  0  0
    5.0610    1.2670   20.3900 C   0  0  0  0  0  0  0  0  0  0  0  0
    4.4160    1.6510   19.0760 C   0  0  0  0  0  0  0  0  0  0  0  0
    5.1300    1.2520   17.8280 C   0  0  0  0  0  0  0  0  0  0  0  0
    6.2800    0.5720   17.7950 N   0  0  0  0  0  0  0  0  0  0  0  0
    6.8570    0.2250   18.9560 C   0  0  0  0  0  0  0  0  0  0  0  0
    8.4700    0.6270   23.1040 N   0  0  0  0  0  0  0  0  0  0  0  0
    9.6500   -0.1100   23.2150 C   0  0  0  0  0  0  0  0  0  0  0  0
   10.5640   -0.0430   24.2590 C   0  0  0  0  0  0  0  0  0  0  0  0
   11.6430   -0.8660   24.2080 C   0  0  0  0  0  0  0  0  0  0  0  0
   12.6240   -1.0230   25.1230 C   0  0  0  0  0  0  0  0  0  0  0  0
   13.6620   -1.9420   24.9770 C   0  0  0  0  0  0  0  0  0  0  0  0
   13.8280   -2.7640   23.8480 C   0  0  0  0  0  0  0  0  0  0  0  0
   12.7850   -2.5800   22.8510 C   0  0  0  0  0  0  0  0  0  0  0  0
   11.7770   -1.7440   22.9920 C   0  0  0  0  0  0  0  0  0  0  0  0
   10.8750   -1.7370   22.0230 C   0  0  0  0  0  0  0  0  0  0  0  0
    9.7850   -0.9450   22.1220 C   0  0  0  0  0  0  0  0  0  0  0  0
    8.5430   -0.9670   20.9580 Cl  0  0  0  0  0  0  0  0  0  0  0  0
  1  2  2  0
  2  3  1  0
  3  4  1  0
  4  5  2  0
  5  6  1  0
  6  7  2  0
  7  8  1  0
  4  9  1  0
  8  9  2  0
  2 10  1  0
 10 11  1  0
 11 12  2  0
 12 13  1  0
 13 14  2  0
 14 15  1  0
 15 16  2  0
 16 17  1  0
 13 18  1  0
 17 18  2  0
 18 19  1  0
 11 20  1  0
 19 20  2  0
 20 21  1  0
M  END
