pyridine_urea_9656
     RDKit          3D

 21 23  0  0  0  0  0  0  0  0999 V2000
    8.5670    1.0250   21.1640 O   0  0  0  0  0  0  0  0  0  0  0  0
    8.3170   -0.1180   21.5290 C   0  0  0  0  0  0  0  0  0  0  0  0
    7.2100   -0.8000   21.0830 N   0  0  0  0  0  0  0  0  0  0  0  0
    6.5120   -0.0910   20.0420 C   0  0  0  0  0  0  0  0  0  0  0  0
    5.2330    0.6570   20.4120 C   0  0  0  0  0  0  0  0  0  0  0  0
    4.5110    1.4200   19.3020 C   0  0  0  0  0  0  0  0  0  0  0  0
    5.1640    1.3520   17.9230 C   0  0  0  0  0  0  0  0  0  0  0  0
    6.3380    0.6150   17.7520 N   0  0  0  0  0  0  0  0  0  0  0  0
    6.9720   -0.0700   18.7500 C   0  0  0  0  0  0  0  0  0  0  0  0
    9.1240   -0.8070   22.4060 N   0  0  0  0  0  0  0  0  0  0  0  0
   10.4080   -0.2510   22.5380 C   0  0  2  0  0  0  0  0  0  0  0  0
   11.5110   -1.0830   22.4930 C   0  0  0  0  0  0  0  0  0  0  0  0
   12.5400   -0.3590   23.0200 C   0  0  0  0  0  0  0  0  0  0  0  0
   11.8780    0.4970   23.8840 C   0  0  0  0  0  0  0  0  0  0  0  0
   10.5090    0.7130   23.5760 C   0  0  2  0  0  0  0  0  0  0  0  0
    9.5580    0.5680   24.6020 C   0  0  0  0  0  0  0  0  0  0  0  0
    9.8620   -0.2500   25.8090 C   0  0  0  0  0  0  0  0  0  0  0  0
    8.8710   -0.3470   26.7760 C   0  0  0  0  0  0  0  0  0  0  0  0
    7.5520    0.3210   26.6540 C   0  0  0  0  0  0  0  0  0  0  0  0
    7.3120    1.0780   25.5100 C   0  0  0  0  0  0  0  0  0  0  0  0
    8.2880    1.1910   24.5260 C   0  0  0  0  0  0  0  0  0  0  0  0
  1  2  2  0
  2  3  1  0
  3  4  1  0
  4  5  2  0
  5  6  1  0
  6  7  2  0
  7  8  1  0
  4  9  1  0
  8  9  2  0
  2 10  1  0
 11 10  1  1
 11 12  1  0
 12 13  1  0
 13 14  1  0
 11 15  1  0
 14 15  1  0
 15 16  1  1
 16 17  2  0
 17 18  1  0
 18 19  2  0
 19 20  1  0
 16 21  1  0
 20 21  2  0
M  END
