pyridine_urea_3943
     RDKit          3D

 29 31  0  0  0  0  0  0  0  0999 V2000
   13.3300    5.9840   22.5750 C   0  0  0  0  0  0  0  0  0  0  0  0
   11.8570    5.9110   22.3490 C   0  0  0  0  0  0  0  0  0  0  0  0
   11.1740    7.0420   22.9450 O   0  0  0  0  0  0  0  0  0  0  0  0
    9.8190    6.8970   23.0610 C   0  0  0  0  0  0  0  0  0  0  0  0
    8.7880    7.6060   22.3510 O   0  0  0  0  0  0  0  0  0  0  0  0
    9.2910    5.9940   23.9670 C   0  0  0  0  0  0  0  0  0  0  0  0
   10.1240    5.6980   25.0050 C   0  0  0  0  0  0  0  0  0  0  0  0
   11.2600    4.9480   24.6640 C   0  0  0  0  0  0  0  0  0  0  0  0
   11.2190    3.9160   23.6460 N   0  0  0  0  0  0  0  0  0  0  0  0
   12.2900    3.0960   23.1670 C   0  0  0  0  0  0  0  0  0  0  0  0
   13.4030    3.4770   22.8890 O   0  0  0  0  0  0  0  0  0  0  0  0
   11.8480    1.6260   22.9540 C   0  0  0  0  0  0  0  0  0  0  0  0
   10.5190    1.7260   22.9610 C   0  0  0  0  0  0  0  0  0  0  0  0
    9.7470    0.7200   22.7560 C   0  0  0  0  0  0  0  0  0  0  0  0
   10.3260   -0.4380   22.5220 C   0  0  0  0  0  0  0  0  0  0  0  0
    9.2630   -1.3570   22.2460 N   0  0  0  0  0  0  0  0  0  0  0  0
    8.3030   -0.6830   21.4140 C   0  0  0  0  0  0  0  0  0  0  0  0
    8.4710    0.4640   21.0120 O   0  0  0  0  0  0  0  0  0  0  0  0
    7.1380   -1.2230   21.0140 N   0  0  0  0  0  0  0  0  0  0  0  0
    6.4670   -0.4110   20.1240 C   0  0  0  0  0  0  0  0  0  0  0  0
    5.2010    0.3780   20.4100 C   0  0  0  0  0  0  0  0  0  0  0  0
    4.6110    1.2340   19.2760 C   0  0  0  0  0  0  0  0  0  0  0  0
    5.2330    1.2710   18.0360 C   0  0  0  0  0  0  0  0  0  0  0  0
    6.3780    0.5280   17.8410 N   0  0  0  0  0  0  0  0  0  0  0  0
    6.9750   -0.2780   18.8280 C   0  0  0  0  0  0  0  0  0  0  0  0
   11.7380   -0.5700   22.5450 C   0  0  0  0  0  0  0  0  0  0  0  0
   12.7290    0.4900   22.7760 C   0  0  0  0  0  0  0  0  0  0  0  0
   10.1720    4.2340   22.6840 C   0  0  0  0  0  0  0  0  0  0  0  0
    8.9960    4.6650   23.2830 C   0  0  0  0  0  0  0  0  0  0  0  0
  1  2  1  0
  2  3  1  0
  3  4  1  0
  4  5  2  0
  4  6  1  0
  6  7  1  0
  7  8  1  0
  8  9  1  0
  9 10  1  0
 10 11  2  0
 10 12  1  0
 12 13  2  0
 13 14  1  0
 14 15  2  0
 15 16  1  0
 16 17  1  0
 17 18  2  0
 17 19  1  0
 19 20  1  0
 20 21  2  0
 21 22  1  0
 22 23  2  0
 23 24  1  0
 20 25  1  0
 24 25  2  0
 15 26  1  0
 12 27  1  0
 26 27  2  0
  9 28  1  0
  6 29  1  0
 28 29  1  0
M  END
