pyridine_urea_3430
     RDKit          3D

 19 20  0  0  0  0  0  0  0  0999 V2000
    8.8970    1.4880   21.1000 O   0  0  0  0  0  0  0  0  0  0  0  0
    8.3170    0.5100   21.5720 C   0  0  0  0  0  0  0  0  0  0  0  0
    8.5440   -0.0050   22.7990 N   0  0  0  0  0  0  0  0  0  0  0  0
    8.9980   -1.2840   23.0360 C   0  0  0  0  0  0  0  0  0  0  0  0
   10.1160   -1.3840   23.8050 C   0  0  0  0  0  0  0  0  0  0  0  0
   11.4480   -1.4710   24.4000 C   0  0  0  0  0  0  0  0  0  0  0  0
   12.7800   -1.4460   23.9060 C   0  0  0  0  0  0  0  0  0  0  0  0
   13.7460   -1.5920   24.7880 F   0  0  0  0  0  0  0  0  0  0  0  0
   13.0840   -1.2810   22.4520 C   0  0  0  0  0  0  0  0  0  0  0  0
   11.8820   -1.2150   22.0160 C   0  0  0  0  0  0  0  0  0  0  0  0
   11.8550   -1.4490   23.8680 Br  0  0  0  0  0  0  0  0  0  0  0  0
   10.4790   -1.2400   22.4260 C   0  0  0  0  0  0  0  0  0  0  0  0
    7.3350   -0.2320   20.9680 N   0  0  0  0  0  0  0  0  0  0  0  0
    6.5140    0.3080   19.9960 C   0  0  0  0  0  0  0  0  0  0  0  0
    5.3480    1.0090   20.2520 C   0  0  0  0  0  0  0  0  0  0  0  0
    4.6340    1.5220   19.1770 C   0  0  0  0  0  0  0  0  0  0  0  0
    5.1270    1.3090   17.8950 C   0  0  0  0  0  0  0  0  0  0  0  0
    6.2410    0.6240   17.6340 N   0  0  0  0  0  0  0  0  0  0  0  0
    6.9070    0.1390   18.6890 C   0  0  0  0  0  0  0  0  0  0  0  0
  1  2  2  0
  2  3  1  0
  3  4  1  0
  4  5  1  0
  5  6  2  0
  6  7  1  0
  7  8  1  0
  7  9  2  0
  9 10  1  0
 10 11  1  0
  5 12  1  0
 10 12  2  0
  2 13  1  0
 13 14  1  0
 14 15  2  0
 15 16  1  0
 16 17  2  0
 17 18  1  0
 14 19  1  0
 18 19  2  0
M  END
