pyridine_urea_1955
     RDKit          3D

 20 22  0  0  0  0  0  0  0  0999 V2000
    8.8630    0.8540   21.4160 O   0  0  0  0  0  0  0  0  0  0  0  0
    8.4420   -0.2930   21.3360 C   0  0  0  0  0  0  0  0  0  0  0  0
    7.1600   -0.6600   21.0130 N   0  0  0  0  0  0  0  0  0  0  0  0
    6.3940    0.0330   20.0780 C   0  0  0  0  0  0  0  0  0  0  0  0
    5.0780    0.7600   20.3900 C   0  0  0  0  0  0  0  0  0  0  0  0
    4.4560    1.4540   19.1840 C   0  0  0  0  0  0  0  0  0  0  0  0
    5.1770    1.3510   17.8770 C   0  0  0  0  0  0  0  0  0  0  0  0
    6.3250    0.6770   17.7200 N   0  0  0  0  0  0  0  0  0  0  0  0
    6.8810    0.0580   18.7800 C   0  0  0  0  0  0  0  0  0  0  0  0
    9.2240   -1.3920   21.5410 N   0  0  0  0  0  0  0  0  0  0  0  0
    9.4560   -1.9460   22.8400 C   0  0  2  0  0  0  0  0  0  0  0  0
    9.4210   -0.9930   23.7770 C   0  0  0  0  0  0  0  0  0  0  0  0
   10.7690   -0.9170   23.9610 C   0  0  2  0  0  0  0  0  0  0  0  0
   11.4030    0.1210   23.3200 C   0  0  0  0  0  0  0  0  0  0  0  0
   12.7510    0.3310   23.6310 C   0  0  0  0  0  0  0  0  0  0  0  0
   13.4380    0.6340   22.5250 C   0  0  0  0  0  0  0  0  0  0  0  0
   13.3880   -0.7510   21.9820 C   0  0  0  0  0  0  0  0  0  0  0  0
   12.1580   -1.0260   22.3420 C   0  0  0  0  0  0  0  0  0  0  0  0
   11.6980   -2.2600   22.1870 C   0  0  0  0  0  0  0  0  0  0  0  0
   10.7690   -2.2760   23.1560 C   0  0  2  0  0  0  0  0  0  0  0  0
  1  2  2  0
  2  3  1  0
  3  4  1  0
  4  5  2  0
  5  6  1  0
  6  7  2  0
  7  8  1  0
  4  9  1  0
  8  9  2  0
  2 10  1  0
 11 10  1  6
 11 12  1  0
 13 12  1  6
 13 14  1  0
 14 15  1  0
 15 16  1  0
 16 17  1  0
 17 18  1  0
 18 19  1  0
 11 20  1  0
 13 20  1  0
 20 19  1  6
M  END
