pyridine_urea_6446
     RDKit          3D

 23 25  0  0  0  0  0  0  0  0999 V2000
   12.8230    4.5170   21.8190 C   0  0  0  0  0  0  0  0  0  0  0  0
   13.2890    3.7130   22.8970 O   0  0  0  0  0  0  0  0  0  0  0  0
   12.9400    2.3270   22.8040 C   0  0  0  0  0  0  0  0  0  0  0  0
   13.8410    1.2200   22.1350 C   0  0  0  0  0  0  0  0  0  0  0  0
   13.4840   -0.2670   22.0150 C   0  0  0  0  0  0  0  0  0  0  0  0
   12.3350   -0.6180   22.5270 C   0  0  0  0  0  0  0  0  0  0  0  0
   11.5060    0.4180   23.1570 C   0  0  0  0  0  0  0  0  0  0  0  0
   10.4610    0.8100   23.7600 C   0  0  0  0  0  0  0  0  0  0  0  0
    9.4610    0.6860   24.2250 C   0  0  0  0  0  0  0  0  0  0  0  0
    9.7970   -0.7040   23.6990 C   0  0  2  0  0  0  0  0  0  0  0  0
   10.9280   -0.9160   22.9040 C   0  0  0  0  0  0  0  0  0  0  0  0
    8.7250   -0.9930   22.7510 N   0  0  0  0  0  0  0  0  0  0  0  0
    8.3330   -0.0800   21.6330 C   0  0  0  0  0  0  0  0  0  0  0  0
    8.9710    1.0860   21.2920 O   0  0  0  0  0  0  0  0  0  0  0  0
    7.2130   -0.5770   21.0050 N   0  0  0  0  0  0  0  0  0  0  0  0
    6.4540    0.0920   20.0350 C   0  0  0  0  0  0  0  0  0  0  0  0
    5.1980    0.7930   20.6160 C   0  0  0  0  0  0  0  0  0  0  0  0
    4.6710    1.3950   19.3180 C   0  0  0  0  0  0  0  0  0  0  0  0
    5.2560    1.2850   17.9570 C   0  0  0  0  0  0  0  0  0  0  0  0
    6.3370    0.6290   17.6760 N   0  0  0  0  0  0  0  0  0  0  0  0
    6.8960    0.0560   18.7220 C   0  0  0  0  0  0  0  0  0  0  0  0
   10.2940    2.0310   24.1150 O   0  0  0  0  0  0  0  0  0  0  0  0
   11.6680    1.7020   23.3350 C   0  0  0  0  0  0  0  0  0  0  0  0
  1  2  1  0
  2  3  1  0
  3  4  2  0
  4  5  1  0
  5  6  2  0
  6  7  1  0
  7  8  1  0
  8  9  2  0
  9 10  1  0
 10 11  1  6
 10 12  1  0
 12 13  1  0
 13 14  2  0
 13 15  1  0
 15 16  1  0
 16 17  2  0
 17 18  1  0
 18 19  2  0
 19 20  1  0
 16 21  1  0
 20 21  2  0
  9 22  1  0
  3 23  1  0
  7 23  2  0
 22 23  1  0
M  END
