pyridine_urea_9745
     RDKit          3D

 26 29  0  0  0  0  0  0  0  0999 V2000
    8.7830    1.2910   21.0930 O   0  0  0  0  0  0  0  0  0  0  0  0
    8.4770    0.1740   21.5310 C   0  0  0  0  0  0  0  0  0  0  0  0
    7.3970   -0.5690   21.0840 N   0  0  0  0  0  0  0  0  0  0  0  0
    6.6290    0.0580   20.0450 C   0  0  0  0  0  0  0  0  0  0  0  0
    5.3710    0.8220   20.4520 C   0  0  0  0  0  0  0  0  0  0  0  0
    4.5740    1.5060   19.3410 C   0  0  0  0  0  0  0  0  0  0  0  0
    5.1430    1.3440   17.9330 C   0  0  0  0  0  0  0  0  0  0  0  0
    6.3070    0.6000   17.7320 N   0  0  0  0  0  0  0  0  0  0  0  0
    7.0060   -0.0110   18.7300 C   0  0  0  0  0  0  0  0  0  0  0  0
    9.1870   -0.4620   22.5260 N   0  0  0  0  0  0  0  0  0  0  0  0
   10.0350    0.3040   23.3640 C   0  0  2  0  0  0  0  0  0  0  0  0
    9.6820    1.5870   23.6620 C   0  0  0  0  0  0  0  0  0  0  0  0
    8.4730    1.8870   24.2820 C   0  0  0  0  0  0  0  0  0  0  0  0
    8.1300    3.2010   24.5700 C   0  0  0  0  0  0  0  0  0  0  0  0
    8.9750    4.2710   24.2550 C   0  0  0  0  0  0  0  0  0  0  0  0
   10.2010    4.0260   23.6360 C   0  0  0  0  0  0  0  0  0  0  0  0
   10.5730    2.6170   23.3260 C   0  0  0  0  0  0  0  0  0  0  0  0
   11.4860    0.4460   22.9300 C   0  0  1  0  0  0  0  0  0  0  0  0
   12.2750    1.4230   23.2910 C   0  0  0  0  0  0  0  0  0  0  0  0
   12.3470    0.1550   24.0080 C   0  0  2  0  0  0  0  0  0  0  0  0
   12.6460   -0.9450   23.3750 C   0  0  0  0  0  0  0  0  0  0  0  0
   13.4820   -1.8540   23.9100 C   0  0  0  0  0  0  0  0  0  0  0  0
   13.7630   -2.9360   23.1760 C   0  0  0  0  0  0  0  0  0  0  0  0
   13.2250   -3.1310   21.9170 C   0  0  0  0  0  0  0  0  0  0  0  0
   12.3750   -2.2320   21.4010 C   0  0  0  0  0  0  0  0  0  0  0  0
   12.0710   -1.1260   22.1230 C   0  0  0  0  0  0  0  0  0  0  0  0
  1  2  2  0
  2  3  1  0
  3  4  1  0
  4  5  2  0
  5  6  1  0
  6  7  2  0
  7  8  1  0
  4  9  1  0
  8  9  2  0
  2 10  1  0
 11 10  1  6
 11 12  1  0
 12 13  2  0
 13 14  1  0
 14 15  2  0
 15 16  1  0
 12 17  1  0
 16 17  2  0
 11 18  1  0
 18 19  1  1
 18 20  1  0
 19 20  1  0
 20 21  1  6
 21 22  2  0
 22 23  1  0
 23 24  2  0
 24 25  1  0
 21 26  1  0
 25 26  2  0
M  END
