pyridine_urea_3735
     RDKit          3D

 20 22  0  0  0  0  0  0  0  0999 V2000
    8.5450    0.3020   20.9360 O   0  0  0  0  0  0  0  0  0  0  0  0
    8.0240   -0.6330   21.5010 C   0  0  0  0  0  0  0  0  0  0  0  0
    6.8390   -1.1370   21.0480 N   0  0  0  0  0  0  0  0  0  0  0  0
    6.2820   -0.3090   20.0030 C   0  0  0  0  0  0  0  0  0  0  0  0
    5.0130    0.4700   20.3270 C   0  0  0  0  0  0  0  0  0  0  0  0
    4.4250    1.3570   19.2290 C   0  0  0  0  0  0  0  0  0  0  0  0
    5.1900    1.3650   17.9080 C   0  0  0  0  0  0  0  0  0  0  0  0
    6.3450    0.5880   17.7650 N   0  0  0  0  0  0  0  0  0  0  0  0
    6.8630   -0.2040   18.7550 C   0  0  0  0  0  0  0  0  0  0  0  0
    8.5700   -1.1850   22.6380 N   0  0  0  0  0  0  0  0  0  0  0  0
    9.4490   -0.2400   23.1720 C   0  0  0  0  0  0  0  0  0  0  0  0
    9.0730    1.1030   23.0090 C   0  0  0  0  0  0  0  0  0  0  0  0
    8.0310    1.3720   23.8530 F   0  0  0  0  0  0  0  0  0  0  0  0
    8.6080    1.4020   21.7730 F   0  0  0  0  0  0  0  0  0  0  0  0
   10.7300   -0.4900   22.3990 C   0  0  0  0  0  0  0  0  0  0  0  0
   11.4060   -0.2080   23.4880 C   0  0  0  0  0  0  0  0  0  0  0  0
   12.7060   -0.6530   23.6240 C   0  0  0  0  0  0  0  0  0  0  0  0
   13.1720    0.3180   22.8440 C   0  0  0  0  0  0  0  0  0  0  0  0
   12.0620    1.2190   23.1880 C   0  0  0  0  0  0  0  0  0  0  0  0
   10.4140   -0.4210   24.4340 C   0  0  0  0  0  0  0  0  0  0  0  0
  1  2  2  0
  2  3  1  0
  3  4  1  0
  4  5  2  0
  5  6  1  0
  6  7  2  0
  7  8  1  0
  4  9  1  0
  8  9  2  0
  2 10  1  0
 11 10  1  0
 11 12  1  0
 12 13  1  0
 12 14  1  0
 11 15  1  0
 16 15  1  0
 16 17  1  0
 17 18  1  0
 16 19  1  0
 18 19  1  0
 11 20  1  0
 16 20  1  0
M  END
