pyridine_urea_2996
     RDKit          3D

 21 22  0  0  0  0  0  0  0  0999 V2000
   10.4460    0.7990   24.6220 C   0  0  0  0  0  0  0  0  0  0  0  0
   11.5920   -0.0890   24.1730 C   0  0  0  0  0  0  0  0  0  0  0  0
   12.7600   -0.4050   24.8230 N   0  0  0  0  0  0  0  0  0  0  0  0
   13.2280   -1.2930   23.6280 C   0  0  0  0  0  0  0  0  0  0  0  0
   12.5180   -1.5840   22.3290 C   0  0  0  0  0  0  0  0  0  0  0  0
   13.1240   -2.4470   21.2480 C   0  0  0  0  0  0  0  0  0  0  0  0
   13.6280   -3.4620   21.6170 O   0  0  0  0  0  0  0  0  0  0  0  0
   11.2400   -1.0670   22.0570 C   0  0  0  0  0  0  0  0  0  0  0  0
   10.0390   -0.2580   22.4420 C   0  0  0  0  0  0  0  0  0  0  0  0
    9.1750   -0.8850   21.5280 N   0  0  0  0  0  0  0  0  0  0  0  0
    8.2160    0.0220   21.1970 C   0  0  0  0  0  0  0  0  0  0  0  0
    8.4720    1.4290   21.0080 O   0  0  0  0  0  0  0  0  0  0  0  0
    6.9960   -0.5020   21.0230 N   0  0  0  0  0  0  0  0  0  0  0  0
    6.3120    0.1390   20.0710 C   0  0  0  0  0  0  0  0  0  0  0  0
    5.0050    0.8720   20.3170 C   0  0  0  0  0  0  0  0  0  0  0  0
    4.4000    1.5520   19.1010 C   0  0  0  0  0  0  0  0  0  0  0  0
    5.1880    1.4020   17.8120 C   0  0  0  0  0  0  0  0  0  0  0  0
    6.3340    0.7170   17.7200 N   0  0  0  0  0  0  0  0  0  0  0  0
    6.8490    0.1260   18.7970 C   0  0  0  0  0  0  0  0  0  0  0  0
   11.8620   -0.8060   23.1380 C   0  0  0  0  0  0  0  0  0  0  0  0
   13.1220   -1.4610   23.1850 O   0  0  0  0  0  0  0  0  0  0  0  0
  1  2  1  0
  2  3  2  0
  3  4  1  0
  4  5  2  0
  5  6  1  0
  6  7  1  0
  5  8  1  0
  8  9  1  0
  9 10  1  0
 10 11  1  0
 11 12  2  0
 11 13  1  0
 13 14  1  0
 14 15  2  0
 15 16  1  0
 16 17  2  0
 17 18  1  0
 14 19  1  0
 18 19  2  0
  2 20  1  0
  8 20  2  0
 20 21  1  0
M  END
