pyridine_urea_12871
     RDKit          3D

 21 22  0  0  0  0  0  0  0  0999 V2000
    7.4680   -0.1070   27.6150 C   0  0  0  0  0  0  0  0  0  0  0  0
    8.9640   -0.3710   27.3470 C   0  0  0  0  0  0  0  0  0  0  0  0
    9.4230    0.5080   26.3170 O   0  0  0  0  0  0  0  0  0  0  0  0
    9.7280   -0.3470   25.2960 C   0  0  0  0  0  0  0  0  0  0  0  0
    9.5080   -1.7920   25.3840 O   0  0  0  0  0  0  0  0  0  0  0  0
   10.2360    0.0100   24.0500 C   0  0  1  0  0  0  0  0  0  0  0  0
    9.4780    1.0760   23.5860 C   0  0  0  0  0  0  0  0  0  0  0  0
   11.6330    0.3530   24.0430 C   0  0  0  0  0  0  0  0  0  0  0  0
   12.3600   -0.2320   22.9990 C   0  0  0  0  0  0  0  0  0  0  0  0
   11.5060   -1.1800   22.4770 C   0  0  0  0  0  0  0  0  0  0  0  0
   10.3170   -1.0570   23.1350 C   0  0  2  0  0  0  0  0  0  0  0  0
    9.2050   -1.2020   22.1910 N   0  0  0  0  0  0  0  0  0  0  0  0
    8.5580   -0.1790   21.5170 C   0  0  0  0  0  0  0  0  0  0  0  0
    9.0660    0.9080   21.3070 O   0  0  0  0  0  0  0  0  0  0  0  0
    7.2950   -0.5670   21.1240 N   0  0  0  0  0  0  0  0  0  0  0  0
    6.5840    0.0440   20.0820 C   0  0  0  0  0  0  0  0  0  0  0  0
    5.3490    0.8460   20.3570 C   0  0  0  0  0  0  0  0  0  0  0  0
    4.6510    1.4630   19.3510 C   0  0  0  0  0  0  0  0  0  0  0  0
    5.1590    1.3040   18.0400 C   0  0  0  0  0  0  0  0  0  0  0  0
    6.2560    0.5950   17.7170 N   0  0  0  0  0  0  0  0  0  0  0  0
    6.9170   -0.0040   18.7440 C   0  0  0  0  0  0  0  0  0  0  0  0
  1  2  1  0
  2  3  1  0
  3  4  1  0
  4  5  2  0
  6  4  1  0
  6  7  1  6
  6  8  1  0
  8  9  1  0
  9 10  1  0
  6 11  1  0
 10 11  1  0
 11 12  1  6
 12 13  1  0
 13 14  2  0
 13 15  1  0
 15 16  1  0
 16 17  2  0
 17 18  1  0
 18 19  2  0
 19 20  1  0
 16 21  1  0
 20 21  2  0
M  END
