pyridine_urea_2926
     RDKit          3D

 22 24  0  0  0  0  0  0  0  0999 V2000
    8.6990    0.6450   21.1390 O   0  0  0  0  0  0  0  0  0  0  0  0
    8.4350   -0.5010   21.4630 C   0  0  0  0  0  0  0  0  0  0  0  0
    9.3540   -1.2050   22.2520 N   0  0  0  0  0  0  0  0  0  0  0  0
   10.3120   -0.1600   22.5340 C   0  0  0  0  0  0  0  0  0  0  0  0
   11.8930   -0.2860   22.5540 C   0  0  0  0  0  0  0  0  0  0  0  0
   12.6850    0.8930   22.7970 C   0  0  0  0  0  0  0  0  0  0  0  0
   11.9480    2.2780   23.0330 C   0  0  0  0  0  0  0  0  0  0  0  0
   12.3250    3.5850   23.2840 N   0  0  0  0  0  0  0  0  0  0  0  0
   11.3100    4.3440   23.8480 C   0  0  0  0  0  0  0  0  0  0  0  0
   11.7230    5.7980   23.9100 C   0  0  0  0  0  0  0  0  0  0  0  0
   12.8660    5.8290   23.1910 N   0  0  0  0  0  0  0  0  0  0  0  0
   13.0960    4.5760   22.5860 C   0  0  0  0  0  0  0  0  0  0  0  0
   13.9570    4.4760   21.4710 O   0  0  0  0  0  0  0  0  0  0  0  0
   10.5940    2.2430   23.0140 C   0  0  0  0  0  0  0  0  0  0  0  0
    9.7550    1.0610   22.7770 C   0  0  0  0  0  0  0  0  0  0  0  0
    7.2610   -1.0640   21.0530 N   0  0  0  0  0  0  0  0  0  0  0  0
    6.5450   -0.3330   20.0680 C   0  0  0  0  0  0  0  0  0  0  0  0
    5.2390    0.3820   20.3960 C   0  0  0  0  0  0  0  0  0  0  0  0
    4.5970    1.1020   19.3840 C   0  0  0  0  0  0  0  0  0  0  0  0
    5.1800    1.1380   18.1160 C   0  0  0  0  0  0  0  0  0  0  0  0
    6.3290    0.5090   17.8100 N   0  0  0  0  0  0  0  0  0  0  0  0
    6.9760   -0.2000   18.7670 C   0  0  0  0  0  0  0  0  0  0  0  0
  1  2  2  0
  2  3  1  0
  3  4  1  0
  4  5  2  0
  5  6  1  0
  6  7  2  0
  7  8  1  0
  8  9  1  0
  9 10  1  0
 10 11  1  0
  8 12  1  0
 11 12  1  0
 12 13  2  0
  7 14  1  0
  4 15  1  0
 14 15  2  0
  2 16  1  0
 16 17  1  0
 17 18  2  0
 18 19  1  0
 19 20  2  0
 20 21  1  0
 17 22  1  0
 21 22  2  0
M  END
