pyridine_urea_3443
     RDKit          3D

 19 20  0  0  0  0  0  0  0  0999 V2000
   10.9360   -1.7130   21.8610 C   0  0  0  0  0  0  0  0  0  0  0  0
   10.3780   -0.4190   22.5130 C   0  0  1  0  0  0  0  0  0  0  0  0
    9.2550   -0.8250   21.7040 N   0  0  0  0  0  0  0  0  0  0  0  0
    8.4120    0.1640   21.3320 C   0  0  0  0  0  0  0  0  0  0  0  0
    8.7790    1.3340   21.1930 O   0  0  0  0  0  0  0  0  0  0  0  0
    7.1570   -0.3140   21.1010 N   0  0  0  0  0  0  0  0  0  0  0  0
    6.4490    0.2180   20.0450 C   0  0  0  0  0  0  0  0  0  0  0  0
    5.1470    0.9450   20.3350 C   0  0  0  0  0  0  0  0  0  0  0  0
    4.4040    1.5570   19.1720 C   0  0  0  0  0  0  0  0  0  0  0  0
    5.1060    1.3400   17.8420 C   0  0  0  0  0  0  0  0  0  0  0  0
    6.2550    0.6690   17.6810 N   0  0  0  0  0  0  0  0  0  0  0  0
    6.8800    0.1380   18.7450 C   0  0  0  0  0  0  0  0  0  0  0  0
   11.1370   -1.1020   23.5850 C   0  0  0  0  0  0  0  0  0  0  0  0
   10.7110   -2.0060   24.3130 C   0  0  0  0  0  0  0  0  0  0  0  0
   12.0290   -1.4670   24.3690 C   0  0  0  0  0  0  0  0  0  0  0  0
   11.5860   -0.5160   23.2240 C   0  0  0  0  0  0  0  0  0  0  0  0
   12.9830    0.0040   23.3150 C   0  0  0  0  0  0  0  0  0  0  0  0
   12.4690   -0.9310   24.0120 C   0  0  0  0  0  0  0  0  0  0  0  0
   13.2750   -1.8360   25.2290 Cl  0  0  0  0  0  0  0  0  0  0  0  0
  2  1  1  6
  2  3  1  0
  3  4  1  0
  4  5  2  0
  4  6  1  0
  6  7  1  0
  7  8  2  0
  8  9  1  0
  9 10  2  0
 10 11  1  0
  7 12  1  0
 11 12  2  0
  2 13  1  0
 13 14  2  0
 14 15  1  0
 15 16  2  0
 16 17  1  0
 13 18  1  0
 17 18  2  0
 18 19  1  0
M  END
