pyridine_urea_13628
     RDKit          3D

 28 30  0  0  0  0  0  0  0  0999 V2000
    6.4860   -5.7350   21.8440 C   0  0  0  0  0  0  0  0  0  0  0  0
    6.7110   -5.9310   23.3520 C   0  0  0  0  0  0  0  0  0  0  0  0
    6.8720   -4.6690   24.0870 N   0  0  0  0  0  0  0  0  0  0  0  0
    6.4900   -3.4570   23.5630 C   0  0  0  0  0  0  0  0  0  0  0  0
    7.6290   -2.7020   22.8670 C   0  0  0  0  0  0  0  0  0  0  0  0
    8.9270   -2.7900   23.3360 N   0  0  0  0  0  0  0  0  0  0  0  0
   10.0370   -2.0890   22.7480 C   0  0  0  0  0  0  0  0  0  0  0  0
   11.2090   -2.4370   22.7140 O   0  0  0  0  0  0  0  0  0  0  0  0
    9.8090   -0.9120   22.0850 C   0  0  2  0  0  0  0  0  0  0  0  0
    9.0330    0.1250   22.5750 C   0  0  0  0  0  0  0  0  0  0  0  0
    8.5650    0.0240   23.8400 C   0  0  0  0  0  0  0  0  0  0  0  0
    7.4020    0.7150   24.2590 C   0  0  0  0  0  0  0  0  0  0  0  0
    7.1780    0.4320   25.5640 C   0  0  0  0  0  0  0  0  0  0  0  0
    8.2100   -0.4080   25.8630 C   0  0  0  0  0  0  0  0  0  0  0  0
    9.2120   -1.2610   26.2620 C   0  0  0  0  0  0  0  0  0  0  0  0
    9.1810   -0.7580   24.8330 C   0  0  0  0  0  0  0  0  0  0  0  0
    9.0120   -1.3440   21.0570 N   0  0  0  0  0  0  0  0  0  0  0  0
    7.9650   -0.4570   20.8980 C   0  0  0  0  0  0  0  0  0  0  0  0
    8.3240    0.9410   20.8160 O   0  0  0  0  0  0  0  0  0  0  0  0
    6.7100   -0.8760   20.8190 N   0  0  0  0  0  0  0  0  0  0  0  0
    6.1340   -0.0630   19.8210 C   0  0  0  0  0  0  0  0  0  0  0  0
    4.9250    0.5780   20.0630 C   0  0  0  0  0  0  0  0  0  0  0  0
    4.3570    1.3870   19.1200 C   0  0  0  0  0  0  0  0  0  0  0  0
    5.0990    1.5540   17.8060 C   0  0  0  0  0  0  0  0  0  0  0  0
    6.2590    0.9590   17.5250 N   0  0  0  0  0  0  0  0  0  0  0  0
    6.7690    0.1160   18.6080 C   0  0  0  0  0  0  0  0  0  0  0  0
    9.1060   -3.6380   24.5320 C   0  0  0  0  0  0  0  0  0  0  0  0
    8.0840   -4.5750   24.7480 C   0  0  0  0  0  0  0  0  0  0  0  0
  1  2  1  0
  2  3  1  0
  3  4  1  0
  4  5  1  0
  5  6  1  0
  6  7  1  0
  7  8  2  0
  7  9  1  0
  9 10  1  1
 10 11  1  0
 11 12  2  0
 12 13  1  0
 13 14  2  0
 14 15  1  0
 11 16  1  0
 15 16  2  0
  9 17  1  0
 17 18  1  0
 18 19  2  0
 18 20  1  0
 20 21  1  0
 21 22  2  0
 22 23  1  0
 23 24  2  0
 24 25  1  0
 21 26  1  0
 25 26  2  0
  6 27  1  0
  3 28  1  0
 27 28  1  0
M  END
