pyridine_urea_12093
     RDKit          3D

 23 25  0  0  0  0  0  0  0  0999 V2000
    8.7710    1.0970   21.1340 O   0  0  0  0  0  0  0  0  0  0  0  0
    8.2730    0.0070   21.4480 C   0  0  0  0  0  0  0  0  0  0  0  0
    8.7430   -0.8710   22.3820 N   0  0  0  0  0  0  0  0  0  0  0  0
    9.8880   -0.6930   23.1670 C   0  0  0  0  0  0  0  0  0  0  0  0
   11.0550   -1.2420   22.6800 C   0  0  0  0  0  0  0  0  0  0  0  0
   11.3190   -2.5070   22.3150 C   0  0  0  0  0  0  0  0  0  0  0  0
   12.7100   -2.5980   21.8700 N   0  0  0  0  0  0  0  0  0  0  0  0
   13.2890   -1.3570   21.9720 N   0  0  0  0  0  0  0  0  0  0  0  0
   12.3220   -0.4500   22.4610 C   0  0  0  0  0  0  0  0  0  0  0  0
   12.3060    0.8960   22.7170 C   0  0  0  0  0  0  0  0  0  0  0  0
   13.1550    1.8490   22.8210 C   0  0  0  0  0  0  0  0  0  0  0  0
   12.3970    3.2050   23.0700 C   0  0  0  0  0  0  0  0  0  0  0  0
   10.9070    3.2290   23.1720 C   0  0  0  0  0  0  0  0  0  0  0  0
   10.1210    2.0170   23.0440 C   0  0  0  0  0  0  0  0  0  0  0  0
   10.0190    0.7160   22.8550 F   0  0  0  0  0  0  0  0  0  0  0  0
   11.4000    1.8370   22.9350 C   0  0  0  0  0  0  0  0  0  0  0  0
    7.1110   -0.5130   20.9090 N   0  0  0  0  0  0  0  0  0  0  0  0
    6.3850    0.1290   19.9900 C   0  0  0  0  0  0  0  0  0  0  0  0
    5.1960    0.8290   20.2260 C   0  0  0  0  0  0  0  0  0  0  0  0
    4.5640    1.4630   19.1680 C   0  0  0  0  0  0  0  0  0  0  0  0
    5.1530    1.3650   17.9190 C   0  0  0  0  0  0  0  0  0  0  0  0
    6.2800    0.6970   17.6530 N   0  0  0  0  0  0  0  0  0  0  0  0
    6.8660    0.0960   18.6950 C   0  0  0  0  0  0  0  0  0  0  0  0
  1  2  2  0
  2  3  1  0
  3  4  1  0
  4  5  1  0
  5  6  2  0
  6  7  1  0
  7  8  1  0
  5  9  1  0
  8  9  2  0
  9 10  1  0
 10 11  2  0
 11 12  1  0
 12 13  2  0
 13 14  1  0
 14 15  1  0
 10 16  1  0
 14 16  2  0
  2 17  1  0
 17 18  1  0
 18 19  2  0
 19 20  1  0
 20 21  2  0
 21 22  1  0
 18 23  1  0
 22 23  2  0
M  END
