pyridine_urea_2343
     RDKit          3D

 25 27  0  0  0  0  0  0  0  0999 V2000
    8.7190    1.5160   22.8900 C   0  0  0  0  0  0  0  0  0  0  0  0
    8.8670    0.5680   23.6690 O   0  0  0  0  0  0  0  0  0  0  0  0
    9.9520   -0.2700   23.5320 C   0  0  1  0  0  0  0  0  0  0  0  0
    9.4290   -1.5180   23.3410 C   0  0  0  0  0  0  0  0  0  0  0  0
    8.7080   -1.6720   22.2210 N   0  0  0  0  0  0  0  0  0  0  0  0
    8.1270   -0.6860   21.4470 C   0  0  0  0  0  0  0  0  0  0  0  0
    8.6870    0.3370   21.1000 O   0  0  0  0  0  0  0  0  0  0  0  0
    6.7500   -1.0440   21.1040 N   0  0  0  0  0  0  0  0  0  0  0  0
    6.2560   -0.2270   20.0590 C   0  0  0  0  0  0  0  0  0  0  0  0
    5.1040    0.5200   20.3280 C   0  0  0  0  0  0  0  0  0  0  0  0
    4.5790    1.3340   19.3250 C   0  0  0  0  0  0  0  0  0  0  0  0
    5.3110    1.3480   17.9940 C   0  0  0  0  0  0  0  0  0  0  0  0
    6.4160    0.6160   17.7770 N   0  0  0  0  0  0  0  0  0  0  0  0
    6.8670   -0.1510   18.8010 C   0  0  0  0  0  0  0  0  0  0  0  0
   10.7730   -0.0790   22.2510 C   0  0  0  0  0  0  0  0  0  0  0  0
   12.0290   -0.6110   22.4750 C   0  0  0  0  0  0  0  0  0  0  0  0
   12.5670    0.1660   23.4310 C   0  0  1  0  0  0  0  0  0  0  0  0
   12.1660    1.5340   23.3380 C   0  0  0  0  0  0  0  0  0  0  0  0
   10.9260    2.0060   23.7260 C   0  0  0  0  0  0  0  0  0  0  0  0
   10.5240    3.3350   23.6220 C   0  0  0  0  0  0  0  0  0  0  0  0
   11.4160    4.2550   23.1010 C   0  0  0  0  0  0  0  0  0  0  0  0
   12.6760    3.8160   22.7090 C   0  0  0  0  0  0  0  0  0  0  0  0
   13.0380    2.4640   22.8340 C   0  0  0  0  0  0  0  0  0  0  0  0
   12.0640   -0.3840   24.5760 C   0  0  0  0  0  0  0  0  0  0  0  0
   10.7370    0.0280   24.6710 C   0  0  0  0  0  0  0  0  0  0  0  0
  1  2  1  0
  3  2  1  0
  3  4  1  1
  4  5  1  0
  5  6  1  0
  6  7  2  0
  6  8  1  0
  8  9  1  0
  9 10  2  0
 10 11  1  0
 11 12  2  0
 12 13  1  0
  9 14  1  0
 13 14  2  0
  3 15  1  0
 15 16  1  0
 16 17  1  0
 17 18  1  6
 18 19  2  0
 19 20  1  0
 20 21  2  0
 21 22  1  0
 18 23  1  0
 22 23  2  0
 17 24  1  0
  3 25  1  0
 24 25  1  0
M  END
