pyridine_urea_14277
     RDKit          3D

 22 22  0  0  0  0  0  0  0  0999 V2000
   13.4700   -0.0660   22.6100 C   0  0  0  0  0  0  0  0  0  0  0  0
   12.4800    0.4620   23.5450 C   0  0  0  0  0  0  0  0  0  0  0  0
   11.5420    1.2990   23.0490 C   0  0  0  0  0  0  0  0  0  0  0  0
   10.2660    0.7820   22.9500 C   0  0  0  0  0  0  0  0  0  0  0  0
   10.1110   -0.6130   22.8650 C   0  0  1  0  0  0  0  0  0  0  0  0
    8.8650   -1.0920   22.3810 N   0  0  0  0  0  0  0  0  0  0  0  0
    8.2390   -0.2490   21.4920 C   0  0  0  0  0  0  0  0  0  0  0  0
    8.6680    0.8590   21.2100 O   0  0  0  0  0  0  0  0  0  0  0  0
    7.0880   -0.7770   20.9740 N   0  0  0  0  0  0  0  0  0  0  0  0
    6.3670   -0.0640   20.0150 C   0  0  0  0  0  0  0  0  0  0  0  0
    5.0590    0.6850   20.2340 C   0  0  0  0  0  0  0  0  0  0  0  0
    4.5120    1.3480   19.1560 C   0  0  0  0  0  0  0  0  0  0  0  0
    5.1710    1.3070   17.9270 C   0  0  0  0  0  0  0  0  0  0  0  0
    6.3220    0.6450   17.7150 N   0  0  0  0  0  0  0  0  0  0  0  0
    6.8820   -0.0130   18.7400 C   0  0  0  0  0  0  0  0  0  0  0  0
   11.1520   -1.2360   21.9440 C   0  0  0  0  0  0  0  0  0  0  0  0
   11.9610   -2.0080   21.4650 O   0  0  0  0  0  0  0  0  0  0  0  0
   10.9930   -2.0280   22.8550 O   0  0  0  0  0  0  0  0  0  0  0  0
   12.2090   -2.4100   23.4890 C   0  0  0  0  0  0  0  0  0  0  0  0
   13.2210   -1.4840   23.4280 C   0  0  0  0  0  0  0  0  0  0  0  0
   13.3470   -2.6960   22.7400 C   0  0  0  0  0  0  0  0  0  0  0  0
   12.1720   -2.9920   24.8850 C   0  0  0  0  0  0  0  0  0  0  0  0
  1  2  1  0
  2  3  1  0
  3  4  1  0
  5  4  1  6
  5  6  1  0
  6  7  1  0
  7  8  2  0
  7  9  1  0
  9 10  1  0
 10 11  2  0
 11 12  1  0
 12 13  2  0
 13 14  1  0
 10 15  1  0
 14 15  2  0
  5 16  1  0
 16 17  2  0
 16 18  1  0
 19 18  1  0
 19 20  1  0
 19 21  1  0
 19 22  1  0
M  END
