pyridine_urea_5531
     RDKit          3D

 17 18  0  0  0  0  0  0  0  0999 V2000
    8.8570    0.7740   21.3770 O   0  0  0  0  0  0  0  0  0  0  0  0
    8.3240   -0.3180   21.5180 C   0  0  0  0  0  0  0  0  0  0  0  0
    8.9000   -1.3500   22.2020 N   0  0  0  0  0  0  0  0  0  0  0  0
    9.9540   -1.0320   23.1280 C   0  0  0  0  0  0  0  0  0  0  0  0
   11.3740   -1.4420   22.6380 C   0  0  1  0  0  0  0  0  0  0  0  0
   12.1670   -0.3270   22.5000 C   0  0  0  0  0  0  0  0  0  0  0  0
   12.6930    0.2820   23.7690 C   0  0  0  0  0  0  0  0  0  0  0  0
   12.3790   -0.4830   24.8900 C   0  0  0  0  0  0  0  0  0  0  0  0
   12.4400   -1.8650   24.6860 N   0  0  0  0  0  0  0  0  0  0  0  0
   11.9870   -2.4260   23.4140 C   0  0  0  0  0  0  0  0  0  0  0  0
    7.0960   -0.6870   21.0460 N   0  0  0  0  0  0  0  0  0  0  0  0
    6.4360   -0.0060   20.0270 C   0  0  0  0  0  0  0  0  0  0  0  0
    5.1490    0.7310   20.3450 C   0  0  0  0  0  0  0  0  0  0  0  0
    4.4970    1.4640   19.1990 C   0  0  0  0  0  0  0  0  0  0  0  0
    5.1850    1.3920   17.8550 C   0  0  0  0  0  0  0  0  0  0  0  0
    6.3270    0.6990   17.6820 N   0  0  0  0  0  0  0  0  0  0  0  0
    6.9010    0.0420   18.7240 C   0  0  0  0  0  0  0  0  0  0  0  0
  1  2  2  0
  2  3  1  0
  3  4  1  0
  5  4  1  1
  5  6  1  0
  6  7  1  0
  7  8  1  0
  8  9  1  0
  5 10  1  0
  9 10  1  0
  2 11  1  0
 11 12  1  0
 12 13  2  0
 13 14  1  0
 14 15  2  0
 15 16  1  0
 12 17  1  0
 16 17  2  0
M  END
