pyridine_urea_3563
     RDKit          3D

 17 18  0  0  0  0  0  0  0  0999 V2000
    8.7890    0.6340   21.3560 O   0  0  0  0  0  0  0  0  0  0  0  0
    8.2530   -0.4410   21.6100 C   0  0  0  0  0  0  0  0  0  0  0  0
    7.0700   -0.8800   21.0580 N   0  0  0  0  0  0  0  0  0  0  0  0
    6.4450   -0.1150   20.0150 C   0  0  0  0  0  0  0  0  0  0  0  0
    5.1750    0.6560   20.3680 C   0  0  0  0  0  0  0  0  0  0  0  0
    4.5140    1.4710   19.2590 C   0  0  0  0  0  0  0  0  0  0  0  0
    5.2140    1.4210   17.8990 C   0  0  0  0  0  0  0  0  0  0  0  0
    6.3770    0.6590   17.7420 N   0  0  0  0  0  0  0  0  0  0  0  0
    6.9560   -0.0680   18.7420 C   0  0  0  0  0  0  0  0  0  0  0  0
    8.7490   -1.3800   22.4980 N   0  0  0  0  0  0  0  0  0  0  0  0
   10.0360   -1.2440   23.0340 C   0  0  1  0  0  0  0  0  0  0  0  0
   11.0260   -0.9180   22.1410 C   0  0  0  0  0  0  0  0  0  0  0  0
   12.3350   -1.0710   22.5760 C   0  0  0  0  0  0  0  0  0  0  0  0
   12.7150    0.1250   23.1070 C   0  0  0  0  0  0  0  0  0  0  0  0
   12.2020    0.2950   24.3710 C   0  0  0  0  0  0  0  0  0  0  0  0
   11.1520   -0.4000   24.8270 N   0  0  0  0  0  0  0  0  0  0  0  0
   10.0420   -0.3400   24.0950 C   0  0  0  0  0  0  0  0  0  0  0  0
  1  2  2  0
  2  3  1  0
  3  4  1  0
  4  5  2  0
  5  6  1  0
  6  7  2  0
  7  8  1  0
  4  9  1  0
  8  9  2  0
  2 10  1  0
 11 10  1  6
 11 12  1  0
 12 13  1  0
 13 14  1  0
 14 15  1  0
 15 16  1  0
 11 17  1  0
 16 17  1  0
M  END
