pyridine_urea_11759
     RDKit          3D

 26 28  0  0  0  0  0  0  0  0999 V2000
    9.3830    1.2680   21.7250 O   0  0  0  0  0  0  0  0  0  0  0  0
    8.2520    0.8310   21.5420 C   0  0  0  0  0  0  0  0  0  0  0  0
    7.7400   -0.3910   21.7780 N   0  0  0  0  0  0  0  0  0  0  0  0
    8.1610   -1.4640   21.0410 C   0  0  0  0  0  0  0  0  0  0  0  0
    9.4710   -1.4910   21.1890 C   0  0  0  0  0  0  0  0  0  0  0  0
    8.4420   -1.3890   22.1250 C   0  0  0  0  0  0  0  0  0  0  0  0
    8.6470   -1.2920   23.3500 C   0  0  0  0  0  0  0  0  0  0  0  0
    9.5670   -1.2490   24.1140 C   0  0  0  0  0  0  0  0  0  0  0  0
    9.3270   -1.1370   25.4980 C   0  0  0  0  0  0  0  0  0  0  0  0
    8.5050   -2.0930   26.0850 N   0  0  0  0  0  0  0  0  0  0  0  0
    7.8740   -1.9560   27.4100 C   0  0  0  0  0  0  0  0  0  0  0  0
    6.5190   -1.6930   27.4420 C   0  0  0  0  0  0  0  0  0  0  0  0
    5.7060   -2.9830   26.6280 S   0  0  0  0  0  0  0  0  0  0  0  0
    4.3400   -2.5810   26.3730 O   0  0  0  0  0  0  0  0  0  0  0  0
    5.9810   -4.2070   27.3510 O   0  0  0  0  0  0  0  0  0  0  0  0
    6.6550   -2.9470   25.0780 C   0  0  0  0  0  0  0  0  0  0  0  0
    8.0010   -3.1870   25.3540 C   0  0  0  0  0  0  0  0  0  0  0  0
   10.7010   -1.3430   23.2050 C   0  0  0  0  0  0  0  0  0  0  0  0
   10.7230   -1.4630   21.8710 C   0  0  0  0  0  0  0  0  0  0  0  0
    7.2660    1.5520   21.0130 N   0  0  0  0  0  0  0  0  0  0  0  0
    6.5100    1.1530   19.9940 C   0  0  0  0  0  0  0  0  0  0  0  0
    5.0800    1.6210   19.9930 C   0  0  0  0  0  0  0  0  0  0  0  0
    4.2490    1.2540   18.9730 C   0  0  0  0  0  0  0  0  0  0  0  0
    4.7760    0.4560   17.9690 C   0  0  0  0  0  0  0  0  0  0  0  0
    6.0270    0.0070   17.9050 N   0  0  0  0  0  0  0  0  0  0  0  0
    6.8800    0.3560   18.9290 C   0  0  0  0  0  0  0  0  0  0  0  0
  1  2  2  0
  2  3  1  0
  3  4  1  0
  4  5  1  0
  5  6  2  0
  6  7  1  0
  7  8  2  0
  8  9  1  0
  9 10  1  0
 10 11  1  0
 11 12  1  0
 13 12  1  0
 13 14  2  0
 13 15  2  0
 13 16  1  0
 10 17  1  0
 16 17  1  0
  8 18  1  0
  5 19  1  0
 18 19  2  0
  2 20  1  0
 20 21  1  0
 21 22  2  0
 22 23  1  0
 23 24  2  0
 24 25  1  0
 21 26  1  0
 25 26  2  0
M  END
