pyridine_urea_1072
     RDKit          3D

 21 21  0  0  0  0  0  0  0  0999 V2000
   12.5340   -0.2960   24.5200 C   0  0  0  0  0  0  0  0  0  0  0  0
   11.4020    0.6220   24.1820 C   0  0  0  0  0  0  0  0  0  0  0  0
   10.6840    0.4150   23.0190 C   0  0  0  0  0  0  0  0  0  0  0  0
    9.8730   -0.7010   22.9560 C   0  0  1  0  0  0  0  0  0  0  0  0
    9.2890   -1.1630   21.8660 N   0  0  0  0  0  0  0  0  0  0  0  0
    8.4470   -0.1700   21.4310 C   0  0  0  0  0  0  0  0  0  0  0  0
    8.7990    0.9920   21.2860 O   0  0  0  0  0  0  0  0  0  0  0  0
    7.2090   -0.6450   21.1660 N   0  0  0  0  0  0  0  0  0  0  0  0
    6.5670   -0.0350   20.1270 C   0  0  0  0  0  0  0  0  0  0  0  0
    5.3340    0.7590   20.4660 C   0  0  0  0  0  0  0  0  0  0  0  0
    4.6570    1.4290   19.3020 C   0  0  0  0  0  0  0  0  0  0  0  0
    5.1990    1.2710   18.0510 C   0  0  0  0  0  0  0  0  0  0  0  0
    6.2750    0.5820   17.6890 N   0  0  0  0  0  0  0  0  0  0  0  0
    6.9270   -0.0610   18.7850 C   0  0  0  0  0  0  0  0  0  0  0  0
   10.5160   -1.8060   23.4790 C   0  0  0  0  0  0  0  0  0  0  0  0
   11.2300   -2.7640   23.6970 O   0  0  0  0  0  0  0  0  0  0  0  0
   11.1620   -1.7300   22.4470 O   0  0  0  0  0  0  0  0  0  0  0  0
   12.6200   -1.6330   22.3760 C   0  0  0  0  0  0  0  0  0  0  0  0
   13.0540   -2.0250   21.1380 C   0  0  0  0  0  0  0  0  0  0  0  0
   13.1550   -0.1960   22.5640 C   0  0  0  0  0  0  0  0  0  0  0  0
   13.2810   -2.5230   23.4710 C   0  0  0  0  0  0  0  0  0  0  0  0
  1  2  1  0
  2  3  1  0
  4  3  1  6
  4  5  1  0
  5  6  1  0
  6  7  2  0
  6  8  1  0
  8  9  1  0
  9 10  2  0
 10 11  1  0
 11 12  2  0
 12 13  1  0
  9 14  1  0
 13 14  2  0
  4 15  1  0
 15 16  2  0
 15 17  1  0
 18 17  1  0
 18 19  1  0
 18 20  1  0
 18 21  1  0
M  END
