pyridine_urea_8458
     RDKit          3D

 22 24  0  0  0  0  0  0  0  0999 V2000
    8.9030   -1.6070   21.3750 C   0  0  0  0  0  0  0  0  0  0  0  0
    9.7820   -0.5470   21.9500 C   0  0  1  0  0  0  0  0  0  0  0  0
    9.3460    0.2020   22.9920 C   0  0  0  0  0  0  0  0  0  0  0  0
    7.9640    0.3260   22.8240 N   0  0  0  0  0  0  0  0  0  0  0  0
    7.7830    0.5410   21.5140 C   0  0  0  0  0  0  0  0  0  0  0  0
    8.4370    1.3980   20.9120 O   0  0  0  0  0  0  0  0  0  0  0  0
    6.7840   -0.3500   20.9720 N   0  0  0  0  0  0  0  0  0  0  0  0
    6.2060    0.2290   19.9210 C   0  0  0  0  0  0  0  0  0  0  0  0
    4.8970    0.9490   20.1470 C   0  0  0  0  0  0  0  0  0  0  0  0
    4.3580    1.5640   19.0370 C   0  0  0  0  0  0  0  0  0  0  0  0
    5.1410    1.4470   17.7240 C   0  0  0  0  0  0  0  0  0  0  0  0
    6.3000    0.7740   17.5940 N   0  0  0  0  0  0  0  0  0  0  0  0
    6.7960    0.1870   18.6830 C   0  0  0  0  0  0  0  0  0  0  0  0
   10.7680   -1.1610   22.7270 C   0  0  0  0  0  0  0  0  0  0  0  0
   11.8830   -0.5720   22.9560 N   0  0  0  0  0  0  0  0  0  0  0  0
   12.3970   -1.4420   23.7360 C   0  0  0  0  0  0  0  0  0  0  0  0
   13.5520   -1.3300   24.2890 C   0  0  0  0  0  0  0  0  0  0  0  0
   14.0210   -2.3290   25.1260 C   0  0  0  0  0  0  0  0  0  0  0  0
   13.2600   -3.3740   25.3220 C   0  0  0  0  0  0  0  0  0  0  0  0
   12.0220   -3.4610   24.7220 C   0  0  0  0  0  0  0  0  0  0  0  0
   11.6060   -2.5040   23.9410 C   0  0  0  0  0  0  0  0  0  0  0  0
   10.4840   -2.3650   23.2680 O   0  0  0  0  0  0  0  0  0  0  0  0
  2  1  1  1
  2  3  1  0
  3  4  1  0
  4  5  1  0
  5  6  2  0
  5  7  1  0
  7  8  1  0
  8  9  2  0
  9 10  1  0
 10 11  2  0
 11 12  1  0
  8 13  1  0
 12 13  2  0
  2 14  1  0
 14 15  2  0
 15 16  1  0
 16 17  2  0
 17 18  1  0
 18 19  2  0
 19 20  1  0
 16 21  1  0
 20 21  2  0
 14 22  1  0
 21 22  1  0
M  END
