pyridine_urea_11458
     RDKit          3D

 23 25  0  0  0  0  0  0  0  0999 V2000
   13.1600   -2.2800   22.9410 C   0  0  0  0  0  0  0  0  0  0  0  0
   12.6230   -1.2120   22.9210 C   0  0  0  0  0  0  0  0  0  0  0  0
   13.3800    0.0290   22.9130 N   0  0  0  0  0  0  0  0  0  0  0  0
   12.3250    1.0130   22.8960 C   0  0  0  0  0  0  0  0  0  0  0  0
   12.5230    2.4650   22.8820 C   0  0  0  0  0  0  0  0  0  0  0  0
   11.4060    3.2220   22.8720 C   0  0  0  0  0  0  0  0  0  0  0  0
   11.4670    4.9540   22.8630 Cl  0  0  0  0  0  0  0  0  0  0  0  0
    9.9990    2.5860   22.8720 C   0  0  0  0  0  0  0  0  0  0  0  0
    9.9310    1.0720   22.8850 C   0  0  0  0  0  0  0  0  0  0  0  0
   11.0800    0.3320   22.8940 C   0  0  0  0  0  0  0  0  0  0  0  0
   11.1270   -1.0730   22.9000 N   0  0  0  0  0  0  0  0  0  0  0  0
   10.1870   -2.1380   22.8880 C   0  0  0  0  0  0  0  0  0  0  0  0
    8.8310   -1.8900   23.0720 C   0  0  0  0  0  0  0  0  0  0  0  0
    8.4150   -0.6300   22.8860 N   0  0  0  0  0  0  0  0  0  0  0  0
    8.1020   -0.2030   21.6330 C   0  0  0  0  0  0  0  0  0  0  0  0
    8.6630    0.7380   21.0920 O   0  0  0  0  0  0  0  0  0  0  0  0
    7.0050   -0.8880   20.9220 N   0  0  0  0  0  0  0  0  0  0  0  0
    6.3240   -0.1000   19.9990 C   0  0  0  0  0  0  0  0  0  0  0  0
    5.0370    0.5760   20.5550 C   0  0  0  0  0  0  0  0  0  0  0  0
    4.6430    1.2980   19.2700 C   0  0  0  0  0  0  0  0  0  0  0  0
    5.3090    1.3180   17.9490 C   0  0  0  0  0  0  0  0  0  0  0  0
    6.4060    0.6640   17.7030 N   0  0  0  0  0  0  0  0  0  0  0  0
    6.8630   -0.0120   18.7220 C   0  0  0  0  0  0  0  0  0  0  0  0
  1  2  1  0
  2  3  2  0
  3  4  1  0
  4  5  2  0
  5  6  1  0
  6  7  1  0
  6  8  2  0
  8  9  1  0
  4 10  1  0
  9 10  2  0
  2 11  1  0
 10 11  1  0
 11 12  1  0
 12 13  1  0
 13 14  1  0
 14 15  1  0
 15 16  2  0
 15 17  1  0
 17 18  1  0
 18 19  2  0
 19 20  1  0
 20 21  2  0
 21 22  1  0
 18 23  1  0
 22 23  2  0
M  END
