pyridine_urea_15156
     RDKit          3D

 17 17  0  0  0  0  0  0  0  0999 V2000
   11.3290   -2.9500   24.2110 C   0  0  0  0  0  0  0  0  0  0  0  0
   10.0090   -2.5430   24.1910 N   0  0  0  0  0  0  0  0  0  0  0  0
    8.9380   -3.4370   23.7770 C   0  0  0  0  0  0  0  0  0  0  0  0
    7.5560   -2.9570   24.2130 C   0  0  0  0  0  0  0  0  0  0  0  0
    6.6910   -3.7520   24.5690 O   0  0  0  0  0  0  0  0  0  0  0  0
    9.8670   -1.4550   23.5130 C   0  0  0  0  0  0  0  0  0  0  0  0
    9.3360   -1.6670   22.1350 C   0  0  0  0  0  0  0  0  0  0  0  0
    9.4240   -0.6140   21.3000 N   0  0  0  0  0  0  0  0  0  0  0  0
    8.5160    0.3960   21.2510 C   0  0  0  0  0  0  0  0  0  0  0  0
    8.8180    1.5840   21.2670 O   0  0  0  0  0  0  0  0  0  0  0  0
    7.2390   -0.0950   21.1180 N   0  0  0  0  0  0  0  0  0  0  0  0
    6.4490    0.3750   20.0830 C   0  0  0  0  0  0  0  0  0  0  0  0
    5.2670    1.0760   20.2170 C   0  0  0  0  0  0  0  0  0  0  0  0
    4.5570    1.5390   19.1320 C   0  0  0  0  0  0  0  0  0  0  0  0
    5.0930    1.2650   17.8960 C   0  0  0  0  0  0  0  0  0  0  0  0
    6.2260    0.5780   17.7030 N   0  0  0  0  0  0  0  0  0  0  0  0
    6.8760    0.1480   18.7950 C   0  0  0  0  0  0  0  0  0  0  0  0
  1  2  1  0
  2  3  1  0
  3  4  1  0
  4  5  1  0
  2  6  1  0
  6  7  1  0
  7  8  1  0
  8  9  1  0
  9 10  2  0
  9 11  1  0
 11 12  1  0
 12 13  2  0
 13 14  1  0
 14 15  2  0
 15 16  1  0
 12 17  1  0
 16 17  2  0
M  END
