pyridine_urea_3451
     RDKit          3D

 19 20  0  0  0  0  0  0  0  0999 V2000
    8.5740   -0.0750   26.4330 C   0  0  0  0  0  0  0  0  0  0  0  0
    9.7910    0.4220   26.0310 N   0  0  0  0  0  0  0  0  0  0  0  0
   10.3970   -0.0480   24.8190 C   0  0  0  0  0  0  0  0  0  0  0  0
   11.6990    0.4230   24.2120 C   0  0  0  0  0  0  0  0  0  0  0  0
   12.1440   -0.2010   22.9290 C   0  0  0  0  0  0  0  0  0  0  0  0
   11.3770   -1.2980   22.1500 C   0  0  0  0  0  0  0  0  0  0  0  0
   10.2990   -2.2810   21.8250 C   0  0  0  0  0  0  0  0  0  0  0  0
    9.0310   -1.6970   21.9930 N   0  0  0  0  0  0  0  0  0  0  0  0
    8.4390   -0.5250   21.4290 C   0  0  0  0  0  0  0  0  0  0  0  0
    9.0320    0.5340   21.2810 O   0  0  0  0  0  0  0  0  0  0  0  0
    7.1370   -0.7610   21.1170 N   0  0  0  0  0  0  0  0  0  0  0  0
    6.5370   -0.0890   20.0900 C   0  0  0  0  0  0  0  0  0  0  0  0
    5.3740    0.6500   20.3590 C   0  0  0  0  0  0  0  0  0  0  0  0
    4.7500    1.3400   19.3270 C   0  0  0  0  0  0  0  0  0  0  0  0
    5.2830    1.2910   18.0510 C   0  0  0  0  0  0  0  0  0  0  0  0
    6.3910    0.5890   17.7720 N   0  0  0  0  0  0  0  0  0  0  0  0
    6.9880   -0.0820   18.7840 C   0  0  0  0  0  0  0  0  0  0  0  0
   10.2520   -1.4940   22.9780 C   0  0  0  0  0  0  0  0  0  0  0  0
    9.7910   -0.9750   24.1380 C   0  0  0  0  0  0  0  0  0  0  0  0
  1  2  1  0
  2  3  1  0
  3  4  2  0
  4  5  1  0
  5  6  2  0
  6  7  1  0
  7  8  1  0
  8  9  1  0
  9 10  2  0
  9 11  1  0
 11 12  1  0
 12 13  2  0
 13 14  1  0
 14 15  2  0
 15 16  1  0
 12 17  1  0
 16 17  2  0
  6 18  1  0
  3 19  1  0
 18 19  2  0
M  END
