pyridine_urea_6253
     RDKit          3D

 24 26  0  0  0  0  0  0  0  0999 V2000
    9.0510    0.7670   21.7310 O   0  0  0  0  0  0  0  0  0  0  0  0
    8.4370   -0.2230   21.3750 C   0  0  0  0  0  0  0  0  0  0  0  0
    9.0390   -1.3900   21.0230 N   0  0  0  0  0  0  0  0  0  0  0  0
   10.1120   -2.0320   21.7350 C   0  0  0  0  0  0  0  0  0  0  0  0
   11.3130   -1.1780   22.0180 C   0  0  0  0  0  0  0  0  0  0  0  0
   10.2350   -1.4100   23.0190 C   0  0  0  0  0  0  0  0  0  0  0  0
    9.9870   -1.0470   24.2640 C   0  0  0  0  0  0  0  0  0  0  0  0
   10.6680   -0.2450   25.2520 C   0  0  0  0  0  0  0  0  0  0  0  0
   10.2130   -0.0250   26.5310 O   0  0  0  0  0  0  0  0  0  0  0  0
    8.8140   -0.1410   26.7960 C   0  0  0  0  0  0  0  0  0  0  0  0
    8.4000   -1.4210   26.8980 C   0  0  0  0  0  0  0  0  0  0  0  0
    6.9720   -0.9460   26.9640 C   0  0  0  0  0  0  0  0  0  0  0  0
    6.6350   -0.5910   28.2560 C   0  0  0  0  0  0  0  0  0  0  0  0
    7.7170   -0.1480   29.0030 C   0  0  0  0  0  0  0  0  0  0  0  0
    8.6580    0.4630   28.1890 C   0  0  0  0  0  0  0  0  0  0  0  0
   11.8830    0.1440   24.3880 C   0  0  0  0  0  0  0  0  0  0  0  0
   12.1430   -0.2750   22.9770 C   0  0  0  0  0  0  0  0  0  0  0  0
    7.0840   -0.3670   21.2080 N   0  0  0  0  0  0  0  0  0  0  0  0
    6.4040    0.2070   20.1870 C   0  0  0  0  0  0  0  0  0  0  0  0
    5.2330    0.9620   20.3170 C   0  0  0  0  0  0  0  0  0  0  0  0
    4.6380    1.5170   19.1840 C   0  0  0  0  0  0  0  0  0  0  0  0
    5.1890    1.3350   17.9270 C   0  0  0  0  0  0  0  0  0  0  0  0
    6.2960    0.6250   17.7010 N   0  0  0  0  0  0  0  0  0  0  0  0
    6.9100    0.0430   18.9030 C   0  0  0  0  0  0  0  0  0  0  0  0
  1  2  2  0
  2  3  1  0
  3  4  1  0
  4  5  1  0
  5  6  2  0
  6  7  1  0
  7  8  2  0
  8  9  1  0
  9 10  1  0
 10 11  1  0
 11 12  1  0
 12 13  1  0
 13 14  1  0
 10 15  1  0
 14 15  1  0
  8 16  1  0
  5 17  1  0
 16 17  2  0
  2 18  1  0
 18 19  1  0
 19 20  2  0
 20 21  1  0
 21 22  2  0
 22 23  1  0
 19 24  1  0
 23 24  2  0
M  END
