pyridine_urea_907
     RDKit          3D

 22 23  0  0  0  0  0  0  0  0999 V2000
    8.9480    0.6200   21.3910 O   0  0  0  0  0  0  0  0  0  0  0  0
    8.1770   -0.2670   21.7570 C   0  0  0  0  0  0  0  0  0  0  0  0
    8.3200   -1.0440   22.9860 N   0  0  0  0  0  0  0  0  0  0  0  0
    9.5390   -1.0680   23.6700 C   0  0  0  0  0  0  0  0  0  0  0  0
   10.2090    0.1200   23.6980 C   0  0  0  0  0  0  0  0  0  0  0  0
   11.0970    1.2340   23.6350 C   0  0  0  0  0  0  0  0  0  0  0  0
   12.4080    1.4080   23.2160 C   0  0  0  0  0  0  0  0  0  0  0  0
   12.9440    2.4970   23.2490 O   0  0  0  0  0  0  0  0  0  0  0  0
   13.2940    0.3790   22.6970 C   0  0  0  0  0  0  0  0  0  0  0  0
   12.5260   -0.8590   22.7090 C   0  0  0  0  0  0  0  0  0  0  0  0
   11.0990   -0.9120   23.1880 C   0  0  0  0  0  0  0  0  0  0  0  0
   10.6940   -2.2310   23.0720 C   0  0  0  0  0  0  0  0  0  0  0  0
    9.3910   -2.5680   23.1570 F   0  0  0  0  0  0  0  0  0  0  0  0
   11.3670   -2.9940   23.9650 F   0  0  0  0  0  0  0  0  0  0  0  0
   11.1220   -2.6230   21.8540 F   0  0  0  0  0  0  0  0  0  0  0  0
    7.0380   -0.6720   21.0770 N   0  0  0  0  0  0  0  0  0  0  0  0
    6.4270    0.0030   20.0170 C   0  0  0  0  0  0  0  0  0  0  0  0
    5.2560    0.7220   20.2470 C   0  0  0  0  0  0  0  0  0  0  0  0
    4.6620    1.3950   19.2010 C   0  0  0  0  0  0  0  0  0  0  0  0
    5.2110    1.3620   17.9430 C   0  0  0  0  0  0  0  0  0  0  0  0
    6.3370    0.6710   17.6990 N   0  0  0  0  0  0  0  0  0  0  0  0
    6.9140    0.0120   18.7280 C   0  0  0  0  0  0  0  0  0  0  0  0
  1  2  2  0
  2  3  1  0
  3  4  1  0
  4  5  1  0
  5  6  2  0
  6  7  1  0
  7  8  1  0
  7  9  2  0
  9 10  1  0
  5 11  1  0
 10 11  2  0
 11 12  1  0
 12 13  1  0
 12 14  1  0
 12 15  1  0
  2 16  1  0
 16 17  1  0
 17 18  2  0
 18 19  1  0
 19 20  2  0
 20 21  1  0
 17 22  1  0
 21 22  2  0
M  END
