pyridine_urea_978
     RDKit          3D

 22 23  0  0  0  0  0  0  0  0999 V2000
    8.6420   -3.4310   24.3900 C   0  0  0  0  0  0  0  0  0  0  0  0
    8.8890   -2.1280   23.7980 N   0  0  0  0  0  0  0  0  0  0  0  0
    9.4670   -2.0760   22.5330 C   0  0  0  0  0  0  0  0  0  0  0  0
   10.7750   -1.5890   22.4440 C   0  0  0  0  0  0  0  0  0  0  0  0
   11.1750   -0.4840   23.2070 C   0  0  0  0  0  0  0  0  0  0  0  0
   12.4830    0.0020   23.1240 C   0  0  0  0  0  0  0  0  0  0  0  0
   13.4560   -0.4880   22.3610 N   0  0  0  0  0  0  0  0  0  0  0  0
   13.1010   -1.5560   21.6010 C   0  0  0  0  0  0  0  0  0  0  0  0
   11.7170   -2.1650   21.6110 C   0  0  0  0  0  0  0  0  0  0  0  0
    8.1200   -1.0980   24.2850 C   0  0  0  0  0  0  0  0  0  0  0  0
    7.2070   -1.1770   25.0980 O   0  0  0  0  0  0  0  0  0  0  0  0
    8.5470    0.0750   23.7120 C   0  0  0  0  0  0  0  0  0  0  0  0
    7.6440    0.7000   23.0610 N   0  0  0  0  0  0  0  0  0  0  0  0
    7.9920    0.5600   21.7210 C   0  0  0  0  0  0  0  0  0  0  0  0
    9.0200    1.4080   21.2020 O   0  0  0  0  0  0  0  0  0  0  0  0
    7.2500   -0.3610   21.0410 N   0  0  0  0  0  0  0  0  0  0  0  0
    6.5640    0.1460   19.8980 C   0  0  0  0  0  0  0  0  0  0  0  0
    5.4260    0.8310   20.2740 C   0  0  0  0  0  0  0  0  0  0  0  0
    4.6840    1.4000   19.2560 C   0  0  0  0  0  0  0  0  0  0  0  0
    5.1180    1.2530   17.9490 C   0  0  0  0  0  0  0  0  0  0  0  0
    6.2170    0.5750   17.6060 N   0  0  0  0  0  0  0  0  0  0  0  0
    6.9270    0.0260   18.6030 C   0  0  0  0  0  0  0  0  0  0  0  0
  1  2  1  0
  2  3  1  0
  3  4  1  0
  4  5  2  0
  5  6  1  0
  6  7  2  0
  7  8  1  0
  4  9  1  0
  8  9  2  0
  2 10  1  0
 10 11  2  0
 10 12  1  0
 12 13  1  0
 13 14  1  0
 14 15  2  0
 14 16  1  0
 16 17  1  0
 17 18  2  0
 18 19  1  0
 19 20  2  0
 20 21  1  0
 17 22  1  0
 21 22  2  0
M  END
