pyridine_urea_7281
     RDKit          3D

 18 19  0  0  0  0  0  0  0  0999 V2000
   12.5540    0.9690   22.8820 C   0  0  0  0  0  0  0  0  0  0  0  0
   12.6670   -0.4630   22.3780 C   0  0  1  0  0  0  0  0  0  0  0  0
   13.3410   -1.1460   23.3270 C   0  0  0  0  0  0  0  0  0  0  0  0
   12.6580   -1.6760   24.3680 C   0  0  0  0  0  0  0  0  0  0  0  0
   11.3140   -1.6040   24.2230 C   0  0  0  0  0  0  0  0  0  0  0  0
   10.8380   -1.1980   23.0020 C   0  0  1  0  0  0  0  0  0  0  0  0
   10.1200   -0.0490   22.9460 C   0  0  0  0  0  0  0  0  0  0  0  0
    8.7610   -0.4310   22.6320 N   0  0  0  0  0  0  0  0  0  0  0  0
    8.2410    0.2540   21.5940 C   0  0  0  0  0  0  0  0  0  0  0  0
    8.8070    1.2580   21.1380 O   0  0  0  0  0  0  0  0  0  0  0  0
    7.0670   -0.2890   21.1800 N   0  0  0  0  0  0  0  0  0  0  0  0
    6.4170    0.2390   20.0890 C   0  0  0  0  0  0  0  0  0  0  0  0
    5.2490    0.9890   20.2210 C   0  0  0  0  0  0  0  0  0  0  0  0
    4.6060    1.5490   19.1360 C   0  0  0  0  0  0  0  0  0  0  0  0
    5.1430    1.3550   17.8870 C   0  0  0  0  0  0  0  0  0  0  0  0
    6.2400    0.6540   17.6010 N   0  0  0  0  0  0  0  0  0  0  0  0
    6.8750    0.1030   18.6500 C   0  0  0  0  0  0  0  0  0  0  0  0
   11.6450   -1.0600   22.1020 O   0  0  0  0  0  0  0  0  0  0  0  0
  2  1  1  1
  2  3  1  0
  3  4  1  0
  4  5  1  0
  5  6  1  0
  6  7  1  1
  7  8  1  0
  8  9  1  0
  9 10  2  0
  9 11  1  0
 11 12  1  0
 12 13  2  0
 13 14  1  0
 14 15  2  0
 15 16  1  0
 12 17  1  0
 16 17  2  0
  2 18  1  0
  6 18  1  0
M  END
