pyridine_urea_5124
     RDKit          3D

 20 21  0  0  0  0  0  0  0  0999 V2000
    8.9690    1.3600   21.1680 O   0  0  0  0  0  0  0  0  0  0  0  0
    8.3770    0.3780   21.6260 C   0  0  0  0  0  0  0  0  0  0  0  0
    7.3140   -0.2920   21.0670 N   0  0  0  0  0  0  0  0  0  0  0  0
    6.5750    0.2340   20.0110 C   0  0  0  0  0  0  0  0  0  0  0  0
    5.4120    0.9540   20.2900 C   0  0  0  0  0  0  0  0  0  0  0  0
    4.6760    1.5050   19.2460 C   0  0  0  0  0  0  0  0  0  0  0  0
    5.1370    1.3100   17.9650 C   0  0  0  0  0  0  0  0  0  0  0  0
    6.2400    0.6140   17.6720 N   0  0  0  0  0  0  0  0  0  0  0  0
    6.9330    0.0920   18.6940 C   0  0  0  0  0  0  0  0  0  0  0  0
    8.7270   -0.1760   22.8310 N   0  0  0  0  0  0  0  0  0  0  0  0
   10.1140   -0.4360   23.1400 C   0  0  1  0  0  0  0  0  0  0  0  0
   10.5800   -1.5410   22.1790 C   0  0  0  0  0  0  0  0  0  0  0  0
    9.4130   -2.0240   21.4770 O   0  0  0  0  0  0  0  0  0  0  0  0
   11.1120    0.6620   23.4150 C   0  0  0  0  0  0  0  0  0  0  0  0
   11.8760    0.1160   24.4070 C   0  0  0  0  0  0  0  0  0  0  0  0
   12.1480   -0.6140   23.2910 C   0  0  0  0  0  0  0  0  0  0  0  0
   12.7270   -1.5950   22.5500 C   0  0  0  0  0  0  0  0  0  0  0  0
   13.5190   -2.3440   23.3260 C   0  0  0  0  0  0  0  0  0  0  0  0
   13.5390   -1.8920   24.6270 C   0  0  0  0  0  0  0  0  0  0  0  0
   12.7980   -0.7620   25.0980 C   0  0  0  0  0  0  0  0  0  0  0  0
  1  2  2  0
  2  3  1  0
  3  4  1  0
  4  5  2  0
  5  6  1  0
  6  7  2  0
  7  8  1  0
  4  9  1  0
  8  9  2  0
  2 10  1  0
 10 11  1  0
 11 12  1  6
 12 13  1  0
 11 14  1  0
 14 15  1  0
 15 16  2  0
 16 17  1  0
 17 18  2  0
 18 19  1  0
 15 20  1  0
 19 20  2  0
M  END
