pyridine_urea_9261
     RDKit          3D

 18 19  0  0  0  0  0  0  0  0999 V2000
   12.2730   -1.9490   24.6410 C   0  0  0  0  0  0  0  0  0  0  0  0
   12.9270   -0.7800   23.9570 C   0  0  0  0  0  0  0  0  0  0  0  0
   13.1200    0.3210   23.2280 C   0  0  0  0  0  0  0  0  0  0  0  0
   12.1870    0.8960   22.6420 C   0  0  0  0  0  0  0  0  0  0  0  0
   11.0450    0.2680   22.8350 C   0  0  0  0  0  0  0  0  0  0  0  0
   10.0410   -0.6070   23.2270 C   0  0  2  0  0  0  0  0  0  0  0  0
   10.4630   -1.8190   23.7110 C   0  0  0  0  0  0  0  0  0  0  0  0
    9.1530   -0.9480   22.1910 N   0  0  0  0  0  0  0  0  0  0  0  0
    8.5210    0.0210   21.4670 C   0  0  0  0  0  0  0  0  0  0  0  0
    9.0300    1.1250   21.2200 O   0  0  0  0  0  0  0  0  0  0  0  0
    7.2110   -0.4140   21.0440 N   0  0  0  0  0  0  0  0  0  0  0  0
    6.5210    0.1400   20.0290 C   0  0  0  0  0  0  0  0  0  0  0  0
    5.3540    0.8500   20.3090 C   0  0  0  0  0  0  0  0  0  0  0  0
    4.6550    1.4430   19.2620 C   0  0  0  0  0  0  0  0  0  0  0  0
    5.1470    1.3020   17.9800 C   0  0  0  0  0  0  0  0  0  0  0  0
    6.2570    0.6180   17.6890 N   0  0  0  0  0  0  0  0  0  0  0  0
    6.9150    0.0530   18.7140 C   0  0  0  0  0  0  0  0  0  0  0  0
   11.6490   -0.6400   23.5930 O   0  0  0  0  0  0  0  0  0  0  0  0
  1  2  1  0
  2  3  2  0
  3  4  1  0
  4  5  2  0
  5  6  1  0
  6  7  1  6
  6  8  1  0
  8  9  1  0
  9 10  2  0
  9 11  1  0
 11 12  1  0
 12 13  2  0
 13 14  1  0
 14 15  2  0
 15 16  1  0
 12 17  1  0
 16 17  2  0
  2 18  1  0
  5 18  1  0
M  END
