pyridine_urea_6192
     RDKit          3D

 24 26  0  0  0  0  0  0  0  0999 V2000
    8.6170    0.8210   21.1740 O   0  0  0  0  0  0  0  0  0  0  0  0
    8.3370   -0.3200   21.5140 C   0  0  0  0  0  0  0  0  0  0  0  0
    7.1450   -0.8900   21.1290 N   0  0  0  0  0  0  0  0  0  0  0  0
    6.4900   -0.1700   20.0500 C   0  0  0  0  0  0  0  0  0  0  0  0
    5.1970    0.5740   20.3910 C   0  0  0  0  0  0  0  0  0  0  0  0
    4.5810    1.3070   19.2450 C   0  0  0  0  0  0  0  0  0  0  0  0
    5.2020    1.2610   18.0130 C   0  0  0  0  0  0  0  0  0  0  0  0
    6.3390    0.5850   17.7660 N   0  0  0  0  0  0  0  0  0  0  0  0
    6.9450   -0.1010   18.7590 C   0  0  0  0  0  0  0  0  0  0  0  0
    9.1830   -1.0890   22.2950 N   0  0  0  0  0  0  0  0  0  0  0  0
   10.4800   -0.4180   22.5470 C   0  0  0  0  0  0  0  0  0  0  0  0
   11.5690   -1.1980   22.5310 C   0  0  0  0  0  0  0  0  0  0  0  0
   12.7250   -0.2600   22.7840 C   0  0  0  0  0  0  0  0  0  0  0  0
   12.7060    1.1220   22.9910 C   0  0  0  0  0  0  0  0  0  0  0  0
   11.5650    1.9320   23.0060 C   0  0  0  0  0  0  0  0  0  0  0  0
   11.3420    3.3200   23.1850 C   0  0  0  0  0  0  0  0  0  0  0  0
   12.4740    4.2750   22.7210 C   0  0  0  0  0  0  0  0  0  0  0  0
   13.6610    4.0320   22.1680 F   0  0  0  0  0  0  0  0  0  0  0  0
   11.8550    5.6250   23.0750 C   0  0  0  0  0  0  0  0  0  0  0  0
   10.5300    5.9230   23.6940 C   0  0  0  0  0  0  0  0  0  0  0  0
    9.6780    4.9160   24.0240 C   0  0  0  0  0  0  0  0  0  0  0  0
   10.0800    3.6360   23.7720 C   0  0  0  0  0  0  0  0  0  0  0  0
    9.1620    2.7010   24.1320 F   0  0  0  0  0  0  0  0  0  0  0  0
   10.4030    0.9690   22.7570 C   0  0  0  0  0  0  0  0  0  0  0  0
  1  2  2  0
  2  3  1  0
  3  4  1  0
  4  5  2  0
  5  6  1  0
  6  7  2  0
  7  8  1  0
  4  9  1  0
  8  9  2  0
  2 10  1  0
 10 11  1  0
 11 12  2  0
 12 13  1  0
 13 14  2  0
 14 15  1  0
 15 16  1  0
 16 17  2  0
 17 18  1  0
 17 19  1  0
 19 20  2  0
 20 21  1  0
 16 22  1  0
 21 22  2  0
 22 23  1  0
 11 24  1  0
 15 24  2  0
M  END
