pyridine_urea_11342
     RDKit          3D

 18 19  0  0  0  0  0  0  0  0999 V2000
    8.6620    0.8420   21.2300 O   0  0  0  0  0  0  0  0  0  0  0  0
    8.1920   -0.2350   21.5800 C   0  0  0  0  0  0  0  0  0  0  0  0
    6.9980   -0.7290   21.1200 N   0  0  0  0  0  0  0  0  0  0  0  0
    6.4000   -0.0280   20.0080 C   0  0  0  0  0  0  0  0  0  0  0  0
    5.1170    0.7360   20.3050 C   0  0  0  0  0  0  0  0  0  0  0  0
    4.5450    1.4570   19.1310 C   0  0  0  0  0  0  0  0  0  0  0  0
    5.2040    1.3730   17.9210 C   0  0  0  0  0  0  0  0  0  0  0  0
    6.3370    0.6750   17.7170 N   0  0  0  0  0  0  0  0  0  0  0  0
    6.9010    0.0010   18.7340 C   0  0  0  0  0  0  0  0  0  0  0  0
    8.8090   -1.0820   22.4630 N   0  0  0  0  0  0  0  0  0  0  0  0
   10.2640   -1.1910   22.3270 C   0  0  2  0  0  0  0  0  0  0  0  0
   10.9490   -1.3630   23.4390 C   0  0  0  0  0  0  0  0  0  0  0  0
   10.0500   -1.4190   24.4720 F   0  0  0  0  0  0  0  0  0  0  0  0
   11.6010   -2.5530   23.4590 F   0  0  0  0  0  0  0  0  0  0  0  0
   11.1920   -0.0630   22.7310 C   0  0  0  0  0  0  0  0  0  0  0  0
   11.2990    0.4170   24.0230 C   0  0  0  0  0  0  0  0  0  0  0  0
   12.6160    0.4120   23.9780 C   0  0  0  0  0  0  0  0  0  0  0  0
   12.7600   -0.2140   22.7690 C   0  0  0  0  0  0  0  0  0  0  0  0
  1  2  2  0
  2  3  1  0
  3  4  1  0
  4  5  2  0
  5  6  1  0
  6  7  2  0
  7  8  1  0
  4  9  1  0
  8  9  2  0
  2 10  1  0
 11 10  1  1
 11 12  1  0
 12 13  1  0
 12 14  1  0
 11 15  1  0
 15 16  1  0
 16 17  1  0
 15 18  1  0
 17 18  1  0
M  END
