pyridine_urea_14645
     RDKit          3D

 21 23  0  0  0  0  0  0  0  0999 V2000
   13.8250   -2.4590   25.7360 C   0  0  0  0  0  0  0  0  0  0  0  0
   12.6630   -2.3400   25.0350 N   0  0  0  0  0  0  0  0  0  0  0  0
   11.9940   -1.3100   24.3450 C   0  0  0  0  0  0  0  0  0  0  0  0
   10.8410   -1.6880   23.7470 C   0  0  0  0  0  0  0  0  0  0  0  0
    9.9180   -1.1510   22.9550 C   0  0  1  0  0  0  0  0  0  0  0  0
    8.9900   -0.1870   23.2010 N   0  0  0  0  0  0  0  0  0  0  0  0
    8.4150    0.3720   21.9370 C   0  0  0  0  0  0  0  0  0  0  0  0
    8.9640    1.3690   21.4210 O   0  0  0  0  0  0  0  0  0  0  0  0
    7.2370   -0.3240   21.3610 N   0  0  0  0  0  0  0  0  0  0  0  0
    6.5700    0.1850   20.2580 C   0  0  0  0  0  0  0  0  0  0  0  0
    5.3090    1.0690   20.3520 C   0  0  0  0  0  0  0  0  0  0  0  0
    4.7080    1.5590   19.1940 C   0  0  0  0  0  0  0  0  0  0  0  0
    5.1860    1.2990   17.9110 C   0  0  0  0  0  0  0  0  0  0  0  0
    6.3570    0.4640   17.8330 N   0  0  0  0  0  0  0  0  0  0  0  0
    7.0090   -0.0680   18.9680 C   0  0  0  0  0  0  0  0  0  0  0  0
   10.9070   -0.6530   22.0280 C   0  0  0  0  0  0  0  0  0  0  0  0
   11.9510    0.2300   22.6140 C   0  0  0  0  0  0  0  0  0  0  0  0
   12.8350   -0.7510   22.3890 C   0  0  0  0  0  0  0  0  0  0  0  0
   11.9170   -1.6970   21.8370 C   0  0  0  0  0  0  0  0  0  0  0  0
   10.7260   -3.1020   24.1000 C   0  0  0  0  0  0  0  0  0  0  0  0
   11.8630   -3.5270   24.9030 N   0  0  0  0  0  0  0  0  0  0  0  0
  1  2  1  0
  2  3  1  0
  3  4  2  0
  4  5  1  0
  5  6  1  1
  6  7  1  0
  7  8  2  0
  7  9  1  0
  9 10  1  0
 10 11  2  0
 11 12  1  0
 12 13  2  0
 13 14  1  0
 10 15  1  0
 14 15  2  0
  5 16  1  0
 16 17  1  0
 17 18  1  0
 16 19  1  0
 18 19  1  0
  4 20  1  0
  2 21  1  0
 20 21  2  0
M  END
