pyridine_urea_8724
     RDKit          3D

 21 22  0  0  0  0  0  0  0  0999 V2000
   10.7040   -1.9260   24.3880 C   0  0  0  0  0  0  0  0  0  0  0  0
   10.7550   -1.2100   23.1390 O   0  0  0  0  0  0  0  0  0  0  0  0
   11.8930   -0.4720   22.9530 C   0  0  0  0  0  0  0  0  0  0  0  0
   12.2520    0.7960   23.4250 C   0  0  0  0  0  0  0  0  0  0  0  0
   12.9930    0.1740   22.8000 C   0  0  0  0  0  0  0  0  0  0  0  0
   11.7840   -0.7960   22.7350 C   0  0  0  0  0  0  0  0  0  0  0  0
   10.3470   -0.5390   23.3500 C   0  0  1  0  0  0  0  0  0  0  0  0
   10.0720    0.7980   23.6550 C   0  0  0  0  0  0  0  0  0  0  0  0
   10.4920    1.6750   22.6980 F   0  0  0  0  0  0  0  0  0  0  0  0
    9.3350   -0.9090   22.3250 N   0  0  0  0  0  0  0  0  0  0  0  0
    8.6300   -0.0080   21.5220 C   0  0  0  0  0  0  0  0  0  0  0  0
    9.0800    1.3510   21.2390 O   0  0  0  0  0  0  0  0  0  0  0  0
    7.4560   -0.5630   21.0390 N   0  0  0  0  0  0  0  0  0  0  0  0
    6.6140    0.0660   20.0940 C   0  0  0  0  0  0  0  0  0  0  0  0
    5.4650    0.7870   20.3790 C   0  0  0  0  0  0  0  0  0  0  0  0
    4.7170    1.3810   19.3670 C   0  0  0  0  0  0  0  0  0  0  0  0
    5.1640    1.2260   18.0570 C   0  0  0  0  0  0  0  0  0  0  0  0
    6.2630    0.5320   17.7410 N   0  0  0  0  0  0  0  0  0  0  0  0
    6.9590   -0.0320   18.7540 C   0  0  0  0  0  0  0  0  0  0  0  0
   12.0640   -1.8620   22.1000 C   0  0  0  0  0  0  0  0  0  0  0  0
   13.0740   -1.1700   22.0610 C   0  0  0  0  0  0  0  0  0  0  0  0
  1  2  1  0
  2  3  1  0
  3  4  2  0
  4  5  1  0
  5  6  2  0
  6  7  1  0
  7  8  1  6
  8  9  1  0
  7 10  1  0
 10 11  1  0
 11 12  2  0
 11 13  1  0
 13 14  1  0
 14 15  2  0
 15 16  1  0
 16 17  2  0
 17 18  1  0
 14 19  1  0
 18 19  2  0
  6 20  1  0
  3 21  1  0
 20 21  2  0
M  END
