pyridine_urea_14383
     RDKit          3D

 22 24  0  0  0  0  0  0  0  0999 V2000
    8.7870    0.8810   21.3470 O   0  0  0  0  0  0  0  0  0  0  0  0
    8.1670   -0.0650   21.8320 C   0  0  0  0  0  0  0  0  0  0  0  0
    8.4680   -0.6510   23.1520 N   0  0  0  0  0  0  0  0  0  0  0  0
    7.6530   -1.6670   23.6330 C   0  0  0  0  0  0  0  0  0  0  0  0
    8.0730   -2.9930   23.4850 C   0  0  0  0  0  0  0  0  0  0  0  0
    9.3870   -3.3240   23.2120 N   0  0  0  0  0  0  0  0  0  0  0  0
   10.6890   -2.6730   23.6000 C   0  0  0  0  0  0  0  0  0  0  0  0
   11.5800   -3.3600   24.2790 N   0  0  0  0  0  0  0  0  0  0  0  0
   12.7750   -2.9300   24.6650 C   0  0  0  0  0  0  0  0  0  0  0  0
   13.3270   -1.7140   24.4420 N   0  0  0  0  0  0  0  0  0  0  0  0
   12.4620   -0.9360   23.7560 C   0  0  0  0  0  0  0  0  0  0  0  0
   12.8550    0.6890   23.3110 S   0  0  0  0  0  0  0  0  0  0  0  0
   11.3140    0.8620   22.6080 C   0  0  0  0  0  0  0  0  0  0  0  0
   10.4730   -0.3710   22.6680 C   0  0  0  0  0  0  0  0  0  0  0  0
   11.0890   -1.3780   23.3060 C   0  0  0  0  0  0  0  0  0  0  0  0
    7.1320   -0.6030   21.1140 N   0  0  0  0  0  0  0  0  0  0  0  0
    6.4980    0.0100   20.0920 C   0  0  0  0  0  0  0  0  0  0  0  0
    5.3310    0.7380   20.3480 C   0  0  0  0  0  0  0  0  0  0  0  0
    4.6790    1.3800   19.3020 C   0  0  0  0  0  0  0  0  0  0  0  0
    5.2080    1.2790   18.0330 C   0  0  0  0  0  0  0  0  0  0  0  0
    6.3220    0.5820   17.7600 N   0  0  0  0  0  0  0  0  0  0  0  0
    6.9400   -0.0370   18.7850 C   0  0  0  0  0  0  0  0  0  0  0  0
  1  2  2  0
  2  3  1  0
  3  4  1  0
  4  5  1  0
  5  6  1  0
  6  7  1  0
  7  8  2  0
  8  9  1  0
  9 10  2  0
 10 11  1  0
 11 12  1  0
 12 13  1  0
 13 14  2  0
  7 15  1  0
 11 15  2  0
 14 15  1  0
  2 16  1  0
 16 17  1  0
 17 18  2  0
 18 19  1  0
 19 20  2  0
 20 21  1  0
 17 22  1  0
 21 22  2  0
M  END
