pyridine_urea_3419
     RDKit          3D

 19 20  0  0  0  0  0  0  0  0999 V2000
   12.4200    2.6760   22.8250 C   0  0  0  0  0  0  0  0  0  0  0  0
   11.9010    1.2770   22.9690 C   0  0  0  0  0  0  0  0  0  0  0  0
   12.7350    0.2290   23.3840 C   0  0  0  0  0  0  0  0  0  0  0  0
   12.2800   -1.0850   23.5260 C   0  0  0  0  0  0  0  0  0  0  0  0
   13.4240   -2.4500   24.1250 Br  0  0  0  0  0  0  0  0  0  0  0  0
   11.0000   -1.4280   23.2510 C   0  0  0  0  0  0  0  0  0  0  0  0
   10.5850   -2.5690   23.3620 O   0  0  0  0  0  0  0  0  0  0  0  0
   10.0900   -0.3400   22.8050 C   0  0  0  0  0  0  0  0  0  0  0  0
    8.7450   -0.6730   22.5030 N   0  0  0  0  0  0  0  0  0  0  0  0
    8.2050    0.0730   21.4930 C   0  0  0  0  0  0  0  0  0  0  0  0
    8.7040    1.1440   21.1150 O   0  0  0  0  0  0  0  0  0  0  0  0
    7.0160   -0.5640   20.9970 N   0  0  0  0  0  0  0  0  0  0  0  0
    6.3950    0.0630   19.9690 C   0  0  0  0  0  0  0  0  0  0  0  0
    5.2110    0.7630   20.2180 C   0  0  0  0  0  0  0  0  0  0  0  0
    4.5860    1.4160   19.1720 C   0  0  0  0  0  0  0  0  0  0  0  0
    5.1650    1.3480   17.9120 C   0  0  0  0  0  0  0  0  0  0  0  0
    6.2930    0.6730   17.6600 N   0  0  0  0  0  0  0  0  0  0  0  0
    6.8810    0.0480   18.6870 C   0  0  0  0  0  0  0  0  0  0  0  0
   10.5640    1.0610   22.6720 C   0  0  0  0  0  0  0  0  0  0  0  0
  1  2  1  0
  2  3  2  0
  3  4  1  0
  4  5  1  0
  4  6  2  0
  6  7  1  0
  6  8  1  0
  8  9  1  0
  9 10  1  0
 10 11  2  0
 10 12  1  0
 12 13  1  0
 13 14  2  0
 14 15  1  0
 15 16  2  0
 16 17  1  0
 13 18  1  0
 17 18  2  0
  2 19  1  0
  8 19  2  0
M  END
