pyridine_urea_8368
     RDKit          3D

 22 24  0  0  0  0  0  0  0  0999 V2000
    8.8670    1.1350   21.1960 O   0  0  0  0  0  0  0  0  0  0  0  0
    8.3300    0.1110   21.6560 C   0  0  0  0  0  0  0  0  0  0  0  0
    7.3190   -0.5860   21.0250 N   0  0  0  0  0  0  0  0  0  0  0  0
    6.5560    0.0840   20.0010 C   0  0  0  0  0  0  0  0  0  0  0  0
    5.2520    0.8590   20.3750 C   0  0  0  0  0  0  0  0  0  0  0  0
    4.5760    1.4930   19.3410 C   0  0  0  0  0  0  0  0  0  0  0  0
    5.1860    1.3640   17.9400 C   0  0  0  0  0  0  0  0  0  0  0  0
    6.3130    0.6720   17.6770 N   0  0  0  0  0  0  0  0  0  0  0  0
    6.9550    0.0610   18.6900 C   0  0  0  0  0  0  0  0  0  0  0  0
    8.6050   -0.5120   22.8540 N   0  0  0  0  0  0  0  0  0  0  0  0
    9.9710   -0.5890   23.3650 C   0  0  1  0  0  0  0  0  0  0  0  0
   10.9240   -0.6250   22.2040 C   0  0  0  0  0  0  0  0  0  0  0  0
   11.8260    0.5330   22.6260 C   0  0  0  0  0  0  0  0  0  0  0  0
   11.6700    0.5040   24.0600 N   0  0  0  0  0  0  0  0  0  0  0  0
   12.5480   -0.4170   24.5520 C   0  0  0  0  0  0  0  0  0  0  0  0
   12.1770   -1.8490   24.2220 C   0  0  1  0  0  0  0  0  0  0  0  0
   13.1900   -2.2790   23.2270 C   0  0  0  0  0  0  0  0  0  0  0  0
   14.0500   -2.9710   23.9610 N   0  0  0  0  0  0  0  0  0  0  0  0
   13.5340   -3.1420   25.2160 C   0  0  0  0  0  0  0  0  0  0  0  0
   14.2350   -3.7490   26.2070 O   0  0  0  0  0  0  0  0  0  0  0  0
   12.2570   -2.6330   25.3020 O   0  0  0  0  0  0  0  0  0  0  0  0
   10.3330    0.4010   24.2800 C   0  0  0  0  0  0  0  0  0  0  0  0
  1  2  2  0
  2  3  1  0
  3  4  1  0
  4  5  2  0
  5  6  1  0
  6  7  2  0
  7  8  1  0
  4  9  1  0
  8  9  2  0
  2 10  1  0
 11 10  1  6
 11 12  1  0
 12 13  1  0
 13 14  1  0
 14 15  1  0
 16 15  1  1
 16 17  1  0
 17 18  1  0
 18 19  1  0
 19 20  2  0
 16 21  1  0
 19 21  1  0
 11 22  1  0
 14 22  1  0
M  END
