pyridine_urea_12532
     RDKit          3D

 21 22  0  0  0  0  0  0  0  0999 V2000
   11.3530    4.1210   23.5180 C   0  0  0  0  0  0  0  0  0  0  0  0
   12.0730    3.5040   22.3210 C   0  0  0  0  0  0  0  0  0  0  0  0
   13.0480    4.6230   21.7980 C   0  0  0  0  0  0  0  0  0  0  0  0
   12.9200    2.2850   22.7760 C   0  0  0  0  0  0  0  0  0  0  0  0
   12.6360    1.2100   22.2760 O   0  0  0  0  0  0  0  0  0  0  0  0
   11.8590    0.3210   23.0680 C   0  0  1  0  0  0  0  0  0  0  0  0
   10.5850    0.7520   23.0500 C   0  0  0  0  0  0  0  0  0  0  0  0
   10.1530   -0.5280   22.4610 C   0  0  1  0  0  0  0  0  0  0  0  0
    9.5770   -1.1890   21.7150 N   0  0  0  0  0  0  0  0  0  0  0  0
    8.5650   -0.2120   21.2770 C   0  0  0  0  0  0  0  0  0  0  0  0
    8.8760    1.1920   21.1030 O   0  0  0  0  0  0  0  0  0  0  0  0
    7.2740   -0.8000   21.0240 N   0  0  0  0  0  0  0  0  0  0  0  0
    6.5920   -0.1390   20.0370 C   0  0  0  0  0  0  0  0  0  0  0  0
    5.2830    0.5650   20.4020 C   0  0  0  0  0  0  0  0  0  0  0  0
    4.4990    1.3360   19.3290 C   0  0  0  0  0  0  0  0  0  0  0  0
    5.1690    1.2960   17.9610 C   0  0  0  0  0  0  0  0  0  0  0  0
    6.3550    0.6160   17.7530 N   0  0  0  0  0  0  0  0  0  0  0  0
    7.0400   -0.0760   18.7460 C   0  0  0  0  0  0  0  0  0  0  0  0
   11.5600   -0.9640   22.5980 C   0  0  0  0  0  0  0  0  0  0  0  0
   12.3180   -1.7690   21.7620 C   0  0  0  0  0  0  0  0  0  0  0  0
   12.0080   -2.2370   23.2910 C   0  0  0  0  0  0  0  0  0  0  0  0
  1  2  1  0
  2  3  1  0
  2  4  1  0
  4  5  1  0
  6  5  1  6
  6  7  1  0
  7  8  1  0
  8  9  1  6
  9 10  1  0
 10 11  2  0
 10 12  1  0
 12 13  1  0
 13 14  2  0
 14 15  1  0
 15 16  2  0
 16 17  1  0
 13 18  1  0
 17 18  2  0
  6 19  1  0
  8 19  1  0
 19 20  1  0
 19 21  1  0
M  END
