pyridine_urea_5160
     RDKit          3D

 20 21  0  0  0  0  0  0  0  0999 V2000
   12.9920   -2.2350   21.0390 C   0  0  0  0  0  0  0  0  0  0  0  0
   12.0540   -1.9050   22.1300 C   0  0  0  0  0  0  0  0  0  0  0  0
   10.8330   -2.6470   22.1670 N   0  0  0  0  0  0  0  0  0  0  0  0
   10.2100   -2.1480   23.2340 N   0  0  0  0  0  0  0  0  0  0  0  0
    8.9640   -2.7380   23.4460 C   0  0  0  0  0  0  0  0  0  0  0  0
    7.8830   -1.9070   23.2660 C   0  0  0  0  0  0  0  0  0  0  0  0
    8.3020   -0.6570   22.8400 N   0  0  0  0  0  0  0  0  0  0  0  0
    8.1620   -0.1290   21.6480 C   0  0  0  0  0  0  0  0  0  0  0  0
    8.8570    0.7790   21.2230 O   0  0  0  0  0  0  0  0  0  0  0  0
    7.1110   -0.7490   20.9920 N   0  0  0  0  0  0  0  0  0  0  0  0
    6.4000   -0.0270   20.0270 C   0  0  0  0  0  0  0  0  0  0  0  0
    5.2130    0.6710   20.2580 C   0  0  0  0  0  0  0  0  0  0  0  0
    4.5710    1.4160   19.0820 C   0  0  0  0  0  0  0  0  0  0  0  0
    5.2260    1.3560   17.8700 C   0  0  0  0  0  0  0  0  0  0  0  0
    6.3610    0.6800   17.6580 N   0  0  0  0  0  0  0  0  0  0  0  0
    6.9220    0.0040   18.7480 C   0  0  0  0  0  0  0  0  0  0  0  0
   10.9390   -1.1360   23.8840 C   0  0  0  0  0  0  0  0  0  0  0  0
   10.5370   -0.4380   25.0170 C   0  0  0  0  0  0  0  0  0  0  0  0
   12.1250   -0.9900   23.1560 C   0  0  0  0  0  0  0  0  0  0  0  0
   13.1210   -0.0980   23.4400 C   0  0  0  0  0  0  0  0  0  0  0  0
  1  2  1  0
  2  3  2  0
  3  4  1  0
  4  5  1  0
  5  6  1  0
  6  7  1  0
  7  8  1  0
  8  9  2  0
  8 10  1  0
 10 11  1  0
 11 12  2  0
 12 13  1  0
 13 14  2  0
 14 15  1  0
 11 16  1  0
 15 16  2  0
  4 17  1  0
 17 18  1  0
  2 19  1  0
 17 19  2  0
 19 20  1  0
M  END
