pyridine_urea_13933
     RDKit          3D

 24 27  0  0  0  0  0  0  0  0999 V2000
    8.3840    1.3750   20.9740 O   0  0  0  0  0  0  0  0  0  0  0  0
    7.8400    0.2700   20.8750 C   0  0  0  0  0  0  0  0  0  0  0  0
    6.5340   -0.0070   21.0020 N   0  0  0  0  0  0  0  0  0  0  0  0
    6.0140    0.5330   19.8480 C   0  0  0  0  0  0  0  0  0  0  0  0
    4.7420    1.3100   20.0060 C   0  0  0  0  0  0  0  0  0  0  0  0
    4.2930    1.8880   18.7370 C   0  0  0  0  0  0  0  0  0  0  0  0
    5.0530    1.6580   17.6060 C   0  0  0  0  0  0  0  0  0  0  0  0
    6.1820    0.9300   17.5310 N   0  0  0  0  0  0  0  0  0  0  0  0
    6.6360    0.3880   18.6460 C   0  0  0  0  0  0  0  0  0  0  0  0
    8.4790   -0.8460   20.6010 N   0  0  0  0  0  0  0  0  0  0  0  0
    9.1660   -1.0570   21.7490 C   0  0  0  0  0  0  0  0  0  0  0  0
   10.3720   -1.5340   21.7440 C   0  0  0  0  0  0  0  0  0  0  0  0
   10.6560   -1.5760   23.1210 C   0  0  0  0  0  0  0  0  0  0  0  0
    9.8370   -1.1980   24.2650 C   0  0  0  0  0  0  0  0  0  0  0  0
    8.6500   -0.7180   24.1470 C   0  0  0  0  0  0  0  0  0  0  0  0
    7.8450   -0.3350   25.2150 C   0  0  0  0  0  0  0  0  0  0  0  0
    6.5430    0.1530   25.0840 N   0  0  0  0  0  0  0  0  0  0  0  0
    6.1790    0.3940   26.3830 N   0  0  0  0  0  0  0  0  0  0  0  0
    7.1860    0.0720   27.2190 C   0  0  0  0  0  0  0  0  0  0  0  0
    7.1750    0.1990   28.7130 C   0  0  0  0  0  0  0  0  0  0  0  0
    8.3540    0.0650   29.3840 C   0  0  0  0  0  0  0  0  0  0  0  0
    7.5590   -1.1280   29.5470 C   0  0  0  0  0  0  0  0  0  0  0  0
    8.2190   -0.3840   26.4950 N   0  0  0  0  0  0  0  0  0  0  0  0
    8.2800   -0.6330   22.9110 C   0  0  0  0  0  0  0  0  0  0  0  0
  1  2  2  0
  2  3  1  0
  3  4  1  0
  4  5  2  0
  5  6  1  0
  6  7  2  0
  7  8  1  0
  4  9  1  0
  8  9  2  0
  2 10  1  0
 10 11  1  0
 11 12  2  0
 12 13  1  0
 13 14  2  0
 14 15  1  0
 15 16  1  0
 16 17  2  0
 17 18  1  0
 18 19  2  0
 19 20  1  0
 20 21  1  0
 20 22  1  0
 21 22  1  0
 16 23  1  0
 19 23  1  0
 11 24  1  0
 15 24  2  0
M  END
