pyridine_urea_2246
     RDKit          3D

 26 28  0  0  0  0  0  0  0  0999 V2000
   13.1960    1.9410   22.8540 C   0  0  0  0  0  0  0  0  0  0  0  0
   12.1550    0.9470   22.7750 C   0  0  0  0  0  0  0  0  0  0  0  0
   12.5140   -0.5340   22.6070 C   0  0  0  0  0  0  0  0  0  0  0  0
   11.3690   -1.4900   22.4850 C   0  0  0  0  0  0  0  0  0  0  0  0
    9.9980   -0.9330   22.5450 C   0  0  0  0  0  0  0  0  0  0  0  0
    8.6570   -1.4240   22.4310 N   0  0  0  0  0  0  0  0  0  0  0  0
    8.0210   -0.6030   21.5020 C   0  0  0  0  0  0  0  0  0  0  0  0
    8.5450    0.4260   21.0950 O   0  0  0  0  0  0  0  0  0  0  0  0
    6.7260   -1.0270   21.0430 N   0  0  0  0  0  0  0  0  0  0  0  0
    6.2220   -0.2560   20.0230 C   0  0  0  0  0  0  0  0  0  0  0  0
    5.0360    0.4720   20.2110 C   0  0  0  0  0  0  0  0  0  0  0  0
    4.5530    1.2490   19.1740 C   0  0  0  0  0  0  0  0  0  0  0  0
    5.2140    1.3190   17.9650 C   0  0  0  0  0  0  0  0  0  0  0  0
    6.3510    0.6270   17.7590 N   0  0  0  0  0  0  0  0  0  0  0  0
    6.8250   -0.1340   18.7770 C   0  0  0  0  0  0  0  0  0  0  0  0
    9.6720    0.4560   22.7370 C   0  0  0  0  0  0  0  0  0  0  0  0
   10.7620    1.4850   22.8540 C   0  0  0  0  0  0  0  0  0  0  0  0
   10.6280    2.8360   22.9960 N   0  0  0  0  0  0  0  0  0  0  0  0
    9.7230    3.4390   23.8060 C   0  0  0  0  0  0  0  0  0  0  0  0
    8.6240    2.8540   24.5200 O   0  0  0  0  0  0  0  0  0  0  0  0
    9.8400    4.8230   24.0080 C   0  0  0  0  0  0  0  0  0  0  0  0
   10.6270    5.3070   25.0560 C   0  0  0  0  0  0  0  0  0  0  0  0
   10.7830    6.6480   25.3110 C   0  0  0  0  0  0  0  0  0  0  0  0
   10.1640    7.5900   24.5390 N   0  0  0  0  0  0  0  0  0  0  0  0
    9.3100    7.2660   23.3990 C   0  0  0  0  0  0  0  0  0  0  0  0
    9.1810    5.7480   23.1740 C   0  0  0  0  0  0  0  0  0  0  0  0
  1  2  1  0
  2  3  2  0
  3  4  1  0
  4  5  2  0
  5  6  1  0
  6  7  1  0
  7  8  2  0
  7  9  1  0
  9 10  1  0
 10 11  2  0
 11 12  1  0
 12 13  2  0
 13 14  1  0
 10 15  1  0
 14 15  2  0
  5 16  1  0
  2 17  1  0
 16 17  2  0
 17 18  1  0
 18 19  1  0
 19 20  2  0
 19 21  1  0
 21 22  2  0
 22 23  1  0
 23 24  2  0
 24 25  1  0
 21 26  1  0
 25 26  2  0
M  END
