pyridine_urea_8303
     RDKit          3D

 22 24  0  0  0  0  0  0  0  0999 V2000
    8.9000    0.5840   21.3170 O   0  0  0  0  0  0  0  0  0  0  0  0
    8.1640   -0.3300   21.6580 C   0  0  0  0  0  0  0  0  0  0  0  0
    8.3320   -1.0720   22.8110 N   0  0  0  0  0  0  0  0  0  0  0  0
    9.6350   -1.5910   23.1740 C   0  0  0  0  0  0  0  0  0  0  0  0
   10.7690   -0.5660   23.0000 C   0  0  2  0  0  0  0  0  0  0  0  0
   11.9510   -1.0960   22.5470 C   0  0  0  0  0  0  0  0  0  0  0  0
   12.9530   -0.0230   22.8510 C   0  0  0  0  0  0  0  0  0  0  0  0
   12.2900    0.8310   23.7300 C   0  0  1  0  0  0  0  0  0  0  0  0
   12.0180    2.3100   23.3340 C   0  0  0  0  0  0  0  0  0  0  0  0
   13.1270    3.1600   22.7280 C   0  0  0  0  0  0  0  0  0  0  0  0
   12.7640    4.6030   22.3930 C   0  0  0  0  0  0  0  0  0  0  0  0
   11.3710    5.1700   22.6490 C   0  0  0  0  0  0  0  0  0  0  0  0
   10.3190    4.2520   23.2580 C   0  0  0  0  0  0  0  0  0  0  0  0
   10.7230    2.8210   23.5750 C   0  0  0  0  0  0  0  0  0  0  0  0
   11.0450    0.2800   24.0770 C   0  0  0  0  0  0  0  0  0  0  0  0
    7.0480   -0.7590   20.9860 N   0  0  0  0  0  0  0  0  0  0  0  0
    6.3580   -0.0230   20.0180 C   0  0  0  0  0  0  0  0  0  0  0  0
    5.1550    0.6600   20.2220 C   0  0  0  0  0  0  0  0  0  0  0  0
    4.5850    1.3600   19.1710 C   0  0  0  0  0  0  0  0  0  0  0  0
    5.2410    1.3570   17.9380 C   0  0  0  0  0  0  0  0  0  0  0  0
    6.3940    0.7050   17.7190 N   0  0  0  0  0  0  0  0  0  0  0  0
    6.9150    0.0360   18.7620 C   0  0  0  0  0  0  0  0  0  0  0  0
  1  2  2  0
  2  3  1  0
  3  4  1  0
  5  4  1  1
  5  6  1  0
  6  7  1  0
  7  8  1  0
  8  9  1  6
  9 10  2  0
 10 11  1  0
 11 12  2  0
 12 13  1  0
  9 14  1  0
 13 14  2  0
  5 15  1  0
  8 15  1  0
  2 16  1  0
 16 17  1  0
 17 18  2  0
 18 19  1  0
 19 20  2  0
 20 21  1  0
 17 22  1  0
 21 22  2  0
M  END
