pyridine_urea_8643
     RDKit          3D

 21 23  0  0  0  0  0  0  0  0999 V2000
    8.6830    1.1810   21.1070 O   0  0  0  0  0  0  0  0  0  0  0  0
    8.0060    0.2730   21.6190 C   0  0  0  0  0  0  0  0  0  0  0  0
    6.9900   -0.4170   21.0440 N   0  0  0  0  0  0  0  0  0  0  0  0
    6.3650    0.1560   19.9610 C   0  0  0  0  0  0  0  0  0  0  0  0
    5.1840    0.8560   20.1700 C   0  0  0  0  0  0  0  0  0  0  0  0
    4.5540    1.4660   19.0910 C   0  0  0  0  0  0  0  0  0  0  0  0
    5.1410    1.3430   17.8540 C   0  0  0  0  0  0  0  0  0  0  0  0
    6.2720    0.6620   17.6360 N   0  0  0  0  0  0  0  0  0  0  0  0
    6.8590    0.0830   18.6890 C   0  0  0  0  0  0  0  0  0  0  0  0
    8.2550   -0.1270   22.8930 N   0  0  0  0  0  0  0  0  0  0  0  0
    9.6090    0.1520   23.1330 C   0  0  0  0  0  0  0  0  0  0  0  0
   10.0560    1.4670   23.7080 C   0  0  0  0  0  0  0  0  0  0  0  0
   11.4150    1.6620   23.8690 C   0  0  0  0  0  0  0  0  0  0  0  0
   12.3180    0.6710   23.5210 C   0  0  0  0  0  0  0  0  0  0  0  0
   11.8130   -0.5070   23.0080 C   0  0  0  0  0  0  0  0  0  0  0  0
   12.4590   -1.5570   22.6030 C   0  0  0  0  0  0  0  0  0  0  0  0
   12.0760   -1.9710   21.3960 C   0  0  0  0  0  0  0  0  0  0  0  0
   12.7310   -2.9730   21.0570 N   0  0  0  0  0  0  0  0  0  0  0  0
   13.5200   -3.1470   22.1520 C   0  0  0  0  0  0  0  0  0  0  0  0
   13.3860   -2.2680   23.1800 N   0  0  0  0  0  0  0  0  0  0  0  0
   10.5070   -0.7650   22.8170 C   0  0  0  0  0  0  0  0  0  0  0  0
  1  2  2  0
  2  3  1  0
  3  4  1  0
  4  5  2  0
  5  6  1  0
  6  7  2  0
  7  8  1  0
  4  9  1  0
  8  9  2  0
  2 10  1  0
 10 11  1  0
 11 12  2  0
 12 13  1  0
 13 14  2  0
 14 15  1  0
 15 16  1  0
 16 17  2  0
 17 18  1  0
 18 19  1  0
 16 20  1  0
 19 20  2  0
 11 21  1  0
 15 21  2  0
M  END
