pyridine_urea_8902
     RDKit          3D

 20 21  0  0  0  0  0  0  0  0999 V2000
    3.3110    1.2230   21.6790 C   0  0  0  0  0  0  0  0  0  0  0  0
    3.2600    1.0410   20.1420 C   0  0  0  0  0  0  0  0  0  0  0  0
    4.1070    2.0890   19.3860 C   0  0  2  0  0  0  0  0  0  0  0  0
    3.4310    3.0270   18.6540 C   0  0  0  0  0  0  0  0  0  0  0  0
    5.0210    1.3550   18.4080 C   0  0  0  0  0  0  0  0  0  0  0  0
    5.2120    1.1650   19.8590 N   0  0  0  0  0  0  0  0  0  0  0  0
    5.8960    0.5780   20.9250 C   0  0  0  0  0  0  0  0  0  0  0  0
    6.7530   -0.1060   20.1100 C   0  0  0  0  0  0  0  0  0  0  0  0
    7.6620   -0.8430   20.7680 N   0  0  0  0  0  0  0  0  0  0  0  0
    8.6640   -0.3190   21.5010 C   0  0  0  0  0  0  0  0  0  0  0  0
    8.9020    0.8730   21.3210 O   0  0  0  0  0  0  0  0  0  0  0  0
    9.3260   -1.1030   22.3520 N   0  0  0  0  0  0  0  0  0  0  0  0
   10.5460   -0.6000   22.5750 C   0  0  0  0  0  0  0  0  0  0  0  0
   11.7050   -1.4390   22.4320 C   0  0  0  0  0  0  0  0  0  0  0  0
   13.0270   -0.9140   22.6620 C   0  0  0  0  0  0  0  0  0  0  0  0
   13.1680    0.5180   23.0490 C   0  0  0  0  0  0  0  0  0  0  0  0
   11.9480    0.1260   22.8610 N   0  0  0  0  0  0  0  0  0  0  0  0
   10.7930    0.7180   22.9350 C   0  0  0  0  0  0  0  0  0  0  0  0
    6.8400   -0.1480   18.7550 C   0  0  0  0  0  0  0  0  0  0  0  0
    6.0330    0.5310   18.0020 N   0  0  0  0  0  0  0  0  0  0  0  0
  1  2  1  0
  2  3  1  0
  3  4  1  6
  3  5  1  0
  5  6  2  0
  6  7  1  0
  7  8  2  0
  8  9  1  0
  9 10  1  0
 10 11  2  0
 10 12  1  0
 12 13  1  0
 13 14  2  0
 14 15  1  0
 15 16  2  0
 16 17  1  0
 13 18  1  0
 17 18  2  0
  8 19  1  0
  5 20  1  0
 19 20  2  0
M  END
