pyridine_urea_8928
     RDKit          3D

 20 21  0  0  0  0  0  0  0  0999 V2000
    8.9410    0.9060   21.4990 O   0  0  0  0  0  0  0  0  0  0  0  0
    8.4840   -0.2250   21.4400 C   0  0  0  0  0  0  0  0  0  0  0  0
    9.2580   -1.3270   21.6710 N   0  0  0  0  0  0  0  0  0  0  0  0
    9.9820   -1.4760   22.9190 C   0  0  0  0  0  0  0  0  0  0  0  0
   11.4880   -1.1670   22.7630 C   0  0  0  0  0  0  0  0  0  0  0  0
   11.9820    0.1100   23.0600 C   0  0  0  0  0  0  0  0  0  0  0  0
   13.1240    0.5350   22.9510 C   0  0  0  0  0  0  0  0  0  0  0  0
   12.0830    1.2160   23.3930 C   0  0  0  0  0  0  0  0  0  0  0  0
   10.8950    0.1400   23.3180 C   0  0  0  0  0  0  0  0  0  0  0  0
   10.4590    1.1710   23.7230 C   0  0  0  0  0  0  0  0  0  0  0  0
    9.2250    1.6040   24.1240 F   0  0  0  0  0  0  0  0  0  0  0  0
   11.6100    1.5880   23.5980 C   0  0  0  0  0  0  0  0  0  0  0  0
   10.7240    2.5060   24.0670 F   0  0  0  0  0  0  0  0  0  0  0  0
    7.1950   -0.5520   21.1100 N   0  0  0  0  0  0  0  0  0  0  0  0
    6.5390    0.0370   20.0490 C   0  0  0  0  0  0  0  0  0  0  0  0
    5.4000    0.7540   20.4270 C   0  0  0  0  0  0  0  0  0  0  0  0
    4.6810    1.4230   19.2970 C   0  0  0  0  0  0  0  0  0  0  0  0
    5.1410    1.3110   18.0080 C   0  0  0  0  0  0  0  0  0  0  0  0
    6.2400    0.6000   17.6810 N   0  0  0  0  0  0  0  0  0  0  0  0
    6.9330   -0.0380   18.7310 C   0  0  0  0  0  0  0  0  0  0  0  0
  1  2  2  0
  2  3  1  0
  3  4  1  0
  4  5  1  0
  5  6  1  0
  6  7  2  0
  7  8  1  0
  8  9  2  0
  9 10  1  0
 10 11  1  0
  6 12  1  0
 10 12  2  0
 12 13  1  0
  2 14  1  0
 14 15  1  0
 15 16  2  0
 16 17  1  0
 17 18  2  0
 18 19  1  0
 15 20  1  0
 19 20  2  0
M  END
