pyridine_urea_11061
     RDKit          3D

 18 18  0  0  0  0  0  0  0  0999 V2000
   10.4590   -0.0840   24.2610 C   0  0  0  0  0  0  0  0  0  0  0  0
   11.8270    0.4770   24.0540 C   0  0  0  0  0  0  0  0  0  0  0  0
   12.5600   -0.0530   25.0680 F   0  0  0  0  0  0  0  0  0  0  0  0
   11.6300    1.8030   24.2410 F   0  0  0  0  0  0  0  0  0  0  0  0
   12.5470    0.3460   22.8910 C   0  0  0  0  0  0  0  0  0  0  0  0
   12.7820   -0.9870   22.5840 C   0  0  0  0  0  0  0  0  0  0  0  0
   11.6590   -1.7190   22.1730 C   0  0  0  0  0  0  0  0  0  0  0  0
   10.2990   -1.3610   22.7220 C   0  0  0  0  0  0  0  0  0  0  0  0
    9.2430   -1.3280   21.7300 N   0  0  0  0  0  0  0  0  0  0  0  0
    8.4430   -0.2740   21.4110 C   0  0  0  0  0  0  0  0  0  0  0  0
    8.8920    0.8630   21.3470 O   0  0  0  0  0  0  0  0  0  0  0  0
    7.0500   -0.5980   21.1500 N   0  0  0  0  0  0  0  0  0  0  0  0
    6.4380    0.0230   20.0800 C   0  0  0  0  0  0  0  0  0  0  0  0
    5.2670    0.7340   20.3070 C   0  0  0  0  0  0  0  0  0  0  0  0
    4.6370    1.3830   19.2390 C   0  0  0  0  0  0  0  0  0  0  0  0
    5.2080    1.2950   17.9820 C   0  0  0  0  0  0  0  0  0  0  0  0
    6.3320    0.6110   17.7410 N   0  0  0  0  0  0  0  0  0  0  0  0
    6.9200   -0.0100   18.7860 C   0  0  0  0  0  0  0  0  0  0  0  0
  1  2  1  0
  2  3  1  0
  2  4  1  0
  2  5  1  0
  5  6  1  0
  6  7  1  0
  7  8  1  0
  8  9  1  0
  9 10  1  0
 10 11  2  0
 10 12  1  0
 12 13  1  0
 13 14  2  0
 14 15  1  0
 15 16  2  0
 16 17  1  0
 13 18  1  0
 17 18  2  0
M  END
