pyridine_urea_12149
     RDKit          3D

 23 25  0  0  0  0  0  0  0  0999 V2000
    8.8100    1.4840   21.1480 O   0  0  0  0  0  0  0  0  0  0  0  0
    8.1460    0.6160   21.7140 C   0  0  0  0  0  0  0  0  0  0  0  0
    7.1880   -0.1820   21.1500 N   0  0  0  0  0  0  0  0  0  0  0  0
    6.5040    0.2820   20.0380 C   0  0  0  0  0  0  0  0  0  0  0  0
    5.3460    1.0250   20.2480 C   0  0  0  0  0  0  0  0  0  0  0  0
    4.6450    1.5340   19.1640 C   0  0  0  0  0  0  0  0  0  0  0  0
    5.1370    1.2760   17.9080 C   0  0  0  0  0  0  0  0  0  0  0  0
    6.2400    0.5550   17.6790 N   0  0  0  0  0  0  0  0  0  0  0  0
    6.9020    0.0700   18.7430 C   0  0  0  0  0  0  0  0  0  0  0  0
    8.3240    0.3570   23.0460 N   0  0  0  0  0  0  0  0  0  0  0  0
    9.6950    0.0060   23.3190 C   0  0  0  0  0  0  0  0  0  0  0  0
   10.3840   -0.5080   22.1140 C   0  0  0  0  0  0  0  0  0  0  0  0
   11.6710   -0.8700   22.2840 C   0  0  0  0  0  0  0  0  0  0  0  0
   12.2710   -0.7640   23.5010 C   0  0  0  0  0  0  0  0  0  0  0  0
   13.5020   -1.2670   23.2380 N   0  0  0  0  0  0  0  0  0  0  0  0
   13.3020   -1.3220   21.9110 C   0  0  0  0  0  0  0  0  0  0  0  0
   12.3400   -2.2310   21.5210 C   0  0  0  0  0  0  0  0  0  0  0  0
   11.8070   -2.9170   22.4120 O   0  0  0  0  0  0  0  0  0  0  0  0
   12.2710   -2.7840   23.7650 C   0  0  0  0  0  0  0  0  0  0  0  0
   13.5970   -2.4250   23.9280 C   0  0  0  0  0  0  0  0  0  0  0  0
   11.7430   -0.3070   24.6510 C   0  0  0  0  0  0  0  0  0  0  0  0
   12.5520   -0.3360   25.6780 F   0  0  0  0  0  0  0  0  0  0  0  0
   10.4140    0.1160   24.6430 C   0  0  0  0  0  0  0  0  0  0  0  0
  1  2  2  0
  2  3  1  0
  3  4  1  0
  4  5  2  0
  5  6  1  0
  6  7  2  0
  7  8  1  0
  4  9  1  0
  8  9  2  0
  2 10  1  0
 10 11  1  0
 11 12  2  0
 12 13  1  0
 13 14  2  0
 14 15  1  0
 15 16  1  0
 16 17  1  0
 17 18  1  0
 18 19  1  0
 15 20  1  0
 19 20  1  0
 14 21  1  0
 21 22  1  0
 11 23  1  0
 21 23  2  0
M  END
