pyridine_urea_1070
     RDKit          3D

 22 24  0  0  0  0  0  0  0  0999 V2000
    7.8240    0.5520   22.4400 O   0  0  0  0  0  0  0  0  0  0  0  0
    8.0370   -0.4000   21.7270 C   0  0  0  0  0  0  0  0  0  0  0  0
    9.3500   -0.9980   21.7060 N   0  0  0  0  0  0  0  0  0  0  0  0
   10.2770    0.0170   21.8360 C   0  0  0  0  0  0  0  0  0  0  0  0
   11.7960   -0.3360   21.9960 C   0  0  0  0  0  0  0  0  0  0  0  0
   12.8160    0.9180   22.1040 C   0  0  0  0  0  0  0  0  0  0  0  0
   12.2120    2.5260   22.1200 C   0  0  0  0  0  0  0  0  0  0  0  0
   12.9050    3.9180   22.2560 C   0  0  0  0  0  0  0  0  0  0  0  0
   13.5170    4.4530   21.3530 O   0  0  0  0  0  0  0  0  0  0  0  0
   12.7230    4.5430   23.4620 N   0  0  0  0  0  0  0  0  0  0  0  0
   11.6580    5.4020   23.8160 C   0  0  0  0  0  0  0  0  0  0  0  0
   10.9700    6.2270   22.9540 C   0  0  0  0  0  0  0  0  0  0  0  0
   11.8730    7.0110   23.8030 C   0  0  0  0  0  0  0  0  0  0  0  0
   10.6570    2.7410   21.9970 C   0  0  0  0  0  0  0  0  0  0  0  0
    9.7320    1.4890   21.8340 C   0  0  0  0  0  0  0  0  0  0  0  0
    7.1250   -0.9570   20.8790 N   0  0  0  0  0  0  0  0  0  0  0  0
    6.4370   -0.2090   19.9850 C   0  0  0  0  0  0  0  0  0  0  0  0
    5.2440    0.4840   20.2360 C   0  0  0  0  0  0  0  0  0  0  0  0
    4.6150    1.2500   19.2340 C   0  0  0  0  0  0  0  0  0  0  0  0
    5.1940    1.3170   17.9730 C   0  0  0  0  0  0  0  0  0  0  0  0
    6.3390    0.6550   17.7040 N   0  0  0  0  0  0  0  0  0  0  0  0
    6.9630   -0.1140   18.7200 C   0  0  0  0  0  0  0  0  0  0  0  0
  1  2  2  0
  2  3  1  0
  3  4  1  0
  4  5  2  0
  5  6  1  0
  6  7  2  0
  7  8  1  0
  8  9  2  0
  8 10  1  0
 10 11  1  0
 11 12  1  0
 11 13  1  0
 12 13  1  0
  7 14  1  0
  4 15  1  0
 14 15  2  0
  2 16  1  0
 16 17  1  0
 17 18  2  0
 18 19  1  0
 19 20  2  0
 20 21  1  0
 17 22  1  0
 21 22  2  0
M  END
