pyridine_urea_7360
     RDKit          3D

 18 19  0  0  0  0  0  0  0  0999 V2000
   13.2660   -1.4700   21.3720 C   0  0  0  0  0  0  0  0  0  0  0  0
   12.9870   -0.2580   22.6940 S   0  0  0  0  0  0  0  0  0  0  0  0
   13.6830   -0.6530   23.8750 O   0  0  0  0  0  0  0  0  0  0  0  0
   12.7540    1.1020   22.3070 O   0  0  0  0  0  0  0  0  0  0  0  0
   11.4040   -0.9250   23.0220 C   0  0  0  0  0  0  0  0  0  0  0  0
   10.2480   -0.1830   22.8570 C   0  0  0  0  0  0  0  0  0  0  0  0
    9.2850   -0.6600   22.0710 N   0  0  0  0  0  0  0  0  0  0  0  0
    8.3940    0.1130   21.3830 C   0  0  0  0  0  0  0  0  0  0  0  0
    8.6500    1.2730   21.0500 O   0  0  0  0  0  0  0  0  0  0  0  0
    7.1490   -0.6210   21.1140 N   0  0  0  0  0  0  0  0  0  0  0  0
    6.4630    0.0310   20.0640 C   0  0  0  0  0  0  0  0  0  0  0  0
    5.2990    0.7360   20.3870 C   0  0  0  0  0  0  0  0  0  0  0  0
    4.6150    1.3960   19.3680 C   0  0  0  0  0  0  0  0  0  0  0  0
    5.1970    1.2940   17.9710 C   0  0  0  0  0  0  0  0  0  0  0  0
    6.3110    0.6030   17.7070 N   0  0  0  0  0  0  0  0  0  0  0  0
    6.9170   -0.0130   18.7490 C   0  0  0  0  0  0  0  0  0  0  0  0
   11.4690   -1.6290   24.4310 C   0  0  0  0  0  0  0  0  0  0  0  0
   11.4110   -2.3050   23.3770 C   0  0  0  0  0  0  0  0  0  0  0  0
  2  1  1  0
  2  3  2  0
  2  4  2  0
  2  5  1  0
  5  6  1  0
  6  7  1  0
  7  8  1  0
  8  9  2  0
  8 10  1  0
 10 11  1  0
 11 12  2  0
 12 13  1  0
 13 14  2  0
 14 15  1  0
 11 16  1  0
 15 16  2  0
  5 17  1  0
  5 18  1  0
 17 18  1  0
M  END
