pyridine_urea_15073
     RDKit          3D

 18 19  0  0  0  0  0  0  0  0999 V2000
   13.0770   -2.5600   22.4780 C   0  0  0  0  0  0  0  0  0  0  0  0
   12.1800   -1.4690   21.9150 C   0  0  0  0  0  0  0  0  0  0  0  0
   11.1900   -1.0550   22.9800 C   0  0  0  0  0  0  0  0  0  0  0  0
    9.8850   -1.7800   22.8160 C   0  0  0  0  0  0  0  0  0  0  0  0
    9.2670   -1.3510   21.5440 N   0  0  0  0  0  0  0  0  0  0  0  0
    8.4580   -0.2480   21.3990 C   0  0  0  0  0  0  0  0  0  0  0  0
    8.8570    0.8960   21.5310 O   0  0  0  0  0  0  0  0  0  0  0  0
    7.1460   -0.6230   21.0430 N   0  0  0  0  0  0  0  0  0  0  0  0
    6.4190    0.0370   20.0730 C   0  0  0  0  0  0  0  0  0  0  0  0
    5.1160    0.8000   20.3210 C   0  0  0  0  0  0  0  0  0  0  0  0
    4.5690    1.4020   19.1820 C   0  0  0  0  0  0  0  0  0  0  0  0
    5.1960    1.2910   17.9500 C   0  0  0  0  0  0  0  0  0  0  0  0
    6.3330    0.6160   17.7390 N   0  0  0  0  0  0  0  0  0  0  0  0
    6.9110    0.0090   18.7890 C   0  0  0  0  0  0  0  0  0  0  0  0
   11.8270   -1.2210   24.1880 C   0  0  0  0  0  0  0  0  0  0  0  0
   12.6740   -0.1710   24.3970 C   0  0  0  0  0  0  0  0  0  0  0  0
   12.0630    0.9890   23.7110 C   0  0  0  0  0  0  0  0  0  0  0  0
   10.9930    0.4770   23.0150 C   0  0  0  0  0  0  0  0  0  0  0  0
  1  2  1  0
  3  2  1  0
  3  4  1  0
  4  5  1  0
  5  6  1  0
  6  7  2  0
  6  8  1  0
  8  9  1  0
  9 10  2  0
 10 11  1  0
 11 12  2  0
 12 13  1  0
  9 14  1  0
 13 14  2  0
  3 15  1  0
 15 16  1  0
 16 17  1  0
  3 18  1  0
 17 18  1  0
M  END
