pyridine_urea_465
     RDKit          3D

 25 26  0  0  0  0  0  0  0  0999 V2000
   13.8850   -2.8920   25.7390 C   0  0  0  0  0  0  0  0  0  0  0  0
   12.8170   -3.2770   25.3180 O   0  0  0  0  0  0  0  0  0  0  0  0
   12.3630   -2.5600   24.2820 C   0  0  0  0  0  0  0  0  0  0  0  0
   13.3420   -2.2730   23.3640 C   0  0  0  0  0  0  0  0  0  0  0  0
   12.8400   -1.5610   22.2170 N   0  0  0  0  0  0  0  0  0  0  0  0
   12.4270   -2.4990   21.1970 C   0  0  0  0  0  0  0  0  0  0  0  0
   12.0410   -0.4500   22.5020 C   0  0  0  0  0  0  0  0  0  0  0  0
   10.7410   -0.4290   21.9500 C   0  0  0  0  0  0  0  0  0  0  0  0
    9.5070   -0.4530   22.7470 C   0  0  1  0  0  0  0  0  0  0  0  0
    8.4890   -1.3600   22.3040 N   0  0  0  0  0  0  0  0  0  0  0  0
    7.8890   -0.5170   21.3320 C   0  0  0  0  0  0  0  0  0  0  0  0
    8.3760    0.5390   20.9270 O   0  0  0  0  0  0  0  0  0  0  0  0
    6.7070   -0.8540   20.8240 N   0  0  0  0  0  0  0  0  0  0  0  0
    6.1040   -0.0670   19.8770 C   0  0  0  0  0  0  0  0  0  0  0  0
    4.9300    0.6590   20.0250 C   0  0  0  0  0  0  0  0  0  0  0  0
    4.3670    1.4650   19.0450 C   0  0  0  0  0  0  0  0  0  0  0  0
    5.1000    1.5280   17.7630 C   0  0  0  0  0  0  0  0  0  0  0  0
    6.2780    0.7760   17.6450 N   0  0  0  0  0  0  0  0  0  0  0  0
    6.7530    0.0140   18.6640 C   0  0  0  0  0  0  0  0  0  0  0  0
    9.8750   -0.4420   23.9470 C   0  0  0  0  0  0  0  0  0  0  0  0
    9.4570   -0.4520   25.1560 C   0  0  0  0  0  0  0  0  0  0  0  0
   10.6670   -0.4390   25.9620 C   0  0  0  0  0  0  0  0  0  0  0  0
   12.1680   -0.4160   25.4560 C   0  0  0  0  0  0  0  0  0  0  0  0
   12.2260   -0.3660   24.1420 C   0  0  0  0  0  0  0  0  0  0  0  0
   11.0100   -0.4090   24.3980 C   0  0  0  0  0  0  0  0  0  0  0  0
  1  2  1  0
  2  3  1  0
  3  4  1  0
  4  5  1  0
  5  6  1  0
  5  7  1  0
  7  8  1  0
  9  8  1  6
  9 10  1  0
 10 11  1  0
 11 12  2  0
 11 13  1  0
 13 14  1  0
 14 15  2  0
 15 16  1  0
 16 17  2  0
 17 18  1  0
 14 19  1  0
 18 19  2  0
  9 20  1  0
 20 21  2  0
 21 22  1  0
 22 23  2  0
 23 24  1  0
 20 25  1  0
 24 25  2  0
M  END
