pyridine_urea_2615
     RDKit          3D

 23 25  0  0  0  0  0  0  0  0999 V2000
    8.7860    1.2300   21.1290 O   0  0  0  0  0  0  0  0  0  0  0  0
    8.3250    0.1380   21.4860 C   0  0  0  0  0  0  0  0  0  0  0  0
    8.8580   -0.6730   22.4310 N   0  0  0  0  0  0  0  0  0  0  0  0
    9.9600   -0.3060   23.1830 C   0  0  0  0  0  0  0  0  0  0  0  0
   11.1890   -0.7430   22.7200 C   0  0  1  0  0  0  0  0  0  0  0  0
   12.2730    0.0930   22.7770 C   0  0  0  0  0  0  0  0  0  0  0  0
   13.3740   -0.3270   22.2560 C   0  0  0  0  0  0  0  0  0  0  0  0
   13.2730    0.8720   22.8420 C   0  0  0  0  0  0  0  0  0  0  0  0
   11.8350    0.5280   23.1230 C   0  0  0  0  0  0  0  0  0  0  0  0
   11.0290    1.5880   23.8560 C   0  0  0  0  0  0  0  0  0  0  0  0
   12.2540    1.4240   23.3970 C   0  0  0  0  0  0  0  0  0  0  0  0
   11.6030   -1.8190   23.6000 C   0  0  0  0  0  0  0  0  0  0  0  0
   10.9170   -2.8600   24.0070 N   0  0  0  0  0  0  0  0  0  0  0  0
   11.6700   -3.5760   24.8000 C   0  0  0  0  0  0  0  0  0  0  0  0
   12.9290   -3.1040   25.0120 N   0  0  0  0  0  0  0  0  0  0  0  0
   12.9010   -1.9650   24.2390 N   0  0  0  0  0  0  0  0  0  0  0  0
    7.1690   -0.4320   20.9970 N   0  0  0  0  0  0  0  0  0  0  0  0
    6.4640    0.1570   19.9630 C   0  0  0  0  0  0  0  0  0  0  0  0
    5.2940    0.8690   20.2440 C   0  0  0  0  0  0  0  0  0  0  0  0
    4.6150    1.4750   19.1990 C   0  0  0  0  0  0  0  0  0  0  0  0
    5.1260    1.3470   17.9180 C   0  0  0  0  0  0  0  0  0  0  0  0
    6.2360    0.6590   17.6300 N   0  0  0  0  0  0  0  0  0  0  0  0
    6.8810    0.0800   18.6560 C   0  0  0  0  0  0  0  0  0  0  0  0
  1  2  2  0
  2  3  1  0
  3  4  1  0
  5  4  1  1
  5  6  1  0
  6  7  2  0
  7  8  1  0
  8  9  2  0
  9 10  1  0
  6 11  1  0
 10 11  2  0
  5 12  1  0
 12 13  2  0
 13 14  1  0
 14 15  2  0
 12 16  1  0
 15 16  1  0
  2 17  1  0
 17 18  1  0
 18 19  2  0
 19 20  1  0
 20 21  2  0
 21 22  1  0
 18 23  1  0
 22 23  2  0
M  END
