pyridine_urea_11616
     RDKit          3D

 29 30  0  0  0  0  0  0  0  0999 V2000
    8.7920    1.4690   21.0520 O   0  0  0  0  0  0  0  0  0  0  0  0
    8.4950    0.3390   21.4540 C   0  0  0  0  0  0  0  0  0  0  0  0
    7.4130   -0.3950   21.0200 N   0  0  0  0  0  0  0  0  0  0  0  0
    6.6140    0.1320   20.0080 C   0  0  0  0  0  0  0  0  0  0  0  0
    5.4380    0.8100   20.3290 C   0  0  0  0  0  0  0  0  0  0  0  0
    4.6570    1.3660   19.3150 C   0  0  0  0  0  0  0  0  0  0  0  0
    5.0920    1.2120   18.0160 C   0  0  0  0  0  0  0  0  0  0  0  0
    6.2100    0.5540   17.6860 N   0  0  0  0  0  0  0  0  0  0  0  0
    6.9410    0.0300   18.6840 C   0  0  0  0  0  0  0  0  0  0  0  0
    9.2870   -0.2680   22.3930 N   0  0  0  0  0  0  0  0  0  0  0  0
   10.4580    0.5310   22.8440 C   0  0  2  0  0  0  0  0  0  0  0  0
   11.7080   -0.3470   23.1610 C   0  0  0  0  0  0  0  0  0  0  0  0
   12.9280   -0.3640   22.5940 C   0  0  0  0  0  0  0  0  0  0  0  0
   12.2200   -0.9770   23.5450 C   0  0  0  0  0  0  0  0  0  0  0  0
   12.7300   -2.0460   24.3020 C   0  0  0  0  0  0  0  0  0  0  0  0
   13.7060   -2.7570   23.7380 F   0  0  0  0  0  0  0  0  0  0  0  0
   13.2800   -1.6270   25.4710 F   0  0  0  0  0  0  0  0  0  0  0  0
   11.7710   -2.9570   24.5680 F   0  0  0  0  0  0  0  0  0  0  0  0
   10.8770   -0.0330   23.3250 C   0  0  0  0  0  0  0  0  0  0  0  0
   10.5060   -0.8340   24.2750 C   0  0  0  0  0  0  0  0  0  0  0  0
    9.1100   -0.7710   24.9120 C   0  0  0  0  0  0  0  0  0  0  0  0
    8.3020    0.1550   24.3220 F   0  0  0  0  0  0  0  0  0  0  0  0
    9.1170   -0.3850   26.2280 F   0  0  0  0  0  0  0  0  0  0  0  0
    8.3740   -1.9220   24.8090 F   0  0  0  0  0  0  0  0  0  0  0  0
   11.5870   -1.4730   24.3630 C   0  0  0  0  0  0  0  0  0  0  0  0
   10.1300    1.7500   23.7920 C   0  0  0  0  0  0  0  0  0  0  0  0
   11.2020    2.5670   23.9070 F   0  0  0  0  0  0  0  0  0  0  0  0
    9.1430    2.5190   23.2460 F   0  0  0  0  0  0  0  0  0  0  0  0
    9.7080    1.4480   25.0390 F   0  0  0  0  0  0  0  0  0  0  0  0
  1  2  2  0
  2  3  1  0
  3  4  1  0
  4  5  2  0
  5  6  1  0
  6  7  2  0
  7  8  1  0
  4  9  1  0
  8  9  2  0
  2 10  1  0
 11 10  1  1
 11 12  1  0
 12 13  2  0
 13 14  1  0
 14 15  1  0
 15 16  1  0
 15 17  1  0
 15 18  1  0
 14 19  2  0
 19 20  1  0
 20 21  1  0
 21 22  1  0
 21 23  1  0
 21 24  1  0
 12 25  1  0
 20 25  2  0
 11 26  1  0
 26 27  1  0
 26 28  1  0
 26 29  1  0
M  END
