pyridine_urea_12463
     RDKit          3D

 21 22  0  0  0  0  0  0  0  0999 V2000
   12.6450   -2.5460   21.3160 C   0  0  0  0  0  0  0  0  0  0  0  0
   13.3870   -1.5540   21.9740 O   0  0  0  0  0  0  0  0  0  0  0  0
   12.5510   -0.5380   22.5270 C   0  0  0  0  0  0  0  0  0  0  0  0
   13.3490    0.6740   22.7610 C   0  0  0  0  0  0  0  0  0  0  0  0
   12.7250    1.6860   23.2710 C   0  0  0  0  0  0  0  0  0  0  0  0
   11.2800    1.5930   23.5970 C   0  0  0  0  0  0  0  0  0  0  0  0
   10.3410    0.5590   23.4340 C   0  0  0  0  0  0  0  0  0  0  0  0
    9.4860   -0.6430   23.1860 C   0  0  2  0  0  0  0  0  0  0  0  0
   10.4160   -1.6780   22.6030 C   0  0  0  0  0  0  0  0  0  0  0  0
   10.0210   -2.8830   23.0670 F   0  0  0  0  0  0  0  0  0  0  0  0
    8.5890   -1.1210   22.6780 N   0  0  0  0  0  0  0  0  0  0  0  0
    8.1600   -0.3330   21.6380 C   0  0  0  0  0  0  0  0  0  0  0  0
    8.7510    0.6910   21.3050 O   0  0  0  0  0  0  0  0  0  0  0  0
    6.9930   -0.7880   21.0220 N   0  0  0  0  0  0  0  0  0  0  0  0
    6.3920   -0.1050   20.0010 C   0  0  0  0  0  0  0  0  0  0  0  0
    5.0890    0.6590   20.2790 C   0  0  0  0  0  0  0  0  0  0  0  0
    4.5010    1.4150   19.0860 C   0  0  0  0  0  0  0  0  0  0  0  0
    5.1540    1.3710   17.8690 C   0  0  0  0  0  0  0  0  0  0  0  0
    6.3050    0.6580   17.7150 N   0  0  0  0  0  0  0  0  0  0  0  0
    6.9120   -0.0580   18.7290 C   0  0  0  0  0  0  0  0  0  0  0  0
   11.1730   -0.5250   22.8510 C   0  0  0  0  0  0  0  0  0  0  0  0
  1  2  1  0
  2  3  1  0
  3  4  2  0
  4  5  1  0
  5  6  2  0
  6  7  1  0
  7  8  1  0
  8  9  1  6
  9 10  1  0
  8 11  1  0
 11 12  1  0
 12 13  2  0
 12 14  1  0
 14 15  1  0
 15 16  2  0
 16 17  1  0
 17 18  2  0
 18 19  1  0
 15 20  1  0
 19 20  2  0
  3 21  1  0
  7 21  2  0
M  END
