pyridine_urea_8009
     RDKit          3D

 25 27  0  0  0  0  0  0  0  0999 V2000
    8.4090    0.5520   21.0780 O   0  0  0  0  0  0  0  0  0  0  0  0
    7.8410   -0.4770   21.4000 C   0  0  0  0  0  0  0  0  0  0  0  0
    6.6530   -0.8660   20.9060 N   0  0  0  0  0  0  0  0  0  0  0  0
    6.1370   -0.1020   19.8800 C   0  0  0  0  0  0  0  0  0  0  0  0
    4.9470    0.5940   20.0680 C   0  0  0  0  0  0  0  0  0  0  0  0
    4.4440    1.3740   19.0370 C   0  0  0  0  0  0  0  0  0  0  0  0
    5.1540    1.4270   17.8560 C   0  0  0  0  0  0  0  0  0  0  0  0
    6.3030    0.7570   17.6570 N   0  0  0  0  0  0  0  0  0  0  0  0
    6.7650    0.0110   18.6680 C   0  0  0  0  0  0  0  0  0  0  0  0
    8.3660   -1.3380   22.3090 N   0  0  0  0  0  0  0  0  0  0  0  0
    9.6200   -0.8270   22.7850 C   0  0  0  0  0  0  0  0  0  0  0  0
    9.8460    0.5630   22.3060 C   0  0  0  0  0  0  0  0  0  0  0  0
   10.9850    1.1840   22.6680 C   0  0  0  0  0  0  0  0  0  0  0  0
   11.8680    0.5320   23.4330 C   0  0  0  0  0  0  0  0  0  0  0  0
   12.8040    1.1870   23.6440 O   0  0  0  0  0  0  0  0  0  0  0  0
   13.4690    0.6560   22.6500 C   0  0  0  0  0  0  0  0  0  0  0  0
   13.4400   -0.6100   22.9940 C   0  0  0  0  0  0  0  0  0  0  0  0
   13.3650   -0.7930   24.3300 C   0  0  0  0  0  0  0  0  0  0  0  0
   13.3670   -1.9540   24.9580 C   0  0  0  0  0  0  0  0  0  0  0  0
   13.4390   -2.9830   24.1700 C   0  0  0  0  0  0  0  0  0  0  0  0
   13.4880   -2.8260   22.7850 C   0  0  0  0  0  0  0  0  0  0  0  0
   13.4910   -1.6350   22.1260 N   0  0  0  0  0  0  0  0  0  0  0  0
   11.6610   -0.7950   23.8950 C   0  0  0  0  0  0  0  0  0  0  0  0
   12.7760   -1.6790   24.8660 Cl  0  0  0  0  0  0  0  0  0  0  0  0
   10.5180   -1.4740   23.5670 C   0  0  0  0  0  0  0  0  0  0  0  0
  1  2  2  0
  2  3  1  0
  3  4  1  0
  4  5  2  0
  5  6  1  0
  6  7  2  0
  7  8  1  0
  4  9  1  0
  8  9  2  0
  2 10  1  0
 10 11  1  0
 11 12  2  0
 12 13  1  0
 13 14  2  0
 14 15  1  0
 15 16  1  0
 16 17  1  0
 17 18  2  0
 18 19  1  0
 19 20  2  0
 20 21  1  0
 17 22  1  0
 21 22  2  0
 14 23  1  0
 23 24  1  0
 11 25  1  0
 23 25  2  0
M  END
