pyridine_urea_13362
     RDKit          3D

 21 22  0  0  0  0  0  0  0  0999 V2000
    8.7520    0.3430   27.1560 C   0  0  0  0  0  0  0  0  0  0  0  0
   10.0240   -0.0980   26.7130 O   0  0  0  0  0  0  0  0  0  0  0  0
   10.1590   -0.4410   25.3940 C   0  0  0  0  0  0  0  0  0  0  0  0
    9.1510   -0.7730   24.7810 O   0  0  0  0  0  0  0  0  0  0  0  0
   11.4190   -0.4380   24.7550 C   0  0  2  0  0  0  0  0  0  0  0  0
   11.6830    0.6710   23.9180 C   0  0  0  0  0  0  0  0  0  0  0  0
   12.7380    0.4140   23.0520 C   0  0  0  0  0  0  0  0  0  0  0  0
   12.6740   -1.0000   22.5230 C   0  0  0  0  0  0  0  0  0  0  0  0
   11.3910   -1.4270   22.7930 C   0  0  2  0  0  0  0  0  0  0  0  0
   10.3500   -0.3320   22.5760 C   0  0  0  0  0  0  0  0  0  0  0  0
    9.1550   -0.8860   21.8780 N   0  0  0  0  0  0  0  0  0  0  0  0
    8.3220    0.0290   21.3200 C   0  0  0  0  0  0  0  0  0  0  0  0
    8.7120    1.1830   21.0850 O   0  0  0  0  0  0  0  0  0  0  0  0
    7.0750   -0.4410   21.0480 N   0  0  0  0  0  0  0  0  0  0  0  0
    6.3910    0.1410   20.0040 C   0  0  0  0  0  0  0  0  0  0  0  0
    5.2080    0.8380   20.2590 C   0  0  0  0  0  0  0  0  0  0  0  0
    4.6000    1.4260   19.1630 C   0  0  0  0  0  0  0  0  0  0  0  0
    5.1320    1.3250   17.9010 C   0  0  0  0  0  0  0  0  0  0  0  0
    6.2480    0.6540   17.6340 N   0  0  0  0  0  0  0  0  0  0  0  0
    6.8520    0.0770   18.6950 C   0  0  0  0  0  0  0  0  0  0  0  0
   11.4270   -1.6580   23.9830 O   0  0  0  0  0  0  0  0  0  0  0  0
  1  2  1  0
  2  3  1  0
  3  4  2  0
  5  3  1  6
  5  6  1  0
  6  7  1  0
  7  8  1  0
  8  9  1  0
  9 10  1  1
 10 11  1  0
 11 12  1  0
 12 13  2  0
 12 14  1  0
 14 15  1  0
 15 16  2  0
 16 17  1  0
 17 18  2  0
 18 19  1  0
 15 20  1  0
 19 20  2  0
  5 21  1  0
  9 21  1  0
M  END
