pyridine_urea_4229
     RDKit          3D

 24 25  0  0  0  0  0  0  0  0999 V2000
   13.3050   -2.1480   23.4490 C   0  0  0  0  0  0  0  0  0  0  0  0
   13.2770   -1.0200   22.4070 C   0  0  0  0  0  0  0  0  0  0  0  0
   12.0460   -0.3420   22.5700 O   0  0  0  0  0  0  0  0  0  0  0  0
   10.9610   -1.0720   22.0470 C   0  0  0  0  0  0  0  0  0  0  0  0
   11.1010   -2.3830   21.6990 O   0  0  0  0  0  0  0  0  0  0  0  0
    9.6510   -0.3170   21.9040 C   0  0  2  0  0  0  0  0  0  0  0  0
    8.9490   -0.3160   23.2380 C   0  0  0  0  0  0  0  0  0  0  0  0
    9.9820   -1.1490   23.8490 C   0  0  0  0  0  0  0  0  0  0  0  0
   10.6840   -2.3780   24.3880 C   0  0  0  0  0  0  0  0  0  0  0  0
   10.3420   -3.7460   24.5230 C   0  0  0  0  0  0  0  0  0  0  0  0
    8.9920   -3.8150   24.0520 C   0  0  0  0  0  0  0  0  0  0  0  0
    7.8700   -5.3560   24.0040 Br  0  0  0  0  0  0  0  0  0  0  0  0
    8.2780   -2.7870   23.5680 N   0  0  0  0  0  0  0  0  0  0  0  0
    8.7470   -1.6020   23.4750 C   0  0  0  0  0  0  0  0  0  0  0  0
    8.8010   -1.0560   21.0850 N   0  0  0  0  0  0  0  0  0  0  0  0
    7.8980   -0.0530   20.9610 C   0  0  0  0  0  0  0  0  0  0  0  0
    8.2220    1.3470   20.8660 O   0  0  0  0  0  0  0  0  0  0  0  0
    6.6470   -0.4860   20.9300 N   0  0  0  0  0  0  0  0  0  0  0  0
    6.0620    0.1900   19.9720 C   0  0  0  0  0  0  0  0  0  0  0  0
    4.7990    0.9510   20.1030 C   0  0  0  0  0  0  0  0  0  0  0  0
    4.3510    1.6270   18.9890 C   0  0  0  0  0  0  0  0  0  0  0  0
    5.0870    1.6020   17.7090 C   0  0  0  0  0  0  0  0  0  0  0  0
    6.3290    0.8520   17.5410 N   0  0  0  0  0  0  0  0  0  0  0  0
    6.7350    0.1660   18.7630 C   0  0  0  0  0  0  0  0  0  0  0  0
  1  2  1  0
  2  3  1  0
  3  4  1  0
  4  5  2  0
  4  6  1  0
  6  7  1  1
  7  8  1  0
  8  9  2  0
  9 10  1  0
 10 11  2  0
 11 12  1  0
 11 13  1  0
  8 14  1  0
 13 14  2  0
  6 15  1  0
 15 16  1  0
 16 17  2  0
 16 18  1  0
 18 19  1  0
 19 20  2  0
 20 21  1  0
 21 22  2  0
 22 23  1  0
 19 24  1  0
 23 24  2  0
M  END
