pyridine_urea_7101
     RDKit          3D

 20 21  0  0  0  0  0  0  0  0999 V2000
   11.6460   -3.1710   24.4790 C   0  0  0  0  0  0  0  0  0  0  0  0
   13.1620   -3.1840   24.4760 C   0  0  0  0  0  0  0  0  0  0  0  0
   13.8150   -2.4780   25.4250 C   0  0  0  0  0  0  0  0  0  0  0  0
   13.4490   -1.1830   25.0610 O   0  0  0  0  0  0  0  0  0  0  0  0
   12.3890   -1.2980   24.1170 C   0  0  0  0  0  0  0  0  0  0  0  0
   11.1430   -1.3440   24.6960 C   0  0  0  0  0  0  0  0  0  0  0  0
   10.0200   -1.4210   23.9270 C   0  0  0  0  0  0  0  0  0  0  0  0
   10.2100   -1.4800   22.4280 C   0  0  0  0  0  0  0  0  0  0  0  0
    9.0230   -1.5470   21.7100 N   0  0  0  0  0  0  0  0  0  0  0  0
    8.2820   -0.4340   21.3560 C   0  0  0  0  0  0  0  0  0  0  0  0
    8.7570    0.6970   21.2520 O   0  0  0  0  0  0  0  0  0  0  0  0
    6.8960   -0.8170   21.1440 N   0  0  0  0  0  0  0  0  0  0  0  0
    6.3090   -0.0470   20.0320 C   0  0  0  0  0  0  0  0  0  0  0  0
    5.1360    0.6630   20.2730 C   0  0  0  0  0  0  0  0  0  0  0  0
    4.5770    1.3980   19.2290 C   0  0  0  0  0  0  0  0  0  0  0  0
    5.2700    1.3780   17.9250 C   0  0  0  0  0  0  0  0  0  0  0  0
    6.4020    0.6730   17.7320 N   0  0  0  0  0  0  0  0  0  0  0  0
    6.8960   -0.0220   18.7780 C   0  0  0  0  0  0  0  0  0  0  0  0
   11.5100   -1.4650   21.9070 C   0  0  0  0  0  0  0  0  0  0  0  0
   12.6200   -1.3580   22.7420 C   0  0  0  0  0  0  0  0  0  0  0  0
  1  2  3  0
  2  3  1  0
  3  4  1  0
  4  5  1  0
  5  6  2  0
  6  7  1  0
  7  8  2  0
  8  9  1  0
  9 10  1  0
 10 11  2  0
 10 12  1  0
 12 13  1  0
 13 14  2  0
 14 15  1  0
 15 16  2  0
 16 17  1  0
 13 18  1  0
 17 18  2  0
  8 19  1  0
  5 20  1  0
 19 20  2  0
M  END
