pyridine_urea_13850
     RDKit          3D

 24 26  0  0  0  0  0  0  0  0999 V2000
    8.6400    0.8180   21.2140 O   0  0  0  0  0  0  0  0  0  0  0  0
    8.3270   -0.3190   21.5330 C   0  0  0  0  0  0  0  0  0  0  0  0
    7.1280   -0.8630   21.1470 N   0  0  0  0  0  0  0  0  0  0  0  0
    6.4810   -0.1520   20.0550 C   0  0  0  0  0  0  0  0  0  0  0  0
    5.1870    0.5900   20.3830 C   0  0  0  0  0  0  0  0  0  0  0  0
    4.5760    1.3190   19.2280 C   0  0  0  0  0  0  0  0  0  0  0  0
    5.2110    1.2650   18.0010 C   0  0  0  0  0  0  0  0  0  0  0  0
    6.3510    0.5900   17.7660 N   0  0  0  0  0  0  0  0  0  0  0  0
    6.9490   -0.0910   18.7680 C   0  0  0  0  0  0  0  0  0  0  0  0
    9.1440   -1.1310   22.2950 N   0  0  0  0  0  0  0  0  0  0  0  0
   10.4840   -0.5540   22.5130 C   0  0  0  0  0  0  0  0  0  0  0  0
   11.5750   -1.3530   22.4290 C   0  0  0  0  0  0  0  0  0  0  0  0
   12.7970   -0.4710   22.6800 C   0  0  0  0  0  0  0  0  0  0  0  0
   12.8310    0.8990   22.9430 C   0  0  0  0  0  0  0  0  0  0  0  0
   11.6600    1.6190   23.0060 C   0  0  0  0  0  0  0  0  0  0  0  0
   11.7720    3.0900   23.2830 N   0  0  0  0  0  0  0  0  0  0  0  0
   12.7460    3.7900   22.5620 C   0  0  0  0  0  0  0  0  0  0  0  0
   13.1860    5.1490   23.0740 C   0  0  0  0  0  0  0  0  0  0  0  0
   11.9970    5.2190   22.1730 C   0  0  0  0  0  0  0  0  0  0  0  0
   10.7200    5.3610   22.9550 C   0  0  0  0  0  0  0  0  0  0  0  0
   10.3620    3.8760   23.6870 S   0  0  0  0  0  0  0  0  0  0  0  0
   10.3480    4.0730   25.1180 O   0  0  0  0  0  0  0  0  0  0  0  0
    9.2450    3.2760   22.9880 O   0  0  0  0  0  0  0  0  0  0  0  0
   10.4680    0.9640   22.8110 C   0  0  0  0  0  0  0  0  0  0  0  0
  1  2  2  0
  2  3  1  0
  3  4  1  0
  4  5  2  0
  5  6  1  0
  6  7  2  0
  7  8  1  0
  4  9  1  0
  8  9  2  0
  2 10  1  0
 10 11  1  0
 11 12  2  0
 12 13  1  0
 13 14  2  0
 14 15  1  0
 15 16  1  0
 16 17  1  0
 17 18  1  0
 18 19  1  0
 19 20  1  0
 21 16  1  0
 20 21  1  0
 21 22  2  0
 21 23  2  0
 11 24  1  0
 15 24  2  0
M  END
