pyridine_urea_8050
     RDKit          3D

 24 26  0  0  0  0  0  0  0  0999 V2000
    8.5540    1.2830   20.8590 O   0  0  0  0  0  0  0  0  0  0  0  0
    7.9880    0.3760   21.4680 C   0  0  0  0  0  0  0  0  0  0  0  0
    7.0950   -0.4980   20.9220 N   0  0  0  0  0  0  0  0  0  0  0  0
    6.3770    0.1460   19.8900 C   0  0  0  0  0  0  0  0  0  0  0  0
    5.0270    0.8540   20.2040 C   0  0  0  0  0  0  0  0  0  0  0  0
    4.4080    1.4890   19.1460 C   0  0  0  0  0  0  0  0  0  0  0  0
    5.1310    1.4200   17.7920 C   0  0  0  0  0  0  0  0  0  0  0  0
    6.2960    0.7770   17.5930 N   0  0  0  0  0  0  0  0  0  0  0  0
    6.8770    0.1670   18.6270 C   0  0  0  0  0  0  0  0  0  0  0  0
    8.1530    0.1270   22.7620 N   0  0  0  0  0  0  0  0  0  0  0  0
    9.5180    0.1870   23.1170 C   0  0  0  0  0  0  0  0  0  0  0  0
   10.1990   -1.0050   23.1220 C   0  0  0  0  0  0  0  0  0  0  0  0
   11.3980   -0.8010   23.4660 N   0  0  0  0  0  0  0  0  0  0  0  0
   11.6750    0.5980   23.7380 N   0  0  0  0  0  0  0  0  0  0  0  0
   12.4840   -0.5000   23.8210 C   0  0  0  0  0  0  0  0  0  0  0  0
   12.9700   -0.9500   25.1730 C   0  0  0  0  0  0  0  0  0  0  0  0
   13.7500   -2.2370   25.1200 C   0  0  0  0  0  0  0  0  0  0  0  0
   13.8930   -2.8050   23.7370 C   0  0  0  0  0  0  0  0  0  0  0  0
   13.3970   -2.2730   22.5990 C   0  0  0  0  0  0  0  0  0  0  0  0
   12.7020   -1.1390   22.6150 C   0  0  0  0  0  0  0  0  0  0  0  0
   10.3990    1.1710   23.4710 C   0  0  0  0  0  0  0  0  0  0  0  0
   10.0900    2.5190   23.5530 C   0  0  0  0  0  0  0  0  0  0  0  0
    9.2190    2.8680   24.5100 F   0  0  0  0  0  0  0  0  0  0  0  0
   11.2070    3.2240   23.7780 F   0  0  0  0  0  0  0  0  0  0  0  0
  1  2  2  0
  2  3  1  0
  3  4  1  0
  4  5  2  0
  5  6  1  0
  6  7  2  0
  7  8  1  0
  4  9  1  0
  8  9  2  0
  2 10  1  0
 10 11  1  0
 11 12  1  0
 12 13  2  0
 13 14  1  0
 14 15  1  0
 15 16  2  0
 16 17  1  0
 17 18  2  0
 18 19  1  0
 15 20  1  0
 19 20  2  0
 11 21  2  0
 14 21  1  0
 21 22  1  0
 22 23  1  0
 22 24  1  0
M  END
