pyridine_urea_12294
     RDKit          3D

 22 23  0  0  0  0  0  0  0  0999 V2000
    7.2720   -0.6460   24.1990 C   0  0  0  0  0  0  0  0  0  0  0  0
    8.0240   -1.7120   24.9900 C   0  0  0  0  0  0  0  0  0  0  0  0
    9.5570   -1.4770   24.7270 C   0  0  0  0  0  0  0  0  0  0  0  0
   10.3270   -2.5170   24.1900 C   0  0  0  0  0  0  0  0  0  0  0  0
   11.8410   -2.2140   24.0760 C   0  0  0  0  0  0  0  0  0  0  0  0
   12.8170   -2.6450   24.6810 C   0  0  0  0  0  0  0  0  0  0  0  0
   13.4290   -1.6930   23.7100 C   0  0  0  0  0  0  0  0  0  0  0  0
   11.7880   -1.5040   23.3300 C   0  0  0  0  0  0  0  0  0  0  0  0
   10.5950   -0.9320   22.5770 C   0  0  0  0  0  0  0  0  0  0  0  0
    9.9640   -2.0490   21.8570 C   0  0  0  0  0  0  0  0  0  0  0  0
    8.9110   -1.5580   21.0290 N   0  0  0  0  0  0  0  0  0  0  0  0
    8.3520   -0.3390   21.2710 C   0  0  0  0  0  0  0  0  0  0  0  0
    8.9890    0.6700   21.5440 O   0  0  0  0  0  0  0  0  0  0  0  0
    6.9640   -0.4460   21.1080 N   0  0  0  0  0  0  0  0  0  0  0  0
    6.2910    0.1780   20.0910 C   0  0  0  0  0  0  0  0  0  0  0  0
    5.1060    0.8870   20.2320 C   0  0  0  0  0  0  0  0  0  0  0  0
    4.5430    1.4860   19.1090 C   0  0  0  0  0  0  0  0  0  0  0  0
    5.1810    1.3570   17.8860 C   0  0  0  0  0  0  0  0  0  0  0  0
    6.3220    0.6720   17.7270 N   0  0  0  0  0  0  0  0  0  0  0  0
    6.8430    0.1010   18.8230 C   0  0  0  0  0  0  0  0  0  0  0  0
   12.4140   -0.6570   22.4380 C   0  0  0  0  0  0  0  0  0  0  0  0
   12.8620   -1.4160   23.3360 C   0  0  0  0  0  0  0  0  0  0  0  0
  1  2  1  0
  2  3  1  0
  3  4  1  0
  4  5  1  0
  5  6  2  0
  6  7  1  0
  7  8  2  0
  8  9  1  0
  9 10  1  0
 10 11  1  0
 11 12  1  0
 12 13  2  0
 12 14  1  0
 14 15  1  0
 15 16  2  0
 16 17  1  0
 17 18  2  0
 18 19  1  0
 15 20  1  0
 19 20  2  0
  8 21  1  0
  5 22  1  0
 21 22  2  0
M  END
