pyridine_urea_11615
     RDKit          3D

 23 24  0  0  0  0  0  0  0  0999 V2000
   18.2600    4.7480   23.3300 C   0  0  0  0  0  0  0  0  0  0  0  0
   16.8920    4.1810   23.2720 C   0  0  0  0  0  0  0  0  0  0  0  0
   15.9590    4.1740   22.1100 O   0  0  0  0  0  0  0  0  0  0  0  0
   14.5500    3.9630   22.3760 C   0  0  0  0  0  0  0  0  0  0  0  0
   13.6100    5.0540   22.4590 O   0  0  0  0  0  0  0  0  0  0  0  0
   13.7460    2.6690   22.5860 C   0  0  0  0  0  0  0  0  0  0  0  0
   14.0450    1.1080   22.7040 C   0  0  0  0  0  0  0  0  0  0  0  0
   13.3460   -0.1770   22.9330 C   0  0  0  0  0  0  0  0  0  0  0  0
   13.2890   -1.3570   23.7070 C   0  0  0  0  0  0  0  0  0  0  0  0
   11.9710   -2.2710   23.5250 C   0  0  0  0  0  0  0  0  0  0  0  0
   10.9940   -1.8460   22.6080 C   0  0  0  0  0  0  0  0  0  0  0  0
    9.6320   -2.2530   22.1440 N   0  0  0  0  0  0  0  0  0  0  0  0
    8.8260   -1.1130   21.6450 C   0  0  0  0  0  0  0  0  0  0  0  0
    9.2730    0.1280   21.7100 O   0  0  0  0  0  0  0  0  0  0  0  0
    7.5530   -1.3730   21.0980 N   0  0  0  0  0  0  0  0  0  0  0  0
    6.7510   -0.5130   20.2290 C   0  0  0  0  0  0  0  0  0  0  0  0
    5.6000    0.2060   20.6310 C   0  0  0  0  0  0  0  0  0  0  0  0
    4.8670    1.0170   19.7420 C   0  0  0  0  0  0  0  0  0  0  0  0
    5.4320    1.0360   18.3550 C   0  0  0  0  0  0  0  0  0  0  0  0
    6.5110    0.3710   17.9550 N   0  0  0  0  0  0  0  0  0  0  0  0
    7.1330   -0.3810   18.8940 C   0  0  0  0  0  0  0  0  0  0  0  0
   11.2370   -0.7990   21.9370 C   0  0  0  0  0  0  0  0  0  0  0  0
   12.3830   -0.0580   22.1500 C   0  0  0  0  0  0  0  0  0  0  0  0
  1  2  1  0
  2  3  1  0
  3  4  1  0
  4  5  2  0
  4  6  1  0
  6  7  2  3
  7  8  1  0
  8  9  2  0
  9 10  1  0
 10 11  2  0
 11 12  1  0
 12 13  1  0
 13 14  2  0
 13 15  1  0
 15 16  1  0
 16 17  2  0
 17 18  1  0
 18 19  2  0
 19 20  1  0
 16 21  1  0
 20 21  2  0
 11 22  1  0
  8 23  1  0
 22 23  2  0
M  END
