pyridine_urea_3341
     RDKit          3D

 20 21  0  0  0  0  0  0  0  0999 V2000
    8.7100    0.9990   21.3100 O   0  0  0  0  0  0  0  0  0  0  0  0
    8.1910   -0.1100   21.3430 C   0  0  0  0  0  0  0  0  0  0  0  0
    6.9020   -0.4150   21.0660 N   0  0  0  0  0  0  0  0  0  0  0  0
    6.2970    0.1850   19.9810 C   0  0  0  0  0  0  0  0  0  0  0  0
    5.1130    0.8900   20.1620 C   0  0  0  0  0  0  0  0  0  0  0  0
    4.5200    1.5120   19.0720 C   0  0  0  0  0  0  0  0  0  0  0  0
    5.1410    1.4000   17.8460 C   0  0  0  0  0  0  0  0  0  0  0  0
    6.2770    0.7140   17.6560 N   0  0  0  0  0  0  0  0  0  0  0  0
    6.8290    0.1230   18.7190 C   0  0  0  0  0  0  0  0  0  0  0  0
    8.8830   -1.2180   21.6560 N   0  0  0  0  0  0  0  0  0  0  0  0
   10.1330   -0.9970   22.2770 C   0  0  0  0  0  0  0  0  0  0  0  0
   11.2990   -1.7780   21.9350 C   0  0  0  0  0  0  0  0  0  0  0  0
   12.1700   -1.2060   22.7830 N   0  0  0  0  0  0  0  0  0  0  0  0
   11.8260   -0.1630   23.6560 N   0  0  0  0  0  0  0  0  0  0  0  0
   13.0560   -0.5780   23.7380 C   0  0  0  0  0  0  0  0  0  0  0  0
   13.1250   -1.9270   24.1180 C   0  0  0  0  0  0  0  0  0  0  0  0
   13.7280   -2.7740   23.2880 F   0  0  0  0  0  0  0  0  0  0  0  0
   13.7300   -2.0840   25.3090 F   0  0  0  0  0  0  0  0  0  0  0  0
   11.8950   -2.4590   24.3070 F   0  0  0  0  0  0  0  0  0  0  0  0
   10.5570   -0.1440   23.2090 C   0  0  0  0  0  0  0  0  0  0  0  0
  1  2  2  0
  2  3  1  0
  3  4  1  0
  4  5  2  0
  5  6  1  0
  6  7  2  0
  7  8  1  0
  4  9  1  0
  8  9  2  0
  2 10  1  0
 10 11  1  0
 11 12  1  0
 12 13  2  0
 13 14  1  0
 14 15  1  0
 15 16  1  0
 16 17  1  0
 16 18  1  0
 16 19  1  0
 11 20  2  0
 14 20  1  0
M  END
