pyridine_urea_11629
     RDKit          3D

 17 18  0  0  0  0  0  0  0  0999 V2000
    8.9680    1.1170   21.2470 O   0  0  0  0  0  0  0  0  0  0  0  0
    8.3790    0.0630   21.5430 C   0  0  0  0  0  0  0  0  0  0  0  0
    7.1960   -0.3980   21.0380 N   0  0  0  0  0  0  0  0  0  0  0  0
    6.5040    0.1800   19.9860 C   0  0  0  0  0  0  0  0  0  0  0  0
    5.3500    0.9110   20.2630 C   0  0  0  0  0  0  0  0  0  0  0  0
    4.6530    1.5110   19.2240 C   0  0  0  0  0  0  0  0  0  0  0  0
    5.1430    1.3540   17.9470 C   0  0  0  0  0  0  0  0  0  0  0  0
    6.2430    0.6480   17.6580 N   0  0  0  0  0  0  0  0  0  0  0  0
    6.8990    0.0760   18.6790 C   0  0  0  0  0  0  0  0  0  0  0  0
    8.8440   -0.8430   22.4490 N   0  0  0  0  0  0  0  0  0  0  0  0
   10.0940   -0.6900   23.1690 C   0  0  2  0  0  0  0  0  0  0  0  0
   10.7270    0.6580   23.0020 C   0  0  0  0  0  0  0  0  0  0  0  0
   12.0650    0.4780   22.9280 C   0  0  0  0  0  0  0  0  0  0  0  0
   12.3980   -0.8830   23.0170 C   0  0  2  0  0  0  0  0  0  0  0  0
   13.3470   -1.1850   22.1000 C   0  0  0  0  0  0  0  0  0  0  0  0
   12.9370   -1.9760   21.0840 O   0  0  0  0  0  0  0  0  0  0  0  0
   11.0790   -1.6290   22.8730 C   0  0  0  0  0  0  0  0  0  0  0  0
  1  2  2  0
  2  3  1  0
  3  4  1  0
  4  5  2  0
  5  6  1  0
  6  7  2  0
  7  8  1  0
  4  9  1  0
  8  9  2  0
  2 10  1  0
 11 10  1  6
 11 12  1  0
 12 13  2  0
 13 14  1  0
 14 15  1  6
 15 16  1  0
 11 17  1  0
 14 17  1  0
M  END
