pyridine_urea_5094
     RDKit          3D

 20 21  0  0  0  0  0  0  0  0999 V2000
    8.6340    0.9630   21.1050 O   0  0  0  0  0  0  0  0  0  0  0  0
    8.2980   -0.1900   21.3210 C   0  0  0  0  0  0  0  0  0  0  0  0
    9.1040   -1.1510   21.8340 N   0  0  0  0  0  0  0  0  0  0  0  0
    9.9600   -0.9270   22.9330 C   0  0  0  0  0  0  0  0  0  0  0  0
   11.2850   -0.8650   22.5480 C   0  0  0  0  0  0  0  0  0  0  0  0
   12.0870    0.2790   22.7470 C   0  0  0  0  0  0  0  0  0  0  0  0
   13.3940    0.1460   22.8000 C   0  0  0  0  0  0  0  0  0  0  0  0
   12.3600    1.1890   22.8890 C   0  0  0  0  0  0  0  0  0  0  0  0
   11.0020    0.6150   22.7690 C   0  0  0  0  0  0  0  0  0  0  0  0
   10.6730    2.0100   22.9050 C   0  0  0  0  0  0  0  0  0  0  0  0
    8.9990    1.6130   22.8140 Cl  0  0  0  0  0  0  0  0  0  0  0  0
   12.0330    1.8260   22.9270 C   0  0  0  0  0  0  0  0  0  0  0  0
   11.7090    3.1310   23.0630 F   0  0  0  0  0  0  0  0  0  0  0  0
    7.0520   -0.6520   21.0220 N   0  0  0  0  0  0  0  0  0  0  0  0
    6.3780   -0.0000   19.9980 C   0  0  0  0  0  0  0  0  0  0  0  0
    5.1870    0.6820   20.2530 C   0  0  0  0  0  0  0  0  0  0  0  0
    4.5530    1.3480   19.1980 C   0  0  0  0  0  0  0  0  0  0  0  0
    5.1270    1.3080   17.9340 C   0  0  0  0  0  0  0  0  0  0  0  0
    6.2630    0.6460   17.6810 N   0  0  0  0  0  0  0  0  0  0  0  0
    6.8580    0.0130   18.7060 C   0  0  0  0  0  0  0  0  0  0  0  0
  1  2  2  0
  2  3  1  0
  3  4  1  0
  4  5  1  0
  5  6  1  0
  6  7  2  0
  7  8  1  0
  8  9  2  0
  9 10  1  0
 10 11  1  0
  6 12  1  0
 10 12  2  0
 12 13  1  0
  2 14  1  0
 14 15  1  0
 15 16  2  0
 16 17  1  0
 17 18  2  0
 18 19  1  0
 15 20  1  0
 19 20  2  0
M  END
