pyridine_urea_10632
     RDKit          3D

 21 21  0  0  0  0  0  0  0  0999 V2000
    8.8850   -2.8370   22.3630 C   0  0  0  0  0  0  0  0  0  0  0  0
    9.2980   -2.9030   23.8390 C   0  0  0  0  0  0  0  0  0  0  0  0
   10.4010   -2.0330   24.1520 O   0  0  0  0  0  0  0  0  0  0  0  0
   11.6620   -2.4390   23.8130 C   0  0  0  0  0  0  0  0  0  0  0  0
   12.3290   -3.1850   24.5210 O   0  0  0  0  0  0  0  0  0  0  0  0
   12.1310   -1.8390   22.4710 C   0  0  0  0  0  0  0  0  0  0  0  0
   13.0580   -0.6620   22.5990 C   0  0  0  0  0  0  0  0  0  0  0  0
   12.6110    0.5820   22.9870 C   0  0  0  0  0  0  0  0  0  0  0  0
   11.8450    0.6600   24.1270 C   0  0  0  0  0  0  0  0  0  0  0  0
   10.4970    0.3090   24.0610 C   0  0  0  0  0  0  0  0  0  0  0  0
   10.1960   -0.2330   22.8230 C   0  0  0  0  0  0  0  0  0  0  0  0
    8.7780   -0.3790   22.6410 N   0  0  0  0  0  0  0  0  0  0  0  0
    8.2790    0.2450   21.5360 C   0  0  0  0  0  0  0  0  0  0  0  0
    8.8500    1.4860   21.0610 O   0  0  0  0  0  0  0  0  0  0  0  0
    7.2140   -0.4300   21.0010 N   0  0  0  0  0  0  0  0  0  0  0  0
    6.4070    0.1750   20.0540 C   0  0  0  0  0  0  0  0  0  0  0  0
    5.1810    0.8380   20.3710 C   0  0  0  0  0  0  0  0  0  0  0  0
    4.5420    1.4330   19.1150 C   0  0  0  0  0  0  0  0  0  0  0  0
    5.1480    1.2910   17.8920 C   0  0  0  0  0  0  0  0  0  0  0  0
    6.2900    0.6430   17.6880 N   0  0  0  0  0  0  0  0  0  0  0  0
    6.8730    0.1120   18.7580 C   0  0  0  0  0  0  0  0  0  0  0  0
  1  2  1  0
  2  3  1  0
  3  4  1  0
  4  5  2  0
  4  6  1  0
  6  7  1  0
  7  8  1  0
  8  9  1  0
  9 10  1  0
 10 11  1  0
 11 12  1  0
 12 13  1  0
 13 14  2  0
 13 15  1  0
 15 16  1  0
 16 17  2  0
 17 18  1  0
 18 19  2  0
 19 20  1  0
 16 21  1  0
 20 21  2  0
M  END
