pyridine_urea_1683
     RDKit          3D

 18 18  0  0  0  0  0  0  0  0999 V2000
   12.7790    1.2690   23.0760 C   0  0  0  0  0  0  0  0  0  0  0  0
   13.4640    0.0330   22.9000 O   0  0  0  0  0  0  0  0  0  0  0  0
   12.6120   -1.0420   22.9360 C   0  0  0  0  0  0  0  0  0  0  0  0
   11.3450   -0.7850   22.4210 C   0  0  0  0  0  0  0  0  0  0  0  0
   10.2410   -0.7190   23.2420 C   0  0  1  0  0  0  0  0  0  0  0  0
   10.2640    0.3770   24.0890 C   0  0  0  0  0  0  0  0  0  0  0  0
    9.2470    0.7120   24.6660 O   0  0  0  0  0  0  0  0  0  0  0  0
    9.0090   -0.0980   25.8030 C   0  0  0  0  0  0  0  0  0  0  0  0
    8.9360   -0.7960   22.6870 N   0  0  0  0  0  0  0  0  0  0  0  0
    8.5030    0.0190   21.6330 C   0  0  0  0  0  0  0  0  0  0  0  0
    9.0470    1.0850   21.3050 O   0  0  0  0  0  0  0  0  0  0  0  0
    7.3740   -0.5410   21.0430 N   0  0  0  0  0  0  0  0  0  0  0  0
    6.5290    0.1280   20.0480 C   0  0  0  0  0  0  0  0  0  0  0  0
    5.3700    0.8360   20.3030 C   0  0  0  0  0  0  0  0  0  0  0  0
    4.6600    1.4430   19.2700 C   0  0  0  0  0  0  0  0  0  0  0  0
    5.1560    1.3120   17.9860 C   0  0  0  0  0  0  0  0  0  0  0  0
    6.2720    0.6240   17.6980 N   0  0  0  0  0  0  0  0  0  0  0  0
    6.9250    0.0540   18.7300 C   0  0  0  0  0  0  0  0  0  0  0  0
  1  2  1  0
  2  3  1  0
  3  4  1  0
  5  4  1  6
  5  6  1  0
  6  7  1  0
  7  8  1  0
  5  9  1  0
  9 10  1  0
 10 11  2  0
 10 12  1  0
 12 13  1  0
 13 14  2  0
 14 15  1  0
 15 16  2  0
 16 17  1  0
 13 18  1  0
 17 18  2  0
M  END
