pyridine_urea_1690
     RDKit          3D

 18 19  0  0  0  0  0  0  0  0999 V2000
   13.5400   -0.0750   22.8660 C   0  0  0  0  0  0  0  0  0  0  0  0
   12.4660    0.8780   22.9380 C   0  0  0  0  0  0  0  0  0  0  0  0
   12.1850   -0.5600   22.7380 N   0  0  0  0  0  0  0  0  0  0  0  0
   11.0360   -1.2160   22.5820 C   0  0  0  0  0  0  0  0  0  0  0  0
    9.9310   -0.4970   22.6120 C   0  0  0  0  0  0  0  0  0  0  0  0
    8.7030   -1.0190   22.4300 N   0  0  0  0  0  0  0  0  0  0  0  0
    7.9900   -0.2830   21.4950 C   0  0  0  0  0  0  0  0  0  0  0  0
    8.4020    0.8130   21.1380 O   0  0  0  0  0  0  0  0  0  0  0  0
    6.8620   -0.8420   21.0100 N   0  0  0  0  0  0  0  0  0  0  0  0
    6.2700   -0.1250   19.9830 C   0  0  0  0  0  0  0  0  0  0  0  0
    5.0780    0.5360   20.2130 C   0  0  0  0  0  0  0  0  0  0  0  0
    4.4680    1.3380   19.0700 C   0  0  0  0  0  0  0  0  0  0  0  0
    5.1420    1.3530   17.8810 C   0  0  0  0  0  0  0  0  0  0  0  0
    6.3150    0.6760   17.6970 N   0  0  0  0  0  0  0  0  0  0  0  0
    6.8340   -0.0250   18.7210 C   0  0  0  0  0  0  0  0  0  0  0  0
    9.9780    0.8440   22.8030 C   0  0  0  0  0  0  0  0  0  0  0  0
   11.1910    1.4730   22.9500 C   0  0  0  0  0  0  0  0  0  0  0  0
   11.0730    3.3580   23.1590 Br  0  0  0  0  0  0  0  0  0  0  0  0
  1  2  1  0
  2  3  2  0
  3  4  1  0
  4  5  2  0
  5  6  1  0
  6  7  1  0
  7  8  2  0
  7  9  1  0
  9 10  1  0
 10 11  2  0
 11 12  1  0
 12 13  2  0
 13 14  1  0
 10 15  1  0
 14 15  2  0
  5 16  1  0
  2 17  1  0
 16 17  2  0
 17 18  1  0
M  END
