pyridine_urea_8227
     RDKit          3D

 23 25  0  0  0  0  0  0  0  0999 V2000
    9.1280    0.7960   21.7810 O   0  0  0  0  0  0  0  0  0  0  0  0
    8.5780   -0.2290   21.4230 C   0  0  0  0  0  0  0  0  0  0  0  0
    9.2540   -1.3900   21.1480 N   0  0  0  0  0  0  0  0  0  0  0  0
   10.2830   -2.0270   21.9490 C   0  0  0  0  0  0  0  0  0  0  0  0
   11.2870   -1.1510   22.7260 C   0  0  0  0  0  0  0  0  0  0  0  0
   11.8440   -0.3350   23.7590 C   0  0  0  0  0  0  0  0  0  0  0  0
   11.0990   -0.0100   24.9500 N   0  0  0  0  0  0  0  0  0  0  0  0
    9.8820   -0.4940   25.0160 C   0  0  0  0  0  0  0  0  0  0  0  0
    8.9430   -0.3000   26.0540 C   0  0  0  0  0  0  0  0  0  0  0  0
    7.4680   -0.4860   25.7320 C   0  0  0  0  0  0  0  0  0  0  0  0
    6.3730   -0.3060   26.7830 C   0  0  0  0  0  0  0  0  0  0  0  0
    6.8610    0.0780   28.1940 C   0  0  0  0  0  0  0  0  0  0  0  0
    5.7110    0.3070   29.4520 Cl  0  0  0  0  0  0  0  0  0  0  0  0
    8.3600    0.2650   28.5090 C   0  0  0  0  0  0  0  0  0  0  0  0
    9.4130    0.0740   27.4300 C   0  0  0  0  0  0  0  0  0  0  0  0
    9.6260   -1.4260   23.5630 S   0  0  0  0  0  0  0  0  0  0  0  0
    7.2300   -0.4080   21.1800 N   0  0  0  0  0  0  0  0  0  0  0  0
    6.5680    0.1330   20.1280 C   0  0  0  0  0  0  0  0  0  0  0  0
    5.4210    0.8930   20.3740 C   0  0  0  0  0  0  0  0  0  0  0  0
    4.7250    1.4790   19.3060 C   0  0  0  0  0  0  0  0  0  0  0  0
    5.1690    1.3110   18.0030 C   0  0  0  0  0  0  0  0  0  0  0  0
    6.2500    0.5940   17.6890 N   0  0  0  0  0  0  0  0  0  0  0  0
    6.9630   -0.0140   18.8150 C   0  0  0  0  0  0  0  0  0  0  0  0
  1  2  2  0
  2  3  1  0
  3  4  1  0
  4  5  1  0
  5  6  2  0
  6  7  1  0
  7  8  2  0
  8  9  1  0
  9 10  2  0
 10 11  1  0
 11 12  2  0
 12 13  1  0
 12 14  1  0
  9 15  1  0
 14 15  2  0
  5 16  1  0
  8 16  1  0
  2 17  1  0
 17 18  1  0
 18 19  2  0
 19 20  1  0
 20 21  2  0
 21 22  1  0
 18 23  1  0
 22 23  2  0
M  END
