pyridine_urea_13526
     RDKit          3D

 20 21  0  0  0  0  0  0  0  0999 V2000
   13.0610   -1.1580   25.4760 C   0  0  0  0  0  0  0  0  0  0  0  0
   13.4500   -0.4300   24.3860 O   0  0  0  0  0  0  0  0  0  0  0  0
   13.2650   -1.1800   23.3630 C   0  0  0  0  0  0  0  0  0  0  0  0
   13.7890   -2.2740   23.1790 O   0  0  0  0  0  0  0  0  0  0  0  0
   12.2970   -0.5470   22.4860 C   0  0  1  0  0  0  0  0  0  0  0  0
   11.5850   -1.7180   21.8900 C   0  0  0  0  0  0  0  0  0  0  0  0
   10.3230   -1.2730   22.3670 C   0  0  2  0  0  0  0  0  0  0  0  0
    9.1690   -1.0670   21.4950 N   0  0  0  0  0  0  0  0  0  0  0  0
    8.3750    0.0470   21.3390 C   0  0  0  0  0  0  0  0  0  0  0  0
    8.8500    1.4280   21.2530 O   0  0  0  0  0  0  0  0  0  0  0  0
    6.9960   -0.3630   21.1820 N   0  0  0  0  0  0  0  0  0  0  0  0
    6.3880    0.1790   20.0890 C   0  0  0  0  0  0  0  0  0  0  0  0
    5.2100    0.9110   20.2560 C   0  0  0  0  0  0  0  0  0  0  0  0
    4.5800    1.4920   19.1690 C   0  0  0  0  0  0  0  0  0  0  0  0
    5.1670    1.3160   17.9320 C   0  0  0  0  0  0  0  0  0  0  0  0
    6.2870    0.6170   17.7190 N   0  0  0  0  0  0  0  0  0  0  0  0
    6.8750    0.0600   18.8000 C   0  0  0  0  0  0  0  0  0  0  0  0
   10.7980   -0.0940   23.0800 C   0  0  0  0  0  0  0  0  0  0  0  0
   10.7200   -0.2410   24.5850 C   0  0  0  0  0  0  0  0  0  0  0  0
   10.1240    1.1840   22.6180 C   0  0  0  0  0  0  0  0  0  0  0  0
  1  2  1  0
  2  3  1  0
  3  4  2  0
  5  3  1  1
  5  6  1  0
  6  7  1  0
  7  8  1  6
  8  9  1  0
  9 10  2  0
  9 11  1  0
 11 12  1  0
 12 13  2  0
 13 14  1  0
 14 15  2  0
 15 16  1  0
 12 17  1  0
 16 17  2  0
  5 18  1  0
  7 18  1  0
 18 19  1  0
 18 20  1  0
M  END
