pyridine_urea_10472
     RDKit          3D

 22 24  0  0  0  0  0  0  0  0999 V2000
    8.5960    1.1390   21.1080 O   0  0  0  0  0  0  0  0  0  0  0  0
    8.0230    0.0890   21.4570 C   0  0  0  0  0  0  0  0  0  0  0  0
    6.9670   -0.5200   20.8760 N   0  0  0  0  0  0  0  0  0  0  0  0
    6.2460    0.1570   19.9340 C   0  0  0  0  0  0  0  0  0  0  0  0
    4.9190    0.8590   20.2110 C   0  0  0  0  0  0  0  0  0  0  0  0
    4.3500    1.5650   18.9940 C   0  0  0  0  0  0  0  0  0  0  0  0
    5.1410    1.4790   17.7280 C   0  0  0  0  0  0  0  0  0  0  0  0
    6.2990    0.8140   17.6090 N   0  0  0  0  0  0  0  0  0  0  0  0
    6.8020    0.1940   18.6780 C   0  0  0  0  0  0  0  0  0  0  0  0
    8.4140   -0.6260   22.5250 N   0  0  0  0  0  0  0  0  0  0  0  0
    9.7990   -0.6300   22.6320 C   0  0  0  0  0  0  0  0  0  0  0  0
   10.5980    0.0630   23.3230 C   0  0  0  0  0  0  0  0  0  0  0  0
   11.8670   -0.2960   23.0740 N   0  0  0  0  0  0  0  0  0  0  0  0
   12.0800   -1.3550   22.1150 N   0  0  0  0  0  0  0  0  0  0  0  0
   13.2000   -0.9300   22.5900 C   0  0  1  0  0  0  0  0  0  0  0  0
   13.0660    0.4070   22.8910 C   0  0  0  0  0  0  0  0  0  0  0  0
   12.1880    0.5440   23.9470 C   0  0  0  0  0  0  0  0  0  0  0  0
   12.2940   -0.8070   24.9810 S   0  0  0  0  0  0  0  0  0  0  0  0
   13.1780   -0.4300   26.0130 O   0  0  0  0  0  0  0  0  0  0  0  0
   10.9870   -1.3860   25.1680 O   0  0  0  0  0  0  0  0  0  0  0  0
   13.2410   -1.7880   23.8780 C   0  0  0  0  0  0  0  0  0  0  0  0
   10.7190   -1.4920   21.8950 C   0  0  0  0  0  0  0  0  0  0  0  0
  1  2  2  0
  2  3  1  0
  3  4  1  0
  4  5  2  0
  5  6  1  0
  6  7  2  0
  7  8  1  0
  4  9  1  0
  8  9  2  0
  2 10  1  0
 10 11  1  0
 11 12  1  0
 12 13  2  0
 13 14  1  0
 15 14  1  6
 15 16  1  0
 16 17  1  0
 18 17  1  0
 18 19  2  0
 18 20  2  0
 15 21  1  0
 18 21  1  0
 11 22  2  0
 14 22  1  0
M  END
