pyridine_urea_13811
     RDKit          3D

 24 25  0  0  0  0  0  0  0  0999 V2000
    9.1440   -0.6240   26.2260 C   0  0  0  0  0  0  0  0  0  0  0  0
    8.3940   -0.1040   25.1380 O   0  0  0  0  0  0  0  0  0  0  0  0
    9.0090    1.0410   24.5420 C   0  0  0  0  0  0  0  0  0  0  0  0
    8.6750    2.1980   24.7610 O   0  0  0  0  0  0  0  0  0  0  0  0
   10.1330    0.6050   23.5910 C   0  0  1  0  0  0  0  0  0  0  0  0
   11.4490    0.6610   24.2420 C   0  0  0  0  0  0  0  0  0  0  0  0
   12.4880    0.4450   23.4000 C   0  0  0  0  0  0  0  0  0  0  0  0
   13.4420   -0.0790   22.3880 C   0  0  0  0  0  0  0  0  0  0  0  0
   13.3630   -1.2930   21.5560 C   0  0  0  0  0  0  0  0  0  0  0  0
   12.4030   -2.1870   21.5550 C   0  0  0  0  0  0  0  0  0  0  0  0
   11.3700   -1.7540   22.5710 C   0  0  0  0  0  0  0  0  0  0  0  0
   11.4030   -0.5950   23.3840 C   0  0  0  0  0  0  0  0  0  0  0  0
    9.8530   -0.8220   23.0880 C   0  0  2  0  0  0  0  0  0  0  0  0
   10.7140   -1.1320   22.0530 C   0  0  0  0  0  0  0  0  0  0  0  0
    8.5460   -0.8300   22.4950 N   0  0  0  0  0  0  0  0  0  0  0  0
    8.0970   -0.0830   21.4530 C   0  0  0  0  0  0  0  0  0  0  0  0
    8.7020    1.1650   21.0680 O   0  0  0  0  0  0  0  0  0  0  0  0
    6.9620   -0.7370   20.8630 N   0  0  0  0  0  0  0  0  0  0  0  0
    6.2870    0.0030   19.9170 C   0  0  0  0  0  0  0  0  0  0  0  0
    5.0020    0.7410   20.1170 C   0  0  0  0  0  0  0  0  0  0  0  0
    4.4860    1.4430   19.0320 C   0  0  0  0  0  0  0  0  0  0  0  0
    5.1830    1.4290   17.8290 C   0  0  0  0  0  0  0  0  0  0  0  0
    6.3400    0.7600   17.6390 N   0  0  0  0  0  0  0  0  0  0  0  0
    6.8520    0.0740   18.6710 C   0  0  0  0  0  0  0  0  0  0  0  0
  1  2  1  0
  2  3  1  0
  3  4  2  0
  3  5  1  0
  5  6  1  1
  6  7  1  0
  7  8  2  0
  8  9  1  0
  9 10  2  0
 10 11  1  0
  7 12  1  0
 11 12  2  0
  5 13  1  0
 13 14  1  6
 13 15  1  0
 15 16  1  0
 16 17  2  0
 16 18  1  0
 18 19  1  0
 19 20  2  0
 20 21  1  0
 21 22  2  0
 22 23  1  0
 19 24  1  0
 23 24  2  0
M  END
