pyridine_urea_546
     RDKit          3D

 24 25  0  0  0  0  0  0  0  0999 V2000
   12.5970   -2.5230   24.2800 C   0  0  0  0  0  0  0  0  0  0  0  0
   11.4910   -2.5370   23.7350 O   0  0  0  0  0  0  0  0  0  0  0  0
   11.3920   -2.0080   22.4680 C   0  0  0  0  0  0  0  0  0  0  0  0
   12.1330   -2.3260   21.5500 O   0  0  0  0  0  0  0  0  0  0  0  0
   10.3880   -1.0600   22.3220 C   0  0  2  0  0  0  0  0  0  0  0  0
   10.1990   -0.2830   23.4100 C   0  0  0  0  0  0  0  0  0  0  0  0
   10.7540    0.9280   23.1740 C   0  0  0  0  0  0  0  0  0  0  0  0
   10.3750    2.2640   23.0070 C   0  0  0  0  0  0  0  0  0  0  0  0
   11.7010    3.2160   22.7760 C   0  0  0  0  0  0  0  0  0  0  0  0
   11.5460    4.9240   22.5670 Cl  0  0  0  0  0  0  0  0  0  0  0  0
   13.0610    2.6130   22.7490 C   0  0  0  0  0  0  0  0  0  0  0  0
   13.1290    1.2180   22.9250 C   0  0  0  0  0  0  0  0  0  0  0  0
   11.9160    1.3660   23.0100 C   0  0  0  0  0  0  0  0  0  0  0  0
   11.7610    2.6730   22.8390 F   0  0  0  0  0  0  0  0  0  0  0  0
    9.0780   -1.5970   22.0080 N   0  0  0  0  0  0  0  0  0  0  0  0
    8.2940   -0.4680   21.5050 C   0  0  0  0  0  0  0  0  0  0  0  0
    8.7610    0.6590   21.4370 O   0  0  0  0  0  0  0  0  0  0  0  0
    6.9930   -0.8020   21.1010 N   0  0  0  0  0  0  0  0  0  0  0  0
    6.4420   -0.1110   19.9490 C   0  0  0  0  0  0  0  0  0  0  0  0
    5.2600    0.5860   20.2720 C   0  0  0  0  0  0  0  0  0  0  0  0
    4.6000    1.3320   19.2710 C   0  0  0  0  0  0  0  0  0  0  0  0
    5.1450    1.3540   17.9850 C   0  0  0  0  0  0  0  0  0  0  0  0
    6.2850    0.6600   17.7110 N   0  0  0  0  0  0  0  0  0  0  0  0
    6.9360   -0.0720   18.6800 C   0  0  0  0  0  0  0  0  0  0  0  0
  1  2  1  0
  2  3  1  0
  3  4  2  0
  3  5  1  0
  5  6  1  1
  6  7  1  0
  7  8  2  0
  8  9  1  0
  9 10  1  0
  9 11  2  0
 11 12  1  0
  7 13  1  0
 12 13  2  0
 13 14  1  0
  5 15  1  0
 15 16  1  0
 16 17  2  0
 16 18  1  0
 18 19  1  0
 19 20  2  0
 20 21  1  0
 21 22  2  0
 22 23  1  0
 19 24  1  0
 23 24  2  0
M  END
