pyridine_urea_11941
     RDKit          3D

 24 25  0  0  0  0  0  0  0  0999 V2000
    7.7130   -0.2830   26.7720 C   0  0  0  0  0  0  0  0  0  0  0  0
    9.1400    0.0350   26.3630 C   0  0  0  0  0  0  0  0  0  0  0  0
    9.6080   -0.9840   25.4970 O   0  0  0  0  0  0  0  0  0  0  0  0
   10.7750   -0.7050   24.8850 C   0  0  0  0  0  0  0  0  0  0  0  0
   12.1350   -0.7790   25.3130 O   0  0  0  0  0  0  0  0  0  0  0  0
   10.5700   -0.2920   23.5950 C   0  0  2  0  0  0  0  0  0  0  0  0
    9.8890   -1.2530   22.8870 C   0  0  0  0  0  0  0  0  0  0  0  0
    8.5650   -0.7380   22.5970 N   0  0  0  0  0  0  0  0  0  0  0  0
    8.1910    0.0160   21.5300 C   0  0  0  0  0  0  0  0  0  0  0  0
    8.7460    1.0730   21.1800 O   0  0  0  0  0  0  0  0  0  0  0  0
    7.0440   -0.6230   20.8970 N   0  0  0  0  0  0  0  0  0  0  0  0
    6.3550    0.0620   19.9540 C   0  0  0  0  0  0  0  0  0  0  0  0
    5.0530    0.8120   20.1590 C   0  0  0  0  0  0  0  0  0  0  0  0
    4.5030    1.4720   19.0630 C   0  0  0  0  0  0  0  0  0  0  0  0
    5.1710    1.4110   17.8420 C   0  0  0  0  0  0  0  0  0  0  0  0
    6.3250    0.7380   17.6520 N   0  0  0  0  0  0  0  0  0  0  0  0
    6.8780    0.0930   18.6900 C   0  0  0  0  0  0  0  0  0  0  0  0
   11.6410    0.3150   22.9140 C   0  0  0  0  0  0  0  0  0  0  0  0
   12.6560    0.7940   23.6750 C   0  0  0  0  0  0  0  0  0  0  0  0
   12.9970   -0.4270   23.2560 C   0  0  0  0  0  0  0  0  0  0  0  0
   12.0280   -0.9960   22.4610 C   0  0  0  0  0  0  0  0  0  0  0  0
   10.8520   -0.1820   22.2370 C   0  0  0  0  0  0  0  0  0  0  0  0
   10.6690    1.1550   22.7970 C   0  0  0  0  0  0  0  0  0  0  0  0
   11.6720    1.7150   23.6050 C   0  0  0  0  0  0  0  0  0  0  0  0
  1  2  1  0
  2  3  1  0
  3  4  1  0
  4  5  2  0
  4  6  1  0
  6  7  1  6
  7  8  1  0
  8  9  1  0
  9 10  2  0
  9 11  1  0
 11 12  1  0
 12 13  2  0
 13 14  1  0
 14 15  2  0
 15 16  1  0
 12 17  1  0
 16 17  2  0
  6 18  1  0
 18 19  1  0
 19 20  2  0
 20 21  1  0
 21 22  2  0
 22 23  1  0
 19 24  1  0
 23 24  2  0
M  END
