pyridine_urea_5430
     RDKit          3D

 18 19  0  0  0  0  0  0  0  0999 V2000
    8.7870    1.0500   21.4560 O   0  0  0  0  0  0  0  0  0  0  0  0
    8.4340   -0.1210   21.4000 C   0  0  0  0  0  0  0  0  0  0  0  0
    9.2940   -1.1480   21.6520 N   0  0  0  0  0  0  0  0  0  0  0  0
   10.1800   -0.9760   22.7760 C   0  0  0  0  0  0  0  0  0  0  0  0
   11.6940   -1.2180   22.4860 C   0  0  2  0  0  0  0  0  0  0  0  0
   12.0220   -2.2120   21.5470 C   0  0  0  0  0  0  0  0  0  0  0  0
   13.1430   -2.9730   21.7770 O   0  0  0  0  0  0  0  0  0  0  0  0
   12.1360   -1.8710   23.7820 C   0  0  0  0  0  0  0  0  0  0  0  0
   13.1370   -1.1190   24.3090 C   0  0  0  0  0  0  0  0  0  0  0  0
   12.9220    0.0080   23.9310 O   0  0  0  0  0  0  0  0  0  0  0  0
   12.5610   -0.1060   22.5590 C   0  0  0  0  0  0  0  0  0  0  0  0
    7.1850   -0.5660   21.0620 N   0  0  0  0  0  0  0  0  0  0  0  0
    6.4850    0.0580   20.0550 C   0  0  0  0  0  0  0  0  0  0  0  0
    5.2010    0.8040   20.3920 C   0  0  0  0  0  0  0  0  0  0  0  0
    4.5050    1.4830   19.2370 C   0  0  0  0  0  0  0  0  0  0  0  0
    5.1730    1.3360   17.8950 C   0  0  0  0  0  0  0  0  0  0  0  0
    6.3010    0.6540   17.6760 N   0  0  0  0  0  0  0  0  0  0  0  0
    6.9090    0.0470   18.7310 C   0  0  0  0  0  0  0  0  0  0  0  0
  1  2  2  0
  2  3  1  0
  3  4  1  0
  5  4  1  1
  5  6  1  0
  6  7  1  0
  5  8  1  0
  8  9  1  0
  9 10  1  0
  5 11  1  0
 10 11  1  0
  2 12  1  0
 12 13  1  0
 13 14  2  0
 14 15  1  0
 15 16  2  0
 16 17  1  0
 13 18  1  0
 17 18  2  0
M  END
