pyridine_urea_6754
     RDKit          3D

 21 23  0  0  0  0  0  0  0  0999 V2000
    8.7140    1.1380   21.0920 O   0  0  0  0  0  0  0  0  0  0  0  0
    8.2310    0.0660   21.4910 C   0  0  0  0  0  0  0  0  0  0  0  0
    7.1610   -0.5820   20.9490 N   0  0  0  0  0  0  0  0  0  0  0  0
    6.3780    0.0780   20.0160 C   0  0  0  0  0  0  0  0  0  0  0  0
    5.0430    0.7650   20.3240 C   0  0  0  0  0  0  0  0  0  0  0  0
    4.4130    1.4450   19.1140 C   0  0  0  0  0  0  0  0  0  0  0  0
    5.1500    1.3590   17.8170 C   0  0  0  0  0  0  0  0  0  0  0  0
    6.3160    0.7130   17.6670 N   0  0  0  0  0  0  0  0  0  0  0  0
    6.8730    0.1130   18.7280 C   0  0  0  0  0  0  0  0  0  0  0  0
    8.7510   -0.5970   22.5590 N   0  0  0  0  0  0  0  0  0  0  0  0
   10.1030   -0.2710   22.8290 C   0  0  0  0  0  0  0  0  0  0  0  0
   10.4870    1.0630   22.5930 C   0  0  0  0  0  0  0  0  0  0  0  0
   11.7620    1.6020   22.7570 C   0  0  0  0  0  0  0  0  0  0  0  0
   12.7890    0.8400   23.1900 C   0  0  0  0  0  0  0  0  0  0  0  0
   12.4650   -0.4530   23.4690 C   0  0  0  0  0  0  0  0  0  0  0  0
   13.1160   -1.5410   23.9720 C   0  0  0  0  0  0  0  0  0  0  0  0
   13.1110   -1.7420   25.2600 N   0  0  0  0  0  0  0  0  0  0  0  0
   13.8190   -2.8420   25.4180 C   0  0  0  0  0  0  0  0  0  0  0  0
   14.2590   -3.3250   24.2340 N   0  0  0  0  0  0  0  0  0  0  0  0
   13.7710   -2.4570   23.3560 N   0  0  0  0  0  0  0  0  0  0  0  0
   11.0940   -1.0850   23.2910 C   0  0  0  0  0  0  0  0  0  0  0  0
  1  2  2  0
  2  3  1  0
  3  4  1  0
  4  5  2  0
  5  6  1  0
  6  7  2  0
  7  8  1  0
  4  9  1  0
  8  9  2  0
  2 10  1  0
 10 11  1  0
 11 12  2  0
 12 13  1  0
 13 14  2  0
 14 15  1  0
 15 16  1  0
 16 17  2  0
 17 18  1  0
 18 19  2  0
 16 20  1  0
 19 20  1  0
 11 21  1  0
 15 21  2  0
M  END
