pyridine_urea_12817
     RDKit          3D

 20 21  0  0  0  0  0  0  0  0999 V2000
    7.7140   -5.0750   22.9770 O   0  0  0  0  0  0  0  0  0  0  0  0
    7.0610   -4.4650   23.8070 C   0  0  0  0  0  0  0  0  0  0  0  0
    7.4850   -3.0480   24.2710 C   0  0  0  0  0  0  0  0  0  0  0  0
    8.9220   -2.7440   23.7910 C   0  0  0  0  0  0  0  0  0  0  0  0
    9.0960   -2.1040   22.5650 C   0  0  0  0  0  0  0  0  0  0  0  0
    9.0730   -0.6420   22.5870 N   0  0  0  0  0  0  0  0  0  0  0  0
    8.5370    0.1170   21.5570 C   0  0  0  0  0  0  0  0  0  0  0  0
    9.0190    1.2090   21.2260 O   0  0  0  0  0  0  0  0  0  0  0  0
    7.4240   -0.4810   21.0010 N   0  0  0  0  0  0  0  0  0  0  0  0
    6.5930    0.1470   20.0590 C   0  0  0  0  0  0  0  0  0  0  0  0
    5.4380    0.8740   20.3520 C   0  0  0  0  0  0  0  0  0  0  0  0
    4.7230    1.4630   19.3070 C   0  0  0  0  0  0  0  0  0  0  0  0
    5.2030    1.2880   18.0320 C   0  0  0  0  0  0  0  0  0  0  0  0
    6.2910    0.5940   17.7040 N   0  0  0  0  0  0  0  0  0  0  0  0
    6.9620    0.0380   18.7280 C   0  0  0  0  0  0  0  0  0  0  0  0
    5.9190   -4.9530   24.4040 N   0  0  0  0  0  0  0  0  0  0  0  0
    4.8260   -5.6120   23.7420 C   0  0  0  0  0  0  0  0  0  0  0  0
    3.6130   -4.8260   23.7800 C   0  0  0  0  0  0  0  0  0  0  0  0
    2.8430   -5.7510   24.3760 C   0  0  0  0  0  0  0  0  0  0  0  0
    3.9600   -6.7170   24.4610 C   0  0  0  0  0  0  0  0  0  0  0  0
  1  2  2  0
  2  3  1  0
  3  4  1  0
  4  5  1  0
  5  6  1  0
  6  7  1  0
  7  8  2  0
  7  9  1  0
  9 10  1  0
 10 11  2  0
 11 12  1  0
 12 13  2  0
 13 14  1  0
 10 15  1  0
 14 15  2  0
  2 16  1  0
 16 17  1  0
 17 18  1  0
 18 19  1  0
 17 20  1  0
 19 20  1  0
M  END
