pyridine_urea_2768
     RDKit          3D

 22 23  0  0  0  0  0  0  0  0999 V2000
    8.7540    0.4420   21.4550 O   0  0  0  0  0  0  0  0  0  0  0  0
    8.1670   -0.5930   21.6970 C   0  0  0  0  0  0  0  0  0  0  0  0
    8.6250   -1.5330   22.6310 N   0  0  0  0  0  0  0  0  0  0  0  0
    9.9730   -1.4470   23.2240 C   0  0  0  0  0  0  0  0  0  0  0  0
   10.9400   -0.6100   22.3520 C   0  0  1  0  0  0  0  0  0  0  0  0
   10.1360   -0.4160   21.2160 O   0  0  0  0  0  0  0  0  0  0  0  0
   11.3650    0.6520   22.7960 C   0  0  0  0  0  0  0  0  0  0  0  0
   10.0780    1.8810   22.8130 S   0  0  0  0  0  0  0  0  0  0  0  0
    9.1820    1.6080   23.9180 O   0  0  0  0  0  0  0  0  0  0  0  0
    9.5020    2.2010   21.5080 O   0  0  0  0  0  0  0  0  0  0  0  0
   10.9830    3.3780   23.1910 C   0  0  0  0  0  0  0  0  0  0  0  0
   10.6420    4.3470   24.1270 C   0  0  0  0  0  0  0  0  0  0  0  0
   11.5810    5.5030   24.2230 C   0  0  0  0  0  0  0  0  0  0  0  0
   12.7070    5.3160   23.2350 C   0  0  0  0  0  0  0  0  0  0  0  0
   12.4660    3.8240   22.3760 S   0  0  0  0  0  0  0  0  0  0  0  0
    6.9880   -0.9530   21.0810 N   0  0  0  0  0  0  0  0  0  0  0  0
    6.4160   -0.2220   20.0550 C   0  0  0  0  0  0  0  0  0  0  0  0
    5.1320    0.5400   20.4150 C   0  0  0  0  0  0  0  0  0  0  0  0
    4.4880    1.3690   19.2850 C   0  0  0  0  0  0  0  0  0  0  0  0
    5.2120    1.3300   17.9450 C   0  0  0  0  0  0  0  0  0  0  0  0
    6.3590    0.5950   17.7720 N   0  0  0  0  0  0  0  0  0  0  0  0
    6.9460   -0.1580   18.7840 C   0  0  0  0  0  0  0  0  0  0  0  0
  1  2  2  0
  2  3  1  0
  3  4  1  0
  4  5  1  0
  5  6  1  6
  5  7  1  0
  8  7  1  0
  8  9  2  0
  8 10  2  0
  8 11  1  0
 11 12  2  0
 12 13  1  0
 13 14  2  0
 11 15  1  0
 14 15  1  0
  2 16  1  0
 16 17  1  0
 17 18  2  0
 18 19  1  0
 19 20  2  0
 20 21  1  0
 17 22  1  0
 21 22  2  0
M  END
