pyridine_urea_4837
     RDKit          3D

 21 23  0  0  0  0  0  0  0  0999 V2000
    9.0320    0.7390   21.4060 O   0  0  0  0  0  0  0  0  0  0  0  0
    8.4040   -0.2950   21.5930 C   0  0  0  0  0  0  0  0  0  0  0  0
    8.8490   -1.2940   22.4090 N   0  0  0  0  0  0  0  0  0  0  0  0
    7.8980   -1.8510   23.3480 C   0  0  0  0  0  0  0  0  0  0  0  0
    7.5370   -3.3200   23.0450 C   0  0  0  0  0  0  0  0  0  0  0  0
    7.4910   -4.0830   24.1620 N   0  0  0  0  0  0  0  0  0  0  0  0
    6.3530   -3.8660   24.8610 C   0  0  0  0  0  0  0  0  0  0  0  0
    6.1940   -4.5290   25.9890 C   0  0  0  0  0  0  0  0  0  0  0  0
    5.1870   -4.5530   26.9430 C   0  0  0  0  0  0  0  0  0  0  0  0
    5.3750   -5.3870   28.0500 C   0  0  0  0  0  0  0  0  0  0  0  0
    6.5470   -6.1620   28.1690 C   0  0  0  0  0  0  0  0  0  0  0  0
    7.5180   -6.0950   27.1700 C   0  0  0  0  0  0  0  0  0  0  0  0
    7.3220   -5.2750   26.0830 C   0  0  0  0  0  0  0  0  0  0  0  0
    8.1550   -5.0320   24.9360 N   0  0  0  0  0  0  0  0  0  0  0  0
    7.1790   -0.6310   21.0650 N   0  0  0  0  0  0  0  0  0  0  0  0
    6.5160    0.0320   19.9930 C   0  0  0  0  0  0  0  0  0  0  0  0
    5.2740    0.8060   20.2680 C   0  0  0  0  0  0  0  0  0  0  0  0
    4.5980    1.4720   19.2690 C   0  0  0  0  0  0  0  0  0  0  0  0
    5.2010    1.3440   17.9760 C   0  0  0  0  0  0  0  0  0  0  0  0
    6.3180    0.6450   17.7100 N   0  0  0  0  0  0  0  0  0  0  0  0
    6.9530    0.0040   18.7070 C   0  0  0  0  0  0  0  0  0  0  0  0
  1  2  2  0
  2  3  1  0
  3  4  1  0
  4  5  1  0
  5  6  1  0
  6  7  1  0
  7  8  2  0
  8  9  1  0
  9 10  2  0
 10 11  1  0
 11 12  2  0
  8 13  1  0
 12 13  1  0
  6 14  1  0
 13 14  2  0
  2 15  1  0
 15 16  1  0
 16 17  2  0
 17 18  1  0
 18 19  2  0
 19 20  1  0
 16 21  1  0
 20 21  2  0
M  END
