pyridine_urea_10848
     RDKit          3D

 20 21  0  0  0  0  0  0  0  0999 V2000
   13.5050   -2.7440   24.8870 C   0  0  0  0  0  0  0  0  0  0  0  0
   12.1340   -2.5220   24.3490 C   0  0  0  0  0  0  0  0  0  0  0  0
   12.0000   -2.0120   23.0540 C   0  0  1  0  0  0  0  0  0  0  0  0
   10.8880   -1.2160   22.8740 C   0  0  0  0  0  0  0  0  0  0  0  0
   10.7530    0.0150   23.3320 N   0  0  0  0  0  0  0  0  0  0  0  0
    9.7600   -0.0640   24.2730 C   0  0  0  0  0  0  0  0  0  0  0  0
    8.3770   -0.5870   24.0280 C   0  0  0  0  0  0  0  0  0  0  0  0
    8.4070   -0.9920   22.7070 N   0  0  0  0  0  0  0  0  0  0  0  0
    8.0320   -0.2410   21.5750 C   0  0  0  0  0  0  0  0  0  0  0  0
    8.5830    0.7870   21.2010 O   0  0  0  0  0  0  0  0  0  0  0  0
    6.9750   -0.8250   20.9790 N   0  0  0  0  0  0  0  0  0  0  0  0
    6.3620   -0.0910   20.0280 C   0  0  0  0  0  0  0  0  0  0  0  0
    5.1990    0.6610   20.1990 C   0  0  0  0  0  0  0  0  0  0  0  0
    4.6050    1.4150   19.1660 C   0  0  0  0  0  0  0  0  0  0  0  0
    5.1980    1.4220   17.9090 C   0  0  0  0  0  0  0  0  0  0  0  0
    6.3600    0.6630   17.7430 N   0  0  0  0  0  0  0  0  0  0  0  0
    6.9260   -0.0740   18.7730 C   0  0  0  0  0  0  0  0  0  0  0  0
   11.9120    0.7290   23.3020 C   0  0  0  0  0  0  0  0  0  0  0  0
   13.0390   -0.0850   23.3840 C   0  0  0  0  0  0  0  0  0  0  0  0
   12.8730   -1.2810   22.6300 O   0  0  0  0  0  0  0  0  0  0  0  0
  1  2  1  0
  3  2  1  1
  3  4  1  0
  4  5  1  0
  5  6  1  0
  6  7  1  0
  7  8  1  0
  8  9  1  0
  9 10  2  0
  9 11  1  0
 11 12  1  0
 12 13  2  0
 13 14  1  0
 14 15  2  0
 15 16  1  0
 12 17  1  0
 16 17  2  0
  5 18  1  0
 18 19  1  0
  3 20  1  0
 19 20  1  0
M  END
