pyridine_urea_12655
     RDKit          3D

 21 22  0  0  0  0  0  0  0  0999 V2000
   13.6000   -1.7100   24.1650 C   0  0  0  0  0  0  0  0  0  0  0  0
   12.2290   -1.2410   23.9090 C   0  0  0  0  0  0  0  0  0  0  0  0
   11.7770   -1.5470   22.5150 C   0  0  0  0  0  0  0  0  0  0  0  0
   10.5200   -1.1940   22.1890 C   0  0  0  0  0  0  0  0  0  0  0  0
    9.7080   -0.5730   23.1250 C   0  0  0  0  0  0  0  0  0  0  0  0
    8.3910   -0.2690   22.7060 N   0  0  0  0  0  0  0  0  0  0  0  0
    8.2090    0.2800   21.4990 C   0  0  0  0  0  0  0  0  0  0  0  0
    8.9180    1.3730   21.0630 O   0  0  0  0  0  0  0  0  0  0  0  0
    7.2230   -0.4130   20.8750 N   0  0  0  0  0  0  0  0  0  0  0  0
    6.4660    0.2070   19.9200 C   0  0  0  0  0  0  0  0  0  0  0  0
    5.2900    0.9300   20.1150 C   0  0  0  0  0  0  0  0  0  0  0  0
    4.6180    1.5450   19.0910 C   0  0  0  0  0  0  0  0  0  0  0  0
    5.1010    1.4640   17.8030 C   0  0  0  0  0  0  0  0  0  0  0  0
    6.2470    0.7450   17.5840 N   0  0  0  0  0  0  0  0  0  0  0  0
    6.9180    0.1260   18.6290 C   0  0  0  0  0  0  0  0  0  0  0  0
   10.1490   -0.2720   24.4100 C   0  0  0  0  0  0  0  0  0  0  0  0
    9.3250    0.3540   25.3170 C   0  0  0  0  0  0  0  0  0  0  0  0
    9.1270    1.6780   25.0580 N   0  0  0  0  0  0  0  0  0  0  0  0
    7.8550    2.1380   25.1220 C   0  0  0  0  0  0  0  0  0  0  0  0
    9.9380    2.1590   24.0770 C   0  0  0  0  0  0  0  0  0  0  0  0
   11.4210   -0.6060   24.8060 C   0  0  0  0  0  0  0  0  0  0  0  0
  1  2  1  0
  2  3  2  0
  3  4  1  0
  4  5  2  0
  5  6  1  0
  6  7  1  0
  7  8  2  0
  7  9  1  0
  9 10  1  0
 10 11  2  0
 11 12  1  0
 12 13  2  0
 13 14  1  0
 10 15  1  0
 14 15  2  0
  5 16  1  0
 16 17  1  0
 17 18  1  0
 18 19  1  0
 18 20  1  0
  2 21  1  0
 16 21  2  0
M  END
