pyridine_urea_6687
     RDKit          3D

 21 23  0  0  0  0  0  0  0  0999 V2000
    8.7430    0.5420   21.2280 O   0  0  0  0  0  0  0  0  0  0  0  0
    8.1370   -0.5250   21.1830 C   0  0  0  0  0  0  0  0  0  0  0  0
    6.8280   -0.6940   20.9120 N   0  0  0  0  0  0  0  0  0  0  0  0
    6.1710    0.0640   19.9680 C   0  0  0  0  0  0  0  0  0  0  0  0
    4.8630    0.8100   20.2140 C   0  0  0  0  0  0  0  0  0  0  0  0
    4.3730    1.5800   18.9990 C   0  0  0  0  0  0  0  0  0  0  0  0
    5.2020    1.5150   17.7570 C   0  0  0  0  0  0  0  0  0  0  0  0
    6.3420    0.8120   17.6580 N   0  0  0  0  0  0  0  0  0  0  0  0
    6.7820    0.1300   18.7290 C   0  0  0  0  0  0  0  0  0  0  0  0
    8.7260   -1.7230   21.4170 N   0  0  0  0  0  0  0  0  0  0  0  0
    9.8550   -1.5870   22.2010 C   0  0  0  0  0  0  0  0  0  0  0  0
   11.1390   -1.9450   21.7790 C   0  0  0  0  0  0  0  0  0  0  0  0
   12.1740   -1.7510   22.6000 C   0  0  0  0  0  0  0  0  0  0  0  0
   11.8530   -1.2210   23.7980 C   0  0  0  0  0  0  0  0  0  0  0  0
   13.3540   -1.0600   24.5770 S   0  0  0  0  0  0  0  0  0  0  0  0
   13.0050    0.5400   23.7220 C   0  0  0  0  0  0  0  0  0  0  0  0
   13.5030    0.4660   22.5050 C   0  0  0  0  0  0  0  0  0  0  0  0
   11.9190    0.6890   22.6440 C   0  0  0  0  0  0  0  0  0  0  0  0
   10.6470   -0.8780   24.2670 C   0  0  0  0  0  0  0  0  0  0  0  0
   10.3710   -0.2560   25.7690 Cl  0  0  0  0  0  0  0  0  0  0  0  0
    9.6320   -1.0640   23.4390 C   0  0  0  0  0  0  0  0  0  0  0  0
  1  2  2  0
  2  3  1  0
  3  4  1  0
  4  5  2  0
  5  6  1  0
  6  7  2  0
  7  8  1  0
  4  9  1  0
  8  9  2  0
  2 10  1  0
 10 11  1  0
 11 12  2  0
 12 13  1  0
 13 14  2  0
 14 15  1  0
 15 16  1  0
 16 17  1  0
 16 18  1  0
 17 18  1  0
 14 19  1  0
 19 20  1  0
 11 21  1  0
 19 21  2  0
M  END
