pyridine_urea_6222
     RDKit          3D

 24 26  0  0  0  0  0  0  0  0999 V2000
   10.2850   -4.2890   25.5710 C   0  0  0  0  0  0  0  0  0  0  0  0
   11.2530   -3.6390   25.2950 C   0  0  0  0  0  0  0  0  0  0  0  0
   12.0890   -2.5720   24.5460 C   0  0  0  0  0  0  0  0  0  0  0  0
   13.5220   -2.1210   24.6600 C   0  0  0  0  0  0  0  0  0  0  0  0
   13.8380   -1.0850   23.7580 O   0  0  0  0  0  0  0  0  0  0  0  0
   12.6270   -0.8850   23.3890 C   0  0  0  0  0  0  0  0  0  0  0  0
   11.8060   -0.2800   24.5140 C   0  0  0  0  0  0  0  0  0  0  0  0
   10.3840   -0.0560   24.2570 C   0  0  0  0  0  0  0  0  0  0  0  0
    9.9000   -0.3910   23.0630 C   0  0  0  0  0  0  0  0  0  0  0  0
    8.5200   -0.1700   22.8580 N   0  0  0  0  0  0  0  0  0  0  0  0
    8.2150    0.3530   21.6440 C   0  0  0  0  0  0  0  0  0  0  0  0
    8.8510    1.2930   21.1500 O   0  0  0  0  0  0  0  0  0  0  0  0
    7.1450   -0.3040   21.1210 N   0  0  0  0  0  0  0  0  0  0  0  0
    6.4350    0.2670   19.9950 C   0  0  0  0  0  0  0  0  0  0  0  0
    5.2830    0.9770   20.3290 C   0  0  0  0  0  0  0  0  0  0  0  0
    4.6400    1.5380   19.2590 C   0  0  0  0  0  0  0  0  0  0  0  0
    5.1530    1.3820   17.8690 C   0  0  0  0  0  0  0  0  0  0  0  0
    6.2500    0.6850   17.5660 N   0  0  0  0  0  0  0  0  0  0  0  0
    6.8890    0.1330   18.6150 C   0  0  0  0  0  0  0  0  0  0  0  0
   10.8060   -0.9840   21.9900 C   0  0  0  0  0  0  0  0  0  0  0  0
   12.1390   -1.2140   22.1690 C   0  0  0  0  0  0  0  0  0  0  0  0
   14.2840   -2.8120   25.6560 N   0  0  0  0  0  0  0  0  0  0  0  0
   13.4800   -3.7870   26.3070 C   0  0  0  0  0  0  0  0  0  0  0  0
   12.2000   -4.1470   26.1740 N   0  0  0  0  0  0  0  0  0  0  0  0
  1  2  1  0
  2  3  2  0
  3  4  1  0
  4  5  1  0
  5  6  1  0
  6  7  2  0
  7  8  1  0
  8  9  2  0
  9 10  1  0
 10 11  1  0
 11 12  2  0
 11 13  1  0
 13 14  1  0
 14 15  2  0
 15 16  1  0
 16 17  2  0
 17 18  1  0
 14 19  1  0
 18 19  2  0
  9 20  1  0
  6 21  1  0
 20 21  2  0
  4 22  2  0
 22 23  1  0
  2 24  1  0
 23 24  2  0
M  END
