pyridine_urea_12620
     RDKit          3D

 21 22  0  0  0  0  0  0  0  0999 V2000
    7.0500    0.7180   22.4190 O   0  0  0  0  0  0  0  0  0  0  0  0
    7.6500   -0.2200   21.9710 C   0  0  0  0  0  0  0  0  0  0  0  0
    7.0760   -1.0270   21.0480 N   0  0  0  0  0  0  0  0  0  0  0  0
    6.5180   -0.2870   19.9380 C   0  0  0  0  0  0  0  0  0  0  0  0
    5.2250    0.4980   20.2310 C   0  0  0  0  0  0  0  0  0  0  0  0
    4.6090    1.2620   19.2360 C   0  0  0  0  0  0  0  0  0  0  0  0
    5.2080    1.2850   17.9820 C   0  0  0  0  0  0  0  0  0  0  0  0
    6.3590    0.5670   17.7690 N   0  0  0  0  0  0  0  0  0  0  0  0
    7.0290   -0.2200   18.7110 C   0  0  0  0  0  0  0  0  0  0  0  0
    8.9380   -0.4520   22.2810 N   0  0  0  0  0  0  0  0  0  0  0  0
   10.2320   -0.2670   22.4700 C   0  0  0  0  0  0  0  0  0  0  0  0
   11.2000   -1.2640   22.4970 C   0  0  0  0  0  0  0  0  0  0  0  0
   12.5120   -0.8440   22.6590 C   0  0  0  0  0  0  0  0  0  0  0  0
   12.7800    0.5250   22.7750 C   0  0  0  0  0  0  0  0  0  0  0  0
   13.9870    0.9260   22.8790 F   0  0  0  0  0  0  0  0  0  0  0  0
   11.7840    1.4910   22.7580 C   0  0  0  0  0  0  0  0  0  0  0  0
   11.8790    3.0180   22.8430 C   0  0  0  0  0  0  0  0  0  0  0  0
   11.4500    3.7010   21.7870 F   0  0  0  0  0  0  0  0  0  0  0  0
   11.0960    3.5280   23.8040 F   0  0  0  0  0  0  0  0  0  0  0  0
   13.0720    3.5800   23.0450 F   0  0  0  0  0  0  0  0  0  0  0  0
   10.5040    1.0800   22.6130 C   0  0  0  0  0  0  0  0  0  0  0  0
  1  2  2  0
  2  3  1  0
  3  4  1  0
  4  5  2  0
  5  6  1  0
  6  7  2  0
  7  8  1  0
  4  9  1  0
  8  9  2  0
  2 10  1  0
 10 11  1  0
 11 12  2  0
 12 13  1  0
 13 14  2  0
 14 15  1  0
 14 16  1  0
 16 17  1  0
 17 18  1  0
 17 19  1  0
 17 20  1  0
 11 21  1  0
 16 21  2  0
M  END
