pyridine_urea_12843
     RDKit          3D

 19 19  0  0  0  0  0  0  0  0999 V2000
   10.1030    0.4560   23.1190 C   0  0  0  0  0  0  0  0  0  0  0  0
    9.6120   -1.0010   23.0210 C   0  0  0  0  0  0  0  0  0  0  0  0
    9.4690   -1.6500   24.3800 C   0  0  0  0  0  0  0  0  0  0  0  0
   10.7070   -1.7310   22.3230 C   0  0  0  0  0  0  0  0  0  0  0  0
   11.7710   -0.8430   22.1460 N   0  0  0  0  0  0  0  0  0  0  0  0
   13.1910   -1.5140   21.8690 S   0  0  0  0  0  0  0  0  0  0  0  0
   12.8610   -3.0110   21.2380 C   0  0  0  0  0  0  0  0  0  0  0  0
   13.7610   -0.8690   20.7500 O   0  0  0  0  0  0  0  0  0  0  0  0
   13.7870   -1.7250   23.1540 O   0  0  0  0  0  0  0  0  0  0  0  0
    8.5480   -1.2450   22.2990 N   0  0  0  0  0  0  0  0  0  0  0  0
    8.0230   -0.2630   21.4830 C   0  0  0  0  0  0  0  0  0  0  0  0
    8.5690    0.7880   21.1700 O   0  0  0  0  0  0  0  0  0  0  0  0
    6.8190   -0.5330   21.0300 N   0  0  0  0  0  0  0  0  0  0  0  0
    6.2940    0.0750   19.9680 C   0  0  0  0  0  0  0  0  0  0  0  0
    5.1790    0.8600   20.1690 C   0  0  0  0  0  0  0  0  0  0  0  0
    4.5770    1.5400   19.1470 C   0  0  0  0  0  0  0  0  0  0  0  0
    5.1240    1.4190   17.8750 C   0  0  0  0  0  0  0  0  0  0  0  0
    6.2020    0.6700   17.5740 N   0  0  0  0  0  0  0  0  0  0  0  0
    6.7780   -0.0100   18.6870 C   0  0  0  0  0  0  0  0  0  0  0  0
  1  2  1  0
  2  3  1  0
  2  4  1  0
  4  5  1  0
  6  5  1  0
  6  7  1  0
  6  8  2  0
  6  9  2  0
  2 10  1  0
 10 11  1  0
 11 12  2  0
 11 13  1  0
 13 14  1  0
 14 15  2  0
 15 16  1  0
 16 17  2  0
 17 18  1  0
 14 19  1  0
 18 19  2  0
M  END
