pyridine_urea_12916
     RDKit          3D

 19 21  0  0  0  0  0  0  0  0999 V2000
    8.8930    0.9160   21.3000 O   0  0  0  0  0  0  0  0  0  0  0  0
    8.3110   -0.0990   21.6500 C   0  0  0  0  0  0  0  0  0  0  0  0
    8.7310   -0.8400   22.7250 N   0  0  0  0  0  0  0  0  0  0  0  0
    9.1500   -0.1490   23.9330 C   0  0  0  0  0  0  0  0  0  0  0  0
   10.4840    0.5720   23.7270 C   0  0  0  0  0  0  0  0  0  0  0  0
   11.5400    0.5890   23.3940 C   0  0  0  0  0  0  0  0  0  0  0  0
   12.5090    0.2680   22.9850 C   0  0  0  0  0  0  0  0  0  0  0  0
   13.1590   -0.8090   22.4470 C   0  0  0  0  0  0  0  0  0  0  0  0
   13.0690   -1.9420   23.0140 C   0  0  0  0  0  0  0  0  0  0  0  0
   12.0900   -1.9030   21.9710 C   0  0  0  0  0  0  0  0  0  0  0  0
   12.6290    1.6250   23.3490 N   0  0  0  0  0  0  0  0  0  0  0  0
   11.2580    1.8920   23.8720 O   0  0  0  0  0  0  0  0  0  0  0  0
    7.1830   -0.6170   21.0610 N   0  0  0  0  0  0  0  0  0  0  0  0
    6.5120    0.0020   20.0640 C   0  0  0  0  0  0  0  0  0  0  0  0
    5.3390    0.7060   20.3800 C   0  0  0  0  0  0  0  0  0  0  0  0
    4.6410    1.3670   19.3580 C   0  0  0  0  0  0  0  0  0  0  0  0
    5.1890    1.2830   17.9760 C   0  0  0  0  0  0  0  0  0  0  0  0
    6.3060    0.5970   17.7120 N   0  0  0  0  0  0  0  0  0  0  0  0
    6.9280   -0.0190   18.7430 C   0  0  0  0  0  0  0  0  0  0  0  0
  1  2  2  0
  2  3  1  0
  3  4  1  0
  4  5  1  0
  5  6  2  0
  6  7  1  0
  7  8  1  0
  8  9  1  0
  8 10  1  0
  9 10  1  0
  7 11  2  0
  5 12  1  0
 11 12  1  0
  2 13  1  0
 13 14  1  0
 14 15  2  0
 15 16  1  0
 16 17  2  0
 17 18  1  0
 14 19  1  0
 18 19  2  0
M  END
