pyridine_urea_3281
     RDKit          3D

 20 21  0  0  0  0  0  0  0  0999 V2000
    9.3810    1.0110   21.7070 O   0  0  0  0  0  0  0  0  0  0  0  0
    8.7960   -0.0530   21.5260 C   0  0  0  0  0  0  0  0  0  0  0  0
    9.2040   -1.2800   21.8960 N   0  0  0  0  0  0  0  0  0  0  0  0
    9.5730   -1.5570   23.1920 C   0  0  0  0  0  0  0  0  0  0  0  0
    8.8230   -0.8540   24.1420 C   0  0  0  0  0  0  0  0  0  0  0  0
    9.0970   -1.1870   25.4610 C   0  0  0  0  0  0  0  0  0  0  0  0
    7.9210   -0.9280   26.3110 N   0  0  0  0  0  0  0  0  0  0  0  0
    7.6400    0.3330   26.8020 C   0  0  0  0  0  0  0  0  0  0  0  0
    6.1850    0.4240   27.2590 C   0  0  0  0  0  0  0  0  0  0  0  0
    5.7660   -0.5990   28.1160 C   0  0  0  0  0  0  0  0  0  0  0  0
    4.5780   -0.8750   28.1300 O   0  0  0  0  0  0  0  0  0  0  0  0
    6.3830   -1.9500   27.7170 C   0  0  0  0  0  0  0  0  0  0  0  0
    7.7040   -1.9500   27.2670 C   0  0  0  0  0  0  0  0  0  0  0  0
    7.6030   -0.0700   20.8850 N   0  0  0  0  0  0  0  0  0  0  0  0
    6.6430    0.3850   20.0080 C   0  0  0  0  0  0  0  0  0  0  0  0
    5.4560    1.0380   20.3190 C   0  0  0  0  0  0  0  0  0  0  0  0
    4.6390    1.4570   19.2700 C   0  0  0  0  0  0  0  0  0  0  0  0
    5.0450    1.2050   17.9710 C   0  0  0  0  0  0  0  0  0  0  0  0
    6.1640    0.5680   17.6500 N   0  0  0  0  0  0  0  0  0  0  0  0
    6.9380    0.1700   18.6860 C   0  0  0  0  0  0  0  0  0  0  0  0
  1  2  2  0
  2  3  1  0
  3  4  1  0
  4  5  1  0
  5  6  1  0
  6  7  1  0
  7  8  1  0
  8  9  1  0
  9 10  1  0
 10 11  1  0
 10 12  1  0
  7 13  1  0
 12 13  1  0
  2 14  1  0
 14 15  1  0
 15 16  2  0
 16 17  1  0
 17 18  2  0
 18 19  1  0
 15 20  1  0
 19 20  2  0
M  END
