pyridine_urea_14427
     RDKit          3D

 20 21  0  0  0  0  0  0  0  0999 V2000
   13.3500   -1.8110   21.8220 C   0  0  0  0  0  0  0  0  0  0  0  0
   12.3180   -0.9930   22.5070 C   0  0  0  0  0  0  0  0  0  0  0  0
   10.9920   -1.3440   22.2750 C   0  0  0  0  0  0  0  0  0  0  0  0
   10.1750   -0.4870   22.9990 C   0  0  2  0  0  0  0  0  0  0  0  0
    8.8400   -0.4580   22.8780 N   0  0  0  0  0  0  0  0  0  0  0  0
    8.4630    0.1000   21.6570 C   0  0  0  0  0  0  0  0  0  0  0  0
    8.9740    1.1180   21.1700 O   0  0  0  0  0  0  0  0  0  0  0  0
    7.4420   -0.6140   21.1130 N   0  0  0  0  0  0  0  0  0  0  0  0
    6.7270   -0.0130   20.1160 C   0  0  0  0  0  0  0  0  0  0  0  0
    5.5090    0.7770   20.5100 C   0  0  0  0  0  0  0  0  0  0  0  0
    4.7630    1.4250   19.3810 C   0  0  0  0  0  0  0  0  0  0  0  0
    5.2000    1.2780   18.0870 C   0  0  0  0  0  0  0  0  0  0  0  0
    6.2660    0.5820   17.6950 N   0  0  0  0  0  0  0  0  0  0  0  0
    6.9930   -0.0450   18.7520 C   0  0  0  0  0  0  0  0  0  0  0  0
   10.6190    0.8190   22.9070 C   0  0  0  0  0  0  0  0  0  0  0  0
   10.1070    2.0160   22.7830 C   0  0  0  0  0  0  0  0  0  0  0  0
   11.3300    2.7990   22.7620 C   0  0  0  0  0  0  0  0  0  0  0  0
   12.6900    2.1520   22.8800 C   0  0  0  0  0  0  0  0  0  0  0  0
   12.6800    0.7150   23.0210 C   0  0  0  0  0  0  0  0  0  0  0  0
   11.7380    1.5750   22.8920 C   0  0  0  0  0  0  0  0  0  0  0  0
  1  2  3  0
  2  3  1  0
  4  3  1  6
  4  5  1  0
  5  6  1  0
  6  7  2  0
  6  8  1  0
  8  9  1  0
  9 10  2  0
 10 11  1  0
 11 12  2  0
 12 13  1  0
  9 14  1  0
 13 14  2  0
  4 15  1  0
 15 16  2  0
 16 17  1  0
 17 18  2  0
 18 19  1  0
 15 20  1  0
 19 20  2  0
M  END
