pyridine_urea_1355
     RDKit          3D

 20 22  0  0  0  0  0  0  0  0999 V2000
    8.9080    0.8330   21.3050 O   0  0  0  0  0  0  0  0  0  0  0  0
    8.4860   -0.3030   21.4630 C   0  0  0  0  0  0  0  0  0  0  0  0
    9.2440   -1.3210   22.0060 N   0  0  0  0  0  0  0  0  0  0  0  0
   10.0320   -1.1390   23.2220 C   0  0  0  0  0  0  0  0  0  0  0  0
   11.5630   -1.3120   22.9980 C   0  0  0  0  0  0  0  0  0  0  0  0
   12.4020   -0.2390   22.9800 C   0  0  0  0  0  0  0  0  0  0  0  0
   12.8560    1.0730   22.9700 C   0  0  0  0  0  0  0  0  0  0  0  0
   12.1580    2.2630   22.9800 C   0  0  0  0  0  0  0  0  0  0  0  0
   10.8090    2.2830   22.9970 C   0  0  0  0  0  0  0  0  0  0  0  0
   10.2110    1.0850   23.0120 C   0  0  0  0  0  0  0  0  0  0  0  0
   11.0110   -0.0420   23.0020 N   0  0  0  0  0  0  0  0  0  0  0  0
   12.2760   -2.6570   23.4240 C   0  0  0  0  0  0  0  0  0  0  0  0
   11.8860   -2.4280   22.1270 C   0  0  0  0  0  0  0  0  0  0  0  0
    7.2220   -0.6990   21.0890 N   0  0  0  0  0  0  0  0  0  0  0  0
    6.5360   -0.0520   20.0450 C   0  0  0  0  0  0  0  0  0  0  0  0
    5.2720    0.7150   20.3120 C   0  0  0  0  0  0  0  0  0  0  0  0
    4.5770    1.3780   19.3180 C   0  0  0  0  0  0  0  0  0  0  0  0
    5.1610    1.2740   18.0260 C   0  0  0  0  0  0  0  0  0  0  0  0
    6.2910    0.5890   17.7440 N   0  0  0  0  0  0  0  0  0  0  0  0
    6.9440   -0.0510   18.7390 C   0  0  0  0  0  0  0  0  0  0  0  0
  1  2  2  0
  2  3  1  0
  3  4  1  0
  5  4  1  0
  5  6  1  0
  6  7  2  0
  7  8  1  0
  8  9  2  0
  9 10  1  0
  6 11  1  0
 10 11  2  0
  5 12  1  0
  5 13  1  0
 12 13  1  0
  2 14  1  0
 14 15  1  0
 15 16  2  0
 16 17  1  0
 17 18  2  0
 18 19  1  0
 15 20  1  0
 19 20  2  0
M  END
