pyridine_urea_3057
     RDKit          3D

 21 22  0  0  0  0  0  0  0  0999 V2000
    8.1990    2.5310   24.9700 C   0  0  0  0  0  0  0  0  0  0  0  0
    8.7020    1.0850   25.0580 C   0  0  0  0  0  0  0  0  0  0  0  0
    9.2270    0.6630   23.7960 O   0  0  0  0  0  0  0  0  0  0  0  0
   10.3460   -0.1110   23.8270 C   0  0  1  0  0  0  0  0  0  0  0  0
   10.1950   -1.1340   22.8870 C   0  0  0  0  0  0  0  0  0  0  0  0
    8.9670   -1.2510   22.2290 N   0  0  0  0  0  0  0  0  0  0  0  0
    8.2700   -0.3750   21.4440 C   0  0  0  0  0  0  0  0  0  0  0  0
    8.6970    0.8880   21.1490 O   0  0  0  0  0  0  0  0  0  0  0  0
    7.1060   -0.8810   20.9890 N   0  0  0  0  0  0  0  0  0  0  0  0
    6.4620   -0.1430   20.0590 C   0  0  0  0  0  0  0  0  0  0  0  0
    5.1920    0.6870   20.3000 C   0  0  0  0  0  0  0  0  0  0  0  0
    4.5040    1.5090   19.2130 C   0  0  0  0  0  0  0  0  0  0  0  0
    5.2330    1.3990   17.8860 C   0  0  0  0  0  0  0  0  0  0  0  0
    6.3620    0.6330   17.7530 N   0  0  0  0  0  0  0  0  0  0  0  0
    6.9600   -0.1100   18.7750 C   0  0  0  0  0  0  0  0  0  0  0  0
   11.5750    0.8000   23.4470 C   0  0  0  0  0  0  0  0  0  0  0  0
   11.4200    2.1400   23.5880 C   0  0  0  0  0  0  0  0  0  0  0  0
   12.6000    1.4420   23.1120 C   0  0  0  0  0  0  0  0  0  0  0  0
   11.8140    0.1130   23.3080 C   0  0  0  0  0  0  0  0  0  0  0  0
   12.9630   -0.6150   22.8400 C   0  0  0  0  0  0  0  0  0  0  0  0
   12.8840    0.5890   22.9600 C   0  0  0  0  0  0  0  0  0  0  0  0
  1  2  1  0
  2  3  1  0
  3  4  1  0
  4  5  1  6
  5  6  1  0
  6  7  1  0
  7  8  2  0
  7  9  1  0
  9 10  1  0
 10 11  2  0
 11 12  1  0
 12 13  2  0
 13 14  1  0
 10 15  1  0
 14 15  2  0
  4 16  1  0
 16 17  2  0
 17 18  1  0
 18 19  2  0
 19 20  1  0
 16 21  1  0
 20 21  2  0
M  END
