pyridine_urea_1253
     RDKit          3D

 21 23  0  0  0  0  0  0  0  0999 V2000
    8.7790    0.5830   21.1880 O   0  0  0  0  0  0  0  0  0  0  0  0
    8.4230   -0.5290   21.5460 C   0  0  0  0  0  0  0  0  0  0  0  0
    9.2590   -1.2140   22.4400 N   0  0  0  0  0  0  0  0  0  0  0  0
   10.1710   -0.1430   22.7110 C   0  0  0  0  0  0  0  0  0  0  0  0
   11.7110   -0.1800   22.5770 C   0  0  0  0  0  0  0  0  0  0  0  0
   12.4760    1.0040   22.7790 C   0  0  0  0  0  0  0  0  0  0  0  0
   11.8030    2.2330   23.1050 C   0  0  0  0  0  0  0  0  0  0  0  0
   12.3450    3.5240   23.2510 N   0  0  0  0  0  0  0  0  0  0  0  0
   13.0090    4.1500   22.1880 C   0  0  0  0  0  0  0  0  0  0  0  0
   12.8360    5.5230   22.2390 C   0  0  0  0  0  0  0  0  0  0  0  0
   11.7850    5.7470   23.1120 C   0  0  0  0  0  0  0  0  0  0  0  0
   11.5720    4.5710   23.8140 C   0  0  0  0  0  0  0  0  0  0  0  0
   10.4460    2.2660   23.2850 C   0  0  0  0  0  0  0  0  0  0  0  0
    9.6110    1.2030   23.1260 C   0  0  0  0  0  0  0  0  0  0  0  0
    7.2400   -1.0540   21.0850 N   0  0  0  0  0  0  0  0  0  0  0  0
    6.5530   -0.3470   20.1240 C   0  0  0  0  0  0  0  0  0  0  0  0
    5.3670    0.3050   20.4690 C   0  0  0  0  0  0  0  0  0  0  0  0
    4.6630    1.0610   19.4510 C   0  0  0  0  0  0  0  0  0  0  0  0
    5.1960    1.1090   18.1810 C   0  0  0  0  0  0  0  0  0  0  0  0
    6.3700    0.4570   17.8540 N   0  0  0  0  0  0  0  0  0  0  0  0
    6.9960   -0.2400   18.8240 C   0  0  0  0  0  0  0  0  0  0  0  0
  1  2  2  0
  2  3  1  0
  3  4  1  0
  4  5  2  0
  5  6  1  0
  6  7  2  0
  7  8  1  0
  8  9  1  0
  9 10  1  0
 10 11  1  0
  8 12  1  0
 11 12  1  0
  7 13  1  0
  4 14  1  0
 13 14  2  0
  2 15  1  0
 15 16  1  0
 16 17  2  0
 17 18  1  0
 18 19  2  0
 19 20  1  0
 16 21  1  0
 20 21  2  0
M  END
