pyridine_urea_8631
     RDKit          3D

 21 22  0  0  0  0  0  0  0  0999 V2000
   11.8760    3.5500   22.6590 C   0  0  0  0  0  0  0  0  0  0  0  0
   11.6460    2.2080   22.8660 N   0  0  0  0  0  0  0  0  0  0  0  0
   10.4320    1.4920   22.8270 C   0  0  0  0  0  0  0  0  0  0  0  0
   10.6440    0.1720   23.0810 C   0  0  0  0  0  0  0  0  0  0  0  0
    9.7970   -0.9440   23.1480 C   0  0  0  0  0  0  0  0  0  0  0  0
    8.6900   -0.7530   22.2180 N   0  0  0  0  0  0  0  0  0  0  0  0
    8.6540    0.4190   21.5270 C   0  0  0  0  0  0  0  0  0  0  0  0
    8.3180    1.3300   20.7820 O   0  0  0  0  0  0  0  0  0  0  0  0
    7.5070   -0.2540   21.1300 N   0  0  0  0  0  0  0  0  0  0  0  0
    6.6870    0.2230   20.0980 C   0  0  0  0  0  0  0  0  0  0  0  0
    5.5360    0.9530   20.4330 C   0  0  0  0  0  0  0  0  0  0  0  0
    4.6750    1.4880   19.2860 C   0  0  0  0  0  0  0  0  0  0  0  0
    5.1350    1.1860   18.0280 C   0  0  0  0  0  0  0  0  0  0  0  0
    6.2210    0.4830   17.7170 N   0  0  0  0  0  0  0  0  0  0  0  0
    6.9640    0.0200   18.7530 C   0  0  0  0  0  0  0  0  0  0  0  0
   12.1150    0.1060   23.2940 C   0  0  0  0  0  0  0  0  0  0  0  0
   12.6960   -1.1270   23.5760 C   0  0  0  0  0  0  0  0  0  0  0  0
   13.3400   -1.2050   24.7610 F   0  0  0  0  0  0  0  0  0  0  0  0
   11.7940   -2.1440   23.6310 F   0  0  0  0  0  0  0  0  0  0  0  0
   13.5730   -1.5300   22.6210 F   0  0  0  0  0  0  0  0  0  0  0  0
   12.6880    1.3470   23.1570 N   0  0  0  0  0  0  0  0  0  0  0  0
  1  2  1  0
  2  3  1  0
  3  4  2  0
  4  5  1  0
  5  6  1  0
  6  7  1  0
  7  8  2  0
  7  9  1  0
  9 10  1  0
 10 11  2  0
 11 12  1  0
 12 13  2  0
 13 14  1  0
 10 15  1  0
 14 15  2  0
  4 16  1  0
 16 17  1  0
 17 18  1  0
 17 19  1  0
 17 20  1  0
  2 21  1  0
 16 21  2  0
M  END
