pyridine_urea_2836
     RDKit          3D

 22 23  0  0  0  0  0  0  0  0999 V2000
   13.5620   -2.8080   25.2310 C   0  0  0  0  0  0  0  0  0  0  0  0
   13.2800   -1.5120   25.7330 O   0  0  0  0  0  0  0  0  0  0  0  0
   12.1590   -0.9890   25.0370 C   0  0  0  0  0  0  0  0  0  0  0  0
   10.7490   -0.4730   25.7130 C   0  0  0  0  0  0  0  0  0  0  0  0
    9.6250    0.0420   24.9990 C   0  0  0  0  0  0  0  0  0  0  0  0
    9.6920    0.1080   23.4800 C   0  0  0  0  0  0  0  0  0  0  0  0
   10.3680   -0.1110   22.3250 C   0  0  1  0  0  0  0  0  0  0  0  0
   11.5730   -1.0770   22.3420 C   0  0  0  0  0  0  0  0  0  0  0  0
   12.9010   -0.3280   22.5510 C   0  0  0  0  0  0  0  0  0  0  0  0
   12.6500    1.0810   22.6990 O   0  0  0  0  0  0  0  0  0  0  0  0
    9.3590   -0.7630   21.5130 N   0  0  0  0  0  0  0  0  0  0  0  0
    8.3770    0.1100   21.2120 C   0  0  0  0  0  0  0  0  0  0  0  0
    8.6110    1.3180   21.1150 O   0  0  0  0  0  0  0  0  0  0  0  0
    7.1380   -0.4890   20.9790 N   0  0  0  0  0  0  0  0  0  0  0  0
    6.4460    0.0980   19.9780 C   0  0  0  0  0  0  0  0  0  0  0  0
    5.1420    0.8390   20.2650 C   0  0  0  0  0  0  0  0  0  0  0  0
    4.4690    1.5050   19.0690 C   0  0  0  0  0  0  0  0  0  0  0  0
    5.0770    1.3950   17.8310 C   0  0  0  0  0  0  0  0  0  0  0  0
    6.2330    0.7040   17.6610 N   0  0  0  0  0  0  0  0  0  0  0  0
    6.9010    0.0720   18.6890 C   0  0  0  0  0  0  0  0  0  0  0  0
   10.7340   -0.3390   24.1070 C   0  0  0  0  0  0  0  0  0  0  0  0
   11.9230   -0.7830   23.7760 C   0  0  0  0  0  0  0  0  0  0  0  0
  1  2  1  0
  2  3  1  0
  3  4  2  0
  4  5  1  0
  5  6  2  0
  6  7  1  0
  7  8  1  1
  8  9  1  0
  9 10  1  0
  7 11  1  0
 11 12  1  0
 12 13  2  0
 12 14  1  0
 14 15  1  0
 15 16  2  0
 16 17  1  0
 17 18  2  0
 18 19  1  0
 15 20  1  0
 19 20  2  0
  6 21  1  0
  3 22  1  0
 21 22  2  0
M  END
