pyridine_urea_7758
     RDKit          3D

 27 29  0  0  0  0  0  0  0  0999 V2000
    8.7310    0.6000   21.2330 O   0  0  0  0  0  0  0  0  0  0  0  0
    8.1460   -0.4710   21.2940 C   0  0  0  0  0  0  0  0  0  0  0  0
    8.6320   -1.6890   21.6550 N   0  0  0  0  0  0  0  0  0  0  0  0
    8.5160   -2.2610   22.9240 C   0  0  0  0  0  0  0  0  0  0  0  0
    8.8060   -1.3640   23.9050 C   0  0  0  0  0  0  0  0  0  0  0  0
    9.5410   -1.7530   22.7680 C   0  0  0  0  0  0  0  0  0  0  0  0
   10.6210   -1.2300   22.5720 C   0  0  0  0  0  0  0  0  0  0  0  0
   11.3640   -0.4280   23.0280 C   0  0  0  0  0  0  0  0  0  0  0  0
   12.5400   -0.2240   22.3640 N   0  0  0  0  0  0  0  0  0  0  0  0
   13.0120   -1.3990   21.8340 C   0  0  0  0  0  0  0  0  0  0  0  0
   13.1690   -2.5450   22.8200 C   0  0  0  0  0  0  0  0  0  0  0  0
   13.6960   -2.0260   24.0430 O   0  0  0  0  0  0  0  0  0  0  0  0
   13.0200   -0.8140   24.3810 C   0  0  0  0  0  0  0  0  0  0  0  0
   13.2660    0.1860   23.3950 C   0  0  0  0  0  0  0  0  0  0  0  0
   10.8150    0.0750   24.1640 C   0  0  0  0  0  0  0  0  0  0  0  0
    9.5010   -0.3070   24.7550 C   0  0  0  0  0  0  0  0  0  0  0  0
    8.7890    0.1020   25.9230 C   0  0  0  0  0  0  0  0  0  0  0  0
    7.9470   -0.8710   26.3510 F   0  0  0  0  0  0  0  0  0  0  0  0
    9.5380    0.3870   27.0050 F   0  0  0  0  0  0  0  0  0  0  0  0
    7.9110    1.1120   25.7110 F   0  0  0  0  0  0  0  0  0  0  0  0
    6.8290   -0.6060   20.9910 N   0  0  0  0  0  0  0  0  0  0  0  0
    6.1980    0.1010   19.9860 C   0  0  0  0  0  0  0  0  0  0  0  0
    5.0140    0.8150   20.1290 C   0  0  0  0  0  0  0  0  0  0  0  0
    4.5000    1.4920   19.0340 C   0  0  0  0  0  0  0  0  0  0  0  0
    5.1890    1.4290   17.8370 C   0  0  0  0  0  0  0  0  0  0  0  0
    6.3300    0.7410   17.6750 N   0  0  0  0  0  0  0  0  0  0  0  0
    6.8050    0.0950   18.7490 C   0  0  0  0  0  0  0  0  0  0  0  0
  1  2  2  0
  2  3  1  0
  3  4  1  0
  4  5  1  0
  5  6  2  0
  6  7  1  0
  7  8  2  0
  8  9  1  0
  9 10  1  0
 10 11  1  0
 11 12  1  0
 12 13  1  0
  9 14  1  0
 13 14  1  0
  8 15  1  0
  5 16  1  0
 15 16  2  0
 16 17  1  0
 17 18  1  0
 17 19  1  0
 17 20  1  0
  2 21  1  0
 21 22  1  0
 22 23  2  0
 23 24  1  0
 24 25  2  0
 25 26  1  0
 22 27  1  0
 26 27  2  0
M  END
