pyridine_urea_12409
     RDKit          3D

 22 24  0  0  0  0  0  0  0  0999 V2000
    8.6990    0.8010   21.3060 O   0  0  0  0  0  0  0  0  0  0  0  0
    8.1580   -0.2960   21.3660 C   0  0  0  0  0  0  0  0  0  0  0  0
    8.8060   -1.4270   21.7370 N   0  0  0  0  0  0  0  0  0  0  0  0
   10.0780   -1.1940   22.3290 C   0  0  0  0  0  0  0  0  0  0  0  0
   10.0710    0.0710   23.2540 C   0  0  0  0  0  0  0  0  0  0  0  0
   10.9030    1.1120   22.8860 C   0  0  0  0  0  0  0  0  0  0  0  0
   12.3170    1.6280   22.6600 C   0  0  0  0  0  0  0  0  0  0  0  0
   13.3790    0.7130   22.9040 C   0  0  0  0  0  0  0  0  0  0  0  0
   13.0220   -0.7250   23.3980 C   0  0  0  0  0  0  0  0  0  0  0  0
   13.8290   -1.7290   23.7080 N   0  0  0  0  0  0  0  0  0  0  0  0
   12.8110   -2.6580   24.0760 C   0  0  0  0  0  0  0  0  0  0  0  0
   11.2100   -2.5180   24.0830 C   0  0  0  0  0  0  0  0  0  0  0  0
   10.4480   -1.1990   23.6510 C   0  0  0  0  0  0  0  0  0  0  0  0
   11.8650   -1.1430   23.5800 C   0  0  0  0  0  0  0  0  0  0  0  0
   11.9140    0.2610   23.1180 C   0  0  0  0  0  0  0  0  0  0  0  0
    6.8620   -0.5540   21.0610 N   0  0  0  0  0  0  0  0  0  0  0  0
    6.2720    0.0920   19.9910 C   0  0  0  0  0  0  0  0  0  0  0  0
    5.0790    0.7860   20.1650 C   0  0  0  0  0  0  0  0  0  0  0  0
    4.5310    1.4350   19.0810 C   0  0  0  0  0  0  0  0  0  0  0  0
    5.1510    1.3920   17.8600 C   0  0  0  0  0  0  0  0  0  0  0  0
    6.2970    0.7240   17.6580 N   0  0  0  0  0  0  0  0  0  0  0  0
    6.8260    0.0920   18.7240 C   0  0  0  0  0  0  0  0  0  0  0  0
  1  2  2  0
  2  3  1  0
  3  4  1  0
  4  5  1  0
  5  6  1  0
  6  7  2  0
  7  8  1  0
  8  9  2  0
  9 10  1  0
 10 11  2  0
 11 12  1  0
 12 13  2  0
  9 14  1  0
 13 14  1  0
  6 15  1  0
 14 15  2  0
  2 16  1  0
 16 17  1  0
 17 18  2  0
 18 19  1  0
 19 20  2  0
 20 21  1  0
 17 22  1  0
 21 22  2  0
M  END
