pyridine_urea_5304
     RDKit          3D

 19 20  0  0  0  0  0  0  0  0999 V2000
    9.1630    0.0420   26.4180 C   0  0  0  0  0  0  0  0  0  0  0  0
   10.5430   -0.2330   26.1610 O   0  0  0  0  0  0  0  0  0  0  0  0
   10.9320   -0.4910   24.8830 C   0  0  0  0  0  0  0  0  0  0  0  0
   12.2500   -0.5150   24.3640 C   0  0  0  0  0  0  0  0  0  0  0  0
   12.5140   -0.8350   23.0270 C   0  0  0  0  0  0  0  0  0  0  0  0
   13.7480   -0.8580   22.5680 F   0  0  0  0  0  0  0  0  0  0  0  0
   11.4940   -1.1380   22.1800 C   0  0  0  0  0  0  0  0  0  0  0  0
   10.0960   -1.0950   22.6970 C   0  0  0  0  0  0  0  0  0  0  0  0
    9.0250   -1.3880   21.8090 N   0  0  0  0  0  0  0  0  0  0  0  0
    8.3150   -0.3000   21.3910 C   0  0  0  0  0  0  0  0  0  0  0  0
    8.8150    0.8110   21.2930 O   0  0  0  0  0  0  0  0  0  0  0  0
    6.9500   -0.6330   21.0860 N   0  0  0  0  0  0  0  0  0  0  0  0
    6.3670    0.0130   20.0300 C   0  0  0  0  0  0  0  0  0  0  0  0
    5.1780    0.7140   20.2410 C   0  0  0  0  0  0  0  0  0  0  0  0
    4.5900    1.3820   19.1800 C   0  0  0  0  0  0  0  0  0  0  0  0
    5.2100    1.3280   17.9410 C   0  0  0  0  0  0  0  0  0  0  0  0
    6.3450    0.6590   17.7190 N   0  0  0  0  0  0  0  0  0  0  0  0
    6.9000    0.0140   18.7600 C   0  0  0  0  0  0  0  0  0  0  0  0
    9.8170   -0.7560   24.1080 C   0  0  0  0  0  0  0  0  0  0  0  0
  1  2  1  0
  2  3  1  0
  3  4  2  0
  4  5  1  0
  5  6  1  0
  5  7  2  0
  7  8  1  0
  8  9  1  0
  9 10  1  0
 10 11  2  0
 10 12  1  0
 12 13  1  0
 13 14  2  0
 14 15  1  0
 15 16  2  0
 16 17  1  0
 13 18  1  0
 17 18  2  0
  3 19  1  0
  8 19  2  0
M  END
