pyridine_urea_13602
     RDKit          3D

 26 27  0  0  0  0  0  0  0  0999 V2000
    6.6840   -2.0340   25.3120 C   0  0  0  0  0  0  0  0  0  0  0  0
    7.7520   -2.3480   24.2400 C   0  0  0  0  0  0  0  0  0  0  0  0
    8.9410   -1.5560   24.4340 O   0  0  0  0  0  0  0  0  0  0  0  0
    9.1080   -0.5190   23.5770 C   0  0  0  0  0  0  0  0  0  0  0  0
    8.6430    0.6020   23.7730 O   0  0  0  0  0  0  0  0  0  0  0  0
    9.9100   -0.9270   22.3960 C   0  0  1  0  0  0  0  0  0  0  0  0
   11.1830   -1.6050   22.6990 C   0  0  0  0  0  0  0  0  0  0  0  0
   12.0830   -0.5970   22.7410 C   0  0  0  0  0  0  0  0  0  0  0  0
   13.3590   -0.4450   22.6970 C   0  0  0  0  0  0  0  0  0  0  0  0
   13.5070    1.0150   22.7580 C   0  0  0  0  0  0  0  0  0  0  0  0
   12.3460    1.9290   22.8580 C   0  0  0  0  0  0  0  0  0  0  0  0
   12.3630    3.3390   22.8880 C   0  0  0  0  0  0  0  0  0  0  0  0
   13.5680    3.9470   22.8500 F   0  0  0  0  0  0  0  0  0  0  0  0
   11.6960    3.8770   21.8360 F   0  0  0  0  0  0  0  0  0  0  0  0
   10.8760    1.4900   22.9270 C   0  0  0  0  0  0  0  0  0  0  0  0
   11.9640    0.7100   22.8320 C   0  0  0  0  0  0  0  0  0  0  0  0
    8.9800   -1.4970   21.5040 N   0  0  0  0  0  0  0  0  0  0  0  0
    8.1340   -0.5170   21.1210 C   0  0  0  0  0  0  0  0  0  0  0  0
    8.5100    0.8560   21.0610 O   0  0  0  0  0  0  0  0  0  0  0  0
    6.8060   -0.9790   20.7860 N   0  0  0  0  0  0  0  0  0  0  0  0
    6.2230   -0.1860   19.8460 C   0  0  0  0  0  0  0  0  0  0  0  0
    5.0110    0.4470   20.1050 C   0  0  0  0  0  0  0  0  0  0  0  0
    4.4480    1.2640   19.1290 C   0  0  0  0  0  0  0  0  0  0  0  0
    5.1220    1.4180   17.9330 C   0  0  0  0  0  0  0  0  0  0  0  0
    6.2920    0.8140   17.6670 N   0  0  0  0  0  0  0  0  0  0  0  0
    6.8030    0.0310   18.6290 C   0  0  0  0  0  0  0  0  0  0  0  0
  1  2  1  0
  2  3  1  0
  3  4  1  0
  4  5  2  0
  4  6  1  0
  6  7  1  1
  7  8  1  0
  8  9  2  0
  9 10  1  0
 10 11  2  0
 11 12  1  0
 12 13  1  0
 12 14  1  0
 11 15  1  0
  8 16  1  0
 15 16  2  0
  6 17  1  0
 17 18  1  0
 18 19  2  0
 18 20  1  0
 20 21  1  0
 21 22  2  0
 22 23  1  0
 23 24  2  0
 24 25  1  0
 21 26  1  0
 25 26  2  0
M  END
