pyridine_urea_12873
     RDKit          3D

 21 22  0  0  0  0  0  0  0  0999 V2000
   12.4220    1.9640   23.0880 C   0  0  0  0  0  0  0  0  0  0  0  0
   11.9290    0.6320   23.6860 C   0  0  1  0  0  0  0  0  0  0  0  0
   12.5000    0.3760   24.9420 O   0  0  0  0  0  0  0  0  0  0  0  0
   10.3860    0.6830   23.6490 C   0  0  0  0  0  0  0  0  0  0  0  0
    9.6790   -0.5110   23.6430 C   0  0  0  0  0  0  0  0  0  0  0  0
    8.9440   -0.9370   22.4560 N   0  0  0  0  0  0  0  0  0  0  0  0
    8.3730   -0.0600   21.5610 C   0  0  0  0  0  0  0  0  0  0  0  0
    8.8490    1.0360   21.3140 O   0  0  0  0  0  0  0  0  0  0  0  0
    7.2200   -0.5800   21.0170 N   0  0  0  0  0  0  0  0  0  0  0  0
    6.4580    0.0750   20.0440 C   0  0  0  0  0  0  0  0  0  0  0  0
    5.2780    0.7780   20.2710 C   0  0  0  0  0  0  0  0  0  0  0  0
    4.6250    1.4020   19.2070 C   0  0  0  0  0  0  0  0  0  0  0  0
    5.1810    1.3000   17.9520 C   0  0  0  0  0  0  0  0  0  0  0  0
    6.3120    0.6250   17.7060 N   0  0  0  0  0  0  0  0  0  0  0  0
    6.9160    0.0320   18.7460 C   0  0  0  0  0  0  0  0  0  0  0  0
   12.5220   -0.4710   22.8100 C   0  0  0  0  0  0  0  0  0  0  0  0
   13.3000   -1.4320   23.6410 C   0  0  0  0  0  0  0  0  0  0  0  0
   12.7190   -2.3840   24.4370 C   0  0  0  0  0  0  0  0  0  0  0  0
   11.3690   -2.6080   24.0640 C   0  0  0  0  0  0  0  0  0  0  0  0
   11.1540   -2.4140   22.7110 C   0  0  0  0  0  0  0  0  0  0  0  0
   11.6900   -1.2090   22.0470 C   0  0  0  0  0  0  0  0  0  0  0  0
  2  1  1  6
  2  3  1  0
  2  4  1  0
  4  5  1  0
  5  6  1  0
  6  7  1  0
  7  8  2  0
  7  9  1  0
  9 10  1  0
 10 11  2  0
 11 12  1  0
 12 13  2  0
 13 14  1  0
 10 15  1  0
 14 15  2  0
  2 16  1  0
 16 17  1  0
 17 18  1  0
 18 19  1  0
 19 20  1  0
 16 21  1  0
 20 21  1  0
M  END
