pyridine_urea_1753
     RDKit          3D

 17 17  0  0  0  0  0  0  0  0999 V2000
   12.7960    0.5900   23.0800 C   0  0  0  0  0  0  0  0  0  0  0  0
   12.7520   -0.8900   22.8260 C   0  0  0  0  0  0  0  0  0  0  0  0
   13.1410   -1.4950   21.6370 C   0  0  0  0  0  0  0  0  0  0  0  0
   11.3140   -1.3930   23.0360 C   0  0  0  0  0  0  0  0  0  0  0  0
   10.7940   -2.0110   21.9160 C   0  0  0  0  0  0  0  0  0  0  0  0
   11.2900   -2.0930   24.2510 C   0  0  0  0  0  0  0  0  0  0  0  0
   10.3560   -0.2180   23.1240 C   0  0  0  0  0  0  0  0  0  0  0  0
    9.0180   -0.5200   22.6600 N   0  0  0  0  0  0  0  0  0  0  0  0
    8.5160    0.2140   21.6170 C   0  0  0  0  0  0  0  0  0  0  0  0
    9.0260    1.2780   21.2480 O   0  0  0  0  0  0  0  0  0  0  0  0
    7.3330   -0.4030   21.0480 N   0  0  0  0  0  0  0  0  0  0  0  0
    6.6040    0.1290   20.0410 C   0  0  0  0  0  0  0  0  0  0  0  0
    5.4460    0.8460   20.3440 C   0  0  0  0  0  0  0  0  0  0  0  0
    4.7070    1.4140   19.3120 C   0  0  0  0  0  0  0  0  0  0  0  0
    5.1460    1.2500   18.0130 C   0  0  0  0  0  0  0  0  0  0  0  0
    6.2460    0.5610   17.7020 N   0  0  0  0  0  0  0  0  0  0  0  0
    6.9470    0.0160   18.7120 C   0  0  0  0  0  0  0  0  0  0  0  0
  1  2  1  0
  2  3  1  0
  2  4  1  0
  4  5  1  0
  4  6  1  0
  4  7  1  0
  7  8  1  0
  8  9  1  0
  9 10  2  0
  9 11  1  0
 11 12  1  0
 12 13  2  0
 13 14  1  0
 14 15  2  0
 15 16  1  0
 12 17  1  0
 16 17  2  0
M  END
