pyridine_urea_11430
     RDKit          3D

 22 24  0  0  0  0  0  0  0  0999 V2000
    8.9280    1.1460   21.2580 O   0  0  0  0  0  0  0  0  0  0  0  0
    8.2540    0.1790   21.6530 C   0  0  0  0  0  0  0  0  0  0  0  0
    8.3460   -0.3700   22.9170 N   0  0  0  0  0  0  0  0  0  0  0  0
    9.6090   -0.5420   23.5920 C   0  0  0  0  0  0  0  0  0  0  0  0
   10.1030    0.6960   24.3370 C   0  0  0  0  0  0  0  0  0  0  0  0
   11.5110    0.8940   23.9600 C   0  0  2  0  0  0  0  0  0  0  0  0
   11.9000    1.8890   23.3110 C   0  0  0  0  0  0  0  0  0  0  0  0
   12.0110    0.6120   22.5420 C   0  0  1  0  0  0  0  0  0  0  0  0
   13.1590   -0.2600   22.3920 C   0  0  0  0  0  0  0  0  0  0  0  0
   12.7800   -1.2850   23.1040 C   0  0  0  0  0  0  0  0  0  0  0  0
   11.4750   -1.6380   22.4580 C   0  0  0  0  0  0  0  0  0  0  0  0
   10.7830   -2.7020   23.0260 C   0  0  0  0  0  0  0  0  0  0  0  0
   11.2420   -3.4270   24.1270 C   0  0  0  0  0  0  0  0  0  0  0  0
   12.4570   -3.0960   24.6980 C   0  0  0  0  0  0  0  0  0  0  0  0
   13.2710   -1.9850   24.1810 C   0  0  0  0  0  0  0  0  0  0  0  0
    7.2920   -0.4930   20.9460 N   0  0  0  0  0  0  0  0  0  0  0  0
    6.5010    0.1340   19.9950 C   0  0  0  0  0  0  0  0  0  0  0  0
    5.2330    0.8860   20.2600 C   0  0  0  0  0  0  0  0  0  0  0  0
    4.5870    1.4730   19.1750 C   0  0  0  0  0  0  0  0  0  0  0  0
    5.1450    1.3330   17.9110 C   0  0  0  0  0  0  0  0  0  0  0  0
    6.2750    0.6510   17.6580 N   0  0  0  0  0  0  0  0  0  0  0  0
    6.9140    0.0770   18.6890 C   0  0  0  0  0  0  0  0  0  0  0  0
  1  2  2  0
  2  3  1  0
  3  4  1  0
  4  5  1  0
  6  5  1  6
  6  7  1  0
  6  8  1  0
  7  8  1  0
  8  9  1  1
  9 10  1  0
 10 11  2  0
 11 12  1  0
 12 13  2  0
 13 14  1  0
 10 15  1  0
 14 15  2  0
  2 16  1  0
 16 17  1  0
 17 18  2  0
 18 19  1  0
 19 20  2  0
 20 21  1  0
 17 22  1  0
 21 22  2  0
M  END
