pyridine_urea_9719
     RDKit          3D

 28 31  0  0  0  0  0  0  0  0999 V2000
    8.9140   -0.8570   20.7930 O   0  0  0  0  0  0  0  0  0  0  0  0
    7.8990   -0.6500   21.3810 C   0  0  0  0  0  0  0  0  0  0  0  0
    6.6640   -0.9960   20.9500 N   0  0  0  0  0  0  0  0  0  0  0  0
    6.1630   -0.1660   19.9120 C   0  0  0  0  0  0  0  0  0  0  0  0
    4.9090    0.6360   20.2210 C   0  0  0  0  0  0  0  0  0  0  0  0
    4.3710    1.5320   19.1160 C   0  0  0  0  0  0  0  0  0  0  0  0
    5.1680    1.5160   17.8150 C   0  0  0  0  0  0  0  0  0  0  0  0
    6.3100    0.7110   17.6910 N   0  0  0  0  0  0  0  0  0  0  0  0
    6.7820   -0.0880   18.6910 C   0  0  0  0  0  0  0  0  0  0  0  0
    7.8830   -0.0240   22.5620 N   0  0  0  0  0  0  0  0  0  0  0  0
    9.1490    0.2490   23.0130 C   0  0  0  0  0  0  0  0  0  0  0  0
   10.0230    1.0710   22.3460 C   0  0  0  0  0  0  0  0  0  0  0  0
   11.3000    1.3670   22.7550 C   0  0  0  0  0  0  0  0  0  0  0  0
   11.6840    0.7950   23.8750 C   0  0  0  0  0  0  0  0  0  0  0  0
   12.8500    0.9740   24.3110 O   0  0  0  0  0  0  0  0  0  0  0  0
   13.0770   -0.3580   24.3350 C   0  0  0  0  0  0  0  0  0  0  0  0
   13.1010   -0.9140   25.5290 C   0  0  0  0  0  0  0  0  0  0  0  0
   13.3160   -2.3710   25.5530 C   0  0  0  0  0  0  0  0  0  0  0  0
   13.4420   -3.0740   24.5110 N   0  0  0  0  0  0  0  0  0  0  0  0
   13.3900   -2.3240   23.4230 C   0  0  0  0  0  0  0  0  0  0  0  0
   13.5210   -2.9940   22.2660 C   0  0  0  0  0  0  0  0  0  0  0  0
   13.5260   -2.5370   21.0340 C   0  0  0  0  0  0  0  0  0  0  0  0
   13.4350   -1.2850   20.9080 C   0  0  0  0  0  0  0  0  0  0  0  0
   13.2590   -0.4690   22.0270 C   0  0  0  0  0  0  0  0  0  0  0  0
   13.2370   -1.0250   23.2440 C   0  0  0  0  0  0  0  0  0  0  0  0
   10.8240   -0.0330   24.5670 C   0  0  0  0  0  0  0  0  0  0  0  0
   11.1520   -0.6350   25.6840 F   0  0  0  0  0  0  0  0  0  0  0  0
    9.5840   -0.3040   24.1550 C   0  0  0  0  0  0  0  0  0  0  0  0
  1  2  2  0
  2  3  1  0
  3  4  1  0
  4  5  2  0
  5  6  1  0
  6  7  2  0
  7  8  1  0
  4  9  1  0
  8  9  2  0
  2 10  1  0
 10 11  1  0
 11 12  2  0
 12 13  1  0
 13 14  2  0
 14 15  1  0
 15 16  1  0
 16 17  2  0
 17 18  1  0
 18 19  2  0
 19 20  1  0
 20 21  1  0
 21 22  2  0
 22 23  1  0
 23 24  2  0
 16 25  1  0
 20 25  2  0
 24 25  1  0
 14 26  1  0
 26 27  1  0
 11 28  1  0
 26 28  2  0
M  END
