pyridine_urea_770
     RDKit          3D

 23 24  0  0  0  0  0  0  0  0999 V2000
   13.5830   -0.0080   22.6360 C   0  0  0  0  0  0  0  0  0  0  0  0
   13.2060   -0.5820   23.9020 N   0  0  0  0  0  0  0  0  0  0  0  0
   11.9590   -0.6890   23.6500 C   0  0  0  0  0  0  0  0  0  0  0  0
   11.7910   -1.2090   22.4260 C   0  0  0  0  0  0  0  0  0  0  0  0
   10.5400   -1.3930   22.0700 C   0  0  0  0  0  0  0  0  0  0  0  0
    9.5350   -1.0460   22.9430 C   0  0  0  0  0  0  0  0  0  0  0  0
    9.6000   -0.4390   24.3550 C   0  0  0  0  0  0  0  0  0  0  0  0
    8.2580   -0.7090   23.7800 C   0  0  0  0  0  0  0  0  0  0  0  0
    7.8920    0.4580   23.0380 N   0  0  0  0  0  0  0  0  0  0  0  0
    8.1440    0.5520   21.6920 C   0  0  0  0  0  0  0  0  0  0  0  0
    8.9570    1.3070   21.1570 O   0  0  0  0  0  0  0  0  0  0  0  0
    7.3260   -0.2830   20.9920 N   0  0  0  0  0  0  0  0  0  0  0  0
    6.5750    0.2260   19.9530 C   0  0  0  0  0  0  0  0  0  0  0  0
    5.4000    0.9200   20.2510 C   0  0  0  0  0  0  0  0  0  0  0  0
    4.6540    1.4650   19.2160 C   0  0  0  0  0  0  0  0  0  0  0  0
    5.1130    1.2940   17.9310 C   0  0  0  0  0  0  0  0  0  0  0  0
    6.2280    0.6220   17.6290 N   0  0  0  0  0  0  0  0  0  0  0  0
    6.9310    0.1030   18.6420 C   0  0  0  0  0  0  0  0  0  0  0  0
   10.9850   -0.3430   24.5140 C   0  0  0  0  0  0  0  0  0  0  0  0
   13.4820   -2.1970   24.3230 S   0  0  0  0  0  0  0  0  0  0  0  0
   11.8230   -2.8210   24.4480 C   0  0  0  0  0  0  0  0  0  0  0  0
   14.0740   -2.3140   25.6350 O   0  0  0  0  0  0  0  0  0  0  0  0
   14.0050   -2.8780   23.1790 O   0  0  0  0  0  0  0  0  0  0  0  0
  1  2  1  0
  2  3  1  0
  3  4  2  0
  4  5  1  0
  5  6  2  0
  6  7  1  0
  7  8  1  0
  8  9  1  0
  9 10  1  0
 10 11  2  0
 10 12  1  0
 12 13  1  0
 13 14  2  0
 14 15  1  0
 15 16  2  0
 16 17  1  0
 13 18  1  0
 17 18  2  0
  3 19  1  0
  7 19  2  0
 20  2  1  0
 20 21  1  0
 20 22  2  0
 20 23  2  0
M  END
