pyridine_urea_10429
     RDKit          3D

 22 23  0  0  0  0  0  0  0  0999 V2000
    9.8690   -0.0190   23.5210 C   0  0  0  0  0  0  0  0  0  0  0  0
   10.3490   -0.5350   22.1560 C   0  0  2  0  0  0  0  0  0  0  0  0
    9.2560   -1.1960   21.5060 N   0  0  0  0  0  0  0  0  0  0  0  0
    8.2810   -0.2740   21.2940 C   0  0  0  0  0  0  0  0  0  0  0  0
    8.5310    0.9210   21.3830 O   0  0  0  0  0  0  0  0  0  0  0  0
    7.0690   -0.7780   20.9460 N   0  0  0  0  0  0  0  0  0  0  0  0
    6.4240   -0.0790   19.9380 C   0  0  0  0  0  0  0  0  0  0  0  0
    5.1490    0.6580   20.1840 C   0  0  0  0  0  0  0  0  0  0  0  0
    4.5340    1.3740   19.1680 C   0  0  0  0  0  0  0  0  0  0  0  0
    5.0890    1.4330   17.8820 C   0  0  0  0  0  0  0  0  0  0  0  0
    6.3180    0.6970   17.6840 N   0  0  0  0  0  0  0  0  0  0  0  0
    6.9150   -0.0040   18.6770 C   0  0  0  0  0  0  0  0  0  0  0  0
   11.7630   -1.2220   22.0740 C   0  0  0  0  0  0  0  0  0  0  0  0
   12.5880   -1.7350   21.2970 C   0  0  0  0  0  0  0  0  0  0  0  0
   12.8160   -1.6240   22.6280 C   0  0  0  0  0  0  0  0  0  0  0  0
   11.9300   -1.0630   23.7490 C   0  0  0  0  0  0  0  0  0  0  0  0
   11.5170   -0.6760   25.2830 S   0  0  0  0  0  0  0  0  0  0  0  0
   10.9130   -2.2880   25.2600 C   0  0  0  0  0  0  0  0  0  0  0  0
   12.7970   -0.4960   25.9200 O   0  0  0  0  0  0  0  0  0  0  0  0
   10.3540    0.1730   25.3640 O   0  0  0  0  0  0  0  0  0  0  0  0
   13.0950   -1.4830   24.3130 C   0  0  0  0  0  0  0  0  0  0  0  0
   12.9220   -1.6120   22.9740 C   0  0  0  0  0  0  0  0  0  0  0  0
  2  1  1  1
  2  3  1  0
  3  4  1  0
  4  5  2  0
  4  6  1  0
  6  7  1  0
  7  8  2  0
  8  9  1  0
  9 10  2  0
 10 11  1  0
  7 12  1  0
 11 12  2  0
  2 13  1  0
 13 14  2  0
 14 15  1  0
 15 16  2  0
 16 17  1  0
 17 18  1  0
 17 19  2  0
 17 20  2  0
 16 21  1  0
 13 22  1  0
 21 22  2  0
M  END
