pyridine_urea_8526
     RDKit          3D

 22 24  0  0  0  0  0  0  0  0999 V2000
   13.5930   -2.2200   25.2670 C   0  0  0  0  0  0  0  0  0  0  0  0
   13.3640   -0.9530   24.6640 O   0  0  0  0  0  0  0  0  0  0  0  0
   12.5010   -1.1050   23.6600 C   0  0  0  0  0  0  0  0  0  0  0  0
   12.7280   -1.4920   22.3860 C   0  0  0  0  0  0  0  0  0  0  0  0
   11.6400   -1.6130   21.5640 C   0  0  0  0  0  0  0  0  0  0  0  0
   10.3550   -1.3290   22.0210 C   0  0  0  0  0  0  0  0  0  0  0  0
    9.1770   -1.3870   21.3170 N   0  0  0  0  0  0  0  0  0  0  0  0
    8.3610   -0.3020   21.2080 C   0  0  0  0  0  0  0  0  0  0  0  0
    8.7400    0.8580   21.3110 O   0  0  0  0  0  0  0  0  0  0  0  0
    7.0680   -0.6680   20.9440 N   0  0  0  0  0  0  0  0  0  0  0  0
    6.3450    0.0310   19.9950 C   0  0  0  0  0  0  0  0  0  0  0  0
    5.0390    0.7900   20.1860 C   0  0  0  0  0  0  0  0  0  0  0  0
    4.4710    1.4510   19.1060 C   0  0  0  0  0  0  0  0  0  0  0  0
    5.1370    1.3840   17.8920 C   0  0  0  0  0  0  0  0  0  0  0  0
    6.2940    0.7130   17.6910 N   0  0  0  0  0  0  0  0  0  0  0  0
    6.8600    0.0640   18.7220 C   0  0  0  0  0  0  0  0  0  0  0  0
   10.1410   -0.9390   23.2950 C   0  0  0  0  0  0  0  0  0  0  0  0
    8.8910   -0.6580   23.8020 C   0  0  0  0  0  0  0  0  0  0  0  0
    8.8050   -0.2930   25.1010 C   0  0  0  0  0  0  0  0  0  0  0  0
    9.9050   -0.1940   25.9190 C   0  0  0  0  0  0  0  0  0  0  0  0
   11.2330   -0.4510   25.5030 C   0  0  0  0  0  0  0  0  0  0  0  0
   11.2410   -0.8370   24.1000 C   0  0  0  0  0  0  0  0  0  0  0  0
  1  2  1  0
  2  3  1  0
  3  4  2  0
  4  5  1  0
  5  6  2  0
  6  7  1  0
  7  8  1  0
  8  9  2  0
  8 10  1  0
 10 11  1  0
 11 12  2  0
 12 13  1  0
 13 14  2  0
 14 15  1  0
 11 16  1  0
 15 16  2  0
  6 17  1  0
 17 18  1  0
 18 19  2  0
 19 20  1  0
 20 21  2  0
  3 22  1  0
 17 22  2  0
 21 22  1  0
M  END
