pyridine_urea_2711
     RDKit          3D

 23 25  0  0  0  0  0  0  0  0999 V2000
    8.7290    0.5200   21.1680 O   0  0  0  0  0  0  0  0  0  0  0  0
    8.3580   -0.6070   21.4550 C   0  0  0  0  0  0  0  0  0  0  0  0
    9.1800   -1.4380   22.2380 N   0  0  0  0  0  0  0  0  0  0  0  0
   10.3490   -0.6240   22.4820 C   0  0  0  0  0  0  0  0  0  0  0  0
    9.8070    0.7710   22.8140 C   0  0  0  0  0  0  0  0  0  0  0  0
   10.6640    1.7690   23.0280 C   0  0  0  0  0  0  0  0  0  0  0  0
   12.1420    1.5110   22.9490 C   0  0  0  0  0  0  0  0  0  0  0  0
   12.9470    2.5820   23.1300 O   0  0  0  0  0  0  0  0  0  0  0  0
   12.3790    3.8170   22.5650 C   0  0  0  0  0  0  0  0  0  0  0  0
   10.9030    3.8640   22.9960 C   0  0  0  0  0  0  0  0  0  0  0  0
   10.5120    5.0610   23.8430 C   0  0  0  0  0  0  0  0  0  0  0  0
   11.1170    6.1950   23.0370 C   0  0  0  0  0  0  0  0  0  0  0  0
   12.6050    6.2620   23.3400 C   0  0  0  0  0  0  0  0  0  0  0  0
   13.3140    4.9730   22.8790 C   0  0  0  0  0  0  0  0  0  0  0  0
   12.6350    0.2080   22.6790 C   0  0  0  0  0  0  0  0  0  0  0  0
   11.7470   -0.8800   22.4390 C   0  0  0  0  0  0  0  0  0  0  0  0
    7.1470   -1.0770   21.0210 N   0  0  0  0  0  0  0  0  0  0  0  0
    6.4040   -0.2960   20.0950 C   0  0  0  0  0  0  0  0  0  0  0  0
    5.2010    0.3780   20.3460 C   0  0  0  0  0  0  0  0  0  0  0  0
    4.5990    1.1210   19.3340 C   0  0  0  0  0  0  0  0  0  0  0  0
    5.2210    1.1750   18.0830 C   0  0  0  0  0  0  0  0  0  0  0  0
    6.3690    0.5370   17.8140 N   0  0  0  0  0  0  0  0  0  0  0  0
    6.9210   -0.1760   18.8170 C   0  0  0  0  0  0  0  0  0  0  0  0
  1  2  2  0
  2  3  1  0
  3  4  1  0
  4  5  2  0
  5  6  1  0
  6  7  2  0
  7  8  1  0
  8  9  1  0
  9 10  1  0
 10 11  1  0
 11 12  1  0
 12 13  1  0
  9 14  1  0
 13 14  1  0
  7 15  1  0
  4 16  1  0
 15 16  2  0
  2 17  1  0
 17 18  1  0
 18 19  2  0
 19 20  1  0
 20 21  2  0
 21 22  1  0
 18 23  1  0
 22 23  2  0
M  END
