pyridine_urea_13379
     RDKit          3D

 20 21  0  0  0  0  0  0  0  0999 V2000
    9.0880    3.1830   22.2710 C   0  0  0  0  0  0  0  0  0  0  0  0
    9.6520    1.8710   22.2910 O   0  0  0  0  0  0  0  0  0  0  0  0
   10.9680    1.8550   22.6200 C   0  0  0  0  0  0  0  0  0  0  0  0
   11.9630    0.9990   23.0410 N   0  0  0  0  0  0  0  0  0  0  0  0
   11.4660   -0.4100   23.2130 C   0  0  0  0  0  0  0  0  0  0  0  0
   12.6340   -0.9770   23.6930 C   0  0  0  0  0  0  0  0  0  0  0  0
   13.4420   -2.5510   24.3100 Br  0  0  0  0  0  0  0  0  0  0  0  0
   12.6270    0.4000   23.3660 C   0  0  0  0  0  0  0  0  0  0  0  0
   11.1460    0.5460   22.9320 C   0  0  0  0  0  0  0  0  0  0  0  0
   10.1770   -0.4910   22.8860 C   0  0  0  0  0  0  0  0  0  0  0  0
    8.8730   -0.0900   22.7250 N   0  0  0  0  0  0  0  0  0  0  0  0
    8.2650    0.3180   21.5300 C   0  0  0  0  0  0  0  0  0  0  0  0
    8.4990    1.3050   20.8360 O   0  0  0  0  0  0  0  0  0  0  0  0
    7.2700   -0.5120   21.1430 N   0  0  0  0  0  0  0  0  0  0  0  0
    6.5040    0.0700   20.2000 C   0  0  0  0  0  0  0  0  0  0  0  0
    5.3090    0.7820   20.3610 C   0  0  0  0  0  0  0  0  0  0  0  0
    4.6040    1.3690   19.3000 C   0  0  0  0  0  0  0  0  0  0  0  0
    5.1220    1.2360   18.0050 C   0  0  0  0  0  0  0  0  0  0  0  0
    6.2400    0.5780   17.7070 N   0  0  0  0  0  0  0  0  0  0  0  0
    6.9070    0.0190   18.7310 C   0  0  0  0  0  0  0  0  0  0  0  0
  1  2  1  0
  2  3  1  0
  3  4  2  0
  4  5  1  0
  5  6  2  0
  6  7  1  0
  6  8  1  0
  3  9  1  0
  8  9  2  0
  9 10  1  0
 10 11  1  0
 11 12  1  0
 12 13  2  0
 12 14  1  0
 14 15  1  0
 15 16  2  0
 16 17  1  0
 17 18  2  0
 18 19  1  0
 15 20  1  0
 19 20  2  0
M  END
