pyridine_urea_11812
     RDKit          3D

 25 28  0  0  0  0  0  0  0  0999 V2000
    9.0420   -0.7600   20.6880 O   0  0  0  0  0  0  0  0  0  0  0  0
    8.3870   -1.0100   21.5930 C   0  0  0  0  0  0  0  0  0  0  0  0
    9.0510   -1.2640   22.7650 N   0  0  0  0  0  0  0  0  0  0  0  0
   10.0540   -0.2860   22.8700 C   0  0  0  0  0  0  0  0  0  0  0  0
    9.5780    0.9490   22.9790 C   0  0  0  0  0  0  0  0  0  0  0  0
   10.4310    1.9700   23.0310 C   0  0  0  0  0  0  0  0  0  0  0  0
   11.7810    1.8220   22.9850 C   0  0  0  0  0  0  0  0  0  0  0  0
   12.2890    3.0740   23.0370 N   0  0  0  0  0  0  0  0  0  0  0  0
   13.5640    3.4150   22.6760 N   0  0  0  0  0  0  0  0  0  0  0  0
   13.7430    4.7590   22.8210 N   0  0  0  0  0  0  0  0  0  0  0  0
   12.5500    5.3150   23.2980 C   0  0  0  0  0  0  0  0  0  0  0  0
   12.1700    6.6090   23.6180 C   0  0  0  0  0  0  0  0  0  0  0  0
   10.7450    6.8440   24.1250 C   0  0  0  0  0  0  0  0  0  0  0  0
    9.8900    5.7640   24.2450 C   0  0  0  0  0  0  0  0  0  0  0  0
   10.3030    4.4670   23.9130 C   0  0  0  0  0  0  0  0  0  0  0  0
   11.5990    4.2220   23.4450 C   0  0  0  0  0  0  0  0  0  0  0  0
   12.3980    0.5190   22.8890 C   0  0  0  0  0  0  0  0  0  0  0  0
   11.4470   -0.5540   22.8270 C   0  0  0  0  0  0  0  0  0  0  0  0
    7.0130   -0.9430   21.4740 N   0  0  0  0  0  0  0  0  0  0  0  0
    6.4480   -0.2840   20.3830 C   0  0  0  0  0  0  0  0  0  0  0  0
    5.1650    0.5370   20.5470 C   0  0  0  0  0  0  0  0  0  0  0  0
    4.6340    1.1910   19.4300 C   0  0  0  0  0  0  0  0  0  0  0  0
    5.2690    1.0910   18.1960 C   0  0  0  0  0  0  0  0  0  0  0  0
    6.3990    0.3790   18.0080 N   0  0  0  0  0  0  0  0  0  0  0  0
    6.9560   -0.2830   19.0730 C   0  0  0  0  0  0  0  0  0  0  0  0
  1  2  2  0
  2  3  1  0
  3  4  1  0
  4  5  2  0
  5  6  1  0
  6  7  2  0
  7  8  1  0
  8  9  1  0
  9 10  2  0
 10 11  1  0
 11 12  1  0
 12 13  2  0
 13 14  1  0
 14 15  2  0
  8 16  1  0
 11 16  2  0
 15 16  1  0
  7 17  1  0
  4 18  1  0
 17 18  2  0
  2 19  1  0
 19 20  1  0
 20 21  2  0
 21 22  1  0
 22 23  2  0
 23 24  1  0
 20 25  1  0
 24 25  2  0
M  END
