pyridine_urea_8142
     RDKit          3D

 24 26  0  0  0  0  0  0  0  0999 V2000
    8.7070    0.3310   21.1580 O   0  0  0  0  0  0  0  0  0  0  0  0
    8.2870   -0.7880   21.4270 C   0  0  0  0  0  0  0  0  0  0  0  0
    9.0870   -1.6890   22.1420 N   0  0  0  0  0  0  0  0  0  0  0  0
   10.2300   -0.8790   22.4440 C   0  0  0  0  0  0  0  0  0  0  0  0
   11.7460   -1.3150   22.3730 C   0  0  0  0  0  0  0  0  0  0  0  0
   12.7170   -0.3260   22.6560 C   0  0  0  0  0  0  0  0  0  0  0  0
   12.1780    1.0840   22.9970 C   0  0  0  0  0  0  0  0  0  0  0  0
   12.7280    2.2570   23.2710 O   0  0  0  0  0  0  0  0  0  0  0  0
   11.5850    3.1190   22.9930 C   0  0  0  0  0  0  0  0  0  0  0  0
   11.8470    4.5870   23.0100 C   0  0  0  0  0  0  0  0  0  0  0  0
   13.2780    5.0010   23.1020 C   0  0  0  0  0  0  0  0  0  0  0  0
   13.1150    6.4300   22.6770 C   0  0  0  0  0  0  0  0  0  0  0  0
   12.2550    7.1920   23.6860 C   0  0  0  0  0  0  0  0  0  0  0  0
   10.8230    6.7300   23.5380 C   0  0  0  0  0  0  0  0  0  0  0  0
   10.9530    5.2560   23.8760 C   0  0  0  0  0  0  0  0  0  0  0  0
   10.8320    1.2970   23.0390 C   0  0  0  0  0  0  0  0  0  0  0  0
    9.8990    0.3900   22.7890 C   0  0  0  0  0  0  0  0  0  0  0  0
    7.0380   -1.1700   21.0300 N   0  0  0  0  0  0  0  0  0  0  0  0
    6.3620   -0.3270   20.0130 C   0  0  0  0  0  0  0  0  0  0  0  0
    5.1620    0.3090   20.3310 C   0  0  0  0  0  0  0  0  0  0  0  0
    4.6060    1.0940   19.3170 C   0  0  0  0  0  0  0  0  0  0  0  0
    5.1880    1.2450   18.0750 C   0  0  0  0  0  0  0  0  0  0  0  0
    6.3360    0.6400   17.7580 N   0  0  0  0  0  0  0  0  0  0  0  0
    6.8870   -0.1290   18.7340 C   0  0  0  0  0  0  0  0  0  0  0  0
  1  2  2  0
  2  3  1  0
  3  4  1  0
  4  5  2  0
  5  6  1  0
  6  7  2  0
  7  8  1  0
  8  9  1  0
  9 10  1  0
 10 11  1  0
 11 12  1  0
 12 13  1  0
 13 14  1  0
 10 15  1  0
 14 15  1  0
  7 16  1  0
  4 17  1  0
 16 17  2  0
  2 18  1  0
 18 19  1  0
 19 20  2  0
 20 21  1  0
 21 22  2  0
 22 23  1  0
 19 24  1  0
 23 24  2  0
M  END
