pyridine_urea_1451
     RDKit          3D

 20 21  0  0  0  0  0  0  0  0999 V2000
   13.5390   -0.2380   24.6280 N   0  0  0  0  0  0  0  0  0  0  0  0
   13.1640   -0.4030   23.5960 C   0  0  0  0  0  0  0  0  0  0  0  0
   12.6280   -0.6380   22.1230 C   0  0  0  0  0  0  0  0  0  0  0  0
   11.1640   -0.8380   21.7460 C   0  0  0  0  0  0  0  0  0  0  0  0
   10.1920   -0.8250   22.6430 C   0  0  0  0  0  0  0  0  0  0  0  0
    8.9580   -0.9890   22.1280 N   0  0  0  0  0  0  0  0  0  0  0  0
    8.3360   -0.0510   21.3050 C   0  0  0  0  0  0  0  0  0  0  0  0
    8.8790    1.0070   20.9370 O   0  0  0  0  0  0  0  0  0  0  0  0
    7.0770   -0.4530   20.9860 N   0  0  0  0  0  0  0  0  0  0  0  0
    6.4860    0.1230   19.8220 C   0  0  0  0  0  0  0  0  0  0  0  0
    5.2470    0.7170   20.0170 C   0  0  0  0  0  0  0  0  0  0  0  0
    4.5710    1.3240   18.9660 C   0  0  0  0  0  0  0  0  0  0  0  0
    5.0660    1.3790   17.6790 C   0  0  0  0  0  0  0  0  0  0  0  0
    6.3500    0.7550   17.4860 N   0  0  0  0  0  0  0  0  0  0  0  0
    7.0240    0.1450   18.5480 C   0  0  0  0  0  0  0  0  0  0  0  0
   10.5100   -0.6510   23.9260 C   0  0  0  0  0  0  0  0  0  0  0  0
   11.9300   -0.4590   24.3400 C   0  0  0  0  0  0  0  0  0  0  0  0
   12.0750   -0.3380   25.6400 N   0  0  0  0  0  0  0  0  0  0  0  0
   10.9940   -0.2830   26.2440 O   0  0  0  0  0  0  0  0  0  0  0  0
   13.0400   -0.9790   26.0800 O   0  0  0  0  0  0  0  0  0  0  0  0
  1  2  1  0
  2  3  2  0
  3  4  1  0
  4  5  2  0
  5  6  1  0
  6  7  1  0
  7  8  2  0
  7  9  1  0
  9 10  1  0
 10 11  2  0
 11 12  1  0
 12 13  2  0
 13 14  1  0
 10 15  1  0
 14 15  2  0
  5 16  1  0
  2 17  1  0
 16 17  2  0
 17 18  1  0
 18 19  2  0
 18 20  1  0
M  CHG  2  18   1  20  -1
M  END
