pyridine_urea_11386
     RDKit          3D

 20 22  0  0  0  0  0  0  0  0999 V2000
    8.9150    0.6570   21.3370 O   0  0  0  0  0  0  0  0  0  0  0  0
    8.4030   -0.4520   21.3880 C   0  0  0  0  0  0  0  0  0  0  0  0
    9.0700   -1.5970   21.7920 N   0  0  0  0  0  0  0  0  0  0  0  0
   10.1690   -1.5740   22.7540 C   0  0  0  0  0  0  0  0  0  0  0  0
   11.5450   -1.8880   22.1430 C   0  0  0  0  0  0  0  0  0  0  0  0
   12.6410   -1.2900   22.9370 C   0  0  1  0  0  0  0  0  0  0  0  0
   12.6990    0.0390   22.8620 C   0  0  0  0  0  0  0  0  0  0  0  0
   11.5310    0.7640   23.4720 C   0  0  0  0  0  0  0  0  0  0  0  0
   11.5270    2.1940   23.2890 C   0  0  0  0  0  0  0  0  0  0  0  0
   10.2780    2.4190   22.9200 C   0  0  0  0  0  0  0  0  0  0  0  0
   10.0570    0.9130   23.1670 C   0  0  0  0  0  0  0  0  0  0  0  0
   11.8120    0.0170   24.6260 C   0  0  0  0  0  0  0  0  0  0  0  0
   12.1620   -1.3390   24.2710 O   0  0  0  0  0  0  0  0  0  0  0  0
    7.1040   -0.7160   21.0300 N   0  0  0  0  0  0  0  0  0  0  0  0
    6.4590   -0.0540   19.9780 C   0  0  0  0  0  0  0  0  0  0  0  0
    5.2850    0.6320   20.2400 C   0  0  0  0  0  0  0  0  0  0  0  0
    4.3750    1.4550   19.2990 C   0  0  0  0  0  0  0  0  0  0  0  0
    5.1960    1.2570   18.0260 C   0  0  0  0  0  0  0  0  0  0  0  0
    6.3310    0.5920   17.7670 N   0  0  0  0  0  0  0  0  0  0  0  0
    6.9400   -0.0510   18.7290 C   0  0  0  0  0  0  0  0  0  0  0  0
  1  2  2  0
  2  3  1  0
  3  4  1  0
  4  5  1  0
  6  5  1  6
  6  7  1  0
  8  7  1  0
  8  9  1  0
  9 10  1  0
  8 11  1  0
 10 11  1  0
  8 12  1  0
  6 13  1  0
 12 13  1  0
  2 14  1  0
 14 15  1  0
 15 16  2  0
 16 17  1  0
 17 18  2  0
 18 19  1  0
 15 20  1  0
 19 20  2  0
M  END
