pyridine_urea_7947
     RDKit          3D

 25 27  0  0  0  0  0  0  0  0999 V2000
    8.8380    0.8910   21.3510 O   0  0  0  0  0  0  0  0  0  0  0  0
    8.5180   -0.2810   21.4280 C   0  0  0  0  0  0  0  0  0  0  0  0
    9.3210   -1.3210   21.8530 N   0  0  0  0  0  0  0  0  0  0  0  0
   10.0850   -1.3940   23.0430 C   0  0  0  0  0  0  0  0  0  0  0  0
   11.4410   -1.0270   23.0360 C   0  0  0  0  0  0  0  0  0  0  0  0
   12.7020   -0.3390   23.0110 C   0  0  0  0  0  0  0  0  0  0  0  0
   12.8520    1.0100   22.9380 C   0  0  0  0  0  0  0  0  0  0  0  0
   11.7120    1.6740   22.8830 C   0  0  0  0  0  0  0  0  0  0  0  0
   11.3450    3.3640   22.7380 S   0  0  0  0  0  0  0  0  0  0  0  0
   12.5160    3.9950   22.1740 O   0  0  0  0  0  0  0  0  0  0  0  0
   10.0890    3.3930   22.0340 O   0  0  0  0  0  0  0  0  0  0  0  0
   11.0210    4.1480   24.2160 N   0  0  0  0  0  0  0  0  0  0  0  0
    9.6790    4.2360   24.5490 C   0  0  0  0  0  0  0  0  0  0  0  0
    9.1050    5.5150   25.1590 C   0  0  0  0  0  0  0  0  0  0  0  0
   10.0060    6.4860   25.6100 C   0  0  0  0  0  0  0  0  0  0  0  0
   11.3220    6.0410   25.4850 C   0  0  0  0  0  0  0  0  0  0  0  0
   11.5430    5.4310   24.2470 C   0  0  0  0  0  0  0  0  0  0  0  0
   10.5330    0.4840   22.9430 S   0  0  0  0  0  0  0  0  0  0  0  0
    7.2540   -0.6800   21.0470 N   0  0  0  0  0  0  0  0  0  0  0  0
    6.5620   -0.0540   20.0630 C   0  0  0  0  0  0  0  0  0  0  0  0
    5.3980    0.6720   20.3620 C   0  0  0  0  0  0  0  0  0  0  0  0
    4.6820    1.3360   19.3720 C   0  0  0  0  0  0  0  0  0  0  0  0
    5.1710    1.2450   18.0830 C   0  0  0  0  0  0  0  0  0  0  0  0
    6.2710    0.5630   17.7360 N   0  0  0  0  0  0  0  0  0  0  0  0
    6.9430   -0.0740   18.7280 C   0  0  0  0  0  0  0  0  0  0  0  0
  1  2  2  0
  2  3  1  0
  3  4  1  0
  4  5  1  0
  5  6  2  0
  6  7  1  0
  7  8  2  0
  9  8  1  0
  9 10  2  0
  9 11  2  0
  9 12  1  0
 12 13  1  0
 13 14  1  0
 14 15  1  0
 15 16  1  0
 12 17  1  0
 16 17  1  0
  5 18  1  0
  8 18  1  0
  2 19  1  0
 19 20  1  0
 20 21  2  0
 21 22  1  0
 22 23  2  0
 23 24  1  0
 20 25  1  0
 24 25  2  0
M  END
