pyridine_urea_15273
     RDKit          3D

 15 15  0  0  0  0  0  0  0  0999 V2000
   13.0860   -2.9050   24.3790 C   0  0  0  0  0  0  0  0  0  0  0  0
   12.6930   -1.4640   24.6210 C   0  0  0  0  0  0  0  0  0  0  0  0
   12.8170   -0.7730   23.3700 O   0  0  0  0  0  0  0  0  0  0  0  0
   11.6050   -0.6000   22.6290 C   0  0  0  0  0  0  0  0  0  0  0  0
   10.2510   -0.5900   23.3200 C   0  0  0  0  0  0  0  0  0  0  0  0
    9.1880   -0.9260   22.3410 N   0  0  0  0  0  0  0  0  0  0  0  0
    8.5760   -0.0010   21.5060 C   0  0  0  0  0  0  0  0  0  0  0  0
    9.0400    1.1330   21.2960 O   0  0  0  0  0  0  0  0  0  0  0  0
    7.3790   -0.5420   20.9750 N   0  0  0  0  0  0  0  0  0  0  0  0
    6.5680    0.0950   20.0570 C   0  0  0  0  0  0  0  0  0  0  0  0
    5.2880    0.8670   20.3840 C   0  0  0  0  0  0  0  0  0  0  0  0
    4.6470    1.4440   19.2830 C   0  0  0  0  0  0  0  0  0  0  0  0
    5.1720    1.2970   18.0060 C   0  0  0  0  0  0  0  0  0  0  0  0
    6.2880    0.6120   17.7230 N   0  0  0  0  0  0  0  0  0  0  0  0
    6.9480    0.0350   18.7360 C   0  0  0  0  0  0  0  0  0  0  0  0
  1  2  1  0
  2  3  1  0
  3  4  1  0
  4  5  1  0
  5  6  1  0
  6  7  1  0
  7  8  2  0
  7  9  1  0
  9 10  1  0
 10 11  2  0
 11 12  1  0
 12 13  2  0
 13 14  1  0
 10 15  1  0
 14 15  2  0
M  END
