pyridine_urea_905
     RDKit          3D

 22 24  0  0  0  0  0  0  0  0999 V2000
    8.7370    0.6110   21.2290 O   0  0  0  0  0  0  0  0  0  0  0  0
    7.9960   -0.2750   21.6330 C   0  0  0  0  0  0  0  0  0  0  0  0
    8.1840   -0.9610   22.8830 N   0  0  0  0  0  0  0  0  0  0  0  0
    9.4450   -0.8480   23.4200 C   0  0  0  0  0  0  0  0  0  0  0  0
   10.0710    0.3430   23.1320 C   0  0  0  0  0  0  0  0  0  0  0  0
   10.9900    1.3730   22.8570 C   0  0  0  0  0  0  0  0  0  0  0  0
   10.3030    2.6220   22.6360 O   0  0  0  0  0  0  0  0  0  0  0  0
   12.3530    1.5100   22.7380 C   0  0  0  0  0  0  0  0  0  0  0  0
   13.2830    0.4320   22.9000 C   0  0  0  0  0  0  0  0  0  0  0  0
   12.5260   -0.7840   23.2410 C   0  0  0  0  0  0  0  0  0  0  0  0
   11.0050   -0.7150   23.3250 C   0  0  0  0  0  0  0  0  0  0  0  0
   10.3930   -1.9220   23.6680 C   0  0  0  0  0  0  0  0  0  0  0  0
   11.2840   -2.9600   23.8280 C   0  0  0  0  0  0  0  0  0  0  0  0
   12.4440   -2.6090   24.4650 C   0  0  0  0  0  0  0  0  0  0  0  0
   13.1530   -1.9730   23.5040 C   0  0  0  0  0  0  0  0  0  0  0  0
    6.8790   -0.7350   20.9810 N   0  0  0  0  0  0  0  0  0  0  0  0
    6.3070   -0.0270   19.9410 C   0  0  0  0  0  0  0  0  0  0  0  0
    5.1180    0.6580   20.1680 C   0  0  0  0  0  0  0  0  0  0  0  0
    4.5580    1.3790   19.1180 C   0  0  0  0  0  0  0  0  0  0  0  0
    5.2020    1.3920   17.8870 C   0  0  0  0  0  0  0  0  0  0  0  0
    6.3450    0.7300   17.6650 N   0  0  0  0  0  0  0  0  0  0  0  0
    6.8690    0.0380   18.6890 C   0  0  0  0  0  0  0  0  0  0  0  0
  1  2  2  0
  2  3  1  0
  3  4  1  0
  4  5  1  0
  5  6  2  0
  6  7  1  0
  6  8  1  0
  8  9  2  0
  9 10  1  0
  5 11  1  0
 10 11  2  0
 11 12  1  0
 12 13  1  0
 13 14  1  0
 10 15  1  0
 14 15  1  0
  2 16  1  0
 16 17  1  0
 17 18  2  0
 18 19  1  0
 19 20  2  0
 20 21  1  0
 17 22  1  0
 21 22  2  0
M  END
