pyridine_urea_1358
     RDKit          3D

 19 20  0  0  0  0  0  0  0  0999 V2000
    8.4390    1.4590   20.9000 O   0  0  0  0  0  0  0  0  0  0  0  0
    8.3050    0.3420   21.3980 C   0  0  0  0  0  0  0  0  0  0  0  0
    7.2430   -0.4510   21.0810 N   0  0  0  0  0  0  0  0  0  0  0  0
    6.5780    0.0860   19.9460 C   0  0  0  0  0  0  0  0  0  0  0  0
    5.3280    0.9250   20.2400 C   0  0  0  0  0  0  0  0  0  0  0  0
    4.6290    1.5220   19.2020 C   0  0  0  0  0  0  0  0  0  0  0  0
    5.1130    1.3220   17.9150 C   0  0  0  0  0  0  0  0  0  0  0  0
    6.2250    0.5550   17.6980 N   0  0  0  0  0  0  0  0  0  0  0  0
    6.9740   -0.0750   18.6860 C   0  0  0  0  0  0  0  0  0  0  0  0
    9.1570   -0.2000   22.2760 N   0  0  0  0  0  0  0  0  0  0  0  0
   10.0680   -0.6340   23.1340 C   0  0  1  0  0  0  0  0  0  0  0  0
   10.9220   -1.5660   22.5290 C   0  0  0  0  0  0  0  0  0  0  0  0
   11.3980   -2.5230   23.4870 O   0  0  0  0  0  0  0  0  0  0  0  0
   10.7540    0.2270   23.9800 C   0  0  0  0  0  0  0  0  0  0  0  0
   11.5990   -0.4150   24.8380 C   0  0  0  0  0  0  0  0  0  0  0  0
   12.5260   -0.5700   24.0850 C   0  0  0  0  0  0  0  0  0  0  0  0
   13.0040   -0.3610   22.8510 C   0  0  0  0  0  0  0  0  0  0  0  0
   13.8510   -1.0450   23.6840 O   0  0  0  0  0  0  0  0  0  0  0  0
   12.9380   -1.0640   24.9990 C   0  0  0  0  0  0  0  0  0  0  0  0
  1  2  2  0
  2  3  1  0
  3  4  1  0
  4  5  2  0
  5  6  1  0
  6  7  2  0
  7  8  1  0
  4  9  1  0
  8  9  2  0
  2 10  1  0
 10 11  1  0
 11 12  1  6
 12 13  1  0
 11 14  1  0
 14 15  1  0
 15 16  1  0
 16 17  2  0
 17 18  1  0
 15 19  2  0
 18 19  1  0
M  END
