pyridine_urea_10266
     RDKit          3D

 23 25  0  0  0  0  0  0  0  0999 V2000
    8.9950    1.4650   21.1970 O   0  0  0  0  0  0  0  0  0  0  0  0
    8.5770    0.3570   21.5330 C   0  0  0  0  0  0  0  0  0  0  0  0
    9.1460   -0.4590   22.4770 N   0  0  0  0  0  0  0  0  0  0  0  0
    8.7460   -1.7830   22.6560 C   0  0  0  0  0  0  0  0  0  0  0  0
    7.4890   -2.0950   23.1620 C   0  0  0  0  0  0  0  0  0  0  0  0
    7.6900   -2.8310   24.3290 C   0  0  0  0  0  0  0  0  0  0  0  0
    6.6420   -2.7040   25.2210 C   0  0  0  0  0  0  0  0  0  0  0  0
    5.4620   -2.6170   24.6380 N   0  0  0  0  0  0  0  0  0  0  0  0
    4.7540   -3.7710   24.6780 C   0  0  0  0  0  0  0  0  0  0  0  0
    5.3250   -4.8450   23.7250 C   0  0  0  0  0  0  0  0  0  0  0  0
    4.6870   -5.4110   22.6340 C   0  0  0  0  0  0  0  0  0  0  0  0
    5.4430   -6.3440   21.9450 C   0  0  0  0  0  0  0  0  0  0  0  0
    6.6920   -6.5360   22.4870 C   0  0  0  0  0  0  0  0  0  0  0  0
    6.9820   -5.5300   23.9110 S   0  0  0  0  0  0  0  0  0  0  0  0
    5.7530   -2.1280   23.3510 C   0  0  0  0  0  0  0  0  0  0  0  0
    6.5790   -2.9140   22.3810 C   0  0  0  0  0  0  0  0  0  0  0  0
    7.4440   -0.2630   21.0300 N   0  0  0  0  0  0  0  0  0  0  0  0
    6.6950    0.2260   20.0360 C   0  0  0  0  0  0  0  0  0  0  0  0
    5.5580    0.9730   20.3260 C   0  0  0  0  0  0  0  0  0  0  0  0
    4.7610    1.5160   19.3210 C   0  0  0  0  0  0  0  0  0  0  0  0
    5.1310    1.2940   18.0030 C   0  0  0  0  0  0  0  0  0  0  0  0
    6.2050    0.5780   17.6490 N   0  0  0  0  0  0  0  0  0  0  0  0
    6.9490    0.0650   18.7020 C   0  0  0  0  0  0  0  0  0  0  0  0
  1  2  2  0
  2  3  1  0
  3  4  1  0
  4  5  1  0
  5  6  1  0
  6  7  1  0
  7  8  1  0
  8  9  1  0
  9 10  1  0
 10 11  2  0
 11 12  1  0
 12 13  2  0
 10 14  1  0
 13 14  1  0
  8 15  1  0
  5 16  1  0
 15 16  1  0
  2 17  1  0
 17 18  1  0
 18 19  2  0
 19 20  1  0
 20 21  2  0
 21 22  1  0
 18 23  1  0
 22 23  2  0
M  END
