pyridine_urea_1716
     RDKit          3D

 18 19  0  0  0  0  0  0  0  0999 V2000
   13.3850   -3.3700   25.1050 C   0  0  0  0  0  0  0  0  0  0  0  0
   13.4680   -1.7210   25.5800 S   0  0  0  0  0  0  0  0  0  0  0  0
   12.5230   -1.1130   24.2180 C   0  0  0  0  0  0  0  0  0  0  0  0
   12.8030   -0.0360   23.5700 C   0  0  0  0  0  0  0  0  0  0  0  0
   11.9930    0.2580   22.5910 C   0  0  0  0  0  0  0  0  0  0  0  0
   10.8820   -0.5740   22.2680 C   0  0  0  0  0  0  0  0  0  0  0  0
    9.9530   -1.5810   22.2550 C   0  0  0  0  0  0  0  0  0  0  0  0
    8.6330   -1.1810   22.3460 N   0  0  0  0  0  0  0  0  0  0  0  0
    8.1380   -0.1890   21.5570 C   0  0  0  0  0  0  0  0  0  0  0  0
    8.6860    0.8850   21.3370 O   0  0  0  0  0  0  0  0  0  0  0  0
    6.9280   -0.5850   21.0450 N   0  0  0  0  0  0  0  0  0  0  0  0
    6.2400    0.1240   19.9860 C   0  0  0  0  0  0  0  0  0  0  0  0
    5.0600    0.8210   20.1400 C   0  0  0  0  0  0  0  0  0  0  0  0
    4.5140    1.4730   19.0410 C   0  0  0  0  0  0  0  0  0  0  0  0
    5.1850    1.3930   17.8370 C   0  0  0  0  0  0  0  0  0  0  0  0
    6.3290    0.7150   17.6670 N   0  0  0  0  0  0  0  0  0  0  0  0
    6.8290    0.0950   18.7400 C   0  0  0  0  0  0  0  0  0  0  0  0
   11.1830   -1.7560   23.5310 S   0  0  0  0  0  0  0  0  0  0  0  0
  1  2  1  0
  2  3  1  0
  3  4  2  0
  4  5  1  0
  5  6  2  0
  6  7  1  0
  7  8  1  0
  8  9  1  0
  9 10  2  0
  9 11  1  0
 11 12  1  0
 12 13  2  0
 13 14  1  0
 14 15  2  0
 15 16  1  0
 12 17  1  0
 16 17  2  0
  3 18  1  0
  6 18  1  0
M  END
