pyridine_urea_3805
     RDKit          3D

 18 20  0  0  0  0  0  0  0  0999 V2000
    9.0290    0.6370   21.6690 O   0  0  0  0  0  0  0  0  0  0  0  0
    8.5040   -0.4330   21.4110 C   0  0  0  0  0  0  0  0  0  0  0  0
    9.1960   -1.6230   21.3060 N   0  0  0  0  0  0  0  0  0  0  0  0
   10.2060   -2.0970   22.2300 C   0  0  0  0  0  0  0  0  0  0  0  0
   11.2250   -1.0710   22.5780 C   0  0  2  0  0  0  0  0  0  0  0  0
   11.3340   -1.0990   24.0400 C   0  0  0  0  0  0  0  0  0  0  0  0
   12.6340   -0.5740   23.6000 C   0  0  2  0  0  0  0  0  0  0  0  0
   12.5090    0.8870   23.2160 C   0  0  0  0  0  0  0  0  0  0  0  0
   11.0150    1.0470   22.8710 C   0  0  0  0  0  0  0  0  0  0  0  0
   10.7970    0.1350   22.1150 O   0  0  0  0  0  0  0  0  0  0  0  0
   12.6630   -1.1740   22.3360 C   0  0  0  0  0  0  0  0  0  0  0  0
    7.1650   -0.6370   21.1400 N   0  0  0  0  0  0  0  0  0  0  0  0
    6.4360    0.0360   20.1380 C   0  0  0  0  0  0  0  0  0  0  0  0
    5.2660    0.7510   20.3160 C   0  0  0  0  0  0  0  0  0  0  0  0
    4.6650    1.3740   19.2380 C   0  0  0  0  0  0  0  0  0  0  0  0
    5.2100    1.2990   17.9680 C   0  0  0  0  0  0  0  0  0  0  0  0
    6.3400    0.6100   17.7470 N   0  0  0  0  0  0  0  0  0  0  0  0
    6.9030    0.0090   18.8250 C   0  0  0  0  0  0  0  0  0  0  0  0
  1  2  2  0
  2  3  1  0
  3  4  1  0
  5  4  1  6
  5  6  1  0
  7  6  1  1
  7  8  1  0
  8  9  1  0
  5 10  1  0
  9 10  1  0
  5 11  1  0
  7 11  1  0
  2 12  1  0
 12 13  1  0
 13 14  2  0
 14 15  1  0
 15 16  2  0
 16 17  1  0
 13 18  1  0
 17 18  2  0
M  END
