pyridine_urea_5812
     RDKit          3D

 20 21  0  0  0  0  0  0  0  0999 V2000
   11.0890   -3.6800   25.4620 C   0  0  0  0  0  0  0  0  0  0  0  0
   10.5740   -2.3730   25.2210 O   0  0  0  0  0  0  0  0  0  0  0  0
    9.8450   -2.2600   24.0740 C   0  0  0  0  0  0  0  0  0  0  0  0
    9.0910   -3.1540   23.7150 O   0  0  0  0  0  0  0  0  0  0  0  0
    9.9950   -1.0740   23.3340 C   0  0  0  0  0  0  0  0  0  0  0  0
    8.6420   -0.6640   22.8740 N   0  0  0  0  0  0  0  0  0  0  0  0
    8.3040   -0.1040   21.6790 C   0  0  0  0  0  0  0  0  0  0  0  0
    9.0460    1.0650   21.2560 O   0  0  0  0  0  0  0  0  0  0  0  0
    7.1960   -0.7490   20.9860 N   0  0  0  0  0  0  0  0  0  0  0  0
    6.5270   -0.0520   20.0140 C   0  0  0  0  0  0  0  0  0  0  0  0
    5.2590    0.7010   20.4270 C   0  0  0  0  0  0  0  0  0  0  0  0
    4.5990    1.4540   19.2630 C   0  0  0  0  0  0  0  0  0  0  0  0
    5.2210    1.3910   17.8960 C   0  0  0  0  0  0  0  0  0  0  0  0
    6.3430    0.6800   17.6800 N   0  0  0  0  0  0  0  0  0  0  0  0
    6.9710   -0.0190   18.7040 C   0  0  0  0  0  0  0  0  0  0  0  0
   10.8960   -0.3090   24.0480 C   0  0  0  0  0  0  0  0  0  0  0  0
   11.6290    0.2260   23.0440 C   0  0  0  0  0  0  0  0  0  0  0  0
   12.7170   -0.5100   22.5790 C   0  0  0  0  0  0  0  0  0  0  0  0
   13.0800    0.3660   23.3060 C   0  0  0  0  0  0  0  0  0  0  0  0
   10.9680   -0.9910   22.3080 C   0  0  0  0  0  0  0  0  0  0  0  0
  1  2  1  0
  2  3  1  0
  3  4  2  0
  5  3  1  0
  5  6  1  0
  6  7  1  0
  7  8  2  0
  7  9  1  0
  9 10  1  0
 10 11  2  0
 11 12  1  0
 12 13  2  0
 13 14  1  0
 10 15  1  0
 14 15  2  0
  5 16  1  0
 16 17  1  0
 17 18  1  0
 17 19  1  0
  5 20  1  0
 17 20  1  0
M  END
