pyridine_urea_8649
     RDKit          3D

 21 22  0  0  0  0  0  0  0  0999 V2000
    9.0040    0.8620   21.6540 O   0  0  0  0  0  0  0  0  0  0  0  0
    8.6510   -0.2840   21.4300 C   0  0  0  0  0  0  0  0  0  0  0  0
    9.4870   -1.3810   21.4290 N   0  0  0  0  0  0  0  0  0  0  0  0
   10.2270   -1.9750   22.4970 C   0  0  0  0  0  0  0  0  0  0  0  0
   11.6480   -1.8640   22.5120 C   0  0  0  0  0  0  0  0  0  0  0  0
   12.0250   -0.5730   22.7530 C   0  0  0  0  0  0  0  0  0  0  0  0
   12.1030    0.7790   23.1880 C   0  0  0  0  0  0  0  0  0  0  0  0
   13.1770    1.4430   22.7910 F   0  0  0  0  0  0  0  0  0  0  0  0
   11.1720    1.6420   24.0300 C   0  0  0  0  0  0  0  0  0  0  0  0
   10.0430    1.0890   24.5140 C   0  0  0  0  0  0  0  0  0  0  0  0
    9.1400    1.5450   25.1950 O   0  0  0  0  0  0  0  0  0  0  0  0
    9.8460   -0.3190   24.1710 C   0  0  0  0  0  0  0  0  0  0  0  0
   10.7760   -0.9740   23.3850 C   0  0  0  0  0  0  0  0  0  0  0  0
   10.3720   -2.2690   23.2090 F   0  0  0  0  0  0  0  0  0  0  0  0
    7.3560   -0.6360   21.0900 N   0  0  0  0  0  0  0  0  0  0  0  0
    6.6090   -0.0030   20.0750 C   0  0  0  0  0  0  0  0  0  0  0  0
    5.4530    0.7170   20.4050 C   0  0  0  0  0  0  0  0  0  0  0  0
    4.7250    1.3560   19.3880 C   0  0  0  0  0  0  0  0  0  0  0  0
    5.1700    1.2580   18.0770 C   0  0  0  0  0  0  0  0  0  0  0  0
    6.2680    0.5680   17.7420 N   0  0  0  0  0  0  0  0  0  0  0  0
    6.9560   -0.0430   18.7350 C   0  0  0  0  0  0  0  0  0  0  0  0
  1  2  2  0
  2  3  1  0
  3  4  1  0
  4  5  1  0
  5  6  1  0
  6  7  2  0
  7  8  1  0
  7  9  1  0
  9 10  2  0
 10 11  1  0
 10 12  1  0
  6 13  1  0
 12 13  2  0
 13 14  1  0
  2 15  1  0
 15 16  1  0
 16 17  2  0
 17 18  1  0
 18 19  2  0
 19 20  1  0
 16 21  1  0
 20 21  2  0
M  END
