pyridine_urea_15046
     RDKit          3D

 18 19  0  0  0  0  0  0  0  0999 V2000
    5.9180   -6.9330   22.5480 C   0  0  0  0  0  0  0  0  0  0  0  0
    6.5890   -5.7990   22.8330 N   0  0  0  0  0  0  0  0  0  0  0  0
    6.3470   -4.5680   22.2200 C   0  0  0  0  0  0  0  0  0  0  0  0
    7.3100   -3.6770   22.8460 C   0  0  0  0  0  0  0  0  0  0  0  0
    7.4920   -2.2230   22.5530 C   0  0  0  0  0  0  0  0  0  0  0  0
    8.9630   -1.8400   22.6380 C   0  0  0  0  0  0  0  0  0  0  0  0
    9.2040   -0.4680   22.4850 N   0  0  0  0  0  0  0  0  0  0  0  0
    8.5840    0.3340   21.5400 C   0  0  0  0  0  0  0  0  0  0  0  0
    9.0250    1.4360   21.2130 O   0  0  0  0  0  0  0  0  0  0  0  0
    7.4270   -0.2640   21.0540 N   0  0  0  0  0  0  0  0  0  0  0  0
    6.5950    0.2900   20.0660 C   0  0  0  0  0  0  0  0  0  0  0  0
    5.4400    1.0430   20.3120 C   0  0  0  0  0  0  0  0  0  0  0  0
    4.7100    1.5530   19.2460 C   0  0  0  0  0  0  0  0  0  0  0  0
    5.1590    1.2930   17.9730 C   0  0  0  0  0  0  0  0  0  0  0  0
    6.2520    0.5720   17.7020 N   0  0  0  0  0  0  0  0  0  0  0  0
    6.9400    0.0880   18.7480 C   0  0  0  0  0  0  0  0  0  0  0  0
    8.0510   -4.3230   23.7480 N   0  0  0  0  0  0  0  0  0  0  0  0
    7.6040   -5.6440   23.7460 N   0  0  0  0  0  0  0  0  0  0  0  0
  1  2  1  0
  2  3  1  0
  3  4  2  0
  4  5  1  0
  5  6  1  0
  6  7  1  0
  7  8  1  0
  8  9  2  0
  8 10  1  0
 10 11  1  0
 11 12  2  0
 12 13  1  0
 13 14  2  0
 14 15  1  0
 11 16  1  0
 15 16  2  0
  4 17  1  0
  2 18  1  0
 17 18  2  0
M  END
