pyridine_urea_180
     RDKit          3D

 23 24  0  0  0  0  0  0  0  0999 V2000
   10.5990    2.6410   22.9230 C   0  0  0  0  0  0  0  0  0  0  0  0
   10.2900    2.0010   23.8950 C   0  0  0  0  0  0  0  0  0  0  0  0
    9.4260    1.4120   25.0210 C   0  0  0  0  0  0  0  0  0  0  0  0
   10.7260    0.6580   23.2800 C   0  0  0  0  0  0  0  0  0  0  0  0
    9.6480    0.0160   22.9380 C   0  0  0  0  0  0  0  0  0  0  0  0
    9.4390   -1.3210   22.2930 C   0  0  0  0  0  0  0  0  0  0  0  0
    8.1510   -1.7860   22.0070 N   0  0  0  0  0  0  0  0  0  0  0  0
    7.5980   -0.7370   21.3840 C   0  0  0  0  0  0  0  0  0  0  0  0
    8.1660    0.5400   21.0590 O   0  0  0  0  0  0  0  0  0  0  0  0
    6.2580   -0.8940   20.9710 N   0  0  0  0  0  0  0  0  0  0  0  0
    5.9660   -0.0840   19.8270 C   0  0  0  0  0  0  0  0  0  0  0  0
    4.7730    0.7840   19.9520 C   0  0  0  0  0  0  0  0  0  0  0  0
    4.4060    1.6080   18.9200 C   0  0  0  0  0  0  0  0  0  0  0  0
    5.1340    1.6520   17.7410 C   0  0  0  0  0  0  0  0  0  0  0  0
    6.3090    0.7980   17.6040 N   0  0  0  0  0  0  0  0  0  0  0  0
    6.6610   -0.0160   18.6470 C   0  0  0  0  0  0  0  0  0  0  0  0
   10.7890   -1.9320   22.0390 C   0  0  0  0  0  0  0  0  0  0  0  0
   12.0240   -1.2650   22.4050 C   0  0  0  0  0  0  0  0  0  0  0  0
   12.0600    0.0650   23.0480 C   0  0  0  0  0  0  0  0  0  0  0  0
   13.0990    0.6250   23.3810 C   0  0  0  0  0  0  0  0  0  0  0  0
   12.9570    1.9660   23.3730 F   0  0  0  0  0  0  0  0  0  0  0  0
   13.2840    0.0200   24.5430 F   0  0  0  0  0  0  0  0  0  0  0  0
   13.9960    0.2310   22.4840 F   0  0  0  0  0  0  0  0  0  0  0  0
  1  2  1  0
  2  3  1  0
  2  4  1  0
  4  5  2  0
  5  6  1  0
  6  7  1  0
  7  8  1  0
  8  9  2  0
  8 10  1  0
 10 11  1  0
 11 12  2  0
 12 13  1  0
 13 14  2  0
 14 15  1  0
 11 16  1  0
 15 16  2  0
  6 17  2  0
 17 18  1  0
  4 19  1  0
 18 19  2  0
 19 20  1  0
 20 21  1  0
 20 22  1  0
 20 23  1  0
M  END
