pyridine_urea_757
     RDKit          3D

 23 24  0  0  0  0  0  0  0  0999 V2000
    8.4280    0.4520   21.2330 O   0  0  0  0  0  0  0  0  0  0  0  0
    7.8620   -0.5880   21.5630 C   0  0  0  0  0  0  0  0  0  0  0  0
    6.6980   -1.0040   20.9840 N   0  0  0  0  0  0  0  0  0  0  0  0
    6.1120   -0.1950   19.9970 C   0  0  0  0  0  0  0  0  0  0  0  0
    4.9310    0.5170   20.1400 C   0  0  0  0  0  0  0  0  0  0  0  0
    4.4640    1.2970   19.0830 C   0  0  0  0  0  0  0  0  0  0  0  0
    5.1990    1.3370   17.9160 C   0  0  0  0  0  0  0  0  0  0  0  0
    6.3470    0.6520   17.7480 N   0  0  0  0  0  0  0  0  0  0  0  0
    6.7720   -0.0890   18.7840 C   0  0  0  0  0  0  0  0  0  0  0  0
    8.3790   -1.4120   22.5480 N   0  0  0  0  0  0  0  0  0  0  0  0
    9.6450   -0.9760   22.7790 C   0  0  0  0  0  0  0  0  0  0  0  0
   10.6170   -1.5320   21.9800 C   0  0  0  0  0  0  0  0  0  0  0  0
   11.8800   -1.0840   22.0860 C   0  0  0  0  0  0  0  0  0  0  0  0
   12.1340   -0.0980   22.9670 C   0  0  0  0  0  0  0  0  0  0  0  0
   13.6400    0.4210   22.9300 Cl  0  0  0  0  0  0  0  0  0  0  0  0
   11.2470    0.4770   23.8250 C   0  0  0  0  0  0  0  0  0  0  0  0
    9.8670    0.0120   23.7530 C   0  0  0  0  0  0  0  0  0  0  0  0
    8.9440    0.4300   24.4440 O   0  0  0  0  0  0  0  0  0  0  0  0
    9.0900    0.3210   25.8170 C   0  0  0  0  0  0  0  0  0  0  0  0
    8.0330   -0.2520   26.5300 C   0  0  0  0  0  0  0  0  0  0  0  0
    7.9700    0.2640   27.7880 F   0  0  0  0  0  0  0  0  0  0  0  0
    6.8420    0.0190   25.9380 F   0  0  0  0  0  0  0  0  0  0  0  0
    8.0970   -1.6090   26.6810 F   0  0  0  0  0  0  0  0  0  0  0  0
  1  2  2  0
  2  3  1  0
  3  4  1  0
  4  5  2  0
  5  6  1  0
  6  7  2  0
  7  8  1  0
  4  9  1  0
  8  9  2  0
  2 10  1  0
 10 11  1  0
 11 12  2  0
 12 13  1  0
 13 14  2  0
 14 15  1  0
 14 16  1  0
 11 17  1  0
 16 17  2  0
 17 18  1  0
 18 19  1  0
 19 20  1  0
 20 21  1  0
 20 22  1  0
 20 23  1  0
M  END
