pyridine_urea_9060
     RDKit          3D

 19 21  0  0  0  0  0  0  0  0999 V2000
    9.2860    1.4330   21.4570 O   0  0  0  0  0  0  0  0  0  0  0  0
    8.6730    0.3800   21.5620 C   0  0  0  0  0  0  0  0  0  0  0  0
    9.1280   -0.6400   22.3680 N   0  0  0  0  0  0  0  0  0  0  0  0
   10.5730   -0.7140   22.5300 C   0  0  0  0  0  0  0  0  0  0  0  0
   11.0660    0.7360   22.9380 C   0  0  0  0  0  0  0  0  0  0  0  0
   12.3900    0.9670   23.1490 C   0  0  0  0  0  0  0  0  0  0  0  0
   12.8890   -0.2100   22.9290 C   0  0  0  0  0  0  0  0  0  0  0  0
   12.6100   -1.4610   22.5970 N   0  0  0  0  0  0  0  0  0  0  0  0
   11.2840   -1.9420   22.3200 C   0  0  0  0  0  0  0  0  0  0  0  0
    7.5270    0.2000   20.8280 N   0  0  0  0  0  0  0  0  0  0  0  0
    6.4850    0.2410   19.9340 C   0  0  0  0  0  0  0  0  0  0  0  0
    5.3160    0.5330   20.4580 C   0  0  0  0  0  0  0  0  0  0  0  0
    5.0650    0.4370   19.2080 N   0  0  0  0  0  0  0  0  0  0  0  0
    5.8440    0.1470   18.0810 N   0  0  0  0  0  0  0  0  0  0  0  0
    4.6290    0.4510   18.3790 C   0  0  0  0  0  0  0  0  0  0  0  0
    4.7950    0.6030   19.8070 C   0  0  0  0  0  0  0  0  0  0  0  0
    6.1760    0.3890   20.4800 C   0  0  0  0  0  0  0  0  0  0  0  0
    7.4530    0.0290   19.8640 N   0  0  0  0  0  0  0  0  0  0  0  0
    6.9720   -0.0170   18.6970 C   0  0  0  0  0  0  0  0  0  0  0  0
  1  2  2  0
  2  3  1  0
  3  4  1  0
  4  5  2  0
  5  6  1  0
  6  7  2  0
  7  8  1  0
  4  9  1  0
  8  9  2  0
  2 10  1  0
 10 11  1  0
 11 12  1  0
 12 13  2  0
 13 14  1  0
 14 15  1  0
 15 16  2  0
 16 17  1  0
 17 18  2  0
 11 19  2  0
 14 19  1  0
 18 19  1  0
M  END
