pyridine_urea_8971
     RDKit          3D

 19 21  0  0  0  0  0  0  0  0999 V2000
    8.8900    0.6490   21.2920 O   0  0  0  0  0  0  0  0  0  0  0  0
    8.2870   -0.4240   21.2900 C   0  0  0  0  0  0  0  0  0  0  0  0
    8.8860   -1.6240   21.5320 N   0  0  0  0  0  0  0  0  0  0  0  0
   10.2740   -1.6350   21.8590 C   0  0  0  0  0  0  0  0  0  0  0  0
   10.4230   -1.0130   23.2060 C   0  0  0  0  0  0  0  0  0  0  0  0
   11.6230   -0.3290   23.3340 C   0  0  0  0  0  0  0  0  0  0  0  0
   12.5500   -0.9550   24.1540 C   0  0  0  0  0  0  0  0  0  0  0  0
   13.0780   -1.6890   23.1960 C   0  0  0  0  0  0  0  0  0  0  0  0
   12.6070   -0.9290   22.1940 C   0  0  0  0  0  0  0  0  0  0  0  0
   10.0160   -1.8330   24.2390 C   0  0  0  0  0  0  0  0  0  0  0  0
    8.7480   -1.4990   24.1910 C   0  0  0  0  0  0  0  0  0  0  0  0
    9.0050   -0.3410   23.4350 C   0  0  0  0  0  0  0  0  0  0  0  0
    6.9630   -0.5970   21.0360 N   0  0  0  0  0  0  0  0  0  0  0  0
    6.3590    0.0670   19.9830 C   0  0  0  0  0  0  0  0  0  0  0  0
    5.0980    0.8420   20.1650 C   0  0  0  0  0  0  0  0  0  0  0  0
    4.5190    1.5080   19.1200 C   0  0  0  0  0  0  0  0  0  0  0  0
    5.1790    1.4200   17.8680 C   0  0  0  0  0  0  0  0  0  0  0  0
    6.3140    0.7270   17.6450 N   0  0  0  0  0  0  0  0  0  0  0  0
    6.8510    0.0850   18.7020 C   0  0  0  0  0  0  0  0  0  0  0  0
  1  2  2  0
  2  3  1  0
  3  4  1  0
  5  4  1  0
  5  6  1  0
  6  7  1  0
  7  8  1  0
  6  9  1  0
  8  9  1  0
  5 10  1  0
 10 11  1  0
  5 12  1  0
 11 12  1  0
  2 13  1  0
 13 14  1  0
 14 15  2  0
 15 16  1  0
 16 17  2  0
 17 18  1  0
 14 19  1  0
 18 19  2  0
M  END
