pyridine_urea_9179
     RDKit          3D

 18 18  0  0  0  0  0  0  0  0999 V2000
    9.2540   -5.4050   25.9000 C   0  0  0  0  0  0  0  0  0  0  0  0
    7.9740   -4.6760   25.5980 C   0  0  0  0  0  0  0  0  0  0  0  0
    8.1110   -3.7340   24.4910 N   0  0  0  0  0  0  0  0  0  0  0  0
    9.4330   -3.8260   24.0480 O   0  0  0  0  0  0  0  0  0  0  0  0
    9.6720   -2.9610   23.0140 C   0  0  0  0  0  0  0  0  0  0  0  0
    7.6240   -2.4370   24.3930 C   0  0  0  0  0  0  0  0  0  0  0  0
    7.1460   -1.6780   25.5150 O   0  0  0  0  0  0  0  0  0  0  0  0
    7.5300   -1.6890   23.2300 C   0  0  0  0  0  0  0  0  0  0  0  0
    8.5510   -0.9070   22.8070 N   0  0  0  0  0  0  0  0  0  0  0  0
    8.3130   -0.1620   21.7080 C   0  0  0  0  0  0  0  0  0  0  0  0
    9.0260    0.7780   21.3730 O   0  0  0  0  0  0  0  0  0  0  0  0
    7.1730   -0.6190   21.0770 N   0  0  0  0  0  0  0  0  0  0  0  0
    6.5020    0.0440   19.9880 C   0  0  0  0  0  0  0  0  0  0  0  0
    5.2320    0.8400   20.2470 C   0  0  0  0  0  0  0  0  0  0  0  0
    4.6000    1.4840   19.2100 C   0  0  0  0  0  0  0  0  0  0  0  0
    5.1860    1.3610   17.9470 C   0  0  0  0  0  0  0  0  0  0  0  0
    6.3140    0.6500   17.6950 N   0  0  0  0  0  0  0  0  0  0  0  0
    6.9540    0.0050   18.6980 C   0  0  0  0  0  0  0  0  0  0  0  0
  1  2  1  0
  2  3  1  0
  3  4  1  0
  4  5  1  0
  3  6  1  0
  6  7  2  0
  6  8  1  0
  8  9  1  0
  9 10  1  0
 10 11  2  0
 10 12  1  0
 12 13  1  0
 13 14  2  0
 14 15  1  0
 15 16  2  0
 16 17  1  0
 13 18  1  0
 17 18  2  0
M  END
