pyridine_urea_10977
     RDKit          3D

 19 20  0  0  0  0  0  0  0  0999 V2000
    9.0460    1.1490   21.2690 O   0  0  0  0  0  0  0  0  0  0  0  0
    8.5140    0.0770   21.6000 C   0  0  0  0  0  0  0  0  0  0  0  0
    9.0790   -0.7720   22.6430 N   0  0  0  0  0  0  0  0  0  0  0  0
    9.1040   -2.1530   22.4780 C   0  0  0  0  0  0  0  0  0  0  0  0
    9.1220   -2.9150   23.6490 C   0  0  0  0  0  0  0  0  0  0  0  0
    8.2570   -3.9850   23.8680 C   0  0  0  0  0  0  0  0  0  0  0  0
    8.3190   -4.7040   25.0690 C   0  0  0  0  0  0  0  0  0  0  0  0
    7.3350   -5.3180   25.4480 O   0  0  0  0  0  0  0  0  0  0  0  0
    9.4530   -4.7080   25.8000 N   0  0  0  0  0  0  0  0  0  0  0  0
   10.3870   -3.7710   25.4650 C   0  0  0  0  0  0  0  0  0  0  0  0
   11.6950   -3.8840   25.8620 O   0  0  0  0  0  0  0  0  0  0  0  0
    9.9640   -2.7220   24.7210 N   0  0  0  0  0  0  0  0  0  0  0  0
    7.3530   -0.4470   21.0940 N   0  0  0  0  0  0  0  0  0  0  0  0
    6.6210    0.1160   20.0060 C   0  0  0  0  0  0  0  0  0  0  0  0
    5.3870    0.9360   20.3040 C   0  0  0  0  0  0  0  0  0  0  0  0
    4.6660    1.5130   19.2870 C   0  0  0  0  0  0  0  0  0  0  0  0
    5.1260    1.3080   17.9890 C   0  0  0  0  0  0  0  0  0  0  0  0
    6.2200    0.5760   17.6700 N   0  0  0  0  0  0  0  0  0  0  0  0
    6.9900   -0.0430   18.7010 C   0  0  0  0  0  0  0  0  0  0  0  0
  1  2  2  0
  2  3  1  0
  3  4  1  0
  4  5  1  0
  5  6  2  0
  6  7  1  0
  7  8  2  0
  7  9  1  0
  9 10  1  0
 10 11  2  0
  5 12  1  0
 10 12  1  0
  2 13  1  0
 13 14  1  0
 14 15  2  0
 15 16  1  0
 16 17  2  0
 17 18  1  0
 14 19  1  0
 18 19  2  0
M  END
