pyridine_urea_5995
     RDKit          3D

 26 28  0  0  0  0  0  0  0  0999 V2000
    7.5060   -1.7190   20.6560 O   0  0  0  0  0  0  0  0  0  0  0  0
    8.3470   -0.9180   20.8450 C   0  0  0  0  0  0  0  0  0  0  0  0
    7.9130    0.4460   20.8880 N   0  0  0  0  0  0  0  0  0  0  0  0
    6.9200    0.7160   19.9770 C   0  0  0  0  0  0  0  0  0  0  0  0
    5.8200    1.4970   20.3170 C   0  0  0  0  0  0  0  0  0  0  0  0
    4.8710    1.7350   19.3320 C   0  0  0  0  0  0  0  0  0  0  0  0
    5.0680    1.1840   18.0690 C   0  0  0  0  0  0  0  0  0  0  0  0
    6.1140    0.4250   17.7370 N   0  0  0  0  0  0  0  0  0  0  0  0
    7.0160    0.2060   18.7040 C   0  0  0  0  0  0  0  0  0  0  0  0
    9.6900   -1.1420   21.0600 N   0  0  0  0  0  0  0  0  0  0  0  0
    9.8530   -1.2110   22.3990 C   0  0  0  0  0  0  0  0  0  0  0  0
   10.9150   -1.8170   23.2940 C   0  0  0  0  0  0  0  0  0  0  0  0
   10.6880   -1.6700   24.6450 C   0  0  0  0  0  0  0  0  0  0  0  0
    9.4960   -0.9780   25.0230 C   0  0  0  0  0  0  0  0  0  0  0  0
    8.8920   -0.6130   26.2370 N   0  0  0  0  0  0  0  0  0  0  0  0
    7.6510    0.1000   26.0260 C   0  0  0  0  0  0  0  0  0  0  0  0
    6.9510    0.5160   27.1450 C   0  0  0  0  0  0  0  0  0  0  0  0
    7.7460    0.8940   28.1560 F   0  0  0  0  0  0  0  0  0  0  0  0
    6.3730    1.6890   26.8030 F   0  0  0  0  0  0  0  0  0  0  0  0
    6.0210   -0.4310   27.5390 C   0  0  0  0  0  0  0  0  0  0  0  0
    6.0740   -0.6290   28.8740 F   0  0  0  0  0  0  0  0  0  0  0  0
    6.1080   -1.6610   27.0080 F   0  0  0  0  0  0  0  0  0  0  0  0
    4.7530   -0.0280   27.2670 F   0  0  0  0  0  0  0  0  0  0  0  0
    7.5190    0.1640   24.7190 N   0  0  0  0  0  0  0  0  0  0  0  0
    8.5950   -0.4630   24.1780 C   0  0  0  0  0  0  0  0  0  0  0  0
    8.6990   -0.5330   22.8920 C   0  0  0  0  0  0  0  0  0  0  0  0
  1  2  2  0
  2  3  1  0
  3  4  1  0
  4  5  2  0
  5  6  1  0
  6  7  2  0
  7  8  1  0
  4  9  1  0
  8  9  2  0
  2 10  1  0
 10 11  1  0
 11 12  2  0
 12 13  1  0
 13 14  2  0
 14 15  1  0
 15 16  1  0
 16 17  1  0
 17 18  1  0
 17 19  1  0
 17 20  1  0
 20 21  1  0
 20 22  1  0
 20 23  1  0
 16 24  2  0
 14 25  1  0
 24 25  1  0
 11 26  1  0
 25 26  2  0
M  END
