pyridine_urea_15183
     RDKit          3D

 18 19  0  0  0  0  0  0  0  0999 V2000
   13.2260   -1.1070   22.1730 C   0  0  0  0  0  0  0  0  0  0  0  0
   12.7510   -0.4460   23.4530 C   0  0  1  0  0  0  0  0  0  0  0  0
   12.0810    0.8370   23.0330 C   0  0  0  0  0  0  0  0  0  0  0  0
   10.5550    0.7430   22.9290 C   0  0  0  0  0  0  0  0  0  0  0  0
    9.9910   -0.6550   23.1890 C   0  0  1  0  0  0  0  0  0  0  0  0
    8.9870   -0.9870   22.2140 N   0  0  0  0  0  0  0  0  0  0  0  0
    8.3880   -0.0070   21.4520 C   0  0  0  0  0  0  0  0  0  0  0  0
    8.9190    1.0820   21.1810 O   0  0  0  0  0  0  0  0  0  0  0  0
    7.1460   -0.4170   21.0570 N   0  0  0  0  0  0  0  0  0  0  0  0
    6.4670    0.1610   19.9940 C   0  0  0  0  0  0  0  0  0  0  0  0
    5.2990    0.8800   20.2460 C   0  0  0  0  0  0  0  0  0  0  0  0
    4.6210    1.4840   19.1900 C   0  0  0  0  0  0  0  0  0  0  0  0
    5.1460    1.3390   17.9260 C   0  0  0  0  0  0  0  0  0  0  0  0
    6.2560    0.6470   17.6610 N   0  0  0  0  0  0  0  0  0  0  0  0
    6.8920    0.0730   18.6930 C   0  0  0  0  0  0  0  0  0  0  0  0
   10.9320   -1.6400   23.1130 C   0  0  0  0  0  0  0  0  0  0  0  0
   10.9370   -2.5530   22.2990 O   0  0  0  0  0  0  0  0  0  0  0  0
   11.8320   -1.4090   24.0930 N   0  0  0  0  0  0  0  0  0  0  0  0
  2  1  1  6
  2  3  1  0
  3  4  1  0
  4  5  1  0
  5  6  1  6
  6  7  1  0
  7  8  2  0
  7  9  1  0
  9 10  1  0
 10 11  2  0
 11 12  1  0
 12 13  2  0
 13 14  1  0
 10 15  1  0
 14 15  2  0
  5 16  1  0
 16 17  2  0
  2 18  1  0
 16 18  1  0
M  END
