pyridine_urea_4133
     RDKit          3D

 26 29  0  0  0  0  0  0  0  0999 V2000
    8.4500    1.4250   20.9040 O   0  0  0  0  0  0  0  0  0  0  0  0
    7.8420    0.3560   20.7900 C   0  0  0  0  0  0  0  0  0  0  0  0
    6.5450    0.1050   20.8540 N   0  0  0  0  0  0  0  0  0  0  0  0
    5.9870    0.6240   19.7840 C   0  0  0  0  0  0  0  0  0  0  0  0
    4.8190    1.3300   19.8890 C   0  0  0  0  0  0  0  0  0  0  0  0
    4.3270    1.8870   18.7410 C   0  0  0  0  0  0  0  0  0  0  0  0
    5.0410    1.6890   17.5790 C   0  0  0  0  0  0  0  0  0  0  0  0
    6.1710    0.9790   17.4750 N   0  0  0  0  0  0  0  0  0  0  0  0
    6.6170    0.4620   18.5920 C   0  0  0  0  0  0  0  0  0  0  0  0
    8.4440   -0.7810   20.5740 N   0  0  0  0  0  0  0  0  0  0  0  0
    8.9190   -0.9430   21.7850 C   0  0  0  0  0  0  0  0  0  0  0  0
   10.3160   -1.2810   21.9340 C   0  0  0  0  0  0  0  0  0  0  0  0
   10.5870   -1.3840   23.1790 C   0  0  0  0  0  0  0  0  0  0  0  0
    9.5270   -1.1750   24.2300 C   0  0  0  0  0  0  0  0  0  0  0  0
    8.2750   -0.8530   23.9790 C   0  0  0  0  0  0  0  0  0  0  0  0
    7.9820   -0.7370   22.7310 C   0  0  0  0  0  0  0  0  0  0  0  0
    7.4310   -0.6920   25.0040 N   0  0  0  0  0  0  0  0  0  0  0  0
    6.2440   -0.0470   24.8540 C   0  0  0  0  0  0  0  0  0  0  0  0
    5.5330   -0.0020   23.6990 O   0  0  0  0  0  0  0  0  0  0  0  0
    5.6400    0.6620   26.0390 C   0  0  0  0  0  0  0  0  0  0  0  0
    6.4910    1.8070   26.5530 C   0  0  0  0  0  0  0  0  0  0  0  0
    6.7150    1.5160   27.8760 C   0  0  0  0  0  0  0  0  0  0  0  0
    5.9780    0.3670   28.1840 C   0  0  0  0  0  0  0  0  0  0  0  0
    5.4040   -0.2770   27.0600 C   0  0  0  0  0  0  0  0  0  0  0  0
    8.3570   -0.5350   26.1190 C   0  0  0  0  0  0  0  0  0  0  0  0
    9.4790   -1.2560   25.6770 C   0  0  0  0  0  0  0  0  0  0  0  0
  1  2  2  0
  2  3  1  0
  3  4  1  0
  4  5  2  0
  5  6  1  0
  6  7  2  0
  7  8  1  0
  4  9  1  0
  8  9  2  0
  2 10  1  0
 10 11  1  0
 11 12  2  0
 12 13  1  0
 13 14  2  0
 14 15  1  0
 11 16  1  0
 15 16  2  0
 15 17  1  0
 17 18  1  0
 18 19  2  0
 18 20  1  0
 20 21  1  0
 21 22  1  0
 22 23  1  0
 20 24  1  0
 23 24  1  0
 17 25  1  0
 14 26  1  0
 25 26  1  0
M  END
