pyridine_urea_10049
     RDKit          3D

 24 26  0  0  0  0  0  0  0  0999 V2000
   10.4730    6.7150   22.7100 C   0  0  0  0  0  0  0  0  0  0  0  0
   11.2010    5.3990   22.8280 C   0  0  0  0  0  0  0  0  0  0  0  0
   10.6570    4.3290   23.4900 C   0  0  0  0  0  0  0  0  0  0  0  0
   11.3440    3.1400   23.5970 C   0  0  0  0  0  0  0  0  0  0  0  0
   12.6090    3.0000   23.0350 C   0  0  0  0  0  0  0  0  0  0  0  0
   13.2300    1.9240   23.1490 O   0  0  0  0  0  0  0  0  0  0  0  0
   12.3390    0.9630   22.9960 C   0  0  0  0  0  0  0  0  0  0  0  0
   10.9460    1.2890   23.4260 C   0  0  0  0  0  0  0  0  0  0  0  0
    9.9160    0.4740   23.2630 C   0  0  0  0  0  0  0  0  0  0  0  0
   10.1670   -0.7370   22.6560 C   0  0  0  0  0  0  0  0  0  0  0  0
    9.0450   -1.5030   22.4040 N   0  0  0  0  0  0  0  0  0  0  0  0
    8.2070   -0.6390   21.5270 C   0  0  0  0  0  0  0  0  0  0  0  0
    8.5800    0.5070   21.2990 O   0  0  0  0  0  0  0  0  0  0  0  0
    7.0390   -1.1360   20.9980 N   0  0  0  0  0  0  0  0  0  0  0  0
    6.3400   -0.3300   20.0660 C   0  0  0  0  0  0  0  0  0  0  0  0
    5.0670    0.4070   20.3100 C   0  0  0  0  0  0  0  0  0  0  0  0
    4.5620    1.1590   19.2420 C   0  0  0  0  0  0  0  0  0  0  0  0
    5.2150    1.2170   18.0170 C   0  0  0  0  0  0  0  0  0  0  0  0
    6.3620    0.5520   17.7890 N   0  0  0  0  0  0  0  0  0  0  0  0
    6.8860   -0.1890   18.7940 C   0  0  0  0  0  0  0  0  0  0  0  0
   11.4810   -1.1380   22.2710 C   0  0  0  0  0  0  0  0  0  0  0  0
   12.5910   -0.2860   22.4440 C   0  0  0  0  0  0  0  0  0  0  0  0
   13.1550    4.0940   22.3530 C   0  0  0  0  0  0  0  0  0  0  0  0
   12.4650    5.3150   22.2350 C   0  0  0  0  0  0  0  0  0  0  0  0
  1  2  1  0
  2  3  2  0
  3  4  1  0
  4  5  2  0
  5  6  1  0
  6  7  1  0
  7  8  2  0
  8  9  1  0
  9 10  2  0
 10 11  1  0
 11 12  1  0
 12 13  2  0
 12 14  1  0
 14 15  1  0
 15 16  2  0
 16 17  1  0
 17 18  2  0
 18 19  1  0
 15 20  1  0
 19 20  2  0
 10 21  1  0
  7 22  1  0
 21 22  2  0
  5 23  1  0
  2 24  1  0
 23 24  2  0
M  END
