pyridine_urea_8399
     RDKit          3D

 22 24  0  0  0  0  0  0  0  0999 V2000
   13.3600   -2.4750   20.9160 O   0  0  0  0  0  0  0  0  0  0  0  0
   12.9900   -2.4960   22.0810 C   0  0  0  0  0  0  0  0  0  0  0  0
   11.5260   -2.4680   22.5150 C   0  0  0  0  0  0  0  0  0  0  0  0
   11.7600   -2.6510   24.0530 C   0  0  0  0  0  0  0  0  0  0  0  0
   12.8810   -1.8860   24.1160 C   0  0  2  0  0  0  0  0  0  0  0  0
   12.2400   -0.6260   23.6620 C   0  0  0  0  0  0  0  0  0  0  0  0
   12.8120    0.5890   23.4430 C   0  0  0  0  0  0  0  0  0  0  0  0
   11.9590    1.7450   22.9890 C   0  0  0  0  0  0  0  0  0  0  0  0
   10.4790    1.5400   22.7530 C   0  0  0  0  0  0  0  0  0  0  0  0
   10.0550    0.1280   23.0290 C   0  0  0  0  0  0  0  0  0  0  0  0
    8.6600   -0.1470   22.7960 N   0  0  0  0  0  0  0  0  0  0  0  0
    8.2020    0.3370   21.6110 C   0  0  0  0  0  0  0  0  0  0  0  0
    8.7310    1.4610   21.0180 O   0  0  0  0  0  0  0  0  0  0  0  0
    7.1490   -0.4120   21.0760 N   0  0  0  0  0  0  0  0  0  0  0  0
    6.4670    0.1310   20.0050 C   0  0  0  0  0  0  0  0  0  0  0  0
    5.1700    0.8730   20.2520 C   0  0  0  0  0  0  0  0  0  0  0  0
    4.5270    1.4330   19.1620 C   0  0  0  0  0  0  0  0  0  0  0  0
    5.1120    1.2790   17.9070 C   0  0  0  0  0  0  0  0  0  0  0  0
    6.2560    0.6130   17.6750 N   0  0  0  0  0  0  0  0  0  0  0  0
    6.9040    0.0560   18.7110 C   0  0  0  0  0  0  0  0  0  0  0  0
   10.8970   -0.8370   23.4520 C   0  0  0  0  0  0  0  0  0  0  0  0
   13.7280   -2.5280   23.2650 N   0  0  0  0  0  0  0  0  0  0  0  0
  1  2  2  0
  2  3  1  0
  3  4  1  0
  4  5  1  0
  5  6  1  6
  6  7  2  0
  7  8  1  0
  8  9  2  0
  9 10  1  0
 10 11  1  0
 11 12  1  0
 12 13  2  0
 12 14  1  0
 14 15  1  0
 15 16  2  0
 16 17  1  0
 17 18  2  0
 18 19  1  0
 15 20  1  0
 19 20  2  0
  6 21  1  0
 10 21  2  0
  2 22  1  0
  5 22  1  0
M  END
