pyridine_urea_7886
     RDKit          3D

 25 27  0  0  0  0  0  0  0  0999 V2000
   11.1930   -2.2640   21.7230 C   0  0  0  0  0  0  0  0  0  0  0  0
   10.0230   -2.2120   22.0660 O   0  0  0  0  0  0  0  0  0  0  0  0
    9.8330   -1.4930   23.1900 C   0  0  0  0  0  0  0  0  0  0  0  0
    9.9260   -1.9180   24.3310 O   0  0  0  0  0  0  0  0  0  0  0  0
    9.4820   -0.1840   22.8670 C   0  0  1  0  0  0  0  0  0  0  0  0
   10.2400    0.8250   23.4790 C   0  0  0  0  0  0  0  0  0  0  0  0
   11.0330    0.0250   24.1490 C   0  0  0  0  0  0  0  0  0  0  0  0
   11.2100   -0.3090   25.3720 C   0  0  0  0  0  0  0  0  0  0  0  0
   12.2500   -1.2890   25.1160 N   0  0  0  0  0  0  0  0  0  0  0  0
   12.8140   -1.6950   23.8680 C   0  0  0  0  0  0  0  0  0  0  0  0
   13.3300   -2.0480   22.5930 C   0  0  0  0  0  0  0  0  0  0  0  0
   13.9960   -2.8760   23.3290 C   0  0  0  0  0  0  0  0  0  0  0  0
   13.4650   -2.4950   24.6160 C   0  0  0  0  0  0  0  0  0  0  0  0
   12.4230   -1.4240   24.7140 C   0  0  0  0  0  0  0  0  0  0  0  0
   11.9850   -0.8170   23.5030 C   0  0  0  0  0  0  0  0  0  0  0  0
    9.3220   -0.1450   21.5400 N   0  0  0  0  0  0  0  0  0  0  0  0
    8.2220    0.5310   21.1160 C   0  0  0  0  0  0  0  0  0  0  0  0
    8.2910    1.7280   20.8870 O   0  0  0  0  0  0  0  0  0  0  0  0
    7.1530   -0.2710   20.9790 N   0  0  0  0  0  0  0  0  0  0  0  0
    6.3720    0.2840   19.9910 C   0  0  0  0  0  0  0  0  0  0  0  0
    5.1960    0.9910   20.2070 C   0  0  0  0  0  0  0  0  0  0  0  0
    4.5330    1.5250   19.1200 C   0  0  0  0  0  0  0  0  0  0  0  0
    5.0820    1.3230   17.8710 C   0  0  0  0  0  0  0  0  0  0  0  0
    6.2000    0.6360   17.6300 N   0  0  0  0  0  0  0  0  0  0  0  0
    6.8210    0.1290   18.6980 C   0  0  0  0  0  0  0  0  0  0  0  0
  1  2  1  0
  2  3  1  0
  3  4  2  0
  3  5  1  0
  5  6  1  6
  6  7  1  0
  7  8  2  0
  8  9  1  0
  9 10  1  0
 10 11  1  0
 11 12  2  0
 12 13  1  0
 13 14  2  0
  7 15  1  0
 10 15  2  0
 14 15  1  0
  5 16  1  0
 16 17  1  0
 17 18  2  0
 17 19  1  0
 19 20  1  0
 20 21  2  0
 21 22  1  0
 22 23  2  0
 23 24  1  0
 20 25  1  0
 24 25  2  0
M  END
