pyridine_urea_6921
     RDKit          3D

 21 22  0  0  0  0  0  0  0  0999 V2000
   15.4740   -5.5750   19.7380 C   0  0  0  0  0  0  0  0  0  0  0  0
   14.7090   -4.3790   20.1760 C   0  0  0  0  0  0  0  0  0  0  0  0
   14.1520   -4.4250   21.1810 C   0  0  0  0  0  0  0  0  0  0  0  0
   13.3680   -3.4280   21.9860 C   0  0  0  0  0  0  0  0  0  0  0  0
   13.1840   -2.2300   21.5800 C   0  0  0  0  0  0  0  0  0  0  0  0
   12.5940   -1.2950   22.0940 O   0  0  0  0  0  0  0  0  0  0  0  0
   11.2860   -1.4920   22.4160 C   0  0  0  0  0  0  0  0  0  0  0  0
   10.4680   -0.2870   22.9010 C   0  0  2  0  0  0  0  0  0  0  0  0
   10.6190    0.0260   24.2540 C   0  0  0  0  0  0  0  0  0  0  0  0
    9.0950   -0.5420   22.7210 N   0  0  0  0  0  0  0  0  0  0  0  0
    8.4060    0.1470   21.5900 C   0  0  0  0  0  0  0  0  0  0  0  0
    8.8570    1.4420   21.1200 O   0  0  0  0  0  0  0  0  0  0  0  0
    7.2770   -0.6110   21.0770 N   0  0  0  0  0  0  0  0  0  0  0  0
    6.5510    0.0280   20.0720 C   0  0  0  0  0  0  0  0  0  0  0  0
    5.3950    0.7720   20.3260 C   0  0  0  0  0  0  0  0  0  0  0  0
    4.6690    1.4540   19.2280 C   0  0  0  0  0  0  0  0  0  0  0  0
    5.1200    1.3710   17.9210 C   0  0  0  0  0  0  0  0  0  0  0  0
    6.2740    0.6030   17.7330 N   0  0  0  0  0  0  0  0  0  0  0  0
    6.9400   -0.0270   18.7390 C   0  0  0  0  0  0  0  0  0  0  0  0
   13.7670   -2.1020   20.4600 C   0  0  0  0  0  0  0  0  0  0  0  0
   14.5440   -3.2650   19.7790 C   0  0  0  0  0  0  0  0  0  0  0  0
  1  2  1  0
  2  3  2  0
  3  4  1  0
  4  5  2  0
  5  6  1  0
  6  7  1  0
  7  8  1  0
  8  9  1  1
  8 10  1  0
 10 11  1  0
 11 12  2  0
 11 13  1  0
 13 14  1  0
 14 15  2  0
 15 16  1  0
 16 17  2  0
 17 18  1  0
 14 19  1  0
 18 19  2  0
  5 20  1  0
  2 21  1  0
 20 21  2  0
M  END
