pyridine_urea_15050
     RDKit          3D

 19 21  0  0  0  0  0  0  0  0999 V2000
   12.5080   -1.7400   21.7650 C   0  0  0  0  0  0  0  0  0  0  0  0
   11.5040   -1.5140   22.9140 C   0  0  0  0  0  0  0  0  0  0  0  0
   10.6550   -2.7490   23.1430 C   0  0  0  0  0  0  0  0  0  0  0  0
   10.5680   -0.2690   22.7580 C   0  0  1  0  0  0  0  0  0  0  0  0
    9.1390   -0.5450   22.4830 N   0  0  0  0  0  0  0  0  0  0  0  0
    8.5040    0.1810   21.4920 C   0  0  0  0  0  0  0  0  0  0  0  0
    8.8980    1.3000   21.1490 O   0  0  0  0  0  0  0  0  0  0  0  0
    7.3840   -0.4950   20.9610 N   0  0  0  0  0  0  0  0  0  0  0  0
    6.5640    0.1020   20.0270 C   0  0  0  0  0  0  0  0  0  0  0  0
    5.2470    0.8150   20.3440 C   0  0  0  0  0  0  0  0  0  0  0  0
    4.5990    1.3640   19.2330 C   0  0  0  0  0  0  0  0  0  0  0  0
    5.1440    1.2330   17.9660 C   0  0  0  0  0  0  0  0  0  0  0  0
    6.2880    0.5990   17.6920 N   0  0  0  0  0  0  0  0  0  0  0  0
    6.9610    0.0470   18.7120 C   0  0  0  0  0  0  0  0  0  0  0  0
   10.9220    0.0090   24.1150 C   0  0  2  0  0  0  0  0  0  0  0  0
   11.4290    1.0290   23.2970 C   0  0  0  0  0  0  0  0  0  0  0  0
   12.8770    0.8410   23.0700 C   0  0  0  0  0  0  0  0  0  0  0  0
   13.2940   -0.1390   23.8860 O   0  0  0  0  0  0  0  0  0  0  0  0
   12.1470   -0.9250   24.1130 C   0  0  2  0  0  0  0  0  0  0  0  0
  2  1  1  0
  2  3  1  0
  2  4  1  0
  4  5  1  1
  5  6  1  0
  6  7  2  0
  6  8  1  0
  8  9  1  0
  9 10  2  0
 10 11  1  0
 11 12  2  0
 12 13  1  0
  9 14  1  0
 13 14  2  0
  4 15  1  0
 15 16  1  6
 16 17  1  0
 17 18  1  0
  2 19  1  0
 15 19  1  0
 19 18  1  6
M  END
