pyridine_urea_4058
     RDKit          3D

 26 27  0  0  0  0  0  0  0  0999 V2000
    8.9480    1.4190   21.0820 O   0  0  0  0  0  0  0  0  0  0  0  0
    8.1610    0.6210   21.5780 C   0  0  0  0  0  0  0  0  0  0  0  0
    7.3080   -0.2320   20.9510 N   0  0  0  0  0  0  0  0  0  0  0  0
    6.5550    0.2710   19.9230 C   0  0  0  0  0  0  0  0  0  0  0  0
    5.3790    0.9600   20.2200 C   0  0  0  0  0  0  0  0  0  0  0  0
    4.6310    1.5010   19.1830 C   0  0  0  0  0  0  0  0  0  0  0  0
    5.1040    1.3220   17.9070 C   0  0  0  0  0  0  0  0  0  0  0  0
    6.2190    0.6500   17.6070 N   0  0  0  0  0  0  0  0  0  0  0  0
    6.9160    0.1420   18.6230 C   0  0  0  0  0  0  0  0  0  0  0  0
    8.0040    0.5310   22.9060 N   0  0  0  0  0  0  0  0  0  0  0  0
    8.9370   -0.2130   23.6560 C   0  0  2  0  0  0  0  0  0  0  0  0
    9.7360    0.5910   24.6130 C   0  0  0  0  0  0  0  0  0  0  0  0
   10.4370   -0.3040   25.3370 C   0  0  0  0  0  0  0  0  0  0  0  0
   10.1510   -0.2940   26.6390 F   0  0  0  0  0  0  0  0  0  0  0  0
   10.0770   -1.5230   24.8720 F   0  0  0  0  0  0  0  0  0  0  0  0
   11.7730   -0.2570   25.1580 F   0  0  0  0  0  0  0  0  0  0  0  0
    9.9930   -0.8740   22.8830 C   0  0  0  0  0  0  0  0  0  0  0  0
    9.6320   -1.8100   22.1290 C   0  0  0  0  0  0  0  0  0  0  0  0
   10.8880   -2.1180   21.6750 C   0  0  0  0  0  0  0  0  0  0  0  0
   12.0770   -1.3750   22.1290 C   0  0  0  0  0  0  0  0  0  0  0  0
   13.1430   -2.0130   21.4850 C   0  0  0  0  0  0  0  0  0  0  0  0
   13.9300   -1.1670   20.8360 F   0  0  0  0  0  0  0  0  0  0  0  0
   13.7240   -2.7220   22.4850 F   0  0  0  0  0  0  0  0  0  0  0  0
   12.7540   -2.8590   20.5540 F   0  0  0  0  0  0  0  0  0  0  0  0
   12.2610   -0.2230   23.0570 C   0  0  0  0  0  0  0  0  0  0  0  0
   11.2890   -0.9220   22.6200 C   0  0  0  0  0  0  0  0  0  0  0  0
  1  2  2  0
  2  3  1  0
  3  4  1  0
  4  5  2  0
  5  6  1  0
  6  7  2  0
  7  8  1  0
  4  9  1  0
  8  9  2  0
  2 10  1  0
 10 11  1  0
 11 12  1  1
 12 13  1  0
 13 14  1  0
 13 15  1  0
 13 16  1  0
 11 17  1  0
 17 18  2  0
 18 19  1  0
 19 20  2  0
 20 21  1  0
 21 22  1  0
 21 23  1  0
 21 24  1  0
 20 25  1  0
 17 26  1  0
 25 26  2  0
M  END
