pyridine_urea_8328
     RDKit          3D

 23 24  0  0  0  0  0  0  0  0999 V2000
   11.3330    0.5150   23.9550 C   0  0  0  0  0  0  0  0  0  0  0  0
   10.1190   -0.0600   24.7260 C   0  0  0  0  0  0  0  0  0  0  0  0
    9.2300   -0.6600   23.6130 C   0  0  1  0  0  0  0  0  0  0  0  0
    8.3610    0.2760   22.9690 N   0  0  0  0  0  0  0  0  0  0  0  0
    8.2710    0.4910   21.6300 C   0  0  0  0  0  0  0  0  0  0  0  0
    8.9140    1.3810   21.0710 O   0  0  0  0  0  0  0  0  0  0  0  0
    7.3200   -0.4100   21.0220 N   0  0  0  0  0  0  0  0  0  0  0  0
    6.5540    0.1590   20.0560 C   0  0  0  0  0  0  0  0  0  0  0  0
    5.3780    0.8280   20.3960 C   0  0  0  0  0  0  0  0  0  0  0  0
    4.5960    1.4650   19.2710 C   0  0  0  0  0  0  0  0  0  0  0  0
    5.1520    1.3260   17.8880 C   0  0  0  0  0  0  0  0  0  0  0  0
    6.2890    0.6500   17.6600 N   0  0  0  0  0  0  0  0  0  0  0  0
    6.9390    0.0970   18.7210 C   0  0  0  0  0  0  0  0  0  0  0  0
   10.2220   -1.2880   22.7450 C   0  0  0  0  0  0  0  0  0  0  0  0
   10.2350   -2.1000   21.5910 C   0  0  0  0  0  0  0  0  0  0  0  0
   11.7860   -2.2670   21.5150 C   0  0  0  0  0  0  0  0  0  0  0  0
   12.6630   -1.6190   22.5120 C   0  0  0  0  0  0  0  0  0  0  0  0
   13.9160   -1.7330   22.6260 O   0  0  0  0  0  0  0  0  0  0  0  0
   13.8720   -2.6950   23.6780 C   0  0  0  0  0  0  0  0  0  0  0  0
   14.0090   -2.1830   24.9280 F   0  0  0  0  0  0  0  0  0  0  0  0
   12.5950   -3.1410   23.7040 F   0  0  0  0  0  0  0  0  0  0  0  0
   12.2820   -0.7070   23.6780 C   0  0  0  0  0  0  0  0  0  0  0  0
   11.5080   -1.2660   22.8460 C   0  0  0  0  0  0  0  0  0  0  0  0
  1  2  1  0
  3  2  1  1
  3  4  1  0
  4  5  1  0
  5  6  2  0
  5  7  1  0
  7  8  1  0
  8  9  2  0
  9 10  1  0
 10 11  2  0
 11 12  1  0
  8 13  1  0
 12 13  2  0
  3 14  1  0
 14 15  2  0
 15 16  1  0
 16 17  2  0
 17 18  1  0
 18 19  1  0
 19 20  1  0
 19 21  1  0
 17 22  1  0
 14 23  1  0
 22 23  2  0
M  END
