pyridine_urea_6247
     RDKit          3D

 24 26  0  0  0  0  0  0  0  0999 V2000
    8.1490    1.7060   23.5480 O   0  0  0  0  0  0  0  0  0  0  0  0
    8.1640    0.4790   23.5330 C   0  0  0  0  0  0  0  0  0  0  0  0
    9.1840   -0.1750   23.4840 C   0  0  0  0  0  0  0  0  0  0  0  0
    9.2820   -0.7460   22.1810 N   0  0  0  0  0  0  0  0  0  0  0  0
    8.5240    0.1150   21.3350 C   0  0  0  0  0  0  0  0  0  0  0  0
    8.9140    1.2570   21.0360 O   0  0  0  0  0  0  0  0  0  0  0  0
    7.2800   -0.4460   20.9210 N   0  0  0  0  0  0  0  0  0  0  0  0
    6.6240    0.1070   19.9130 C   0  0  0  0  0  0  0  0  0  0  0  0
    5.5200    0.8350   20.2320 C   0  0  0  0  0  0  0  0  0  0  0  0
    4.6180    1.5960   19.2640 C   0  0  0  0  0  0  0  0  0  0  0  0
    5.0910    1.4590   17.8720 C   0  0  0  0  0  0  0  0  0  0  0  0
    6.2150    0.6900   17.6290 N   0  0  0  0  0  0  0  0  0  0  0  0
    6.9700    0.0240   18.6070 C   0  0  0  0  0  0  0  0  0  0  0  0
    7.0320   -0.3030   23.5610 N   0  0  0  0  0  0  0  0  0  0  0  0
    7.0350   -1.6430   23.4100 C   0  0  0  0  0  0  0  0  0  0  0  0
    7.8540   -2.4500   24.1910 C   0  0  0  0  0  0  0  0  0  0  0  0
    8.0060   -3.7630   24.1990 N   0  0  0  0  0  0  0  0  0  0  0  0
    7.1990   -4.4260   23.2630 C   0  0  0  0  0  0  0  0  0  0  0  0
    7.3410   -5.8090   23.2650 C   0  0  0  0  0  0  0  0  0  0  0  0
    6.6660   -6.9060   22.4220 C   0  0  0  0  0  0  0  0  0  0  0  0
    5.7800   -6.0350   21.5570 C   0  0  0  0  0  0  0  0  0  0  0  0
    5.6190   -4.5630   21.5460 C   0  0  0  0  0  0  0  0  0  0  0  0
    6.3270   -3.7970   22.4000 C   0  0  0  0  0  0  0  0  0  0  0  0
    6.1980   -2.4280   22.4200 C   0  0  0  0  0  0  0  0  0  0  0  0
  1  2  2  0
  2  3  1  0
  3  4  1  0
  4  5  1  0
  5  6  2  0
  5  7  1  0
  7  8  1  0
  8  9  2  0
  9 10  1  0
 10 11  2  0
 11 12  1  0
  8 13  1  0
 12 13  2  0
  2 14  1  0
 14 15  1  0
 15 16  2  0
 16 17  1  0
 17 18  2  0
 18 19  1  0
 19 20  2  0
 20 21  1  0
 21 22  2  0
 18 23  1  0
 22 23  1  0
 15 24  1  0
 23 24  2  0
M  END
