pyridine_urea_10838
     RDKit          3D

 20 21  0  0  0  0  0  0  0  0999 V2000
    8.5360    0.9890   21.1350 O   0  0  0  0  0  0  0  0  0  0  0  0
    8.2010   -0.1200   21.5240 C   0  0  0  0  0  0  0  0  0  0  0  0
    6.9910   -0.7550   21.0460 N   0  0  0  0  0  0  0  0  0  0  0  0
    6.3650   -0.0590   20.0280 C   0  0  0  0  0  0  0  0  0  0  0  0
    5.1770    0.6340   20.2600 C   0  0  0  0  0  0  0  0  0  0  0  0
    4.5920    1.3350   19.2010 C   0  0  0  0  0  0  0  0  0  0  0  0
    5.2160    1.3170   17.9500 C   0  0  0  0  0  0  0  0  0  0  0  0
    6.3560    0.6470   17.7230 N   0  0  0  0  0  0  0  0  0  0  0  0
    6.9070   -0.0280   18.7590 C   0  0  0  0  0  0  0  0  0  0  0  0
    8.8910   -0.8820   22.4210 N   0  0  0  0  0  0  0  0  0  0  0  0
   10.2640   -0.4970   22.6090 C   0  0  0  0  0  0  0  0  0  0  0  0
   10.5500    0.9650   22.8940 C   0  0  0  0  0  0  0  0  0  0  0  0
   11.8680    1.3420   23.0560 C   0  0  0  0  0  0  0  0  0  0  0  0
   12.0980    2.6400   23.2880 F   0  0  0  0  0  0  0  0  0  0  0  0
   12.8940    0.3980   22.9700 C   0  0  0  0  0  0  0  0  0  0  0  0
   12.5580   -0.9310   22.7100 C   0  0  0  0  0  0  0  0  0  0  0  0
   13.4120   -2.0240   22.5790 N   0  0  0  0  0  0  0  0  0  0  0  0
   13.7320   -2.6860   23.7550 O   0  0  0  0  0  0  0  0  0  0  0  0
   13.3510   -2.5710   21.4730 O   0  0  0  0  0  0  0  0  0  0  0  0
   11.2930   -1.4010   22.5270 C   0  0  0  0  0  0  0  0  0  0  0  0
  1  2  2  0
  2  3  1  0
  3  4  1  0
  4  5  2  0
  5  6  1  0
  6  7  2  0
  7  8  1  0
  4  9  1  0
  8  9  2  0
  2 10  1  0
 10 11  1  0
 11 12  2  0
 12 13  1  0
 13 14  1  0
 13 15  2  0
 15 16  1  0
 16 17  1  0
 17 18  2  0
 17 19  1  0
 11 20  1  0
 16 20  2  0
M  CHG  2  17   1  19  -1
M  END
