pyridine_urea_4072
     RDKit          3D

 26 28  0  0  0  0  0  0  0  0999 V2000
   11.8940   -2.3890   22.5130 C   0  0  0  0  0  0  0  0  0  0  0  0
   11.6130   -0.9330   22.6290 C   0  0  0  0  0  0  0  0  0  0  0  0
   12.6300    0.0070   22.8440 C   0  0  0  0  0  0  0  0  0  0  0  0
   12.6930    1.4300   22.9710 C   0  0  0  0  0  0  0  0  0  0  0  0
   12.3030    2.7690   23.0290 C   0  0  0  0  0  0  0  0  0  0  0  0
   13.3490    3.7610   22.8800 N   0  0  0  0  0  0  0  0  0  0  0  0
   12.9520    5.0770   22.7740 C   0  0  0  0  0  0  0  0  0  0  0  0
   12.1750    5.5330   23.8470 C   0  0  1  0  0  0  0  0  0  0  0  0
   11.4950    6.8700   23.5190 C   0  0  0  0  0  0  0  0  0  0  0  0
   10.4870    7.0890   24.4390 C   0  0  0  0  0  0  0  0  0  0  0  0
    9.5920    6.0210   24.4050 C   0  0  0  0  0  0  0  0  0  0  0  0
   10.1690    4.9600   23.7150 C   0  0  0  0  0  0  0  0  0  0  0  0
   11.2870    4.7470   24.1670 O   0  0  0  0  0  0  0  0  0  0  0  0
   11.3160    1.7130   22.8590 C   0  0  0  0  0  0  0  0  0  0  0  0
   10.1970    0.9700   22.6670 C   0  0  0  0  0  0  0  0  0  0  0  0
   10.3440   -0.4500   22.5210 C   0  0  0  0  0  0  0  0  0  0  0  0
    9.1810   -1.1470   22.2700 N   0  0  0  0  0  0  0  0  0  0  0  0
    8.2400   -0.3930   21.4320 C   0  0  0  0  0  0  0  0  0  0  0  0
    8.4690    0.7640   21.0710 O   0  0  0  0  0  0  0  0  0  0  0  0
    7.1110   -1.0200   21.0640 N   0  0  0  0  0  0  0  0  0  0  0  0
    6.4290   -0.2760   20.1420 C   0  0  0  0  0  0  0  0  0  0  0  0
    5.2330    0.4300   20.3410 C   0  0  0  0  0  0  0  0  0  0  0  0
    4.6260    1.1750   19.3210 C   0  0  0  0  0  0  0  0  0  0  0  0
    5.2330    1.2150   18.0700 C   0  0  0  0  0  0  0  0  0  0  0  0
    6.3740    0.5710   17.7810 N   0  0  0  0  0  0  0  0  0  0  0  0
    6.9400   -0.1740   18.8640 C   0  0  0  0  0  0  0  0  0  0  0  0
  1  2  1  0
  2  3  2  0
  3  4  1  0
  4  5  1  0
  5  6  1  0
  6  7  1  0
  8  7  1  6
  8  9  1  0
  9 10  1  0
 10 11  1  0
 11 12  1  0
  8 13  1  0
 12 13  1  0
  4 14  2  0
 14 15  1  0
  2 16  1  0
 15 16  2  0
 16 17  1  0
 17 18  1  0
 18 19  2  0
 18 20  1  0
 20 21  1  0
 21 22  2  0
 22 23  1  0
 23 24  2  0
 24 25  1  0
 21 26  1  0
 25 26  2  0
M  END
