pyridine_urea_1635
     RDKit          3D

 19 20  0  0  0  0  0  0  0  0999 V2000
    5.7650    1.6260   22.4970 C   0  0  0  0  0  0  0  0  0  0  0  0
    4.8690    1.0010   21.6630 N   0  0  0  0  0  0  0  0  0  0  0  0
    3.6010    0.4900   21.9980 C   0  0  0  0  0  0  0  0  0  0  0  0
    5.3800    0.8120   20.3970 C   0  0  0  0  0  0  0  0  0  0  0  0
    4.7700    1.4170   19.3110 C   0  0  0  0  0  0  0  0  0  0  0  0
    5.2640    1.2450   18.0540 C   0  0  0  0  0  0  0  0  0  0  0  0
    6.3380    0.4990   17.7700 N   0  0  0  0  0  0  0  0  0  0  0  0
    6.9630   -0.1170   18.8230 C   0  0  0  0  0  0  0  0  0  0  0  0
    6.5260    0.0130   20.1500 C   0  0  0  0  0  0  0  0  0  0  0  0
    7.1300   -0.5720   21.2160 N   0  0  0  0  0  0  0  0  0  0  0  0
    8.4000   -0.1790   21.5180 C   0  0  0  0  0  0  0  0  0  0  0  0
    8.7140    0.9520   21.1670 O   0  0  0  0  0  0  0  0  0  0  0  0
    9.2130   -1.0570   22.1880 N   0  0  0  0  0  0  0  0  0  0  0  0
   10.4240   -0.5440   22.4490 C   0  0  0  0  0  0  0  0  0  0  0  0
   11.5200   -1.3380   22.3340 C   0  0  0  0  0  0  0  0  0  0  0  0
   12.7740   -0.8900   22.5730 C   0  0  0  0  0  0  0  0  0  0  0  0
   13.1300    0.3830   22.9510 C   0  0  0  0  0  0  0  0  0  0  0  0
   11.8850    0.9780   22.9960 N   0  0  0  0  0  0  0  0  0  0  0  0
   10.5150    0.7900   22.8200 C   0  0  0  0  0  0  0  0  0  0  0  0
  1  2  1  0
  2  3  1  0
  2  4  1  0
  4  5  2  0
  5  6  1  0
  6  7  2  0
  7  8  1  0
  4  9  1  0
  8  9  2  0
  9 10  1  0
 10 11  1  0
 11 12  2  0
 11 13  1  0
 13 14  1  0
 14 15  2  0
 15 16  1  0
 16 17  2  0
 17 18  1  0
 14 19  1  0
 18 19  2  0
M  END
