pyridine_urea_11739
     RDKit          3D

 26 28  0  0  0  0  0  0  0  0999 V2000
    8.5800    0.6950   21.1540 O   0  0  0  0  0  0  0  0  0  0  0  0
    8.1050   -0.3660   21.5420 C   0  0  0  0  0  0  0  0  0  0  0  0
    6.9630   -0.8950   21.0330 N   0  0  0  0  0  0  0  0  0  0  0  0
    6.3480   -0.1800   20.0010 C   0  0  0  0  0  0  0  0  0  0  0  0
    5.1460    0.4980   20.2350 C   0  0  0  0  0  0  0  0  0  0  0  0
    4.5460    1.2290   19.2070 C   0  0  0  0  0  0  0  0  0  0  0  0
    5.1730    1.2560   17.9780 C   0  0  0  0  0  0  0  0  0  0  0  0
    6.3220    0.6100   17.7320 N   0  0  0  0  0  0  0  0  0  0  0  0
    6.8780   -0.0880   18.7360 C   0  0  0  0  0  0  0  0  0  0  0  0
    8.7450   -1.0330   22.5430 N   0  0  0  0  0  0  0  0  0  0  0  0
    9.8260   -0.1430   22.8560 C   0  0  0  0  0  0  0  0  0  0  0  0
    9.5390    0.9700   23.8390 C   0  0  0  0  0  0  0  0  0  0  0  0
   10.5560    1.8500   24.0800 C   0  0  0  0  0  0  0  0  0  0  0  0
   11.7750    1.7170   23.4560 C   0  0  0  0  0  0  0  0  0  0  0  0
   12.0070    0.7050   22.5900 C   0  0  0  0  0  0  0  0  0  0  0  0
   13.1480    0.5810   22.0160 O   0  0  0  0  0  0  0  0  0  0  0  0
   13.2090   -0.4220   22.7120 C   0  0  0  0  0  0  0  0  0  0  0  0
   12.9540   -0.0450   23.9850 C   0  0  0  0  0  0  0  0  0  0  0  0
   12.9790   -1.1340   24.9000 C   0  0  0  0  0  0  0  0  0  0  0  0
   13.2630   -2.4800   24.3760 C   0  0  0  0  0  0  0  0  0  0  0  0
   13.2630   -3.4370   25.1860 N   0  0  0  0  0  0  0  0  0  0  0  0
   12.1060   -3.8610   25.1910 O   0  0  0  0  0  0  0  0  0  0  0  0
   14.0290   -3.3680   26.1520 O   0  0  0  0  0  0  0  0  0  0  0  0
   13.4980   -2.6700   23.0370 C   0  0  0  0  0  0  0  0  0  0  0  0
   13.4700   -1.6360   22.1900 C   0  0  0  0  0  0  0  0  0  0  0  0
   11.0450   -0.2480   22.2800 C   0  0  0  0  0  0  0  0  0  0  0  0
  1  2  2  0
  2  3  1  0
  3  4  1  0
  4  5  2  0
  5  6  1  0
  6  7  2  0
  7  8  1  0
  4  9  1  0
  8  9  2  0
  2 10  1  0
 10 11  1  0
 11 12  2  0
 12 13  1  0
 13 14  2  0
 14 15  1  0
 15 16  1  0
 16 17  1  0
 17 18  2  0
 18 19  1  0
 19 20  2  0
 20 21  1  0
 21 22  2  0
 21 23  1  0
 20 24  1  0
 17 25  1  0
 24 25  2  0
 11 26  1  0
 15 26  2  0
M  CHG  2  21   1  23  -1
M  END
