pyridine_urea_9941
     RDKit          3D

 24 26  0  0  0  0  0  0  0  0999 V2000
    9.1320   -1.6070   24.0430 C   0  0  0  0  0  0  0  0  0  0  0  0
    9.4790   -0.3180   23.6240 N   0  0  0  0  0  0  0  0  0  0  0  0
    8.4450    0.6760   23.3140 C   0  0  0  0  0  0  0  0  0  0  0  0
    8.4500    2.1130   23.2780 C   0  0  0  0  0  0  0  0  0  0  0  0
    8.0430    2.7790   22.0770 C   0  0  0  0  0  0  0  0  0  0  0  0
    8.0120    4.1790   21.9930 C   0  0  0  0  0  0  0  0  0  0  0  0
    8.3750    4.9570   23.0590 C   0  0  0  0  0  0  0  0  0  0  0  0
    8.8030    4.2830   24.3310 C   0  0  0  0  0  0  0  0  0  0  0  0
    8.8270    2.9090   24.4120 C   0  0  0  0  0  0  0  0  0  0  0  0
   10.7810   -0.4270   22.8750 C   0  0  0  0  0  0  0  0  0  0  0  0
   10.5720   -1.3660   21.9080 C   0  0  0  0  0  0  0  0  0  0  0  0
    9.2600   -1.4370   21.4730 N   0  0  0  0  0  0  0  0  0  0  0  0
    8.4290   -0.3380   21.2190 C   0  0  0  0  0  0  0  0  0  0  0  0
    8.8580    0.8090   21.1620 O   0  0  0  0  0  0  0  0  0  0  0  0
    7.1320   -0.6850   21.0460 N   0  0  0  0  0  0  0  0  0  0  0  0
    6.4180    0.0280   19.9850 C   0  0  0  0  0  0  0  0  0  0  0  0
    5.2600    0.7260   20.5140 C   0  0  0  0  0  0  0  0  0  0  0  0
    4.7660    1.3350   19.3120 C   0  0  0  0  0  0  0  0  0  0  0  0
    5.1880    1.3250   17.9950 C   0  0  0  0  0  0  0  0  0  0  0  0
    6.2690    0.6280   17.6680 N   0  0  0  0  0  0  0  0  0  0  0  0
    6.8820   -0.0220   18.6910 C   0  0  0  0  0  0  0  0  0  0  0  0
   11.9910   -1.0550   23.6600 C   0  0  0  0  0  0  0  0  0  0  0  0
   12.7450    0.0380   23.5160 C   0  0  0  0  0  0  0  0  0  0  0  0
   11.7080    0.6650   22.9170 C   0  0  0  0  0  0  0  0  0  0  0  0
  1  2  1  0
  2  3  1  0
  3  4  1  0
  4  5  2  0
  5  6  1  0
  6  7  2  0
  7  8  1  0
  4  9  1  0
  8  9  2  0
 10  2  1  0
 10 11  1  0
 11 12  1  0
 12 13  1  0
 13 14  2  0
 13 15  1  0
 15 16  1  0
 16 17  2  0
 17 18  1  0
 18 19  2  0
 19 20  1  0
 16 21  1  0
 20 21  2  0
 10 22  1  0
 22 23  1  0
 10 24  1  0
 23 24  1  0
M  END
