pyridine_urea_6147
     RDKit          3D

 24 27  0  0  0  0  0  0  0  0999 V2000
    9.7660    0.0580   24.5670 C   0  0  0  0  0  0  0  0  0  0  0  0
    9.8020    0.1130   23.3660 C   0  0  2  0  0  0  0  0  0  0  0  0
    8.6130   -0.4890   22.7990 N   0  0  0  0  0  0  0  0  0  0  0  0
    8.1950    0.2020   21.6180 C   0  0  0  0  0  0  0  0  0  0  0  0
    8.8710    1.3790   21.1380 O   0  0  0  0  0  0  0  0  0  0  0  0
    7.0460   -0.4060   21.0370 N   0  0  0  0  0  0  0  0  0  0  0  0
    6.4710    0.1240   19.9680 C   0  0  0  0  0  0  0  0  0  0  0  0
    5.3490    0.8490   20.2410 C   0  0  0  0  0  0  0  0  0  0  0  0
    4.5600    1.5750   19.1610 C   0  0  0  0  0  0  0  0  0  0  0  0
    5.0890    1.4480   17.7950 C   0  0  0  0  0  0  0  0  0  0  0  0
    6.2220    0.6770   17.6450 N   0  0  0  0  0  0  0  0  0  0  0  0
    6.9120    0.0190   18.6750 C   0  0  0  0  0  0  0  0  0  0  0  0
   10.9420   -0.6900   22.6980 C   0  0  0  0  0  0  0  0  0  0  0  0
   10.7060   -1.3960   21.6620 C   0  0  0  0  0  0  0  0  0  0  0  0
   12.1460   -1.3390   21.9960 C   0  0  0  0  0  0  0  0  0  0  0  0
   11.7570   -0.4480   23.1060 C   0  0  0  0  0  0  0  0  0  0  0  0
   11.8000    0.1750   24.1190 N   0  0  0  0  0  0  0  0  0  0  0  0
   12.7680   -0.9430   23.8930 C   0  0  0  0  0  0  0  0  0  0  0  0
   13.1470   -1.7240   25.0630 C   0  0  0  0  0  0  0  0  0  0  0  0
   13.6770   -2.9570   24.9840 C   0  0  0  0  0  0  0  0  0  0  0  0
   12.2580   -3.0810   25.1110 C   0  0  0  0  0  0  0  0  0  0  0  0
   13.5650   -1.3970   22.5890 N   0  0  0  0  0  0  0  0  0  0  0  0
   13.2140   -0.5160   23.3000 C   0  0  0  0  0  0  0  0  0  0  0  0
   12.3830   -1.1040   22.5890 C   0  0  0  0  0  0  0  0  0  0  0  0
  2  1  1  1
  2  3  1  0
  3  4  1  0
  4  5  2  0
  4  6  1  0
  6  7  1  0
  7  8  2  0
  8  9  1  0
  9 10  2  0
 10 11  1  0
  7 12  1  0
 11 12  2  0
  2 13  1  0
 13 14  2  0
 14 15  1  0
 15 16  2  0
 16 17  1  0
 17 18  1  0
 18 19  1  0
 19 20  1  0
 19 21  1  0
 20 21  1  0
 18 22  2  0
 16 23  1  0
 22 23  1  0
 13 24  1  0
 23 24  2  0
M  END
