pyridine_urea_7408
     RDKit          3D

 17 18  0  0  0  0  0  0  0  0999 V2000
    9.0540    1.2780   21.3010 O   0  0  0  0  0  0  0  0  0  0  0  0
    8.5160    0.2720   21.7820 C   0  0  0  0  0  0  0  0  0  0  0  0
    8.8800   -0.3700   22.9600 N   0  0  0  0  0  0  0  0  0  0  0  0
    8.8230   -1.7490   23.2000 C   0  0  0  0  0  0  0  0  0  0  0  0
    9.9450   -2.5080   22.8770 C   0  0  0  0  0  0  0  0  0  0  0  0
   11.1590   -2.1400   23.4200 N   0  0  0  0  0  0  0  0  0  0  0  0
   12.0300   -2.7250   24.4330 C   0  0  0  0  0  0  0  0  0  0  0  0
   13.0820   -1.9150   24.5320 C   0  0  0  0  0  0  0  0  0  0  0  0
   12.9240   -0.8740   23.6560 C   0  0  0  0  0  0  0  0  0  0  0  0
   11.7300   -0.9530   22.9230 N   0  0  0  0  0  0  0  0  0  0  0  0
    7.4250   -0.3660   21.1830 N   0  0  0  0  0  0  0  0  0  0  0  0
    6.7070    0.1430   20.1250 C   0  0  0  0  0  0  0  0  0  0  0  0
    5.4750    1.0000   20.3880 C   0  0  0  0  0  0  0  0  0  0  0  0
    4.7590    1.5310   19.3050 C   0  0  0  0  0  0  0  0  0  0  0  0
    5.1620    1.2820   17.9950 C   0  0  0  0  0  0  0  0  0  0  0  0
    6.2710    0.4950   17.7740 N   0  0  0  0  0  0  0  0  0  0  0  0
    7.0050   -0.0470   18.7960 C   0  0  0  0  0  0  0  0  0  0  0  0
  1  2  2  0
  2  3  1  0
  3  4  1  0
  4  5  1  0
  5  6  1  0
  6  7  1  0
  7  8  2  0
  8  9  1  0
  6 10  1  0
  9 10  2  0
  2 11  1  0
 11 12  1  0
 12 13  2  0
 13 14  1  0
 14 15  2  0
 15 16  1  0
 12 17  1  0
 16 17  2  0
M  END
