pyridine_urea_6317
     RDKit          3D

 23 24  0  0  0  0  0  0  0  0999 V2000
    8.9930    0.2950   27.4590 C   0  0  0  0  0  0  0  0  0  0  0  0
    9.0870    0.6560   26.1310 N   0  0  0  0  0  0  0  0  0  0  0  0
    7.9310    1.1820   25.4190 C   0  0  0  0  0  0  0  0  0  0  0  0
    9.9550   -0.2980   25.4570 C   0  0  0  0  0  0  0  0  0  0  0  0
    9.9610   -0.1800   23.9520 C   0  0  2  0  0  0  0  0  0  0  0  0
    9.6360   -1.3430   23.2030 C   0  0  0  0  0  0  0  0  0  0  0  0
    8.7000   -1.4690   22.2090 N   0  0  0  0  0  0  0  0  0  0  0  0
    8.1940   -0.4230   21.4760 C   0  0  0  0  0  0  0  0  0  0  0  0
    8.7750    0.6250   21.2140 O   0  0  0  0  0  0  0  0  0  0  0  0
    6.9260   -0.7220   21.0640 N   0  0  0  0  0  0  0  0  0  0  0  0
    6.2700    0.0270   19.9820 C   0  0  0  0  0  0  0  0  0  0  0  0
    5.1110    0.6410   20.3460 C   0  0  0  0  0  0  0  0  0  0  0  0
    4.6050    1.3680   19.1200 C   0  0  0  0  0  0  0  0  0  0  0  0
    5.2190    1.3820   17.8920 C   0  0  0  0  0  0  0  0  0  0  0  0
    6.3410    0.7440   17.6410 N   0  0  0  0  0  0  0  0  0  0  0  0
    6.8080    0.0950   18.7060 C   0  0  0  0  0  0  0  0  0  0  0  0
   11.4860    0.2240   23.7310 C   0  0  0  0  0  0  0  0  0  0  0  0
   12.5090    0.3620   24.6070 C   0  0  0  0  0  0  0  0  0  0  0  0
   12.2180    0.4750   23.1070 C   0  0  0  0  0  0  0  0  0  0  0  0
   10.7470    0.1030   23.4480 C   0  0  0  0  0  0  0  0  0  0  0  0
    9.0620   -0.2560   23.2860 Cl  0  0  0  0  0  0  0  0  0  0  0  0
   10.6480    0.2240   22.0370 C   0  0  0  0  0  0  0  0  0  0  0  0
   11.8230    0.4490   22.5060 C   0  0  0  0  0  0  0  0  0  0  0  0
  1  2  1  0
  2  3  1  0
  2  4  1  0
  5  4  1  1
  5  6  1  0
  6  7  1  0
  7  8  1  0
  8  9  2  0
  8 10  1  0
 10 11  1  0
 11 12  2  0
 12 13  1  0
 13 14  2  0
 14 15  1  0
 11 16  1  0
 15 16  2  0
  5 17  1  0
 17 18  2  0
 18 19  1  0
 19 20  2  0
 20 21  1  0
 20 22  1  0
 17 23  1  0
 22 23  2  0
M  END
