pyridine_urea_1186
     RDKit          3D

 21 22  0  0  0  0  0  0  0  0999 V2000
    8.3770    1.6010   20.8410 O   0  0  0  0  0  0  0  0  0  0  0  0
    8.3580    0.4380   21.2160 C   0  0  0  0  0  0  0  0  0  0  0  0
    7.2900   -0.3780   21.0020 N   0  0  0  0  0  0  0  0  0  0  0  0
    6.5890    0.1420   19.8930 C   0  0  0  0  0  0  0  0  0  0  0  0
    5.3340    0.9620   20.2110 C   0  0  0  0  0  0  0  0  0  0  0  0
    4.6180    1.5400   19.1790 C   0  0  0  0  0  0  0  0  0  0  0  0
    5.0880    1.3420   17.8890 C   0  0  0  0  0  0  0  0  0  0  0  0
    6.2080    0.5890   17.6570 N   0  0  0  0  0  0  0  0  0  0  0  0
    6.9720   -0.0230   18.6400 C   0  0  0  0  0  0  0  0  0  0  0  0
    9.3680   -0.1340   21.8490 N   0  0  0  0  0  0  0  0  0  0  0  0
   10.3420   -0.5670   22.5970 C   0  0  0  0  0  0  0  0  0  0  0  0
   11.4180   -1.2770   22.0980 C   0  0  0  0  0  0  0  0  0  0  0  0
   12.3650   -1.6810   22.9910 C   0  0  0  0  0  0  0  0  0  0  0  0
   12.1970   -1.3790   24.3430 C   0  0  0  0  0  0  0  0  0  0  0  0
   13.4340   -2.0070   25.3370 Cl  0  0  0  0  0  0  0  0  0  0  0  0
   11.0720   -0.6370   24.8120 C   0  0  0  0  0  0  0  0  0  0  0  0
   10.8820   -0.3650   25.9730 O   0  0  0  0  0  0  0  0  0  0  0  0
    9.5140   -0.1020   26.3880 C   0  0  0  0  0  0  0  0  0  0  0  0
    8.6380   -0.8220   25.6680 F   0  0  0  0  0  0  0  0  0  0  0  0
    9.1520    1.1660   26.2080 F   0  0  0  0  0  0  0  0  0  0  0  0
   10.1710   -0.2460   23.9020 C   0  0  0  0  0  0  0  0  0  0  0  0
  1  2  2  0
  2  3  1  0
  3  4  1  0
  4  5  2  0
  5  6  1  0
  6  7  2  0
  7  8  1  0
  4  9  1  0
  8  9  2  0
  2 10  1  0
 10 11  1  0
 11 12  2  0
 12 13  1  0
 13 14  2  0
 14 15  1  0
 14 16  1  0
 16 17  1  0
 17 18  1  0
 18 19  1  0
 18 20  1  0
 11 21  1  0
 16 21  2  0
M  END
