pyridine_urea_915
     RDKit          3D

 22 24  0  0  0  0  0  0  0  0999 V2000
    8.9040    0.8970   21.3270 O   0  0  0  0  0  0  0  0  0  0  0  0
    8.6330   -0.2910   21.4850 C   0  0  0  0  0  0  0  0  0  0  0  0
    9.3630   -1.1200   22.4110 N   0  0  0  0  0  0  0  0  0  0  0  0
   10.6370   -0.6440   22.5650 C   0  0  0  0  0  0  0  0  0  0  0  0
   10.7810    0.6920   22.8970 C   0  0  0  0  0  0  0  0  0  0  0  0
   12.0610    1.1990   23.0370 C   0  0  0  0  0  0  0  0  0  0  0  0
   13.1420    0.3600   22.8490 C   0  0  0  0  0  0  0  0  0  0  0  0
   13.0330   -0.9400   22.5330 N   0  0  0  0  0  0  0  0  0  0  0  0
   11.7710   -1.4210   22.3930 C   0  0  0  0  0  0  0  0  0  0  0  0
    7.6570   -0.9600   20.8300 N   0  0  0  0  0  0  0  0  0  0  0  0
    6.6130   -0.1000   20.3790 C   0  0  1  0  0  0  0  0  0  0  0  0
    6.8140    0.7200   19.1630 C   0  0  0  0  0  0  0  0  0  0  0  0
    5.5800    0.4950   18.6070 N   0  0  0  0  0  0  0  0  0  0  0  0
    4.5410    1.3850   18.7980 C   0  0  0  0  0  0  0  0  0  0  0  0
    4.2750    2.5740   18.1450 C   0  0  0  0  0  0  0  0  0  0  0  0
    3.1490    3.3570   18.4950 C   0  0  0  0  0  0  0  0  0  0  0  0
    2.2930    2.9480   19.5010 C   0  0  0  0  0  0  0  0  0  0  0  0
    0.7730    3.9540   19.9930 Br  0  0  0  0  0  0  0  0  0  0  0  0
    2.5840    1.7760   20.1310 C   0  0  0  0  0  0  0  0  0  0  0  0
    3.6750    0.9980   19.8070 C   0  0  0  0  0  0  0  0  0  0  0  0
    5.6430   -0.6320   19.4370 C   0  0  0  0  0  0  0  0  0  0  0  0
    4.9960   -1.9020   19.3910 O   0  0  0  0  0  0  0  0  0  0  0  0
  1  2  2  0
  2  3  1  0
  3  4  1  0
  4  5  2  0
  5  6  1  0
  6  7  2  0
  7  8  1  0
  4  9  1  0
  8  9  2  0
  2 10  1  0
 11 10  1  6
 11 12  1  0
 12 13  1  0
 13 14  1  0
 14 15  2  0
 15 16  1  0
 16 17  2  0
 17 18  1  0
 17 19  1  0
 14 20  1  0
 19 20  2  0
 11 21  1  0
 13 21  1  0
 21 22  2  0
M  END
