pyridine_urea_2453
     RDKit          3D

 24 26  0  0  0  0  0  0  0  0999 V2000
   13.0730    1.0030   23.2010 C   0  0  0  0  0  0  0  0  0  0  0  0
   11.7820    1.2880   23.3530 N   0  0  0  0  0  0  0  0  0  0  0  0
   10.3760    1.1740   23.3680 C   0  0  0  0  0  0  0  0  0  0  0  0
    9.7870    0.0450   22.9940 C   0  0  0  0  0  0  0  0  0  0  0  0
    8.4840   -0.2030   22.8970 N   0  0  0  0  0  0  0  0  0  0  0  0
    7.9970    0.2770   21.6290 C   0  0  0  0  0  0  0  0  0  0  0  0
    8.5220    1.2550   21.0690 O   0  0  0  0  0  0  0  0  0  0  0  0
    6.9390   -0.4310   21.1150 N   0  0  0  0  0  0  0  0  0  0  0  0
    6.2790    0.1730   20.0610 C   0  0  0  0  0  0  0  0  0  0  0  0
    5.0740    0.8640   20.2030 C   0  0  0  0  0  0  0  0  0  0  0  0
    4.4810    1.4840   19.1050 C   0  0  0  0  0  0  0  0  0  0  0  0
    5.1740    1.3910   17.7600 C   0  0  0  0  0  0  0  0  0  0  0  0
    6.3350    0.7050   17.6340 N   0  0  0  0  0  0  0  0  0  0  0  0
    6.8600    0.1060   18.8050 C   0  0  0  0  0  0  0  0  0  0  0  0
   10.8900   -0.7490   22.7150 C   0  0  0  0  0  0  0  0  0  0  0  0
   10.8120   -2.0030   22.3070 C   0  0  0  0  0  0  0  0  0  0  0  0
    9.4770   -2.4810   22.2690 O   0  0  0  0  0  0  0  0  0  0  0  0
   11.9520   -2.6250   21.9990 N   0  0  0  0  0  0  0  0  0  0  0  0
   13.1570   -2.0300   22.2470 C   0  0  0  0  0  0  0  0  0  0  0  0
   13.5000   -1.7530   20.9580 C   0  0  0  0  0  0  0  0  0  0  0  0
   14.0570   -2.6590   20.4020 O   0  0  0  0  0  0  0  0  0  0  0  0
   13.2740   -3.6920   20.6650 C   0  0  0  0  0  0  0  0  0  0  0  0
   12.0780   -3.0580   20.7570 C   0  0  0  0  0  0  0  0  0  0  0  0
   11.9680   -0.0150   22.9230 N   0  0  0  0  0  0  0  0  0  0  0  0
  1  2  1  0
  2  3  1  0
  3  4  2  0
  4  5  1  0
  5  6  1  0
  6  7  2  0
  6  8  1  0
  8  9  1  0
  9 10  2  0
 10 11  1  0
 11 12  2  0
 12 13  1  0
  9 14  1  0
 13 14  2  0
  4 15  1  0
 15 16  1  0
 16 17  2  0
 16 18  1  0
 18 19  1  0
 19 20  1  0
 20 21  1  0
 21 22  1  0
 18 23  1  0
 22 23  1  0
  2 24  1  0
 15 24  2  0
M  END
