pyridine_urea_9752
     RDKit          3D

 26 27  0  0  0  0  0  0  0  0999 V2000
    8.0500    3.3520   25.1330 C   0  0  0  0  0  0  0  0  0  0  0  0
    7.7410    4.4220   24.2520 O   0  0  0  0  0  0  0  0  0  0  0  0
    8.8220    4.7190   23.3630 C   0  0  0  0  0  0  0  0  0  0  0  0
    9.3600    5.8150   23.2720 O   0  0  0  0  0  0  0  0  0  0  0  0
    9.2240    3.4920   22.5390 C   0  0  0  0  0  0  0  0  0  0  0  0
   10.8510    3.1120   22.9230 S   0  0  0  0  0  0  0  0  0  0  0  0
   11.0820    3.6760   24.2260 O   0  0  0  0  0  0  0  0  0  0  0  0
   11.6700    3.4940   21.7900 O   0  0  0  0  0  0  0  0  0  0  0  0
   10.4170    1.3980   22.9500 C   0  0  0  0  0  0  0  0  0  0  0  0
   11.5310    0.2800   22.9330 C   0  0  0  0  0  0  0  0  0  0  0  0
   12.3830    1.5250   22.8840 C   0  0  0  0  0  0  0  0  0  0  0  0
   12.7700    0.1470   22.8790 C   0  0  0  0  0  0  0  0  0  0  0  0
   11.5610   -0.6590   22.9550 C   0  0  0  0  0  0  0  0  0  0  0  0
   10.1500   -0.6490   23.0400 C   0  0  0  0  0  0  0  0  0  0  0  0
    9.4630   -0.9310   21.7820 N   0  0  0  0  0  0  0  0  0  0  0  0
    8.5440   -0.0100   21.3100 C   0  0  0  0  0  0  0  0  0  0  0  0
    8.8170    1.1820   21.1430 O   0  0  0  0  0  0  0  0  0  0  0  0
    7.3190   -0.5500   21.0110 N   0  0  0  0  0  0  0  0  0  0  0  0
    6.4920    0.0630   20.0690 C   0  0  0  0  0  0  0  0  0  0  0  0
    5.3020    0.7350   20.3210 C   0  0  0  0  0  0  0  0  0  0  0  0
    4.5360    1.3750   19.2260 C   0  0  0  0  0  0  0  0  0  0  0  0
    5.1010    1.2440   17.9660 C   0  0  0  0  0  0  0  0  0  0  0  0
    6.2440    0.5870   17.7110 N   0  0  0  0  0  0  0  0  0  0  0  0
    6.8990    0.0210   18.7470 C   0  0  0  0  0  0  0  0  0  0  0  0
   12.4580   -1.7380   22.9290 C   0  0  0  0  0  0  0  0  0  0  0  0
   12.9310   -0.3690   22.8910 C   0  0  0  0  0  0  0  0  0  0  0  0
  1  2  1  0
  2  3  1  0
  3  4  2  0
  3  5  1  0
  6  5  1  0
  6  7  2  0
  6  8  2  0
  6  9  1  0
  9 10  1  0
 10 11  2  0
 11 12  1  0
 12 13  2  0
 13 14  1  0
 14 15  1  0
 15 16  1  0
 16 17  2  0
 16 18  1  0
 18 19  1  0
 19 20  2  0
 20 21  1  0
 21 22  2  0
 22 23  1  0
 19 24  1  0
 23 24  2  0
 13 25  1  0
 10 26  1  0
 25 26  2  0
M  END
