pyridine_urea_12281
     RDKit          3D

 22 23  0  0  0  0  0  0  0  0999 V2000
    8.6850    1.2520   21.0290 O   0  0  0  0  0  0  0  0  0  0  0  0
    8.1660    0.2050   21.4400 C   0  0  0  0  0  0  0  0  0  0  0  0
    8.6120   -0.4070   22.5450 N   0  0  0  0  0  0  0  0  0  0  0  0
    9.6640    0.3150   23.1710 C   0  0  0  0  0  0  0  0  0  0  0  0
   10.7310   -0.6430   23.6650 C   0  0  2  0  0  0  0  0  0  0  0  0
   10.1840   -1.4070   24.7660 O   0  0  0  0  0  0  0  0  0  0  0  0
    9.7990   -0.4700   25.7050 C   0  0  0  0  0  0  0  0  0  0  0  0
    8.6230   -0.6440   26.6820 C   0  0  0  0  0  0  0  0  0  0  0  0
    8.1540   -1.7760   26.6340 O   0  0  0  0  0  0  0  0  0  0  0  0
   11.9610    0.2150   23.9440 C   0  0  0  0  0  0  0  0  0  0  0  0
   13.1280   -0.3300   23.1700 C   0  0  0  0  0  0  0  0  0  0  0  0
   12.8200   -1.6930   22.2110 S   0  0  0  0  0  0  0  0  0  0  0  0
   13.2460   -2.8950   22.8660 O   0  0  0  0  0  0  0  0  0  0  0  0
   13.2610   -1.4610   20.8600 O   0  0  0  0  0  0  0  0  0  0  0  0
   11.1020   -1.5600   22.4040 C   0  0  0  0  0  0  0  0  0  0  0  0
    7.1080   -0.4620   20.9120 N   0  0  0  0  0  0  0  0  0  0  0  0
    6.4640    0.1290   19.9020 C   0  0  0  0  0  0  0  0  0  0  0  0
    5.1790    0.8660   20.2370 C   0  0  0  0  0  0  0  0  0  0  0  0
    4.4210    1.5930   19.1310 C   0  0  0  0  0  0  0  0  0  0  0  0
    5.1110    1.4620   17.7790 C   0  0  0  0  0  0  0  0  0  0  0  0
    6.2760    0.7480   17.6110 N   0  0  0  0  0  0  0  0  0  0  0  0
    6.9350    0.1000   18.6310 C   0  0  0  0  0  0  0  0  0  0  0  0
  1  2  2  0
  2  3  1  0
  3  4  1  0
  5  4  1  6
  5  6  1  0
  6  7  1  0
  7  8  1  0
  8  9  1  0
  5 10  1  0
 10 11  1  0
 12 11  1  0
 12 13  2  0
 12 14  2  0
  5 15  1  0
 12 15  1  0
  2 16  1  0
 16 17  1  0
 17 18  2  0
 18 19  1  0
 19 20  2  0
 20 21  1  0
 17 22  1  0
 21 22  2  0
M  END
