pyridine_urea_5970
     RDKit          3D

 26 28  0  0  0  0  0  0  0  0999 V2000
    8.8610    0.6200   21.3020 O   0  0  0  0  0  0  0  0  0  0  0  0
    8.2750   -0.4240   21.5570 C   0  0  0  0  0  0  0  0  0  0  0  0
    6.9110   -0.7010   21.1260 N   0  0  0  0  0  0  0  0  0  0  0  0
    6.3540   -0.0000   20.0670 C   0  0  0  0  0  0  0  0  0  0  0  0
    5.1930    0.7500   20.2680 C   0  0  0  0  0  0  0  0  0  0  0  0
    4.6440    1.4440   19.1880 C   0  0  0  0  0  0  0  0  0  0  0  0
    5.2740    1.3680   17.9430 C   0  0  0  0  0  0  0  0  0  0  0  0
    6.3910    0.6480   17.7420 N   0  0  0  0  0  0  0  0  0  0  0  0
    6.9080   -0.0230   18.8020 C   0  0  0  0  0  0  0  0  0  0  0  0
    8.7320   -1.5140   22.2640 N   0  0  0  0  0  0  0  0  0  0  0  0
    9.8270   -1.4640   23.2210 C   0  0  1  0  0  0  0  0  0  0  0  0
   11.1480   -1.7060   22.5140 C   0  0  0  0  0  0  0  0  0  0  0  0
   12.0480   -0.7040   22.6300 C   0  0  0  0  0  0  0  0  0  0  0  0
   12.0430    0.5410   23.0170 C   0  0  0  0  0  0  0  0  0  0  0  0
   11.1840    1.3670   23.4660 C   0  0  0  0  0  0  0  0  0  0  0  0
   12.5250    1.7610   23.2520 C   0  0  0  0  0  0  0  0  0  0  0  0
   13.5380    0.8080   22.7380 C   0  0  0  0  0  0  0  0  0  0  0  0
   13.3010   -0.5750   22.3890 C   0  0  0  0  0  0  0  0  0  0  0  0
    9.7890   -0.1790   24.0170 C   0  0  0  0  0  0  0  0  0  0  0  0
    9.6300    0.9270   24.8970 O   0  0  0  0  0  0  0  0  0  0  0  0
    8.9500   -0.8120   24.9290 N   0  0  0  0  0  0  0  0  0  0  0  0
    8.1060   -0.0790   25.8440 C   0  0  0  0  0  0  0  0  0  0  0  0
    8.4590   -0.5730   27.1000 C   0  0  0  0  0  0  0  0  0  0  0  0
    8.0420   -1.8940   27.2940 C   0  0  0  0  0  0  0  0  0  0  0  0
    8.0460   -2.7160   26.1360 C   0  0  0  0  0  0  0  0  0  0  0  0
    8.7930   -2.2780   25.0200 C   0  0  0  0  0  0  0  0  0  0  0  0
  1  2  2  0
  2  3  1  0
  3  4  1  0
  4  5  2  0
  5  6  1  0
  6  7  2  0
  7  8  1  0
  4  9  1  0
  8  9  2  0
  2 10  1  0
 10 11  1  0
 11 12  1  6
 12 13  1  0
 13 14  2  0
 14 15  1  0
 15 16  2  0
 16 17  1  0
 13 18  1  0
 17 18  2  0
 11 19  1  0
 19 20  2  0
 19 21  1  0
 21 22  1  0
 22 23  1  0
 23 24  1  0
 24 25  1  0
 21 26  1  0
 25 26  1  0
M  END
