pyridine_urea_9248
     RDKit          3D

 18 19  0  0  0  0  0  0  0  0999 V2000
    8.4390   -2.9980   22.7450 C   0  0  0  0  0  0  0  0  0  0  0  0
    9.5430   -2.0200   22.4380 C   0  0  1  0  0  0  0  0  0  0  0  0
    9.0840   -0.6510   22.6440 N   0  0  0  0  0  0  0  0  0  0  0  0
    8.5430    0.1040   21.6140 C   0  0  0  0  0  0  0  0  0  0  0  0
    9.0320    1.1850   21.2560 O   0  0  0  0  0  0  0  0  0  0  0  0
    7.4110   -0.4820   21.0850 N   0  0  0  0  0  0  0  0  0  0  0  0
    6.6450    0.0880   20.0600 C   0  0  0  0  0  0  0  0  0  0  0  0
    5.5050    0.8070   20.3850 C   0  0  0  0  0  0  0  0  0  0  0  0
    4.7450    1.3970   19.3750 C   0  0  0  0  0  0  0  0  0  0  0  0
    5.1570    1.2450   18.0630 C   0  0  0  0  0  0  0  0  0  0  0  0
    6.2500    0.5480   17.7250 N   0  0  0  0  0  0  0  0  0  0  0  0
    6.9660   -0.0150   18.7250 C   0  0  0  0  0  0  0  0  0  0  0  0
   10.8410   -2.2300   23.2260 C   0  0  0  0  0  0  0  0  0  0  0  0
   12.0340   -1.7610   22.6960 N   0  0  0  0  0  0  0  0  0  0  0  0
   12.8910   -2.1370   23.6590 C   0  0  0  0  0  0  0  0  0  0  0  0
   12.2620   -2.7830   24.6900 C   0  0  0  0  0  0  0  0  0  0  0  0
   10.9450   -2.8570   24.4400 N   0  0  0  0  0  0  0  0  0  0  0  0
    9.9870   -3.4200   25.2190 C   0  0  0  0  0  0  0  0  0  0  0  0
  2  1  1  1
  2  3  1  0
  3  4  1  0
  4  5  2  0
  4  6  1  0
  6  7  1  0
  7  8  2  0
  8  9  1  0
  9 10  2  0
 10 11  1  0
  7 12  1  0
 11 12  2  0
  2 13  1  0
 13 14  2  0
 14 15  1  0
 15 16  2  0
 13 17  1  0
 16 17  1  0
 17 18  1  0
M  END
