pyridine_urea_4088
     RDKit          3D

 25 27  0  0  0  0  0  0  0  0999 V2000
   12.1450    1.9850   23.0170 C   0  0  0  0  0  0  0  0  0  0  0  0
   11.9870    0.4960   22.9720 C   0  0  0  0  0  0  0  0  0  0  0  0
   12.6120   -0.3130   23.9290 C   0  0  0  0  0  0  0  0  0  0  0  0
   10.4890    0.1700   23.1090 C   0  0  0  0  0  0  0  0  0  0  0  0
    9.0840    0.1400   23.2940 C   0  0  0  0  0  0  0  0  0  0  0  0
    8.6420   -1.1810   23.0270 N   0  0  0  0  0  0  0  0  0  0  0  0
    8.4070   -1.0470   21.6710 C   0  0  0  0  0  0  0  0  0  0  0  0
    9.3580   -0.8830   20.9610 O   0  0  0  0  0  0  0  0  0  0  0  0
    7.0040   -1.0240   21.2230 N   0  0  0  0  0  0  0  0  0  0  0  0
    6.4560   -0.2940   20.1840 C   0  0  0  0  0  0  0  0  0  0  0  0
    5.1710    0.5330   20.4130 C   0  0  0  0  0  0  0  0  0  0  0  0
    4.6510    1.2540   19.3460 C   0  0  0  0  0  0  0  0  0  0  0  0
    5.2920    1.2170   18.1110 C   0  0  0  0  0  0  0  0  0  0  0  0
    6.4160    0.5060   17.8810 N   0  0  0  0  0  0  0  0  0  0  0  0
    6.9690   -0.2230   18.8900 C   0  0  0  0  0  0  0  0  0  0  0  0
    8.2050    1.1810   23.6320 C   0  0  0  0  0  0  0  0  0  0  0  0
    9.2100    1.9750   23.5830 N   0  0  0  0  0  0  0  0  0  0  0  0
   10.3720    1.4930   23.2960 N   0  0  0  0  0  0  0  0  0  0  0  0
   11.1030    2.6190   23.2530 C   0  0  0  0  0  0  0  0  0  0  0  0
   10.4680    3.9730   23.4430 C   0  0  0  0  0  0  0  0  0  0  0  0
   11.3860    5.1710   23.3060 C   0  0  0  0  0  0  0  0  0  0  0  0
   12.7230    4.9660   23.0130 C   0  0  0  0  0  0  0  0  0  0  0  0
   13.2590    3.6860   22.8500 C   0  0  0  0  0  0  0  0  0  0  0  0
   12.4450    2.5330   22.9840 C   0  0  0  0  0  0  0  0  0  0  0  0
   13.1530    0.9570   22.8030 Cl  0  0  0  0  0  0  0  0  0  0  0  0
  1  2  1  0
  2  3  1  0
  2  4  1  0
  4  5  2  0
  5  6  1  0
  6  7  1  0
  7  8  2  0
  7  9  1  0
  9 10  1  0
 10 11  2  0
 11 12  1  0
 12 13  2  0
 13 14  1  0
 10 15  1  0
 14 15  2  0
  5 16  1  0
 16 17  2  0
  4 18  1  0
 17 18  1  0
 18 19  1  0
 19 20  2  0
 20 21  1  0
 21 22  2  0
 22 23  1  0
 19 24  1  0
 23 24  2  0
 24 25  1  0
M  END
