pyridine_urea_13876
     RDKit          3D

 24 25  0  0  0  0  0  0  0  0999 V2000
   11.9620    2.8100   22.8600 C   0  0  0  0  0  0  0  0  0  0  0  0
   10.7960    2.6530   23.1070 C   0  0  0  0  0  0  0  0  0  0  0  0
   10.7540    1.7360   24.2360 O   0  0  0  0  0  0  0  0  0  0  0  0
   10.2610    0.4590   24.0790 C   0  0  0  0  0  0  0  0  0  0  0  0
   10.0160   -0.2740   25.0310 O   0  0  0  0  0  0  0  0  0  0  0  0
   10.0480    0.0640   22.6550 C   0  0  1  0  0  0  0  0  0  0  0  0
   10.9540   -0.8510   22.1730 C   0  0  0  0  0  0  0  0  0  0  0  0
   12.4780   -0.6700   22.1840 C   0  0  0  0  0  0  0  0  0  0  0  0
   12.8650   -1.2620   23.3710 C   0  0  0  0  0  0  0  0  0  0  0  0
   13.2910   -2.5450   23.3020 C   0  0  0  0  0  0  0  0  0  0  0  0
   13.6120   -2.9720   24.6900 C   0  0  0  0  0  0  0  0  0  0  0  0
   13.4550   -2.0790   25.7370 N   0  0  0  0  0  0  0  0  0  0  0  0
   13.0100   -0.8390   25.5270 C   0  0  0  0  0  0  0  0  0  0  0  0
   12.6780   -0.3240   24.3500 C   0  0  0  0  0  0  0  0  0  0  0  0
    8.9280   -0.6940   22.4540 N   0  0  0  0  0  0  0  0  0  0  0  0
    8.2640    0.0160   21.4490 C   0  0  0  0  0  0  0  0  0  0  0  0
    8.6460    1.3290   20.9880 O   0  0  0  0  0  0  0  0  0  0  0  0
    7.2090   -0.6900   20.9970 N   0  0  0  0  0  0  0  0  0  0  0  0
    6.4980   -0.0200   20.0740 C   0  0  0  0  0  0  0  0  0  0  0  0
    5.2510    0.7560   20.3080 C   0  0  0  0  0  0  0  0  0  0  0  0
    4.5800    1.4670   19.1740 C   0  0  0  0  0  0  0  0  0  0  0  0
    5.1690    1.3700   17.9120 C   0  0  0  0  0  0  0  0  0  0  0  0
    6.2950    0.6650   17.6700 N   0  0  0  0  0  0  0  0  0  0  0  0
    6.9510   -0.0330   18.7760 C   0  0  0  0  0  0  0  0  0  0  0  0
  1  2  1  0
  2  3  1  0
  3  4  1  0
  4  5  2  0
  4  6  1  0
  6  7  1  1
  7  8  1  0
  8  9  1  0
  9 10  2  0
 10 11  1  0
 11 12  2  0
 12 13  1  0
  9 14  1  0
 13 14  2  0
  6 15  1  0
 15 16  1  0
 16 17  2  0
 16 18  1  0
 18 19  1  0
 19 20  2  0
 20 21  1  0
 21 22  2  0
 22 23  1  0
 19 24  1  0
 23 24  2  0
M  END
