pyridine_urea_15001
     RDKit          3D

 19 19  0  0  0  0  0  0  0  0999 V2000
   12.6940    0.9850   23.1560 C   0  0  0  0  0  0  0  0  0  0  0  0
   12.9000   -0.4650   22.7150 C   0  0  0  0  0  0  0  0  0  0  0  0
   11.5440   -1.1370   22.5360 C   0  0  2  0  0  0  0  0  0  0  0  0
   10.4240   -0.2220   23.0010 C   0  0  0  0  0  0  0  0  0  0  0  0
    9.1380   -0.6580   22.4130 N   0  0  0  0  0  0  0  0  0  0  0  0
    8.5000    0.1340   21.4810 C   0  0  0  0  0  0  0  0  0  0  0  0
    8.9040    1.2620   21.1760 O   0  0  0  0  0  0  0  0  0  0  0  0
    7.3520   -0.5020   20.9680 N   0  0  0  0  0  0  0  0  0  0  0  0
    6.5420    0.1090   20.0400 C   0  0  0  0  0  0  0  0  0  0  0  0
    5.2540    0.8590   20.3610 C   0  0  0  0  0  0  0  0  0  0  0  0
    4.6090    1.4200   19.2560 C   0  0  0  0  0  0  0  0  0  0  0  0
    5.1420    1.2750   17.9810 C   0  0  0  0  0  0  0  0  0  0  0  0
    6.2680    0.6060   17.7040 N   0  0  0  0  0  0  0  0  0  0  0  0
    6.9320    0.0440   18.7230 C   0  0  0  0  0  0  0  0  0  0  0  0
   11.5160   -2.4480   22.9960 C   0  0  0  0  0  0  0  0  0  0  0  0
   11.5850   -2.6690   24.3660 C   0  0  0  0  0  0  0  0  0  0  0  0
   12.8630   -2.8580   24.7790 F   0  0  0  0  0  0  0  0  0  0  0  0
   11.0840   -1.6290   25.0660 F   0  0  0  0  0  0  0  0  0  0  0  0
   10.8860   -3.7690   24.7510 F   0  0  0  0  0  0  0  0  0  0  0  0
  1  2  1  0
  3  2  1  1
  3  4  1  0
  4  5  1  0
  5  6  1  0
  6  7  2  0
  6  8  1  0
  8  9  1  0
  9 10  2  0
 10 11  1  0
 11 12  2  0
 12 13  1  0
  9 14  1  0
 13 14  2  0
  3 15  1  0
 15 16  1  0
 16 17  1  0
 16 18  1  0
 16 19  1  0
M  END
