pyridine_urea_15091
     RDKit          3D

 17 18  0  0  0  0  0  0  0  0999 V2000
    5.2070    2.5860   20.3470 N   0  0  0  0  0  0  0  0  0  0  0  0
    6.3370    1.9040   20.6640 C   0  0  0  0  0  0  0  0  0  0  0  0
    7.3190    2.5430   21.4640 O   0  0  0  0  0  0  0  0  0  0  0  0
    6.4960    0.4660   20.1290 C   0  0  0  0  0  0  0  0  0  0  0  0
    7.1720   -0.3540   21.0030 N   0  0  0  0  0  0  0  0  0  0  0  0
    8.3470    0.0400   21.4460 C   0  0  0  0  0  0  0  0  0  0  0  0
    8.7790    1.2760   21.0120 O   0  0  0  0  0  0  0  0  0  0  0  0
    9.0460   -0.8070   22.2870 N   0  0  0  0  0  0  0  0  0  0  0  0
   10.3610   -0.4870   22.4900 C   0  0  0  0  0  0  0  0  0  0  0  0
   11.4660   -1.5190   22.2410 C   0  0  0  0  0  0  0  0  0  0  0  0
   12.9250   -1.1290   22.4530 C   0  0  0  0  0  0  0  0  0  0  0  0
   13.1060    0.3090   22.9050 C   0  0  0  0  0  0  0  0  0  0  0  0
   12.0700    1.1430   23.1000 N   0  0  0  0  0  0  0  0  0  0  0  0
   10.7410    0.7730   22.9070 C   0  0  0  0  0  0  0  0  0  0  0  0
    5.2170   -0.0320   19.4340 C   0  0  0  0  0  0  0  0  0  0  0  0
    5.6950   -0.0030   18.1800 N   0  0  0  0  0  0  0  0  0  0  0  0
    6.8880    0.3290   18.6480 C   0  0  0  0  0  0  0  0  0  0  0  0
  1  2  1  0
  2  3  2  0
  4  2  1  0
  4  5  1  0
  5  6  1  0
  6  7  2  0
  6  8  1  0
  8  9  1  0
  9 10  2  0
 10 11  1  0
 11 12  2  0
 12 13  1  0
  9 14  1  0
 13 14  2  0
  4 15  1  0
 15 16  1  0
  4 17  1  0
 16 17  1  0
M  END
