pyridine_urea_11885
     RDKit          3D

 24 24  0  0  0  0  0  0  0  0999 V2000
    5.6560   -5.0740   25.5050 C   0  0  0  0  0  0  0  0  0  0  0  0
    5.6180   -5.2210   24.2840 O   0  0  0  0  0  0  0  0  0  0  0  0
    6.8230   -5.1240   23.6620 C   0  0  0  0  0  0  0  0  0  0  0  0
    7.2710   -3.7980   23.6350 C   0  0  0  0  0  0  0  0  0  0  0  0
    8.3370   -3.6860   22.6880 O   0  0  0  0  0  0  0  0  0  0  0  0
    9.4740   -3.0120   23.1080 C   0  0  0  0  0  0  0  0  0  0  0  0
    9.9380   -3.1290   24.2150 O   0  0  0  0  0  0  0  0  0  0  0  0
   10.1110   -2.1960   22.1970 C   0  0  0  0  0  0  0  0  0  0  0  0
   10.8170   -1.0890   22.6500 C   0  0  1  0  0  0  0  0  0  0  0  0
   10.0500   -0.0020   22.9590 C   0  0  0  0  0  0  0  0  0  0  0  0
    8.6990   -0.3680   22.6100 N   0  0  0  0  0  0  0  0  0  0  0  0
    8.2040    0.2930   21.5500 C   0  0  0  0  0  0  0  0  0  0  0  0
    8.7530    1.3100   21.1010 O   0  0  0  0  0  0  0  0  0  0  0  0
    7.0670   -0.2970   21.1040 N   0  0  0  0  0  0  0  0  0  0  0  0
    6.4060    0.2560   20.0400 C   0  0  0  0  0  0  0  0  0  0  0  0
    5.2390    1.0050   20.2170 C   0  0  0  0  0  0  0  0  0  0  0  0
    4.6030    1.5810   19.1290 C   0  0  0  0  0  0  0  0  0  0  0  0
    5.1430    1.3970   17.8750 C   0  0  0  0  0  0  0  0  0  0  0  0
    6.2340    0.6990   17.5770 N   0  0  0  0  0  0  0  0  0  0  0  0
    6.8640    0.1360   18.6070 C   0  0  0  0  0  0  0  0  0  0  0  0
   11.7660   -1.3420   23.6210 C   0  0  0  0  0  0  0  0  0  0  0  0
   12.9040   -0.6670   23.3240 C   0  0  0  0  0  0  0  0  0  0  0  0
   13.3390   -1.1320   22.1020 C   0  0  0  0  0  0  0  0  0  0  0  0
   12.4810    0.7980   23.1060 C   0  0  0  0  0  0  0  0  0  0  0  0
  1  2  1  0
  2  3  1  0
  3  4  1  0
  4  5  1  0
  5  6  1  0
  6  7  2  0
  6  8  1  0
  9  8  1  1
  9 10  1  0
 10 11  1  0
 11 12  1  0
 12 13  2  0
 12 14  1  0
 14 15  1  0
 15 16  2  0
 16 17  1  0
 17 18  2  0
 18 19  1  0
 15 20  1  0
 19 20  2  0
  9 21  1  0
 21 22  1  0
 22 23  1  0
 22 24  1  0
M  END
