pyridine_urea_982
     RDKit          3D

 22 24  0  0  0  0  0  0  0  0999 V2000
    8.4860    1.5490   20.6100 O   0  0  0  0  0  0  0  0  0  0  0  0
    7.9220    0.8710   21.4290 C   0  0  0  0  0  0  0  0  0  0  0  0
    7.0090   -0.1900   21.0710 N   0  0  0  0  0  0  0  0  0  0  0  0
    6.3370    0.2840   20.0000 C   0  0  0  0  0  0  0  0  0  0  0  0
    5.1350    0.9510   20.1890 C   0  0  0  0  0  0  0  0  0  0  0  0
    4.5030    1.4610   19.0710 C   0  0  0  0  0  0  0  0  0  0  0  0
    5.1030    1.2780   17.8280 C   0  0  0  0  0  0  0  0  0  0  0  0
    6.2530    0.6250   17.6420 N   0  0  0  0  0  0  0  0  0  0  0  0
    6.8500    0.1360   18.7370 C   0  0  0  0  0  0  0  0  0  0  0  0
    8.0850    1.0200   22.7350 N   0  0  0  0  0  0  0  0  0  0  0  0
    9.3300    0.4960   23.0370 C   0  0  0  0  0  0  0  0  0  0  0  0
   10.3620    1.4030   23.6960 C   0  0  0  0  0  0  0  0  0  0  0  0
   11.5650    0.8340   23.9820 C   0  0  0  0  0  0  0  0  0  0  0  0
   11.6950   -0.4870   23.6540 C   0  0  0  0  0  0  0  0  0  0  0  0
   12.6150   -1.3110   23.8210 C   0  0  0  0  0  0  0  0  0  0  0  0
   13.1100   -1.6230   25.0040 C   0  0  0  0  0  0  0  0  0  0  0  0
   13.9720   -2.5850   24.8920 C   0  0  0  0  0  0  0  0  0  0  0  0
   14.0960   -2.9480   23.5600 C   0  0  0  0  0  0  0  0  0  0  0  0
   13.1190   -2.0710   22.4050 S   0  0  0  0  0  0  0  0  0  0  0  0
   10.7360   -1.2360   23.0500 C   0  0  0  0  0  0  0  0  0  0  0  0
   10.9470   -2.5370   22.7570 F   0  0  0  0  0  0  0  0  0  0  0  0
    9.5690   -0.7750   22.7330 C   0  0  0  0  0  0  0  0  0  0  0  0
  1  2  2  0
  2  3  1  0
  3  4  1  0
  4  5  2  0
  5  6  1  0
  6  7  2  0
  7  8  1  0
  4  9  1  0
  8  9  2  0
  2 10  1  0
 10 11  1  0
 11 12  2  0
 12 13  1  0
 13 14  2  0
 14 15  1  0
 15 16  2  0
 16 17  1  0
 17 18  2  0
 15 19  1  0
 18 19  1  0
 14 20  1  0
 20 21  1  0
 11 22  1  0
 20 22  2  0
M  END
