pyridine_urea_2974
     RDKit          3D

 20 21  0  0  0  0  0  0  0  0999 V2000
    7.5100    2.4590   21.4430 C   0  0  0  0  0  0  0  0  0  0  0  0
    6.2770    1.9420   20.7030 C   0  0  0  0  0  0  0  0  0  0  0  0
    6.4250    0.4320   20.2740 C   0  0  1  0  0  0  0  0  0  0  0  0
    7.1760   -0.3640   21.2320 N   0  0  0  0  0  0  0  0  0  0  0  0
    8.4530    0.0150   21.5630 C   0  0  0  0  0  0  0  0  0  0  0  0
    8.9610    1.0610   21.1440 O   0  0  0  0  0  0  0  0  0  0  0  0
    9.1390   -0.9070   22.4310 N   0  0  0  0  0  0  0  0  0  0  0  0
   10.4550   -0.5820   22.5680 C   0  0  0  0  0  0  0  0  0  0  0  0
   11.4730   -1.4870   22.3510 C   0  0  0  0  0  0  0  0  0  0  0  0
   12.9120   -1.0690   22.4980 C   0  0  0  0  0  0  0  0  0  0  0  0
   13.1180    0.3650   22.8830 C   0  0  0  0  0  0  0  0  0  0  0  0
   12.0860    1.2010   23.0820 N   0  0  0  0  0  0  0  0  0  0  0  0
   10.8140    0.7180   22.9270 C   0  0  0  0  0  0  0  0  0  0  0  0
    5.0200   -0.0150   20.0220 C   0  0  0  0  0  0  0  0  0  0  0  0
    4.3120    1.0140   19.1480 C   0  0  0  0  0  0  0  0  0  0  0  0
    5.2880    1.3370   18.0190 C   0  0  0  0  0  0  0  0  0  0  0  0
    5.0520    2.1170   17.1270 O   0  0  0  0  0  0  0  0  0  0  0  0
    6.5030    0.7740   17.9600 N   0  0  0  0  0  0  0  0  0  0  0  0
    6.8670    0.0390   19.0100 C   0  0  0  0  0  0  0  0  0  0  0  0
    7.6140   -1.0810   18.8300 O   0  0  0  0  0  0  0  0  0  0  0  0
  1  2  1  0
  3  2  1  1
  3  4  1  0
  4  5  1  0
  5  6  2  0
  5  7  1  0
  7  8  1  0
  8  9  2  0
  9 10  1  0
 10 11  2  0
 11 12  1  0
  8 13  1  0
 12 13  2  0
  3 14  1  0
 14 15  1  0
 15 16  1  0
 16 17  2  0
 16 18  1  0
  3 19  1  0
 18 19  1  0
 19 20  2  0
M  END
