pyridine_urea_1783
     RDKit          3D

 17 18  0  0  0  0  0  0  0  0999 V2000
    8.7880    0.9660   21.4170 O   0  0  0  0  0  0  0  0  0  0  0  0
    8.4650   -0.2100   21.4920 C   0  0  0  0  0  0  0  0  0  0  0  0
    9.2490   -1.2230   21.9890 N   0  0  0  0  0  0  0  0  0  0  0  0
    9.8980   -1.2830   23.2390 C   0  0  0  0  0  0  0  0  0  0  0  0
   10.9550   -0.4090   23.4900 C   0  0  0  0  0  0  0  0  0  0  0  0
   11.1000    0.7900   22.8150 C   0  0  0  0  0  0  0  0  0  0  0  0
   10.8320    2.0130   23.5250 O   0  0  0  0  0  0  0  0  0  0  0  0
   12.2090   -0.3150   22.5950 C   0  0  0  0  0  0  0  0  0  0  0  0
   13.0430   -0.5640   23.6020 C   0  0  0  0  0  0  0  0  0  0  0  0
   11.9840   -0.7350   24.4320 C   0  0  0  0  0  0  0  0  0  0  0  0
    7.2450   -0.6780   21.0620 N   0  0  0  0  0  0  0  0  0  0  0  0
    6.4400    0.0230   20.0600 C   0  0  0  0  0  0  0  0  0  0  0  0
    5.2610    0.7110   20.2980 C   0  0  0  0  0  0  0  0  0  0  0  0
    4.6100    1.3530   19.2410 C   0  0  0  0  0  0  0  0  0  0  0  0
    5.1740    1.2800   17.9770 C   0  0  0  0  0  0  0  0  0  0  0  0
    6.3080    0.6140   17.7250 N   0  0  0  0  0  0  0  0  0  0  0  0
    6.9050    0.0060   18.7610 C   0  0  0  0  0  0  0  0  0  0  0  0
  1  2  2  0
  2  3  1  0
  3  4  1  0
  5  4  1  0
  5  6  1  0
  6  7  1  0
  5  8  1  0
  8  9  1  0
  5 10  1  0
  9 10  1  0
  2 11  1  0
 11 12  1  0
 12 13  2  0
 13 14  1  0
 14 15  2  0
 15 16  1  0
 12 17  1  0
 16 17  2  0
M  END
