pyridine_urea_1878
     RDKit          3D

 23 24  0  0  0  0  0  0  0  0999 V2000
    7.6320    1.5290   25.3740 C   0  0  0  0  0  0  0  0  0  0  0  0
    8.5370    0.3400   25.5250 C   0  0  0  0  0  0  0  0  0  0  0  0
    8.1360   -0.9280   25.0980 C   0  0  0  0  0  0  0  0  0  0  0  0
    8.8740    0.2300   27.0270 C   0  0  0  0  0  0  0  0  0  0  0  0
    9.7160    0.6410   24.7480 O   0  0  0  0  0  0  0  0  0  0  0  0
   10.9100   -0.1240   24.8490 C   0  0  0  0  0  0  0  0  0  0  0  0
   10.9950   -1.0500   25.6080 O   0  0  0  0  0  0  0  0  0  0  0  0
   12.0270    0.1040   24.0700 C   0  0  1  0  0  0  0  0  0  0  0  0
   12.5720   -0.9960   23.4980 C   0  0  0  0  0  0  0  0  0  0  0  0
   11.6080   -1.1340   22.3610 C   0  0  1  0  0  0  0  0  0  0  0  0
   12.1660   -1.7600   21.2910 F   0  0  0  0  0  0  0  0  0  0  0  0
   10.3180   -1.5880   22.6390 C   0  0  0  0  0  0  0  0  0  0  0  0
    9.4350   -1.3690   21.4950 N   0  0  0  0  0  0  0  0  0  0  0  0
    8.5960   -0.2670   21.3970 C   0  0  0  0  0  0  0  0  0  0  0  0
    9.0250    0.9620   21.5390 O   0  0  0  0  0  0  0  0  0  0  0  0
    7.2980   -0.6240   21.0840 N   0  0  0  0  0  0  0  0  0  0  0  0
    6.5080    0.0360   20.1210 C   0  0  0  0  0  0  0  0  0  0  0  0
    5.3370    0.7490   20.3770 C   0  0  0  0  0  0  0  0  0  0  0  0
    4.6110    1.3910   19.3940 C   0  0  0  0  0  0  0  0  0  0  0  0
    5.1990    1.2510   18.0350 C   0  0  0  0  0  0  0  0  0  0  0  0
    6.3130    0.5720   17.7470 N   0  0  0  0  0  0  0  0  0  0  0  0
    6.9350   -0.0180   18.7950 C   0  0  0  0  0  0  0  0  0  0  0  0
   11.7680    0.4170   22.5740 C   0  0  0  0  0  0  0  0  0  0  0  0
  1  2  1  0
  2  3  1  0
  2  4  1  0
  2  5  1  0
  5  6  1  0
  6  7  2  0
  8  6  1  1
  8  9  1  0
  9 10  1  0
 10 11  1  6
 10 12  1  0
 12 13  1  0
 13 14  1  0
 14 15  2  0
 14 16  1  0
 16 17  1  0
 17 18  2  0
 18 19  1  0
 19 20  2  0
 20 21  1  0
 17 22  1  0
 21 22  2  0
  8 23  1  0
 10 23  1  0
M  END
