pyridine_urea_13936
     RDKit          3D

 24 25  0  0  0  0  0  0  0  0999 V2000
    8.6500    0.3370   21.1430 O   0  0  0  0  0  0  0  0  0  0  0  0
    8.2990   -0.8070   21.4030 C   0  0  0  0  0  0  0  0  0  0  0  0
    9.1520   -1.6570   22.1240 N   0  0  0  0  0  0  0  0  0  0  0  0
   10.1890   -0.7230   22.4230 C   0  0  0  0  0  0  0  0  0  0  0  0
   11.7090   -0.9440   22.4190 C   0  0  0  0  0  0  0  0  0  0  0  0
   12.5460    0.2950   22.7140 C   0  0  0  0  0  0  0  0  0  0  0  0
   11.9120    1.5400   22.9620 C   0  0  0  0  0  0  0  0  0  0  0  0
   12.1700    3.0120   23.2580 C   0  0  0  0  0  0  0  0  0  0  0  0
   11.0990    3.6460   23.8240 O   0  0  0  0  0  0  0  0  0  0  0  0
   13.3480    3.5280   22.9510 N   0  0  0  0  0  0  0  0  0  0  0  0
   13.4510    4.8860   23.2280 C   0  0  0  0  0  0  0  0  0  0  0  0
   13.1560    5.7130   22.2670 C   0  0  0  0  0  0  0  0  0  0  0  0
   13.3620    7.0100   22.6330 F   0  0  0  0  0  0  0  0  0  0  0  0
   11.8710    5.6160   21.8760 F   0  0  0  0  0  0  0  0  0  0  0  0
   13.9330    5.4190   21.2230 F   0  0  0  0  0  0  0  0  0  0  0  0
   10.5650    1.6180   22.9700 C   0  0  0  0  0  0  0  0  0  0  0  0
    9.7050    0.6560   22.7480 C   0  0  0  0  0  0  0  0  0  0  0  0
    7.0610   -1.1990   20.9600 N   0  0  0  0  0  0  0  0  0  0  0  0
    6.4620   -0.4290   20.0050 C   0  0  0  0  0  0  0  0  0  0  0  0
    5.2770    0.2530   20.2610 C   0  0  0  0  0  0  0  0  0  0  0  0
    4.3790    1.1920   19.4210 C   0  0  0  0  0  0  0  0  0  0  0  0
    5.2130    1.1650   18.1470 C   0  0  0  0  0  0  0  0  0  0  0  0
    6.3540    0.5470   17.8020 N   0  0  0  0  0  0  0  0  0  0  0  0
    6.9700   -0.2630   18.7680 C   0  0  0  0  0  0  0  0  0  0  0  0
  1  2  2  0
  2  3  1  0
  3  4  1  0
  4  5  2  0
  5  6  1  0
  6  7  2  0
  7  8  1  0
  8  9  2  0
  8 10  1  0
 10 11  1  0
 11 12  1  0
 12 13  1  0
 12 14  1  0
 12 15  1  0
  7 16  1  0
  4 17  1  0
 16 17  2  0
  2 18  1  0
 18 19  1  0
 19 20  2  0
 20 21  1  0
 21 22  2  0
 22 23  1  0
 19 24  1  0
 23 24  2  0
M  END
