pyridine_urea_961
     RDKit          3D

 22 23  0  0  0  0  0  0  0  0999 V2000
    8.4740    1.6700   21.2810 C   0  0  0  0  0  0  0  0  0  0  0  0
    9.1090    0.7050   22.2220 C   0  0  0  0  0  0  0  0  0  0  0  0
   10.0990   -0.2260   21.8830 C   0  0  0  0  0  0  0  0  0  0  0  0
    9.7910    1.6000   23.1960 C   0  0  0  0  0  0  0  0  0  0  0  0
   11.0670    1.1310   23.1120 C   0  0  0  0  0  0  0  0  0  0  0  0
   12.4030    1.5450   22.7440 C   0  0  0  0  0  0  0  0  0  0  0  0
   13.3350    0.2330   22.9350 C   0  0  0  0  0  0  0  0  0  0  0  0
   12.7700   -1.2270   23.4820 C   0  0  0  0  0  0  0  0  0  0  0  0
   13.6110   -2.6770   23.7470 Cl  0  0  0  0  0  0  0  0  0  0  0  0
   11.4660   -1.1500   23.7180 C   0  0  0  0  0  0  0  0  0  0  0  0
   11.6020    0.0240   23.3400 C   0  0  0  0  0  0  0  0  0  0  0  0
   13.2560    0.0870   22.9840 Cl  0  0  0  0  0  0  0  0  0  0  0  0
    8.0880   -0.1520   22.6970 N   0  0  0  0  0  0  0  0  0  0  0  0
    7.7670   -0.9180   21.6190 C   0  0  0  0  0  0  0  0  0  0  0  0
    8.5960   -1.5840   21.0670 O   0  0  0  0  0  0  0  0  0  0  0  0
    6.4740   -0.7840   21.2330 N   0  0  0  0  0  0  0  0  0  0  0  0
    6.0200   -0.0340   20.1360 C   0  0  0  0  0  0  0  0  0  0  0  0
    4.9000    0.7670   20.1830 C   0  0  0  0  0  0  0  0  0  0  0  0
    4.5340    1.4700   19.0520 C   0  0  0  0  0  0  0  0  0  0  0  0
    5.2700    1.3770   17.8890 C   0  0  0  0  0  0  0  0  0  0  0  0
    6.3660    0.6060   17.7990 N   0  0  0  0  0  0  0  0  0  0  0  0
    6.7180   -0.0810   18.9200 C   0  0  0  0  0  0  0  0  0  0  0  0
  1  2  1  0
  2  3  1  0
  2  4  1  0
  4  5  1  0
  5  6  2  0
  6  7  1  0
  7  8  2  0
  8  9  1  0
  8 10  1  0
  5 11  1  0
 10 11  2  0
 11 12  1  0
  2 13  1  0
 13 14  1  0
 14 15  2  0
 14 16  1  0
 16 17  1  0
 17 18  2  0
 18 19  1  0
 19 20  2  0
 20 21  1  0
 17 22  1  0
 21 22  2  0
M  END
