pyridine_urea_7779
     RDKit          3D

 28 30  0  0  0  0  0  0  0  0999 V2000
    8.5370    1.4290   22.9910 C   0  0  0  0  0  0  0  0  0  0  0  0
    9.9320    0.8210   22.8300 C   0  0  0  0  0  0  0  0  0  0  0  0
   10.9280    1.6820   23.0660 C   0  0  0  0  0  0  0  0  0  0  0  0
   12.2330    1.4000   22.9940 C   0  0  0  0  0  0  0  0  0  0  0  0
   12.9940    2.3080   23.2160 O   0  0  0  0  0  0  0  0  0  0  0  0
   12.7090    3.5060   22.5570 C   0  0  0  0  0  0  0  0  0  0  0  0
   11.7860    4.2960   23.2610 C   0  0  0  0  0  0  0  0  0  0  0  0
   12.2020    5.2500   24.1810 C   0  0  0  0  0  0  0  0  0  0  0  0
   11.2850    6.1520   24.9950 C   0  0  0  0  0  0  0  0  0  0  0  0
   11.7660    7.1000   25.9210 C   0  0  0  0  0  0  0  0  0  0  0  0
   11.6400    8.4680   25.4530 N   0  0  0  0  0  0  0  0  0  0  0  0
    9.9230    5.9660   24.7550 C   0  0  0  0  0  0  0  0  0  0  0  0
    9.5380    5.0040   23.8200 C   0  0  0  0  0  0  0  0  0  0  0  0
   10.4000    4.1880   23.0850 C   0  0  0  0  0  0  0  0  0  0  0  0
    9.8750    3.3060   22.2130 F   0  0  0  0  0  0  0  0  0  0  0  0
   12.6290    0.0840   22.6610 C   0  0  0  0  0  0  0  0  0  0  0  0
   11.6090   -0.8750   22.3880 C   0  0  0  0  0  0  0  0  0  0  0  0
   10.2530   -0.4690   22.4680 C   0  0  0  0  0  0  0  0  0  0  0  0
    9.1260   -1.2120   22.1920 N   0  0  0  0  0  0  0  0  0  0  0  0
    8.2220   -0.4990   21.3570 C   0  0  0  0  0  0  0  0  0  0  0  0
    8.4590    0.6290   20.9700 O   0  0  0  0  0  0  0  0  0  0  0  0
    7.0790   -1.1020   21.0010 N   0  0  0  0  0  0  0  0  0  0  0  0
    6.3940   -0.3240   20.1030 C   0  0  0  0  0  0  0  0  0  0  0  0
    5.2000    0.3750   20.3460 C   0  0  0  0  0  0  0  0  0  0  0  0
    4.6190    1.1480   19.3150 C   0  0  0  0  0  0  0  0  0  0  0  0
    5.2470    1.1950   18.0890 C   0  0  0  0  0  0  0  0  0  0  0  0
    6.3880    0.5360   17.8240 N   0  0  0  0  0  0  0  0  0  0  0  0
    6.9230   -0.1980   18.8260 C   0  0  0  0  0  0  0  0  0  0  0  0
  1  2  1  0
  2  3  2  0
  3  4  1  0
  4  5  1  0
  5  6  1  0
  6  7  1  0
  7  8  2  0
  8  9  1  0
  9 10  1  0
 10 11  3  0
  9 12  2  0
 12 13  1  0
  7 14  1  0
 13 14  2  0
 14 15  1  0
  4 16  2  0
 16 17  1  0
  2 18  1  0
 17 18  2  0
 18 19  1  0
 19 20  1  0
 20 21  2  0
 20 22  1  0
 22 23  1  0
 23 24  2  0
 24 25  1  0
 25 26  2  0
 26 27  1  0
 23 28  1  0
 27 28  2  0
M  END
