pyridine_urea_12762
     RDKit          3D

 20 21  0  0  0  0  0  0  0  0999 V2000
   14.2730   -2.4280   25.9700 N   0  0  0  0  0  0  0  0  0  0  0  0
   13.5480   -2.1300   25.1230 C   0  0  0  0  0  0  0  0  0  0  0  0
   14.0500   -2.9710   24.1040 O   0  0  0  0  0  0  0  0  0  0  0  0
   12.3600   -1.5510   24.3520 C   0  0  0  0  0  0  0  0  0  0  0  0
   12.4440   -1.9190   22.8910 C   0  0  0  0  0  0  0  0  0  0  0  0
   11.4650   -1.6060   22.0100 C   0  0  0  0  0  0  0  0  0  0  0  0
   10.3460   -0.9230   22.4840 C   0  0  0  0  0  0  0  0  0  0  0  0
    9.3980   -0.7140   21.5420 N   0  0  0  0  0  0  0  0  0  0  0  0
    8.5370    0.3580   21.3450 C   0  0  0  0  0  0  0  0  0  0  0  0
    8.9120    1.5260   21.2950 O   0  0  0  0  0  0  0  0  0  0  0  0
    7.2810   -0.0420   21.1690 N   0  0  0  0  0  0  0  0  0  0  0  0
    6.5750    0.3640   20.0970 C   0  0  0  0  0  0  0  0  0  0  0  0
    5.4280    1.1070   20.3390 C   0  0  0  0  0  0  0  0  0  0  0  0
    4.7020    1.5600   19.2560 C   0  0  0  0  0  0  0  0  0  0  0  0
    5.1290    1.2670   17.9650 C   0  0  0  0  0  0  0  0  0  0  0  0
    6.2110    0.5490   17.6540 N   0  0  0  0  0  0  0  0  0  0  0  0
    6.9240    0.1030   18.7930 C   0  0  0  0  0  0  0  0  0  0  0  0
   10.3180   -0.5630   23.8430 C   0  0  0  0  0  0  0  0  0  0  0  0
    9.2500    0.0930   24.2920 N   0  0  0  0  0  0  0  0  0  0  0  0
   11.2750   -0.8310   24.7970 C   0  0  0  0  0  0  0  0  0  0  0  0
  1  2  1  0
  2  3  2  0
  2  4  1  0
  4  5  2  0
  5  6  1  0
  6  7  2  0
  7  8  1  0
  8  9  1  0
  9 10  2  0
  9 11  1  0
 11 12  1  0
 12 13  2  0
 13 14  1  0
 14 15  2  0
 15 16  1  0
 12 17  1  0
 16 17  2  0
  7 18  1  0
 18 19  1  0
  4 20  1  0
 18 20  2  0
M  END
