pyridine_urea_4800
     RDKit          3D

 22 23  0  0  0  0  0  0  0  0999 V2000
    8.0930    0.9120   20.6140 O   0  0  0  0  0  0  0  0  0  0  0  0
    7.9740   -0.1850   21.1460 C   0  0  0  0  0  0  0  0  0  0  0  0
    6.9220   -0.9610   20.8390 N   0  0  0  0  0  0  0  0  0  0  0  0
    6.3290   -0.2120   19.7980 C   0  0  0  0  0  0  0  0  0  0  0  0
    5.0150    0.5190   20.0940 C   0  0  0  0  0  0  0  0  0  0  0  0
    4.4260    1.2990   19.1010 C   0  0  0  0  0  0  0  0  0  0  0  0
    5.0750    1.3750   17.8690 C   0  0  0  0  0  0  0  0  0  0  0  0
    6.2450    0.6890   17.6660 N   0  0  0  0  0  0  0  0  0  0  0  0
    6.8840   -0.1050   18.6050 C   0  0  0  0  0  0  0  0  0  0  0  0
    8.8430   -0.5810   22.0450 N   0  0  0  0  0  0  0  0  0  0  0  0
    9.7470   -0.4640   22.9540 C   0  0  0  0  0  0  0  0  0  0  0  0
   11.0410   -0.3750   22.4830 C   0  0  0  0  0  0  0  0  0  0  0  0
   12.1640   -0.1610   23.2400 C   0  0  0  0  0  0  0  0  0  0  0  0
   12.0030   -0.0430   24.5890 C   0  0  0  0  0  0  0  0  0  0  0  0
   10.7080   -0.1780   25.1410 C   0  0  0  0  0  0  0  0  0  0  0  0
   10.4050   -0.1440   26.3320 O   0  0  0  0  0  0  0  0  0  0  0  0
    9.1600   -0.6840   26.7900 C   0  0  0  0  0  0  0  0  0  0  0  0
    8.2200    0.3100   27.0070 C   0  0  0  0  0  0  0  0  0  0  0  0
    6.9440   -0.0810   27.1370 F   0  0  0  0  0  0  0  0  0  0  0  0
    8.3960    1.0540   28.1090 F   0  0  0  0  0  0  0  0  0  0  0  0
    8.1820    1.2150   25.9930 F   0  0  0  0  0  0  0  0  0  0  0  0
    9.5500   -0.3850   24.2760 C   0  0  0  0  0  0  0  0  0  0  0  0
  1  2  2  0
  2  3  1  0
  3  4  1  0
  4  5  2  0
  5  6  1  0
  6  7  2  0
  7  8  1  0
  4  9  1  0
  8  9  2  0
  2 10  1  0
 10 11  1  0
 11 12  2  0
 12 13  1  0
 13 14  2  0
 14 15  1  0
 15 16  1  0
 16 17  1  0
 17 18  1  0
 18 19  1  0
 18 20  1  0
 18 21  1  0
 11 22  1  0
 15 22  2  0
M  END
