pyridine_urea_8460
     RDKit          3D

 22 24  0  0  0  0  0  0  0  0999 V2000
    8.8990    1.3470   21.1500 O   0  0  0  0  0  0  0  0  0  0  0  0
    8.3490    0.3330   21.5890 C   0  0  0  0  0  0  0  0  0  0  0  0
    8.7190   -0.3200   22.7360 N   0  0  0  0  0  0  0  0  0  0  0  0
    9.3840   -1.5470   22.8210 C   0  0  0  0  0  0  0  0  0  0  0  0
   10.6900   -1.5520   23.2770 C   0  0  0  0  0  0  0  0  0  0  0  0
   12.0920   -1.3780   23.6920 C   0  0  0  0  0  0  0  0  0  0  0  0
   13.0230   -0.3360   23.5700 C   0  0  0  0  0  0  0  0  0  0  0  0
   12.6290    0.8910   22.9250 C   0  0  0  0  0  0  0  0  0  0  0  0
   11.3760    0.6390   22.6170 C   0  0  0  0  0  0  0  0  0  0  0  0
   11.9300   -0.5820   23.2110 N   0  0  0  0  0  0  0  0  0  0  0  0
   13.0410   -1.2880   22.7610 C   0  0  0  0  0  0  0  0  0  0  0  0
   13.2480   -2.3780   23.5520 C   0  0  0  0  0  0  0  0  0  0  0  0
   12.2390   -2.3080   24.4800 C   0  0  0  0  0  0  0  0  0  0  0  0
   11.3710   -1.2340   24.3510 N   0  0  0  0  0  0  0  0  0  0  0  0
   10.4670   -0.3140   22.6970 N   0  0  0  0  0  0  0  0  0  0  0  0
    7.2700   -0.3060   21.0200 N   0  0  0  0  0  0  0  0  0  0  0  0
    6.5620    0.2060   20.0300 C   0  0  0  0  0  0  0  0  0  0  0  0
    5.4200    0.9360   20.3720 C   0  0  0  0  0  0  0  0  0  0  0  0
    4.6990    1.4870   19.3120 C   0  0  0  0  0  0  0  0  0  0  0  0
    5.1430    1.2840   18.0170 C   0  0  0  0  0  0  0  0  0  0  0  0
    6.2350    0.5760   17.6660 N   0  0  0  0  0  0  0  0  0  0  0  0
    6.9080    0.0580   18.7030 C   0  0  0  0  0  0  0  0  0  0  0  0
  1  2  2  0
  2  3  1  0
  3  4  1  0
  4  5  1  0
  5  6  2  0
  6  7  1  0
  7  8  2  0
  8  9  1  0
  9 10  1  0
 10 11  1  0
 11 12  2  0
 12 13  1  0
 10 14  1  0
 13 14  2  0
  5 15  1  0
  9 15  2  0
  2 16  1  0
 16 17  1  0
 17 18  2  0
 18 19  1  0
 19 20  2  0
 20 21  1  0
 17 22  1  0
 21 22  2  0
M  END
