pyridine_urea_3672
     RDKit          3D

 21 23  0  0  0  0  0  0  0  0999 V2000
   12.9320    3.2790   22.3970 O   0  0  0  0  0  0  0  0  0  0  0  0
   12.4170    2.2960   22.9010 C   0  0  0  0  0  0  0  0  0  0  0  0
   11.2020    2.3650   23.5250 N   0  0  0  0  0  0  0  0  0  0  0  0
   11.0380    1.1660   24.2530 C   0  0  0  0  0  0  0  0  0  0  0  0
   10.0230    1.0080   24.9210 O   0  0  0  0  0  0  0  0  0  0  0  0
   12.2690    0.3220   24.0080 C   0  0  1  0  0  0  0  0  0  0  0  0
   11.8130   -1.0620   23.6230 C   0  0  1  0  0  0  0  0  0  0  0  0
   10.3630   -0.9470   23.8990 C   0  0  0  0  0  0  0  0  0  0  0  0
   10.3200   -0.5750   22.4710 C   0  0  2  0  0  0  0  0  0  0  0  0
    9.2180   -1.1210   21.8680 N   0  0  0  0  0  0  0  0  0  0  0  0
    8.2590   -0.2580   21.3100 C   0  0  0  0  0  0  0  0  0  0  0  0
    8.5690    0.9130   21.1380 O   0  0  0  0  0  0  0  0  0  0  0  0
    7.0740   -0.8140   21.0040 N   0  0  0  0  0  0  0  0  0  0  0  0
    6.4500   -0.1310   20.0150 C   0  0  0  0  0  0  0  0  0  0  0  0
    5.2670    0.5620   20.2590 C   0  0  0  0  0  0  0  0  0  0  0  0
    4.6160    1.2810   19.2740 C   0  0  0  0  0  0  0  0  0  0  0  0
    5.1830    1.2960   18.0100 C   0  0  0  0  0  0  0  0  0  0  0  0
    6.3230    0.6350   17.7280 N   0  0  0  0  0  0  0  0  0  0  0  0
    6.9240   -0.0570   18.7240 C   0  0  0  0  0  0  0  0  0  0  0  0
   11.7380   -1.2460   22.2280 C   0  0  0  0  0  0  0  0  0  0  0  0
   12.8980    0.9680   22.9890 N   0  0  0  0  0  0  0  0  0  0  0  0
  1  2  2  0
  2  3  1  0
  3  4  1  0
  4  5  2  0
  4  6  1  0
  6  7  1  0
  7  8  1  1
  8  9  1  0
  9 10  1  6
 10 11  1  0
 11 12  2  0
 11 13  1  0
 13 14  1  0
 14 15  2  0
 15 16  1  0
 16 17  2  0
 17 18  1  0
 14 19  1  0
 18 19  2  0
  7 20  1  0
  9 20  1  0
  2 21  1  0
  6 21  1  6
M  END
