pyridine_urea_4567
     RDKit          3D

 22 24  0  0  0  0  0  0  0  0999 V2000
    8.8100    0.7790   21.2330 O   0  0  0  0  0  0  0  0  0  0  0  0
    8.2810   -0.2930   21.4840 C   0  0  0  0  0  0  0  0  0  0  0  0
    8.8440   -1.2260   22.3060 N   0  0  0  0  0  0  0  0  0  0  0  0
   10.2440   -1.0790   22.5790 C   0  0  0  0  0  0  0  0  0  0  0  0
   10.5190    0.1490   23.4340 C   0  0  0  0  0  0  0  0  0  0  0  0
   12.0050    0.3140   23.8130 C   0  0  1  0  0  0  0  0  0  0  0  0
   12.4920   -0.9340   24.3260 O   0  0  0  0  0  0  0  0  0  0  0  0
   12.8700    0.6330   22.5920 C   0  0  0  0  0  0  0  0  0  0  0  0
   12.9490   -0.8200   22.6830 C   0  0  0  0  0  0  0  0  0  0  0  0
   12.1390   -1.4960   23.8300 C   0  0  0  0  0  0  0  0  0  0  0  0
   11.5990   -0.2090   24.3640 C   0  0  0  0  0  0  0  0  0  0  0  0
   11.6670    1.2200   24.0760 C   0  0  0  0  0  0  0  0  0  0  0  0
   12.3840    1.7290   23.0800 C   0  0  0  0  0  0  0  0  0  0  0  0
    9.5420    0.5670   24.2330 C   0  0  0  0  0  0  0  0  0  0  0  0
    9.5620    1.5160   23.3400 C   0  0  0  0  0  0  0  0  0  0  0  0
    7.0740   -0.7200   21.0060 N   0  0  0  0  0  0  0  0  0  0  0  0
    6.3690   -0.0070   20.0380 C   0  0  0  0  0  0  0  0  0  0  0  0
    5.1860    0.6930   20.2280 C   0  0  0  0  0  0  0  0  0  0  0  0
    4.5360    1.4280   19.1230 C   0  0  0  0  0  0  0  0  0  0  0  0
    5.1920    1.3660   17.9070 C   0  0  0  0  0  0  0  0  0  0  0  0
    6.3400    0.6850   17.7060 N   0  0  0  0  0  0  0  0  0  0  0  0
    6.8890    0.0250   18.7530 C   0  0  0  0  0  0  0  0  0  0  0  0
  1  2  2  0
  2  3  1  0
  3  4  1  0
  5  4  1  0
  5  6  1  0
  6  7  1  6
  6  8  1  0
  8  9  2  0
  9 10  1  0
 10 11  2  0
 11 12  1  0
  8 13  1  0
 12 13  2  0
  5 14  1  0
  5 15  1  0
 14 15  1  0
  2 16  1  0
 16 17  1  0
 17 18  2  0
 18 19  1  0
 19 20  2  0
 20 21  1  0
 17 22  1  0
 21 22  2  0
M  END
