pyridine_urea_7097
     RDKit          3D

 19 20  0  0  0  0  0  0  0  0999 V2000
    9.0040    0.6440   21.3730 O   0  0  0  0  0  0  0  0  0  0  0  0
    8.3980   -0.3960   21.5990 C   0  0  0  0  0  0  0  0  0  0  0  0
    8.8370   -1.4090   22.4430 N   0  0  0  0  0  0  0  0  0  0  0  0
   10.0250   -2.1950   22.3770 C   0  0  0  0  0  0  0  0  0  0  0  0
   11.2810   -1.6420   22.2230 C   0  0  0  0  0  0  0  0  0  0  0  0
   12.5130   -0.8820   22.2720 C   0  0  0  0  0  0  0  0  0  0  0  0
   13.4180   -1.1960   21.5010 O   0  0  0  0  0  0  0  0  0  0  0  0
   12.9610    0.1940   23.0200 C   0  0  0  0  0  0  0  0  0  0  0  0
   12.1600    0.7190   23.9480 C   0  0  0  0  0  0  0  0  0  0  0  0
   10.8700    0.0330   24.0530 C   0  0  0  0  0  0  0  0  0  0  0  0
   10.5240   -1.0050   23.2700 C   0  0  0  0  0  0  0  0  0  0  0  0
    9.4080   -1.4220   23.5330 O   0  0  0  0  0  0  0  0  0  0  0  0
    7.1660   -0.7280   21.0770 N   0  0  0  0  0  0  0  0  0  0  0  0
    6.4500    0.0010   20.0180 C   0  0  0  0  0  0  0  0  0  0  0  0
    5.2770    0.6850   20.3410 C   0  0  0  0  0  0  0  0  0  0  0  0
    4.6230    1.3760   19.3260 C   0  0  0  0  0  0  0  0  0  0  0  0
    5.2130    1.3420   17.9720 C   0  0  0  0  0  0  0  0  0  0  0  0
    6.3430    0.6670   17.6990 N   0  0  0  0  0  0  0  0  0  0  0  0
    6.9290    0.0160   18.7200 C   0  0  0  0  0  0  0  0  0  0  0  0
  1  2  2  0
  2  3  1  0
  3  4  1  0
  4  5  1  0
  5  6  2  0
  6  7  1  0
  6  8  1  0
  8  9  2  0
  9 10  1  0
  5 11  1  0
 10 11  2  0
 11 12  1  0
  2 13  1  0
 13 14  1  0
 14 15  2  0
 15 16  1  0
 16 17  2  0
 17 18  1  0
 14 19  1  0
 18 19  2  0
M  END
