pyridine_urea_1530
     RDKit          3D

 19 20  0  0  0  0  0  0  0  0999 V2000
    9.3450    1.7580   22.9670 C   0  0  0  0  0  0  0  0  0  0  0  0
   10.4520    0.7500   22.7990 C   0  0  0  0  0  0  0  0  0  0  0  0
   10.2420   -0.6010   22.5440 C   0  0  0  0  0  0  0  0  0  0  0  0
    8.9060   -0.9870   22.4220 N   0  0  0  0  0  0  0  0  0  0  0  0
    8.1700   -0.2410   21.5240 C   0  0  0  0  0  0  0  0  0  0  0  0
    8.5430    0.8430   21.1080 O   0  0  0  0  0  0  0  0  0  0  0  0
    6.9860   -0.7840   21.0980 N   0  0  0  0  0  0  0  0  0  0  0  0
    6.3440   -0.0970   20.0580 C   0  0  0  0  0  0  0  0  0  0  0  0
    5.1390    0.5740   20.3230 C   0  0  0  0  0  0  0  0  0  0  0  0
    4.5210    1.2740   19.2950 C   0  0  0  0  0  0  0  0  0  0  0  0
    5.2020    1.2680   17.9320 C   0  0  0  0  0  0  0  0  0  0  0  0
    6.3420    0.6150   17.7170 N   0  0  0  0  0  0  0  0  0  0  0  0
    6.8770   -0.0450   18.7720 C   0  0  0  0  0  0  0  0  0  0  0  0
   11.3310   -1.4670   22.4030 C   0  0  0  0  0  0  0  0  0  0  0  0
   12.6200   -0.9800   22.5050 C   0  0  0  0  0  0  0  0  0  0  0  0
   12.7950    0.3640   22.7430 C   0  0  0  0  0  0  0  0  0  0  0  0
   13.9780    0.8520   22.8170 F   0  0  0  0  0  0  0  0  0  0  0  0
   11.7460    1.2090   22.8890 C   0  0  0  0  0  0  0  0  0  0  0  0
   11.9870    2.5120   23.1140 F   0  0  0  0  0  0  0  0  0  0  0  0
  1  2  1  0
  2  3  2  0
  3  4  1  0
  4  5  1  0
  5  6  2  0
  5  7  1  0
  7  8  1  0
  8  9  2  0
  9 10  1  0
 10 11  2  0
 11 12  1  0
  8 13  1  0
 12 13  2  0
  3 14  1  0
 14 15  2  0
 15 16  1  0
 16 17  1  0
  2 18  1  0
 16 18  2  0
 18 19  1  0
M  END
