pyridine_urea_589
     RDKit          3D

 24 26  0  0  0  0  0  0  0  0999 V2000
   11.2730    2.5490   23.1630 C   0  0  0  0  0  0  0  0  0  0  0  0
   10.1120    1.6200   22.8100 C   0  0  0  0  0  0  0  0  0  0  0  0
   11.4920    1.1250   22.8820 N   0  0  0  0  0  0  0  0  0  0  0  0
   11.9770   -0.1860   22.6490 C   0  0  0  0  0  0  0  0  0  0  0  0
   13.1790   -0.4930   22.7880 N   0  0  0  0  0  0  0  0  0  0  0  0
   13.4770   -1.7220   22.2210 C   0  0  0  0  0  0  0  0  0  0  0  0
   12.6060   -2.6790   22.5760 C   0  0  0  0  0  0  0  0  0  0  0  0
   12.3350   -2.6530   24.0230 N   0  0  0  0  0  0  0  0  0  0  0  0
   13.3780   -3.0370   24.8400 C   0  0  0  0  0  0  0  0  0  0  0  0
   11.9850   -1.4050   24.4100 C   0  0  0  0  0  0  0  0  0  0  0  0
   13.1410   -0.6910   24.1650 C   0  0  0  0  0  0  0  0  0  0  0  0
   11.2380   -1.1800   22.3030 C   0  0  0  0  0  0  0  0  0  0  0  0
    9.9960   -0.9410   22.1940 C   0  0  0  0  0  0  0  0  0  0  0  0
    9.4210    0.2710   22.4110 C   0  0  0  0  0  0  0  0  0  0  0  0
    8.1250    0.2770   22.2370 N   0  0  0  0  0  0  0  0  0  0  0  0
    7.8890    0.5240   20.9440 C   0  0  0  0  0  0  0  0  0  0  0  0
    8.8030    1.3140   21.1180 O   0  0  0  0  0  0  0  0  0  0  0  0
    6.9210   -0.4030   21.0270 N   0  0  0  0  0  0  0  0  0  0  0  0
    6.2310    0.1340   20.0460 C   0  0  0  0  0  0  0  0  0  0  0  0
    5.0140    0.7700   20.1660 C   0  0  0  0  0  0  0  0  0  0  0  0
    4.4180    1.3410   19.0520 C   0  0  0  0  0  0  0  0  0  0  0  0
    5.0920    1.2440   17.8370 C   0  0  0  0  0  0  0  0  0  0  0  0
    6.2540    0.6180   17.7230 N   0  0  0  0  0  0  0  0  0  0  0  0
    6.8280    0.0610   18.8110 C   0  0  0  0  0  0  0  0  0  0  0  0
  1  2  1  0
  2  3  2  0
  3  4  1  0
  4  5  1  0
  5  6  1  0
  6  7  1  0
  7  8  1  0
  8  9  1  0
  8 10  1  0
  5 11  1  0
 10 11  1  0
  4 12  2  0
 12 13  1  0
  2 14  1  0
 13 14  2  0
 14 15  1  0
 15 16  1  0
 16 17  2  0
 16 18  1  0
 18 19  1  0
 19 20  2  0
 20 21  1  0
 21 22  2  0
 22 23  1  0
 19 24  1  0
 23 24  2  0
M  END
