pyridine_urea_2526
     RDKit          3D

 24 26  0  0  0  0  0  0  0  0999 V2000
   13.8580   -3.0340   23.1540 C   0  0  0  0  0  0  0  0  0  0  0  0
   13.4600   -3.1560   24.2440 O   0  0  0  0  0  0  0  0  0  0  0  0
   12.9260   -2.0180   24.2330 C   0  0  0  0  0  0  0  0  0  0  0  0
   11.9510   -1.8180   25.0630 C   0  0  0  0  0  0  0  0  0  0  0  0
   11.2780   -0.6660   25.1430 C   0  0  0  0  0  0  0  0  0  0  0  0
   11.7660    0.2300   24.2360 C   0  0  0  0  0  0  0  0  0  0  0  0
   11.0570    1.3850   24.2250 N   0  0  0  0  0  0  0  0  0  0  0  0
    9.7340    1.0470   24.2800 C   0  0  0  0  0  0  0  0  0  0  0  0
    9.7310   -0.0090   23.3260 C   0  0  1  0  0  0  0  0  0  0  0  0
    8.6990   -0.0530   22.5600 N   0  0  0  0  0  0  0  0  0  0  0  0
    7.9380    0.2540   21.4880 C   0  0  0  0  0  0  0  0  0  0  0  0
    8.2350    1.4240   20.6970 O   0  0  0  0  0  0  0  0  0  0  0  0
    6.9300   -0.5790   21.2240 N   0  0  0  0  0  0  0  0  0  0  0  0
    6.3440   -0.0050   20.1650 C   0  0  0  0  0  0  0  0  0  0  0  0
    5.1640    0.6950   20.2580 C   0  0  0  0  0  0  0  0  0  0  0  0
    4.5820    1.3180   19.1720 C   0  0  0  0  0  0  0  0  0  0  0  0
    5.1490    1.2830   17.8960 C   0  0  0  0  0  0  0  0  0  0  0  0
    6.3230    0.5980   17.6820 N   0  0  0  0  0  0  0  0  0  0  0  0
    6.8910   -0.0180   18.7600 C   0  0  0  0  0  0  0  0  0  0  0  0
   10.8920    0.4100   22.4410 C   0  0  0  0  0  0  0  0  0  0  0  0
   11.2610    1.6630   22.9430 C   0  0  0  0  0  0  0  0  0  0  0  0
   11.6460    2.6680   22.3510 O   0  0  0  0  0  0  0  0  0  0  0  0
   12.7980    0.0620   23.3560 C   0  0  0  0  0  0  0  0  0  0  0  0
   13.3940   -1.1230   23.3580 C   0  0  0  0  0  0  0  0  0  0  0  0
  1  2  1  0
  2  3  1  0
  3  4  2  0
  4  5  1  0
  5  6  2  0
  6  7  1  0
  7  8  1  0
  8  9  1  0
  9 10  1  6
 10 11  1  0
 11 12  2  0
 11 13  1  0
 13 14  1  0
 14 15  2  0
 15 16  1  0
 16 17  2  0
 17 18  1  0
 14 19  1  0
 18 19  2  0
  9 20  1  0
  7 21  1  0
 20 21  1  0
 21 22  2  0
  6 23  1  0
  3 24  1  0
 23 24  2  0
M  END
