pyridine_urea_13414
     RDKit          3D

 20 21  0  0  0  0  0  0  0  0999 V2000
   13.5810   -0.1040   22.6050 C   0  0  0  0  0  0  0  0  0  0  0  0
   12.2990    0.1040   22.3580 N   0  0  0  0  0  0  0  0  0  0  0  0
   11.5780    1.1540   22.9510 C   0  0  0  0  0  0  0  0  0  0  0  0
   11.6060   -1.3670   21.8370 S   0  0  0  0  0  0  0  0  0  0  0  0
   10.3650   -1.0060   21.2340 O   0  0  0  0  0  0  0  0  0  0  0  0
   12.6470   -2.1820   21.2500 O   0  0  0  0  0  0  0  0  0  0  0  0
   11.1000   -1.9180   23.3150 C   0  0  0  0  0  0  0  0  0  0  0  0
    9.7600   -1.3160   23.7270 C   0  0  0  0  0  0  0  0  0  0  0  0
    8.7700   -1.3610   22.7500 N   0  0  0  0  0  0  0  0  0  0  0  0
    8.3480   -0.3510   21.8310 C   0  0  0  0  0  0  0  0  0  0  0  0
    8.9970    0.6590   21.5810 O   0  0  0  0  0  0  0  0  0  0  0  0
    7.0570   -0.7000   21.2490 N   0  0  0  0  0  0  0  0  0  0  0  0
    6.3890   -0.0140   20.2080 C   0  0  0  0  0  0  0  0  0  0  0  0
    5.2210    0.7590   20.3430 C   0  0  0  0  0  0  0  0  0  0  0  0
    4.6190    1.4210   19.2500 C   0  0  0  0  0  0  0  0  0  0  0  0
    5.2230    1.2910   18.0130 C   0  0  0  0  0  0  0  0  0  0  0  0
    6.3350    0.5780   17.7620 N   0  0  0  0  0  0  0  0  0  0  0  0
    6.9450   -0.0900   18.8220 C   0  0  0  0  0  0  0  0  0  0  0  0
   12.2470   -1.1010   23.9800 C   0  0  0  0  0  0  0  0  0  0  0  0
   11.8090   -1.9330   24.8320 C   0  0  0  0  0  0  0  0  0  0  0  0
  1  2  1  0
  2  3  1  0
  4  2  1  0
  4  5  2  0
  4  6  2  0
  4  7  1  0
  7  8  1  0
  8  9  1  0
  9 10  1  0
 10 11  2  0
 10 12  1  0
 12 13  1  0
 13 14  2  0
 14 15  1  0
 15 16  2  0
 16 17  1  0
 13 18  1  0
 17 18  2  0
  7 19  1  0
  7 20  1  0
 19 20  1  0
M  END
