pyridine_urea_5941
     RDKit          3D

 27 29  0  0  0  0  0  0  0  0999 V2000
    8.4530    1.0190   21.1680 O   0  0  0  0  0  0  0  0  0  0  0  0
    8.3360   -0.1980   21.1410 C   0  0  0  0  0  0  0  0  0  0  0  0
    7.0470   -0.8100   20.9200 N   0  0  0  0  0  0  0  0  0  0  0  0
    6.3550   -0.0920   19.9700 C   0  0  0  0  0  0  0  0  0  0  0  0
    5.1510    0.5540   20.2450 C   0  0  0  0  0  0  0  0  0  0  0  0
    4.5400    1.2760   19.2150 C   0  0  0  0  0  0  0  0  0  0  0  0
    5.1570    1.3220   17.9600 C   0  0  0  0  0  0  0  0  0  0  0  0
    6.3130    0.6940   17.6980 N   0  0  0  0  0  0  0  0  0  0  0  0
    6.8810    0.0020   18.7060 C   0  0  0  0  0  0  0  0  0  0  0  0
    9.3700   -1.0690   21.2800 N   0  0  0  0  0  0  0  0  0  0  0  0
   10.3330   -0.5240   22.1770 C   0  0  2  0  0  0  0  0  0  0  0  0
   11.6670   -1.2670   22.2280 C   0  0  0  0  0  0  0  0  0  0  0  0
   12.6950   -0.4570   22.7180 C   0  0  0  0  0  0  0  0  0  0  0  0
   12.3520    0.3250   23.6130 O   0  0  0  0  0  0  0  0  0  0  0  0
   12.0440    1.6310   23.2790 C   0  0  0  0  0  0  0  0  0  0  0  0
   10.7450    2.0790   23.5440 C   0  0  0  0  0  0  0  0  0  0  0  0
   10.3710    3.3810   23.2330 C   0  0  0  0  0  0  0  0  0  0  0  0
   11.2960    4.2340   22.6590 C   0  0  0  0  0  0  0  0  0  0  0  0
   12.5760    3.7840   22.4040 C   0  0  0  0  0  0  0  0  0  0  0  0
   12.9790    2.4920   22.7040 C   0  0  0  0  0  0  0  0  0  0  0  0
    9.8280   -0.4040   23.3740 C   0  0  0  0  0  0  0  0  0  0  0  0
    8.6110   -0.2850   23.8590 C   0  0  0  0  0  0  0  0  0  0  0  0
    8.8470   -0.2370   25.2580 C   0  0  0  0  0  0  0  0  0  0  0  0
   10.2350   -0.3120   25.8140 C   0  0  0  0  0  0  0  0  0  0  0  0
   10.1920   -0.2700   27.1230 F   0  0  0  0  0  0  0  0  0  0  0  0
   11.4840   -0.4240   25.0230 C   0  0  0  0  0  0  0  0  0  0  0  0
   10.3250   -0.3680   24.5400 C   0  0  0  0  0  0  0  0  0  0  0  0
  1  2  2  0
  2  3  1  0
  3  4  1  0
  4  5  2  0
  5  6  1  0
  6  7  2  0
  7  8  1  0
  4  9  1  0
  8  9  2  0
  2 10  1  0
 10 11  1  0
 11 12  1  1
 12 13  1  0
 13 14  1  0
 14 15  1  0
 15 16  2  0
 16 17  1  0
 17 18  2  0
 18 19  1  0
 15 20  1  0
 19 20  2  0
 11 21  1  0
 21 22  2  0
 22 23  1  0
 23 24  2  0
 24 25  1  0
 24 26  1  0
 21 27  1  0
 26 27  2  0
M  END
