pyridine_urea_6112
     RDKit          3D

 25 27  0  0  0  0  0  0  0  0999 V2000
   13.4190    0.6310   22.8180 C   0  0  0  0  0  0  0  0  0  0  0  0
   12.6060    1.4990   23.5980 O   0  0  0  0  0  0  0  0  0  0  0  0
   12.2430    2.7520   23.1680 C   0  0  0  0  0  0  0  0  0  0  0  0
   13.1490    3.6980   22.6460 C   0  0  0  0  0  0  0  0  0  0  0  0
   12.7640    4.9880   22.2440 C   0  0  0  0  0  0  0  0  0  0  0  0
   11.4330    5.4060   22.3440 C   0  0  0  0  0  0  0  0  0  0  0  0
   10.4140    4.4460   22.8820 C   0  0  0  0  0  0  0  0  0  0  0  0
   10.8990    3.0740   23.2930 C   0  0  0  0  0  0  0  0  0  0  0  0
    9.8800    2.0900   23.8380 C   0  0  0  0  0  0  0  0  0  0  0  0
   10.3180    0.7060   23.6230 N   0  0  0  0  0  0  0  0  0  0  0  0
   11.4160    0.3390   22.8870 C   0  0  0  0  0  0  0  0  0  0  0  0
   11.1100   -0.9560   22.4160 C   0  0  0  0  0  0  0  0  0  0  0  0
    9.9340   -1.5070   22.9210 C   0  0  0  0  0  0  0  0  0  0  0  0
    8.6970   -0.9560   22.6620 N   0  0  0  0  0  0  0  0  0  0  0  0
    8.2350   -0.2130   21.5540 C   0  0  0  0  0  0  0  0  0  0  0  0
    8.7050    0.8450   21.1690 O   0  0  0  0  0  0  0  0  0  0  0  0
    7.1700   -0.8310   20.9960 N   0  0  0  0  0  0  0  0  0  0  0  0
    6.4490   -0.0850   20.0420 C   0  0  0  0  0  0  0  0  0  0  0  0
    5.2670    0.6350   20.2860 C   0  0  0  0  0  0  0  0  0  0  0  0
    4.6430    1.3490   19.2460 C   0  0  0  0  0  0  0  0  0  0  0  0
    5.2230    1.3230   17.9840 C   0  0  0  0  0  0  0  0  0  0  0  0
    6.3400    0.6390   17.7490 N   0  0  0  0  0  0  0  0  0  0  0  0
    6.9460   -0.0560   18.7500 C   0  0  0  0  0  0  0  0  0  0  0  0
   10.1670   -1.3090   24.4110 C   0  0  0  0  0  0  0  0  0  0  0  0
   10.4940   -0.0450   24.8330 C   0  0  0  0  0  0  0  0  0  0  0  0
  1  2  1  0
  2  3  1  0
  3  4  2  0
  4  5  1  0
  5  6  2  0
  6  7  1  0
  3  8  1  0
  7  8  2  0
  8  9  1  0
  9 10  1  0
 10 11  1  0
 11 12  1  0
 12 13  1  0
 13 14  1  0
 14 15  1  0
 15 16  2  0
 15 17  1  0
 17 18  1  0
 18 19  2  0
 19 20  1  0
 20 21  2  0
 21 22  1  0
 18 23  1  0
 22 23  2  0
 13 24  1  0
 10 25  1  0
 24 25  1  0
M  END
