pyridine_urea_85
     RDKit          3D

 22 23  0  0  0  0  0  0  0  0999 V2000
    8.9190    1.4570   21.1460 O   0  0  0  0  0  0  0  0  0  0  0  0
    8.5600    0.3120   21.4230 C   0  0  0  0  0  0  0  0  0  0  0  0
    9.3000   -0.4800   22.2570 N   0  0  0  0  0  0  0  0  0  0  0  0
   10.2080    0.1300   23.2120 C   0  0  0  0  0  0  0  0  0  0  0  0
   11.6710    0.1820   22.7930 C   0  0  0  0  0  0  0  0  0  0  0  0
   11.9680   -0.8640   22.2790 O   0  0  0  0  0  0  0  0  0  0  0  0
   12.1030   -1.7890   23.2210 C   0  0  0  0  0  0  0  0  0  0  0  0
   13.1840   -2.1590   23.9100 C   0  0  0  0  0  0  0  0  0  0  0  0
   12.9640   -3.0760   24.7560 N   0  0  0  0  0  0  0  0  0  0  0  0
   11.6590   -3.4560   24.7450 N   0  0  0  0  0  0  0  0  0  0  0  0
   11.1030   -2.6740   23.8090 C   0  0  0  0  0  0  0  0  0  0  0  0
    9.6500   -2.7340   23.4580 C   0  0  0  0  0  0  0  0  0  0  0  0
    8.9420   -1.7340   24.0310 F   0  0  0  0  0  0  0  0  0  0  0  0
    9.4330   -2.6660   22.1280 F   0  0  0  0  0  0  0  0  0  0  0  0
    9.0210   -3.8560   23.8730 F   0  0  0  0  0  0  0  0  0  0  0  0
    7.4210   -0.3260   20.9840 N   0  0  0  0  0  0  0  0  0  0  0  0
    6.6250    0.2140   20.0550 C   0  0  0  0  0  0  0  0  0  0  0  0
    5.3850    0.9920   20.2800 C   0  0  0  0  0  0  0  0  0  0  0  0
    4.6850    1.5120   19.2190 C   0  0  0  0  0  0  0  0  0  0  0  0
    5.1430    1.3100   17.9160 C   0  0  0  0  0  0  0  0  0  0  0  0
    6.2590    0.5950   17.7040 N   0  0  0  0  0  0  0  0  0  0  0  0
    6.9610    0.0730   18.7320 C   0  0  0  0  0  0  0  0  0  0  0  0
  1  2  2  0
  2  3  1  0
  3  4  1  0
  4  5  1  0
  5  6  1  0
  6  7  1  0
  7  8  2  0
  8  9  1  0
  9 10  1  0
  7 11  1  0
 10 11  2  0
 11 12  1  0
 12 13  1  0
 12 14  1  0
 12 15  1  0
  2 16  1  0
 16 17  1  0
 17 18  2  0
 18 19  1  0
 19 20  2  0
 20 21  1  0
 17 22  1  0
 21 22  2  0
M  END
