pyridine_urea_15242
     RDKit          3D

 15 16  0  0  0  0  0  0  0  0999 V2000
   13.1650   -0.2010   23.2660 C   0  0  0  0  0  0  0  0  0  0  0  0
   11.6990   -0.4800   23.5420 C   0  0  2  0  0  0  0  0  0  0  0  0
   11.2600   -1.6740   22.7100 C   0  0  0  0  0  0  0  0  0  0  0  0
   10.2920   -0.8040   22.1450 C   0  0  1  0  0  0  0  0  0  0  0  0
    8.8960   -1.1790   22.2360 N   0  0  0  0  0  0  0  0  0  0  0  0
    8.1400   -0.2660   21.5500 C   0  0  0  0  0  0  0  0  0  0  0  0
    8.4960    0.8990   21.4340 O   0  0  0  0  0  0  0  0  0  0  0  0
    6.9730   -0.7970   20.9910 N   0  0  0  0  0  0  0  0  0  0  0  0
    6.3020   -0.0800   20.0270 C   0  0  0  0  0  0  0  0  0  0  0  0
    4.9900    0.6700   20.2480 C   0  0  0  0  0  0  0  0  0  0  0  0
    4.5050    1.3410   19.1220 C   0  0  0  0  0  0  0  0  0  0  0  0
    5.1990    1.2980   17.9210 C   0  0  0  0  0  0  0  0  0  0  0  0
    6.3480    0.6330   17.7320 N   0  0  0  0  0  0  0  0  0  0  0  0
    6.8690   -0.0350   18.7720 C   0  0  0  0  0  0  0  0  0  0  0  0
   10.6210    0.3610   23.0370 C   0  0  0  0  0  0  0  0  0  0  0  0
  2  1  1  6
  2  3  1  0
  3  4  1  0
  4  5  1  1
  5  6  1  0
  6  7  2  0
  6  8  1  0
  8  9  1  0
  9 10  2  0
 10 11  1  0
 11 12  2  0
 12 13  1  0
  9 14  1  0
 13 14  2  0
  2 15  1  0
  4 15  1  0
M  END
