pyridine_urea_11652
     RDKit          3D

 18 20  0  0  0  0  0  0  0  0999 V2000
    8.9820    0.8060   21.3030 O   0  0  0  0  0  0  0  0  0  0  0  0
    8.3580   -0.1780   21.6750 C   0  0  0  0  0  0  0  0  0  0  0  0
    8.6220   -0.9360   22.7900 N   0  0  0  0  0  0  0  0  0  0  0  0
    7.8070   -0.9880   23.9450 C   0  0  0  0  0  0  0  0  0  0  0  0
    8.3780   -1.4910   25.1170 C   0  0  1  0  0  0  0  0  0  0  0  0
    8.9590   -0.6150   26.0180 C   0  0  0  0  0  0  0  0  0  0  0  0
    8.1710   -1.1850   26.9520 C   0  0  0  0  0  0  0  0  0  0  0  0
    7.5690   -2.0740   26.1160 N   0  0  0  0  0  0  0  0  0  0  0  0
    7.8540   -3.3950   26.3070 C   0  0  0  0  0  0  0  0  0  0  0  0
    6.8730   -4.2170   26.6520 C   0  0  0  0  0  0  0  0  0  0  0  0
    7.7190   -4.1150   27.7990 C   0  0  0  0  0  0  0  0  0  0  0  0
    7.2590   -0.6490   20.9990 N   0  0  0  0  0  0  0  0  0  0  0  0
    6.5110    0.0210   20.0860 C   0  0  0  0  0  0  0  0  0  0  0  0
    5.3420    0.7480   20.3660 C   0  0  0  0  0  0  0  0  0  0  0  0
    4.7060    1.3840   19.3080 C   0  0  0  0  0  0  0  0  0  0  0  0
    5.2220    1.2900   18.0400 C   0  0  0  0  0  0  0  0  0  0  0  0
    6.3290    0.6050   17.7270 N   0  0  0  0  0  0  0  0  0  0  0  0
    6.9350   -0.0090   18.7630 C   0  0  0  0  0  0  0  0  0  0  0  0
  1  2  2  0
  2  3  1  0
  3  4  1  0
  5  4  1  6
  5  6  1  0
  6  7  1  0
  5  8  1  0
  7  8  1  0
  8  9  1  0
  9 10  1  0
  9 11  1  0
 10 11  1  0
  2 12  1  0
 12 13  1  0
 13 14  2  0
 14 15  1  0
 15 16  2  0
 16 17  1  0
 13 18  1  0
 17 18  2  0
M  END
