pyridine_urea_6203
     RDKit          3D

 24 25  0  0  0  0  0  0  0  0999 V2000
   13.6500   -3.0140   20.5850 C   0  0  0  0  0  0  0  0  0  0  0  0
   14.1930   -1.6960   20.3380 O   0  0  0  0  0  0  0  0  0  0  0  0
   13.4340   -1.2300   21.3040 C   0  0  0  0  0  0  0  0  0  0  0  0
   13.6210   -0.0290   22.2540 C   0  0  0  0  0  0  0  0  0  0  0  0
   12.4990   -0.1870   22.8640 C   0  0  0  0  0  0  0  0  0  0  0  0
   11.7570    0.2480   23.6890 C   0  0  0  0  0  0  0  0  0  0  0  0
   10.3160    0.5480   23.3020 C   0  0  0  0  0  0  0  0  0  0  0  0
    9.8620   -0.5330   22.4420 C   0  0  0  0  0  0  0  0  0  0  0  0
    8.4570   -0.4970   22.4580 N   0  0  0  0  0  0  0  0  0  0  0  0
    7.9850    0.2050   21.4280 C   0  0  0  0  0  0  0  0  0  0  0  0
    8.5210    1.2620   21.0510 O   0  0  0  0  0  0  0  0  0  0  0  0
    6.8970   -0.4060   20.9180 N   0  0  0  0  0  0  0  0  0  0  0  0
    6.2250    0.2290   19.9170 C   0  0  0  0  0  0  0  0  0  0  0  0
    5.0380    0.9170   20.0240 C   0  0  0  0  0  0  0  0  0  0  0  0
    4.4730    1.5500   18.9420 C   0  0  0  0  0  0  0  0  0  0  0  0
    5.1470    1.4630   17.7470 C   0  0  0  0  0  0  0  0  0  0  0  0
    6.3040    0.7950   17.5800 N   0  0  0  0  0  0  0  0  0  0  0  0
    6.7920    0.2040   18.6710 C   0  0  0  0  0  0  0  0  0  0  0  0
   12.0060   -1.3110   22.2620 C   0  0  0  0  0  0  0  0  0  0  0  0
   10.9410   -2.2160   22.2490 C   0  0  0  0  0  0  0  0  0  0  0  0
   10.3270   -1.5550   23.3520 O   0  0  0  0  0  0  0  0  0  0  0  0
    9.2730   -2.3670   23.8660 C   0  0  0  0  0  0  0  0  0  0  0  0
   12.1840   -2.2000   21.3200 C   0  0  0  0  0  0  0  0  0  0  0  0
   12.2990   -3.0000   20.4600 O   0  0  0  0  0  0  0  0  0  0  0  0
  1  2  1  0
  2  3  1  0
  3  4  2  0
  4  5  1  0
  5  6  1  0
  6  7  1  0
  7  8  1  0
  8  9  1  0
  9 10  1  0
 10 11  2  0
 10 12  1  0
 12 13  1  0
 13 14  2  0
 14 15  1  0
 15 16  2  0
 16 17  1  0
 13 18  1  0
 17 18  2  0
  5 19  2  0
 19 20  1  0
 20 21  1  0
 21 22  1  0
  3 23  1  0
 20 23  2  0
 23 24  1  0
M  END
