pyridine_urea_1607
     RDKit          3D

 19 20  0  0  0  0  0  0  0  0999 V2000
    8.7710    0.9280   21.2750 O   0  0  0  0  0  0  0  0  0  0  0  0
    8.4600   -0.2530   21.3720 C   0  0  0  0  0  0  0  0  0  0  0  0
    9.2630   -1.2660   21.8280 N   0  0  0  0  0  0  0  0  0  0  0  0
   10.3590   -1.0850   22.6930 C   0  0  0  0  0  0  0  0  0  0  0  0
   11.6250   -1.5160   22.2770 C   0  0  0  0  0  0  0  0  0  0  0  0
   12.7700   -0.7940   22.6440 C   0  0  0  0  0  0  0  0  0  0  0  0
   12.6780    0.2140   23.5900 C   0  0  0  0  0  0  0  0  0  0  0  0
   11.4370    0.6340   24.0760 C   0  0  0  0  0  0  0  0  0  0  0  0
   10.9760    1.9500   23.7020 N   0  0  0  0  0  0  0  0  0  0  0  0
    9.7820    2.2460   24.2190 C   0  0  0  0  0  0  0  0  0  0  0  0
    9.2240    1.0990   25.0780 C   0  0  0  0  0  0  0  0  0  0  0  0
   10.3280   -0.2350   25.1070 S   0  0  0  0  0  0  0  0  0  0  0  0
    7.2110   -0.6730   20.9840 N   0  0  0  0  0  0  0  0  0  0  0  0
    6.4610   -0.0060   20.0700 C   0  0  0  0  0  0  0  0  0  0  0  0
    5.2730    0.6890   20.3230 C   0  0  0  0  0  0  0  0  0  0  0  0
    4.6420    1.3350   19.2600 C   0  0  0  0  0  0  0  0  0  0  0  0
    5.1840    1.2840   17.9940 C   0  0  0  0  0  0  0  0  0  0  0  0
    6.3180    0.6170   17.7310 N   0  0  0  0  0  0  0  0  0  0  0  0
    6.9170   -0.0050   18.7640 C   0  0  0  0  0  0  0  0  0  0  0  0
  1  2  2  0
  2  3  1  0
  3  4  1  0
  4  5  1  0
  5  6  1  0
  6  7  1  0
  7  8  1  0
  8  9  2  0
  9 10  1  0
 10 11  2  0
  8 12  1  0
 11 12  1  0
  2 13  1  0
 13 14  1  0
 14 15  2  0
 15 16  1  0
 16 17  2  0
 17 18  1  0
 14 19  1  0
 18 19  2  0
M  END
