pyridine_urea_6162
     RDKit          3D

 24 26  0  0  0  0  0  0  0  0999 V2000
    8.6370    0.9480   21.2460 O   0  0  0  0  0  0  0  0  0  0  0  0
    8.1880   -0.1750   21.4360 C   0  0  0  0  0  0  0  0  0  0  0  0
    6.9110   -0.5540   21.1200 N   0  0  0  0  0  0  0  0  0  0  0  0
    6.3370    0.1020   19.9820 C   0  0  0  0  0  0  0  0  0  0  0  0
    5.0430    0.8580   20.2360 C   0  0  0  0  0  0  0  0  0  0  0  0
    4.4900    1.5390   19.0390 C   0  0  0  0  0  0  0  0  0  0  0  0
    5.1720    1.4300   17.8430 C   0  0  0  0  0  0  0  0  0  0  0  0
    6.3160    0.7380   17.6750 N   0  0  0  0  0  0  0  0  0  0  0  0
    6.8640    0.1000   18.7190 C   0  0  0  0  0  0  0  0  0  0  0  0
    8.8760   -1.2050   21.9840 N   0  0  0  0  0  0  0  0  0  0  0  0
    9.7450   -0.9840   23.1370 C   0  0  1  0  0  0  0  0  0  0  0  0
   10.9660   -0.8130   22.8160 C   0  0  0  0  0  0  0  0  0  0  0  0
   11.1110    0.6890   23.1950 C   0  0  0  0  0  0  0  0  0  0  0  0
   12.4920    0.8830   22.8710 C   0  0  0  0  0  0  0  0  0  0  0  0
   13.4490    0.0330   22.3690 C   0  0  0  0  0  0  0  0  0  0  0  0
   13.0620   -1.1940   22.1230 C   0  0  0  0  0  0  0  0  0  0  0  0
   13.1660   -2.5710   21.7020 C   0  0  0  0  0  0  0  0  0  0  0  0
   11.9270   -3.0130   21.5420 F   0  0  0  0  0  0  0  0  0  0  0  0
   13.7390   -2.9190   20.5630 F   0  0  0  0  0  0  0  0  0  0  0  0
   13.6820   -3.2740   22.7190 F   0  0  0  0  0  0  0  0  0  0  0  0
   11.8420   -1.8200   22.2810 C   0  0  0  0  0  0  0  0  0  0  0  0
    9.5700    0.3040   23.9130 C   0  0  0  0  0  0  0  0  0  0  0  0
   10.0760    0.4840   25.0440 C   0  0  0  0  0  0  0  0  0  0  0  0
   10.9270    1.1400   24.0960 C   0  0  0  0  0  0  0  0  0  0  0  0
  1  2  2  0
  2  3  1  0
  3  4  1  0
  4  5  2  0
  5  6  1  0
  6  7  2  0
  7  8  1  0
  4  9  1  0
  8  9  2  0
  2 10  1  0
 11 10  1  6
 11 12  1  0
 12 13  2  0
 13 14  1  0
 14 15  2  0
 15 16  1  0
 16 17  1  0
 17 18  1  0
 17 19  1  0
 17 20  1  0
 12 21  1  0
 16 21  2  0
 11 22  1  0
 22 23  1  0
 22 24  1  0
 23 24  1  0
M  END
