pyridine_urea_3642
     RDKit          3D

 16 16  0  0  0  0  0  0  0  0999 V2000
   10.8570    1.9190   23.9100 N   0  0  0  0  0  0  0  0  0  0  0  0
   12.0620    1.4060   23.5730 C   0  0  0  0  0  0  0  0  0  0  0  0
   12.4260   -0.0260   23.9810 C   0  0  0  0  0  0  0  0  0  0  0  0
   12.7300   -0.8240   22.7310 C   0  0  0  0  0  0  0  0  0  0  0  0
   11.5000   -1.5830   22.2910 C   0  0  0  0  0  0  0  0  0  0  0  0
   10.2480   -1.0030   22.9530 C   0  0  0  0  0  0  0  0  0  0  0  0
    9.0260   -1.1870   22.2800 N   0  0  0  0  0  0  0  0  0  0  0  0
    8.3980   -0.2330   21.5090 C   0  0  0  0  0  0  0  0  0  0  0  0
    8.8670    0.8820   21.3310 O   0  0  0  0  0  0  0  0  0  0  0  0
    7.1970   -0.6940   20.9970 N   0  0  0  0  0  0  0  0  0  0  0  0
    6.4380    0.0050   20.0430 C   0  0  0  0  0  0  0  0  0  0  0  0
    5.2520    0.7060   20.2860 C   0  0  0  0  0  0  0  0  0  0  0  0
    4.6140    1.3680   19.2350 C   0  0  0  0  0  0  0  0  0  0  0  0
    5.1850    1.3050   17.9810 C   0  0  0  0  0  0  0  0  0  0  0  0
    6.3200    0.6340   17.7280 N   0  0  0  0  0  0  0  0  0  0  0  0
    6.9090    0.0060   18.7540 C   0  0  0  0  0  0  0  0  0  0  0  0
  1  2  3  0
  2  3  1  0
  3  4  1  0
  4  5  1  0
  5  6  1  0
  6  7  1  0
  7  8  1  0
  8  9  2  0
  8 10  1  0
 10 11  1  0
 11 12  2  0
 12 13  1  0
 13 14  2  0
 14 15  1  0
 11 16  1  0
 15 16  2  0
M  END
