pyridine_urea_9137
     RDKit          3D

 19 19  0  0  0  0  0  0  0  0999 V2000
    5.3820   -2.7210   21.3440 C   0  0  0  0  0  0  0  0  0  0  0  0
    4.8700   -3.9740   21.8010 O   0  0  0  0  0  0  0  0  0  0  0  0
    5.3920   -4.4490   22.9850 C   0  0  0  0  0  0  0  0  0  0  0  0
    4.6910   -4.7900   23.9250 O   0  0  0  0  0  0  0  0  0  0  0  0
    6.9470   -4.5280   23.0260 C   0  0  0  0  0  0  0  0  0  0  0  0
    7.5050   -3.2090   23.3370 N   0  0  0  0  0  0  0  0  0  0  0  0
    8.8700   -2.9480   23.2650 C   0  0  0  0  0  0  0  0  0  0  0  0
    9.8750   -3.4330   24.0250 O   0  0  0  0  0  0  0  0  0  0  0  0
    9.3410   -2.0730   22.2890 C   0  0  0  0  0  0  0  0  0  0  0  0
    9.0390   -0.7510   22.5130 N   0  0  0  0  0  0  0  0  0  0  0  0
    8.4150    0.0980   21.5750 C   0  0  0  0  0  0  0  0  0  0  0  0
    9.0410    1.3520   21.2480 O   0  0  0  0  0  0  0  0  0  0  0  0
    7.2640   -0.3690   21.0860 N   0  0  0  0  0  0  0  0  0  0  0  0
    6.5690    0.1710   20.0620 C   0  0  0  0  0  0  0  0  0  0  0  0
    5.4230    0.8970   20.3760 C   0  0  0  0  0  0  0  0  0  0  0  0
    4.7000    1.4710   19.3500 C   0  0  0  0  0  0  0  0  0  0  0  0
    5.1380    1.3060   18.0440 C   0  0  0  0  0  0  0  0  0  0  0  0
    6.2120    0.6210   17.6410 N   0  0  0  0  0  0  0  0  0  0  0  0
    6.9170    0.0540   18.7380 C   0  0  0  0  0  0  0  0  0  0  0  0
  1  2  1  0
  2  3  1  0
  3  4  2  0
  3  5  1  0
  5  6  1  0
  6  7  1  0
  7  8  2  0
  7  9  1  0
  9 10  1  0
 10 11  1  0
 11 12  2  0
 11 13  1  0
 13 14  1  0
 14 15  2  0
 15 16  1  0
 16 17  2  0
 17 18  1  0
 14 19  1  0
 18 19  2  0
M  END
