pyridine_urea_2226
     RDKit          3D

 27 30  0  0  0  0  0  0  0  0999 V2000
    8.9910   -0.7150   25.7740 C   0  0  0  0  0  0  0  0  0  0  0  0
    9.9040   -1.1020   24.8250 N   0  0  0  0  0  0  0  0  0  0  0  0
    9.7520   -1.8870   23.7260 C   0  0  0  0  0  0  0  0  0  0  0  0
    8.6960   -2.7820   23.3440 O   0  0  0  0  0  0  0  0  0  0  0  0
   10.9620   -1.7690   22.7930 C   0  0  0  0  0  0  0  0  0  0  0  0
   11.0600   -2.5150   21.5810 C   0  0  0  0  0  0  0  0  0  0  0  0
   12.2870   -2.3940   20.7800 C   0  0  0  0  0  0  0  0  0  0  0  0
   13.3410   -1.5870   21.0890 C   0  0  0  0  0  0  0  0  0  0  0  0
   13.3100   -0.8150   22.2260 C   0  0  0  0  0  0  0  0  0  0  0  0
   12.2230   -0.8760   23.0520 C   0  0  0  0  0  0  0  0  0  0  0  0
   12.8080    0.2500   24.2620 S   0  0  0  0  0  0  0  0  0  0  0  0
   11.3190    0.6560   23.6470 C   0  0  0  0  0  0  0  0  0  0  0  0
   11.3020    1.6830   22.8020 C   0  0  0  0  0  0  0  0  0  0  0  0
   10.0930    1.9910   22.2060 C   0  0  0  0  0  0  0  0  0  0  0  0
    8.9920    1.1980   22.4920 C   0  0  0  0  0  0  0  0  0  0  0  0
    7.7780    1.1600   22.0330 N   0  0  0  0  0  0  0  0  0  0  0  0
    7.6980   -0.0350   21.3650 C   0  0  0  0  0  0  0  0  0  0  0  0
    8.6650   -0.6730   21.0850 O   0  0  0  0  0  0  0  0  0  0  0  0
    6.4440   -0.3700   21.0330 N   0  0  0  0  0  0  0  0  0  0  0  0
    5.9930    0.2430   19.9080 C   0  0  0  0  0  0  0  0  0  0  0  0
    4.8210    0.9680   19.9790 C   0  0  0  0  0  0  0  0  0  0  0  0
    4.3730    1.6190   18.8500 C   0  0  0  0  0  0  0  0  0  0  0  0
    5.1280    1.5100   17.7030 C   0  0  0  0  0  0  0  0  0  0  0  0
    6.2640    0.8020   17.6100 N   0  0  0  0  0  0  0  0  0  0  0  0
    6.6740    0.1810   18.7170 C   0  0  0  0  0  0  0  0  0  0  0  0
    9.1160    0.2380   23.3770 C   0  0  0  0  0  0  0  0  0  0  0  0
   10.2200   -0.0270   23.9600 C   0  0  0  0  0  0  0  0  0  0  0  0
  1  2  1  0
  2  3  1  0
  3  4  2  0
  3  5  1  0
  5  6  2  0
  6  7  1  0
  7  8  2  0
  8  9  1  0
  5 10  1  0
  9 10  2  0
 10 11  1  0
 11 12  1  0
 12 13  2  0
 13 14  1  0
 14 15  2  0
 15 16  1  0
 16 17  1  0
 17 18  2  0
 17 19  1  0
 19 20  1  0
 20 21  2  0
 21 22  1  0
 22 23  2  0
 23 24  1  0
 20 25  1  0
 24 25  2  0
 15 26  1  0
  2 27  1  0
 12 27  1  0
 26 27  2  0
M  END
