pyridine_urea_8015
     RDKit          3D

 24 24  0  0  0  0  0  0  0  0999 V2000
    2.6860   -2.7670   25.3440 C   0  0  0  0  0  0  0  0  0  0  0  0
    3.9970   -2.9080   26.1150 C   0  0  0  0  0  0  0  0  0  0  0  0
    5.0860   -2.7630   25.1890 O   0  0  0  0  0  0  0  0  0  0  0  0
    6.2390   -2.2920   25.7450 C   0  0  0  0  0  0  0  0  0  0  0  0
    6.5250   -1.0030   26.3250 O   0  0  0  0  0  0  0  0  0  0  0  0
    7.3050   -3.2000   25.7760 C   0  0  2  0  0  0  0  0  0  0  0  0
    7.6730   -3.5680   27.0670 C   0  0  0  0  0  0  0  0  0  0  0  0
    8.2320   -4.8250   27.3650 C   0  0  0  0  0  0  0  0  0  0  0  0
    7.3200   -5.8020   27.7440 C   0  0  0  0  0  0  0  0  0  0  0  0
    8.9700   -5.3120   26.0950 C   0  0  0  0  0  0  0  0  0  0  0  0
    8.4310   -2.5890   25.0210 N   0  0  0  0  0  0  0  0  0  0  0  0
    8.5670   -2.7100   23.6370 C   0  0  0  0  0  0  0  0  0  0  0  0
    7.7270   -3.5860   22.8560 O   0  0  0  0  0  0  0  0  0  0  0  0
    9.5430   -2.0130   22.8790 C   0  0  0  0  0  0  0  0  0  0  0  0
    9.0580   -1.5120   21.6700 N   0  0  0  0  0  0  0  0  0  0  0  0
    8.3500   -0.3570   21.4250 C   0  0  0  0  0  0  0  0  0  0  0  0
    8.8760    0.7540   21.4380 O   0  0  0  0  0  0  0  0  0  0  0  0
    7.0490   -0.6400   21.1600 N   0  0  0  0  0  0  0  0  0  0  0  0
    6.4700   -0.0080   20.1100 C   0  0  0  0  0  0  0  0  0  0  0  0
    5.2990    0.7310   20.3280 C   0  0  0  0  0  0  0  0  0  0  0  0
    4.6900    1.3930   19.2560 C   0  0  0  0  0  0  0  0  0  0  0  0
    5.2640    1.3060   17.9920 C   0  0  0  0  0  0  0  0  0  0  0  0
    6.3800    0.6020   17.7610 N   0  0  0  0  0  0  0  0  0  0  0  0
    6.9430   -0.0300   18.8110 C   0  0  0  0  0  0  0  0  0  0  0  0
  1  2  1  0
  2  3  1  0
  3  4  1  0
  4  5  2  0
  4  6  1  0
  6  7  1  1
  7  8  1  0
  8  9  1  0
  8 10  1  0
  6 11  1  0
 11 12  1  0
 12 13  2  0
 12 14  1  0
 14 15  1  0
 15 16  1  0
 16 17  2  0
 16 18  1  0
 18 19  1  0
 19 20  2  0
 20 21  1  0
 21 22  2  0
 22 23  1  0
 19 24  1  0
 23 24  2  0
M  END
