pyridine_urea_14789
     RDKit          3D

 20 22  0  0  0  0  0  0  0  0999 V2000
    8.7390    1.1260   21.1150 O   0  0  0  0  0  0  0  0  0  0  0  0
    8.3130    0.0060   21.4430 C   0  0  0  0  0  0  0  0  0  0  0  0
    7.1410   -0.5520   20.9890 N   0  0  0  0  0  0  0  0  0  0  0  0
    6.3850    0.0970   20.0180 C   0  0  0  0  0  0  0  0  0  0  0  0
    5.1880    0.7730   20.2280 C   0  0  0  0  0  0  0  0  0  0  0  0
    4.5590    1.3960   19.1490 C   0  0  0  0  0  0  0  0  0  0  0  0
    5.1560    1.3150   17.9070 C   0  0  0  0  0  0  0  0  0  0  0  0
    6.3050    0.6600   17.6850 N   0  0  0  0  0  0  0  0  0  0  0  0
    6.8820    0.0720   18.7370 C   0  0  0  0  0  0  0  0  0  0  0  0
    8.9910   -0.8220   22.3020 N   0  0  0  0  0  0  0  0  0  0  0  0
   10.2560   -0.4230   22.7010 C   0  0  0  0  0  0  0  0  0  0  0  0
   10.3800    0.6790   23.5240 C   0  0  0  0  0  0  0  0  0  0  0  0
   11.6360    1.0920   23.8850 C   0  0  0  0  0  0  0  0  0  0  0  0
   12.7180    0.3800   23.4170 C   0  0  0  0  0  0  0  0  0  0  0  0
   12.5310   -0.7130   22.6120 C   0  0  0  0  0  0  0  0  0  0  0  0
   13.4350   -1.5150   22.0800 N   0  0  0  0  0  0  0  0  0  0  0  0
   12.7930   -2.4170   21.3160 C   0  0  0  0  0  0  0  0  0  0  0  0
   13.3510   -3.2540   20.6400 O   0  0  0  0  0  0  0  0  0  0  0  0
   11.4510   -2.2520   21.4020 N   0  0  0  0  0  0  0  0  0  0  0  0
   11.3050   -1.1860   22.1970 C   0  0  0  0  0  0  0  0  0  0  0  0
  1  2  2  0
  2  3  1  0
  3  4  1  0
  4  5  2  0
  5  6  1  0
  6  7  2  0
  7  8  1  0
  4  9  1  0
  8  9  2  0
  2 10  1  0
 10 11  1  0
 11 12  2  0
 12 13  1  0
 13 14  2  0
 14 15  1  0
 15 16  1  0
 16 17  1  0
 17 18  2  0
 17 19  1  0
 11 20  1  0
 15 20  2  0
 19 20  1  0
M  END
