pyridine_urea_13654
     RDKit          3D

 26 28  0  0  0  0  0  0  0  0999 V2000
    8.8630    1.2890   21.1520 O   0  0  0  0  0  0  0  0  0  0  0  0
    8.1440    0.2810   21.2080 C   0  0  0  0  0  0  0  0  0  0  0  0
    8.4810   -1.0060   21.2640 N   0  0  0  0  0  0  0  0  0  0  0  0
    9.7160   -1.4770   21.4850 C   0  0  0  0  0  0  0  0  0  0  0  0
   10.1940   -1.6040   22.8190 C   0  0  0  0  0  0  0  0  0  0  0  0
   11.2460   -1.4990   21.7430 C   0  0  0  0  0  0  0  0  0  0  0  0
   12.7060   -1.5010   21.7240 C   0  0  0  0  0  0  0  0  0  0  0  0
   13.3410   -1.6040   22.8300 C   0  0  0  0  0  0  0  0  0  0  0  0
   12.6260   -1.7050   23.9210 C   0  0  0  0  0  0  0  0  0  0  0  0
   11.2350   -1.7010   23.8410 C   0  0  0  0  0  0  0  0  0  0  0  0
   10.5540   -1.8200   24.8580 C   0  0  0  0  0  0  0  0  0  0  0  0
    8.8460   -1.4530   24.7730 S   0  0  0  0  0  0  0  0  0  0  0  0
    8.5580   -0.6550   25.9500 O   0  0  0  0  0  0  0  0  0  0  0  0
    8.2430   -2.7640   24.6260 O   0  0  0  0  0  0  0  0  0  0  0  0
    8.0780   -0.6590   23.5160 N   0  0  0  0  0  0  0  0  0  0  0  0
    7.6390    0.6000   23.9580 C   0  0  0  0  0  0  0  0  0  0  0  0
    6.2530    0.7490   23.9670 C   0  0  0  0  0  0  0  0  0  0  0  0
    5.6340   -0.4230   23.4470 C   0  0  0  0  0  0  0  0  0  0  0  0
    6.8790   -1.3090   23.2160 C   0  0  0  0  0  0  0  0  0  0  0  0
    6.8070    0.2950   21.1660 N   0  0  0  0  0  0  0  0  0  0  0  0
    6.2380    0.6820   19.9990 C   0  0  0  0  0  0  0  0  0  0  0  0
    5.1020    1.4550   20.0430 C   0  0  0  0  0  0  0  0  0  0  0  0
    4.5270    1.8870   18.8930 C   0  0  0  0  0  0  0  0  0  0  0  0
    5.1170    1.5260   17.7240 C   0  0  0  0  0  0  0  0  0  0  0  0
    6.2080    0.7680   17.5890 N   0  0  0  0  0  0  0  0  0  0  0  0
    6.7550    0.3530   18.7490 C   0  0  0  0  0  0  0  0  0  0  0  0
  1  2  2  0
  2  3  1  0
  3  4  1  0
  4  5  1  0
  5  6  2  0
  6  7  1  0
  7  8  2  0
  8  9  1  0
  5 10  1  0
  9 10  2  0
 10 11  1  0
 12 11  1  0
 12 13  2  0
 12 14  2  0
 12 15  1  0
 15 16  1  0
 16 17  1  0
 17 18  1  0
 15 19  1  0
 18 19  1  0
  2 20  1  0
 20 21  1  0
 21 22  2  0
 22 23  1  0
 23 24  2  0
 24 25  1  0
 21 26  1  0
 25 26  2  0
M  END
