pyridine_urea_12683
     RDKit          3D

 20 21  0  0  0  0  0  0  0  0999 V2000
   12.8480   -2.5400   24.5890 C   0  0  0  0  0  0  0  0  0  0  0  0
   12.3510   -1.7740   23.3310 C   0  0  0  0  0  0  0  0  0  0  0  0
   13.2900   -0.5720   23.0940 C   0  0  0  0  0  0  0  0  0  0  0  0
   12.2000    0.3030   23.0130 C   0  0  0  0  0  0  0  0  0  0  0  0
   10.9300    0.3110   23.0790 C   0  0  0  0  0  0  0  0  0  0  0  0
   10.6030   -0.7990   23.2740 C   0  0  0  0  0  0  0  0  0  0  0  0
    9.2400   -0.7680   23.3300 C   0  0  0  0  0  0  0  0  0  0  0  0
    8.6250   -0.9470   22.0920 N   0  0  0  0  0  0  0  0  0  0  0  0
    8.2470    0.0380   21.2010 C   0  0  0  0  0  0  0  0  0  0  0  0
    8.7550    1.1720   21.1060 O   0  0  0  0  0  0  0  0  0  0  0  0
    7.2050   -0.4450   20.4250 N   0  0  0  0  0  0  0  0  0  0  0  0
    6.2440    0.2990   19.7520 C   0  0  0  0  0  0  0  0  0  0  0  0
    5.3780    0.9930   18.5890 C   0  0  0  0  0  0  0  0  0  0  0  0
    4.4030    1.6900   19.3080 C   0  0  0  0  0  0  0  0  0  0  0  0
    5.5320    0.8610   18.9950 C   0  0  0  0  0  0  0  0  0  0  0  0
    6.2860    0.3470   17.9190 N   0  0  0  0  0  0  0  0  0  0  0  0
    6.9330   -0.1710   18.7320 C   0  0  0  0  0  0  0  0  0  0  0  0
   11.8490    0.4020   23.0230 C   0  0  0  0  0  0  0  0  0  0  0  0
   11.2350    1.5930   22.8700 F   0  0  0  0  0  0  0  0  0  0  0  0
   13.3310    0.6410   22.9090 C   0  0  0  0  0  0  0  0  0  0  0  0
  1  2  3  0
  2  3  1  0
  3  4  2  0
  4  5  1  0
  5  6  2  0
  6  7  1  0
  7  8  1  0
  8  9  1  0
  9 10  2  0
  9 11  1  0
 11 12  1  0
 12 13  2  0
 13 14  1  0
 14 15  2  0
 15 16  1  0
 12 17  1  0
 16 17  2  0
  6 18  1  0
 18 19  1  0
  3 20  1  0
 18 20  2  0
M  END
