pyridine_urea_11009
     RDKit          3D

 19 20  0  0  0  0  0  0  0  0999 V2000
   10.2120    3.3970   23.0280 N   0  0  0  0  0  0  0  0  0  0  0  0
   11.2320    2.4920   23.0620 C   0  0  0  0  0  0  0  0  0  0  0  0
   10.8440    1.0360   22.9430 C   0  0  0  0  0  0  0  0  0  0  0  0
    9.6290    0.4890   22.9020 C   0  0  0  0  0  0  0  0  0  0  0  0
    9.5180   -0.8890   22.7510 C   0  0  0  0  0  0  0  0  0  0  0  0
    8.1770   -1.2700   22.6610 N   0  0  0  0  0  0  0  0  0  0  0  0
    7.7570   -0.5500   21.5710 C   0  0  0  0  0  0  0  0  0  0  0  0
    8.4480    0.3890   21.1980 O   0  0  0  0  0  0  0  0  0  0  0  0
    6.6070   -0.9250   21.0000 N   0  0  0  0  0  0  0  0  0  0  0  0
    6.0520   -0.1430   19.9980 C   0  0  0  0  0  0  0  0  0  0  0  0
    4.7900    0.6730   20.1500 C   0  0  0  0  0  0  0  0  0  0  0  0
    4.3620    1.4790   18.9500 C   0  0  0  0  0  0  0  0  0  0  0  0
    5.1690    1.3860   17.8390 C   0  0  0  0  0  0  0  0  0  0  0  0
    6.2930    0.6450   17.7210 N   0  0  0  0  0  0  0  0  0  0  0  0
    6.7050   -0.0880   18.7770 C   0  0  0  0  0  0  0  0  0  0  0  0
   10.5390   -1.7970   22.6590 C   0  0  0  0  0  0  0  0  0  0  0  0
   11.7940   -1.3320   22.7060 C   0  0  0  0  0  0  0  0  0  0  0  0
   11.9210    0.0020   22.8320 C   0  0  0  0  0  0  0  0  0  0  0  0
   13.5390    0.5980   22.8460 Br  0  0  0  0  0  0  0  0  0  0  0  0
  1  2  3  0
  2  3  1  0
  3  4  2  0
  4  5  1  0
  5  6  1  0
  6  7  1  0
  7  8  2  0
  7  9  1  0
  9 10  1  0
 10 11  2  0
 11 12  1  0
 12 13  2  0
 13 14  1  0
 10 15  1  0
 14 15  2  0
  5 16  2  0
 16 17  1  0
  3 18  1  0
 17 18  2  0
 18 19  1  0
M  END
