pyridine_urea_8254
     RDKit          3D

 23 25  0  0  0  0  0  0  0  0999 V2000
   11.7850    5.9950   24.6940 C   0  0  0  0  0  0  0  0  0  0  0  0
   11.5800    5.6800   23.2120 C   0  0  0  0  0  0  0  0  0  0  0  0
   10.3060    6.4600   22.7150 C   0  0  0  0  0  0  0  0  0  0  0  0
   12.8260    6.0880   22.4060 C   0  0  0  0  0  0  0  0  0  0  0  0
   11.3010    4.1630   23.1020 C   0  0  0  0  0  0  0  0  0  0  0  0
    9.9890    3.6710   23.1950 C   0  0  0  0  0  0  0  0  0  0  0  0
    9.7660    2.1710   23.0850 C   0  0  0  0  0  0  0  0  0  0  0  0
   10.9610    1.2750   22.8860 C   0  0  0  0  0  0  0  0  0  0  0  0
   10.6170   -0.2130   22.8010 C   0  0  0  0  0  0  0  0  0  0  0  0
    9.2060   -0.5150   22.5080 N   0  0  0  0  0  0  0  0  0  0  0  0
    8.5140    0.1950   21.5500 C   0  0  0  0  0  0  0  0  0  0  0  0
    8.9330    1.4950   21.1220 O   0  0  0  0  0  0  0  0  0  0  0  0
    7.3710   -0.4750   21.0670 N   0  0  0  0  0  0  0  0  0  0  0  0
    6.6120    0.0830   20.0330 C   0  0  0  0  0  0  0  0  0  0  0  0
    5.3430    0.8520   20.3570 C   0  0  0  0  0  0  0  0  0  0  0  0
    4.6280    1.4140   19.3070 C   0  0  0  0  0  0  0  0  0  0  0  0
    5.1180    1.2420   18.0160 C   0  0  0  0  0  0  0  0  0  0  0  0
    6.2310    0.5560   17.7140 N   0  0  0  0  0  0  0  0  0  0  0  0
    6.9490   -0.0050   18.7090 C   0  0  0  0  0  0  0  0  0  0  0  0
   11.5400   -1.1010   22.5350 C   0  0  0  0  0  0  0  0  0  0  0  0
   11.3100   -1.1560   23.8200 C   0  0  0  0  0  0  0  0  0  0  0  0
   12.2240    1.8700   22.8090 C   0  0  0  0  0  0  0  0  0  0  0  0
   12.3830    3.2680   22.9110 C   0  0  0  0  0  0  0  0  0  0  0  0
  2  1  1  0
  2  3  1  0
  2  4  1  0
  2  5  1  0
  5  6  2  0
  6  7  1  0
  7  8  2  0
  8  9  1  0
  9 10  1  0
 10 11  1  0
 11 12  2  0
 11 13  1  0
 13 14  1  0
 14 15  2  0
 15 16  1  0
 16 17  2  0
 17 18  1  0
 14 19  1  0
 18 19  2  0
  9 20  1  0
  9 21  1  0
 20 21  1  0
  8 22  1  0
  5 23  1  0
 22 23  2  0
M  END
