pyridine_urea_1489
     RDKit          3D

 19 20  0  0  0  0  0  0  0  0999 V2000
    8.7620    0.7710   21.3410 O   0  0  0  0  0  0  0  0  0  0  0  0
    8.1320   -0.2550   21.5750 C   0  0  0  0  0  0  0  0  0  0  0  0
    8.5660   -1.1950   22.4470 N   0  0  0  0  0  0  0  0  0  0  0  0
    9.7210   -0.9110   23.2370 C   0  0  0  0  0  0  0  0  0  0  0  0
   11.0150   -1.2500   22.4490 C   0  0  0  0  0  0  0  0  0  0  0  0
   12.0950   -0.4070   22.6660 C   0  0  0  0  0  0  0  0  0  0  0  0
   13.2250   -0.5250   22.2010 C   0  0  0  0  0  0  0  0  0  0  0  0
   13.3300    0.5760   22.9030 C   0  0  0  0  0  0  0  0  0  0  0  0
   11.8620    0.0950   23.0920 C   0  0  0  0  0  0  0  0  0  0  0  0
   11.2220   -1.6570   22.1150 I   0  0  0  0  0  0  0  0  0  0  0  0
   11.0800    0.9510   23.9490 C   0  0  0  0  0  0  0  0  0  0  0  0
   12.2090    0.8040   23.4560 C   0  0  0  0  0  0  0  0  0  0  0  0
    6.9340   -0.6190   21.0410 N   0  0  0  0  0  0  0  0  0  0  0  0
    6.3810    0.0240   19.9720 C   0  0  0  0  0  0  0  0  0  0  0  0
    5.2070    0.7120   20.2780 C   0  0  0  0  0  0  0  0  0  0  0  0
    4.5950    1.4390   19.1240 C   0  0  0  0  0  0  0  0  0  0  0  0
    5.1750    1.4070   17.8750 C   0  0  0  0  0  0  0  0  0  0  0  0
    6.3100    0.7170   17.6340 N   0  0  0  0  0  0  0  0  0  0  0  0
    6.8970    0.0290   18.7030 C   0  0  0  0  0  0  0  0  0  0  0  0
  1  2  2  0
  2  3  1  0
  3  4  1  0
  4  5  1  0
  5  6  1  0
  6  7  2  0
  7  8  1  0
  8  9  2  0
  9 10  1  0
  9 11  1  0
  6 12  1  0
 11 12  2  0
  2 13  1  0
 13 14  1  0
 14 15  2  0
 15 16  1  0
 16 17  2  0
 17 18  1  0
 14 19  1  0
 18 19  2  0
M  END
