pyridine_urea_12716
     RDKit          3D

 20 22  0  0  0  0  0  0  0  0999 V2000
    8.6400    1.2030   20.9290 O   0  0  0  0  0  0  0  0  0  0  0  0
    8.0870    0.1190   21.1610 C   0  0  0  0  0  0  0  0  0  0  0  0
    8.6450   -0.8310   21.8680 N   0  0  0  0  0  0  0  0  0  0  0  0
    8.7450   -0.4700   23.2010 C   0  0  0  0  0  0  0  0  0  0  0  0
   10.0820   -0.9440   23.6030 C   0  0  0  0  0  0  0  0  0  0  0  0
   11.2480   -0.2110   23.6270 N   0  0  0  0  0  0  0  0  0  0  0  0
   11.9550   -1.2270   24.1330 C   0  0  0  0  0  0  0  0  0  0  0  0
   13.2520   -1.0930   24.4440 N   0  0  0  0  0  0  0  0  0  0  0  0
   13.8830   -2.2120   25.0030 C   0  0  0  0  0  0  0  0  0  0  0  0
   13.2690   -3.3460   25.1930 C   0  0  0  0  0  0  0  0  0  0  0  0
   11.9650   -3.4310   24.8360 C   0  0  0  0  0  0  0  0  0  0  0  0
   11.3390   -2.3800   24.3370 C   0  0  0  0  0  0  0  0  0  0  0  0
   10.0090   -2.3440   23.9920 O   0  0  0  0  0  0  0  0  0  0  0  0
    6.8610   -0.3070   20.8100 N   0  0  0  0  0  0  0  0  0  0  0  0
    6.1990    0.3210   19.8450 C   0  0  0  0  0  0  0  0  0  0  0  0
    5.0030    0.9820   20.0510 C   0  0  0  0  0  0  0  0  0  0  0  0
    4.4270    1.6270   18.9640 C   0  0  0  0  0  0  0  0  0  0  0  0
    5.1390    1.5630   17.6510 C   0  0  0  0  0  0  0  0  0  0  0  0
    6.2900    0.8950   17.5180 N   0  0  0  0  0  0  0  0  0  0  0  0
    6.7900    0.2900   18.6150 C   0  0  0  0  0  0  0  0  0  0  0  0
  1  2  2  0
  2  3  1  0
  3  4  1  0
  4  5  1  0
  5  6  2  0
  6  7  1  0
  7  8  2  0
  8  9  1  0
  9 10  2  0
 10 11  1  0
  7 12  1  0
 11 12  2  0
  5 13  1  0
 12 13  1  0
  2 14  1  0
 14 15  1  0
 15 16  2  0
 16 17  1  0
 17 18  2  0
 18 19  1  0
 15 20  1  0
 19 20  2  0
M  END
