pyridine_urea_15117
     RDKit          3D

 18 19  0  0  0  0  0  0  0  0999 V2000
   13.2530   -1.4280   21.8300 C   0  0  0  0  0  0  0  0  0  0  0  0
   12.2090   -1.6280   22.6530 N   0  0  0  0  0  0  0  0  0  0  0  0
   11.0080   -2.2750   22.2430 C   0  0  0  0  0  0  0  0  0  0  0  0
   10.1780   -2.2750   23.4320 C   0  0  0  0  0  0  0  0  0  0  0  0
    8.7850   -2.8400   23.5350 C   0  0  0  0  0  0  0  0  0  0  0  0
    7.8400   -1.7650   23.0500 C   0  0  0  0  0  0  0  0  0  0  0  0
    8.5060   -0.5640   22.7280 N   0  0  0  0  0  0  0  0  0  0  0  0
    8.2950    0.1580   21.5810 C   0  0  0  0  0  0  0  0  0  0  0  0
    8.9600    1.1500   21.2370 O   0  0  0  0  0  0  0  0  0  0  0  0
    7.2300   -0.4190   20.9310 N   0  0  0  0  0  0  0  0  0  0  0  0
    6.4550    0.2150   19.9780 C   0  0  0  0  0  0  0  0  0  0  0  0
    5.2850    0.9300   20.2270 C   0  0  0  0  0  0  0  0  0  0  0  0
    4.6180    1.5320   19.1620 C   0  0  0  0  0  0  0  0  0  0  0  0
    5.1550    1.3870   17.9020 C   0  0  0  0  0  0  0  0  0  0  0  0
    6.2730    0.6930   17.6480 N   0  0  0  0  0  0  0  0  0  0  0  0
    6.8890    0.1280   18.6860 C   0  0  0  0  0  0  0  0  0  0  0  0
   11.0130   -1.5900   24.4680 C   0  0  0  0  0  0  0  0  0  0  0  0
   12.2460   -1.2130   23.9640 N   0  0  0  0  0  0  0  0  0  0  0  0
  1  2  1  0
  2  3  1  0
  3  4  2  0
  4  5  1  0
  5  6  1  0
  6  7  1  0
  7  8  1  0
  8  9  2  0
  8 10  1  0
 10 11  1  0
 11 12  2  0
 12 13  1  0
 13 14  2  0
 14 15  1  0
 11 16  1  0
 15 16  2  0
  4 17  1  0
  2 18  1  0
 17 18  2  0
M  END
