pyridine_urea_13402
     RDKit          3D

 21 22  0  0  0  0  0  0  0  0999 V2000
   12.9670    3.4290   22.7200 C   0  0  0  0  0  0  0  0  0  0  0  0
   13.2920    2.1100   23.2020 O   0  0  0  0  0  0  0  0  0  0  0  0
   12.2630    1.3160   23.1310 C   0  0  0  0  0  0  0  0  0  0  0  0
   10.9780    1.9400   23.6120 C   0  0  0  0  0  0  0  0  0  0  0  0
    9.7240    1.1780   23.5130 C   0  0  0  0  0  0  0  0  0  0  0  0
    9.7530   -0.1580   22.9470 C   0  0  0  0  0  0  0  0  0  0  0  0
    8.6680   -1.0470   22.6640 N   0  0  0  0  0  0  0  0  0  0  0  0
    8.0600   -0.4140   21.5890 C   0  0  0  0  0  0  0  0  0  0  0  0
    8.5580    0.6130   21.1430 O   0  0  0  0  0  0  0  0  0  0  0  0
    6.8480   -0.9870   21.0630 N   0  0  0  0  0  0  0  0  0  0  0  0
    6.3050   -0.2430   20.0360 C   0  0  0  0  0  0  0  0  0  0  0  0
    5.1120    0.4620   20.2430 C   0  0  0  0  0  0  0  0  0  0  0  0
    4.5850    1.2190   19.2040 C   0  0  0  0  0  0  0  0  0  0  0  0
    5.2200    1.2830   17.9830 C   0  0  0  0  0  0  0  0  0  0  0  0
    6.3640    0.6120   17.7610 N   0  0  0  0  0  0  0  0  0  0  0  0
    6.8750   -0.1300   18.7790 C   0  0  0  0  0  0  0  0  0  0  0  0
   10.9300   -0.8360   22.5140 C   0  0  0  0  0  0  0  0  0  0  0  0
   10.7860   -2.4050   21.9120 Cl  0  0  0  0  0  0  0  0  0  0  0  0
   12.2770   -0.1160   22.5990 C   0  0  0  0  0  0  0  0  0  0  0  0
   13.3670   -0.8900   22.1400 O   0  0  0  0  0  0  0  0  0  0  0  0
   13.2880   -2.2130   22.6660 C   0  0  0  0  0  0  0  0  0  0  0  0
  1  2  1  0
  2  3  1  0
  3  4  2  0
  4  5  1  0
  5  6  2  0
  6  7  1  0
  7  8  1  0
  8  9  2  0
  8 10  1  0
 10 11  1  0
 11 12  2  0
 12 13  1  0
 13 14  2  0
 14 15  1  0
 11 16  1  0
 15 16  2  0
  6 17  1  0
 17 18  1  0
  3 19  1  0
 17 19  2  0
 19 20  1  0
 20 21  1  0
M  END
