pyridine_urea_11067
     RDKit          3D

 19 20  0  0  0  0  0  0  0  0999 V2000
   12.9170   -2.7380   24.9240 C   0  0  0  0  0  0  0  0  0  0  0  0
   12.6360   -1.3870   24.3710 C   0  0  2  0  0  0  0  0  0  0  0  0
   11.3220   -0.9840   24.2560 C   0  0  0  0  0  0  0  0  0  0  0  0
   11.3580    0.2310   23.6070 C   0  0  0  0  0  0  0  0  0  0  0  0
   11.8060    0.2330   22.3990 C   0  0  0  0  0  0  0  0  0  0  0  0
   12.4260   -1.0490   22.1090 C   0  0  2  0  0  0  0  0  0  0  0  0
   11.1660   -1.8140   21.7520 C   0  0  0  0  0  0  0  0  0  0  0  0
   10.0860   -1.9760   22.8350 C   0  0  0  0  0  0  0  0  0  0  0  0
    8.9190   -1.0650   22.7900 N   0  0  0  0  0  0  0  0  0  0  0  0
    8.5340   -0.2730   21.7030 C   0  0  0  0  0  0  0  0  0  0  0  0
    9.1470    0.7270   21.3690 O   0  0  0  0  0  0  0  0  0  0  0  0
    7.3690   -0.7310   21.1020 N   0  0  0  0  0  0  0  0  0  0  0  0
    6.6370   -0.0690   20.0820 C   0  0  0  0  0  0  0  0  0  0  0  0
    5.4880    0.6610   20.4080 C   0  0  0  0  0  0  0  0  0  0  0  0
    4.7590    1.3250   19.4260 C   0  0  0  0  0  0  0  0  0  0  0  0
    5.2040    1.2410   18.1250 C   0  0  0  0  0  0  0  0  0  0  0  0
    6.2960    0.5460   17.7730 N   0  0  0  0  0  0  0  0  0  0  0  0
    6.9840   -0.0900   18.7510 C   0  0  0  0  0  0  0  0  0  0  0  0
   13.2370   -1.1790   23.1770 C   0  0  0  0  0  0  0  0  0  0  0  0
  2  1  1  6
  2  3  1  0
  3  4  1  0
  4  5  1  0
  5  6  1  0
  6  7  1  1
  7  8  1  0
  8  9  1  0
  9 10  1  0
 10 11  2  0
 10 12  1  0
 12 13  1  0
 13 14  2  0
 14 15  1  0
 15 16  2  0
 16 17  1  0
 13 18  1  0
 17 18  2  0
  2 19  1  0
  6 19  1  0
M  END
