pyridine_urea_7361
     RDKit          3D

 18 19  0  0  0  0  0  0  0  0999 V2000
    8.6210    0.8260   21.3040 O   0  0  0  0  0  0  0  0  0  0  0  0
    8.1870   -0.2840   21.5720 C   0  0  0  0  0  0  0  0  0  0  0  0
    7.0290   -0.7960   21.0610 N   0  0  0  0  0  0  0  0  0  0  0  0
    6.3950   -0.1100   20.0160 C   0  0  0  0  0  0  0  0  0  0  0  0
    5.1940    0.5710   20.2590 C   0  0  0  0  0  0  0  0  0  0  0  0
    4.5740    1.2700   19.2220 C   0  0  0  0  0  0  0  0  0  0  0  0
    5.1750    1.2660   17.9790 C   0  0  0  0  0  0  0  0  0  0  0  0
    6.3200    0.6150   17.7290 N   0  0  0  0  0  0  0  0  0  0  0  0
    6.9010   -0.0540   18.7400 C   0  0  0  0  0  0  0  0  0  0  0  0
    8.8840   -1.1080   22.4180 N   0  0  0  0  0  0  0  0  0  0  0  0
   10.2160   -0.5390   22.5670 C   0  0  0  0  0  0  0  0  0  0  0  0
   11.3570   -1.5210   22.3430 C   0  0  0  0  0  0  0  0  0  0  0  0
   12.6550   -1.0190   22.4380 C   0  0  0  0  0  0  0  0  0  0  0  0
   12.8260    0.3310   22.7210 C   0  0  0  0  0  0  0  0  0  0  0  0
   14.0100    0.8260   22.7900 F   0  0  0  0  0  0  0  0  0  0  0  0
   11.7780    1.1880   22.9240 C   0  0  0  0  0  0  0  0  0  0  0  0
   12.1390    2.5330   23.1960 O   0  0  0  0  0  0  0  0  0  0  0  0
   10.4690    0.7810   22.8600 C   0  0  0  0  0  0  0  0  0  0  0  0
  1  2  2  0
  2  3  1  0
  3  4  1  0
  4  5  2  0
  5  6  1  0
  6  7  2  0
  7  8  1  0
  4  9  1  0
  8  9  2  0
  2 10  1  0
 10 11  1  0
 11 12  2  0
 12 13  1  0
 13 14  2  0
 14 15  1  0
 14 16  1  0
 16 17  1  0
 11 18  1  0
 16 18  2  0
M  END
