pyridine_urea_10030
     RDKit          3D

 24 25  0  0  0  0  0  0  0  0999 V2000
   12.4740    0.4040   22.8170 C   0  0  0  0  0  0  0  0  0  0  0  0
   10.9710    0.4320   22.5020 C   0  0  0  0  0  0  0  0  0  0  0  0
   10.0600   -0.0160   23.4110 C   0  0  2  0  0  0  0  0  0  0  0  0
    8.6820    0.2620   23.0330 N   0  0  0  0  0  0  0  0  0  0  0  0
    8.3630    0.3660   21.6220 C   0  0  0  0  0  0  0  0  0  0  0  0
    8.9450    1.3350   21.0870 O   0  0  0  0  0  0  0  0  0  0  0  0
    7.4570   -0.5080   21.0480 N   0  0  0  0  0  0  0  0  0  0  0  0
    6.6550    0.1050   20.0200 C   0  0  0  0  0  0  0  0  0  0  0  0
    5.5060    0.8420   20.3120 C   0  0  0  0  0  0  0  0  0  0  0  0
    4.6960    1.5070   19.1950 C   0  0  0  0  0  0  0  0  0  0  0  0
    5.1040    1.3820   17.8880 C   0  0  0  0  0  0  0  0  0  0  0  0
    6.2280    0.6350   17.6910 N   0  0  0  0  0  0  0  0  0  0  0  0
    7.0030    0.0030   18.6710 C   0  0  0  0  0  0  0  0  0  0  0  0
   10.2510    0.7240   24.6460 C   0  0  0  0  0  0  0  0  0  0  0  0
   10.6750    1.8450   24.4060 O   0  0  0  0  0  0  0  0  0  0  0  0
   10.0010    0.2460   25.7350 O   0  0  0  0  0  0  0  0  0  0  0  0
    8.6220   -0.0060   26.0120 C   0  0  0  0  0  0  0  0  0  0  0  0
    9.9410   -1.3500   23.6500 C   0  0  0  0  0  0  0  0  0  0  0  0
   11.2170   -1.4670   24.1780 C   0  0  0  0  0  0  0  0  0  0  0  0
   12.2780   -0.6380   24.4160 C   0  0  0  0  0  0  0  0  0  0  0  0
   12.5150   -1.9730   24.8010 C   0  0  0  0  0  0  0  0  0  0  0  0
   13.9390   -2.5670   25.5080 Cl  0  0  0  0  0  0  0  0  0  0  0  0
   11.4810   -2.8920   24.5850 C   0  0  0  0  0  0  0  0  0  0  0  0
   10.2200   -2.6310   24.0320 C   0  0  0  0  0  0  0  0  0  0  0  0
  1  2  1  0
  3  2  1  6
  3  4  1  0
  4  5  1  0
  5  6  2  0
  5  7  1  0
  7  8  1  0
  8  9  2  0
  9 10  1  0
 10 11  2  0
 11 12  1  0
  8 13  1  0
 12 13  2  0
  3 14  1  0
 14 15  2  0
 14 16  1  0
 16 17  1  0
  3 18  1  0
 18 19  2  0
 19 20  1  0
 20 21  2  0
 21 22  1  0
 21 23  1  0
 18 24  1  0
 23 24  2  0
M  END
