pyridine_urea_8027
     RDKit          3D

 24 25  0  0  0  0  0  0  0  0999 V2000
   13.4580   -1.6780   21.2070 C   0  0  0  0  0  0  0  0  0  0  0  0
   13.8910   -1.3650   22.3290 O   0  0  0  0  0  0  0  0  0  0  0  0
   12.8960   -0.8420   23.0330 C   0  0  0  0  0  0  0  0  0  0  0  0
   12.3960    0.2840   22.6400 C   0  0  0  0  0  0  0  0  0  0  0  0
   11.3120    0.9280   23.1940 C   0  0  0  0  0  0  0  0  0  0  0  0
   10.5080    0.2120   23.9910 C   0  0  0  0  0  0  0  0  0  0  0  0
    9.8290   -0.8940   23.4790 C   0  0  2  0  0  0  0  0  0  0  0  0
   10.4420   -1.4470   22.3370 C   0  0  0  0  0  0  0  0  0  0  0  0
   11.8440   -2.0130   22.4450 C   0  0  0  0  0  0  0  0  0  0  0  0
   10.9230   -2.8520   23.2000 N   0  0  0  0  0  0  0  0  0  0  0  0
   12.7840   -2.9980   22.8990 O   0  0  0  0  0  0  0  0  0  0  0  0
    8.5340   -0.3450   23.0490 N   0  0  0  0  0  0  0  0  0  0  0  0
    8.1940    0.0640   21.7210 C   0  0  0  0  0  0  0  0  0  0  0  0
    8.8660    1.2630   21.2200 O   0  0  0  0  0  0  0  0  0  0  0  0
    7.2780   -0.6630   21.0360 N   0  0  0  0  0  0  0  0  0  0  0  0
    6.5580    0.0020   20.1000 C   0  0  0  0  0  0  0  0  0  0  0  0
    5.3840    0.7500   20.3260 C   0  0  0  0  0  0  0  0  0  0  0  0
    4.7510    1.3960   19.2540 C   0  0  0  0  0  0  0  0  0  0  0  0
    5.2280    1.3400   17.9520 C   0  0  0  0  0  0  0  0  0  0  0  0
    6.3510    0.6070   17.7900 N   0  0  0  0  0  0  0  0  0  0  0  0
    7.0000   -0.0420   18.7890 C   0  0  0  0  0  0  0  0  0  0  0  0
   11.1750   -0.6680   24.8770 C   0  0  0  0  0  0  0  0  0  0  0  0
   12.2900   -1.3160   24.3190 C   0  0  0  0  0  0  0  0  0  0  0  0
   13.0840   -2.8250   25.1420 Br  0  0  0  0  0  0  0  0  0  0  0  0
  1  2  1  0
  2  3  1  0
  3  4  2  0
  4  5  1  0
  5  6  2  0
  6  7  1  0
  7  8  1  6
  8  9  1  0
  9 10  1  0
  9 11  2  0
  7 12  1  0
 12 13  1  0
 13 14  2  0
 13 15  1  0
 15 16  1  0
 16 17  2  0
 17 18  1  0
 18 19  2  0
 19 20  1  0
 16 21  1  0
 20 21  2  0
  6 22  1  0
  3 23  1  0
 22 23  2  0
 23 24  1  0
M  END
