pyridine_urea_3541
     RDKit          3D

 18 19  0  0  0  0  0  0  0  0999 V2000
    8.6820    0.9700   21.2200 O   0  0  0  0  0  0  0  0  0  0  0  0
    8.4250   -0.1880   21.5110 C   0  0  0  0  0  0  0  0  0  0  0  0
    7.2590   -0.8040   21.1070 N   0  0  0  0  0  0  0  0  0  0  0  0
    6.5470   -0.1000   20.0670 C   0  0  0  0  0  0  0  0  0  0  0  0
    5.2680    0.6500   20.4530 C   0  0  0  0  0  0  0  0  0  0  0  0
    4.5310    1.4040   19.3460 C   0  0  0  0  0  0  0  0  0  0  0  0
    5.1680    1.3270   17.9560 C   0  0  0  0  0  0  0  0  0  0  0  0
    6.3420    0.5920   17.7710 N   0  0  0  0  0  0  0  0  0  0  0  0
    6.9900   -0.0830   18.7660 C   0  0  0  0  0  0  0  0  0  0  0  0
    9.2660   -0.9850   22.2690 N   0  0  0  0  0  0  0  0  0  0  0  0
   10.3830   -0.3330   22.8360 C   0  0  1  0  0  0  0  0  0  0  0  0
   10.2190    0.4210   24.0020 C   0  0  0  0  0  0  0  0  0  0  0  0
   10.8780    1.6190   24.0620 O   0  0  0  0  0  0  0  0  0  0  0  0
   11.4850   -1.3820   23.1280 C   0  0  2  0  0  0  0  0  0  0  0  0
   12.5630   -0.7080   23.6720 C   0  0  0  0  0  0  0  0  0  0  0  0
   13.0670    0.1510   22.7430 C   0  0  0  0  0  0  0  0  0  0  0  0
   13.3440   -0.7650   21.7060 O   0  0  0  0  0  0  0  0  0  0  0  0
   12.4080   -1.8380   21.9400 C   0  0  0  0  0  0  0  0  0  0  0  0
  1  2  2  0
  2  3  1  0
  3  4  1  0
  4  5  2  0
  5  6  1  0
  6  7  2  0
  7  8  1  0
  4  9  1  0
  8  9  2  0
  2 10  1  0
 10 11  1  0
 11 12  1  1
 12 13  1  0
 11 14  1  0
 14 15  1  1
 15 16  1  0
 16 17  1  0
 14 18  1  0
 17 18  1  0
M  END
