pyridine_urea_10253
     RDKit          3D

 23 24  0  0  0  0  0  0  0  0999 V2000
   11.9010   -0.9170   24.8790 C   0  0  0  0  0  0  0  0  0  0  0  0
   11.5580   -1.6150   23.5700 C   0  0  0  0  0  0  0  0  0  0  0  0
   11.0650   -2.8940   23.7120 C   0  0  0  0  0  0  0  0  0  0  0  0
   12.8500   -1.6860   22.6970 C   0  0  0  0  0  0  0  0  0  0  0  0
   10.5240   -0.7660   22.8200 C   0  0  1  0  0  0  0  0  0  0  0  0
    9.2360   -1.2770   22.5490 N   0  0  0  0  0  0  0  0  0  0  0  0
    8.5060   -0.3280   21.6330 C   0  0  0  0  0  0  0  0  0  0  0  0
    8.9450    0.7910   21.4070 O   0  0  0  0  0  0  0  0  0  0  0  0
    7.3280   -0.8090   21.0990 N   0  0  0  0  0  0  0  0  0  0  0  0
    6.5680   -0.1190   20.1610 C   0  0  0  0  0  0  0  0  0  0  0  0
    5.4070    0.6240   20.4300 C   0  0  0  0  0  0  0  0  0  0  0  0
    4.7440    1.2850   19.3840 C   0  0  0  0  0  0  0  0  0  0  0  0
    5.2030    1.2290   18.0830 C   0  0  0  0  0  0  0  0  0  0  0  0
    6.2980    0.5380   17.7490 N   0  0  0  0  0  0  0  0  0  0  0  0
    6.9790   -0.1460   18.8350 C   0  0  0  0  0  0  0  0  0  0  0  0
   10.3640    0.5190   23.2620 C   0  0  0  0  0  0  0  0  0  0  0  0
   10.4280    1.8950   23.6400 C   0  0  0  0  0  0  0  0  0  0  0  0
   11.2880    3.0370   23.6170 C   0  0  0  0  0  0  0  0  0  0  0  0
   12.3990    2.5210   23.0420 C   0  0  0  0  0  0  0  0  0  0  0  0
   13.3900    3.3930   22.8680 F   0  0  0  0  0  0  0  0  0  0  0  0
   12.5780    1.2730   22.6570 C   0  0  0  0  0  0  0  0  0  0  0  0
   11.6310    0.3710   22.7570 C   0  0  0  0  0  0  0  0  0  0  0  0
   11.9480   -0.8430   22.3090 F   0  0  0  0  0  0  0  0  0  0  0  0
  2  1  1  0
  2  3  1  0
  2  4  1  0
  2  5  1  0
  5  6  1  1
  6  7  1  0
  7  8  2  0
  7  9  1  0
  9 10  1  0
 10 11  2  0
 11 12  1  0
 12 13  2  0
 13 14  1  0
 10 15  1  0
 14 15  2  0
  5 16  1  0
 16 17  2  0
 17 18  1  0
 18 19  2  0
 19 20  1  0
 19 21  1  0
 16 22  1  0
 21 22  2  0
 22 23  1  0
M  END
