pyridine_urea_6460
     RDKit          3D

 23 25  0  0  0  0  0  0  0  0999 V2000
    8.7120    0.8120   21.2790 O   0  0  0  0  0  0  0  0  0  0  0  0
    8.3560   -0.3180   21.5830 C   0  0  0  0  0  0  0  0  0  0  0  0
    7.1520   -0.8400   21.1590 N   0  0  0  0  0  0  0  0  0  0  0  0
    6.5030   -0.1330   20.0630 C   0  0  0  0  0  0  0  0  0  0  0  0
    5.2110    0.6140   20.3920 C   0  0  0  0  0  0  0  0  0  0  0  0
    4.5940    1.3350   19.2370 C   0  0  0  0  0  0  0  0  0  0  0  0
    5.2180    1.2730   18.0060 C   0  0  0  0  0  0  0  0  0  0  0  0
    6.3570    0.5940   17.7690 N   0  0  0  0  0  0  0  0  0  0  0  0
    6.9610   -0.0800   18.7700 C   0  0  0  0  0  0  0  0  0  0  0  0
    9.1290   -1.1590   22.3670 N   0  0  0  0  0  0  0  0  0  0  0  0
   10.5560   -0.7800   22.4680 C   0  0  0  0  0  0  0  0  0  0  0  0
   11.5610   -1.5840   22.0300 C   0  0  0  0  0  0  0  0  0  0  0  0
   12.8960   -0.8820   22.2630 C   0  0  0  0  0  0  0  0  0  0  0  0
   13.1310    0.3680   22.8130 C   0  0  0  0  0  0  0  0  0  0  0  0
   12.0900    1.1240   23.2330 C   0  0  0  0  0  0  0  0  0  0  0  0
   10.8650    0.5640   23.0750 C   0  0  0  0  0  0  0  0  0  0  0  0
    9.7220    1.3260   23.5450 O   0  0  0  0  0  0  0  0  0  0  0  0
    9.5750    2.6410   23.1500 C   0  0  0  0  0  0  0  0  0  0  0  0
   10.4520    3.6980   23.7700 C   0  0  0  0  0  0  0  0  0  0  0  0
    9.9960    5.1230   23.6080 C   0  0  0  0  0  0  0  0  0  0  0  0
    8.6000    5.2300   23.6410 C   0  0  0  0  0  0  0  0  0  0  0  0
    7.9750    4.3010   22.8020 C   0  0  0  0  0  0  0  0  0  0  0  0
    8.2110    2.9880   23.2190 C   0  0  0  0  0  0  0  0  0  0  0  0
  1  2  2  0
  2  3  1  0
  3  4  1  0
  4  5  2  0
  5  6  1  0
  6  7  2  0
  7  8  1  0
  4  9  1  0
  8  9  2  0
  2 10  1  0
 10 11  1  0
 11 12  2  0
 12 13  1  0
 13 14  2  0
 14 15  1  0
 11 16  1  0
 15 16  2  0
 16 17  1  0
 17 18  1  0
 18 19  1  0
 19 20  1  0
 20 21  1  0
 21 22  1  0
 18 23  1  0
 22 23  1  0
M  END
