pyridine_urea_11749
     RDKit          3D

 26 28  0  0  0  0  0  0  0  0999 V2000
    9.1320    0.8930   21.5070 O   0  0  0  0  0  0  0  0  0  0  0  0
    8.6440   -0.2050   21.7340 C   0  0  0  0  0  0  0  0  0  0  0  0
    7.4480   -0.6590   21.1750 N   0  0  0  0  0  0  0  0  0  0  0  0
    6.6970   -0.0370   20.1370 C   0  0  0  0  0  0  0  0  0  0  0  0
    5.5480    0.7070   20.4620 C   0  0  0  0  0  0  0  0  0  0  0  0
    4.8010    1.3360   19.4560 C   0  0  0  0  0  0  0  0  0  0  0  0
    5.2220    1.2070   18.1510 C   0  0  0  0  0  0  0  0  0  0  0  0
    6.3080    0.5020   17.8050 N   0  0  0  0  0  0  0  0  0  0  0  0
    7.0140   -0.1000   18.7920 C   0  0  0  0  0  0  0  0  0  0  0  0
    9.2530   -1.1420   22.5950 N   0  0  0  0  0  0  0  0  0  0  0  0
   10.4720   -0.8760   23.4670 C   0  0  1  0  0  0  0  0  0  0  0  0
   11.5110   -0.2450   22.5040 C   0  0  0  0  0  0  0  0  0  0  0  0
   12.4460    0.6520   23.0470 C   0  0  0  0  0  0  0  0  0  0  0  0
   11.9630    1.9890   22.9650 C   0  0  0  0  0  0  0  0  0  0  0  0
   10.6130    2.3230   23.0940 C   0  0  0  0  0  0  0  0  0  0  0  0
   10.0910    3.6230   23.0230 C   0  0  0  0  0  0  0  0  0  0  0  0
   10.8420    4.7810   22.8110 C   0  0  0  0  0  0  0  0  0  0  0  0
   12.3130    4.5740   22.6490 C   0  0  0  0  0  0  0  0  0  0  0  0
   12.8920    3.1790   22.7240 C   0  0  0  0  0  0  0  0  0  0  0  0
   10.1510    0.0860   24.6620 C   0  0  0  0  0  0  0  0  0  0  0  0
   11.3340    0.3990   24.1330 C   0  0  0  0  0  0  0  0  0  0  0  0
   11.8920   -0.4210   23.0900 C   0  0  0  0  0  0  0  0  0  0  0  0
   10.7970   -1.4550   22.9770 C   0  0  0  0  0  0  0  0  0  0  0  0
    9.5230   -1.6430   23.6660 C   0  0  0  0  0  0  0  0  0  0  0  0
    8.7520   -2.7320   23.3110 F   0  0  0  0  0  0  0  0  0  0  0  0
    9.1390   -0.7630   24.6280 C   0  0  0  0  0  0  0  0  0  0  0  0
  1  2  2  0
  2  3  1  0
  3  4  1  0
  4  5  2  0
  5  6  1  0
  6  7  2  0
  7  8  1  0
  4  9  1  0
  8  9  2  0
  2 10  1  0
 10 11  1  0
 11 12  1  6
 12 13  1  0
 13 14  1  0
 14 15  2  0
 15 16  1  0
 16 17  2  0
 17 18  1  0
 14 19  1  0
 18 19  2  0
 11 20  1  0
 20 21  2  0
 21 22  1  0
 22 23  2  0
 23 24  1  0
 24 25  1  0
 20 26  1  0
 24 26  2  0
M  END
