pyridine_urea_2393
     RDKit          3D

 24 24  0  0  0  0  0  0  0  0999 V2000
   11.1360    6.3150   22.5720 C   0  0  0  0  0  0  0  0  0  0  0  0
   12.2560    5.3360   22.2330 C   0  0  0  0  0  0  0  0  0  0  0  0
   13.4220    5.8470   21.7350 C   0  0  0  0  0  0  0  0  0  0  0  0
   12.7230    4.7250   23.5040 C   0  0  0  0  0  0  0  0  0  0  0  0
   11.7430    4.2240   21.5110 O   0  0  0  0  0  0  0  0  0  0  0  0
   11.0130    3.2970   22.1840 C   0  0  0  0  0  0  0  0  0  0  0  0
    9.7940    3.2010   22.2060 O   0  0  0  0  0  0  0  0  0  0  0  0
   11.8660    2.4330   22.8690 C   0  0  0  0  0  0  0  0  0  0  0  0
   11.6670    1.0550   22.8250 C   0  0  0  0  0  0  0  0  0  0  0  0
   12.8740    0.1280   22.7610 C   0  0  0  0  0  0  0  0  0  0  0  0
   12.8540   -0.8790   23.6910 C   0  0  0  0  0  0  0  0  0  0  0  0
   11.8560   -0.7960   24.6420 C   0  0  0  0  0  0  0  0  0  0  0  0
   10.5540   -0.5520   24.2010 C   0  0  0  0  0  0  0  0  0  0  0  0
   10.1640   -1.2240   23.0370 C   0  0  0  0  0  0  0  0  0  0  0  0
    8.8450   -1.1660   22.5370 N   0  0  0  0  0  0  0  0  0  0  0  0
    8.3450   -0.2560   21.6260 C   0  0  0  0  0  0  0  0  0  0  0  0
    8.8640    0.8100   21.3380 O   0  0  0  0  0  0  0  0  0  0  0  0
    7.1480   -0.6950   21.0750 N   0  0  0  0  0  0  0  0  0  0  0  0
    6.4850   -0.0280   20.0320 C   0  0  0  0  0  0  0  0  0  0  0  0
    5.3120    0.6860   20.3060 C   0  0  0  0  0  0  0  0  0  0  0  0
    4.6560    1.3600   19.2730 C   0  0  0  0  0  0  0  0  0  0  0  0
    5.1930    1.3020   17.9980 C   0  0  0  0  0  0  0  0  0  0  0  0
    6.3120    0.6170   17.7180 N   0  0  0  0  0  0  0  0  0  0  0  0
    6.9260   -0.0270   18.7310 C   0  0  0  0  0  0  0  0  0  0  0  0
  1  2  1  0
  2  3  1  0
  2  4  1  0
  2  5  1  0
  5  6  1  0
  6  7  2  0
  6  8  1  0
  8  9  1  0
  9 10  1  0
 10 11  1  0
 11 12  1  0
 12 13  1  0
 13 14  1  0
 14 15  1  0
 15 16  1  0
 16 17  2  0
 16 18  1  0
 18 19  1  0
 19 20  2  0
 20 21  1  0
 21 22  2  0
 22 23  1  0
 19 24  1  0
 23 24  2  0
M  END
