pyridine_urea_9891
     RDKit          3D

 26 28  0  0  0  0  0  0  0  0999 V2000
   10.8620   -2.6880   22.9430 C   0  0  0  0  0  0  0  0  0  0  0  0
   11.5260   -1.7110   21.9840 C   0  0  0  0  0  0  0  0  0  0  0  0
   12.9650   -2.0830   21.6620 C   0  0  0  0  0  0  0  0  0  0  0  0
   11.4260   -0.5030   22.8270 C   0  0  0  0  0  0  0  0  0  0  0  0
   10.0590   -0.0440   23.1220 C   0  0  0  0  0  0  0  0  0  0  0  0
    8.8440   -0.6070   22.6070 N   0  0  0  0  0  0  0  0  0  0  0  0
    8.3180    0.0890   21.5440 C   0  0  0  0  0  0  0  0  0  0  0  0
    8.8290    1.1490   21.1490 O   0  0  0  0  0  0  0  0  0  0  0  0
    7.2010   -0.5130   21.0300 N   0  0  0  0  0  0  0  0  0  0  0  0
    6.4990    0.0870   19.9950 C   0  0  0  0  0  0  0  0  0  0  0  0
    5.3140    0.7750   20.2750 C   0  0  0  0  0  0  0  0  0  0  0  0
    4.6300    1.3940   19.2350 C   0  0  0  0  0  0  0  0  0  0  0  0
    5.1490    1.3040   17.9620 C   0  0  0  0  0  0  0  0  0  0  0  0
    6.2780    0.6390   17.6790 N   0  0  0  0  0  0  0  0  0  0  0  0
    6.9260    0.0470   18.6930 C   0  0  0  0  0  0  0  0  0  0  0  0
   10.1150    1.0010   23.9620 C   0  0  0  0  0  0  0  0  0  0  0  0
    9.1950    1.5760   24.5410 O   0  0  0  0  0  0  0  0  0  0  0  0
   11.4770    1.2250   23.9810 N   0  0  0  0  0  0  0  0  0  0  0  0
   11.6900    2.5590   23.4070 C   0  0  0  0  0  0  0  0  0  0  0  0
   12.8740    2.8700   22.7630 C   0  0  0  0  0  0  0  0  0  0  0  0
   13.1010    4.2300   22.1800 C   0  0  0  0  0  0  0  0  0  0  0  0
   12.0920    5.1640   22.3050 C   0  0  0  0  0  0  0  0  0  0  0  0
   10.9220    4.8210   22.9550 C   0  0  0  0  0  0  0  0  0  0  0  0
   10.6930    3.5490   23.5070 C   0  0  0  0  0  0  0  0  0  0  0  0
   12.2990    0.2050   23.4250 N   0  0  0  0  0  0  0  0  0  0  0  0
   12.8670   -0.5730   24.3780 C   0  0  0  0  0  0  0  0  0  0  0  0
  1  2  1  0
  2  3  1  0
  2  4  1  0
  4  5  2  0
  5  6  1  0
  6  7  1  0
  7  8  2  0
  7  9  1  0
  9 10  1  0
 10 11  2  0
 11 12  1  0
 12 13  2  0
 13 14  1  0
 10 15  1  0
 14 15  2  0
  5 16  1  0
 16 17  2  0
 16 18  1  0
 18 19  1  0
 19 20  2  0
 20 21  1  0
 21 22  2  0
 22 23  1  0
 19 24  1  0
 23 24  2  0
  4 25  1  0
 18 25  1  0
 25 26  1  0
M  END
