pyridine_urea_4165
     RDKit          3D

 25 27  0  0  0  0  0  0  0  0999 V2000
   12.6740    0.6850   24.1510 C   0  0  0  0  0  0  0  0  0  0  0  0
   11.6400   -0.0270   23.5780 C   0  0  0  0  0  0  0  0  0  0  0  0
   11.9700   -0.7380   22.4580 C   0  0  0  0  0  0  0  0  0  0  0  0
   11.0930   -1.4740   21.7310 C   0  0  0  0  0  0  0  0  0  0  0  0
    9.7930   -1.4670   22.1760 C   0  0  0  0  0  0  0  0  0  0  0  0
    8.8600   -2.1220   21.4140 N   0  0  0  0  0  0  0  0  0  0  0  0
    8.1380   -1.0000   21.0660 C   0  0  0  0  0  0  0  0  0  0  0  0
    8.6600    0.1220   21.1230 O   0  0  0  0  0  0  0  0  0  0  0  0
    6.7750   -1.1940   20.6650 N   0  0  0  0  0  0  0  0  0  0  0  0
    6.2040   -0.3390   19.8050 C   0  0  0  0  0  0  0  0  0  0  0  0
    4.8700    0.3470   20.1100 C   0  0  0  0  0  0  0  0  0  0  0  0
    4.3650    1.2170   19.1710 C   0  0  0  0  0  0  0  0  0  0  0  0
    5.0920    1.4280   18.0010 C   0  0  0  0  0  0  0  0  0  0  0  0
    6.2710    0.8350   17.7090 N   0  0  0  0  0  0  0  0  0  0  0  0
    6.7980   -0.0250   18.6050 C   0  0  0  0  0  0  0  0  0  0  0  0
    9.4530   -0.8210   23.2720 C   0  0  0  0  0  0  0  0  0  0  0  0
    8.1030   -0.9860   23.5380 C   0  0  0  0  0  0  0  0  0  0  0  0
   10.3260   -0.0610   24.0650 C   0  0  0  0  0  0  0  0  0  0  0  0
    9.5060    0.6530   25.4600 S   0  0  0  0  0  0  0  0  0  0  0  0
   10.0230    0.0440   26.6620 O   0  0  0  0  0  0  0  0  0  0  0  0
    9.2940    2.0570   25.2260 O   0  0  0  0  0  0  0  0  0  0  0  0
    7.9320   -0.0260   25.4690 N   0  0  0  0  0  0  0  0  0  0  0  0
    7.6190   -0.5640   26.6740 C   0  0  0  0  0  0  0  0  0  0  0  0
    7.7750   -1.8230   26.9550 C   0  0  0  0  0  0  0  0  0  0  0  0
    6.4980   -1.6550   26.8330 C   0  0  0  0  0  0  0  0  0  0  0  0
  1  2  1  0
  2  3  2  0
  3  4  1  0
  4  5  2  0
  5  6  1  0
  6  7  1  0
  7  8  2  0
  7  9  1  0
  9 10  1  0
 10 11  2  0
 11 12  1  0
 12 13  2  0
 13 14  1  0
 10 15  1  0
 14 15  2  0
  5 16  1  0
 16 17  1  0
  2 18  1  0
 16 18  2  0
 18 19  1  0
 19 20  2  0
 19 21  2  0
 19 22  1  0
 22 23  1  0
 23 24  1  0
 23 25  1  0
 24 25  1  0
M  END
