pyridine_urea_14792
     RDKit          3D

 20 22  0  0  0  0  0  0  0  0999 V2000
    8.8610    0.7670   21.5090 O   0  0  0  0  0  0  0  0  0  0  0  0
    8.3930   -0.3140   21.8300 C   0  0  0  0  0  0  0  0  0  0  0  0
    8.9510   -1.2130   22.7790 N   0  0  0  0  0  0  0  0  0  0  0  0
    9.7730   -0.9620   23.9570 C   0  0  0  0  0  0  0  0  0  0  0  0
   11.1460   -1.3230   24.1360 C   0  0  0  0  0  0  0  0  0  0  0  0
   12.0440   -0.6790   23.3090 C   0  0  0  0  0  0  0  0  0  0  0  0
   12.5850    0.4940   23.7800 C   0  0  0  0  0  0  0  0  0  0  0  0
   11.6610    1.5540   23.6840 C   0  0  0  0  0  0  0  0  0  0  0  0
   10.5240    1.0620   22.8150 C   0  0  0  0  0  0  0  0  0  0  0  0
   11.1860   -0.1820   22.4470 N   0  0  0  0  0  0  0  0  0  0  0  0
   10.6180   -1.2540   21.6840 C   0  0  0  0  0  0  0  0  0  0  0  0
   11.7920   -2.0080   21.5250 C   0  0  0  0  0  0  0  0  0  0  0  0
   12.7340   -1.4540   22.3760 C   0  0  0  0  0  0  0  0  0  0  0  0
    7.2090   -0.7690   21.2460 N   0  0  0  0  0  0  0  0  0  0  0  0
    6.5490   -0.1070   20.1200 C   0  0  0  0  0  0  0  0  0  0  0  0
    5.2980    0.6840   20.3940 C   0  0  0  0  0  0  0  0  0  0  0  0
    4.6850    1.3320   19.3010 C   0  0  0  0  0  0  0  0  0  0  0  0
    5.2180    1.2430   18.0210 C   0  0  0  0  0  0  0  0  0  0  0  0
    6.3380    0.5230   17.8060 N   0  0  0  0  0  0  0  0  0  0  0  0
    7.0170   -0.1590   18.8110 C   0  0  0  0  0  0  0  0  0  0  0  0
  1  2  2  0
  2  3  1  0
  3  4  1  0
  4  5  1  0
  6  5  1  0
  6  7  1  0
  7  8  1  0
  8  9  1  0
  6 10  1  0
  9 10  1  0
 10 11  1  0
 11 12  1  0
  6 13  1  0
 12 13  1  0
  2 14  1  0
 14 15  1  0
 15 16  2  0
 16 17  1  0
 17 18  2  0
 18 19  1  0
 15 20  1  0
 19 20  2  0
M  END
