pyridine_urea_13089
     RDKit          3D

 18 19  0  0  0  0  0  0  0  0999 V2000
   13.6540    0.0330   22.5900 C   0  0  0  0  0  0  0  0  0  0  0  0
   12.3630    0.6260   22.7730 C   0  0  0  0  0  0  0  0  0  0  0  0
   12.1230    2.0580   22.7330 N   0  0  0  0  0  0  0  0  0  0  0  0
   10.7890    2.3000   22.9300 N   0  0  0  0  0  0  0  0  0  0  0  0
   10.0890    1.0720   23.1180 C   0  0  0  0  0  0  0  0  0  0  0  0
    8.7750    0.8260   23.3530 C   0  0  0  0  0  0  0  0  0  0  0  0
    8.6860   -0.5450   23.5730 C   0  0  0  0  0  0  0  0  0  0  0  0
    8.6050   -1.1280   22.3610 N   0  0  0  0  0  0  0  0  0  0  0  0
    8.0900   -0.3840   21.3080 C   0  0  0  0  0  0  0  0  0  0  0  0
    8.5800    0.6850   20.9840 O   0  0  0  0  0  0  0  0  0  0  0  0
    7.0330   -0.9400   20.7910 N   0  0  0  0  0  0  0  0  0  0  0  0
    6.3370   -0.1540   19.9200 C   0  0  0  0  0  0  0  0  0  0  0  0
    5.0190    0.5840   20.1860 C   0  0  0  0  0  0  0  0  0  0  0  0
    4.5390    1.3250   19.1210 C   0  0  0  0  0  0  0  0  0  0  0  0
    5.2030    1.3870   17.9190 C   0  0  0  0  0  0  0  0  0  0  0  0
    6.3580    0.7440   17.6680 N   0  0  0  0  0  0  0  0  0  0  0  0
    6.8620    0.0170   18.6560 C   0  0  0  0  0  0  0  0  0  0  0  0
   10.9960   -0.4680   23.0580 S   0  0  0  0  0  0  0  0  0  0  0  0
  1  2  1  0
  2  3  2  0
  3  4  1  0
  4  5  2  0
  5  6  1  0
  6  7  1  0
  7  8  1  0
  8  9  1  0
  9 10  2  0
  9 11  1  0
 11 12  1  0
 12 13  2  0
 13 14  1  0
 14 15  2  0
 15 16  1  0
 12 17  1  0
 16 17  2  0
  2 18  1  0
  5 18  1  0
M  END
