pyridine_urea_4047
     RDKit          3D

 26 28  0  0  0  0  0  0  0  0999 V2000
   13.0960    2.3560   22.6180 O   0  0  0  0  0  0  0  0  0  0  0  0
   13.9990    1.5390   22.5780 C   0  0  0  0  0  0  0  0  0  0  0  0
   15.1980    2.1550   22.1380 N   0  0  0  0  0  0  0  0  0  0  0  0
   15.8050    3.5490   22.2810 C   0  0  0  0  0  0  0  0  0  0  0  0
   17.1090    4.0310   22.8040 C   0  0  1  0  0  0  0  0  0  0  0  0
   18.0850    4.4200   21.9210 C   0  0  0  0  0  0  0  0  0  0  0  0
   18.9990    5.2490   22.4390 C   0  0  0  0  0  0  0  0  0  0  0  0
   18.4890    5.6790   23.6100 C   0  0  0  0  0  0  0  0  0  0  0  0
   17.2970    5.1910   23.6780 O   0  0  0  0  0  0  0  0  0  0  0  0
   14.0560    0.0020   22.9580 N   0  0  0  0  0  0  0  0  0  0  0  0
   13.1610   -1.0130   23.1850 C   0  0  0  0  0  0  0  0  0  0  0  0
   12.3400   -0.7670   24.2670 C   0  0  0  0  0  0  0  0  0  0  0  0
   11.1660   -1.4380   24.5360 C   0  0  0  0  0  0  0  0  0  0  0  0
   10.7470   -2.4100   23.6850 C   0  0  0  0  0  0  0  0  0  0  0  0
    9.4280   -2.9170   23.6920 N   0  0  0  0  0  0  0  0  0  0  0  0
    8.4510   -1.8930   23.0480 C   0  0  0  0  0  0  0  0  0  0  0  0
    8.1420   -0.6560   23.6980 O   0  0  0  0  0  0  0  0  0  0  0  0
    7.8310   -2.0690   21.7340 N   0  0  0  0  0  0  0  0  0  0  0  0
    7.1180   -1.0710   20.8640 C   0  0  0  0  0  0  0  0  0  0  0  0
    6.0790   -0.2580   21.4050 C   0  0  0  0  0  0  0  0  0  0  0  0
    5.3850    0.7140   20.4340 C   0  0  0  0  0  0  0  0  0  0  0  0
    5.8260    0.7650   18.9900 C   0  0  0  0  0  0  0  0  0  0  0  0
    6.7960    0.0000   18.5280 N   0  0  0  0  0  0  0  0  0  0  0  0
    7.3920   -0.8680   19.4460 C   0  0  0  0  0  0  0  0  0  0  0  0
   11.7060   -2.7780   22.7340 C   0  0  0  0  0  0  0  0  0  0  0  0
   12.9280   -2.1360   22.4540 C   0  0  0  0  0  0  0  0  0  0  0  0
  1  2  2  0
  2  3  1  0
  3  4  1  0
  5  4  1  6
  5  6  1  0
  6  7  1  0
  7  8  1  0
  5  9  1  0
  8  9  1  0
  2 10  1  0
 10 11  1  0
 11 12  2  0
 12 13  1  0
 13 14  2  0
 14 15  1  0
 15 16  1  0
 16 17  2  0
 16 18  1  0
 18 19  1  0
 19 20  2  0
 20 21  1  0
 21 22  2  0
 22 23  1  0
 19 24  1  0
 23 24  2  0
 14 25  1  0
 11 26  1  0
 25 26  2  0
M  END
