pyridine_urea_502
     RDKit          3D

 25 27  0  0  0  0  0  0  0  0999 V2000
    8.9630    0.7780   21.3450 O   0  0  0  0  0  0  0  0  0  0  0  0
    8.3360   -0.2250   21.6510 C   0  0  0  0  0  0  0  0  0  0  0  0
    8.6900   -1.0960   22.6710 N   0  0  0  0  0  0  0  0  0  0  0  0
    8.5800   -0.8390   24.0610 C   0  0  0  0  0  0  0  0  0  0  0  0
    7.5880   -1.3810   24.8780 C   0  0  0  0  0  0  0  0  0  0  0  0
    6.9070   -0.4880   25.3990 O   0  0  0  0  0  0  0  0  0  0  0  0
    6.8460   -2.3330   24.1700 C   0  0  0  0  0  0  0  0  0  0  0  0
    5.9600   -2.9410   25.0360 C   0  0  0  0  0  0  0  0  0  0  0  0
    6.5060   -3.6550   26.0340 N   0  0  0  0  0  0  0  0  0  0  0  0
    6.4210   -5.0050   25.9240 C   0  0  0  0  0  0  0  0  0  0  0  0
    5.9740   -5.4830   24.5270 C   0  0  0  0  0  0  0  0  0  0  0  0
    4.6910   -5.8420   24.1220 C   0  0  0  0  0  0  0  0  0  0  0  0
    4.4590   -6.2550   22.7980 C   0  0  0  0  0  0  0  0  0  0  0  0
    5.5030   -6.3150   21.8670 C   0  0  0  0  0  0  0  0  0  0  0  0
    6.7860   -5.9660   22.2490 C   0  0  0  0  0  0  0  0  0  0  0  0
    7.0530   -5.5280   23.6330 C   0  0  0  0  0  0  0  0  0  0  0  0
    7.8920   -3.2570   26.2820 C   0  0  0  0  0  0  0  0  0  0  0  0
    8.1560   -1.8970   26.0590 C   0  0  0  0  0  0  0  0  0  0  0  0
    7.1620   -0.6410   21.0350 N   0  0  0  0  0  0  0  0  0  0  0  0
    6.5170   -0.0030   20.0350 C   0  0  0  0  0  0  0  0  0  0  0  0
    5.3610    0.7280   20.3120 C   0  0  0  0  0  0  0  0  0  0  0  0
    4.6870    1.3990   19.2900 C   0  0  0  0  0  0  0  0  0  0  0  0
    5.1980    1.3150   18.0140 C   0  0  0  0  0  0  0  0  0  0  0  0
    6.3040    0.6150   17.7150 N   0  0  0  0  0  0  0  0  0  0  0  0
    6.9340   -0.0250   18.7230 C   0  0  0  0  0  0  0  0  0  0  0  0
  1  2  2  0
  2  3  1  0
  3  4  1  0
  4  5  1  0
  5  6  1  0
  5  7  1  0
  7  8  1  0
  8  9  1  0
  9 10  1  0
 10 11  1  0
 11 12  2  0
 12 13  1  0
 13 14  2  0
 14 15  1  0
 11 16  1  0
 15 16  2  0
  9 17  1  0
  5 18  1  0
 17 18  1  0
  2 19  1  0
 19 20  1  0
 20 21  2  0
 21 22  1  0
 22 23  2  0
 23 24  1  0
 20 25  1  0
 24 25  2  0
M  END
