pyridine_urea_8477
     RDKit          3D

 22 24  0  0  0  0  0  0  0  0999 V2000
    8.3250    0.7300   20.9010 O   0  0  0  0  0  0  0  0  0  0  0  0
    7.7980   -0.2910   21.3170 C   0  0  0  0  0  0  0  0  0  0  0  0
    6.6960   -0.8430   20.7980 N   0  0  0  0  0  0  0  0  0  0  0  0
    6.1390   -0.0830   19.8040 C   0  0  0  0  0  0  0  0  0  0  0  0
    4.9250    0.5540   20.0180 C   0  0  0  0  0  0  0  0  0  0  0  0
    4.3940    1.3410   19.0070 C   0  0  0  0  0  0  0  0  0  0  0  0
    5.1060    1.4520   17.8320 C   0  0  0  0  0  0  0  0  0  0  0  0
    6.2790    0.8360   17.6120 N   0  0  0  0  0  0  0  0  0  0  0  0
    6.7630    0.0840   18.6050 C   0  0  0  0  0  0  0  0  0  0  0  0
    8.2740   -0.9380   22.3820 N   0  0  0  0  0  0  0  0  0  0  0  0
    9.0790   -0.0440   23.1210 C   0  0  2  0  0  0  0  0  0  0  0  0
   10.0030    0.7220   22.2150 C   0  0  0  0  0  0  0  0  0  0  0  0
   11.1870    0.7170   22.8360 C   0  0  0  0  0  0  0  0  0  0  0  0
   11.2070   -0.2090   23.7600 N   0  0  0  0  0  0  0  0  0  0  0  0
   12.0210   -1.0750   23.4220 C   0  0  0  0  0  0  0  0  0  0  0  0
   12.2770   -1.5210   22.1630 C   0  0  0  0  0  0  0  0  0  0  0  0
   13.2270   -2.4770   22.0230 C   0  0  0  0  0  0  0  0  0  0  0  0
   13.8570   -2.9390   23.1700 C   0  0  0  0  0  0  0  0  0  0  0  0
   13.4980   -2.4430   24.3570 C   0  0  0  0  0  0  0  0  0  0  0  0
   14.1480   -2.8990   25.9880 Br  0  0  0  0  0  0  0  0  0  0  0  0
   12.6260   -1.5590   24.4600 C   0  0  0  0  0  0  0  0  0  0  0  0
   10.0160   -0.7980   23.9960 C   0  0  0  0  0  0  0  0  0  0  0  0
  1  2  2  0
  2  3  1  0
  3  4  1  0
  4  5  2  0
  5  6  1  0
  6  7  2  0
  7  8  1  0
  4  9  1  0
  8  9  2  0
  2 10  1  0
 11 10  1  6
 11 12  1  0
 12 13  1  0
 13 14  1  0
 14 15  1  0
 15 16  2  0
 16 17  1  0
 17 18  2  0
 18 19  1  0
 19 20  1  0
 15 21  1  0
 19 21  2  0
 11 22  1  0
 14 22  1  0
M  END
