pyridine_urea_1611
     RDKit          3D

 19 20  0  0  0  0  0  0  0  0999 V2000
    9.9600    1.1920   24.3330 C   0  0  0  0  0  0  0  0  0  0  0  0
   10.5630   -0.1550   24.0010 C   0  0  1  0  0  0  0  0  0  0  0  0
    9.9920   -1.0020   23.0580 C   0  0  0  0  0  0  0  0  0  0  0  0
    8.6900   -0.7080   22.6410 N   0  0  0  0  0  0  0  0  0  0  0  0
    8.3190    0.0860   21.5760 C   0  0  0  0  0  0  0  0  0  0  0  0
    8.8730    1.1360   21.2120 O   0  0  0  0  0  0  0  0  0  0  0  0
    7.2050   -0.4780   20.9930 N   0  0  0  0  0  0  0  0  0  0  0  0
    6.4900    0.1380   19.9760 C   0  0  0  0  0  0  0  0  0  0  0  0
    5.3200    0.8350   20.3140 C   0  0  0  0  0  0  0  0  0  0  0  0
    4.6020    1.4730   19.3110 C   0  0  0  0  0  0  0  0  0  0  0  0
    5.1570    1.3640   17.8950 C   0  0  0  0  0  0  0  0  0  0  0  0
    6.2690    0.6800   17.6300 N   0  0  0  0  0  0  0  0  0  0  0  0
    6.9000    0.0910   18.6620 C   0  0  0  0  0  0  0  0  0  0  0  0
   12.0510   -0.0280   23.6280 C   0  0  0  0  0  0  0  0  0  0  0  0
   12.9400   -0.9160   23.8150 C   0  0  0  0  0  0  0  0  0  0  0  0
   12.9350    0.3750   23.2480 C   0  0  0  0  0  0  0  0  0  0  0  0
   11.5290    0.9210   23.2990 C   0  0  0  0  0  0  0  0  0  0  0  0
   12.2580    2.0290   22.7010 C   0  0  0  0  0  0  0  0  0  0  0  0
   12.8310    0.9620   23.0350 N   0  0  0  0  0  0  0  0  0  0  0  0
  2  1  1  6
  2  3  1  0
  3  4  1  0
  4  5  1  0
  5  6  2  0
  5  7  1  0
  7  8  1  0
  8  9  2  0
  9 10  1  0
 10 11  2  0
 11 12  1  0
  8 13  1  0
 12 13  2  0
  2 14  1  0
 14 15  2  0
 15 16  1  0
 16 17  2  0
 17 18  1  0
 14 19  1  0
 18 19  2  0
M  END
