pyridine_urea_1503
     RDKit          3D

 24 26  0  0  0  0  0  0  0  0999 V2000
    8.4320    1.3000   20.8720 O   0  0  0  0  0  0  0  0  0  0  0  0
    7.8520    0.3080   21.3260 C   0  0  0  0  0  0  0  0  0  0  0  0
    8.2100   -0.1830   22.4870 N   0  0  0  0  0  0  0  0  0  0  0  0
    9.5690    0.0420   22.6450 C   0  0  0  0  0  0  0  0  0  0  0  0
   10.3580   -1.1650   22.2810 C   0  0  0  0  0  0  0  0  0  0  0  0
   11.6780   -1.1220   22.4050 C   0  0  0  0  0  0  0  0  0  0  0  0
   12.2620    0.0200   22.8550 C   0  0  0  0  0  0  0  0  0  0  0  0
   13.5030   -0.2210   22.9540 C   0  0  0  0  0  0  0  0  0  0  0  0
   14.1820    0.7140   22.6330 O   0  0  0  0  0  0  0  0  0  0  0  0
   13.6760   -1.4850   23.4290 N   0  0  0  0  0  0  0  0  0  0  0  0
   13.2750   -1.7620   24.7420 C   0  0  0  0  0  0  0  0  0  0  0  0
   11.9710   -2.1280   24.8820 C   0  0  0  0  0  0  0  0  0  0  0  0
   11.3830   -1.7530   23.6760 O   0  0  0  0  0  0  0  0  0  0  0  0
   11.8850   -2.6610   22.8370 C   0  0  0  0  0  0  0  0  0  0  0  0
   13.2450   -2.4450   22.5440 C   0  0  0  0  0  0  0  0  0  0  0  0
   11.6490    1.1890   23.1750 C   0  0  0  0  0  0  0  0  0  0  0  0
   10.1650    1.2120   23.0670 C   0  0  0  0  0  0  0  0  0  0  0  0
    6.8400   -0.3970   20.7880 N   0  0  0  0  0  0  0  0  0  0  0  0
    6.1570    0.2310   19.8640 C   0  0  0  0  0  0  0  0  0  0  0  0
    4.8980    0.8660   20.0830 C   0  0  0  0  0  0  0  0  0  0  0  0
    4.3810    1.4990   18.9880 C   0  0  0  0  0  0  0  0  0  0  0  0
    5.1630    1.4600   17.7140 C   0  0  0  0  0  0  0  0  0  0  0  0
    6.3250    0.8430   17.5530 N   0  0  0  0  0  0  0  0  0  0  0  0
    6.7820    0.2470   18.6420 C   0  0  0  0  0  0  0  0  0  0  0  0
  1  2  2  0
  2  3  1  0
  3  4  1  0
  4  5  2  0
  5  6  1  0
  6  7  2  0
  7  8  1  0
  8  9  2  0
  8 10  1  0
 10 11  1  0
 11 12  1  0
 12 13  1  0
 13 14  1  0
 10 15  1  0
 14 15  1  0
  7 16  1  0
  4 17  1  0
 16 17  2  0
  2 18  1  0
 18 19  1  0
 19 20  2  0
 20 21  1  0
 21 22  2  0
 22 23  1  0
 19 24  1  0
 23 24  2  0
M  END
