pyridine_urea_5480
     RDKit          3D

 17 17  0  0  0  0  0  0  0  0999 V2000
    7.4810   -1.0800   28.9180 C   0  0  0  0  0  0  0  0  0  0  0  0
    6.7680   -0.6570   27.8070 N   0  0  0  0  0  0  0  0  0  0  0  0
    7.4880   -0.3740   26.5690 C   0  0  0  0  0  0  0  0  0  0  0  0
    7.1440   -1.3840   25.4050 C   0  0  0  0  0  0  0  0  0  0  0  0
    7.3430   -0.8560   24.3170 O   0  0  0  0  0  0  0  0  0  0  0  0
    8.7060   -0.6350   24.2100 C   0  0  0  0  0  0  0  0  0  0  0  0
    9.5100   -1.4720   23.1970 C   0  0  0  0  0  0  0  0  0  0  0  0
    9.3760   -1.2870   21.8760 N   0  0  0  0  0  0  0  0  0  0  0  0
    8.5810   -0.2660   21.4750 C   0  0  0  0  0  0  0  0  0  0  0  0
    9.0070    0.8820   21.4560 O   0  0  0  0  0  0  0  0  0  0  0  0
    7.3240   -0.6780   21.0940 N   0  0  0  0  0  0  0  0  0  0  0  0
    6.5710   -0.0020   20.0470 C   0  0  0  0  0  0  0  0  0  0  0  0
    5.2980    0.7630   20.4490 C   0  0  0  0  0  0  0  0  0  0  0  0
    4.5720    1.4710   19.3060 C   0  0  0  0  0  0  0  0  0  0  0  0
    5.1680    1.3510   17.9220 C   0  0  0  0  0  0  0  0  0  0  0  0
    6.3120    0.6210   17.7200 N   0  0  0  0  0  0  0  0  0  0  0  0
    6.9950   -0.0390   18.7310 C   0  0  0  0  0  0  0  0  0  0  0  0
  1  2  1  0
  2  3  1  0
  3  4  1  0
  4  5  1  0
  5  6  1  0
  6  7  1  0
  7  8  1  0
  8  9  1  0
  9 10  2  0
  9 11  1  0
 11 12  1  0
 12 13  2  0
 13 14  1  0
 14 15  2  0
 15 16  1  0
 12 17  1  0
 16 17  2  0
M  END
