pyridine_urea_10876
     RDKit          3D

 20 21  0  0  0  0  0  0  0  0999 V2000
    9.2410   -0.4970   25.6470 C   0  0  0  0  0  0  0  0  0  0  0  0
   10.4150    0.1590   25.0030 C   0  0  0  0  0  0  0  0  0  0  0  0
   10.2290   -0.9970   24.3020 C   0  0  0  0  0  0  0  0  0  0  0  0
   10.9070   -1.5170   23.2270 C   0  0  0  0  0  0  0  0  0  0  0  0
   11.9950   -1.0910   22.4720 C   0  0  0  0  0  0  0  0  0  0  0  0
   11.4430   -2.3310   22.0370 C   0  0  0  0  0  0  0  0  0  0  0  0
    9.9490   -2.1020   22.3070 C   0  0  0  0  0  0  0  0  0  0  0  0
    9.2050   -1.4200   21.3290 N   0  0  0  0  0  0  0  0  0  0  0  0
    8.4960   -0.2430   21.3900 C   0  0  0  0  0  0  0  0  0  0  0  0
    9.0150    0.8410   21.6050 O   0  0  0  0  0  0  0  0  0  0  0  0
    7.0930   -0.4920   21.1140 N   0  0  0  0  0  0  0  0  0  0  0  0
    6.4270    0.1050   20.0970 C   0  0  0  0  0  0  0  0  0  0  0  0
    5.2530    0.8310   20.2770 C   0  0  0  0  0  0  0  0  0  0  0  0
    4.6060    1.4460   19.2080 C   0  0  0  0  0  0  0  0  0  0  0  0
    5.1670    1.3170   17.9550 C   0  0  0  0  0  0  0  0  0  0  0  0
    6.2930    0.6230   17.7150 N   0  0  0  0  0  0  0  0  0  0  0  0
    6.9150    0.0140   18.8120 C   0  0  0  0  0  0  0  0  0  0  0  0
   12.1680    0.0250   23.1780 C   0  0  0  0  0  0  0  0  0  0  0  0
   13.1940    0.7260   22.7220 C   0  0  0  0  0  0  0  0  0  0  0  0
   11.5110    0.5620   24.2390 C   0  0  0  0  0  0  0  0  0  0  0  0
  1  2  1  0
  2  3  2  0
  3  4  1  0
  4  5  2  0
  5  6  1  0
  6  7  1  0
  7  8  1  0
  8  9  1  0
  9 10  2  0
  9 11  1  0
 11 12  1  0
 12 13  2  0
 13 14  1  0
 14 15  2  0
 15 16  1  0
 12 17  1  0
 16 17  2  0
  5 18  1  0
 18 19  1  0
  2 20  1  0
 18 20  2  0
M  END
