pyridine_urea_14039
     RDKit          3D

 23 24  0  0  0  0  0  0  0  0999 V2000
   13.6400   -3.0720   25.2520 C   0  0  0  0  0  0  0  0  0  0  0  0
   13.4820   -2.6940   24.1280 C   0  0  0  0  0  0  0  0  0  0  0  0
   13.1910   -1.7500   22.9900 C   0  0  1  0  0  0  0  0  0  0  0  0
   13.1420   -2.3140   21.6200 C   0  0  0  0  0  0  0  0  0  0  0  0
   11.9430   -1.4140   23.4110 O   0  0  0  0  0  0  0  0  0  0  0  0
   11.6540   -0.1630   23.2250 C   0  0  0  0  0  0  0  0  0  0  0  0
   12.8180    0.8680   23.1240 C   0  0  0  0  0  0  0  0  0  0  0  0
   12.2390    2.1430   22.9430 C   0  0  0  0  0  0  0  0  0  0  0  0
   12.3910    3.4660   22.7740 C   0  0  0  0  0  0  0  0  0  0  0  0
   10.7930    2.2500   22.8860 C   0  0  0  0  0  0  0  0  0  0  0  0
    9.7420    1.4340   22.9570 C   0  0  0  0  0  0  0  0  0  0  0  0
   10.2500    0.1110   23.1420 C   0  0  0  0  0  0  0  0  0  0  0  0
    9.3990   -0.9490   23.2540 C   0  0  0  0  0  0  0  0  0  0  0  0
    8.9220   -1.2180   21.9470 N   0  0  0  0  0  0  0  0  0  0  0  0
    8.2500   -0.2020   21.3290 C   0  0  0  0  0  0  0  0  0  0  0  0
    8.8190    1.1180   21.0340 O   0  0  0  0  0  0  0  0  0  0  0  0
    6.9080   -0.6130   21.0290 N   0  0  0  0  0  0  0  0  0  0  0  0
    6.2670    0.0700   20.0130 C   0  0  0  0  0  0  0  0  0  0  0  0
    4.9940    0.8430   20.1490 C   0  0  0  0  0  0  0  0  0  0  0  0
    4.4850    1.4940   19.0340 C   0  0  0  0  0  0  0  0  0  0  0  0
    5.1920    1.3890   17.8400 C   0  0  0  0  0  0  0  0  0  0  0  0
    6.3370    0.6920   17.6900 N   0  0  0  0  0  0  0  0  0  0  0  0
    6.8390    0.0580   18.7580 C   0  0  0  0  0  0  0  0  0  0  0  0
  1  2  1  0
  2  3  1  0
  3  4  1  6
  3  5  1  0
  5  6  1  0
  6  7  2  0
  7  8  1  0
  8  9  1  0
  8 10  2  0
 10 11  1  0
  6 12  1  0
 11 12  2  0
 12 13  1  0
 13 14  1  0
 14 15  1  0
 15 16  2  0
 15 17  1  0
 17 18  1  0
 18 19  2  0
 19 20  1  0
 20 21  2  0
 21 22  1  0
 18 23  1  0
 22 23  2  0
M  END
