pyridine_urea_1156
     RDKit          3D

 21 22  0  0  0  0  0  0  0  0999 V2000
    8.7750    1.1050   21.0950 O   0  0  0  0  0  0  0  0  0  0  0  0
    8.1870    0.0370   21.3420 C   0  0  0  0  0  0  0  0  0  0  0  0
    8.7500   -0.9760   22.0200 N   0  0  0  0  0  0  0  0  0  0  0  0
   10.1320   -0.8890   22.2870 C   0  0  0  0  0  0  0  0  0  0  0  0
   10.3010   -1.0450   23.7780 C   0  0  2  0  0  0  0  0  0  0  0  0
    9.4640   -0.2940   24.6070 C   0  0  0  0  0  0  0  0  0  0  0  0
    8.1800   -0.7790   24.8550 C   0  0  0  0  0  0  0  0  0  0  0  0
    7.8200   -0.3930   25.9610 O   0  0  0  0  0  0  0  0  0  0  0  0
   11.7420   -0.7820   24.1400 C   0  0  0  0  0  0  0  0  0  0  0  0
   12.0160   -0.5550   25.3170 C   0  0  0  0  0  0  0  0  0  0  0  0
   12.9880   -0.5840   24.3900 C   0  0  0  0  0  0  0  0  0  0  0  0
   11.9240   -0.8950   23.3760 C   0  0  0  0  0  0  0  0  0  0  0  0
   12.5120   -1.0320   22.1170 C   0  0  0  0  0  0  0  0  0  0  0  0
   12.9400   -0.7580   23.3000 C   0  0  0  0  0  0  0  0  0  0  0  0
    6.9300   -0.3210   20.9990 N   0  0  0  0  0  0  0  0  0  0  0  0
    6.3080    0.2650   19.9280 C   0  0  0  0  0  0  0  0  0  0  0  0
    5.1400    0.9580   20.1520 C   0  0  0  0  0  0  0  0  0  0  0  0
    4.5190    1.5810   19.0290 C   0  0  0  0  0  0  0  0  0  0  0  0
    5.1450    1.4330   17.8160 C   0  0  0  0  0  0  0  0  0  0  0  0
    6.2720    0.7500   17.6160 N   0  0  0  0  0  0  0  0  0  0  0  0
    6.8310    0.1790   18.6730 C   0  0  0  0  0  0  0  0  0  0  0  0
  1  2  2  0
  2  3  1  0
  3  4  1  0
  5  4  1  6
  5  6  1  0
  6  7  1  0
  7  8  1  0
  5  9  1  0
  9 10  2  0
 10 11  1  0
 11 12  2  0
 12 13  1  0
  9 14  1  0
 13 14  2  0
  2 15  1  0
 15 16  1  0
 16 17  2  0
 17 18  1  0
 18 19  2  0
 19 20  1  0
 16 21  1  0
 20 21  2  0
M  END
