pyridine_urea_2447
     RDKit          3D

 24 26  0  0  0  0  0  0  0  0999 V2000
   12.8060    1.7810   22.8010 C   0  0  0  0  0  0  0  0  0  0  0  0
   11.9760    0.6110   23.1630 C   0  0  1  0  0  0  0  0  0  0  0  0
   10.6400    0.5440   22.8050 C   0  0  0  0  0  0  0  0  0  0  0  0
   10.3040   -0.5580   22.0300 C   0  0  2  0  0  0  0  0  0  0  0  0
    8.9440   -0.9490   22.3280 N   0  0  0  0  0  0  0  0  0  0  0  0
    8.0910   -0.2340   21.5530 C   0  0  0  0  0  0  0  0  0  0  0  0
    8.3550    0.9380   21.3180 O   0  0  0  0  0  0  0  0  0  0  0  0
    7.0090   -0.8590   21.0640 N   0  0  0  0  0  0  0  0  0  0  0  0
    6.3450   -0.1330   20.1250 C   0  0  0  0  0  0  0  0  0  0  0  0
    5.1610    0.5750   20.3380 C   0  0  0  0  0  0  0  0  0  0  0  0
    4.5600    1.3440   19.1700 C   0  0  0  0  0  0  0  0  0  0  0  0
    5.2260    1.3020   17.9480 C   0  0  0  0  0  0  0  0  0  0  0  0
    6.3650    0.6070   17.7730 N   0  0  0  0  0  0  0  0  0  0  0  0
    6.8700   -0.0680   18.8360 C   0  0  0  0  0  0  0  0  0  0  0  0
   11.3060   -1.6910   21.9200 C   0  0  0  0  0  0  0  0  0  0  0  0
   12.6310   -1.2970   22.0200 C   0  0  0  0  0  0  0  0  0  0  0  0
   12.5530   -0.6550   23.1550 N   0  0  0  0  0  0  0  0  0  0  0  0
   11.8090   -1.4670   23.8500 C   0  0  0  0  0  0  0  0  0  0  0  0
   12.5320   -2.1260   24.6270 C   0  0  0  0  0  0  0  0  0  0  0  0
   13.4330   -1.5010   25.3230 C   0  0  0  0  0  0  0  0  0  0  0  0
   14.2810   -2.1780   26.1910 C   0  0  0  0  0  0  0  0  0  0  0  0
   14.1740   -3.3830   26.2850 C   0  0  0  0  0  0  0  0  0  0  0  0
   13.3630   -3.8680   25.6500 C   0  0  0  0  0  0  0  0  0  0  0  0
   12.4610   -3.3530   24.7790 C   0  0  0  0  0  0  0  0  0  0  0  0
  2  1  1  6
  2  3  1  0
  3  4  1  0
  4  5  1  1
  5  6  1  0
  6  7  2  0
  6  8  1  0
  8  9  1  0
  9 10  2  0
 10 11  1  0
 11 12  2  0
 12 13  1  0
  9 14  1  0
 13 14  2  0
  4 15  1  0
 15 16  1  0
  2 17  1  0
 16 17  1  0
 17 18  1  0
 18 19  1  0
 19 20  2  0
 20 21  1  0
 21 22  2  0
 22 23  1  0
 19 24  1  0
 23 24  2  0
M  END
