pyridine_urea_3849
     RDKit          3D

 24 26  0  0  0  0  0  0  0  0999 V2000
   13.2630   -0.6280   22.2130 C   0  0  0  0  0  0  0  0  0  0  0  0
   11.8500   -0.4680   22.3500 O   0  0  0  0  0  0  0  0  0  0  0  0
   11.2110   -1.5940   21.8900 C   0  0  0  0  0  0  0  0  0  0  0  0
   11.7760   -2.3240   21.1020 O   0  0  0  0  0  0  0  0  0  0  0  0
    9.9150   -1.8750   22.3720 C   0  0  2  0  0  0  0  0  0  0  0  0
    8.8860   -1.4370   21.5480 N   0  0  0  0  0  0  0  0  0  0  0  0
    8.3350   -0.1960   21.4330 C   0  0  0  0  0  0  0  0  0  0  0  0
    9.0460    0.9620   21.5230 O   0  0  0  0  0  0  0  0  0  0  0  0
    6.9890   -0.3370   21.1880 N   0  0  0  0  0  0  0  0  0  0  0  0
    6.3760    0.2310   20.0740 C   0  0  0  0  0  0  0  0  0  0  0  0
    5.1980    0.9550   20.2570 C   0  0  0  0  0  0  0  0  0  0  0  0
    4.5460    1.5610   19.2110 C   0  0  0  0  0  0  0  0  0  0  0  0
    5.1970    1.3880   17.8510 C   0  0  0  0  0  0  0  0  0  0  0  0
    6.3190    0.6870   17.6740 N   0  0  0  0  0  0  0  0  0  0  0  0
    6.8810    0.1240   18.7770 C   0  0  0  0  0  0  0  0  0  0  0  0
    9.8020   -1.6140   23.7210 C   0  0  1  0  0  0  0  0  0  0  0  0
    9.0790   -2.5360   24.4980 C   0  0  0  0  0  0  0  0  0  0  0  0
    9.9300   -3.4100   25.0930 C   0  0  0  0  0  0  0  0  0  0  0  0
   11.1180   -2.8120   24.8890 C   0  0  0  0  0  0  0  0  0  0  0  0
   12.3500   -3.3830   25.5720 C   0  0  0  0  0  0  0  0  0  0  0  0
   13.6670   -2.6070   25.2600 C   0  0  0  0  0  0  0  0  0  0  0  0
   13.6000   -1.5020   24.3950 C   0  0  0  0  0  0  0  0  0  0  0  0
   12.4250   -2.0520   24.5900 C   0  0  0  0  0  0  0  0  0  0  0  0
   11.2680   -1.6900   24.0810 C   0  0  0  0  0  0  0  0  0  0  0  0
  1  2  1  0
  2  3  1  0
  3  4  2  0
  3  5  1  0
  5  6  1  6
  6  7  1  0
  7  8  2  0
  7  9  1  0
  9 10  1  0
 10 11  2  0
 11 12  1  0
 12 13  2  0
 13 14  1  0
 10 15  1  0
 14 15  2  0
  5 16  1  0
 16 17  1  1
 17 18  1  0
 18 19  1  0
 19 20  1  0
 20 21  2  0
 21 22  1  0
 22 23  2  0
 16 24  1  0
 19 24  2  0
 23 24  1  0
M  END
