pyridine_urea_15166
     RDKit          3D

 17 18  0  0  0  0  0  0  0  0999 V2000
   10.2270   -1.6450   24.2290 C   0  0  0  0  0  0  0  0  0  0  0  0
   10.4570   -1.0860   22.8320 C   0  0  1  0  0  0  0  0  0  0  0  0
    9.2050   -1.3410   22.1030 N   0  0  0  0  0  0  0  0  0  0  0  0
    8.4800   -0.3200   21.5050 C   0  0  0  0  0  0  0  0  0  0  0  0
    8.8920    0.8200   21.3680 O   0  0  0  0  0  0  0  0  0  0  0  0
    7.2430   -0.7460   21.0730 N   0  0  0  0  0  0  0  0  0  0  0  0
    6.5350   -0.0750   20.0660 C   0  0  0  0  0  0  0  0  0  0  0  0
    5.2440    0.6640   20.4100 C   0  0  0  0  0  0  0  0  0  0  0  0
    4.5040    1.3970   19.3150 C   0  0  0  0  0  0  0  0  0  0  0  0
    5.1690    1.3020   17.9590 C   0  0  0  0  0  0  0  0  0  0  0  0
    6.3110    0.6240   17.7280 N   0  0  0  0  0  0  0  0  0  0  0  0
    6.9440   -0.0280   18.7450 C   0  0  0  0  0  0  0  0  0  0  0  0
   10.5510    0.4320   22.9550 C   0  0  0  0  0  0  0  0  0  0  0  0
   11.8150    0.9990   23.0020 C   0  0  0  0  0  0  0  0  0  0  0  0
   12.9830    0.2970   22.8140 C   0  0  0  0  0  0  0  0  0  0  0  0
   12.9950   -1.0630   22.5520 C   0  0  0  0  0  0  0  0  0  0  0  0
   11.6940   -1.6650   22.1440 C   0  0  0  0  0  0  0  0  0  0  0  0
  2  1  1  1
  2  3  1  0
  3  4  1  0
  4  5  2  0
  4  6  1  0
  6  7  1  0
  7  8  2  0
  8  9  1  0
  9 10  2  0
 10 11  1  0
  7 12  1  0
 11 12  2  0
  2 13  1  0
 13 14  1  0
 14 15  2  0
 15 16  1  0
  2 17  1  0
 16 17  1  0
M  END
