pyridine_urea_11091
     RDKit          3D

 18 18  0  0  0  0  0  0  0  0999 V2000
   13.0820   -2.3510   23.1730 N   0  0  0  0  0  0  0  0  0  0  0  0
   13.1910   -1.4950   22.3990 C   0  0  0  0  0  0  0  0  0  0  0  0
   13.3740   -1.7780   21.0170 O   0  0  0  0  0  0  0  0  0  0  0  0
   13.1300   -0.2650   23.0030 N   0  0  0  0  0  0  0  0  0  0  0  0
   12.0870    0.5470   23.0900 C   0  0  0  0  0  0  0  0  0  0  0  0
   12.1500    1.7490   22.8800 O   0  0  0  0  0  0  0  0  0  0  0  0
   10.8200   -0.2110   23.4840 C   0  0  0  0  0  0  0  0  0  0  0  0
   10.2760   -1.0870   22.4340 C   0  0  0  0  0  0  0  0  0  0  0  0
    8.9230   -0.9260   22.3710 N   0  0  0  0  0  0  0  0  0  0  0  0
    8.1950   -0.1510   21.4520 C   0  0  0  0  0  0  0  0  0  0  0  0
    8.7320    1.1350   21.0680 O   0  0  0  0  0  0  0  0  0  0  0  0
    7.0320   -0.6270   20.9900 N   0  0  0  0  0  0  0  0  0  0  0  0
    6.4410    0.0210   19.9940 C   0  0  0  0  0  0  0  0  0  0  0  0
    5.2220    0.7910   20.2940 C   0  0  0  0  0  0  0  0  0  0  0  0
    4.5120    1.4980   19.3880 C   0  0  0  0  0  0  0  0  0  0  0  0
    5.2000    1.3470   18.0420 C   0  0  0  0  0  0  0  0  0  0  0  0
    6.3350    0.6530   17.6560 N   0  0  0  0  0  0  0  0  0  0  0  0
    6.9110   -0.0020   18.7270 C   0  0  0  0  0  0  0  0  0  0  0  0
  1  2  1  0
  2  3  2  0
  2  4  1  0
  4  5  1  0
  5  6  2  0
  5  7  1  0
  7  8  1  0
  8  9  1  0
  9 10  1  0
 10 11  2  0
 10 12  1  0
 12 13  1  0
 13 14  2  0
 14 15  1  0
 15 16  2  0
 16 17  1  0
 13 18  1  0
 17 18  2  0
M  END
