pyridine_urea_4493
     RDKit          3D

 23 24  0  0  0  0  0  0  0  0999 V2000
    8.8740    1.3480   21.1290 O   0  0  0  0  0  0  0  0  0  0  0  0
    8.5520    0.1940   21.4300 C   0  0  0  0  0  0  0  0  0  0  0  0
    9.3250   -0.5450   22.2950 N   0  0  0  0  0  0  0  0  0  0  0  0
   10.4790    0.1800   22.8130 C   0  0  0  0  0  0  0  0  0  0  0  0
   11.5300   -0.6770   23.5330 C   0  0  2  0  0  0  0  0  0  0  0  0
   11.7100   -0.3490   24.8620 O   0  0  0  0  0  0  0  0  0  0  0  0
   12.7580   -0.8520   22.6900 C   0  0  0  0  0  0  0  0  0  0  0  0
   12.7030    0.5370   23.1750 C   0  0  0  0  0  0  0  0  0  0  0  0
   11.4700    0.7440   24.0110 C   0  0  0  0  0  0  0  0  0  0  0  0
   10.5190   -0.5060   24.1990 C   0  0  0  0  0  0  0  0  0  0  0  0
    9.3390   -0.3450   24.9740 C   0  0  0  0  0  0  0  0  0  0  0  0
    8.5160   -1.4180   24.7890 F   0  0  0  0  0  0  0  0  0  0  0  0
    8.6170    0.7380   24.5770 F   0  0  0  0  0  0  0  0  0  0  0  0
    9.5740   -0.2050   26.2930 F   0  0  0  0  0  0  0  0  0  0  0  0
   10.8770   -1.9580   23.5150 C   0  0  0  0  0  0  0  0  0  0  0  0
   12.0770   -2.0270   22.7400 C   0  0  0  0  0  0  0  0  0  0  0  0
    7.4280   -0.4680   20.9840 N   0  0  0  0  0  0  0  0  0  0  0  0
    6.5660    0.1350   20.0600 C   0  0  0  0  0  0  0  0  0  0  0  0
    5.3820    0.8050   20.3710 C   0  0  0  0  0  0  0  0  0  0  0  0
    4.6230    1.4030   19.2460 C   0  0  0  0  0  0  0  0  0  0  0  0
    5.1220    1.2670   17.9630 C   0  0  0  0  0  0  0  0  0  0  0  0
    6.2550    0.6080   17.6930 N   0  0  0  0  0  0  0  0  0  0  0  0
    6.9330    0.0690   18.7260 C   0  0  0  0  0  0  0  0  0  0  0  0
  1  2  2  0
  2  3  1  0
  3  4  1  0
  4  5  1  0
  5  6  1  1
  5  7  1  0
  7  8  2  0
  8  9  1  0
  9 10  2  0
 10 11  1  0
 11 12  1  0
 11 13  1  0
 11 14  1  0
 10 15  1  0
  7 16  1  0
 15 16  2  0
  2 17  1  0
 17 18  1  0
 18 19  2  0
 19 20  1  0
 20 21  2  0
 21 22  1  0
 18 23  1  0
 22 23  2  0
M  END
