pyridine_urea_2705
     RDKit          3D

 23 25  0  0  0  0  0  0  0  0999 V2000
   13.8310   -3.0930   25.4480 C   0  0  0  0  0  0  0  0  0  0  0  0
   13.9330   -2.9660   24.0150 O   0  0  0  0  0  0  0  0  0  0  0  0
   12.8250   -2.1440   23.6860 C   0  0  0  0  0  0  0  0  0  0  0  0
   12.4610   -1.5850   25.1050 C   0  0  0  0  0  0  0  0  0  0  0  0
   11.4390   -0.7780   25.2170 C   0  0  0  0  0  0  0  0  0  0  0  0
   11.0110   -0.7050   23.8920 C   0  0  0  0  0  0  0  0  0  0  0  0
   11.2390   -1.1220   22.6700 C   0  0  0  0  0  0  0  0  0  0  0  0
   12.3270   -2.0230   22.2830 C   0  0  0  0  0  0  0  0  0  0  0  0
   13.2950   -2.6450   22.6630 O   0  0  0  0  0  0  0  0  0  0  0  0
   13.1730   -1.4680   23.5900 C   0  0  0  0  0  0  0  0  0  0  0  0
   12.7330   -0.0260   22.8990 C   0  0  0  0  0  0  0  0  0  0  0  0
   11.2040    0.5680   22.7090 C   0  0  0  0  0  0  0  0  0  0  0  0
   10.3260   -0.4660   21.9640 C   0  0  2  0  0  0  0  0  0  0  0  0
    8.9600   -0.5640   22.3710 N   0  0  0  0  0  0  0  0  0  0  0  0
    8.2240    0.1880   21.5170 C   0  0  0  0  0  0  0  0  0  0  0  0
    8.6210    1.3050   21.1580 O   0  0  0  0  0  0  0  0  0  0  0  0
    7.0780   -0.4310   21.1140 N   0  0  0  0  0  0  0  0  0  0  0  0
    6.3130    0.1890   20.0440 C   0  0  0  0  0  0  0  0  0  0  0  0
    5.1080    0.8760   20.2060 C   0  0  0  0  0  0  0  0  0  0  0  0
    4.5330    1.4370   19.0800 C   0  0  0  0  0  0  0  0  0  0  0  0
    5.1500    1.3020   17.8660 C   0  0  0  0  0  0  0  0  0  0  0  0
    6.2950    0.6410   17.6690 N   0  0  0  0  0  0  0  0  0  0  0  0
    6.8440    0.1000   18.7690 C   0  0  0  0  0  0  0  0  0  0  0  0
  1  2  1  0
  2  3  1  0
  3  4  2  0
  4  5  1  0
  5  6  2  0
  6  7  1  0
  3  8  1  0
  7  8  2  0
  8  9  1  0
  9 10  1  0
 10 11  1  0
 11 12  1  0
  7 13  1  0
 12 13  1  0
 13 14  1  1
 14 15  1  0
 15 16  2  0
 15 17  1  0
 17 18  1  0
 18 19  2  0
 19 20  1  0
 20 21  2  0
 21 22  1  0
 18 23  1  0
 22 23  2  0
M  END
