pyridine_urea_1324
     RDKit          3D

 20 21  0  0  0  0  0  0  0  0999 V2000
   12.2070    3.2910   22.7710 C   0  0  0  0  0  0  0  0  0  0  0  0
   11.6640    2.1100   23.3670 O   0  0  0  0  0  0  0  0  0  0  0  0
   12.2250    0.9220   22.9970 C   0  0  0  0  0  0  0  0  0  0  0  0
   13.5210    0.7820   22.8380 C   0  0  0  0  0  0  0  0  0  0  0  0
   12.6500   -0.3260   22.6000 C   0  0  0  0  0  0  0  0  0  0  0  0
   11.1530   -0.6930   22.6530 C   0  0  0  0  0  0  0  0  0  0  0  0
    9.9800   -0.0560   22.9910 C   0  0  0  0  0  0  0  0  0  0  0  0
    8.8510   -0.6640   22.3020 N   0  0  0  0  0  0  0  0  0  0  0  0
    8.2680    0.1460   21.3940 C   0  0  0  0  0  0  0  0  0  0  0  0
    8.7250    1.2470   21.0630 O   0  0  0  0  0  0  0  0  0  0  0  0
    7.1230   -0.3720   20.9090 N   0  0  0  0  0  0  0  0  0  0  0  0
    6.3670    0.2050   19.9720 C   0  0  0  0  0  0  0  0  0  0  0  0
    5.1680    0.8530   20.1810 C   0  0  0  0  0  0  0  0  0  0  0  0
    4.5140    1.4360   19.1060 C   0  0  0  0  0  0  0  0  0  0  0  0
    5.1150    1.3330   17.8490 C   0  0  0  0  0  0  0  0  0  0  0  0
    6.2690    0.6960   17.6300 N   0  0  0  0  0  0  0  0  0  0  0  0
    6.8610    0.1500   18.6920 C   0  0  0  0  0  0  0  0  0  0  0  0
   11.8040   -1.6360   22.2900 C   0  0  0  0  0  0  0  0  0  0  0  0
   10.5850   -2.3560   22.2240 C   0  0  0  0  0  0  0  0  0  0  0  0
   11.6780   -0.2530   22.7140 N   0  0  0  0  0  0  0  0  0  0  0  0
  1  2  1  0
  2  3  1  0
  3  4  2  0
  4  5  1  0
  5  6  2  0
  6  7  1  0
  7  8  1  0
  8  9  1  0
  9 10  2  0
  9 11  1  0
 11 12  1  0
 12 13  2  0
 13 14  1  0
 14 15  2  0
 15 16  1  0
 12 17  1  0
 16 17  2  0
  6 18  1  0
 18 19  1  0
  3 20  1  0
 18 20  2  0
M  END
