pyridine_urea_13223
     RDKit          3D

 17 17  0  0  0  0  0  0  0  0999 V2000
    8.9480    1.1810   21.2280 O   0  0  0  0  0  0  0  0  0  0  0  0
    8.4790    0.0790   21.5350 C   0  0  0  0  0  0  0  0  0  0  0  0
    8.9840   -0.7670   22.4840 N   0  0  0  0  0  0  0  0  0  0  0  0
   10.3230   -0.7940   22.9080 C   0  0  0  0  0  0  0  0  0  0  0  0
   10.7840    0.3400   23.5700 C   0  0  0  0  0  0  0  0  0  0  0  0
   11.9660    0.4790   23.2870 O   0  0  0  0  0  0  0  0  0  0  0  0
   12.8010   -0.5930   23.3700 C   0  0  0  0  0  0  0  0  0  0  0  0
   12.6480   -1.1170   24.6430 C   0  0  0  0  0  0  0  0  0  0  0  0
   13.2510   -2.5100   24.7270 C   0  0  0  0  0  0  0  0  0  0  0  0
   12.3500   -3.3290   24.7640 O   0  0  0  0  0  0  0  0  0  0  0  0
    7.3510   -0.4830   20.9880 N   0  0  0  0  0  0  0  0  0  0  0  0
    6.5550    0.1450   20.0320 C   0  0  0  0  0  0  0  0  0  0  0  0
    5.2790    0.9480   20.2630 C   0  0  0  0  0  0  0  0  0  0  0  0
    4.6160    1.5300   19.2010 C   0  0  0  0  0  0  0  0  0  0  0  0
    5.1590    1.3480   17.9510 C   0  0  0  0  0  0  0  0  0  0  0  0
    6.2730    0.6440   17.6690 N   0  0  0  0  0  0  0  0  0  0  0  0
    6.9240    0.0730   18.7060 C   0  0  0  0  0  0  0  0  0  0  0  0
  1  2  2  0
  2  3  1  0
  3  4  1  0
  4  5  1  0
  5  6  1  0
  6  7  1  0
  7  8  1  0
  8  9  1  0
  9 10  1  0
  2 11  1  0
 11 12  1  0
 12 13  2  0
 13 14  1  0
 14 15  2  0
 15 16  1  0
 12 17  1  0
 16 17  2  0
M  END
