pyridine_urea_8709
     RDKit          3D

 21 23  0  0  0  0  0  0  0  0999 V2000
    8.8050    0.7250   21.2420 O   0  0  0  0  0  0  0  0  0  0  0  0
    8.0890   -0.1610   21.6740 C   0  0  0  0  0  0  0  0  0  0  0  0
    8.2920   -0.8300   22.8410 N   0  0  0  0  0  0  0  0  0  0  0  0
    9.2490   -0.4330   23.7770 C   0  0  0  0  0  0  0  0  0  0  0  0
   10.3520    0.1840   23.2420 C   0  0  1  0  0  0  0  0  0  0  0  0
    9.9930    0.9730   22.3910 O   0  0  0  0  0  0  0  0  0  0  0  0
   11.2010    0.8950   24.1130 C   0  0  0  0  0  0  0  0  0  0  0  0
   12.5640    0.4870   23.8920 C   0  0  0  0  0  0  0  0  0  0  0  0
   12.4960   -0.6680   22.9670 C   0  0  0  0  0  0  0  0  0  0  0  0
   13.3430   -1.5720   22.4270 C   0  0  0  0  0  0  0  0  0  0  0  0
   12.6880   -2.5980   21.4920 C   0  0  0  0  0  0  0  0  0  0  0  0
   11.3000   -2.4910   21.3120 C   0  0  0  0  0  0  0  0  0  0  0  0
   10.5150   -1.5440   21.9050 C   0  0  0  0  0  0  0  0  0  0  0  0
   11.2930   -0.7700   22.6570 C   0  0  0  0  0  0  0  0  0  0  0  0
    6.9600   -0.5870   21.0530 N   0  0  0  0  0  0  0  0  0  0  0  0
    6.3340    0.0470   19.9900 C   0  0  0  0  0  0  0  0  0  0  0  0
    5.1500    0.7530   20.2290 C   0  0  0  0  0  0  0  0  0  0  0  0
    4.5470    1.4020   19.1700 C   0  0  0  0  0  0  0  0  0  0  0  0
    5.1350    1.3260   17.9230 C   0  0  0  0  0  0  0  0  0  0  0  0
    6.2580    0.6490   17.6700 N   0  0  0  0  0  0  0  0  0  0  0  0
    6.8350    0.0240   18.7080 C   0  0  0  0  0  0  0  0  0  0  0  0
  1  2  2  0
  2  3  1  0
  3  4  1  0
  4  5  1  0
  5  6  1  6
  5  7  1  0
  7  8  1  0
  8  9  1  0
  9 10  1  0
 10 11  2  0
 11 12  1  0
 12 13  2  0
  5 14  1  0
  9 14  2  0
 13 14  1  0
  2 15  1  0
 15 16  1  0
 16 17  2  0
 17 18  1  0
 18 19  2  0
 19 20  1  0
 16 21  1  0
 20 21  2  0
M  END
