pyridine_urea_1343
     RDKit          3D

 20 21  0  0  0  0  0  0  0  0999 V2000
   13.2550   -2.9710   25.0900 C   0  0  0  0  0  0  0  0  0  0  0  0
   12.9430   -1.6590   24.3820 C   0  0  0  0  0  0  0  0  0  0  0  0
   12.7470   -0.4150   24.8890 C   0  0  0  0  0  0  0  0  0  0  0  0
   12.5000    0.5650   23.9860 C   0  0  0  0  0  0  0  0  0  0  0  0
   12.5640   -0.3280   22.8030 C   0  0  0  0  0  0  0  0  0  0  0  0
   12.6780   -1.3890   21.9870 C   0  0  0  0  0  0  0  0  0  0  0  0
   11.3650   -1.8520   22.0430 C   0  0  0  0  0  0  0  0  0  0  0  0
   10.5300   -0.8180   22.5650 C   0  0  2  0  0  0  0  0  0  0  0  0
   10.3790   -0.8050   23.9490 C   0  0  0  0  0  0  0  0  0  0  0  0
    9.1640   -1.0230   22.1390 N   0  0  0  0  0  0  0  0  0  0  0  0
    8.5040   -0.0200   21.4670 C   0  0  0  0  0  0  0  0  0  0  0  0
    9.0110    1.0900   21.2330 O   0  0  0  0  0  0  0  0  0  0  0  0
    7.2490   -0.4270   21.1070 N   0  0  0  0  0  0  0  0  0  0  0  0
    6.5640    0.1200   20.0280 C   0  0  0  0  0  0  0  0  0  0  0  0
    5.3140    0.8990   20.2210 C   0  0  0  0  0  0  0  0  0  0  0  0
    4.5510    1.5090   19.2630 C   0  0  0  0  0  0  0  0  0  0  0  0
    5.1120    1.3120   17.9670 C   0  0  0  0  0  0  0  0  0  0  0  0
    6.2440    0.6060   17.7120 N   0  0  0  0  0  0  0  0  0  0  0  0
    6.9390    0.0290   18.7200 C   0  0  0  0  0  0  0  0  0  0  0  0
   12.8240   -1.5250   23.2670 O   0  0  0  0  0  0  0  0  0  0  0  0
  1  2  1  0
  2  3  2  0
  3  4  1  0
  4  5  2  0
  5  6  1  0
  6  7  1  0
  7  8  1  0
  8  9  1  1
  8 10  1  0
 10 11  1  0
 11 12  2  0
 11 13  1  0
 13 14  1  0
 14 15  2  0
 15 16  1  0
 16 17  2  0
 17 18  1  0
 14 19  1  0
 18 19  2  0
  2 20  1  0
  5 20  1  0
M  END
