pyridine_urea_7903
     RDKit          3D

 25 27  0  0  0  0  0  0  0  0999 V2000
    8.2120   -2.1800   24.6560 N   0  0  0  0  0  0  0  0  0  0  0  0
    9.5040   -1.8520   24.2640 C   0  0  0  0  0  0  0  0  0  0  0  0
    9.7790   -0.2960   24.3150 C   0  0  0  0  0  0  0  0  0  0  0  0
    8.6970    0.5150   24.6810 C   0  0  0  0  0  0  0  0  0  0  0  0
    8.8770    1.8960   24.7010 C   0  0  0  0  0  0  0  0  0  0  0  0
   10.0970    2.4470   24.3610 C   0  0  0  0  0  0  0  0  0  0  0  0
   11.1850    1.6730   23.9910 C   0  0  0  0  0  0  0  0  0  0  0  0
   11.0660    0.2330   23.9530 C   0  0  0  0  0  0  0  0  0  0  0  0
   12.1340   -0.7860   23.5630 C   0  0  0  0  0  0  0  0  0  0  0  0
   13.1480   -1.1850   24.1470 C   0  0  0  0  0  0  0  0  0  0  0  0
   12.6770   -1.7410   22.8730 C   0  0  0  0  0  0  0  0  0  0  0  0
   11.6410   -0.7510   22.9080 C   0  0  0  0  0  0  0  0  0  0  0  0
   10.5560    0.2860   22.9440 C   0  0  0  0  0  0  0  0  0  0  0  0
    9.3350   -0.1280   22.4000 N   0  0  0  0  0  0  0  0  0  0  0  0
    8.6550    0.3910   21.2780 C   0  0  0  0  0  0  0  0  0  0  0  0
    9.0790    1.4220   20.7270 O   0  0  0  0  0  0  0  0  0  0  0  0
    7.5470   -0.3220   20.9480 N   0  0  0  0  0  0  0  0  0  0  0  0
    6.6700    0.2460   19.9810 C   0  0  0  0  0  0  0  0  0  0  0  0
    5.4840    0.8870   20.2840 C   0  0  0  0  0  0  0  0  0  0  0  0
    4.6890    1.4060   19.2820 C   0  0  0  0  0  0  0  0  0  0  0  0
    5.1550    1.2550   17.9820 C   0  0  0  0  0  0  0  0  0  0  0  0
    6.2870    0.6470   17.6750 N   0  0  0  0  0  0  0  0  0  0  0  0
    7.0350    0.1630   18.6730 C   0  0  0  0  0  0  0  0  0  0  0  0
   11.1040   -1.1960   21.7200 C   0  0  0  0  0  0  0  0  0  0  0  0
   12.1310   -1.5710   22.3540 C   0  0  0  0  0  0  0  0  0  0  0  0
  1  2  3  0
  2  3  1  0
  3  4  2  0
  4  5  1  0
  5  6  2  0
  6  7  1  0
  3  8  1  0
  7  8  2  0
  8  9  1  0
  9 10  2  0
 10 11  1  0
 11 12  2  0
 12 13  1  0
 13 14  1  0
 14 15  1  0
 15 16  2  0
 15 17  1  0
 17 18  1  0
 18 19  2  0
 19 20  1  0
 20 21  2  0
 21 22  1  0
 18 23  1  0
 22 23  2  0
 12 24  1  0
  9 25  1  0
 24 25  2  0
M  END
