pyridine_urea_4448
     RDKit          3D

 23 24  0  0  0  0  0  0  0  0999 V2000
    8.7260    0.8820   21.2130 O   0  0  0  0  0  0  0  0  0  0  0  0
    8.4230   -0.2760   21.4570 C   0  0  0  0  0  0  0  0  0  0  0  0
    7.1950   -0.7970   21.1050 N   0  0  0  0  0  0  0  0  0  0  0  0
    6.5060   -0.0840   20.0580 C   0  0  0  0  0  0  0  0  0  0  0  0
    5.2330    0.6680   20.4270 C   0  0  0  0  0  0  0  0  0  0  0  0
    4.5200    1.4280   19.3130 C   0  0  0  0  0  0  0  0  0  0  0  0
    5.1760    1.3490   17.9350 C   0  0  0  0  0  0  0  0  0  0  0  0
    6.3490    0.6070   17.7650 N   0  0  0  0  0  0  0  0  0  0  0  0
    6.9740   -0.0710   18.7660 C   0  0  0  0  0  0  0  0  0  0  0  0
    9.2390   -1.1960   22.0990 N   0  0  0  0  0  0  0  0  0  0  0  0
   10.2280   -0.8180   23.0380 C   0  0  2  0  0  0  0  0  0  0  0  0
   10.6650    0.5180   22.9840 C   0  0  0  0  0  0  0  0  0  0  0  0
    9.9850    1.5360   22.9730 C   0  0  0  0  0  0  0  0  0  0  0  0
   11.4280    1.6170   22.9180 C   0  0  0  0  0  0  0  0  0  0  0  0
   11.4820    0.0600   22.9740 C   0  0  0  0  0  0  0  0  0  0  0  0
   12.8910    0.2130   22.9220 C   0  0  0  0  0  0  0  0  0  0  0  0
   13.6940    1.2660   22.8570 F   0  0  0  0  0  0  0  0  0  0  0  0
   11.9530    1.1490   22.9270 C   0  0  0  0  0  0  0  0  0  0  0  0
   12.2600    2.4770   22.8800 F   0  0  0  0  0  0  0  0  0  0  0  0
   11.4170   -1.8100   23.1040 C   0  0  0  0  0  0  0  0  0  0  0  0
   10.9250   -3.0230   23.4560 F   0  0  0  0  0  0  0  0  0  0  0  0
   12.0500   -1.9720   21.9130 F   0  0  0  0  0  0  0  0  0  0  0  0
   12.3350   -1.5320   24.0610 F   0  0  0  0  0  0  0  0  0  0  0  0
  1  2  2  0
  2  3  1  0
  3  4  1  0
  4  5  2  0
  5  6  1  0
  6  7  2  0
  7  8  1  0
  4  9  1  0
  8  9  2  0
  2 10  1  0
 11 10  1  6
 11 12  1  0
 12 13  2  0
 13 14  1  0
 14 15  2  0
 15 16  1  0
 16 17  1  0
 12 18  1  0
 16 18  2  0
 18 19  1  0
 11 20  1  0
 20 21  1  0
 20 22  1  0
 20 23  1  0
M  END
