pyridine_urea_7969
     RDKit          3D

 25 27  0  0  0  0  0  0  0  0999 V2000
   12.3810   -2.1700   24.3210 C   0  0  0  0  0  0  0  0  0  0  0  0
   11.7760   -1.6360   23.3750 O   0  0  0  0  0  0  0  0  0  0  0  0
   11.7680   -0.2590   23.3690 C   0  0  0  0  0  0  0  0  0  0  0  0
   12.9600   -0.6300   23.0270 C   0  0  0  0  0  0  0  0  0  0  0  0
   13.1280    0.5480   22.9890 C   0  0  0  0  0  0  0  0  0  0  0  0
   11.7150    0.8630   23.3750 C   0  0  0  0  0  0  0  0  0  0  0  0
   10.5250    0.1380   23.6790 C   0  0  0  0  0  0  0  0  0  0  0  0
   10.2620   -0.8700   22.7320 C   0  0  0  0  0  0  0  0  0  0  0  0
    8.8310   -0.9040   22.4490 N   0  0  0  0  0  0  0  0  0  0  0  0
    8.2920   -0.0390   21.5460 C   0  0  0  0  0  0  0  0  0  0  0  0
    8.9000    1.2130   21.1210 O   0  0  0  0  0  0  0  0  0  0  0  0
    7.0890   -0.4990   21.0970 N   0  0  0  0  0  0  0  0  0  0  0  0
    6.4410    0.1120   20.0490 C   0  0  0  0  0  0  0  0  0  0  0  0
    5.2700    0.8490   20.2030 C   0  0  0  0  0  0  0  0  0  0  0  0
    4.6030    1.4920   19.1810 C   0  0  0  0  0  0  0  0  0  0  0  0
    5.1330    1.3980   17.9070 C   0  0  0  0  0  0  0  0  0  0  0  0
    6.2490    0.7090   17.6150 N   0  0  0  0  0  0  0  0  0  0  0  0
    6.8970    0.0850   18.6120 C   0  0  0  0  0  0  0  0  0  0  0  0
    9.4840    1.1010   23.8100 C   0  0  0  0  0  0  0  0  0  0  0  0
    8.2400    0.6390   24.2510 C   0  0  0  0  0  0  0  0  0  0  0  0
    8.1800   -0.5810   24.2370 O   0  0  0  0  0  0  0  0  0  0  0  0
    9.1380   -1.0730   25.0510 C   0  0  0  0  0  0  0  0  0  0  0  0
   10.3110   -0.3330   24.9810 C   0  0  0  0  0  0  0  0  0  0  0  0
   11.6380    2.0780   23.4020 C   0  0  0  0  0  0  0  0  0  0  0  0
   12.7300    1.2080   23.0960 C   0  0  0  0  0  0  0  0  0  0  0  0
  1  2  1  0
  2  3  1  0
  3  4  2  0
  4  5  1  0
  5  6  2  0
  6  7  1  0
  7  8  1  0
  8  9  1  0
  9 10  1  0
 10 11  2  0
 10 12  1  0
 12 13  1  0
 13 14  2  0
 14 15  1  0
 15 16  2  0
 16 17  1  0
 13 18  1  0
 17 18  2  0
  7 19  1  0
 19 20  1  0
 20 21  1  0
 21 22  1  0
  7 23  1  0
 22 23  1  0
  6 24  1  0
  3 25  1  0
 24 25  2  0
M  END
