pyridine_urea_11356
     RDKit          3D

 27 29  0  0  0  0  0  0  0  0999 V2000
    8.5600    0.5930   21.1900 O   0  0  0  0  0  0  0  0  0  0  0  0
    8.1150   -0.5510   21.2120 C   0  0  0  0  0  0  0  0  0  0  0  0
    6.8090   -0.8460   20.9670 N   0  0  0  0  0  0  0  0  0  0  0  0
    6.2560   -0.0790   19.9030 C   0  0  0  0  0  0  0  0  0  0  0  0
    4.9620    0.6590   20.1990 C   0  0  0  0  0  0  0  0  0  0  0  0
    4.4470    1.4520   19.0530 C   0  0  0  0  0  0  0  0  0  0  0  0
    5.1610    1.4490   17.8680 C   0  0  0  0  0  0  0  0  0  0  0  0
    6.3050    0.7670   17.6680 N   0  0  0  0  0  0  0  0  0  0  0  0
    6.8190    0.0320   18.6670 C   0  0  0  0  0  0  0  0  0  0  0  0
    8.8750   -1.6530   21.4790 N   0  0  0  0  0  0  0  0  0  0  0  0
    9.6640   -1.4110   22.6550 C   0  0  1  0  0  0  0  0  0  0  0  0
    9.2350   -1.9890   23.7950 C   0  0  0  0  0  0  0  0  0  0  0  0
    9.3910   -3.2130   23.8410 O   0  0  0  0  0  0  0  0  0  0  0  0
    8.8880   -3.7340   25.0940 C   0  0  0  0  0  0  0  0  0  0  0  0
    8.0080   -2.9030   25.6980 C   0  0  0  0  0  0  0  0  0  0  0  0
    7.4590   -3.2650   26.8920 C   0  0  0  0  0  0  0  0  0  0  0  0
    7.7870   -4.4750   27.5000 C   0  0  0  0  0  0  0  0  0  0  0  0
    8.7280   -5.6310   27.0980 C   0  0  0  0  0  0  0  0  0  0  0  0
    9.2240   -5.0380   25.7810 C   0  0  0  0  0  0  0  0  0  0  0  0
   11.1700   -1.1650   22.3380 C   0  0  0  0  0  0  0  0  0  0  0  0
   12.5590   -0.6510   22.3750 C   0  0  0  0  0  0  0  0  0  0  0  0
   13.0490    0.2930   23.2710 C   0  0  0  0  0  0  0  0  0  0  0  0
   12.1300    0.6490   24.1150 C   0  0  0  0  0  0  0  0  0  0  0  0
   11.6330   -0.4880   22.9530 Cl  0  0  0  0  0  0  0  0  0  0  0  0
   10.8810    0.3680   24.3400 C   0  0  0  0  0  0  0  0  0  0  0  0
    9.9950    0.7650   25.2480 F   0  0  0  0  0  0  0  0  0  0  0  0
   10.4860   -0.5160   23.4220 C   0  0  0  0  0  0  0  0  0  0  0  0
  1  2  2  0
  2  3  1  0
  3  4  1  0
  4  5  2  0
  5  6  1  0
  6  7  2  0
  7  8  1  0
  4  9  1  0
  8  9  2  0
  2 10  1  0
 10 11  1  0
 11 12  1  1
 12 13  1  0
 13 14  1  0
 14 15  2  0
 15 16  1  0
 16 17  2  0
 17 18  1  0
 14 19  1  0
 18 19  2  0
 11 20  1  0
 20 21  2  0
 21 22  1  0
 22 23  2  0
 23 24  1  0
 23 25  1  0
 25 26  1  0
 20 27  1  0
 25 27  2  0
M  END
