pyridine_urea_9933
     RDKit          3D

 25 27  0  0  0  0  0  0  0  0999 V2000
    8.5070    1.0370   20.9480 O   0  0  0  0  0  0  0  0  0  0  0  0
    8.1760   -0.1430   20.8290 C   0  0  0  0  0  0  0  0  0  0  0  0
    9.0830   -1.1380   20.8410 N   0  0  0  0  0  0  0  0  0  0  0  0
    9.2040   -1.2590   22.1420 C   0  0  0  0  0  0  0  0  0  0  0  0
    8.1490   -0.3700   22.7550 C   0  0  0  0  0  0  0  0  0  0  0  0
    7.8800   -0.1870   24.1600 C   0  0  0  0  0  0  0  0  0  0  0  0
    8.7020   -0.9250   25.0900 C   0  0  0  0  0  0  0  0  0  0  0  0
    8.3950   -0.7040   26.5900 C   0  0  0  0  0  0  0  0  0  0  0  0
    7.8430    0.3890   26.6360 O   0  0  0  0  0  0  0  0  0  0  0  0
    7.4680    0.6050   27.9290 C   0  0  0  0  0  0  0  0  0  0  0  0
    8.4760    1.0350   28.8060 C   0  0  0  0  0  0  0  0  0  0  0  0
    8.8390    2.3830   28.8640 C   0  0  0  0  0  0  0  0  0  0  0  0
    9.8410    2.8270   29.7230 C   0  0  0  0  0  0  0  0  0  0  0  0
   10.5330    1.9550   30.5670 C   0  0  0  0  0  0  0  0  0  0  0  0
   10.2170    0.6000   30.5600 C   0  0  0  0  0  0  0  0  0  0  0  0
    9.1430    0.1150   29.6430 C   0  0  0  0  0  0  0  0  0  0  0  0
    9.9060   -1.9160   24.5430 C   0  0  0  0  0  0  0  0  0  0  0  0
   10.0570   -2.0030   23.1050 C   0  0  0  0  0  0  0  0  0  0  0  0
    6.9160   -0.6200   20.6930 N   0  0  0  0  0  0  0  0  0  0  0  0
    6.1440    0.1090   19.8420 C   0  0  0  0  0  0  0  0  0  0  0  0
    4.9260    0.6720   20.0700 C   0  0  0  0  0  0  0  0  0  0  0  0
    4.3530    1.4030   19.0340 C   0  0  0  0  0  0  0  0  0  0  0  0
    5.0460    1.5250   17.8240 C   0  0  0  0  0  0  0  0  0  0  0  0
    6.2480    0.9760   17.5550 N   0  0  0  0  0  0  0  0  0  0  0  0
    6.7890    0.2800   18.5380 C   0  0  0  0  0  0  0  0  0  0  0  0
  1  2  2  0
  2  3  1  0
  3  4  1  0
  4  5  2  0
  5  6  1  0
  6  7  2  0
  7  8  1  0
  8  9  1  0
  9 10  1  0
 10 11  1  0
 11 12  2  0
 12 13  1  0
 13 14  2  0
 14 15  1  0
 11 16  1  0
 15 16  2  0
  7 17  1  0
  4 18  1  0
 17 18  2  0
  2 19  1  0
 19 20  1  0
 20 21  2  0
 21 22  1  0
 22 23  2  0
 23 24  1  0
 20 25  1  0
 24 25  2  0
M  END
