pyridine_urea_10252
     RDKit          3D

 23 25  0  0  0  0  0  0  0  0999 V2000
    8.4440    0.6970   21.1990 O   0  0  0  0  0  0  0  0  0  0  0  0
    7.8440   -0.3180   21.5360 C   0  0  0  0  0  0  0  0  0  0  0  0
    6.7350   -0.7940   20.9040 N   0  0  0  0  0  0  0  0  0  0  0  0
    6.1250   -0.0290   19.9270 C   0  0  0  0  0  0  0  0  0  0  0  0
    4.9420    0.6780   20.0770 C   0  0  0  0  0  0  0  0  0  0  0  0
    4.4540    1.4220   19.0100 C   0  0  0  0  0  0  0  0  0  0  0  0
    5.1720    1.4280   17.8330 C   0  0  0  0  0  0  0  0  0  0  0  0
    6.3180    0.7450   17.6640 N   0  0  0  0  0  0  0  0  0  0  0  0
    6.7600    0.0400   18.7080 C   0  0  0  0  0  0  0  0  0  0  0  0
    8.1940   -1.1070   22.5990 N   0  0  0  0  0  0  0  0  0  0  0  0
    9.4520   -0.9690   23.1170 C   0  0  0  0  0  0  0  0  0  0  0  0
   10.3740   -0.8940   22.1160 C   0  0  0  0  0  0  0  0  0  0  0  0
   11.6420   -0.7570   22.5140 C   0  0  0  0  0  0  0  0  0  0  0  0
   11.7180    0.6190   22.9090 N   0  0  0  0  0  0  0  0  0  0  0  0
   12.9880    0.7840   23.2530 C   0  0  0  0  0  0  0  0  0  0  0  0
   13.1720   -0.5270   23.5860 C   0  0  0  0  0  0  0  0  0  0  0  0
   13.1320   -1.0100   24.9950 C   0  0  0  0  0  0  0  0  0  0  0  0
   13.3200   -2.3440   25.2320 C   0  0  0  0  0  0  0  0  0  0  0  0
   13.5000   -3.1510   24.1790 N   0  0  0  0  0  0  0  0  0  0  0  0
   13.5200   -2.6730   22.8710 C   0  0  0  0  0  0  0  0  0  0  0  0
   13.3710   -1.3620   22.4750 C   0  0  0  0  0  0  0  0  0  0  0  0
   10.8180    0.8200   23.9580 C   0  0  0  0  0  0  0  0  0  0  0  0
    9.5250    0.4000   23.7850 C   0  0  0  0  0  0  0  0  0  0  0  0
  1  2  2  0
  2  3  1  0
  3  4  1  0
  4  5  2  0
  5  6  1  0
  6  7  2  0
  7  8  1  0
  4  9  1  0
  8  9  2  0
  2 10  1  0
 10 11  1  0
 11 12  1  0
 12 13  1  0
 13 14  1  0
 14 15  1  0
 15 16  1  0
 16 17  2  0
 17 18  1  0
 18 19  2  0
 19 20  1  0
 16 21  1  0
 20 21  2  0
 14 22  1  0
 11 23  1  0
 22 23  1  0
M  END
