pyridine_urea_1363
     RDKit          3D

 20 21  0  0  0  0  0  0  0  0999 V2000
    8.9130    0.7900   21.7360 O   0  0  0  0  0  0  0  0  0  0  0  0
    8.5980   -0.3570   21.5080 C   0  0  0  0  0  0  0  0  0  0  0  0
    9.4950   -1.4030   21.6400 N   0  0  0  0  0  0  0  0  0  0  0  0
   10.5730   -1.3700   22.6460 C   0  0  0  0  0  0  0  0  0  0  0  0
   11.9970   -1.4950   22.0050 C   0  0  2  0  0  0  0  0  0  0  0  0
   12.8190   -2.5520   22.3140 C   0  0  0  0  0  0  0  0  0  0  0  0
   13.2520   -3.1150   21.3060 O   0  0  0  0  0  0  0  0  0  0  0  0
   12.8970   -0.3120   22.3740 C   0  0  0  0  0  0  0  0  0  0  0  0
   12.4130    0.8010   23.0170 C   0  0  0  0  0  0  0  0  0  0  0  0
   12.7900    2.0480   22.5150 C   0  0  0  0  0  0  0  0  0  0  0  0
   11.6780    2.8650   22.5940 C   0  0  0  0  0  0  0  0  0  0  0  0
   10.5660    2.0950   22.8630 C   0  0  0  0  0  0  0  0  0  0  0  0
   11.0090    0.7660   22.9790 C   0  0  0  0  0  0  0  0  0  0  0  0
    7.3480   -0.7450   21.0700 N   0  0  0  0  0  0  0  0  0  0  0  0
    6.6190   -0.0910   20.0540 C   0  0  0  0  0  0  0  0  0  0  0  0
    5.3800    0.6970   20.3760 C   0  0  0  0  0  0  0  0  0  0  0  0
    4.6400    1.3680   19.4180 C   0  0  0  0  0  0  0  0  0  0  0  0
    5.1710    1.2330   18.1060 C   0  0  0  0  0  0  0  0  0  0  0  0
    6.2660    0.5380   17.7530 N   0  0  0  0  0  0  0  0  0  0  0  0
    6.9610   -0.1050   18.7210 C   0  0  0  0  0  0  0  0  0  0  0  0
  1  2  2  0
  2  3  1  0
  3  4  1  0
  5  4  1  1
  5  6  1  0
  6  7  1  0
  5  8  1  0
  8  9  1  0
  9 10  1  0
 10 11  1  0
 11 12  1  0
  9 13  1  0
 12 13  1  0
  2 14  1  0
 14 15  1  0
 15 16  2  0
 16 17  1  0
 17 18  2  0
 18 19  1  0
 15 20  1  0
 19 20  2  0
M  END
