pyridine_urea_1871
     RDKit          3D

 23 25  0  0  0  0  0  0  0  0999 V2000
    8.6390    0.6770   21.4420 O   0  0  0  0  0  0  0  0  0  0  0  0
    8.2480   -0.4770   21.5700 C   0  0  0  0  0  0  0  0  0  0  0  0
    7.0680   -0.9250   21.0450 N   0  0  0  0  0  0  0  0  0  0  0  0
    6.4230   -0.1960   20.0260 C   0  0  0  0  0  0  0  0  0  0  0  0
    5.2230    0.4770   20.2930 C   0  0  0  0  0  0  0  0  0  0  0  0
    4.5940    1.2120   19.2780 C   0  0  0  0  0  0  0  0  0  0  0  0
    5.1910    1.2460   18.0280 C   0  0  0  0  0  0  0  0  0  0  0  0
    6.3350    0.6060   17.7570 N   0  0  0  0  0  0  0  0  0  0  0  0
    6.9180   -0.0940   18.7460 C   0  0  0  0  0  0  0  0  0  0  0  0
    9.0150   -1.4000   22.2590 N   0  0  0  0  0  0  0  0  0  0  0  0
   10.3560   -0.8830   22.4380 C   0  0  0  0  0  0  0  0  0  0  0  0
   10.6940    0.5390   22.7920 C   0  0  0  0  0  0  0  0  0  0  0  0
   12.0950    0.7690   22.8420 N   0  0  0  0  0  0  0  0  0  0  0  0
   12.5230    2.0080   23.1140 C   0  0  0  0  0  0  0  0  0  0  0  0
   11.7160    3.1170   22.7350 C   0  0  0  0  0  0  0  0  0  0  0  0
   10.4630    2.9340   22.2800 F   0  0  0  0  0  0  0  0  0  0  0  0
   12.3620    3.8240   21.7770 F   0  0  0  0  0  0  0  0  0  0  0  0
   11.5520    4.0060   23.7530 F   0  0  0  0  0  0  0  0  0  0  0  0
   12.8120   -0.4770   22.5660 N   0  0  0  0  0  0  0  0  0  0  0  0
   11.6360   -1.2320   22.3640 C   0  0  0  0  0  0  0  0  0  0  0  0
   11.5990    0.0700   22.7900 C   0  0  0  0  0  0  0  0  0  0  0  0
   12.5510    0.3740   23.6130 C   0  0  0  0  0  0  0  0  0  0  0  0
   11.1330    0.3190   24.2550 C   0  0  0  0  0  0  0  0  0  0  0  0
  1  2  2  0
  2  3  1  0
  3  4  1  0
  4  5  2  0
  5  6  1  0
  6  7  2  0
  7  8  1  0
  4  9  1  0
  8  9  2  0
  2 10  1  0
 10 11  1  0
 11 12  2  0
 12 13  1  0
 13 14  1  0
 14 15  1  0
 15 16  1  0
 15 17  1  0
 15 18  1  0
 13 19  1  0
 11 20  1  0
 19 20  2  0
 20 21  1  0
 21 22  1  0
 21 23  1  0
 22 23  1  0
M  END
