pyridine_urea_14956
     RDKit          3D

 19 20  0  0  0  0  0  0  0  0999 V2000
    9.5790    3.2180   22.4510 C   0  0  0  0  0  0  0  0  0  0  0  0
    9.4900    1.8280   22.7280 O   0  0  0  0  0  0  0  0  0  0  0  0
   10.7680    1.2040   22.7040 C   0  0  0  0  0  0  0  0  0  0  0  0
   11.8260    1.8120   22.8420 O   0  0  0  0  0  0  0  0  0  0  0  0
   10.6990   -0.3080   22.4810 C   0  0  2  0  0  0  0  0  0  0  0  0
    9.7170   -0.8270   21.6740 N   0  0  0  0  0  0  0  0  0  0  0  0
    8.7000    0.0180   21.3740 C   0  0  0  0  0  0  0  0  0  0  0  0
    8.9230    1.4210   21.1730 O   0  0  0  0  0  0  0  0  0  0  0  0
    7.4060   -0.6260   21.2040 N   0  0  0  0  0  0  0  0  0  0  0  0
    6.6480   -0.0370   20.2160 C   0  0  0  0  0  0  0  0  0  0  0  0
    5.3450    0.7340   20.4930 C   0  0  0  0  0  0  0  0  0  0  0  0
    4.5910    1.3750   19.3130 C   0  0  0  0  0  0  0  0  0  0  0  0
    5.1480    1.2090   18.0570 C   0  0  0  0  0  0  0  0  0  0  0  0
    6.2570    0.5520   17.7400 N   0  0  0  0  0  0  0  0  0  0  0  0
    6.9660   -0.0340   18.7200 C   0  0  0  0  0  0  0  0  0  0  0  0
   10.5350   -1.0180   23.7960 C   0  0  0  0  0  0  0  0  0  0  0  0
   11.8390   -1.3060   23.6620 C   0  0  2  0  0  0  0  0  0  0  0  0
   12.7930   -0.3120   23.3660 C   0  0  0  0  0  0  0  0  0  0  0  0
   12.1200   -0.9440   22.2570 C   0  0  0  0  0  0  0  0  0  0  0  0
  1  2  1  0
  2  3  1  0
  3  4  2  0
  5  3  1  0
  5  6  1  6
  6  7  1  0
  7  8  2  0
  7  9  1  0
  9 10  1  0
 10 11  2  0
 11 12  1  0
 12 13  2  0
 13 14  1  0
 10 15  1  0
 14 15  2  0
  5 16  1  0
 16 17  1  0
 17 18  1  1
  5 19  1  0
 17 19  1  0
M  END
