pyridine_urea_880
     RDKit          3D

 22 24  0  0  0  0  0  0  0  0999 V2000
    8.9110    1.3830   21.2080 O   0  0  0  0  0  0  0  0  0  0  0  0
    8.5500    0.2470   21.5370 C   0  0  0  0  0  0  0  0  0  0  0  0
    9.3030   -0.5650   22.4810 N   0  0  0  0  0  0  0  0  0  0  0  0
   10.6590   -0.7300   22.1600 C   0  0  0  0  0  0  0  0  0  0  0  0
   11.6120   -1.3080   23.0360 C   0  0  0  0  0  0  0  0  0  0  0  0
   11.8070   -0.6610   24.1820 C   0  0  0  0  0  0  0  0  0  0  0  0
   12.8620   -0.4030   23.3810 C   0  0  0  0  0  0  0  0  0  0  0  0
   12.6910   -1.1320   22.0940 C   0  0  0  0  0  0  0  0  0  0  0  0
   13.5870   -1.0980   21.0940 F   0  0  0  0  0  0  0  0  0  0  0  0
   11.3500   -1.9740   21.9820 C   0  0  0  0  0  0  0  0  0  0  0  0
   10.2990   -2.0340   23.1800 C   0  0  0  0  0  0  0  0  0  0  0  0
    8.6680   -3.0190   23.1320 Br  0  0  0  0  0  0  0  0  0  0  0  0
   10.6090   -1.3250   24.3050 C   0  0  0  0  0  0  0  0  0  0  0  0
   11.4190   -2.5890   23.0810 C   0  0  0  0  0  0  0  0  0  0  0  0
   12.5830   -2.4050   22.5650 C   0  0  0  0  0  0  0  0  0  0  0  0
    7.4020   -0.3870   21.0640 N   0  0  0  0  0  0  0  0  0  0  0  0
    6.5730    0.1840   20.0880 C   0  0  0  0  0  0  0  0  0  0  0  0
    5.4130    0.8990   20.3160 C   0  0  0  0  0  0  0  0  0  0  0  0
    4.6640    1.4490   19.2890 C   0  0  0  0  0  0  0  0  0  0  0  0
    5.1520    1.2390   18.0110 C   0  0  0  0  0  0  0  0  0  0  0  0
    6.2570    0.5490   17.7120 N   0  0  0  0  0  0  0  0  0  0  0  0
    6.9390    0.0370   18.7560 C   0  0  0  0  0  0  0  0  0  0  0  0
  1  2  2  0
  2  3  1  0
  3  4  1  0
  5  4  1  0
  5  6  1  0
  6  7  2  0
  7  8  1  0
  8  9  1  0
  8 10  2  0
 10 11  1  0
 11 12  1  0
  6 13  1  0
 11 13  2  0
  5 14  1  0
  5 15  1  0
 14 15  1  0
  2 16  1  0
 16 17  1  0
 17 18  2  0
 18 19  1  0
 19 20  2  0
 20 21  1  0
 17 22  1  0
 21 22  2  0
M  END
