pyridine_urea_12351
     RDKit          3D

 22 24  0  0  0  0  0  0  0  0999 V2000
    8.5600    1.4760   20.7690 O   0  0  0  0  0  0  0  0  0  0  0  0
    8.0790    0.6660   21.5380 C   0  0  0  0  0  0  0  0  0  0  0  0
    7.1790   -0.2950   21.1460 N   0  0  0  0  0  0  0  0  0  0  0  0
    6.4430    0.2190   20.0370 C   0  0  0  0  0  0  0  0  0  0  0  0
    5.1090    0.9760   20.3120 C   0  0  0  0  0  0  0  0  0  0  0  0
    4.4540    1.4890   19.2100 C   0  0  0  0  0  0  0  0  0  0  0  0
    5.1170    1.2550   17.8530 C   0  0  0  0  0  0  0  0  0  0  0  0
    6.2670    0.5790   17.6710 N   0  0  0  0  0  0  0  0  0  0  0  0
    6.8910    0.0820   18.7490 C   0  0  0  0  0  0  0  0  0  0  0  0
    8.3820    0.6410   22.8440 N   0  0  0  0  0  0  0  0  0  0  0  0
    9.7900    0.5050   22.9710 C   0  0  0  0  0  0  0  0  0  0  0  0
   10.2310   -0.6460   23.5350 C   0  0  0  0  0  0  0  0  0  0  0  0
   11.4970   -0.6380   23.5590 N   0  0  0  0  0  0  0  0  0  0  0  0
   12.1020    0.5550   22.9960 N   0  0  0  0  0  0  0  0  0  0  0  0
   12.7000   -0.5340   23.4960 C   0  0  0  0  0  0  0  0  0  0  0  0
   13.0470   -1.5890   22.4950 C   0  0  0  0  0  0  0  0  0  0  0  0
   13.5470   -2.8090   23.1710 C   0  0  0  0  0  0  0  0  0  0  0  0
   13.6140   -2.7600   24.6960 C   0  0  0  0  0  0  0  0  0  0  0  0
   13.9710   -3.7790   25.4580 F   0  0  0  0  0  0  0  0  0  0  0  0
   13.3150   -1.7150   25.4010 C   0  0  0  0  0  0  0  0  0  0  0  0
   12.8500   -0.6060   24.8300 C   0  0  0  0  0  0  0  0  0  0  0  0
   10.9160    1.2420   22.6630 C   0  0  0  0  0  0  0  0  0  0  0  0
  1  2  2  0
  2  3  1  0
  3  4  1  0
  4  5  2  0
  5  6  1  0
  6  7  2  0
  7  8  1  0
  4  9  1  0
  8  9  2  0
  2 10  1  0
 10 11  1  0
 11 12  1  0
 12 13  2  0
 13 14  1  0
 14 15  1  0
 15 16  2  0
 16 17  1  0
 17 18  2  0
 18 19  1  0
 18 20  1  0
 15 21  1  0
 20 21  2  0
 11 22  2  0
 14 22  1  0
M  END
