pyridine_urea_2905
     RDKit          3D

 22 23  0  0  0  0  0  0  0  0999 V2000
    9.6310    0.4920   24.1340 C   0  0  0  0  0  0  0  0  0  0  0  0
    9.9900    0.0020   22.7200 C   0  0  2  0  0  0  0  0  0  0  0  0
    9.0120   -0.9810   22.3060 N   0  0  0  0  0  0  0  0  0  0  0  0
    8.1310   -0.2430   21.4080 C   0  0  0  0  0  0  0  0  0  0  0  0
    8.3970    0.8730   20.9880 O   0  0  0  0  0  0  0  0  0  0  0  0
    6.8840   -0.9640   21.0430 N   0  0  0  0  0  0  0  0  0  0  0  0
    6.2730   -0.1720   19.9880 C   0  0  0  0  0  0  0  0  0  0  0  0
    4.9730    0.6150   20.2310 C   0  0  0  0  0  0  0  0  0  0  0  0
    4.4590    1.3670   19.1870 C   0  0  0  0  0  0  0  0  0  0  0  0
    5.1640    1.4070   17.8490 C   0  0  0  0  0  0  0  0  0  0  0  0
    6.3200    0.6750   17.6880 N   0  0  0  0  0  0  0  0  0  0  0  0
    6.8600   -0.0940   18.7310 C   0  0  0  0  0  0  0  0  0  0  0  0
   11.3420   -0.6710   22.6380 C   0  0  0  0  0  0  0  0  0  0  0  0
   11.7670   -1.9300   22.4420 C   0  0  0  0  0  0  0  0  0  0  0  0
   13.0520   -1.2150   22.5930 C   0  0  0  0  0  0  0  0  0  0  0  0
   11.7650   -0.0650   22.7290 C   0  0  0  0  0  0  0  0  0  0  0  0
   11.1850    1.2340   22.9050 C   0  0  0  0  0  0  0  0  0  0  0  0
    9.9550    1.5410   22.2990 C   0  0  0  0  0  0  0  0  0  0  0  0
   12.1580    2.3850   22.8760 C   0  0  0  0  0  0  0  0  0  0  0  0
   10.8120    1.2190   24.3420 C   0  0  0  0  0  0  0  0  0  0  0  0
   12.8190    1.0000   22.9330 C   0  0  0  0  0  0  0  0  0  0  0  0
   12.9590   -0.2460   22.7400 C   0  0  0  0  0  0  0  0  0  0  0  0
  2  1  1  1
  2  3  1  0
  3  4  1  0
  4  5  2  0
  4  6  1  0
  6  7  1  0
  7  8  2  0
  8  9  1  0
  9 10  2  0
 10 11  1  0
  7 12  1  0
 11 12  2  0
  2 13  1  0
 13 14  2  0
 14 15  1  0
 15 16  2  0
 16 17  1  0
 17 18  1  0
 17 19  1  0
 17 20  1  0
 16 21  1  0
 13 22  1  0
 21 22  2  0
M  END
