pyridine_urea_10541
     RDKit          3D

 21 23  0  0  0  0  0  0  0  0999 V2000
    9.5230    0.3020   25.6910 C   0  0  0  0  0  0  0  0  0  0  0  0
   10.4620   -0.3190   24.6480 C   0  0  2  0  0  0  0  0  0  0  0  0
   11.8180    0.5020   24.4630 C   0  0  0  0  0  0  0  0  0  0  0  0
   12.7270    0.3610   23.1820 C   0  0  0  0  0  0  0  0  0  0  0  0
   12.3240   -0.7920   22.3860 C   0  0  0  0  0  0  0  0  0  0  0  0
   13.3640   -0.9680   22.0040 O   0  0  0  0  0  0  0  0  0  0  0  0
   12.4830   -1.9920   21.4820 N   0  0  0  0  0  0  0  0  0  0  0  0
   11.2080   -1.5550   22.1170 C   0  0  0  0  0  0  0  0  0  0  0  0
    9.9350   -2.1020   22.0510 C   0  0  0  0  0  0  0  0  0  0  0  0
    9.2250   -1.3570   21.1440 N   0  0  0  0  0  0  0  0  0  0  0  0
    8.3560   -0.2660   21.2940 C   0  0  0  0  0  0  0  0  0  0  0  0
    8.6120    0.9180   21.4690 O   0  0  0  0  0  0  0  0  0  0  0  0
    7.0740   -0.6580   21.1770 N   0  0  0  0  0  0  0  0  0  0  0  0
    6.3900    0.0050   20.2150 C   0  0  0  0  0  0  0  0  0  0  0  0
    5.2060    0.7430   20.3230 C   0  0  0  0  0  0  0  0  0  0  0  0
    4.6230    1.3910   19.2170 C   0  0  0  0  0  0  0  0  0  0  0  0
    5.2230    1.3160   17.9520 C   0  0  0  0  0  0  0  0  0  0  0  0
    6.3450    0.6420   17.7100 N   0  0  0  0  0  0  0  0  0  0  0  0
    6.8900    0.0250   18.7710 C   0  0  0  0  0  0  0  0  0  0  0  0
   11.3620   -0.2990   22.9810 C   0  0  0  0  0  0  0  0  0  0  0  0
   10.0630   -0.4250   23.2350 C   0  0  0  0  0  0  0  0  0  0  0  0
  2  1  1  1
  2  3  1  0
  3  4  1  0
  4  5  1  0
  5  6  1  0
  6  7  1  0
  7  8  2  0
  8  9  1  0
  9 10  1  0
 10 11  1  0
 11 12  2  0
 11 13  1  0
 13 14  1  0
 14 15  2  0
 15 16  1  0
 16 17  2  0
 17 18  1  0
 14 19  1  0
 18 19  2  0
  5 20  2  0
  8 20  1  0
  2 21  1  0
 20 21  1  0
M  END
