pyridine_urea_4491
     RDKit          3D

 23 25  0  0  0  0  0  0  0  0999 V2000
   13.2230   -2.6950   20.9450 C   0  0  0  0  0  0  0  0  0  0  0  0
   13.4080   -3.5400   22.0360 O   0  0  0  0  0  0  0  0  0  0  0  0
   13.4600   -2.9120   23.2870 C   0  0  0  0  0  0  0  0  0  0  0  0
   13.7390   -3.3890   24.3790 O   0  0  0  0  0  0  0  0  0  0  0  0
   13.1470   -1.5810   23.1310 N   0  0  0  0  0  0  0  0  0  0  0  0
   13.5140   -0.9880   24.2000 C   0  0  0  0  0  0  0  0  0  0  0  0
   12.4470   -0.9450   25.1630 C   0  0  0  0  0  0  0  0  0  0  0  0
   11.3720   -0.7480   24.2150 C   0  0  0  0  0  0  0  0  0  0  0  0
   10.0000   -0.2280   24.3710 C   0  0  0  0  0  0  0  0  0  0  0  0
    9.2200   -0.2510   23.0630 C   0  0  0  0  0  0  0  0  0  0  0  0
    7.9070    0.1730   22.8840 N   0  0  0  0  0  0  0  0  0  0  0  0
    7.7800    0.4670   21.5450 C   0  0  0  0  0  0  0  0  0  0  0  0
    8.4230    1.3650   20.9780 O   0  0  0  0  0  0  0  0  0  0  0  0
    6.8970   -0.3710   20.9980 N   0  0  0  0  0  0  0  0  0  0  0  0
    6.3530    0.1790   19.9250 C   0  0  0  0  0  0  0  0  0  0  0  0
    5.2280    0.9540   20.1470 C   0  0  0  0  0  0  0  0  0  0  0  0
    4.5970    1.5950   19.1180 C   0  0  0  0  0  0  0  0  0  0  0  0
    5.1220    1.4370   17.8660 C   0  0  0  0  0  0  0  0  0  0  0  0
    6.2170    0.6770   17.5900 N   0  0  0  0  0  0  0  0  0  0  0  0
    6.9090   -0.0180   18.6720 C   0  0  0  0  0  0  0  0  0  0  0  0
    9.9720   -0.7970   21.8310 C   0  0  0  0  0  0  0  0  0  0  0  0
   11.3320   -1.2580   21.8750 C   0  0  0  0  0  0  0  0  0  0  0  0
   11.8840   -1.1800   23.0400 C   0  0  0  0  0  0  0  0  0  0  0  0
  1  2  1  0
  2  3  1  0
  3  4  2  0
  3  5  1  0
  5  6  1  0
  6  7  1  0
  7  8  1  0
  8  9  2  0
  9 10  1  0
 10 11  1  0
 11 12  1  0
 12 13  2  0
 12 14  1  0
 14 15  1  0
 15 16  2  0
 16 17  1  0
 17 18  2  0
 18 19  1  0
 15 20  1  0
 19 20  2  0
 10 21  2  0
 21 22  1  0
  5 23  1  0
  8 23  1  0
 22 23  2  0
M  END
