pyridine_urea_5338
     RDKit          3D

 19 20  0  0  0  0  0  0  0  0999 V2000
    8.9170    0.7230   21.3650 O   0  0  0  0  0  0  0  0  0  0  0  0
    8.3530   -0.3350   21.6040 C   0  0  0  0  0  0  0  0  0  0  0  0
    8.7570   -1.3090   22.4890 N   0  0  0  0  0  0  0  0  0  0  0  0
    7.9140   -2.0090   23.3920 C   0  0  0  0  0  0  0  0  0  0  0  0
    8.0430   -3.4020   23.4890 C   0  0  0  0  0  0  0  0  0  0  0  0
    9.2330   -3.6500   23.5750 O   0  0  0  0  0  0  0  0  0  0  0  0
    7.0230   -4.3380   23.5080 N   0  0  0  0  0  0  0  0  0  0  0  0
    7.0950   -5.5940   22.8600 C   0  0  0  0  0  0  0  0  0  0  0  0
    5.8540   -6.1490   22.5880 C   0  0  0  0  0  0  0  0  0  0  0  0
    4.6700   -5.3870   23.1720 C   0  0  0  0  0  0  0  0  0  0  0  0
    5.0280   -4.0690   23.4420 C   0  0  0  0  0  0  0  0  0  0  0  0
    6.1310   -4.0050   24.5140 C   0  0  0  0  0  0  0  0  0  0  0  0
    7.1650   -0.6970   21.0000 N   0  0  0  0  0  0  0  0  0  0  0  0
    6.4600   -0.0070   20.0730 C   0  0  0  0  0  0  0  0  0  0  0  0
    5.2960    0.7230   20.3340 C   0  0  0  0  0  0  0  0  0  0  0  0
    4.6710    1.3940   19.2770 C   0  0  0  0  0  0  0  0  0  0  0  0
    5.2540    1.2890   18.0240 C   0  0  0  0  0  0  0  0  0  0  0  0
    6.3580    0.6020   17.7300 N   0  0  0  0  0  0  0  0  0  0  0  0
    6.9350   -0.0340   18.7670 C   0  0  0  0  0  0  0  0  0  0  0  0
  1  2  2  0
  2  3  1  0
  3  4  1  0
  4  5  1  0
  5  6  2  0
  5  7  1  0
  7  8  1  0
  8  9  1  0
  9 10  1  0
 10 11  1  0
  7 12  1  0
 11 12  1  0
  2 13  1  0
 13 14  1  0
 14 15  2  0
 15 16  1  0
 16 17  2  0
 17 18  1  0
 14 19  1  0
 18 19  2  0
M  END
