pyridine_urea_9806
     RDKit          3D

 26 28  0  0  0  0  0  0  0  0999 V2000
   13.8530   -1.1190   21.9250 O   0  0  0  0  0  0  0  0  0  0  0  0
   13.6070   -0.6400   23.0150 C   0  0  0  0  0  0  0  0  0  0  0  0
   13.3700   -1.5780   24.2070 C   0  0  0  0  0  0  0  0  0  0  0  0
   12.5960   -2.6060   23.6140 N   0  0  0  0  0  0  0  0  0  0  0  0
   12.9370   -2.5010   22.3320 C   0  0  0  0  0  0  0  0  0  0  0  0
   11.6330   -2.3130   21.6020 C   0  0  0  0  0  0  0  0  0  0  0  0
   10.5430   -2.9910   22.2960 O   0  0  0  0  0  0  0  0  0  0  0  0
   10.3830   -2.8270   23.7440 C   0  0  0  0  0  0  0  0  0  0  0  0
   11.6800   -2.8710   24.5420 C   0  0  0  0  0  0  0  0  0  0  0  0
   13.4160    0.6710   23.1610 N   0  0  0  0  0  0  0  0  0  0  0  0
   12.1280    0.7410   22.9840 C   0  0  0  0  0  0  0  0  0  0  0  0
   11.3330    1.8390   23.0770 C   0  0  0  0  0  0  0  0  0  0  0  0
    9.9770    1.6860   22.8650 C   0  0  0  0  0  0  0  0  0  0  0  0
    9.4680    0.4380   22.5480 C   0  0  0  0  0  0  0  0  0  0  0  0
    8.2050    0.1570   22.2960 N   0  0  0  0  0  0  0  0  0  0  0  0
    7.9330    0.6210   21.0680 C   0  0  0  0  0  0  0  0  0  0  0  0
    8.9810    1.5620   21.1980 O   0  0  0  0  0  0  0  0  0  0  0  0
    7.0080   -0.3250   21.1510 N   0  0  0  0  0  0  0  0  0  0  0  0
    6.3970    0.1040   20.0610 C   0  0  0  0  0  0  0  0  0  0  0  0
    5.1420    0.8660   20.3210 C   0  0  0  0  0  0  0  0  0  0  0  0
    4.4930    1.3920   19.2230 C   0  0  0  0  0  0  0  0  0  0  0  0
    5.0660    1.1770   17.8820 C   0  0  0  0  0  0  0  0  0  0  0  0
    6.1560    0.4970   17.6290 N   0  0  0  0  0  0  0  0  0  0  0  0
    6.8690   -0.0770   18.7700 C   0  0  0  0  0  0  0  0  0  0  0  0
   10.2100   -0.6820   22.4310 C   0  0  0  0  0  0  0  0  0  0  0  0
   11.5310   -0.5560   22.6470 C   0  0  0  0  0  0  0  0  0  0  0  0
  1  2  2  0
  2  3  1  0
  3  4  1  0
  4  5  1  0
  5  6  1  0
  6  7  1  0
  7  8  1  0
  4  9  1  0
  8  9  1  0
  2 10  1  0
 10 11  1  0
 11 12  2  0
 12 13  1  0
 13 14  2  0
 14 15  1  0
 15 16  1  0
 16 17  2  0
 16 18  1  0
 18 19  1  0
 19 20  2  0
 20 21  1  0
 21 22  2  0
 22 23  1  0
 19 24  1  0
 23 24  2  0
 14 25  1  0
 11 26  1  0
 25 26  2  0
M  END
