pyridine_urea_11552
     RDKit          3D

 17 17  0  0  0  0  0  0  0  0999 V2000
    9.9140    1.6100   23.5700 C   0  0  0  0  0  0  0  0  0  0  0  0
   10.6360    0.3530   23.9630 C   0  0  2  0  0  0  0  0  0  0  0  0
    9.9210   -0.0890   25.1350 O   0  0  0  0  0  0  0  0  0  0  0  0
   12.0120    0.4340   24.1430 C   0  0  0  0  0  0  0  0  0  0  0  0
   12.8350   -0.1200   23.1760 C   0  0  0  0  0  0  0  0  0  0  0  0
   13.2330   -1.5030   23.1940 O   0  0  0  0  0  0  0  0  0  0  0  0
   10.3370   -0.7100   22.8730 C   0  0  0  0  0  0  0  0  0  0  0  0
    8.9480   -0.8480   22.4910 N   0  0  0  0  0  0  0  0  0  0  0  0
    8.4550    0.0210   21.5540 C   0  0  0  0  0  0  0  0  0  0  0  0
    9.0000    1.0990   21.2640 O   0  0  0  0  0  0  0  0  0  0  0  0
    7.2220   -0.4940   20.9940 N   0  0  0  0  0  0  0  0  0  0  0  0
    6.5410    0.0810   19.9940 C   0  0  0  0  0  0  0  0  0  0  0  0
    5.2660    0.8710   20.2630 C   0  0  0  0  0  0  0  0  0  0  0  0
    4.5860    1.4770   19.2400 C   0  0  0  0  0  0  0  0  0  0  0  0
    5.1130    1.3350   17.9600 C   0  0  0  0  0  0  0  0  0  0  0  0
    6.2350    0.6340   17.6770 N   0  0  0  0  0  0  0  0  0  0  0  0
    6.9190    0.0280   18.6750 C   0  0  0  0  0  0  0  0  0  0  0  0
  2  1  1  6
  2  3  1  0
  2  4  1  0
  4  5  1  0
  5  6  1  0
  2  7  1  0
  7  8  1  0
  8  9  1  0
  9 10  2  0
  9 11  1  0
 11 12  1  0
 12 13  2  0
 13 14  1  0
 14 15  2  0
 15 16  1  0
 12 17  1  0
 16 17  2  0
M  END
