pyridine_urea_2966
     RDKit          3D

 21 22  0  0  0  0  0  0  0  0999 V2000
    8.7560   -0.7710   24.6160 C   0  0  0  0  0  0  0  0  0  0  0  0
   10.1590   -0.2170   24.3630 C   0  0  0  0  0  0  0  0  0  0  0  0
   10.9820   -0.6250   25.5660 C   0  0  0  0  0  0  0  0  0  0  0  0
   10.9550   -0.9880   23.3330 C   0  0  1  0  0  0  0  0  0  0  0  0
   10.1360   -1.2810   22.1030 C   0  0  0  0  0  0  0  0  0  0  0  0
    8.9000   -0.7730   22.3320 N   0  0  0  0  0  0  0  0  0  0  0  0
    8.2710    0.1210   21.4970 C   0  0  0  0  0  0  0  0  0  0  0  0
    8.8290    1.1880   21.1930 O   0  0  0  0  0  0  0  0  0  0  0  0
    7.0320   -0.3580   21.0940 N   0  0  0  0  0  0  0  0  0  0  0  0
    6.3980    0.2350   19.9440 C   0  0  0  0  0  0  0  0  0  0  0  0
    5.1200    0.9990   20.3000 C   0  0  0  0  0  0  0  0  0  0  0  0
    4.4610    1.6610   19.1030 C   0  0  0  0  0  0  0  0  0  0  0  0
    5.1390    1.4790   17.7700 C   0  0  0  0  0  0  0  0  0  0  0  0
    6.2750    0.7570   17.5900 N   0  0  0  0  0  0  0  0  0  0  0  0
    6.8910    0.1460   18.6600 C   0  0  0  0  0  0  0  0  0  0  0  0
   12.1140   -0.2690   23.0300 C   0  0  0  0  0  0  0  0  0  0  0  0
   12.3470    1.0140   23.4900 C   0  0  0  0  0  0  0  0  0  0  0  0
   12.9610    0.1570   22.7640 C   0  0  0  0  0  0  0  0  0  0  0  0
   12.0550   -1.0060   22.7150 C   0  0  0  0  0  0  0  0  0  0  0  0
   12.5260   -1.9270   22.0340 N   0  0  0  0  0  0  0  0  0  0  0  0
   13.3030   -0.7630   22.1520 C   0  0  0  0  0  0  0  0  0  0  0  0
  1  2  1  0
  2  3  1  0
  2  4  1  0
  4  5  1  6
  5  6  1  0
  6  7  1  0
  7  8  2  0
  7  9  1  0
  9 10  1  0
 10 11  2  0
 11 12  1  0
 12 13  2  0
 13 14  1  0
 10 15  1  0
 14 15  2  0
  4 16  1  0
 16 17  2  0
 17 18  1  0
 18 19  2  0
 19 20  1  0
 16 21  1  0
 20 21  2  0
M  END
