pyridine_urea_5238
     RDKit          3D

 19 20  0  0  0  0  0  0  0  0999 V2000
    8.7630    1.2870   21.1290 O   0  0  0  0  0  0  0  0  0  0  0  0
    8.3910    0.1180   21.2800 C   0  0  0  0  0  0  0  0  0  0  0  0
    9.1430   -0.9370   21.6590 N   0  0  0  0  0  0  0  0  0  0  0  0
    9.6780   -1.0960   22.9350 C   0  0  0  0  0  0  0  0  0  0  0  0
   10.9600   -1.5880   22.9780 C   0  0  0  0  0  0  0  0  0  0  0  0
   11.6600   -1.8660   21.8150 C   0  0  0  0  0  0  0  0  0  0  0  0
   12.9290   -2.3580   21.8350 C   0  0  0  0  0  0  0  0  0  0  0  0
   13.6180   -2.6260   22.9310 N   0  0  0  0  0  0  0  0  0  0  0  0
   12.9610   -2.3570   24.0450 C   0  0  0  0  0  0  0  0  0  0  0  0
   13.7880   -2.6750   25.5020 Cl  0  0  0  0  0  0  0  0  0  0  0  0
   11.6890   -1.8560   24.0950 C   0  0  0  0  0  0  0  0  0  0  0  0
   11.2060   -1.6460   25.2980 F   0  0  0  0  0  0  0  0  0  0  0  0
    7.1060   -0.2760   21.0320 N   0  0  0  0  0  0  0  0  0  0  0  0
    6.3760    0.2660   20.0560 C   0  0  0  0  0  0  0  0  0  0  0  0
    5.1830    0.9590   20.2390 C   0  0  0  0  0  0  0  0  0  0  0  0
    4.5440    1.4920   19.1410 C   0  0  0  0  0  0  0  0  0  0  0  0
    5.1210    1.3150   17.8900 C   0  0  0  0  0  0  0  0  0  0  0  0
    6.2580    0.6430   17.6840 N   0  0  0  0  0  0  0  0  0  0  0  0
    6.8530    0.1360   18.7670 C   0  0  0  0  0  0  0  0  0  0  0  0
  1  2  2  0
  2  3  1  0
  3  4  1  0
  4  5  1  0
  5  6  2  0
  6  7  1  0
  7  8  2  0
  8  9  1  0
  9 10  1  0
  5 11  1  0
  9 11  2  0
 11 12  1  0
  2 13  1  0
 13 14  1  0
 14 15  2  0
 15 16  1  0
 16 17  2  0
 17 18  1  0
 14 19  1  0
 18 19  2  0
M  END
