pyridine_urea_8844
     RDKit          3D

 20 21  0  0  0  0  0  0  0  0999 V2000
    6.5320   -1.9510   24.5300 C   0  0  0  0  0  0  0  0  0  0  0  0
    8.0490   -2.2420   24.4220 C   0  0  0  0  0  0  0  0  0  0  0  0
    8.8220   -1.0680   25.0440 C   0  0  0  0  0  0  0  0  0  0  0  0
    8.4390   -2.4080   22.9230 C   0  0  0  0  0  0  0  0  0  0  0  0
    9.1270   -1.2510   22.3480 N   0  0  0  0  0  0  0  0  0  0  0  0
    8.5050   -0.2870   21.5620 C   0  0  0  0  0  0  0  0  0  0  0  0
    8.9940    0.8220   21.4030 O   0  0  0  0  0  0  0  0  0  0  0  0
    7.3090   -0.7230   21.0210 N   0  0  0  0  0  0  0  0  0  0  0  0
    6.5270   -0.0310   20.0700 C   0  0  0  0  0  0  0  0  0  0  0  0
    5.3390    0.6560   20.3250 C   0  0  0  0  0  0  0  0  0  0  0  0
    4.6660    1.3080   19.2810 C   0  0  0  0  0  0  0  0  0  0  0  0
    5.2120    1.2560   18.0170 C   0  0  0  0  0  0  0  0  0  0  0  0
    6.3490    0.5980   17.7430 N   0  0  0  0  0  0  0  0  0  0  0  0
    6.9680   -0.0210   18.7610 C   0  0  0  0  0  0  0  0  0  0  0  0
    8.3330   -3.5310   25.2550 C   0  0  0  0  0  0  0  0  0  0  0  0
    7.5690   -3.7650   26.5120 C   0  0  0  0  0  0  0  0  0  0  0  0
    7.7280   -4.8230   27.3140 N   0  0  0  0  0  0  0  0  0  0  0  0
    8.6770   -5.7060   26.8910 C   0  0  0  0  0  0  0  0  0  0  0  0
    9.4080   -5.4760   25.6800 C   0  0  0  0  0  0  0  0  0  0  0  0
    9.2520   -4.4190   24.8670 N   0  0  0  0  0  0  0  0  0  0  0  0
  2  1  1  0
  2  3  1  0
  2  4  1  0
  4  5  1  0
  5  6  1  0
  6  7  2  0
  6  8  1  0
  8  9  1  0
  9 10  2  0
 10 11  1  0
 11 12  2  0
 12 13  1  0
  9 14  1  0
 13 14  2  0
  2 15  1  0
 15 16  2  0
 16 17  1  0
 17 18  2  0
 18 19  1  0
 15 20  1  0
 19 20  2  0
M  END
