pyridine_urea_2478
     RDKit          3D

 24 26  0  0  0  0  0  0  0  0999 V2000
    8.7310    1.3730   21.1160 O   0  0  0  0  0  0  0  0  0  0  0  0
    8.0510    0.4790   21.6290 C   0  0  0  0  0  0  0  0  0  0  0  0
    7.0950   -0.2830   21.0350 N   0  0  0  0  0  0  0  0  0  0  0  0
    6.4330    0.2480   19.9560 C   0  0  0  0  0  0  0  0  0  0  0  0
    5.2640    0.9660   20.1910 C   0  0  0  0  0  0  0  0  0  0  0  0
    4.5940    1.5410   19.1230 C   0  0  0  0  0  0  0  0  0  0  0  0
    5.1270    1.3690   17.8700 C   0  0  0  0  0  0  0  0  0  0  0  0
    6.2430    0.6700   17.6220 N   0  0  0  0  0  0  0  0  0  0  0  0
    6.8720    0.1250   18.6690 C   0  0  0  0  0  0  0  0  0  0  0  0
    8.1910    0.1410   22.9290 N   0  0  0  0  0  0  0  0  0  0  0  0
    9.5590   -0.1730   23.2020 C   0  0  0  0  0  0  0  0  0  0  0  0
   10.1760    0.0570   24.5640 C   0  0  0  0  0  0  0  0  0  0  0  0
   11.4980   -0.3260   24.5930 C   0  0  0  0  0  0  0  0  0  0  0  0
   12.2740   -0.2770   25.6500 F   0  0  0  0  0  0  0  0  0  0  0  0
   12.0900   -0.8050   23.5350 C   0  0  0  0  0  0  0  0  0  0  0  0
   13.3590   -1.1040   23.8050 N   0  0  0  0  0  0  0  0  0  0  0  0
   13.4850   -1.5530   22.5880 C   0  0  0  0  0  0  0  0  0  0  0  0
   13.3180   -2.8540   22.5320 C   0  0  0  0  0  0  0  0  0  0  0  0
   12.3770   -3.2300   23.2160 O   0  0  0  0  0  0  0  0  0  0  0  0
   12.4420   -2.8090   24.5600 C   0  0  0  0  0  0  0  0  0  0  0  0
   13.4540   -1.9500   24.8810 C   0  0  0  0  0  0  0  0  0  0  0  0
   11.5940   -1.0420   22.2880 C   0  0  0  0  0  0  0  0  0  0  0  0
   12.3630   -1.5880   21.3040 F   0  0  0  0  0  0  0  0  0  0  0  0
   10.3080   -0.7430   22.0380 C   0  0  0  0  0  0  0  0  0  0  0  0
  1  2  2  0
  2  3  1  0
  3  4  1  0
  4  5  2  0
  5  6  1  0
  6  7  2  0
  7  8  1  0
  4  9  1  0
  8  9  2  0
  2 10  1  0
 10 11  1  0
 11 12  2  0
 12 13  1  0
 13 14  1  0
 13 15  2  0
 15 16  1  0
 16 17  1  0
 17 18  1  0
 18 19  1  0
 19 20  1  0
 16 21  1  0
 20 21  1  0
 15 22  1  0
 22 23  1  0
 11 24  1  0
 22 24  2  0
M  END
