pyridine_urea_7190
     RDKit          3D

 19 20  0  0  0  0  0  0  0  0999 V2000
   13.2230   -2.1970   21.2160 C   0  0  0  0  0  0  0  0  0  0  0  0
   11.7540   -2.3130   21.4430 C   0  0  0  0  0  0  0  0  0  0  0  0
   11.1440   -1.0560   21.6000 O   0  0  0  0  0  0  0  0  0  0  0  0
   10.8110   -0.7680   22.8550 C   0  0  0  0  0  0  0  0  0  0  0  0
    9.6390   -1.3740   23.2430 C   0  0  0  0  0  0  0  0  0  0  0  0
    8.4980   -0.4990   22.9510 N   0  0  0  0  0  0  0  0  0  0  0  0
    8.2140    0.0160   21.6700 C   0  0  0  0  0  0  0  0  0  0  0  0
    8.8700    1.1990   21.1620 O   0  0  0  0  0  0  0  0  0  0  0  0
    7.2650   -0.7030   21.0250 N   0  0  0  0  0  0  0  0  0  0  0  0
    6.6070   -0.0580   20.0370 C   0  0  0  0  0  0  0  0  0  0  0  0
    5.3330    0.7750   20.2780 C   0  0  0  0  0  0  0  0  0  0  0  0
    4.6470    1.4540   19.2740 C   0  0  0  0  0  0  0  0  0  0  0  0
    5.1770    1.3530   17.9870 C   0  0  0  0  0  0  0  0  0  0  0  0
    6.3080    0.6110   17.7440 N   0  0  0  0  0  0  0  0  0  0  0  0
    7.0180   -0.0860   18.7280 C   0  0  0  0  0  0  0  0  0  0  0  0
   10.7450    0.6170   23.0690 C   0  0  0  0  0  0  0  0  0  0  0  0
   11.9670    1.1950   23.6260 C   0  0  0  0  0  0  0  0  0  0  0  0
   12.6850    0.0710   23.9730 C   0  0  0  0  0  0  0  0  0  0  0  0
   11.9410   -1.0370   23.6470 C   0  0  0  0  0  0  0  0  0  0  0  0
  1  2  1  0
  2  3  1  0
  4  3  1  0
  4  5  1  0
  5  6  1  0
  6  7  1  0
  7  8  2  0
  7  9  1  0
  9 10  1  0
 10 11  2  0
 11 12  1  0
 12 13  2  0
 13 14  1  0
 10 15  1  0
 14 15  2  0
  4 16  1  0
 16 17  1  0
 17 18  1  0
  4 19  1  0
 18 19  1  0
M  END
