pyridine_urea_9240
     RDKit          3D

 18 19  0  0  0  0  0  0  0  0999 V2000
    4.9480   -6.5450   23.4650 C   0  0  0  0  0  0  0  0  0  0  0  0
    5.3460   -5.4630   24.4390 C   0  0  0  0  0  0  0  0  0  0  0  0
    6.3130   -4.5140   24.0960 C   0  0  0  0  0  0  0  0  0  0  0  0
    6.4630   -3.2600   24.6580 C   0  0  0  0  0  0  0  0  0  0  0  0
    7.4780   -2.4480   24.1900 N   0  0  0  0  0  0  0  0  0  0  0  0
    8.1530   -3.1300   23.2030 C   0  0  0  0  0  0  0  0  0  0  0  0
    9.2290   -2.4470   22.6120 C   0  0  0  0  0  0  0  0  0  0  0  0
    8.8810   -1.0220   22.5750 N   0  0  0  0  0  0  0  0  0  0  0  0
    8.2770   -0.2870   21.5870 C   0  0  0  0  0  0  0  0  0  0  0  0
    8.8050    0.7760   21.2820 O   0  0  0  0  0  0  0  0  0  0  0  0
    7.1370   -0.7990   21.0530 N   0  0  0  0  0  0  0  0  0  0  0  0
    6.5250   -0.1090   20.0490 C   0  0  0  0  0  0  0  0  0  0  0  0
    5.3850    0.6360   20.3330 C   0  0  0  0  0  0  0  0  0  0  0  0
    4.7440    1.3540   19.3180 C   0  0  0  0  0  0  0  0  0  0  0  0
    5.2710    1.3000   18.0400 C   0  0  0  0  0  0  0  0  0  0  0  0
    6.3650    0.5890   17.7390 N   0  0  0  0  0  0  0  0  0  0  0  0
    6.9650   -0.0980   18.7380 C   0  0  0  0  0  0  0  0  0  0  0  0
    7.5370   -4.7260   22.8780 S   0  0  0  0  0  0  0  0  0  0  0  0
  1  2  1  0
  2  3  1  0
  3  4  2  0
  4  5  1  0
  5  6  2  0
  6  7  1  0
  7  8  1  0
  8  9  1  0
  9 10  2  0
  9 11  1  0
 11 12  1  0
 12 13  2  0
 13 14  1  0
 14 15  2  0
 15 16  1  0
 12 17  1  0
 16 17  2  0
  3 18  1  0
  6 18  1  0
M  END
