pyridine_urea_817
     RDKit          3D

 23 25  0  0  0  0  0  0  0  0999 V2000
    9.8820    0.0130   25.0540 C   0  0  0  0  0  0  0  0  0  0  0  0
   11.0280   -0.1590   24.0650 C   0  0  0  0  0  0  0  0  0  0  0  0
   10.9710   -1.3890   23.3210 C   0  0  0  0  0  0  0  0  0  0  0  0
   11.9250   -1.8080   22.3170 C   0  0  0  0  0  0  0  0  0  0  0  0
   13.0090   -0.9860   22.0180 C   0  0  0  0  0  0  0  0  0  0  0  0
   12.9270    0.2140   22.8390 C   0  0  0  0  0  0  0  0  0  0  0  0
   11.7790   -0.7110   23.1700 C   0  0  0  0  0  0  0  0  0  0  0  0
   10.4220    0.0190   22.9090 C   0  0  0  0  0  0  0  0  0  0  0  0
    9.3670   -0.7090   22.2080 N   0  0  0  0  0  0  0  0  0  0  0  0
    8.5580    0.1020   21.4360 C   0  0  0  0  0  0  0  0  0  0  0  0
    8.8990    1.2540   21.1400 O   0  0  0  0  0  0  0  0  0  0  0  0
    7.3770   -0.4900   21.0500 N   0  0  0  0  0  0  0  0  0  0  0  0
    6.6050    0.0820   20.0370 C   0  0  0  0  0  0  0  0  0  0  0  0
    5.4370    0.7800   20.3640 C   0  0  0  0  0  0  0  0  0  0  0  0
    4.6920    1.3620   19.3510 C   0  0  0  0  0  0  0  0  0  0  0  0
    5.1320    1.2320   18.0500 C   0  0  0  0  0  0  0  0  0  0  0  0
    6.2370    0.5630   17.7120 N   0  0  0  0  0  0  0  0  0  0  0  0
    6.9450    0.0040   18.7090 C   0  0  0  0  0  0  0  0  0  0  0  0
   12.0170   -0.9200   24.6730 C   0  0  0  0  0  0  0  0  0  0  0  0
   12.9460   -1.9430   24.6760 C   0  0  0  0  0  0  0  0  0  0  0  0
   12.6340   -2.8050   23.6570 C   0  0  0  0  0  0  0  0  0  0  0  0
   11.8890   -2.1810   22.6310 C   0  0  0  0  0  0  0  0  0  0  0  0
   12.1070    0.7370   23.8000 C   0  0  0  0  0  0  0  0  0  0  0  0
  1  2  1  0
  2  3  2  0
  3  4  1  0
  4  5  2  0
  5  6  1  0
  6  7  1  0
  7  8  1  0
  8  9  1  0
  9 10  1  0
 10 11  2  0
 10 12  1  0
 12 13  1  0
 13 14  2  0
 14 15  1  0
 15 16  2  0
 16 17  1  0
 13 18  1  0
 17 18  2  0
  7 19  1  0
 19 20  1  0
 20 21  1  0
  7 22  1  0
 21 22  1  0
  2 23  1  0
  6 23  2  0
M  END
