pyridine_urea_8367
     RDKit          3D

 22 24  0  0  0  0  0  0  0  0999 V2000
    8.7580    1.5010   20.8440 O   0  0  0  0  0  0  0  0  0  0  0  0
    8.1870    0.6000   21.4320 C   0  0  0  0  0  0  0  0  0  0  0  0
    7.3540   -0.3390   20.8890 N   0  0  0  0  0  0  0  0  0  0  0  0
    6.5430    0.2380   19.8910 C   0  0  0  0  0  0  0  0  0  0  0  0
    5.2280    0.9730   20.2860 C   0  0  0  0  0  0  0  0  0  0  0  0
    4.5140    1.5380   19.2480 C   0  0  0  0  0  0  0  0  0  0  0  0
    5.1070    1.3690   17.8490 C   0  0  0  0  0  0  0  0  0  0  0  0
    6.2420    0.7070   17.5770 N   0  0  0  0  0  0  0  0  0  0  0  0
    6.9190    0.1680   18.5930 C   0  0  0  0  0  0  0  0  0  0  0  0
    8.2580    0.4110   22.7260 N   0  0  0  0  0  0  0  0  0  0  0  0
    9.4720   -0.1120   23.2140 C   0  0  0  0  0  0  0  0  0  0  0  0
   10.3910   -0.7950   22.2180 C   0  0  0  0  0  0  0  0  0  0  0  0
   11.6310   -1.3590   22.8460 C   0  0  0  0  0  0  0  0  0  0  0  0
   11.8170   -1.1860   24.3610 C   0  0  0  0  0  0  0  0  0  0  0  0
   10.8450   -0.4650   25.2420 C   0  0  0  0  0  0  0  0  0  0  0  0
    9.6700    0.0490   24.5490 C   0  0  0  0  0  0  0  0  0  0  0  0
    8.7870    0.6870   25.3550 F   0  0  0  0  0  0  0  0  0  0  0  0
   12.9050   -1.7370   24.9480 C   0  0  0  0  0  0  0  0  0  0  0  0
   13.6900   -2.2750   24.0020 C   0  0  0  0  0  0  0  0  0  0  0  0
   13.1790   -2.9180   22.9740 N   0  0  0  0  0  0  0  0  0  0  0  0
   12.6060   -2.0530   22.1550 C   0  0  0  0  0  0  0  0  0  0  0  0
   12.9730   -1.8710   20.8000 O   0  0  0  0  0  0  0  0  0  0  0  0
  1  2  2  0
  2  3  1  0
  3  4  1  0
  4  5  2  0
  5  6  1  0
  6  7  2  0
  7  8  1  0
  4  9  1  0
  8  9  2  0
  2 10  1  0
 10 11  1  0
 11 12  2  0
 12 13  1  0
 13 14  2  0
 14 15  1  0
 11 16  1  0
 15 16  2  0
 16 17  1  0
 14 18  1  0
 18 19  1  0
 19 20  1  0
 13 21  1  0
 20 21  1  0
 21 22  2  0
M  END
