pyridine_urea_5281
     RDKit          3D

 19 20  0  0  0  0  0  0  0  0999 V2000
    8.6810    1.3170   21.0690 O   0  0  0  0  0  0  0  0  0  0  0  0
    8.2660    0.2150   21.4530 C   0  0  0  0  0  0  0  0  0  0  0  0
    8.8230   -0.5470   22.4140 N   0  0  0  0  0  0  0  0  0  0  0  0
   10.1900   -0.7020   22.5030 C   0  0  0  0  0  0  0  0  0  0  0  0
   10.8900    0.2550   23.2400 C   0  0  0  0  0  0  0  0  0  0  0  0
   11.7030   -0.4550   24.0790 C   0  0  0  0  0  0  0  0  0  0  0  0
   11.3210   -0.6580   25.2420 N   0  0  0  0  0  0  0  0  0  0  0  0
   12.4830   -1.0800   24.6390 C   0  0  0  0  0  0  0  0  0  0  0  0
   11.8030   -0.1970   23.2310 C   0  0  0  0  0  0  0  0  0  0  0  0
   12.9610   -0.6430   22.6780 C   0  0  0  0  0  0  0  0  0  0  0  0
   13.0190   -1.1130   23.8780 C   0  0  0  0  0  0  0  0  0  0  0  0
   13.8510   -1.8520   24.6120 F   0  0  0  0  0  0  0  0  0  0  0  0
    7.1510   -0.3890   20.9410 N   0  0  0  0  0  0  0  0  0  0  0  0
    6.4120    0.2010   20.0040 C   0  0  0  0  0  0  0  0  0  0  0  0
    5.2360    0.8870   20.2340 C   0  0  0  0  0  0  0  0  0  0  0  0
    4.5800    1.4760   19.1560 C   0  0  0  0  0  0  0  0  0  0  0  0
    5.1470    1.3430   17.8890 C   0  0  0  0  0  0  0  0  0  0  0  0
    6.2780    0.6720   17.6550 N   0  0  0  0  0  0  0  0  0  0  0  0
    6.8800    0.1170   18.7120 C   0  0  0  0  0  0  0  0  0  0  0  0
  1  2  2  0
  2  3  1  0
  3  4  1  0
  4  5  1  0
  5  6  1  0
  6  7  2  0
  7  8  1  0
  8  9  2  0
  9 10  1  0
  6 11  1  0
 10 11  2  0
 11 12  1  0
  2 13  1  0
 13 14  1  0
 14 15  2  0
 15 16  1  0
 16 17  2  0
 17 18  1  0
 14 19  1  0
 18 19  2  0
M  END
