pyridine_urea_2473
     RDKit          3D

 24 26  0  0  0  0  0  0  0  0999 V2000
    8.6360    1.3300   21.1210 O   0  0  0  0  0  0  0  0  0  0  0  0
    8.1340    0.3030   21.6000 C   0  0  0  0  0  0  0  0  0  0  0  0
    7.0880   -0.3950   21.0800 N   0  0  0  0  0  0  0  0  0  0  0  0
    6.4180    0.1530   20.0040 C   0  0  0  0  0  0  0  0  0  0  0  0
    5.2630    0.8920   20.2520 C   0  0  0  0  0  0  0  0  0  0  0  0
    4.5880    1.4780   19.1940 C   0  0  0  0  0  0  0  0  0  0  0  0
    5.1010    1.3010   17.9300 C   0  0  0  0  0  0  0  0  0  0  0  0
    6.2000    0.5890   17.6670 N   0  0  0  0  0  0  0  0  0  0  0  0
    6.8370    0.0270   18.7030 C   0  0  0  0  0  0  0  0  0  0  0  0
    8.6230   -0.2450   22.7430 N   0  0  0  0  0  0  0  0  0  0  0  0
   10.0460   -0.0050   22.8150 C   0  0  0  0  0  0  0  0  0  0  0  0
   10.4760    1.4410   22.8180 C   0  0  0  0  0  0  0  0  0  0  0  0
   11.8490    1.7080   22.8560 C   0  0  0  0  0  0  0  0  0  0  0  0
   12.7220    0.6380   22.8840 C   0  0  0  0  0  0  0  0  0  0  0  0
   13.9120    0.7960   22.8960 O   0  0  0  0  0  0  0  0  0  0  0  0
   12.2920   -0.6730   22.8890 C   0  0  0  0  0  0  0  0  0  0  0  0
   13.1420   -1.7110   22.9130 C   0  0  0  0  0  0  0  0  0  0  0  0
   12.6640   -2.5520   21.9770 N   0  0  0  0  0  0  0  0  0  0  0  0
   13.3580   -2.5880   20.8860 C   0  0  0  0  0  0  0  0  0  0  0  0
   13.7990   -3.8350   20.4880 C   0  0  0  0  0  0  0  0  0  0  0  0
   12.6310   -4.4150   20.5200 O   0  0  0  0  0  0  0  0  0  0  0  0
   11.5940   -3.4080   20.4390 C   0  0  0  0  0  0  0  0  0  0  0  0
   11.4510   -2.4770   21.5140 C   0  0  0  0  0  0  0  0  0  0  0  0
   10.9580   -0.9930   22.8560 C   0  0  0  0  0  0  0  0  0  0  0  0
  1  2  2  0
  2  3  1  0
  3  4  1  0
  4  5  2  0
  5  6  1  0
  6  7  2  0
  7  8  1  0
  4  9  1  0
  8  9  2  0
  2 10  1  0
 10 11  1  0
 11 12  2  0
 12 13  1  0
 13 14  2  0
 14 15  1  0
 14 16  1  0
 16 17  1  0
 17 18  1  0
 18 19  1  0
 19 20  1  0
 20 21  1  0
 21 22  1  0
 18 23  1  0
 22 23  1  0
 11 24  1  0
 16 24  2  0
M  END
