pyridine_urea_11738
     RDKit          3D

 26 28  0  0  0  0  0  0  0  0999 V2000
    8.0190   -4.2590   24.4130 O   0  0  0  0  0  0  0  0  0  0  0  0
    7.9860   -3.2660   25.1270 C   0  0  0  0  0  0  0  0  0  0  0  0
    8.1980   -1.8860   24.5600 C   0  0  0  0  0  0  0  0  0  0  0  0
    8.1810   -0.8090   25.5550 N   0  0  0  0  0  0  0  0  0  0  0  0
    9.3980    0.3580   25.6400 S   0  0  0  0  0  0  0  0  0  0  0  0
    8.7820    1.6480   25.4180 O   0  0  0  0  0  0  0  0  0  0  0  0
   10.0820   -0.1100   26.8050 O   0  0  0  0  0  0  0  0  0  0  0  0
   10.5180   -0.0010   24.3410 C   0  0  0  0  0  0  0  0  0  0  0  0
   11.9190    0.1450   24.1800 C   0  0  0  0  0  0  0  0  0  0  0  0
   12.5360   -0.3420   23.0290 C   0  0  0  0  0  0  0  0  0  0  0  0
   11.7640   -0.9430   22.0430 C   0  0  0  0  0  0  0  0  0  0  0  0
   10.3900   -1.0360   22.1390 C   0  0  0  0  0  0  0  0  0  0  0  0
    9.4150   -1.4970   21.3150 N   0  0  0  0  0  0  0  0  0  0  0  0
    8.3380   -0.5110   21.0710 C   0  0  0  0  0  0  0  0  0  0  0  0
    8.5780    0.9070   21.1150 O   0  0  0  0  0  0  0  0  0  0  0  0
    7.1310   -1.0360   20.8080 N   0  0  0  0  0  0  0  0  0  0  0  0
    6.4000   -0.2550   19.9760 C   0  0  0  0  0  0  0  0  0  0  0  0
    5.1890    0.3870   20.2700 C   0  0  0  0  0  0  0  0  0  0  0  0
    4.5790    1.1660   19.2810 C   0  0  0  0  0  0  0  0  0  0  0  0
    5.1930    1.2780   18.0440 C   0  0  0  0  0  0  0  0  0  0  0  0
    6.3500    0.6730   17.7370 N   0  0  0  0  0  0  0  0  0  0  0  0
    6.8990   -0.0660   18.7110 C   0  0  0  0  0  0  0  0  0  0  0  0
    9.8050   -0.5990   23.2260 C   0  0  0  0  0  0  0  0  0  0  0  0
    7.6860   -1.1020   26.9180 C   0  0  0  0  0  0  0  0  0  0  0  0
    7.1110   -2.3530   27.1710 C   0  0  0  0  0  0  0  0  0  0  0  0
    7.7460   -3.2940   26.4780 N   0  0  0  0  0  0  0  0  0  0  0  0
  1  2  2  0
  2  3  1  0
  3  4  1  0
  4  5  1  0
  5  6  2  0
  5  7  2  0
  5  8  1  0
  8  9  2  0
  9 10  1  0
 10 11  2  0
 11 12  1  0
 12 13  1  0
 13 14  1  0
 14 15  2  0
 14 16  1  0
 16 17  1  0
 17 18  2  0
 18 19  1  0
 19 20  2  0
 20 21  1  0
 17 22  1  0
 21 22  2  0
  8 23  1  0
 12 23  2  0
  4 24  1  0
 24 25  1  0
  2 26  1  0
 25 26  1  0
M  END
