pyridine_urea_15071
     RDKit          3D

 17 19  0  0  0  0  0  0  0  0999 V2000
    8.9000    0.6280   21.4510 O   0  0  0  0  0  0  0  0  0  0  0  0
    8.4090   -0.4570   21.7460 C   0  0  0  0  0  0  0  0  0  0  0  0
    7.2320   -0.9380   21.1790 N   0  0  0  0  0  0  0  0  0  0  0  0
    6.5670   -0.1850   20.1230 C   0  0  0  0  0  0  0  0  0  0  0  0
    5.3060    0.5990   20.4930 C   0  0  0  0  0  0  0  0  0  0  0  0
    4.6010    1.3910   19.3880 C   0  0  0  0  0  0  0  0  0  0  0  0
    5.2480    1.3160   18.0050 C   0  0  0  0  0  0  0  0  0  0  0  0
    6.4070    0.5500   17.8260 N   0  0  0  0  0  0  0  0  0  0  0  0
    7.0260   -0.1600   18.8210 C   0  0  0  0  0  0  0  0  0  0  0  0
    8.9600   -1.3400   22.6970 N   0  0  0  0  0  0  0  0  0  0  0  0
   10.3430   -1.2320   23.0400 C   0  0  1  0  0  0  0  0  0  0  0  0
   11.0190   -1.8800   24.0200 C   0  0  0  0  0  0  0  0  0  0  0  0
   12.2630   -1.5040   24.6020 C   0  0  0  0  0  0  0  0  0  0  0  0
   12.2750   -0.3770   23.7270 C   0  0  1  0  0  0  0  0  0  0  0  0
   12.4560   -0.6960   22.4360 C   0  0  0  0  0  0  0  0  0  0  0  0
   11.1580   -0.8590   22.0140 C   0  0  0  0  0  0  0  0  0  0  0  0
   10.8990    0.1270   23.0900 C   0  0  0  0  0  0  0  0  0  0  0  0
  1  2  2  0
  2  3  1  0
  3  4  1  0
  4  5  2  0
  5  6  1  0
  6  7  2  0
  7  8  1  0
  4  9  1  0
  8  9  2  0
  2 10  1  0
 11 10  1  6
 11 12  1  0
 12 13  2  0
 14 13  1  1
 14 15  1  0
 11 16  1  0
 15 16  1  0
 11 17  1  0
 14 17  1  0
M  END
