pyridine_urea_5739
     RDKit          3D

 23 24  0  0  0  0  0  0  0  0999 V2000
    8.9180    1.0090   21.5400 O   0  0  0  0  0  0  0  0  0  0  0  0
    8.5210   -0.1440   21.4820 C   0  0  0  0  0  0  0  0  0  0  0  0
    9.3770   -1.2890   21.7210 N   0  0  0  0  0  0  0  0  0  0  0  0
   10.3990   -1.2110   22.6710 C   0  0  0  0  0  0  0  0  0  0  0  0
   10.3880   -0.2160   23.6600 C   0  0  0  0  0  0  0  0  0  0  0  0
   11.7000   -0.0220   24.0970 C   0  0  1  0  0  0  0  0  0  0  0  0
   12.3040   -1.3000   23.8120 O   0  0  0  0  0  0  0  0  0  0  0  0
   12.4430    0.8720   23.3260 C   0  0  0  0  0  0  0  0  0  0  0  0
   11.7160    1.3790   22.4940 O   0  0  0  0  0  0  0  0  0  0  0  0
   10.9310    2.4820   22.9650 C   0  0  0  0  0  0  0  0  0  0  0  0
   11.5430    3.8750   22.9040 C   0  0  0  0  0  0  0  0  0  0  0  0
   10.5920    5.0490   23.0540 C   0  0  0  0  0  0  0  0  0  0  0  0
   11.1290    6.3060   23.0140 C   0  0  0  0  0  0  0  0  0  0  0  0
   12.4900    6.5070   22.8420 C   0  0  0  0  0  0  0  0  0  0  0  0
   13.3770    5.4430   22.6940 C   0  0  0  0  0  0  0  0  0  0  0  0
   12.9080    4.1310   22.7230 C   0  0  0  0  0  0  0  0  0  0  0  0
    7.2310   -0.5130   21.1390 N   0  0  0  0  0  0  0  0  0  0  0  0
    6.5380    0.0730   20.0730 C   0  0  0  0  0  0  0  0  0  0  0  0
    5.3720    0.7900   20.3050 C   0  0  0  0  0  0  0  0  0  0  0  0
    4.6530    1.4100   19.2930 C   0  0  0  0  0  0  0  0  0  0  0  0
    5.1520    1.2840   18.0030 C   0  0  0  0  0  0  0  0  0  0  0  0
    6.2710    0.5950   17.7200 N   0  0  0  0  0  0  0  0  0  0  0  0
    6.9360    0.0050   18.7480 C   0  0  0  0  0  0  0  0  0  0  0  0
  1  2  2  0
  2  3  1  0
  3  4  1  0
  4  5  1  0
  5  6  1  0
  6  7  1  6
  6  8  1  0
  8  9  1  0
  9 10  1  0
 10 11  1  0
 11 12  2  0
 12 13  1  0
 13 14  2  0
 14 15  1  0
 11 16  1  0
 15 16  2  0
  2 17  1  0
 17 18  1  0
 18 19  2  0
 19 20  1  0
 20 21  2  0
 21 22  1  0
 18 23  1  0
 22 23  2  0
M  END
