pyridine_urea_14099
     RDKit          3D

 23 25  0  0  0  0  0  0  0  0999 V2000
    8.3630    0.5440   28.9610 C   0  0  0  0  0  0  0  0  0  0  0  0
    8.6970    0.4270   27.8200 C   0  0  0  0  0  0  0  0  0  0  0  0
    7.6980    0.7800   26.8030 N   0  0  0  0  0  0  0  0  0  0  0  0
    8.3830    0.5280   25.6160 O   0  0  0  0  0  0  0  0  0  0  0  0
    9.6270    0.0880   25.9870 C   0  0  0  0  0  0  0  0  0  0  0  0
   10.6960   -0.3200   24.9850 C   0  0  0  0  0  0  0  0  0  0  0  0
   12.0910   -0.4310   24.8950 C   0  0  0  0  0  0  0  0  0  0  0  0
   12.7870   -0.9540   23.6450 C   0  0  0  0  0  0  0  0  0  0  0  0
   11.7050   -1.2500   22.7340 C   0  0  0  0  0  0  0  0  0  0  0  0
   11.4900   -1.7340   21.5380 C   0  0  0  0  0  0  0  0  0  0  0  0
   10.1800   -1.1250   22.7690 C   0  0  0  0  0  0  0  0  0  0  0  0
    9.2470   -1.4100   21.8170 N   0  0  0  0  0  0  0  0  0  0  0  0
    8.2930   -0.3910   21.3290 C   0  0  0  0  0  0  0  0  0  0  0  0
    8.7840    0.9380   21.1800 O   0  0  0  0  0  0  0  0  0  0  0  0
    7.0220   -0.7480   21.0650 N   0  0  0  0  0  0  0  0  0  0  0  0
    6.4460   -0.1040   20.0260 C   0  0  0  0  0  0  0  0  0  0  0  0
    5.2810    0.6210   20.2690 C   0  0  0  0  0  0  0  0  0  0  0  0
    4.4180    1.4550   19.2960 C   0  0  0  0  0  0  0  0  0  0  0  0
    5.2120    1.2480   18.0200 C   0  0  0  0  0  0  0  0  0  0  0  0
    6.3240    0.5650   17.7400 N   0  0  0  0  0  0  0  0  0  0  0  0
    6.9490   -0.1280   18.7750 C   0  0  0  0  0  0  0  0  0  0  0  0
    9.7780   -0.6280   24.0030 C   0  0  0  0  0  0  0  0  0  0  0  0
    9.9070   -0.0040   27.3380 N   0  0  0  0  0  0  0  0  0  0  0  0
  1  2  1  0
  2  3  2  0
  3  4  1  0
  4  5  1  0
  5  6  1  0
  6  7  2  0
  7  8  1  0
  8  9  2  0
  9 10  1  0
  9 11  1  0
 11 12  1  0
 12 13  1  0
 13 14  2  0
 13 15  1  0
 15 16  1  0
 16 17  2  0
 17 18  1  0
 18 19  2  0
 19 20  1  0
 16 21  1  0
 20 21  2  0
  6 22  1  0
 11 22  2  0
  2 23  1  0
  5 23  2  0
M  END
