pyridine_urea_4918
     RDKit          3D

 18 19  0  0  0  0  0  0  0  0999 V2000
    9.0630    1.1340   21.2520 O   0  0  0  0  0  0  0  0  0  0  0  0
    8.4700    0.1020   21.5960 C   0  0  0  0  0  0  0  0  0  0  0  0
    8.8570   -0.6590   22.6780 N   0  0  0  0  0  0  0  0  0  0  0  0
    9.7030   -1.8310   22.5430 C   0  0  0  0  0  0  0  0  0  0  0  0
   10.6270   -1.9900   23.7800 C   0  0  0  0  0  0  0  0  0  0  0  0
   11.7830   -1.2510   23.8440 N   0  0  0  0  0  0  0  0  0  0  0  0
   12.0120   -0.8840   22.5380 C   0  0  0  0  0  0  0  0  0  0  0  0
   12.9140   -1.5990   21.7810 C   0  0  0  0  0  0  0  0  0  0  0  0
   13.4590   -2.3770   22.7540 N   0  0  0  0  0  0  0  0  0  0  0  0
   12.9070   -2.0910   24.0470 C   0  0  0  0  0  0  0  0  0  0  0  0
   13.6220   -2.7100   25.4560 S   0  0  0  0  0  0  0  0  0  0  0  0
    7.3430   -0.4190   21.0020 N   0  0  0  0  0  0  0  0  0  0  0  0
    6.5990    0.1370   19.9940 C   0  0  0  0  0  0  0  0  0  0  0  0
    5.4220    0.8230   20.3210 C   0  0  0  0  0  0  0  0  0  0  0  0
    4.6790    1.4040   19.3050 C   0  0  0  0  0  0  0  0  0  0  0  0
    5.1100    1.2810   17.9960 C   0  0  0  0  0  0  0  0  0  0  0  0
    6.2510    0.6020   17.6570 N   0  0  0  0  0  0  0  0  0  0  0  0
    6.9500    0.0520   18.6660 C   0  0  0  0  0  0  0  0  0  0  0  0
  1  2  2  0
  2  3  1  0
  3  4  1  0
  4  5  1  0
  5  6  1  0
  6  7  1  0
  7  8  1  0
  8  9  1  0
  6 10  1  0
  9 10  1  0
 10 11  2  0
  2 12  1  0
 12 13  1  0
 13 14  2  0
 14 15  1  0
 15 16  2  0
 16 17  1  0
 13 18  1  0
 17 18  2  0
M  END
