pyridine_urea_5099
     RDKit          3D

 20 22  0  0  0  0  0  0  0  0999 V2000
    8.7210    1.2030   21.1320 O   0  0  0  0  0  0  0  0  0  0  0  0
    8.2060    0.1550   21.5540 C   0  0  0  0  0  0  0  0  0  0  0  0
    7.1230   -0.4830   21.0330 N   0  0  0  0  0  0  0  0  0  0  0  0
    6.4430    0.1050   19.9830 C   0  0  0  0  0  0  0  0  0  0  0  0
    5.2660    0.8070   20.2460 C   0  0  0  0  0  0  0  0  0  0  0  0
    4.5910    1.4240   19.1970 C   0  0  0  0  0  0  0  0  0  0  0  0
    5.1270    1.3100   17.9340 C   0  0  0  0  0  0  0  0  0  0  0  0
    6.2480    0.6310   17.6630 N   0  0  0  0  0  0  0  0  0  0  0  0
    6.8800    0.0440   18.6910 C   0  0  0  0  0  0  0  0  0  0  0  0
    8.7170   -0.4800   22.6400 N   0  0  0  0  0  0  0  0  0  0  0  0
   10.0260    0.0170   22.9180 C   0  0  1  0  0  0  0  0  0  0  0  0
   10.4490    0.1450   24.3440 C   0  0  0  0  0  0  0  0  0  0  0  0
   11.7630    0.5880   24.4180 C   0  0  0  0  0  0  0  0  0  0  0  0
   12.6640    0.4450   23.4130 C   0  0  0  0  0  0  0  0  0  0  0  0
   12.3680   -0.5780   22.6120 C   0  0  0  0  0  0  0  0  0  0  0  0
   13.3420   -1.3420   22.0860 C   0  0  0  0  0  0  0  0  0  0  0  0
   13.0510   -2.3710   21.2510 C   0  0  0  0  0  0  0  0  0  0  0  0
   11.7580   -2.5850   20.9980 C   0  0  0  0  0  0  0  0  0  0  0  0
   10.7320   -1.8480   21.5320 C   0  0  0  0  0  0  0  0  0  0  0  0
   11.0840   -0.8410   22.3290 C   0  0  0  0  0  0  0  0  0  0  0  0
  1  2  2  0
  2  3  1  0
  3  4  1  0
  4  5  2  0
  5  6  1  0
  6  7  2  0
  7  8  1  0
  4  9  1  0
  8  9  2  0
  2 10  1  0
 11 10  1  1
 11 12  1  0
 12 13  1  0
 13 14  1  0
 14 15  1  0
 15 16  2  0
 16 17  1  0
 17 18  2  0
 18 19  1  0
 11 20  1  0
 15 20  1  0
 19 20  2  0
M  END
