pyridine_urea_15274
     RDKit          3D

 16 16  0  0  0  0  0  0  0  0999 V2000
   12.6050   -0.0860   22.9100 C   0  0  0  0  0  0  0  0  0  0  0  0
   11.1780   -0.5780   23.1810 C   0  0  0  0  0  0  0  0  0  0  0  0
   10.3180    0.6730   23.1670 C   0  0  0  0  0  0  0  0  0  0  0  0
   11.2400   -1.5320   24.3850 C   0  0  0  0  0  0  0  0  0  0  0  0
   12.4140   -1.7290   24.6620 O   0  0  0  0  0  0  0  0  0  0  0  0
   10.5440   -1.4150   22.0730 C   0  0  0  0  0  0  0  0  0  0  0  0
    9.0870   -1.3680   22.0940 N   0  0  0  0  0  0  0  0  0  0  0  0
    8.4060   -0.3360   21.4670 C   0  0  0  0  0  0  0  0  0  0  0  0
    8.8860    0.7740   21.2960 O   0  0  0  0  0  0  0  0  0  0  0  0
    7.1500   -0.7080   21.0610 N   0  0  0  0  0  0  0  0  0  0  0  0
    6.4740   -0.0400   20.0280 C   0  0  0  0  0  0  0  0  0  0  0  0
    5.2940    0.6630   20.3040 C   0  0  0  0  0  0  0  0  0  0  0  0
    4.6330    1.3390   19.2770 C   0  0  0  0  0  0  0  0  0  0  0  0
    5.1760    1.2890   18.0100 C   0  0  0  0  0  0  0  0  0  0  0  0
    6.3010    0.6170   17.7260 N   0  0  0  0  0  0  0  0  0  0  0  0
    6.9190   -0.0280   18.7310 C   0  0  0  0  0  0  0  0  0  0  0  0
  2  1  1  0
  2  3  1  0
  2  4  1  0
  4  5  1  0
  2  6  1  0
  6  7  1  0
  7  8  1  0
  8  9  2  0
  8 10  1  0
 10 11  1  0
 11 12  2  0
 12 13  1  0
 13 14  2  0
 14 15  1  0
 11 16  1  0
 15 16  2  0
M  END
