pyridine_urea_1396
     RDKit          3D

 20 21  0  0  0  0  0  0  0  0999 V2000
    8.7810    1.1450   21.2200 O   0  0  0  0  0  0  0  0  0  0  0  0
    8.1690    0.1110   21.5320 C   0  0  0  0  0  0  0  0  0  0  0  0
    8.6200   -0.7490   22.4660 N   0  0  0  0  0  0  0  0  0  0  0  0
    9.9860   -1.0660   22.3130 C   0  0  0  0  0  0  0  0  0  0  0  0
   10.7990    0.0610   22.9140 C   0  0  0  0  0  0  0  0  0  0  0  0
   11.6200   -0.3980   23.8610 C   0  0  1  0  0  0  0  0  0  0  0  0
   10.9550   -0.8970   24.7440 O   0  0  0  0  0  0  0  0  0  0  0  0
   12.4540   -1.3090   23.5470 C   0  0  0  0  0  0  0  0  0  0  0  0
   13.3270   -1.9960   24.1720 C   0  0  0  0  0  0  0  0  0  0  0  0
   13.7950   -2.7820   23.0890 C   0  0  0  0  0  0  0  0  0  0  0  0
   13.2570   -2.6690   21.6700 C   0  0  0  0  0  0  0  0  0  0  0  0
   12.2350   -1.7830   21.3190 C   0  0  0  0  0  0  0  0  0  0  0  0
   12.7070   -1.8890   22.4630 C   0  0  0  0  0  0  0  0  0  0  0  0
    6.9940   -0.3470   21.0380 N   0  0  0  0  0  0  0  0  0  0  0  0
    6.3960    0.2170   19.9410 C   0  0  0  0  0  0  0  0  0  0  0  0
    5.1360    0.9910   20.0990 C   0  0  0  0  0  0  0  0  0  0  0  0
    4.4850    1.6050   19.0680 C   0  0  0  0  0  0  0  0  0  0  0  0
    5.1410    1.4290   17.8180 C   0  0  0  0  0  0  0  0  0  0  0  0
    6.2790    0.7270   17.6220 N   0  0  0  0  0  0  0  0  0  0  0  0
    6.8790    0.1400   18.6720 C   0  0  0  0  0  0  0  0  0  0  0  0
  1  2  2  0
  2  3  1  0
  3  4  1  0
  4  5  1  0
  5  6  1  0
  6  7  1  1
  6  8  1  0
  8  9  2  0
  9 10  1  0
 10 11  2  0
 11 12  1  0
  8 13  1  0
 12 13  2  0
  2 14  1  0
 14 15  1  0
 15 16  2  0
 16 17  1  0
 17 18  2  0
 18 19  1  0
 15 20  1  0
 19 20  2  0
M  END
