pyridine_urea_13443
     RDKit          3D

 22 23  0  0  0  0  0  0  0  0999 V2000
    8.6080    0.5730   21.1390 O   0  0  0  0  0  0  0  0  0  0  0  0
    8.2890   -0.5510   21.5000 C   0  0  0  0  0  0  0  0  0  0  0  0
    9.1030   -1.3090   22.3530 N   0  0  0  0  0  0  0  0  0  0  0  0
   10.2910   -0.6040   22.5350 C   0  0  0  0  0  0  0  0  0  0  0  0
   11.8010   -0.9760   22.5350 C   0  0  0  0  0  0  0  0  0  0  0  0
   12.7740    0.2300   22.6970 C   0  0  0  0  0  0  0  0  0  0  0  0
   12.1680    1.6170   22.8330 C   0  0  0  0  0  0  0  0  0  0  0  0
   12.7490    2.8630   22.9140 C   0  0  0  0  0  0  0  0  0  0  0  0
   11.9280    3.9880   23.1170 C   0  0  0  0  0  0  0  0  0  0  0  0
   12.2900    5.3350   23.1910 C   0  0  0  0  0  0  0  0  0  0  0  0
   11.5280    6.1860   22.4620 F   0  0  0  0  0  0  0  0  0  0  0  0
   13.5650    5.6340   22.8350 F   0  0  0  0  0  0  0  0  0  0  0  0
   12.1330    5.8100   24.4660 F   0  0  0  0  0  0  0  0  0  0  0  0
   10.8400    1.8370   22.8680 C   0  0  0  0  0  0  0  0  0  0  0  0
    9.9270    0.8730   22.7410 C   0  0  0  0  0  0  0  0  0  0  0  0
    7.1120   -1.0780   21.0460 N   0  0  0  0  0  0  0  0  0  0  0  0
    6.3590   -0.3080   20.1200 C   0  0  0  0  0  0  0  0  0  0  0  0
    5.1280    0.3540   20.4360 C   0  0  0  0  0  0  0  0  0  0  0  0
    4.5620    1.1310   19.2320 C   0  0  0  0  0  0  0  0  0  0  0  0
    5.2230    1.1440   18.0220 C   0  0  0  0  0  0  0  0  0  0  0  0
    6.3660    0.4960   17.8130 N   0  0  0  0  0  0  0  0  0  0  0  0
    6.8880   -0.1960   18.8370 C   0  0  0  0  0  0  0  0  0  0  0  0
  1  2  2  0
  2  3  1  0
  3  4  1  0
  4  5  2  0
  5  6  1  0
  6  7  2  0
  7  8  1  0
  8  9  2  3
  9 10  1  0
 10 11  1  0
 10 12  1  0
 10 13  1  0
  7 14  1  0
  4 15  1  0
 14 15  2  0
  2 16  1  0
 16 17  1  0
 17 18  2  0
 18 19  1  0
 19 20  2  0
 20 21  1  0
 17 22  1  0
 21 22  2  0
M  END
