pyridine_urea_3168
     RDKit          3D

 20 21  0  0  0  0  0  0  0  0999 V2000
   12.9480   -1.3160   24.3040 C   0  0  0  0  0  0  0  0  0  0  0  0
   12.3290   -0.0590   23.9790 O   0  0  0  0  0  0  0  0  0  0  0  0
   12.7840    0.6730   22.9210 C   0  0  0  0  0  0  0  0  0  0  0  0
   12.8070    1.5770   23.7070 O   0  0  0  0  0  0  0  0  0  0  0  0
   12.6350   -0.5240   22.3090 C   0  0  0  0  0  0  0  0  0  0  0  0
   13.5420   -1.2480   21.5270 N   0  0  0  0  0  0  0  0  0  0  0  0
   12.8420   -2.3520   21.1760 C   0  0  0  0  0  0  0  0  0  0  0  0
   11.6630   -2.4350   21.6050 O   0  0  0  0  0  0  0  0  0  0  0  0
   11.3520   -1.3190   22.3690 C   0  0  0  0  0  0  0  0  0  0  0  0
    9.9840   -1.1430   23.0170 C   0  0  0  0  0  0  0  0  0  0  0  0
    9.0680   -1.2810   21.9860 N   0  0  0  0  0  0  0  0  0  0  0  0
    8.2870   -0.2610   21.4080 C   0  0  0  0  0  0  0  0  0  0  0  0
    8.6930    0.8850   21.2590 O   0  0  0  0  0  0  0  0  0  0  0  0
    7.0710   -0.7300   21.0520 N   0  0  0  0  0  0  0  0  0  0  0  0
    6.4020   -0.0330   20.0930 C   0  0  0  0  0  0  0  0  0  0  0  0
    5.2250    0.6920   20.3040 C   0  0  0  0  0  0  0  0  0  0  0  0
    4.6430    1.3670   19.2380 C   0  0  0  0  0  0  0  0  0  0  0  0
    5.2460    1.3050   17.9880 C   0  0  0  0  0  0  0  0  0  0  0  0
    6.3730    0.6120   17.7630 N   0  0  0  0  0  0  0  0  0  0  0  0
    6.9170   -0.0370   18.8100 C   0  0  0  0  0  0  0  0  0  0  0  0
  1  2  1  0
  2  3  1  0
  3  4  2  0
  3  5  1  0
  5  6  1  0
  6  7  2  0
  7  8  1  0
  5  9  2  0
  8  9  1  0
  9 10  1  0
 10 11  1  0
 11 12  1  0
 12 13  2  0
 12 14  1  0
 14 15  1  0
 15 16  2  0
 16 17  1  0
 17 18  2  0
 18 19  1  0
 15 20  1  0
 19 20  2  0
M  END
