pyridine_urea_12634
     RDKit          3D

 20 21  0  0  0  0  0  0  0  0999 V2000
    8.7100    1.3580   21.0960 O   0  0  0  0  0  0  0  0  0  0  0  0
    7.9770    0.4710   21.5500 C   0  0  0  0  0  0  0  0  0  0  0  0
    7.9530    0.1440   22.8430 N   0  0  0  0  0  0  0  0  0  0  0  0
    9.0460   -0.6120   23.2470 C   0  0  0  0  0  0  0  0  0  0  0  0
   10.3060    0.2250   23.1830 C   0  0  0  0  0  0  0  0  0  0  0  0
   10.4300   -1.1510   23.3030 C   0  0  0  0  0  0  0  0  0  0  0  0
   11.5850   -1.6360   23.3630 C   0  0  0  0  0  0  0  0  0  0  0  0
   11.7830   -0.3240   23.2480 F   0  0  0  0  0  0  0  0  0  0  0  0
   12.8150   -1.4430   23.3660 C   0  0  0  0  0  0  0  0  0  0  0  0
   13.8180   -2.7580   23.5190 Cl  0  0  0  0  0  0  0  0  0  0  0  0
   12.9630   -0.1040   23.2400 C   0  0  0  0  0  0  0  0  0  0  0  0
   11.7460    0.6520   23.1580 C   0  0  0  0  0  0  0  0  0  0  0  0
   11.9990    1.9880   23.0400 F   0  0  0  0  0  0  0  0  0  0  0  0
    7.0870   -0.3060   20.8920 N   0  0  0  0  0  0  0  0  0  0  0  0
    6.4080    0.2570   19.8800 C   0  0  0  0  0  0  0  0  0  0  0  0
    5.2200    0.9240   20.1710 C   0  0  0  0  0  0  0  0  0  0  0  0
    4.5340    1.5380   19.1280 C   0  0  0  0  0  0  0  0  0  0  0  0
    5.1330    1.4330   17.7670 C   0  0  0  0  0  0  0  0  0  0  0  0
    6.2640    0.7680   17.5460 N   0  0  0  0  0  0  0  0  0  0  0  0
    6.8660    0.2030   18.5970 C   0  0  0  0  0  0  0  0  0  0  0  0
  1  2  2  0
  2  3  1  0
  3  4  1  0
  4  5  1  0
  5  6  2  0
  6  7  1  0
  7  8  1  0
  7  9  2  0
  9 10  1  0
  9 11  1  0
  5 12  1  0
 11 12  2  0
 12 13  1  0
  2 14  1  0
 14 15  1  0
 15 16  2  0
 16 17  1  0
 17 18  2  0
 18 19  1  0
 15 20  1  0
 19 20  2  0
M  END
