pyridine_urea_12567
     RDKit          3D

 21 22  0  0  0  0  0  0  0  0999 V2000
   13.2090   -2.7800   21.0440 C   0  0  0  0  0  0  0  0  0  0  0  0
   12.4330   -1.7940   21.8600 C   0  0  0  0  0  0  0  0  0  0  0  0
   10.9220   -2.0030   21.6470 C   0  0  0  0  0  0  0  0  0  0  0  0
    9.8640   -1.3150   22.1880 C   0  0  0  0  0  0  0  0  0  0  0  0
    8.5410   -1.4780   21.9810 N   0  0  0  0  0  0  0  0  0  0  0  0
    7.8150   -0.5560   21.3340 C   0  0  0  0  0  0  0  0  0  0  0  0
    8.3080    0.5570   21.1690 O   0  0  0  0  0  0  0  0  0  0  0  0
    6.6210   -0.9480   20.9200 N   0  0  0  0  0  0  0  0  0  0  0  0
    6.1240   -0.1560   19.9740 C   0  0  0  0  0  0  0  0  0  0  0  0
    4.8740    0.7050   20.1510 C   0  0  0  0  0  0  0  0  0  0  0  0
    4.3560    1.5950   19.0370 C   0  0  0  0  0  0  0  0  0  0  0  0
    5.2030    1.5210   17.7850 C   0  0  0  0  0  0  0  0  0  0  0  0
    6.3110    0.7160   17.7120 N   0  0  0  0  0  0  0  0  0  0  0  0
    6.7660   -0.0920   18.7520 C   0  0  0  0  0  0  0  0  0  0  0  0
   10.2640   -0.2470   23.1020 C   0  0  0  0  0  0  0  0  0  0  0  0
   11.6940   -0.0510   23.3110 C   0  0  0  0  0  0  0  0  0  0  0  0
   12.0620    0.8350   24.0940 C   0  0  0  0  0  0  0  0  0  0  0  0
   10.9220    1.3420   24.5760 F   0  0  0  0  0  0  0  0  0  0  0  0
   12.7860    1.7990   23.4800 F   0  0  0  0  0  0  0  0  0  0  0  0
   12.7230    0.1330   25.0300 F   0  0  0  0  0  0  0  0  0  0  0  0
   12.8330   -0.8000   22.7070 C   0  0  0  0  0  0  0  0  0  0  0  0
  1  2  1  0
  2  3  2  0
  3  4  1  0
  4  5  1  0
  5  6  1  0
  6  7  2  0
  6  8  1  0
  8  9  1  0
  9 10  2  0
 10 11  1  0
 11 12  2  0
 12 13  1  0
  9 14  1  0
 13 14  2  0
  4 15  2  0
 15 16  1  0
 16 17  1  0
 17 18  1  0
 17 19  1  0
 17 20  1  0
  2 21  1  0
 16 21  2  0
M  END
