pyridine_urea_1709
     RDKit          3D

 18 20  0  0  0  0  0  0  0  0999 V2000
    8.6850    0.8640   21.2440 O   0  0  0  0  0  0  0  0  0  0  0  0
    8.2950   -0.2540   21.5550 C   0  0  0  0  0  0  0  0  0  0  0  0
    7.1420   -0.7900   21.0550 N   0  0  0  0  0  0  0  0  0  0  0  0
    6.4640   -0.1170   20.0310 C   0  0  0  0  0  0  0  0  0  0  0  0
    5.2800    0.5760   20.3120 C   0  0  0  0  0  0  0  0  0  0  0  0
    4.6170    1.2640   19.2930 C   0  0  0  0  0  0  0  0  0  0  0  0
    5.1620    1.2380   18.0260 C   0  0  0  0  0  0  0  0  0  0  0  0
    6.2900    0.5750   17.7330 N   0  0  0  0  0  0  0  0  0  0  0  0
    6.9110   -0.0830   18.7300 C   0  0  0  0  0  0  0  0  0  0  0  0
    8.9990   -1.0580   22.4300 N   0  0  0  0  0  0  0  0  0  0  0  0
   10.2920   -0.5470   22.9120 C   0  0  1  0  0  0  0  0  0  0  0  0
   11.3810   -1.4530   22.2690 C   0  0  0  0  0  0  0  0  0  0  0  0
   12.5860   -1.1350   22.8560 C   0  0  0  0  0  0  0  0  0  0  0  0
   12.2370   -0.3720   23.9550 C   0  0  1  0  0  0  0  0  0  0  0  0
   12.3880    0.9370   23.5970 C   0  0  0  0  0  0  0  0  0  0  0  0
   11.5640    1.3690   22.6600 N   0  0  0  0  0  0  0  0  0  0  0  0
   10.3310    0.8160   22.6080 C   0  0  0  0  0  0  0  0  0  0  0  0
   10.7340   -0.4630   24.2810 C   0  0  0  0  0  0  0  0  0  0  0  0
  1  2  2  0
  2  3  1  0
  3  4  1  0
  4  5  2  0
  5  6  1  0
  6  7  2  0
  7  8  1  0
  4  9  1  0
  8  9  2  0
  2 10  1  0
 11 10  1  1
 11 12  1  0
 12 13  1  0
 14 13  1  6
 14 15  1  0
 15 16  1  0
 11 17  1  0
 16 17  1  0
 11 18  1  0
 14 18  1  0
M  END
