pyridine_urea_7325
     RDKit          3D

 18 20  0  0  0  0  0  0  0  0999 V2000
    9.0020    1.0700   21.5880 O   0  0  0  0  0  0  0  0  0  0  0  0
    8.6280   -0.0810   21.4480 C   0  0  0  0  0  0  0  0  0  0  0  0
    7.3450   -0.4750   21.1270 N   0  0  0  0  0  0  0  0  0  0  0  0
    6.6030    0.0960   20.0790 C   0  0  0  0  0  0  0  0  0  0  0  0
    5.4400    0.8180   20.3740 C   0  0  0  0  0  0  0  0  0  0  0  0
    4.7050    1.4050   19.3440 C   0  0  0  0  0  0  0  0  0  0  0  0
    5.1580    1.2510   18.0510 C   0  0  0  0  0  0  0  0  0  0  0  0
    6.2600    0.5600   17.7380 N   0  0  0  0  0  0  0  0  0  0  0  0
    6.9550   -0.0020   18.7500 C   0  0  0  0  0  0  0  0  0  0  0  0
    9.4860   -1.1520   21.5540 N   0  0  0  0  0  0  0  0  0  0  0  0
   10.4930   -1.3010   22.6310 C   0  0  2  0  0  0  0  0  0  0  0  0
   10.8960    0.0440   23.1990 C   0  0  0  0  0  0  0  0  0  0  0  0
   12.2300   -0.0380   23.6510 C   0  0  1  0  0  0  0  0  0  0  0  0
   12.4280   -1.2230   24.3830 C   0  0  0  0  0  0  0  0  0  0  0  0
   12.0960   -2.3710   23.7540 C   0  0  0  0  0  0  0  0  0  0  0  0
   11.6560   -2.0730   22.4960 C   0  0  2  0  0  0  0  0  0  0  0  0
   12.7900   -1.4550   21.9400 C   0  0  0  0  0  0  0  0  0  0  0  0
   12.9790   -0.1870   22.5310 C   0  0  0  0  0  0  0  0  0  0  0  0
  1  2  2  0
  2  3  1  0
  3  4  1  0
  4  5  2  0
  5  6  1  0
  6  7  2  0
  7  8  1  0
  4  9  1  0
  8  9  2  0
  2 10  1  0
 11 10  1  6
 11 12  1  0
 13 12  1  6
 13 14  1  0
 14 15  2  0
 11 16  1  0
 16 15  1  1
 16 17  1  0
 13 18  1  0
 17 18  1  0
M  END
