pyridine_urea_3781
     RDKit          3D

 23 25  0  0  0  0  0  0  0  0999 V2000
    5.8320   -0.7880   23.2530 C   0  0  0  0  0  0  0  0  0  0  0  0
    7.1910   -0.8420   22.8340 O   0  0  0  0  0  0  0  0  0  0  0  0
    8.1130   -0.6180   23.8970 C   0  0  0  0  0  0  0  0  0  0  0  0
    7.5420   -0.4940   25.2980 C   0  0  0  0  0  0  0  0  0  0  0  0
    8.4510   -0.2690   26.4660 C   0  0  0  0  0  0  0  0  0  0  0  0
    9.9470   -0.1650   26.2570 C   0  0  0  0  0  0  0  0  0  0  0  0
   10.6480   -0.2630   24.8860 C   0  0  0  0  0  0  0  0  0  0  0  0
    9.6750   -0.4890   23.7650 C   0  0  0  0  0  0  0  0  0  0  0  0
   10.3280   -0.5810   22.5630 C   0  0  2  0  0  0  0  0  0  0  0  0
    9.3540   -0.8470   21.5590 N   0  0  0  0  0  0  0  0  0  0  0  0
    8.4150    0.0430   21.1980 C   0  0  0  0  0  0  0  0  0  0  0  0
    8.7620    1.2340   21.1200 O   0  0  0  0  0  0  0  0  0  0  0  0
    7.1860   -0.4500   20.9230 N   0  0  0  0  0  0  0  0  0  0  0  0
    6.3800    0.1860   19.9960 C   0  0  0  0  0  0  0  0  0  0  0  0
    5.1850    0.8500   20.2640 C   0  0  0  0  0  0  0  0  0  0  0  0
    4.5180    1.4630   19.2110 C   0  0  0  0  0  0  0  0  0  0  0  0
    5.1350    1.3620   17.8690 C   0  0  0  0  0  0  0  0  0  0  0  0
    6.2740    0.7100   17.6360 N   0  0  0  0  0  0  0  0  0  0  0  0
    6.8540    0.1470   18.7000 C   0  0  0  0  0  0  0  0  0  0  0  0
   11.4600   -1.3930   22.5740 C   0  0  0  0  0  0  0  0  0  0  0  0
   12.5370   -0.8220   23.2480 C   0  0  1  0  0  0  0  0  0  0  0  0
   13.1590    0.1490   22.5290 C   0  0  0  0  0  0  0  0  0  0  0  0
   12.1390   -0.1620   24.5800 C   0  0  0  0  0  0  0  0  0  0  0  0
  1  2  1  0
  2  3  1  0
  3  4  2  0
  4  5  1  0
  5  6  2  0
  6  7  1  0
  3  8  1  0
  7  8  2  0
  8  9  1  0
  9 10  1  6
 10 11  1  0
 11 12  2  0
 11 13  1  0
 13 14  1  0
 14 15  2  0
 15 16  1  0
 16 17  2  0
 17 18  1  0
 14 19  1  0
 18 19  2  0
  9 20  1  0
 20 21  1  0
 21 22  1  6
  7 23  1  0
 21 23  1  0
M  END
