pyridine_urea_10424
     RDKit          3D

 23 25  0  0  0  0  0  0  0  0999 V2000
    8.7680    1.3680   21.1070 O   0  0  0  0  0  0  0  0  0  0  0  0
    8.3260    0.2670   21.4710 C   0  0  0  0  0  0  0  0  0  0  0  0
    7.2600   -0.4080   20.9450 N   0  0  0  0  0  0  0  0  0  0  0  0
    6.4410    0.2000   20.0160 C   0  0  0  0  0  0  0  0  0  0  0  0
    5.1170    0.8950   20.3490 C   0  0  0  0  0  0  0  0  0  0  0  0
    4.4370    1.5150   19.1350 C   0  0  0  0  0  0  0  0  0  0  0  0
    5.1280    1.3690   17.8190 C   0  0  0  0  0  0  0  0  0  0  0  0
    6.2860    0.7210   17.6520 N   0  0  0  0  0  0  0  0  0  0  0  0
    6.8860    0.1740   18.7130 C   0  0  0  0  0  0  0  0  0  0  0  0
    8.8820   -0.4460   22.4910 N   0  0  0  0  0  0  0  0  0  0  0  0
    9.2770    0.1770   23.7190 C   0  0  1  0  0  0  0  0  0  0  0  0
    9.4930   -0.8310   24.6400 C   0  0  0  0  0  0  0  0  0  0  0  0
   10.7410   -0.6460   25.1300 C   0  0  0  0  0  0  0  0  0  0  0  0
   11.4920    0.0520   24.3540 N   0  0  0  0  0  0  0  0  0  0  0  0
   12.0670   -0.8660   23.5610 C   0  0  0  0  0  0  0  0  0  0  0  0
   13.1660   -1.5150   24.0670 C   0  0  0  0  0  0  0  0  0  0  0  0
   13.8180   -2.5050   23.3330 C   0  0  0  0  0  0  0  0  0  0  0  0
   13.1970   -2.7150   21.9790 C   0  0  0  0  0  0  0  0  0  0  0  0
   12.1230   -2.0740   21.5470 C   0  0  0  0  0  0  0  0  0  0  0  0
   11.5330   -1.1560   22.3320 C   0  0  0  0  0  0  0  0  0  0  0  0
   10.1210   -0.3930   21.7930 Cl  0  0  0  0  0  0  0  0  0  0  0  0
   10.5010    0.8950   23.6700 C   0  0  0  0  0  0  0  0  0  0  0  0
   10.6420    2.0000   23.1520 O   0  0  0  0  0  0  0  0  0  0  0  0
  1  2  2  0
  2  3  1  0
  3  4  1  0
  4  5  2  0
  5  6  1  0
  6  7  2  0
  7  8  1  0
  4  9  1  0
  8  9  2  0
  2 10  1  0
 11 10  1  6
 11 12  1  0
 12 13  1  0
 13 14  1  0
 14 15  1  0
 15 16  2  0
 16 17  1  0
 17 18  2  0
 18 19  1  0
 15 20  1  0
 19 20  2  0
 20 21  1  0
 11 22  1  0
 14 22  1  0
 22 23  2  0
M  END
