pyridine_urea_7993
     RDKit          3D

 25 27  0  0  0  0  0  0  0  0999 V2000
    9.1240    1.1840   21.2510 O   0  0  0  0  0  0  0  0  0  0  0  0
    8.7040    0.0570   21.5210 C   0  0  0  0  0  0  0  0  0  0  0  0
    7.4940   -0.4710   21.0870 N   0  0  0  0  0  0  0  0  0  0  0  0
    6.6970    0.0840   20.0630 C   0  0  0  0  0  0  0  0  0  0  0  0
    5.5450    0.8080   20.4010 C   0  0  0  0  0  0  0  0  0  0  0  0
    4.7590    1.3800   19.3930 C   0  0  0  0  0  0  0  0  0  0  0  0
    5.1570    1.2030   18.0880 C   0  0  0  0  0  0  0  0  0  0  0  0
    6.2450    0.5100   17.7360 N   0  0  0  0  0  0  0  0  0  0  0  0
    6.9870   -0.0340   18.7250 C   0  0  0  0  0  0  0  0  0  0  0  0
    9.4330   -0.8510   22.2830 N   0  0  0  0  0  0  0  0  0  0  0  0
   10.3930   -0.4620   23.3780 C   0  0  2  0  0  0  0  0  0  0  0  0
    9.7820    0.6310   24.2910 C   0  0  0  0  0  0  0  0  0  0  0  0
    8.7670    1.4090   23.7590 N   0  0  0  0  0  0  0  0  0  0  0  0
    7.4150    1.2060   24.2750 C   0  0  0  0  0  0  0  0  0  0  0  0
    6.6350    2.3330   24.5290 C   0  0  0  0  0  0  0  0  0  0  0  0
    7.0920    3.6110   24.3100 C   0  0  0  0  0  0  0  0  0  0  0  0
    8.3120    3.7400   23.6780 C   0  0  0  0  0  0  0  0  0  0  0  0
    9.1080    2.6650   23.2480 C   0  0  0  0  0  0  0  0  0  0  0  0
   10.1330    2.9340   22.3820 O   0  0  0  0  0  0  0  0  0  0  0  0
   11.9160   -0.2470   22.9680 C   0  0  0  0  0  0  0  0  0  0  0  0
   12.7080   -1.1880   22.5000 C   0  0  0  0  0  0  0  0  0  0  0  0
   12.7340    0.1130   22.8160 C   0  0  0  0  0  0  0  0  0  0  0  0
   11.4020    0.6590   23.3580 C   0  0  0  0  0  0  0  0  0  0  0  0
   11.7780    1.8590   23.5250 C   0  0  0  0  0  0  0  0  0  0  0  0
   12.7060    1.0990   23.0570 C   0  0  0  0  0  0  0  0  0  0  0  0
  1  2  2  0
  2  3  1  0
  3  4  1  0
  4  5  2  0
  5  6  1  0
  6  7  2  0
  7  8  1  0
  4  9  1  0
  8  9  2  0
  2 10  1  0
 10 11  1  0
 11 12  1  6
 12 13  1  0
 13 14  1  0
 14 15  2  0
 15 16  1  0
 16 17  2  0
 13 18  1  0
 17 18  1  0
 18 19  2  0
 11 20  1  0
 20 21  2  0
 21 22  1  0
 22 23  2  0
 23 24  1  0
 20 25  1  0
 24 25  2  0
M  END
