pyridine_urea_12026
     RDKit          3D

 24 26  0  0  0  0  0  0  0  0999 V2000
    8.6800    1.2930   21.0140 O   0  0  0  0  0  0  0  0  0  0  0  0
    8.1080    0.3340   21.5380 C   0  0  0  0  0  0  0  0  0  0  0  0
    7.1000   -0.4050   21.0130 N   0  0  0  0  0  0  0  0  0  0  0  0
    6.4180    0.1580   19.9570 C   0  0  0  0  0  0  0  0  0  0  0  0
    5.2460    0.8650   20.2080 C   0  0  0  0  0  0  0  0  0  0  0  0
    4.5730    1.4610   19.1530 C   0  0  0  0  0  0  0  0  0  0  0  0
    5.1090    1.3200   17.8930 C   0  0  0  0  0  0  0  0  0  0  0  0
    6.2270    0.6350   17.6340 N   0  0  0  0  0  0  0  0  0  0  0  0
    6.8580    0.0680   18.6690 C   0  0  0  0  0  0  0  0  0  0  0  0
    8.4620   -0.0610   22.7790 N   0  0  0  0  0  0  0  0  0  0  0  0
    9.6050    0.7100   23.2450 C   0  0  2  0  0  0  0  0  0  0  0  0
   10.6930    0.2110   22.3230 C   0  0  0  0  0  0  0  0  0  0  0  0
   11.1150   -1.0540   22.5250 C   0  0  0  0  0  0  0  0  0  0  0  0
   10.7130   -1.2960   23.7990 C   0  0  1  0  0  0  0  0  0  0  0  0
   11.3080   -2.3670   24.3530 C   0  0  0  0  0  0  0  0  0  0  0  0
   10.6100   -3.5520   24.0890 O   0  0  0  0  0  0  0  0  0  0  0  0
   12.4020   -2.1810   25.0230 N   0  0  0  0  0  0  0  0  0  0  0  0
   13.3990   -2.6700   24.3750 C   0  0  0  0  0  0  0  0  0  0  0  0
   13.1650   -2.6830   23.0260 C   0  0  0  0  0  0  0  0  0  0  0  0
   13.4180   -1.1040   22.4610 S   0  0  0  0  0  0  0  0  0  0  0  0
   12.7790   -0.2800   23.8510 C   0  0  0  0  0  0  0  0  0  0  0  0
   12.7080   -0.8540   25.1580 C   0  0  0  0  0  0  0  0  0  0  0  0
   10.8600   -0.1220   24.5670 C   0  0  0  0  0  0  0  0  0  0  0  0
    9.7740    0.7160   24.6240 C   0  0  0  0  0  0  0  0  0  0  0  0
  1  2  2  0
  2  3  1  0
  3  4  1  0
  4  5  2  0
  5  6  1  0
  6  7  2  0
  7  8  1  0
  4  9  1  0
  8  9  2  0
  2 10  1  0
 11 10  1  1
 11 12  1  0
 12 13  1  0
 13 14  1  0
 14 15  1  1
 15 16  2  0
 15 17  1  0
 17 18  1  0
 18 19  1  0
 19 20  1  0
 20 21  1  0
 17 22  1  0
 21 22  1  0
 14 23  1  0
 11 24  1  0
 23 24  1  0
M  END
