pyridine_urea_14901
     RDKit          3D

 19 21  0  0  0  0  0  0  0  0999 V2000
    8.8490    1.2720   21.1070 O   0  0  0  0  0  0  0  0  0  0  0  0
    8.4430    0.1780   21.5170 C   0  0  0  0  0  0  0  0  0  0  0  0
    9.0070   -0.4860   22.5820 N   0  0  0  0  0  0  0  0  0  0  0  0
    9.7080    0.1680   23.6120 C   0  0  0  0  0  0  0  0  0  0  0  0
   10.9180    0.8200   23.3800 C   0  0  0  0  0  0  0  0  0  0  0  0
   12.0020    0.6180   23.1530 C   0  0  0  0  0  0  0  0  0  0  0  0
   12.8820   -0.0280   22.9550 C   0  0  0  0  0  0  0  0  0  0  0  0
   13.1620   -1.3530   22.8520 C   0  0  0  0  0  0  0  0  0  0  0  0
   13.1280   -2.0040   21.6590 C   0  0  0  0  0  0  0  0  0  0  0  0
   11.8850   -2.0080   22.4060 C   0  0  0  0  0  0  0  0  0  0  0  0
   13.0990    1.4330   22.9560 O   0  0  0  0  0  0  0  0  0  0  0  0
   11.6320    2.0420   23.2550 N   0  0  0  0  0  0  0  0  0  0  0  0
    7.3540   -0.4930   20.9920 N   0  0  0  0  0  0  0  0  0  0  0  0
    6.5490    0.1230   20.0370 C   0  0  0  0  0  0  0  0  0  0  0  0
    5.3540    0.8170   20.2720 C   0  0  0  0  0  0  0  0  0  0  0  0
    4.6010    1.4440   19.2760 C   0  0  0  0  0  0  0  0  0  0  0  0
    5.1210    1.3540   17.9000 C   0  0  0  0  0  0  0  0  0  0  0  0
    6.3070    0.6460   17.6910 N   0  0  0  0  0  0  0  0  0  0  0  0
    6.9700    0.0630   18.7250 C   0  0  0  0  0  0  0  0  0  0  0  0
  1  2  2  0
  2  3  1  0
  3  4  1  0
  4  5  1  0
  5  6  1  0
  6  7  2  0
  7  8  1  0
  8  9  1  0
  8 10  1  0
  9 10  1  0
  7 11  1  0
  5 12  2  0
 11 12  1  0
  2 13  1  0
 13 14  1  0
 14 15  2  0
 15 16  1  0
 16 17  2  0
 17 18  1  0
 14 19  1  0
 18 19  2  0
M  END
