pyridine_urea_10279
     RDKit          3D

 23 25  0  0  0  0  0  0  0  0999 V2000
   11.2570    2.2100   23.7430 C   0  0  0  0  0  0  0  0  0  0  0  0
    9.8800    1.5870   23.7580 C   0  0  0  0  0  0  0  0  0  0  0  0
    9.8430    0.4690   22.9860 C   0  0  2  0  0  0  0  0  0  0  0  0
    8.6090   -0.2940   22.9670 N   0  0  0  0  0  0  0  0  0  0  0  0
    8.0310   -0.0550   21.6530 C   0  0  0  0  0  0  0  0  0  0  0  0
    8.5810    0.9130   21.0970 O   0  0  0  0  0  0  0  0  0  0  0  0
    6.9970   -0.7890   21.1260 N   0  0  0  0  0  0  0  0  0  0  0  0
    6.3650   -0.0700   20.0400 C   0  0  0  0  0  0  0  0  0  0  0  0
    5.1870    0.6540   20.2410 C   0  0  0  0  0  0  0  0  0  0  0  0
    4.5830    1.4200   19.0570 C   0  0  0  0  0  0  0  0  0  0  0  0
    5.1620    1.4180   17.8060 C   0  0  0  0  0  0  0  0  0  0  0  0
    6.3000    0.6740   17.7220 N   0  0  0  0  0  0  0  0  0  0  0  0
    6.9170   -0.0560   18.7460 C   0  0  0  0  0  0  0  0  0  0  0  0
   10.9620   -0.2640   23.4590 C   0  0  0  0  0  0  0  0  0  0  0  0
   10.9590   -0.8260   24.7800 C   0  0  0  0  0  0  0  0  0  0  0  0
   12.2130   -1.5350   24.9760 C   0  0  0  0  0  0  0  0  0  0  0  0
   12.6520   -1.2140   23.7820 C   0  0  0  0  0  0  0  0  0  0  0  0
   13.3300   -1.0730   22.7030 C   0  0  0  0  0  0  0  0  0  0  0  0
   12.1180   -0.4810   22.6840 C   0  0  0  0  0  0  0  0  0  0  0  0
   13.4300   -0.6730   21.6490 O   0  0  0  0  0  0  0  0  0  0  0  0
   13.1850   -2.0250   21.4060 C   0  0  0  0  0  0  0  0  0  0  0  0
   13.4470   -2.7210   22.6820 C   0  0  0  0  0  0  0  0  0  0  0  0
   13.7800   -1.9440   23.8900 O   0  0  0  0  0  0  0  0  0  0  0  0
  1  2  1  0
  3  2  1  1
  3  4  1  0
  4  5  1  0
  5  6  2  0
  5  7  1  0
  7  8  1  0
  8  9  2  0
  9 10  1  0
 10 11  2  0
 11 12  1  0
  8 13  1  0
 12 13  2  0
  3 14  1  0
 14 15  2  0
 15 16  1  0
 16 17  2  0
 17 18  1  0
 14 19  1  0
 18 19  2  0
 18 20  1  0
 20 21  1  0
 21 22  1  0
 17 23  1  0
 22 23  1  0
M  END
