pyridine_urea_10353
     RDKit          3D

 22 23  0  0  0  0  0  0  0  0999 V2000
   13.8610   -2.5940   25.4460 C   0  0  0  0  0  0  0  0  0  0  0  0
   13.9230   -1.9600   24.1610 O   0  0  0  0  0  0  0  0  0  0  0  0
   13.4890   -2.8360   23.2260 C   0  0  0  0  0  0  0  0  0  0  0  0
   12.9870   -2.2750   21.8910 C   0  0  0  0  0  0  0  0  0  0  0  0
   11.7650   -2.3920   21.9430 O   0  0  0  0  0  0  0  0  0  0  0  0
   11.3220   -1.5130   22.8360 C   0  0  0  0  0  0  0  0  0  0  0  0
    9.8870   -1.3530   22.4710 C   0  0  0  0  0  0  0  0  0  0  0  0
    8.9330   -0.3090   22.7810 N   0  0  0  0  0  0  0  0  0  0  0  0
    8.3710    0.3370   21.6910 C   0  0  0  0  0  0  0  0  0  0  0  0
    8.9050    1.5910   21.1720 O   0  0  0  0  0  0  0  0  0  0  0  0
    7.2280   -0.3950   21.1530 N   0  0  0  0  0  0  0  0  0  0  0  0
    6.5550    0.1480   20.0860 C   0  0  0  0  0  0  0  0  0  0  0  0
    5.3990    0.9010   20.3310 C   0  0  0  0  0  0  0  0  0  0  0  0
    4.7140    1.4710   19.2730 C   0  0  0  0  0  0  0  0  0  0  0  0
    5.1740    1.2930   17.9900 C   0  0  0  0  0  0  0  0  0  0  0  0
    6.2700    0.5720   17.7210 N   0  0  0  0  0  0  0  0  0  0  0  0
    6.9390    0.0130   18.7620 C   0  0  0  0  0  0  0  0  0  0  0  0
   12.1380   -0.3500   22.4650 C   0  0  0  0  0  0  0  0  0  0  0  0
   13.0030    0.2930   23.4690 C   0  0  0  0  0  0  0  0  0  0  0  0
   13.2310   -0.4240   24.6010 O   0  0  0  0  0  0  0  0  0  0  0  0
   12.7810   -1.7780   24.6950 C   0  0  0  0  0  0  0  0  0  0  0  0
   11.4920   -1.7560   24.1900 C   0  0  0  0  0  0  0  0  0  0  0  0
  1  2  1  0
  2  3  1  0
  3  4  1  0
  4  5  1  0
  6  5  1  0
  6  7  1  0
  7  8  1  0
  8  9  1  0
  9 10  2  0
  9 11  1  0
 11 12  1  0
 12 13  2  0
 13 14  1  0
 14 15  2  0
 15 16  1  0
 12 17  1  0
 16 17  2  0
  6 18  1  0
 18 19  1  0
 19 20  1  0
 20 21  1  0
  6 22  1  0
 21 22  1  0
M  END
