pyridine_urea_12928
     RDKit          3D

 19 21  0  0  0  0  0  0  0  0999 V2000
    8.9710    0.9830   21.5940 O   0  0  0  0  0  0  0  0  0  0  0  0
    8.5720   -0.1600   21.4500 C   0  0  0  0  0  0  0  0  0  0  0  0
    9.4180   -1.2350   21.5620 N   0  0  0  0  0  0  0  0  0  0  0  0
   10.2430   -1.4250   22.7400 C   0  0  0  0  0  0  0  0  0  0  0  0
   11.7700   -1.2020   22.5350 C   0  0  0  0  0  0  0  0  0  0  0  0
   12.2890   -0.1440   23.2000 C   0  0  0  0  0  0  0  0  0  0  0  0
   13.5000   -0.1240   23.2060 O   0  0  0  0  0  0  0  0  0  0  0  0
   11.7330    0.0720   24.4450 C   0  0  0  0  0  0  0  0  0  0  0  0
   11.1390    1.2170   24.1040 C   0  0  0  0  0  0  0  0  0  0  0  0
   11.6110    1.2540   22.8420 C   0  0  0  0  0  0  0  0  0  0  0  0
   12.6650   -2.3670   22.5530 C   0  0  0  0  0  0  0  0  0  0  0  0
   12.6690   -1.8780   21.4250 C   0  0  0  0  0  0  0  0  0  0  0  0
    7.2820   -0.5170   21.1270 N   0  0  0  0  0  0  0  0  0  0  0  0
    6.6020    0.0530   20.0680 C   0  0  0  0  0  0  0  0  0  0  0  0
    5.4710    0.7890   20.4390 C   0  0  0  0  0  0  0  0  0  0  0  0
    4.7270    1.4380   19.3280 C   0  0  0  0  0  0  0  0  0  0  0  0
    5.1480    1.3040   18.0350 C   0  0  0  0  0  0  0  0  0  0  0  0
    6.2350    0.5840   17.6840 N   0  0  0  0  0  0  0  0  0  0  0  0
    6.9560   -0.0430   18.7320 C   0  0  0  0  0  0  0  0  0  0  0  0
  1  2  2  0
  2  3  1  0
  3  4  1  0
  5  4  1  0
  5  6  1  0
  6  7  1  0
  6  8  1  0
  8  9  1  0
  6 10  1  0
  9 10  1  0
  5 11  1  0
  5 12  1  0
 11 12  1  0
  2 13  1  0
 13 14  1  0
 14 15  2  0
 15 16  1  0
 16 17  2  0
 17 18  1  0
 14 19  1  0
 18 19  2  0
M  END
