pyridine_urea_2454
     RDKit          3D

 24 26  0  0  0  0  0  0  0  0999 V2000
    9.4040    3.0220   22.9610 C   0  0  0  0  0  0  0  0  0  0  0  0
   10.3610    1.8370   22.8430 C   0  0  0  0  0  0  0  0  0  0  0  0
    9.7280    0.7080   22.5950 C   0  0  0  0  0  0  0  0  0  0  0  0
   10.3410   -0.4540   22.4270 C   0  0  0  0  0  0  0  0  0  0  0  0
    9.3120   -1.4340   22.1100 N   0  0  0  0  0  0  0  0  0  0  0  0
    8.3540   -0.7270   21.3850 C   0  0  0  0  0  0  0  0  0  0  0  0
    8.6150    0.4250   21.0740 O   0  0  0  0  0  0  0  0  0  0  0  0
    7.1630   -1.2470   21.0310 N   0  0  0  0  0  0  0  0  0  0  0  0
    6.4720   -0.4280   20.1580 C   0  0  0  0  0  0  0  0  0  0  0  0
    5.3020    0.2910   20.4200 C   0  0  0  0  0  0  0  0  0  0  0  0
    4.6660    1.1580   19.3510 C   0  0  0  0  0  0  0  0  0  0  0  0
    5.2740    1.2170   18.1130 C   0  0  0  0  0  0  0  0  0  0  0  0
    6.4050    0.5260   17.8460 N   0  0  0  0  0  0  0  0  0  0  0  0
    6.9590   -0.2560   18.8420 C   0  0  0  0  0  0  0  0  0  0  0  0
   11.8510   -0.5300   22.5540 C   0  0  0  0  0  0  0  0  0  0  0  0
   12.5350    0.7010   22.8300 C   0  0  0  0  0  0  0  0  0  0  0  0
   11.7250    1.8930   22.9600 C   0  0  0  0  0  0  0  0  0  0  0  0
   12.0070    3.2350   23.2040 C   0  0  0  0  0  0  0  0  0  0  0  0
   11.0100    3.8270   23.9880 C   0  0  0  0  0  0  0  0  0  0  0  0
   11.0400    5.1320   24.3720 C   0  0  0  0  0  0  0  0  0  0  0  0
   12.0840    5.9010   23.9710 C   0  0  0  0  0  0  0  0  0  0  0  0
   11.9790    7.6780   24.6000 Br  0  0  0  0  0  0  0  0  0  0  0  0
   13.1200    5.3730   23.1680 C   0  0  0  0  0  0  0  0  0  0  0  0
   13.0860    4.0110   22.7770 C   0  0  0  0  0  0  0  0  0  0  0  0
  1  2  1  0
  2  3  2  0
  3  4  1  0
  4  5  1  0
  5  6  1  0
  6  7  2  0
  6  8  1  0
  8  9  1  0
  9 10  2  0
 10 11  1  0
 11 12  2  0
 12 13  1  0
  9 14  1  0
 13 14  2  0
  4 15  2  0
 15 16  1  0
  2 17  1  0
 16 17  2  0
 17 18  1  0
 18 19  2  0
 19 20  1  0
 20 21  2  0
 21 22  1  0
 21 23  1  0
 18 24  1  0
 23 24  2  0
M  END
