pyridine_urea_12086
     RDKit          3D

 23 25  0  0  0  0  0  0  0  0999 V2000
    7.9650    0.7030   24.9920 C   0  0  0  0  0  0  0  0  0  0  0  0
    8.7820   -0.1910   25.9250 C   0  0  0  0  0  0  0  0  0  0  0  0
    8.4950    0.0740   27.2650 C   0  0  0  0  0  0  0  0  0  0  0  0
   10.2070   -0.0130   25.7340 O   0  0  0  0  0  0  0  0  0  0  0  0
   10.8510   -0.3540   24.5520 C   0  0  0  0  0  0  0  0  0  0  0  0
    9.9100   -0.9410   23.4980 C   0  0  0  0  0  0  0  0  0  0  0  0
   10.2130   -1.4270   22.1280 C   0  0  0  0  0  0  0  0  0  0  0  0
   11.4970   -1.2320   22.0570 C   0  0  0  0  0  0  0  0  0  0  0  0
   12.4830   -0.6400   23.0880 C   0  0  0  0  0  0  0  0  0  0  0  0
   12.3490   -0.1730   24.3060 C   0  0  0  0  0  0  0  0  0  0  0  0
   11.4800   -0.4250   24.0170 C   0  0  0  0  0  0  0  0  0  0  0  0
   10.4160    0.0560   23.4800 C   0  0  0  0  0  0  0  0  0  0  0  0
   10.3420   -1.0790   22.8580 C   0  0  1  0  0  0  0  0  0  0  0  0
    9.2480   -1.1490   21.9500 N   0  0  0  0  0  0  0  0  0  0  0  0
    8.4990   -0.1000   21.4140 C   0  0  0  0  0  0  0  0  0  0  0  0
    8.8800    1.2110   21.1740 O   0  0  0  0  0  0  0  0  0  0  0  0
    7.2110   -0.4860   21.0790 N   0  0  0  0  0  0  0  0  0  0  0  0
    6.5050    0.1110   20.0330 C   0  0  0  0  0  0  0  0  0  0  0  0
    5.3420    0.8270   20.3150 C   0  0  0  0  0  0  0  0  0  0  0  0
    4.6490    1.4380   19.2730 C   0  0  0  0  0  0  0  0  0  0  0  0
    5.1430    1.3100   17.9880 C   0  0  0  0  0  0  0  0  0  0  0  0
    6.2520    0.6190   17.6950 N   0  0  0  0  0  0  0  0  0  0  0  0
    6.9040    0.0370   18.7200 C   0  0  0  0  0  0  0  0  0  0  0  0
  1  2  1  0
  2  3  1  0
  2  4  1  0
  4  5  1  0
  5  6  2  0
  6  7  1  0
  7  8  2  0
  8  9  1  0
  5 10  1  0
  9 10  2  0
  9 11  1  0
 11 12  1  0
  8 13  1  0
 12 13  1  0
 13 14  1  6
 14 15  1  0
 15 16  2  0
 15 17  1  0
 17 18  1  0
 18 19  2  0
 19 20  1  0
 20 21  2  0
 21 22  1  0
 18 23  1  0
 22 23  2  0
M  END
