pyridine_urea_2550
     RDKit          3D

 24 25  0  0  0  0  0  0  0  0999 V2000
   11.9220    4.1010   21.3850 C   0  0  0  0  0  0  0  0  0  0  0  0
   12.8740    4.7990   21.9680 N   0  0  0  0  0  0  0  0  0  0  0  0
   12.8410    6.1700   22.2100 C   0  0  0  0  0  0  0  0  0  0  0  0
   13.2780    3.9700   22.9210 C   0  0  0  0  0  0  0  0  0  0  0  0
   12.3600    2.9170   23.1080 C   0  0  0  0  0  0  0  0  0  0  0  0
   11.1680    3.0930   23.3280 O   0  0  0  0  0  0  0  0  0  0  0  0
   13.0960    1.6510   23.0070 N   0  0  0  0  0  0  0  0  0  0  0  0
   12.3750    0.4460   23.1790 C   0  0  0  0  0  0  0  0  0  0  0  0
   12.9030   -0.4350   24.0530 C   0  0  0  0  0  0  0  0  0  0  0  0
   12.2270   -1.5360   24.1950 C   0  0  0  0  0  0  0  0  0  0  0  0
   11.0530   -2.1850   23.7210 C   0  0  0  0  0  0  0  0  0  0  0  0
   10.5220   -1.2630   22.8260 C   0  0  0  0  0  0  0  0  0  0  0  0
    9.3770   -1.5550   22.1920 C   0  0  0  0  0  0  0  0  0  0  0  0
    8.3910   -0.7300   22.4930 N   0  0  0  0  0  0  0  0  0  0  0  0
    8.0240    0.0230   21.4570 C   0  0  0  0  0  0  0  0  0  0  0  0
    8.6410    1.2510   21.0530 O   0  0  0  0  0  0  0  0  0  0  0  0
    6.9760   -0.5940   20.8960 N   0  0  0  0  0  0  0  0  0  0  0  0
    6.3220    0.0970   19.9580 C   0  0  0  0  0  0  0  0  0  0  0  0
    5.1440    0.8200   20.1420 C   0  0  0  0  0  0  0  0  0  0  0  0
    4.5600    1.5070   19.0920 C   0  0  0  0  0  0  0  0  0  0  0  0
    5.2070    1.4350   17.8700 C   0  0  0  0  0  0  0  0  0  0  0  0
    6.3380    0.7490   17.6440 N   0  0  0  0  0  0  0  0  0  0  0  0
    6.8650    0.0970   18.6920 C   0  0  0  0  0  0  0  0  0  0  0  0
   11.1780    0.0110   22.5780 C   0  0  0  0  0  0  0  0  0  0  0  0
  1  2  1  0
  2  3  1  0
  2  4  1  0
  4  5  1  0
  5  6  2  0
  5  7  1  0
  7  8  1  0
  8  9  2  0
  9 10  1  0
 10 11  2  0
 11 12  1  0
 12 13  1  0
 13 14  1  0
 14 15  1  0
 15 16  2  0
 15 17  1  0
 17 18  1  0
 18 19  2  0
 19 20  1  0
 20 21  2  0
 21 22  1  0
 18 23  1  0
 22 23  2  0
  8 24  1  0
 12 24  2  0
M  END
