pyridine_urea_6833
     RDKit          3D

 21 23  0  0  0  0  0  0  0  0999 V2000
    9.0480    0.3280   21.4590 O   0  0  0  0  0  0  0  0  0  0  0  0
    8.2650   -0.6040   21.6190 C   0  0  0  0  0  0  0  0  0  0  0  0
    8.4610   -1.7490   22.3650 N   0  0  0  0  0  0  0  0  0  0  0  0
    7.3930   -2.6370   22.7130 C   0  0  0  0  0  0  0  0  0  0  0  0
    7.5710   -4.0030   23.4150 C   0  0  0  0  0  0  0  0  0  0  0  0
    6.7080   -5.1290   22.7710 C   0  0  0  0  0  0  0  0  0  0  0  0
    5.2730   -5.2360   23.2590 C   0  0  0  0  0  0  0  0  0  0  0  0
    4.5610   -4.2860   23.8570 N   0  0  0  0  0  0  0  0  0  0  0  0
    3.2840   -4.5750   24.2300 N   0  0  0  0  0  0  0  0  0  0  0  0
    3.2330   -5.9240   23.7760 C   0  0  0  0  0  0  0  0  0  0  0  0
    2.1470   -6.7980   23.8850 C   0  0  0  0  0  0  0  0  0  0  0  0
    1.8110   -7.6190   22.9310 C   0  0  0  0  0  0  0  0  0  0  0  0
    0.8080   -6.6450   22.9130 C   0  0  0  0  0  0  0  0  0  0  0  0
    4.4320   -6.2910   23.1930 N   0  0  0  0  0  0  0  0  0  0  0  0
    6.9940   -0.7160   21.0960 N   0  0  0  0  0  0  0  0  0  0  0  0
    6.3630    0.0200   20.0840 C   0  0  0  0  0  0  0  0  0  0  0  0
    5.1890    0.7820   20.2870 C   0  0  0  0  0  0  0  0  0  0  0  0
    4.5590    1.5230   19.2420 C   0  0  0  0  0  0  0  0  0  0  0  0
    5.2900    1.3990   17.9090 C   0  0  0  0  0  0  0  0  0  0  0  0
    6.3980    0.6840   17.7010 N   0  0  0  0  0  0  0  0  0  0  0  0
    6.9210   -0.0110   18.8250 C   0  0  0  0  0  0  0  0  0  0  0  0
  1  2  2  0
  2  3  1  0
  3  4  1  0
  4  5  1  0
  5  6  1  0
  6  7  1  0
  7  8  2  0
  8  9  1  0
  9 10  2  0
 10 11  1  0
 11 12  1  0
 11 13  1  0
 12 13  1  0
  7 14  1  0
 10 14  1  0
  2 15  1  0
 15 16  1  0
 16 17  2  0
 17 18  1  0
 18 19  2  0
 19 20  1  0
 16 21  1  0
 20 21  2  0
M  END
