pyridine_urea_5886
     RDKit          3D

 28 30  0  0  0  0  0  0  0  0999 V2000
    8.6730    0.3880   21.1680 O   0  0  0  0  0  0  0  0  0  0  0  0
    8.2930   -0.7300   21.5050 C   0  0  0  0  0  0  0  0  0  0  0  0
    6.9730   -1.1590   21.0810 N   0  0  0  0  0  0  0  0  0  0  0  0
    6.3850   -0.3450   20.0920 C   0  0  0  0  0  0  0  0  0  0  0  0
    5.1890    0.3430   20.3370 C   0  0  0  0  0  0  0  0  0  0  0  0
    4.6440    1.1440   19.3210 C   0  0  0  0  0  0  0  0  0  0  0  0
    5.3080    1.2350   18.0930 C   0  0  0  0  0  0  0  0  0  0  0  0
    6.4540    0.5790   17.8420 N   0  0  0  0  0  0  0  0  0  0  0  0
    6.9690   -0.1940   18.8430 C   0  0  0  0  0  0  0  0  0  0  0  0
    9.0540   -1.6130   22.2830 N   0  0  0  0  0  0  0  0  0  0  0  0
   10.2240   -0.8390   22.5650 C   0  0  0  0  0  0  0  0  0  0  0  0
   11.6450   -1.1320   22.0830 C   0  0  0  0  0  0  0  0  0  0  0  0
   12.6550   -0.2160   22.3540 C   0  0  0  0  0  0  0  0  0  0  0  0
   12.3950    0.9700   23.0490 C   0  0  0  0  0  0  0  0  0  0  0  0
   13.3610    1.9560   23.2370 O   0  0  0  0  0  0  0  0  0  0  0  0
   12.6120    3.2040   23.2220 C   0  0  0  0  0  0  0  0  0  0  0  0
   13.2850    4.4070   23.0700 C   0  0  0  0  0  0  0  0  0  0  0  0
   12.5470    5.5990   23.1120 C   0  0  0  0  0  0  0  0  0  0  0  0
   11.1460    5.5950   23.3020 C   0  0  0  0  0  0  0  0  0  0  0  0
   10.3190    6.7150   23.3900 C   0  0  0  0  0  0  0  0  0  0  0  0
    9.1090    6.3520   23.8890 F   0  0  0  0  0  0  0  0  0  0  0  0
   10.8090    7.6210   24.2530 F   0  0  0  0  0  0  0  0  0  0  0  0
   10.0750    7.2960   22.2130 F   0  0  0  0  0  0  0  0  0  0  0  0
   10.5570    4.3360   23.4210 C   0  0  0  0  0  0  0  0  0  0  0  0
   11.2220    3.1850   23.3880 N   0  0  0  0  0  0  0  0  0  0  0  0
   10.9890    1.1970   23.5730 C   0  0  0  0  0  0  0  0  0  0  0  0
   10.7320    2.2940   24.2640 F   0  0  0  0  0  0  0  0  0  0  0  0
    9.9070    0.3930   23.3940 C   0  0  0  0  0  0  0  0  0  0  0  0
  1  2  2  0
  2  3  1  0
  3  4  1  0
  4  5  2  0
  5  6  1  0
  6  7  2  0
  7  8  1  0
  4  9  1  0
  8  9  2  0
  2 10  1  0
 10 11  1  0
 11 12  2  0
 12 13  1  0
 13 14  2  0
 14 15  1  0
 15 16  1  0
 16 17  2  0
 17 18  1  0
 18 19  2  0
 19 20  1  0
 20 21  1  0
 20 22  1  0
 20 23  1  0
 19 24  1  0
 16 25  1  0
 24 25  2  0
 14 26  1  0
 26 27  1  0
 11 28  1  0
 26 28  2  0
M  END
