pyridine_urea_15031
     RDKit          3D

 19 20  0  0  0  0  0  0  0  0999 V2000
    8.9630    0.9310   21.5210 O   0  0  0  0  0  0  0  0  0  0  0  0
    8.5850   -0.2310   21.4630 C   0  0  0  0  0  0  0  0  0  0  0  0
    7.2570   -0.5740   21.2660 N   0  0  0  0  0  0  0  0  0  0  0  0
    6.5580    0.0320   20.1540 C   0  0  0  0  0  0  0  0  0  0  0  0
    5.2940    0.8280   20.4770 C   0  0  0  0  0  0  0  0  0  0  0  0
    4.5590    1.4930   19.3130 C   0  0  0  0  0  0  0  0  0  0  0  0
    5.1800    1.2880   17.9330 C   0  0  0  0  0  0  0  0  0  0  0  0
    6.3390    0.5220   17.8010 N   0  0  0  0  0  0  0  0  0  0  0  0
    6.9880   -0.0740   18.8450 C   0  0  0  0  0  0  0  0  0  0  0  0
    9.4280   -1.3270   21.5380 N   0  0  0  0  0  0  0  0  0  0  0  0
   10.4360   -1.4890   22.5310 C   0  0  0  0  0  0  0  0  0  0  0  0
   10.2310   -2.3800   23.5820 C   0  0  0  0  0  0  0  0  0  0  0  0
   11.3520   -2.7920   24.3250 C   0  0  0  0  0  0  0  0  0  0  0  0
   12.3830   -2.7600   23.6700 O   0  0  0  0  0  0  0  0  0  0  0  0
   10.8200   -0.1550   23.1300 C   0  0  0  0  0  0  0  0  0  0  0  0
   12.4680   -0.3790   23.0570 S   0  0  0  0  0  0  0  0  0  0  0  0
   12.9400   -0.8830   24.3250 O   0  0  0  0  0  0  0  0  0  0  0  0
   13.1340    0.6820   22.3620 O   0  0  0  0  0  0  0  0  0  0  0  0
   11.7690   -1.6650   22.0080 C   0  0  0  0  0  0  0  0  0  0  0  0
  1  2  2  0
  2  3  1  0
  3  4  1  0
  4  5  2  0
  5  6  1  0
  6  7  2  0
  7  8  1  0
  4  9  1  0
  8  9  2  0
  2 10  1  0
 11 10  1  0
 11 12  1  0
 12 13  1  0
 13 14  1  0
 11 15  1  0
 16 15  1  0
 16 17  2  0
 16 18  2  0
 11 19  1  0
 16 19  1  0
M  END
