pyridine_urea_2125
     RDKit          3D

 24 26  0  0  0  0  0  0  0  0999 V2000
    8.9980    1.2210   21.2270 O   0  0  0  0  0  0  0  0  0  0  0  0
    8.6050    0.0620   21.4370 C   0  0  0  0  0  0  0  0  0  0  0  0
    7.4330   -0.5010   20.9790 N   0  0  0  0  0  0  0  0  0  0  0  0
    6.5710    0.1270   20.0780 C   0  0  0  0  0  0  0  0  0  0  0  0
    5.2700    0.8500   20.4640 C   0  0  0  0  0  0  0  0  0  0  0  0
    4.5330    1.4680   19.2800 C   0  0  0  0  0  0  0  0  0  0  0  0
    5.1450    1.3010   17.9280 C   0  0  0  0  0  0  0  0  0  0  0  0
    6.2850    0.6380   17.7060 N   0  0  0  0  0  0  0  0  0  0  0  0
    6.9400    0.0890   18.7450 C   0  0  0  0  0  0  0  0  0  0  0  0
    9.3380   -0.8570   22.1490 N   0  0  0  0  0  0  0  0  0  0  0  0
   10.3480   -0.4750   23.1050 C   0  0  2  0  0  0  0  0  0  0  0  0
   11.5810   -0.3130   22.5010 C   0  0  0  0  0  0  0  0  0  0  0  0
   12.5300   -0.7510   23.3540 C   0  0  0  0  0  0  0  0  0  0  0  0
   11.8470   -1.5910   24.1940 C   0  0  0  0  0  0  0  0  0  0  0  0
   10.4250   -1.4740   24.0720 C   0  0  2  0  0  0  0  0  0  0  0  0
    9.9440   -2.6880   23.4790 O   0  0  0  0  0  0  0  0  0  0  0  0
    8.5590   -2.9640   23.8060 C   0  0  0  0  0  0  0  0  0  0  0  0
    7.7460   -1.8780   24.4720 C   0  0  0  0  0  0  0  0  0  0  0  0
    6.4270   -2.0690   24.8210 C   0  0  0  0  0  0  0  0  0  0  0  0
    5.7250   -1.0520   25.4300 F   0  0  0  0  0  0  0  0  0  0  0  0
    5.7950   -3.2880   24.5630 C   0  0  0  0  0  0  0  0  0  0  0  0
    6.4760   -4.3500   23.9420 C   0  0  0  0  0  0  0  0  0  0  0  0
    5.7400   -5.4790   23.7490 F   0  0  0  0  0  0  0  0  0  0  0  0
    7.8110   -4.2790   23.5440 C   0  0  0  0  0  0  0  0  0  0  0  0
  1  2  2  0
  2  3  1  0
  3  4  1  0
  4  5  2  0
  5  6  1  0
  6  7  2  0
  7  8  1  0
  4  9  1  0
  8  9  2  0
  2 10  1  0
 11 10  1  6
 11 12  1  0
 12 13  1  0
 13 14  1  0
 11 15  1  0
 14 15  1  0
 15 16  1  6
 16 17  1  0
 17 18  2  0
 18 19  1  0
 19 20  1  0
 19 21  2  0
 21 22  1  0
 22 23  1  0
 17 24  1  0
 22 24  2  0
M  END
