pyridine_urea_9916
     RDKit          3D

 25 27  0  0  0  0  0  0  0  0999 V2000
   13.5800   -0.6590   22.1930 C   0  0  0  0  0  0  0  0  0  0  0  0
   12.2100   -0.6620   22.7240 C   0  0  0  0  0  0  0  0  0  0  0  0
   12.0880   -0.0050   24.0750 C   0  0  0  0  0  0  0  0  0  0  0  0
   10.7240    0.0010   24.6930 C   0  0  0  0  0  0  0  0  0  0  0  0
    9.6090   -0.6160   23.9280 C   0  0  0  0  0  0  0  0  0  0  0  0
    8.5110   -0.5910   24.4780 O   0  0  0  0  0  0  0  0  0  0  0  0
    8.4720    0.5060   25.3620 C   0  0  0  0  0  0  0  0  0  0  0  0
    8.2680    0.0110   26.7900 C   0  0  0  0  0  0  0  0  0  0  0  0
    8.3130   -1.3540   27.0220 C   0  0  0  0  0  0  0  0  0  0  0  0
    8.1330   -1.8610   28.3000 C   0  0  0  0  0  0  0  0  0  0  0  0
    7.9070   -1.0280   29.3860 C   0  0  0  0  0  0  0  0  0  0  0  0
    7.8600    0.3490   29.1810 C   0  0  0  0  0  0  0  0  0  0  0  0
    8.0390    0.8590   27.8910 C   0  0  0  0  0  0  0  0  0  0  0  0
    9.8020   -1.1710   22.6910 C   0  0  0  0  0  0  0  0  0  0  0  0
    8.6390   -1.6700   22.0730 N   0  0  0  0  0  0  0  0  0  0  0  0
    8.0230   -0.5700   21.3440 C   0  0  0  0  0  0  0  0  0  0  0  0
    8.6590    0.6310   21.1750 O   0  0  0  0  0  0  0  0  0  0  0  0
    6.7830   -0.8810   20.8850 N   0  0  0  0  0  0  0  0  0  0  0  0
    6.1670   -0.0890   19.9270 C   0  0  0  0  0  0  0  0  0  0  0  0
    4.9910    0.6260   20.0800 C   0  0  0  0  0  0  0  0  0  0  0  0
    4.4750    1.3890   19.0670 C   0  0  0  0  0  0  0  0  0  0  0  0
    5.1660    1.4320   17.8640 C   0  0  0  0  0  0  0  0  0  0  0  0
    6.3130    0.7480   17.6680 N   0  0  0  0  0  0  0  0  0  0  0  0
    6.7830    0.0090   18.6950 C   0  0  0  0  0  0  0  0  0  0  0  0
   11.1720   -1.2240   22.0320 C   0  0  0  0  0  0  0  0  0  0  0  0
  1  2  1  0
  2  3  2  0
  3  4  1  0
  4  5  2  0
  5  6  1  0
  6  7  1  0
  7  8  1  0
  8  9  2  0
  9 10  1  0
 10 11  2  0
 11 12  1  0
  8 13  1  0
 12 13  2  0
  5 14  1  0
 14 15  1  0
 15 16  1  0
 16 17  2  0
 16 18  1  0
 18 19  1  0
 19 20  2  0
 20 21  1  0
 21 22  2  0
 22 23  1  0
 19 24  1  0
 23 24  2  0
  2 25  1  0
 14 25  2  0
M  END
