pyridine_urea_8612
     RDKit          3D

 21 22  0  0  0  0  0  0  0  0999 V2000
    9.3610    0.0650   26.6240 C   0  0  0  0  0  0  0  0  0  0  0  0
   10.6460   -0.2850   26.1090 O   0  0  0  0  0  0  0  0  0  0  0  0
   10.7150   -0.5710   24.7950 C   0  0  0  0  0  0  0  0  0  0  0  0
    9.5670   -0.6550   24.0420 C   0  0  0  0  0  0  0  0  0  0  0  0
    9.6400   -0.9880   22.7150 C   0  0  0  0  0  0  0  0  0  0  0  0
    8.7040   -1.1680   21.8230 N   0  0  0  0  0  0  0  0  0  0  0  0
    8.0740   -0.1190   21.3530 C   0  0  0  0  0  0  0  0  0  0  0  0
    8.6010    0.9720   21.1890 O   0  0  0  0  0  0  0  0  0  0  0  0
    6.8200   -0.4920   21.1010 N   0  0  0  0  0  0  0  0  0  0  0  0
    6.2600    0.1450   20.0740 C   0  0  0  0  0  0  0  0  0  0  0  0
    5.1030    0.9120   20.1630 C   0  0  0  0  0  0  0  0  0  0  0  0
    4.5130    1.6320   18.9560 C   0  0  0  0  0  0  0  0  0  0  0  0
    5.1780    1.4960   17.7590 C   0  0  0  0  0  0  0  0  0  0  0  0
    6.3010    0.7300   17.7190 N   0  0  0  0  0  0  0  0  0  0  0  0
    6.8490    0.0630   18.8150 C   0  0  0  0  0  0  0  0  0  0  0  0
   10.9490   -1.2270   22.0880 C   0  0  0  0  0  0  0  0  0  0  0  0
   12.0510   -1.1240   22.8490 C   0  0  0  0  0  0  0  0  0  0  0  0
   13.4760   -1.4240   22.0450 Cl  0  0  0  0  0  0  0  0  0  0  0  0
   11.9630   -0.8120   24.1960 C   0  0  0  0  0  0  0  0  0  0  0  0
   13.0790   -0.7740   24.9350 O   0  0  0  0  0  0  0  0  0  0  0  0
   13.5290   -2.1000   25.2160 C   0  0  0  0  0  0  0  0  0  0  0  0
  1  2  1  0
  2  3  1  0
  3  4  2  0
  4  5  1  0
  5  6  1  0
  6  7  1  0
  7  8  2  0
  7  9  1  0
  9 10  1  0
 10 11  2  0
 11 12  1  0
 12 13  2  0
 13 14  1  0
 10 15  1  0
 14 15  2  0
  5 16  2  0
 16 17  1  0
 17 18  1  0
  3 19  1  0
 17 19  2  0
 19 20  1  0
 20 21  1  0
M  END
