pyridine_urea_4572
     RDKit          3D

 23 25  0  0  0  0  0  0  0  0999 V2000
    8.8750    1.6280   21.0430 O   0  0  0  0  0  0  0  0  0  0  0  0
    8.4260    0.6330   21.5940 C   0  0  0  0  0  0  0  0  0  0  0  0
    8.9040    0.1970   22.7880 N   0  0  0  0  0  0  0  0  0  0  0  0
    9.8720   -0.8380   22.7000 C   0  0  0  0  0  0  0  0  0  0  0  0
   11.3410   -0.4600   22.8860 C   0  0  0  0  0  0  0  0  0  0  0  0
   10.5720    0.0340   24.1810 C   0  0  0  0  0  0  0  0  0  0  0  0
   11.8990    0.1180   23.9430 C   0  0  0  0  0  0  0  0  0  0  0  0
   12.1050   -0.4520   22.5520 C   0  0  0  0  0  0  0  0  0  0  0  0
   12.9580   -0.1030   23.2870 O   0  0  0  0  0  0  0  0  0  0  0  0
   13.2190   -1.4300   23.5680 C   0  0  0  0  0  0  0  0  0  0  0  0
   12.4360   -2.3530   22.9070 C   0  0  0  0  0  0  0  0  0  0  0  0
   11.4300   -2.6320   23.7400 C   0  0  0  0  0  0  0  0  0  0  0  0
   11.9750   -2.4050   24.9500 C   0  0  0  0  0  0  0  0  0  0  0  0
   13.1380   -1.6030   24.9620 C   0  0  0  0  0  0  0  0  0  0  0  0
   13.1920   -0.5340   22.0320 N   0  0  0  0  0  0  0  0  0  0  0  0
   12.8900    0.0700   23.3510 C   0  0  0  0  0  0  0  0  0  0  0  0
    7.4010   -0.1510   21.0910 N   0  0  0  0  0  0  0  0  0  0  0  0
    6.6040    0.3190   20.1250 C   0  0  0  0  0  0  0  0  0  0  0  0
    5.4380    1.0530   20.3020 C   0  0  0  0  0  0  0  0  0  0  0  0
    4.6390    1.5610   19.1740 C   0  0  0  0  0  0  0  0  0  0  0  0
    5.1370    1.2500   17.9280 C   0  0  0  0  0  0  0  0  0  0  0  0
    6.2540    0.5300   17.7140 N   0  0  0  0  0  0  0  0  0  0  0  0
    6.9430    0.0910   18.7970 C   0  0  0  0  0  0  0  0  0  0  0  0
  1  2  2  0
  2  3  1  0
  3  4  1  0
  4  5  1  0
  5  6  2  0
  6  7  1  0
  7  8  2  0
  8  9  1  0
  9 10  1  0
 10 11  1  0
 11 12  1  0
 12 13  1  0
 10 14  1  0
 13 14  1  0
  8 15  1  0
  5 16  1  0
 15 16  2  0
  2 17  1  0
 17 18  1  0
 18 19  2  0
 19 20  1  0
 20 21  2  0
 21 22  1  0
 18 23  1  0
 22 23  2  0
M  END
