pyridine_urea_8329
     RDKit          3D

 22 24  0  0  0  0  0  0  0  0999 V2000
   11.9530   -2.6480   24.4900 C   0  0  0  0  0  0  0  0  0  0  0  0
   10.9340   -2.1690   23.6060 O   0  0  0  0  0  0  0  0  0  0  0  0
   11.4270   -2.1000   22.2610 C   0  0  0  0  0  0  0  0  0  0  0  0
   12.2460   -2.9330   22.5800 O   0  0  0  0  0  0  0  0  0  0  0  0
   10.2480   -1.0700   22.2810 C   0  0  1  0  0  0  0  0  0  0  0  0
    8.9020   -1.5070   22.0440 N   0  0  0  0  0  0  0  0  0  0  0  0
    8.1230   -0.5510   21.4270 C   0  0  0  0  0  0  0  0  0  0  0  0
    8.5130    0.5960   21.2900 O   0  0  0  0  0  0  0  0  0  0  0  0
    6.8520   -1.0210   20.9630 N   0  0  0  0  0  0  0  0  0  0  0  0
    6.2590   -0.2290   20.0140 C   0  0  0  0  0  0  0  0  0  0  0  0
    5.0770    0.4560   20.3150 C   0  0  0  0  0  0  0  0  0  0  0  0
    4.4700    1.3260   19.2250 C   0  0  0  0  0  0  0  0  0  0  0  0
    5.2350    1.3430   17.9290 C   0  0  0  0  0  0  0  0  0  0  0  0
    6.3660    0.6510   17.7240 N   0  0  0  0  0  0  0  0  0  0  0  0
    6.8410   -0.1040   18.7510 C   0  0  0  0  0  0  0  0  0  0  0  0
   10.2530   -0.0120   23.3360 C   0  0  2  0  0  0  0  0  0  0  0  0
   10.2530    1.2850   22.5750 C   0  0  0  0  0  0  0  0  0  0  0  0
   11.7190    1.5970   22.8270 C   0  0  2  0  0  0  0  0  0  0  0  0
   12.7340    0.5910   22.6910 C   0  0  0  0  0  0  0  0  0  0  0  0
   12.4940   -0.3110   23.7150 C   0  0  0  0  0  0  0  0  0  0  0  0
   11.3100    0.1640   24.2110 C   0  0  1  0  0  0  0  0  0  0  0  0
   11.6500    1.4580   24.1250 C   0  0  0  0  0  0  0  0  0  0  0  0
  1  2  1  0
  2  3  1  0
  3  4  2  0
  3  5  1  0
  5  6  1  1
  6  7  1  0
  7  8  2  0
  7  9  1  0
  9 10  1  0
 10 11  2  0
 11 12  1  0
 12 13  2  0
 13 14  1  0
 10 15  1  0
 14 15  2  0
  5 16  1  0
 16 17  1  6
 18 17  1  6
 18 19  1  0
 19 20  1  0
 16 21  1  0
 21 20  1  6
 18 22  1  0
 21 22  1  0
M  END
