pyridine_urea_205
     RDKit          3D

 19 21  0  0  0  0  0  0  0  0999 V2000
    8.6720    0.6860   21.3200 O   0  0  0  0  0  0  0  0  0  0  0  0
    8.1080   -0.3550   21.6370 C   0  0  0  0  0  0  0  0  0  0  0  0
    6.9540   -0.8160   21.0590 N   0  0  0  0  0  0  0  0  0  0  0  0
    6.3840   -0.0750   19.9640 C   0  0  0  0  0  0  0  0  0  0  0  0
    5.0940    0.6770   20.2630 C   0  0  0  0  0  0  0  0  0  0  0  0
    4.5380    1.4350   19.1090 C   0  0  0  0  0  0  0  0  0  0  0  0
    5.2180    1.3930   17.9040 C   0  0  0  0  0  0  0  0  0  0  0  0
    6.3560    0.7050   17.6980 N   0  0  0  0  0  0  0  0  0  0  0  0
    6.9070   -0.0010   18.7040 C   0  0  0  0  0  0  0  0  0  0  0  0
    8.5380   -1.2090   22.6210 N   0  0  0  0  0  0  0  0  0  0  0  0
    9.9220   -1.1010   23.0990 C   0  0  2  0  0  0  0  0  0  0  0  0
   10.1750   -0.0250   23.8270 C   0  0  0  0  0  0  0  0  0  0  0  0
   10.9050   -0.0010   22.5710 C   0  0  1  0  0  0  0  0  0  0  0  0
   12.2490   -0.2450   22.6240 C   0  0  0  0  0  0  0  0  0  0  0  0
   12.6160   -1.5530   22.3800 C   0  0  0  0  0  0  0  0  0  0  0  0
   12.9650   -2.1570   23.5720 C   0  0  0  0  0  0  0  0  0  0  0  0
   11.9150   -2.1370   24.6620 C   0  0  0  0  0  0  0  0  0  0  0  0
   12.9200   -1.0180   24.7560 C   0  0  0  0  0  0  0  0  0  0  0  0
   12.7450    0.1390   23.8150 C   0  0  0  0  0  0  0  0  0  0  0  0
  1  2  2  0
  2  3  1  0
  3  4  1  0
  4  5  2  0
  5  6  1  0
  6  7  2  0
  7  8  1  0
  4  9  1  0
  8  9  2  0
  2 10  1  0
 11 10  1  6
 11 12  1  0
 11 13  1  0
 12 13  1  0
 13 14  1  1
 14 15  1  0
 15 16  1  0
 16 17  1  0
 17 18  1  0
 14 19  1  0
 18 19  1  0
M  END
