pyridine_urea_15109
     RDKit          3D

 18 18  0  0  0  0  0  0  0  0999 V2000
    8.8660    0.7970   21.3320 O   0  0  0  0  0  0  0  0  0  0  0  0
    8.4190   -0.3310   21.4500 C   0  0  0  0  0  0  0  0  0  0  0  0
    9.1260   -1.3420   22.0600 N   0  0  0  0  0  0  0  0  0  0  0  0
   10.3950   -0.9670   22.6480 C   0  0  0  0  0  0  0  0  0  0  0  0
   11.5800   -1.7940   22.1650 C   0  0  0  0  0  0  0  0  0  0  0  0
   12.9030   -1.0630   22.3230 C   0  0  0  0  0  0  0  0  0  0  0  0
   12.6910    0.3220   22.9040 C   0  0  0  0  0  0  0  0  0  0  0  0
   11.8390    0.3920   24.1440 C   0  0  0  0  0  0  0  0  0  0  0  0
   10.5880    1.2740   23.9850 C   0  0  0  0  0  0  0  0  0  0  0  0
   10.9860    2.4900   23.4120 C   0  0  0  0  0  0  0  0  0  0  0  0
   10.2190    3.6090   23.6560 O   0  0  0  0  0  0  0  0  0  0  0  0
    7.1820   -0.7370   20.9990 N   0  0  0  0  0  0  0  0  0  0  0  0
    6.4290   -0.0350   20.0490 C   0  0  0  0  0  0  0  0  0  0  0  0
    5.2540    0.6560   20.2870 C   0  0  0  0  0  0  0  0  0  0  0  0
    4.6110    1.3290   19.2520 C   0  0  0  0  0  0  0  0  0  0  0  0
    5.1810    1.2880   17.9820 C   0  0  0  0  0  0  0  0  0  0  0  0
    6.3160    0.6190   17.7290 N   0  0  0  0  0  0  0  0  0  0  0  0
    6.9050   -0.0200   18.7530 C   0  0  0  0  0  0  0  0  0  0  0  0
  1  2  2  0
  2  3  1  0
  3  4  1  0
  4  5  1  0
  5  6  1  0
  6  7  1  0
  7  8  1  0
  8  9  1  0
  9 10  1  0
 10 11  1  0
  2 12  1  0
 12 13  1  0
 13 14  2  0
 14 15  1  0
 15 16  2  0
 16 17  1  0
 13 18  1  0
 17 18  2  0
M  END
