pyridine_urea_1079
     RDKit          3D

 22 24  0  0  0  0  0  0  0  0999 V2000
   13.1890    5.1130   22.5240 C   0  0  0  0  0  0  0  0  0  0  0  0
   11.8370    4.8850   22.9370 O   0  0  0  0  0  0  0  0  0  0  0  0
   11.4400    3.5840   22.8520 C   0  0  0  0  0  0  0  0  0  0  0  0
   10.0600    3.2700   22.5970 C   0  0  0  0  0  0  0  0  0  0  0  0
    9.5550    1.9310   22.4840 C   0  0  0  0  0  0  0  0  0  0  0  0
   10.4380    0.8480   22.6320 C   0  0  0  0  0  0  0  0  0  0  0  0
   11.7670    1.1630   22.8920 C   0  0  0  0  0  0  0  0  0  0  0  0
   12.3540    2.5090   23.0080 C   0  0  0  0  0  0  0  0  0  0  0  0
   12.9570    0.3520   23.1120 C   0  0  0  0  0  0  0  0  0  0  0  0
   12.6070   -0.9760   22.8850 C   0  0  0  0  0  0  0  0  0  0  0  0
   11.2450   -1.2590   23.2920 C   0  0  0  0  0  0  0  0  0  0  0  0
   10.2150   -0.6230   22.5370 C   0  0  1  0  0  0  0  0  0  0  0  0
    8.8180   -0.8020   22.6750 N   0  0  0  0  0  0  0  0  0  0  0  0
    8.1080   -0.7460   21.5040 C   0  0  0  0  0  0  0  0  0  0  0  0
    8.6570   -1.0450   20.5100 O   0  0  0  0  0  0  0  0  0  0  0  0
    6.8140   -0.3290   21.4960 N   0  0  0  0  0  0  0  0  0  0  0  0
    6.2720    0.2040   20.3050 C   0  0  0  0  0  0  0  0  0  0  0  0
    5.0920    0.9390   20.3680 C   0  0  0  0  0  0  0  0  0  0  0  0
    4.5630    1.4750   19.1970 C   0  0  0  0  0  0  0  0  0  0  0  0
    5.2170    1.2710   17.9890 C   0  0  0  0  0  0  0  0  0  0  0  0
    6.3510    0.5650   17.8860 N   0  0  0  0  0  0  0  0  0  0  0  0
    6.8510    0.0460   19.0330 C   0  0  0  0  0  0  0  0  0  0  0  0
  1  2  1  0
  2  3  1  0
  3  4  2  0
  4  5  1  0
  5  6  2  0
  6  7  1  0
  3  8  1  0
  7  8  2  0
  7  9  1  0
  9 10  1  0
 10 11  1  0
  6 12  1  0
 11 12  1  0
 12 13  1  1
 13 14  1  0
 14 15  2  0
 14 16  1  0
 16 17  1  0
 17 18  2  0
 18 19  1  0
 19 20  2  0
 20 21  1  0
 17 22  1  0
 21 22  2  0
M  END
