pyridine_urea_10921
     RDKit          3D

 19 20  0  0  0  0  0  0  0  0999 V2000
    8.5930   -2.9780   23.2010 C   0  0  0  0  0  0  0  0  0  0  0  0
    9.6180   -2.5090   21.7890 S   0  0  0  0  0  0  0  0  0  0  0  0
   10.4160   -1.1340   22.4900 C   0  0  0  0  0  0  0  0  0  0  0  0
   11.7680   -0.9880   22.4670 C   0  0  0  0  0  0  0  0  0  0  0  0
   12.3380    0.1150   23.0310 C   0  0  0  0  0  0  0  0  0  0  0  0
   13.6280    0.1150   22.9050 C   0  0  0  0  0  0  0  0  0  0  0  0
   11.6000    1.1140   23.6600 C   0  0  0  0  0  0  0  0  0  0  0  0
   10.1250    1.0540   23.7430 C   0  0  0  0  0  0  0  0  0  0  0  0
    9.6250   -0.1910   23.0680 C   0  0  0  0  0  0  0  0  0  0  0  0
    8.2350   -0.4180   22.9810 N   0  0  0  0  0  0  0  0  0  0  0  0
    7.8890    0.0460   21.7390 C   0  0  0  0  0  0  0  0  0  0  0  0
    8.5320    0.9480   21.2120 O   0  0  0  0  0  0  0  0  0  0  0  0
    6.8170   -0.5660   21.1650 N   0  0  0  0  0  0  0  0  0  0  0  0
    6.2650    0.0430   20.0440 C   0  0  0  0  0  0  0  0  0  0  0  0
    5.0670    0.7390   20.1900 C   0  0  0  0  0  0  0  0  0  0  0  0
    4.5170    1.3740   19.0890 C   0  0  0  0  0  0  0  0  0  0  0  0
    5.1830    1.2920   17.8850 C   0  0  0  0  0  0  0  0  0  0  0  0
    6.3300    0.6230   17.7210 N   0  0  0  0  0  0  0  0  0  0  0  0
    6.8460    0.0110   18.7990 C   0  0  0  0  0  0  0  0  0  0  0  0
  1  2  1  0
  2  3  1  0
  3  4  2  0
  4  5  1  0
  5  6  1  0
  5  7  2  0
  7  8  1  0
  3  9  1  0
  8  9  2  0
  9 10  1  0
 10 11  1  0
 11 12  2  0
 11 13  1  0
 13 14  1  0
 14 15  2  0
 15 16  1  0
 16 17  2  0
 17 18  1  0
 14 19  1  0
 18 19  2  0
M  END
