pyridine_urea_8909
     RDKit          3D

 20 21  0  0  0  0  0  0  0  0999 V2000
   12.1530   -0.4510   24.8640 C   0  0  0  0  0  0  0  0  0  0  0  0
   12.9350   -1.1190   23.7250 C   0  0  0  0  0  0  0  0  0  0  0  0
   13.1180   -0.0920   22.5930 C   0  0  0  0  0  0  0  0  0  0  0  0
   12.2110   -2.3810   23.2320 C   0  0  0  0  0  0  0  0  0  0  0  0
   11.1790   -2.8950   24.1310 N   0  0  0  0  0  0  0  0  0  0  0  0
   11.3550   -3.5870   25.3220 C   0  0  0  0  0  0  0  0  0  0  0  0
   10.0670   -3.8300   25.7470 C   0  0  0  0  0  0  0  0  0  0  0  0
    9.1090   -3.3390   24.9140 N   0  0  0  0  0  0  0  0  0  0  0  0
    9.8140   -2.7200   23.8460 C   0  0  0  0  0  0  0  0  0  0  0  0
    9.4680   -2.0330   22.6780 C   0  0  0  0  0  0  0  0  0  0  0  0
    8.6960   -0.9380   22.8130 N   0  0  0  0  0  0  0  0  0  0  0  0
    8.3850   -0.2100   21.7080 C   0  0  0  0  0  0  0  0  0  0  0  0
    9.0550    0.7430   21.3400 O   0  0  0  0  0  0  0  0  0  0  0  0
    7.1770   -0.7100   21.0900 N   0  0  0  0  0  0  0  0  0  0  0  0
    6.5050   -0.0340   20.0570 C   0  0  0  0  0  0  0  0  0  0  0  0
    5.3440    0.7040   20.3580 C   0  0  0  0  0  0  0  0  0  0  0  0
    4.6650    1.4130   19.2460 C   0  0  0  0  0  0  0  0  0  0  0  0
    5.1790    1.3270   17.9980 C   0  0  0  0  0  0  0  0  0  0  0  0
    6.2810    0.6220   17.6970 N   0  0  0  0  0  0  0  0  0  0  0  0
    6.9180   -0.0400   18.7200 C   0  0  0  0  0  0  0  0  0  0  0  0
  1  2  1  0
  2  3  1  0
  2  4  1  0
  4  5  1  0
  5  6  1  0
  6  7  2  0
  7  8  1  0
  5  9  1  0
  8  9  2  0
  9 10  1  0
 10 11  1  0
 11 12  1  0
 12 13  2  0
 12 14  1  0
 14 15  1  0
 15 16  2  0
 16 17  1  0
 17 18  2  0
 18 19  1  0
 15 20  1  0
 19 20  2  0
M  END
