pyridine_urea_1317
     RDKit          3D

 20 21  0  0  0  0  0  0  0  0999 V2000
    8.3070    1.3320   20.8600 O   0  0  0  0  0  0  0  0  0  0  0  0
    8.1290    0.1890   21.2940 C   0  0  0  0  0  0  0  0  0  0  0  0
    6.9990   -0.5110   21.0380 N   0  0  0  0  0  0  0  0  0  0  0  0
    6.4140    0.0790   19.8980 C   0  0  0  0  0  0  0  0  0  0  0  0
    5.1250    0.8720   20.1330 C   0  0  0  0  0  0  0  0  0  0  0  0
    4.5120    1.5120   19.0690 C   0  0  0  0  0  0  0  0  0  0  0  0
    5.1140    1.3980   17.8200 C   0  0  0  0  0  0  0  0  0  0  0  0
    6.2610    0.6670   17.6640 N   0  0  0  0  0  0  0  0  0  0  0  0
    6.9280   -0.0030   18.6780 C   0  0  0  0  0  0  0  0  0  0  0  0
    9.0210   -0.4550   22.0210 N   0  0  0  0  0  0  0  0  0  0  0  0
    9.9930   -0.9380   22.7370 C   0  0  0  0  0  0  0  0  0  0  0  0
    9.7950   -1.0600   24.0690 C   0  0  0  0  0  0  0  0  0  0  0  0
   10.7760   -1.5000   24.8320 N   0  0  0  0  0  0  0  0  0  0  0  0
   11.9540   -1.8090   24.2200 C   0  0  0  0  0  0  0  0  0  0  0  0
   12.1120   -1.6990   22.8820 C   0  0  0  0  0  0  0  0  0  0  0  0
   13.2570   -2.0220   22.3360 C   0  0  0  0  0  0  0  0  0  0  0  0
   13.2170   -2.5650   21.1190 F   0  0  0  0  0  0  0  0  0  0  0  0
   13.8250   -0.8290   22.1480 F   0  0  0  0  0  0  0  0  0  0  0  0
   14.0070   -2.7530   23.1710 F   0  0  0  0  0  0  0  0  0  0  0  0
   11.1250   -1.2670   22.1350 C   0  0  0  0  0  0  0  0  0  0  0  0
  1  2  2  0
  2  3  1  0
  3  4  1  0
  4  5  2  0
  5  6  1  0
  6  7  2  0
  7  8  1  0
  4  9  1  0
  8  9  2  0
  2 10  1  0
 10 11  1  0
 11 12  2  0
 12 13  1  0
 13 14  2  0
 14 15  1  0
 15 16  1  0
 16 17  1  0
 16 18  1  0
 16 19  1  0
 11 20  1  0
 15 20  2  0
M  END
