pyridine_urea_14882
     RDKit          3D

 19 20  0  0  0  0  0  0  0  0999 V2000
   10.8340    2.3020   22.6650 C   0  0  0  0  0  0  0  0  0  0  0  0
   10.9440    0.8000   22.9190 C   0  0  0  0  0  0  0  0  0  0  0  0
    9.8230    0.0300   22.7340 C   0  0  0  0  0  0  0  0  0  0  0  0
    8.5850    0.6040   22.3160 N   0  0  0  0  0  0  0  0  0  0  0  0
    8.0720   -0.3860   21.4040 C   0  0  0  0  0  0  0  0  0  0  0  0
    9.0010   -0.9510   20.8720 O   0  0  0  0  0  0  0  0  0  0  0  0
    6.7410   -0.6170   21.2040 N   0  0  0  0  0  0  0  0  0  0  0  0
    6.1990    0.0830   20.0640 C   0  0  0  0  0  0  0  0  0  0  0  0
    5.0350    0.8450   20.2040 C   0  0  0  0  0  0  0  0  0  0  0  0
    4.5260    1.5780   18.9520 C   0  0  0  0  0  0  0  0  0  0  0  0
    5.1930    1.4830   17.7490 C   0  0  0  0  0  0  0  0  0  0  0  0
    6.3090    0.7150   17.7050 N   0  0  0  0  0  0  0  0  0  0  0  0
    6.8220    0.0270   18.7990 C   0  0  0  0  0  0  0  0  0  0  0  0
    9.8210   -1.4130   22.9460 C   0  0  0  0  0  0  0  0  0  0  0  0
   10.9770   -1.9590   23.3610 C   0  0  0  0  0  0  0  0  0  0  0  0
   12.1520   -1.1700   23.5750 C   0  0  0  0  0  0  0  0  0  0  0  0
   13.5330   -2.2450   24.1860 Br  0  0  0  0  0  0  0  0  0  0  0  0
   12.1370    0.2030   23.3330 C   0  0  0  0  0  0  0  0  0  0  0  0
   13.1940    0.9560   23.4850 F   0  0  0  0  0  0  0  0  0  0  0  0
  1  2  1  0
  2  3  2  0
  3  4  1  0
  4  5  1  0
  5  6  2  0
  5  7  1  0
  7  8  1  0
  8  9  2  0
  9 10  1  0
 10 11  2  0
 11 12  1  0
  8 13  1  0
 12 13  2  0
  3 14  1  0
 14 15  2  0
 15 16  1  0
 16 17  1  0
  2 18  1  0
 16 18  2  0
 18 19  1  0
M  END
