pyridine_urea_912
     RDKit          3D

 22 23  0  0  0  0  0  0  0  0999 V2000
   13.3010    0.2520   23.3480 C   0  0  0  0  0  0  0  0  0  0  0  0
   12.2830   -0.3360   22.5930 N   0  0  0  0  0  0  0  0  0  0  0  0
   11.0440   -0.8020   22.2140 C   0  0  0  0  0  0  0  0  0  0  0  0
    9.9170   -0.7380   22.9200 C   0  0  0  0  0  0  0  0  0  0  0  0
    8.6930   -1.1610   22.5390 N   0  0  0  0  0  0  0  0  0  0  0  0
    8.0290   -0.3680   21.4760 C   0  0  0  0  0  0  0  0  0  0  0  0
    8.4450    0.7250   21.0910 O   0  0  0  0  0  0  0  0  0  0  0  0
    6.9550   -0.9100   20.9690 N   0  0  0  0  0  0  0  0  0  0  0  0
    6.4060   -0.2130   20.0290 C   0  0  0  0  0  0  0  0  0  0  0  0
    5.1350    0.5780   20.2970 C   0  0  0  0  0  0  0  0  0  0  0  0
    4.4730    1.4230   19.2040 C   0  0  0  0  0  0  0  0  0  0  0  0
    5.2180    1.3630   17.8910 C   0  0  0  0  0  0  0  0  0  0  0  0
    6.3360    0.6280   17.7540 N   0  0  0  0  0  0  0  0  0  0  0  0
    6.9350   -0.1410   18.7500 C   0  0  0  0  0  0  0  0  0  0  0  0
   10.4120   -0.1440   24.0280 C   0  0  0  0  0  0  0  0  0  0  0  0
    9.7360    0.2170   25.2390 O   0  0  0  0  0  0  0  0  0  0  0  0
    8.3250    0.4370   25.1760 C   0  0  0  0  0  0  0  0  0  0  0  0
    7.7590   -0.0530   26.3480 C   0  0  0  0  0  0  0  0  0  0  0  0
    8.4420   -0.9770   27.0430 F   0  0  0  0  0  0  0  0  0  0  0  0
    6.5490   -0.6010   26.0940 F   0  0  0  0  0  0  0  0  0  0  0  0
    7.5280    0.9680   27.2100 F   0  0  0  0  0  0  0  0  0  0  0  0
   11.7300    0.0890   23.8420 N   0  0  0  0  0  0  0  0  0  0  0  0
  1  2  1  0
  2  3  1  0
  3  4  2  0
  4  5  1  0
  5  6  1  0
  6  7  2  0
  6  8  1  0
  8  9  1  0
  9 10  2  0
 10 11  1  0
 11 12  2  0
 12 13  1  0
  9 14  1  0
 13 14  2  0
  4 15  1  0
 15 16  1  0
 16 17  1  0
 17 18  1  0
 18 19  1  0
 18 20  1  0
 18 21  1  0
  2 22  1  0
 15 22  2  0
M  END
