pyridine_urea_301
     RDKit          3D

 30 33  0  0  0  0  0  0  0  0999 V2000
    7.1940    0.9630   26.8980 C   0  0  0  0  0  0  0  0  0  0  0  0
    7.8790    0.5050   25.7960 N   0  0  0  0  0  0  0  0  0  0  0  0
    7.2110    0.2810   24.5550 C   0  0  0  0  0  0  0  0  0  0  0  0
    8.2210    0.1010   23.4210 C   0  0  0  0  0  0  0  0  0  0  0  0
    9.3470   -0.8380   23.6640 N   0  0  0  0  0  0  0  0  0  0  0  0
   10.4130   -1.1900   22.7360 C   0  0  2  0  0  0  0  0  0  0  0  0
    9.8150   -1.6930   21.6730 C   0  0  0  0  0  0  0  0  0  0  0  0
    8.4790   -1.4740   21.7420 N   0  0  0  0  0  0  0  0  0  0  0  0
    8.0370   -0.3830   21.2100 C   0  0  0  0  0  0  0  0  0  0  0  0
    8.6800    0.6620   21.1000 O   0  0  0  0  0  0  0  0  0  0  0  0
    6.7520   -0.6140   20.8170 N   0  0  0  0  0  0  0  0  0  0  0  0
    6.0810    0.1390   19.8850 C   0  0  0  0  0  0  0  0  0  0  0  0
    4.9070    0.7050   20.2100 C   0  0  0  0  0  0  0  0  0  0  0  0
    4.5030    1.4370   18.9680 C   0  0  0  0  0  0  0  0  0  0  0  0
    5.2000    1.4980   17.7830 C   0  0  0  0  0  0  0  0  0  0  0  0
    6.3360    0.9220   17.5310 N   0  0  0  0  0  0  0  0  0  0  0  0
    6.7220    0.2380   18.6700 C   0  0  0  0  0  0  0  0  0  0  0  0
   11.9090   -1.6430   23.1660 C   0  0  0  0  0  0  0  0  0  0  0  0
   13.0200   -0.8680   22.5630 C   0  0  0  0  0  0  0  0  0  0  0  0
   11.4840   -0.9850   22.4260 C   0  0  0  0  0  0  0  0  0  0  0  0
   10.4980   -1.9330   23.1380 C   0  0  0  0  0  0  0  0  0  0  0  0
   11.0400   -2.7760   23.9980 C   0  0  0  0  0  0  0  0  0  0  0  0
   12.3480   -2.6660   24.0900 C   0  0  0  0  0  0  0  0  0  0  0  0
   10.3080   -3.6670   24.7090 C   0  0  0  0  0  0  0  0  0  0  0  0
    8.9680   -3.8220   24.3170 C   0  0  0  0  0  0  0  0  0  0  0  0
    8.3650   -2.6010   24.1450 C   0  0  0  0  0  0  0  0  0  0  0  0
    9.0820   -2.0490   22.9960 N   0  0  0  0  0  0  0  0  0  0  0  0
    8.6420   -2.7910   21.8420 C   0  0  0  0  0  0  0  0  0  0  0  0
    9.4370   -1.3070   25.1020 C   0  0  0  0  0  0  0  0  0  0  0  0
    8.5440   -0.7560   26.0720 C   0  0  0  0  0  0  0  0  0  0  0  0
  1  2  1  0
  2  3  1  0
  3  4  1  0
  4  5  1  0
  5  6  1  0
  6  7  1  1
  7  8  1  0
  8  9  1  0
  9 10  2  0
  9 11  1  0
 11 12  1  0
 12 13  2  0
 13 14  1  0
 14 15  2  0
 15 16  1  0
 12 17  1  0
 16 17  2  0
  6 18  1  0
 18 19  2  0
 19 20  1  0
 20 21  2  0
 21 22  1  0
 18 23  1  0
 22 23  2  0
 22 24  1  0
 24 25  1  0
 25 26  1  0
 21 27  1  0
 26 27  1  0
 27 28  1  0
  5 29  1  0
  2 30  1  0
 29 30  1  0
M  END
