pyridine_urea_7996
     RDKit          3D

 24 26  0  0  0  0  0  0  0  0999 V2000
    9.0500    1.4860   21.1500 O   0  0  0  0  0  0  0  0  0  0  0  0
    8.4860    0.5590   21.7190 C   0  0  0  0  0  0  0  0  0  0  0  0
    9.0970   -0.4750   22.3730 N   0  0  0  0  0  0  0  0  0  0  0  0
   10.4710   -0.4440   22.5550 C   0  0  0  0  0  0  0  0  0  0  0  0
   10.9610    0.7970   22.9010 C   0  0  0  0  0  0  0  0  0  0  0  0
   12.3160    0.9750   23.0990 C   0  0  0  0  0  0  0  0  0  0  0  0
   13.1250   -0.1070   22.9480 C   0  0  0  0  0  0  0  0  0  0  0  0
   12.7020   -1.3420   22.6140 N   0  0  0  0  0  0  0  0  0  0  0  0
   11.3740   -1.4870   22.4200 C   0  0  0  0  0  0  0  0  0  0  0  0
    7.1330    0.4760   21.7610 N   0  0  0  0  0  0  0  0  0  0  0  0
    6.5190    0.2460   20.4740 C   0  0  0  0  0  0  0  0  0  0  0  0
    5.1510    0.8100   20.1660 C   0  0  0  0  0  0  0  0  0  0  0  0
    4.6290    0.5160   18.9000 C   0  0  0  0  0  0  0  0  0  0  0  0
    5.3770   -0.2730   17.9870 C   0  0  0  0  0  0  0  0  0  0  0  0
    5.0010   -0.5980   16.9190 O   0  0  0  0  0  0  0  0  0  0  0  0
    5.8760   -1.5960   16.4680 C   0  0  0  0  0  0  0  0  0  0  0  0
    5.7060   -2.3420   14.8270 C   0  0  0  0  0  0  0  0  0  0  0  0
    6.3280   -3.1200   14.4130 C   0  0  0  0  0  0  0  0  0  0  0  0
    6.0150   -3.5180   13.3340 C   0  0  0  0  0  0  0  0  0  0  0  0
    4.9740   -3.3730   12.1870 C   0  0  0  0  0  0  0  0  0  0  0  0
    4.0780   -2.6670   12.3280 C   0  0  0  0  0  0  0  0  0  0  0  0
    4.2940   -2.1980   13.4350 N   0  0  0  0  0  0  0  0  0  0  0  0
    6.6100   -0.7010   18.3830 N   0  0  0  0  0  0  0  0  0  0  0  0
    7.1640   -0.4750   19.5410 C   0  0  0  0  0  0  0  0  0  0  0  0
  1  2  2  0
  2  3  1  0
  3  4  1  0
  4  5  2  0
  5  6  1  0
  6  7  2  0
  7  8  1  0
  4  9  1  0
  8  9  2  0
  2 10  1  0
 10 11  1  0
 11 12  2  0
 12 13  1  0
 13 14  2  0
 14 15  1  0
 15 16  1  0
 16 17  1  0
 17 18  2  0
 18 19  1  0
 19 20  2  0
 20 21  1  0
 17 22  1  0
 21 22  2  0
 14 23  1  0
 11 24  1  0
 23 24  2  0
M  END
