pyridine_urea_6151
     RDKit          3D

 24 26  0  0  0  0  0  0  0  0999 V2000
    8.8140    1.3920   21.2720 O   0  0  0  0  0  0  0  0  0  0  0  0
    8.4670    0.2090   21.2760 C   0  0  0  0  0  0  0  0  0  0  0  0
    7.1650   -0.2260   21.2110 N   0  0  0  0  0  0  0  0  0  0  0  0
    6.4820    0.2790   20.0580 C   0  0  0  0  0  0  0  0  0  0  0  0
    5.2130    1.0590   20.3340 C   0  0  0  0  0  0  0  0  0  0  0  0
    4.5520    1.5930   19.1200 C   0  0  0  0  0  0  0  0  0  0  0  0
    5.1310    1.3380   17.8930 C   0  0  0  0  0  0  0  0  0  0  0  0
    6.2530    0.6280   17.6980 N   0  0  0  0  0  0  0  0  0  0  0  0
    6.8960    0.1190   18.7590 C   0  0  0  0  0  0  0  0  0  0  0  0
    9.3230   -0.8440   21.2790 N   0  0  0  0  0  0  0  0  0  0  0  0
   10.3890   -1.0130   22.2530 C   0  0  0  0  0  0  0  0  0  0  0  0
   11.5080   -1.6480   21.8460 C   0  0  0  0  0  0  0  0  0  0  0  0
   12.4050   -1.7600   23.0050 C   0  0  0  0  0  0  0  0  0  0  0  0
   12.1640   -1.3090   24.2630 C   0  0  0  0  0  0  0  0  0  0  0  0
   13.3630   -1.6940   25.3580 Cl  0  0  0  0  0  0  0  0  0  0  0  0
   11.0230   -0.6290   24.6270 C   0  0  0  0  0  0  0  0  0  0  0  0
   10.1060   -0.4680   23.6370 C   0  0  0  0  0  0  0  0  0  0  0  0
    8.8780    0.1470   23.7780 N   0  0  0  0  0  0  0  0  0  0  0  0
    8.3070    0.9850   24.7620 C   0  0  0  0  0  0  0  0  0  0  0  0
    7.6970    0.5080   26.0340 C   0  0  0  0  0  0  0  0  0  0  0  0
    7.1100    1.5130   26.9570 C   0  0  0  0  0  0  0  0  0  0  0  0
    7.1220    2.8730   26.6570 C   0  0  0  0  0  0  0  0  0  0  0  0
    7.7120    3.2840   25.4490 C   0  0  0  0  0  0  0  0  0  0  0  0
    8.2870    2.3800   24.5300 C   0  0  0  0  0  0  0  0  0  0  0  0
  1  2  2  0
  2  3  1  0
  3  4  1  0
  4  5  2  0
  5  6  1  0
  6  7  2  0
  7  8  1  0
  4  9  1  0
  8  9  2  0
  2 10  1  0
 10 11  1  0
 11 12  2  0
 12 13  1  0
 13 14  2  0
 14 15  1  0
 14 16  1  0
 11 17  1  0
 16 17  2  0
 17 18  1  0
 18 19  1  0
 19 20  2  0
 20 21  1  0
 21 22  2  0
 22 23  1  0
 19 24  1  0
 23 24  2  0
M  END
