pyridine_urea_1403
     RDKit          3D

 20 21  0  0  0  0  0  0  0  0999 V2000
    8.3420    1.4930   20.9200 O   0  0  0  0  0  0  0  0  0  0  0  0
    8.3080    0.3410   21.3440 C   0  0  0  0  0  0  0  0  0  0  0  0
    7.2500   -0.4740   21.0830 N   0  0  0  0  0  0  0  0  0  0  0  0
    6.5690    0.0590   19.9570 C   0  0  0  0  0  0  0  0  0  0  0  0
    5.3090    0.8790   20.2640 C   0  0  0  0  0  0  0  0  0  0  0  0
    4.6020    1.4700   19.2300 C   0  0  0  0  0  0  0  0  0  0  0  0
    5.0830    1.2850   17.9390 C   0  0  0  0  0  0  0  0  0  0  0  0
    6.2050    0.5340   17.7110 N   0  0  0  0  0  0  0  0  0  0  0  0
    6.9630   -0.0900   18.6960 C   0  0  0  0  0  0  0  0  0  0  0  0
    9.3050   -0.2190   22.0480 N   0  0  0  0  0  0  0  0  0  0  0  0
   10.4010   -0.6210   22.6770 C   0  0  0  0  0  0  0  0  0  0  0  0
   11.2040    0.5250   22.7440 C   0  0  0  0  0  0  0  0  0  0  0  0
   10.3820    1.6760   22.5110 O   0  0  0  0  0  0  0  0  0  0  0  0
   11.1080   -1.7590   22.2560 C   0  0  0  0  0  0  0  0  0  0  0  0
   12.4620   -1.6430   21.9590 C   0  0  0  0  0  0  0  0  0  0  0  0
   12.9360   -0.4350   22.4040 C   0  0  0  0  0  0  0  0  0  0  0  0
   13.0630   -0.3690   23.8620 C   0  0  0  0  0  0  0  0  0  0  0  0
   12.2850   -0.9990   24.7620 C   0  0  0  0  0  0  0  0  0  0  0  0
   11.0610   -0.3250   24.9490 C   0  0  0  0  0  0  0  0  0  0  0  0
   10.1330   -0.7840   24.0920 C   0  0  0  0  0  0  0  0  0  0  0  0
  1  2  2  0
  2  3  1  0
  3  4  1  0
  4  5  2  0
  5  6  1  0
  6  7  2  0
  7  8  1  0
  4  9  1  0
  8  9  2  0
  2 10  1  0
 11 10  1  0
 11 12  1  0
 12 13  1  0
 11 14  1  0
 14 15  1  0
 15 16  1  0
 16 17  1  0
 17 18  1  0
 18 19  1  0
 11 20  1  0
 19 20  1  0
M  END
