pyridine_urea_1546
     RDKit          3D

 20 21  0  0  0  0  0  0  0  0999 V2000
   10.9290   -1.9230   22.1780 C   0  0  0  0  0  0  0  0  0  0  0  0
    9.9530   -1.4030   23.2220 C   0  0  2  0  0  0  0  0  0  0  0  0
    8.6270   -1.3310   22.6330 N   0  0  0  0  0  0  0  0  0  0  0  0
    8.2730   -0.3730   21.6950 C   0  0  0  0  0  0  0  0  0  0  0  0
    8.9400    0.6240   21.4520 O   0  0  0  0  0  0  0  0  0  0  0  0
    7.0750   -0.7080   21.1000 N   0  0  0  0  0  0  0  0  0  0  0  0
    6.4540   -0.0260   20.0370 C   0  0  0  0  0  0  0  0  0  0  0  0
    5.2860    0.6870   20.2800 C   0  0  0  0  0  0  0  0  0  0  0  0
    4.6600    1.3750   19.2340 C   0  0  0  0  0  0  0  0  0  0  0  0
    5.2290    1.3270   17.9730 C   0  0  0  0  0  0  0  0  0  0  0  0
    6.3560    0.6410   17.7210 N   0  0  0  0  0  0  0  0  0  0  0  0
    6.9360   -0.0160   18.7460 C   0  0  0  0  0  0  0  0  0  0  0  0
   10.2360   -0.0200   23.8060 C   0  0  0  0  0  0  0  0  0  0  0  0
    9.5700    0.7780   24.5010 C   0  0  0  0  0  0  0  0  0  0  0  0
   10.9110    1.0810   24.0520 C   0  0  0  0  0  0  0  0  0  0  0  0
   10.8980   -0.2960   23.4150 C   0  0  0  0  0  0  0  0  0  0  0  0
   11.2640   -1.3910   22.7410 F   0  0  0  0  0  0  0  0  0  0  0  0
   12.1950   -0.0420   22.9380 C   0  0  0  0  0  0  0  0  0  0  0  0
   13.4140    1.0420   22.8800 Cl  0  0  0  0  0  0  0  0  0  0  0  0
   11.4640    0.8190   23.6860 C   0  0  0  0  0  0  0  0  0  0  0  0
  2  1  1  6
  2  3  1  0
  3  4  1  0
  4  5  2  0
  4  6  1  0
  6  7  1  0
  7  8  2  0
  8  9  1  0
  9 10  2  0
 10 11  1  0
  7 12  1  0
 11 12  2  0
  2 13  1  0
 13 14  2  0
 14 15  1  0
 15 16  2  0
 16 17  1  0
 16 18  1  0
 18 19  1  0
 13 20  1  0
 18 20  2  0
M  END
