pyridine_urea_11601
     RDKit          3D

 26 28  0  0  0  0  0  0  0  0999 V2000
   12.6860   -2.5000   21.1750 C   0  0  0  0  0  0  0  0  0  0  0  0
   11.4510   -1.7990   21.2450 O   0  0  0  0  0  0  0  0  0  0  0  0
   10.8330   -1.8610   22.4770 C   0  0  0  0  0  0  0  0  0  0  0  0
   11.2640   -2.5390   23.4000 O   0  0  0  0  0  0  0  0  0  0  0  0
    9.6660   -1.0870   22.6150 C   0  0  1  0  0  0  0  0  0  0  0  0
    9.8140    0.1210   23.3430 C   0  0  0  0  0  0  0  0  0  0  0  0
   10.9570   -0.1090   24.0270 C   0  0  0  0  0  0  0  0  0  0  0  0
   11.3420   -0.3270   25.2810 C   0  0  0  0  0  0  0  0  0  0  0  0
   12.7680   -0.5540   25.1830 N   0  0  0  0  0  0  0  0  0  0  0  0
   13.4200   -0.4920   23.8660 C   0  0  0  0  0  0  0  0  0  0  0  0
   12.9260   -0.2230   22.4870 C   0  0  0  0  0  0  0  0  0  0  0  0
   11.5300    0.0090   22.6370 C   0  0  0  0  0  0  0  0  0  0  0  0
   11.0300   -0.0790   24.0120 C   0  0  0  0  0  0  0  0  0  0  0  0
   12.0720   -0.3850   24.8630 C   0  0  0  0  0  0  0  0  0  0  0  0
   11.2320   -0.3650   25.9180 F   0  0  0  0  0  0  0  0  0  0  0  0
   12.1720   -0.2420   23.5470 C   0  0  0  0  0  0  0  0  0  0  0  0
    9.0000   -0.9320   21.4620 N   0  0  0  0  0  0  0  0  0  0  0  0
    8.2020    0.1660   21.2420 C   0  0  0  0  0  0  0  0  0  0  0  0
    8.6550    1.5170   21.1020 O   0  0  0  0  0  0  0  0  0  0  0  0
    6.9310   -0.2360   21.1550 N   0  0  0  0  0  0  0  0  0  0  0  0
    6.3770    0.2560   20.0580 C   0  0  0  0  0  0  0  0  0  0  0  0
    5.1330    1.1110   20.1850 C   0  0  0  0  0  0  0  0  0  0  0  0
    4.5510    1.6580   19.0650 C   0  0  0  0  0  0  0  0  0  0  0  0
    5.1330    1.4070   17.8330 C   0  0  0  0  0  0  0  0  0  0  0  0
    6.2320    0.6460   17.6540 N   0  0  0  0  0  0  0  0  0  0  0  0
    6.8390    0.0770   18.7750 C   0  0  0  0  0  0  0  0  0  0  0  0
  1  2  1  0
  2  3  1  0
  3  4  2  0
  3  5  1  0
  5  6  1  6
  6  7  1  0
  7  8  2  0
  8  9  1  0
  9 10  1  0
 10 11  1  0
 11 12  2  0
 12 13  1  0
 13 14  2  0
 14 15  1  0
  7 16  1  0
 10 16  2  0
 14 16  1  0
  5 17  1  0
 17 18  1  0
 18 19  2  0
 18 20  1  0
 20 21  1  0
 21 22  2  0
 22 23  1  0
 23 24  2  0
 24 25  1  0
 21 26  1  0
 25 26  2  0
M  END
