pyridine_urea_10940
     RDKit          3D

 19 20  0  0  0  0  0  0  0  0999 V2000
   12.6580   -0.8470   25.1440 C   0  0  0  0  0  0  0  0  0  0  0  0
   12.8730   -2.5080   24.4810 S   0  0  0  0  0  0  0  0  0  0  0  0
   11.7810   -3.3330   24.9150 O   0  0  0  0  0  0  0  0  0  0  0  0
   14.2250   -2.9270   24.6560 O   0  0  0  0  0  0  0  0  0  0  0  0
   12.5810   -2.1510   22.8500 N   0  0  0  0  0  0  0  0  0  0  0  0
   12.5550   -0.8210   22.6020 C   0  0  0  0  0  0  0  0  0  0  0  0
   11.2190   -1.0180   22.3640 C   0  0  0  0  0  0  0  0  0  0  0  0
   10.3220   -0.2650   23.1020 C   0  0  0  0  0  0  0  0  0  0  0  0
    8.9660   -0.5470   22.6530 N   0  0  0  0  0  0  0  0  0  0  0  0
    8.4780    0.1750   21.5870 C   0  0  0  0  0  0  0  0  0  0  0  0
    8.9420    1.2540   21.1960 O   0  0  0  0  0  0  0  0  0  0  0  0
    7.3890   -0.4590   21.0320 N   0  0  0  0  0  0  0  0  0  0  0  0
    6.5730    0.1460   20.0800 C   0  0  0  0  0  0  0  0  0  0  0  0
    5.3020    0.9230   20.3570 C   0  0  0  0  0  0  0  0  0  0  0  0
    4.5970    1.5160   19.1670 C   0  0  0  0  0  0  0  0  0  0  0  0
    5.1550    1.3070   17.9330 C   0  0  0  0  0  0  0  0  0  0  0  0
    6.2780    0.6050   17.6940 N   0  0  0  0  0  0  0  0  0  0  0  0
    6.9410    0.0550   18.7420 C   0  0  0  0  0  0  0  0  0  0  0  0
   11.2580   -2.3730   22.4390 C   0  0  0  0  0  0  0  0  0  0  0  0
  2  1  1  0
  2  3  2  0
  2  4  2  0
  2  5  1  0
  5  6  1  0
  6  7  1  0
  7  8  1  0
  8  9  1  0
  9 10  1  0
 10 11  2  0
 10 12  1  0
 12 13  1  0
 13 14  2  0
 14 15  1  0
 15 16  2  0
 16 17  1  0
 13 18  1  0
 17 18  2  0
  5 19  1  0
  7 19  1  0
M  END
