pyridine_urea_4677
     RDKit          3D

 22 24  0  0  0  0  0  0  0  0999 V2000
    8.7990    1.2900   21.0690 O   0  0  0  0  0  0  0  0  0  0  0  0
    8.4320    0.1620   21.4200 C   0  0  0  0  0  0  0  0  0  0  0  0
    9.1680   -0.5810   22.3000 N   0  0  0  0  0  0  0  0  0  0  0  0
   10.3350    0.0700   22.8730 C   0  0  0  0  0  0  0  0  0  0  0  0
   11.5360   -0.8820   22.9570 C   0  0  0  0  0  0  0  0  0  0  0  0
   11.3930   -2.1440   22.9900 C   0  0  0  0  0  0  0  0  0  0  0  0
   12.5930   -1.4480   23.0270 C   0  0  0  0  0  0  0  0  0  0  0  0
   11.6270   -0.2550   22.9530 C   0  0  0  0  0  0  0  0  0  0  0  0
   11.2160    1.1020   22.8950 C   0  0  0  0  0  0  0  0  0  0  0  0
   12.1620    2.1640   22.8400 C   0  0  0  0  0  0  0  0  0  0  0  0
   11.4550    3.3010   22.7970 N   0  0  0  0  0  0  0  0  0  0  0  0
   10.1290    3.0230   22.8210 C   0  0  0  0  0  0  0  0  0  0  0  0
    9.9240    1.6680   22.8830 N   0  0  0  0  0  0  0  0  0  0  0  0
   12.7070    0.5900   22.9740 C   0  0  0  0  0  0  0  0  0  0  0  0
   13.1040   -0.6390   23.0210 C   0  0  0  0  0  0  0  0  0  0  0  0
    7.2790   -0.4590   20.9970 N   0  0  0  0  0  0  0  0  0  0  0  0
    6.5430    0.0990   20.0270 C   0  0  0  0  0  0  0  0  0  0  0  0
    5.3790    0.7960   20.3540 C   0  0  0  0  0  0  0  0  0  0  0  0
    4.6340    1.4020   19.2920 C   0  0  0  0  0  0  0  0  0  0  0  0
    5.1460    1.2340   18.0350 C   0  0  0  0  0  0  0  0  0  0  0  0
    6.2420    0.5680   17.6970 N   0  0  0  0  0  0  0  0  0  0  0  0
    6.9160    0.0130   18.7070 C   0  0  0  0  0  0  0  0  0  0  0  0
  1  2  2  0
  2  3  1  0
  3  4  1  0
  4  5  1  0
  5  6  2  0
  6  7  1  0
  7  8  2  0
  8  9  1  0
  9 10  2  0
 10 11  1  0
 11 12  1  0
  9 13  1  0
 12 13  2  0
  8 14  1  0
  5 15  1  0
 14 15  2  0
  2 16  1  0
 16 17  1  0
 17 18  2  0
 18 19  1  0
 19 20  2  0
 20 21  1  0
 17 22  1  0
 21 22  2  0
M  END
