pyridine_urea_14106
     RDKit          3D

 23 25  0  0  0  0  0  0  0  0999 V2000
    8.9630    1.3920   21.1060 O   0  0  0  0  0  0  0  0  0  0  0  0
    8.3560    0.3990   21.5120 C   0  0  0  0  0  0  0  0  0  0  0  0
    8.5500   -0.0930   22.7640 N   0  0  0  0  0  0  0  0  0  0  0  0
    7.7140    0.4040   23.8470 C   0  0  0  0  0  0  0  0  0  0  0  0
    7.7750   -0.5640   25.0110 C   0  0  0  0  0  0  0  0  0  0  0  0
    8.7580   -1.5610   24.6860 N   0  0  0  0  0  0  0  0  0  0  0  0
    8.5770   -2.7160   23.9830 C   0  0  0  0  0  0  0  0  0  0  0  0
    7.4320   -3.5670   23.9670 O   0  0  0  0  0  0  0  0  0  0  0  0
    9.7590   -2.8740   23.3010 N   0  0  0  0  0  0  0  0  0  0  0  0
   10.7750   -1.9330   23.5210 C   0  0  0  0  0  0  0  0  0  0  0  0
   11.4990   -1.5090   22.2760 C   0  0  0  0  0  0  0  0  0  0  0  0
   12.8970   -1.8660   22.4940 C   0  0  0  0  0  0  0  0  0  0  0  0
   13.1500   -1.7360   23.8240 C   0  0  0  0  0  0  0  0  0  0  0  0
   11.8620   -2.4670   24.2140 C   0  0  0  0  0  0  0  0  0  0  0  0
   10.1110   -0.9810   24.4890 C   0  0  0  0  0  0  0  0  0  0  0  0
   10.5360    0.0820   25.0440 O   0  0  0  0  0  0  0  0  0  0  0  0
    7.4090   -0.3410   20.8560 N   0  0  0  0  0  0  0  0  0  0  0  0
    6.5890    0.2050   19.9460 C   0  0  0  0  0  0  0  0  0  0  0  0
    5.4240    0.8830   20.2280 C   0  0  0  0  0  0  0  0  0  0  0  0
    4.4200    1.5670   19.2910 C   0  0  0  0  0  0  0  0  0  0  0  0
    5.1250    1.2600   17.9770 C   0  0  0  0  0  0  0  0  0  0  0  0
    6.2460    0.5970   17.6950 N   0  0  0  0  0  0  0  0  0  0  0  0
    6.9480    0.0840   18.6710 C   0  0  0  0  0  0  0  0  0  0  0  0
  1  2  2  0
  2  3  1  0
  3  4  1  0
  4  5  1  0
  5  6  1  0
  6  7  1  0
  7  8  2  0
  7  9  1  0
  9 10  1  0
 10 11  1  0
 11 12  1  0
 12 13  1  0
 10 14  1  0
 13 14  1  0
  6 15  1  0
 10 15  1  0
 15 16  2  0
  2 17  1  0
 17 18  1  0
 18 19  2  0
 19 20  1  0
 20 21  2  0
 21 22  1  0
 18 23  1  0
 22 23  2  0
M  END
