pyridine_urea_12656
     RDKit          3D

 21 22  0  0  0  0  0  0  0  0999 V2000
   12.5730   -2.8150   20.7170 N   0  0  0  0  0  0  0  0  0  0  0  0
   13.2390   -1.7840   21.7650 S   0  0  0  0  0  0  0  0  0  0  0  0
   13.7870   -2.5610   22.8510 O   0  0  0  0  0  0  0  0  0  0  0  0
   13.9350   -0.9210   20.8890 O   0  0  0  0  0  0  0  0  0  0  0  0
   12.0710   -0.7780   22.5080 C   0  0  0  0  0  0  0  0  0  0  0  0
   12.6300    0.3800   23.3140 C   0  0  0  0  0  0  0  0  0  0  0  0
   11.5190    1.1970   23.9110 C   0  0  0  0  0  0  0  0  0  0  0  0
   10.2090    0.8600   23.7000 C   0  0  0  0  0  0  0  0  0  0  0  0
    9.2280    1.6150   24.2490 O   0  0  0  0  0  0  0  0  0  0  0  0
    9.7940   -0.2270   22.9320 C   0  0  0  0  0  0  0  0  0  0  0  0
    8.4830   -0.4130   22.7830 N   0  0  0  0  0  0  0  0  0  0  0  0
    7.9780    0.1270   21.6080 C   0  0  0  0  0  0  0  0  0  0  0  0
    8.6620    1.2940   21.1030 O   0  0  0  0  0  0  0  0  0  0  0  0
    6.9340   -0.4650   21.0660 N   0  0  0  0  0  0  0  0  0  0  0  0
    6.3680    0.1030   20.0030 C   0  0  0  0  0  0  0  0  0  0  0  0
    5.2160    0.8380   20.1870 C   0  0  0  0  0  0  0  0  0  0  0  0
    4.6050    1.4650   19.1510 C   0  0  0  0  0  0  0  0  0  0  0  0
    5.1260    1.3810   17.8740 C   0  0  0  0  0  0  0  0  0  0  0  0
    6.2380    0.6780   17.5810 N   0  0  0  0  0  0  0  0  0  0  0  0
    6.8450    0.0360   18.7130 C   0  0  0  0  0  0  0  0  0  0  0  0
   10.7400   -1.0280   22.3530 C   0  0  0  0  0  0  0  0  0  0  0  0
  2  1  1  0
  2  3  2  0
  2  4  2  0
  2  5  1  0
  5  6  2  0
  6  7  1  0
  7  8  2  0
  8  9  1  0
  8 10  1  0
 10 11  1  0
 11 12  1  0
 12 13  2  0
 12 14  1  0
 14 15  1  0
 15 16  2  0
 16 17  1  0
 17 18  2  0
 18 19  1  0
 15 20  1  0
 19 20  2  0
  5 21  1  0
 10 21  2  0
M  END
