pyridine_urea_8735
     RDKit          3D

 21 23  0  0  0  0  0  0  0  0999 V2000
    8.9800    1.1760   21.5020 O   0  0  0  0  0  0  0  0  0  0  0  0
    9.0470    0.1240   21.4600 C   0  0  0  0  0  0  0  0  0  0  0  0
    8.3280   -0.7240   20.5840 N   0  0  0  0  0  0  0  0  0  0  0  0
    7.2230   -0.3260   20.0230 C   0  0  0  0  0  0  0  0  0  0  0  0
    6.2170    0.3260   20.7250 C   0  0  0  0  0  0  0  0  0  0  0  0
    5.0440    0.8430   20.2180 C   0  0  0  0  0  0  0  0  0  0  0  0
    4.9390    0.5110   18.9080 C   0  0  0  0  0  0  0  0  0  0  0  0
    5.8620   -0.1350   18.0160 N   0  0  0  0  0  0  0  0  0  0  0  0
    7.0690   -0.4190   18.6990 C   0  0  0  0  0  0  0  0  0  0  0  0
   10.2490   -0.8870   22.0330 N   0  0  0  0  0  0  0  0  0  0  0  0
   11.3720   -0.1030   22.5030 C   0  0  1  0  0  0  0  0  0  0  0  0
   10.4040    0.8900   22.5230 C   0  0  0  0  0  0  0  0  0  0  0  0
   11.3310    0.9700   23.4520 C   0  0  0  0  0  0  0  0  0  0  0  0
   11.7050   -0.3380   23.3820 O   0  0  0  0  0  0  0  0  0  0  0  0
   11.2810   -0.1110   22.2810 C   0  0  0  0  0  0  0  0  0  0  0  0
   11.9430    0.4360   23.2920 C   0  0  0  0  0  0  0  0  0  0  0  0
   12.2930   -0.0580   24.7140 Cl  0  0  0  0  0  0  0  0  0  0  0  0
   11.9180    0.4670   23.2510 C   0  0  0  0  0  0  0  0  0  0  0  0
   11.5610    0.9050   22.6680 C   0  0  0  0  0  0  0  0  0  0  0  0
   11.7090   -0.3390   23.8090 C   0  0  0  0  0  0  0  0  0  0  0  0
   12.0290    0.5070   23.4230 C   0  0  0  0  0  0  0  0  0  0  0  0
  1  2  2  0
  2  3  1  0
  3  4  1  0
  4  5  2  0
  5  6  1  0
  6  7  2  0
  7  8  1  0
  4  9  1  0
  8  9  2  0
  2 10  1  0
 11 10  1  1
 11 12  1  0
 12 13  1  0
 13 14  1  0
 14 15  1  0
 15 16  2  0
 16 17  1  0
 16 18  1  0
 18 19  2  0
 19 20  1  0
 11 21  1  0
 15 21  1  0
 20 21  2  0
M  END
