pyridine_urea_6573
     RDKit          3D

 22 24  0  0  0  0  0  0  0  0999 V2000
   13.7030   -2.8570   23.3260 C   0  0  0  0  0  0  0  0  0  0  0  0
   12.5410   -1.9810   23.3740 C   0  0  0  0  0  0  0  0  0  0  0  0
   11.8530   -2.2660   24.6920 C   0  0  0  0  0  0  0  0  0  0  0  0
   12.8190   -0.4460   23.1590 C   0  0  0  0  0  0  0  0  0  0  0  0
   11.6020    0.3950   23.4310 C   0  0  0  0  0  0  0  0  0  0  0  0
   10.4600   -0.3500   23.3680 C   0  0  0  0  0  0  0  0  0  0  0  0
    9.3100    0.0250   23.9470 N   0  0  0  0  0  0  0  0  0  0  0  0
    8.4520   -1.0140   23.6390 C   0  0  0  0  0  0  0  0  0  0  0  0
    7.1460   -1.1990   23.9010 C   0  0  0  0  0  0  0  0  0  0  0  0
    6.9130   -1.3950   22.5750 N   0  0  0  0  0  0  0  0  0  0  0  0
    7.4750   -0.5360   21.6050 C   0  0  0  0  0  0  0  0  0  0  0  0
    8.5780   -0.6020   21.0780 O   0  0  0  0  0  0  0  0  0  0  0  0
    6.5750    0.3870   21.4000 N   0  0  0  0  0  0  0  0  0  0  0  0
    6.1840    0.6750   20.1650 C   0  0  0  0  0  0  0  0  0  0  0  0
    5.0360    1.4630   20.1340 C   0  0  0  0  0  0  0  0  0  0  0  0
    4.4670    1.8930   18.9250 C   0  0  0  0  0  0  0  0  0  0  0  0
    5.2540    1.3950   17.7400 C   0  0  0  0  0  0  0  0  0  0  0  0
    6.3520    0.6300   17.7740 N   0  0  0  0  0  0  0  0  0  0  0  0
    6.7950    0.2820   18.9850 C   0  0  0  0  0  0  0  0  0  0  0  0
    9.0420   -2.3260   22.7300 S   0  0  0  0  0  0  0  0  0  0  0  0
   10.4910   -1.5350   22.6940 C   0  0  0  0  0  0  0  0  0  0  0  0
   11.6270   -1.9420   22.1200 C   0  0  0  0  0  0  0  0  0  0  0  0
  2  1  1  0
  2  3  1  0
  2  4  1  0
  4  5  1  0
  5  6  1  0
  6  7  1  0
  7  8  2  0
  8  9  1  0
  9 10  1  0
 10 11  1  0
 11 12  2  0
 11 13  1  0
 13 14  1  0
 14 15  2  0
 15 16  1  0
 16 17  2  0
 17 18  1  0
 14 19  1  0
 18 19  2  0
  8 20  1  0
  6 21  2  0
 20 21  1  0
  2 22  1  0
 21 22  1  0
M  END
