pyridine_urea_12108
     RDKit          3D

 23 24  0  0  0  0  0  0  0  0999 V2000
   13.4160    5.6730   22.3160 C   0  0  0  0  0  0  0  0  0  0  0  0
   12.1990    5.6440   22.1750 O   0  0  0  0  0  0  0  0  0  0  0  0
   11.5500    5.2060   23.2780 C   0  0  0  0  0  0  0  0  0  0  0  0
   11.1860    5.9040   24.2150 O   0  0  0  0  0  0  0  0  0  0  0  0
   11.3400    3.8270   23.2150 C   0  0  0  0  0  0  0  0  0  0  0  0
   12.3750    3.0000   22.7570 C   0  0  0  0  0  0  0  0  0  0  0  0
   12.1950    1.6140   22.8550 C   0  0  0  0  0  0  0  0  0  0  0  0
   13.2210    0.7180   22.7690 C   0  0  0  0  0  0  0  0  0  0  0  0
   12.6270   -0.4190   22.8850 C   0  0  0  0  0  0  0  0  0  0  0  0
   11.3490   -1.0500   23.0640 C   0  0  0  0  0  0  0  0  0  0  0  0
   10.2020   -0.2080   23.1700 C   0  0  0  0  0  0  0  0  0  0  0  0
    9.7800   -1.5040   23.2690 C   0  0  0  0  0  0  0  0  0  0  0  0
    8.7370   -1.6250   22.2920 N   0  0  0  0  0  0  0  0  0  0  0  0
    8.2250   -0.6180   21.5320 C   0  0  0  0  0  0  0  0  0  0  0  0
    8.8470    0.5750   21.3390 O   0  0  0  0  0  0  0  0  0  0  0  0
    7.0060   -0.8930   20.9850 N   0  0  0  0  0  0  0  0  0  0  0  0
    6.3510   -0.1100   20.0210 C   0  0  0  0  0  0  0  0  0  0  0  0
    5.1830    0.6280   20.2230 C   0  0  0  0  0  0  0  0  0  0  0  0
    4.6110    1.3840   19.1930 C   0  0  0  0  0  0  0  0  0  0  0  0
    5.1750    1.4430   17.9120 C   0  0  0  0  0  0  0  0  0  0  0  0
    6.3750    0.6680   17.7380 N   0  0  0  0  0  0  0  0  0  0  0  0
    6.9010   -0.0560   18.7610 C   0  0  0  0  0  0  0  0  0  0  0  0
   10.8750    1.1000   23.0380 C   0  0  0  0  0  0  0  0  0  0  0  0
  1  2  1  0
  2  3  1  0
  3  4  2  0
  3  5  1  0
  5  6  1  0
  6  7  1  0
  7  8  2  0
  8  9  1  0
  9 10  2  0
 10 11  1  0
 11 12  1  0
 12 13  1  0
 13 14  1  0
 14 15  2  0
 14 16  1  0
 16 17  1  0
 17 18  2  0
 18 19  1  0
 19 20  2  0
 20 21  1  0
 17 22  1  0
 21 22  2  0
  7 23  1  0
 11 23  2  0
M  END
