pyridine_urea_10341
     RDKit          3D

 23 25  0  0  0  0  0  0  0  0999 V2000
    8.9670    1.4770   21.1280 O   0  0  0  0  0  0  0  0  0  0  0  0
    8.3900    0.6000   21.7660 C   0  0  0  0  0  0  0  0  0  0  0  0
    8.6180    0.3360   23.1030 N   0  0  0  0  0  0  0  0  0  0  0  0
    9.7450    0.7650   23.8620 C   0  0  0  0  0  0  0  0  0  0  0  0
   10.9860   -0.0520   23.6530 C   0  0  0  0  0  0  0  0  0  0  0  0
   10.8930   -0.7100   22.3400 C   0  0  0  0  0  0  0  0  0  0  0  0
   11.8760   -1.6360   21.9190 C   0  0  0  0  0  0  0  0  0  0  0  0
   12.3460   -2.1070   20.8270 C   0  0  0  0  0  0  0  0  0  0  0  0
   13.2010   -3.0160   20.8440 C   0  0  0  0  0  0  0  0  0  0  0  0
   13.6540   -3.4760   21.9020 C   0  0  0  0  0  0  0  0  0  0  0  0
   14.5390   -4.4730   21.4490 F   0  0  0  0  0  0  0  0  0  0  0  0
   13.3140   -3.0410   23.2100 C   0  0  0  0  0  0  0  0  0  0  0  0
   12.3690   -2.0820   23.2210 C   0  0  0  0  0  0  0  0  0  0  0  0
   11.9150   -1.5670   24.3750 N   0  0  0  0  0  0  0  0  0  0  0  0
   12.1730   -0.2230   24.6660 C   0  0  0  0  0  0  0  0  0  0  0  0
   13.1410   -0.8570   25.4690 O   0  0  0  0  0  0  0  0  0  0  0  0
    7.4150   -0.2050   21.1940 N   0  0  0  0  0  0  0  0  0  0  0  0
    6.6320    0.2560   20.1900 C   0  0  0  0  0  0  0  0  0  0  0  0
    5.3640    1.0790   20.3820 C   0  0  0  0  0  0  0  0  0  0  0  0
    4.6830    1.5050   19.2580 C   0  0  0  0  0  0  0  0  0  0  0  0
    5.1330    1.1960   17.9810 C   0  0  0  0  0  0  0  0  0  0  0  0
    6.2290    0.4680   17.7220 N   0  0  0  0  0  0  0  0  0  0  0  0
    6.9890   -0.0110   18.8830 C   0  0  0  0  0  0  0  0  0  0  0  0
  1  2  2  0
  2  3  1  0
  3  4  1  0
  4  5  1  0
  5  6  2  0
  6  7  1  0
  7  8  2  0
  8  9  1  0
  9 10  2  0
 10 11  1  0
 10 12  1  0
  7 13  1  0
 12 13  2  0
 13 14  1  0
  5 15  1  0
 14 15  1  0
 15 16  2  0
  2 17  1  0
 17 18  1  0
 18 19  2  0
 19 20  1  0
 20 21  2  0
 21 22  1  0
 18 23  1  0
 22 23  2  0
M  END
