pyridine_urea_3607
     RDKit          3D

 16 17  0  0  0  0  0  0  0  0999 V2000
    8.9280    1.2190   21.2250 O   0  0  0  0  0  0  0  0  0  0  0  0
    8.3560    0.1860   21.6070 C   0  0  0  0  0  0  0  0  0  0  0  0
    8.7530   -0.5300   22.7110 N   0  0  0  0  0  0  0  0  0  0  0  0
   10.1010   -1.0160   22.7480 C   0  0  0  0  0  0  0  0  0  0  0  0
   10.8530   -0.5650   23.9820 C   0  0  2  0  0  0  0  0  0  0  0  0
   11.6040    0.6860   23.6160 C   0  0  0  0  0  0  0  0  0  0  0  0
   12.9010    0.2130   23.0100 C   0  0  0  0  0  0  0  0  0  0  0  0
   12.9190   -1.2920   22.7840 C   0  0  0  0  0  0  0  0  0  0  0  0
   11.9380   -1.8660   24.1990 S   0  0  0  0  0  0  0  0  0  0  0  0
    7.2590   -0.4090   21.0420 N   0  0  0  0  0  0  0  0  0  0  0  0
    6.5360    0.1580   19.9980 C   0  0  0  0  0  0  0  0  0  0  0  0
    5.3700    0.8690   20.2860 C   0  0  0  0  0  0  0  0  0  0  0  0
    4.6530    1.4590   19.2490 C   0  0  0  0  0  0  0  0  0  0  0  0
    5.1340    1.3120   17.9690 C   0  0  0  0  0  0  0  0  0  0  0  0
    6.2420    0.6250   17.6710 N   0  0  0  0  0  0  0  0  0  0  0  0
    6.9160    0.0650   18.6880 C   0  0  0  0  0  0  0  0  0  0  0  0
  1  2  2  0
  2  3  1  0
  3  4  1  0
  5  4  1  6
  5  6  1  0
  6  7  1  0
  7  8  1  0
  5  9  1  0
  8  9  1  0
  2 10  1  0
 10 11  1  0
 11 12  2  0
 12 13  1  0
 13 14  2  0
 14 15  1  0
 11 16  1  0
 15 16  2  0
M  END
