pyridine_urea_7719
     RDKit          3D

 18 18  0  0  0  0  0  0  0  0999 V2000
   12.6990    4.5840   22.0370 C   0  0  0  0  0  0  0  0  0  0  0  0
   12.2970    3.4310   21.8930 O   0  0  0  0  0  0  0  0  0  0  0  0
   11.7130    2.8760   22.9810 C   0  0  0  0  0  0  0  0  0  0  0  0
   11.1460    3.4950   23.8680 O   0  0  0  0  0  0  0  0  0  0  0  0
   11.8260    1.4710   22.9570 C   0  0  0  0  0  0  0  0  0  0  0  0
   12.9680    0.6740   22.8580 C   0  0  0  0  0  0  0  0  0  0  0  0
   10.4890    0.6920   23.0700 C   0  0  0  0  0  0  0  0  0  0  0  0
   10.4020   -0.6970   23.0400 C   0  0  0  0  0  0  0  0  0  0  0  0
    9.1100   -0.9610   22.4390 N   0  0  0  0  0  0  0  0  0  0  0  0
    8.6110   -0.0260   21.5880 C   0  0  0  0  0  0  0  0  0  0  0  0
    9.2920    1.2130   21.3790 O   0  0  0  0  0  0  0  0  0  0  0  0
    7.5000   -0.2510   20.9530 N   0  0  0  0  0  0  0  0  0  0  0  0
    6.6280    0.1590   20.0090 C   0  0  0  0  0  0  0  0  0  0  0  0
    5.4070    0.7470   20.3680 C   0  0  0  0  0  0  0  0  0  0  0  0
    4.5700    1.1930   19.3570 C   0  0  0  0  0  0  0  0  0  0  0  0
    4.9920    1.0310   18.0510 C   0  0  0  0  0  0  0  0  0  0  0  0
    6.1420    0.4610   17.6880 N   0  0  0  0  0  0  0  0  0  0  0  0
    6.9180    0.0440   18.6790 C   0  0  0  0  0  0  0  0  0  0  0  0
  1  2  1  0
  2  3  1  0
  3  4  2  0
  3  5  1  0
  5  6  1  0
  5  7  2  3
  7  8  1  0
  8  9  1  0
  9 10  1  0
 10 11  2  0
 10 12  1  0
 12 13  1  0
 13 14  2  0
 14 15  1  0
 15 16  2  0
 16 17  1  0
 13 18  1  0
 17 18  2  0
M  END
