pyridine_urea_12292
     RDKit          3D

 22 23  0  0  0  0  0  0  0  0999 V2000
   13.2370   -2.4770   24.5160 C   0  0  0  0  0  0  0  0  0  0  0  0
   13.8760   -2.0760   23.3260 O   0  0  0  0  0  0  0  0  0  0  0  0
   13.0010   -1.9510   22.2140 C   0  0  0  0  0  0  0  0  0  0  0  0
   13.0890   -2.5220   21.1420 O   0  0  0  0  0  0  0  0  0  0  0  0
   11.8680   -0.9280   22.5260 C   0  0  0  0  0  0  0  0  0  0  0  0
   12.2150    0.3540   22.8240 C   0  0  0  0  0  0  0  0  0  0  0  0
   13.6190    0.4780   22.8000 C   0  0  0  0  0  0  0  0  0  0  0  0
   11.3480    1.3960   23.1110 C   0  0  0  0  0  0  0  0  0  0  0  0
    9.9020    1.0360   23.0960 C   0  0  0  0  0  0  0  0  0  0  0  0
    9.6190   -0.3960   22.7600 C   0  0  0  0  0  0  0  0  0  0  0  0
    8.2340   -0.6630   22.7310 N   0  0  0  0  0  0  0  0  0  0  0  0
    7.8220   -0.0660   21.6000 C   0  0  0  0  0  0  0  0  0  0  0  0
    8.3930    0.9320   21.1650 O   0  0  0  0  0  0  0  0  0  0  0  0
    6.7410   -0.6810   21.0000 N   0  0  0  0  0  0  0  0  0  0  0  0
    6.2150   -0.0160   19.9500 C   0  0  0  0  0  0  0  0  0  0  0  0
    4.9130    0.7590   20.1640 C   0  0  0  0  0  0  0  0  0  0  0  0
    4.4100    1.5100   18.9370 C   0  0  0  0  0  0  0  0  0  0  0  0
    5.1350    1.4430   17.7620 C   0  0  0  0  0  0  0  0  0  0  0  0
    6.2820    0.7190   17.6600 N   0  0  0  0  0  0  0  0  0  0  0  0
    6.8150    0.0070   18.7110 C   0  0  0  0  0  0  0  0  0  0  0  0
   10.5720   -1.2990   22.4940 C   0  0  0  0  0  0  0  0  0  0  0  0
   10.2180   -2.5630   22.1920 C   0  0  0  0  0  0  0  0  0  0  0  0
  1  2  1  0
  2  3  1  0
  3  4  2  0
  3  5  1  0
  5  6  2  0
  6  7  1  0
  6  8  1  0
  8  9  2  0
  9 10  1  0
 10 11  1  0
 11 12  1  0
 12 13  2  0
 12 14  1  0
 14 15  1  0
 15 16  2  0
 16 17  1  0
 17 18  2  0
 18 19  1  0
 15 20  1  0
 19 20  2  0
  5 21  1  0
 10 21  2  0
 21 22  1  0
M  END
