pyridine_urea_14933
     RDKit          3D

 19 20  0  0  0  0  0  0  0  0999 V2000
    9.9600   -1.1500   23.8390 C   0  0  0  0  0  0  0  0  0  0  0  0
   10.5660   -0.6310   22.5380 C   0  0  0  0  0  0  0  0  0  0  0  0
   11.1270    0.7380   22.8520 C   0  0  0  0  0  0  0  0  0  0  0  0
    9.5600   -0.7440   21.4880 N   0  0  0  0  0  0  0  0  0  0  0  0
    8.6550    0.2370   21.3870 C   0  0  0  0  0  0  0  0  0  0  0  0
    8.9700    1.4260   21.3280 O   0  0  0  0  0  0  0  0  0  0  0  0
    7.3070   -0.2890   21.2960 N   0  0  0  0  0  0  0  0  0  0  0  0
    6.5880    0.1950   20.2370 C   0  0  0  0  0  0  0  0  0  0  0  0
    5.2930    0.9860   20.4250 C   0  0  0  0  0  0  0  0  0  0  0  0
    4.5580    1.5220   19.1930 C   0  0  0  0  0  0  0  0  0  0  0  0
    5.1200    1.2510   17.9540 C   0  0  0  0  0  0  0  0  0  0  0  0
    6.2340    0.5590   17.7300 N   0  0  0  0  0  0  0  0  0  0  0  0
    6.9300    0.0590   18.7570 C   0  0  0  0  0  0  0  0  0  0  0  0
   11.7240   -1.4860   22.1160 C   0  0  0  0  0  0  0  0  0  0  0  0
   11.8940   -1.4810   23.4310 C   0  0  0  0  0  0  0  0  0  0  0  0
   12.4290   -1.7490   24.6060 C   0  0  0  0  0  0  0  0  0  0  0  0
   13.4720   -2.4930   24.6370 N   0  0  0  0  0  0  0  0  0  0  0  0
   13.6810   -2.7770   23.2250 C   0  0  0  0  0  0  0  0  0  0  0  0
   12.9010   -2.3220   22.0710 C   0  0  0  0  0  0  0  0  0  0  0  0
  1  2  1  0
  2  3  1  0
  2  4  1  0
  4  5  1  0
  5  6  2  0
  5  7  1  0
  7  8  1  0
  8  9  2  0
  9 10  1  0
 10 11  2  0
 11 12  1  0
  8 13  1  0
 12 13  2  0
  2 14  1  0
 14 15  2  0
 15 16  1  0
 16 17  2  0
 17 18  1  0
 14 19  1  0
 18 19  2  0
M  END
