pyridine_urea_15049
     RDKit          3D

 18 19  0  0  0  0  0  0  0  0999 V2000
    9.5720   -0.1250   25.4010 C   0  0  0  0  0  0  0  0  0  0  0  0
   10.5910   -0.1590   24.2540 C   0  0  2  0  0  0  0  0  0  0  0  0
    9.9970   -0.9850   23.1110 C   0  0  0  0  0  0  0  0  0  0  0  0
    8.6790   -0.8450   22.8810 N   0  0  0  0  0  0  0  0  0  0  0  0
    8.3110   -0.1890   21.7610 C   0  0  0  0  0  0  0  0  0  0  0  0
    8.9090    0.7920   21.3390 O   0  0  0  0  0  0  0  0  0  0  0  0
    7.1280   -0.7910   21.1720 N   0  0  0  0  0  0  0  0  0  0  0  0
    6.4990   -0.1120   20.1570 C   0  0  0  0  0  0  0  0  0  0  0  0
    5.2000    0.6770   20.3710 C   0  0  0  0  0  0  0  0  0  0  0  0
    4.5700    1.4170   19.1790 C   0  0  0  0  0  0  0  0  0  0  0  0
    5.2200    1.3300   17.9540 C   0  0  0  0  0  0  0  0  0  0  0  0
    6.3450    0.6540   17.7210 N   0  0  0  0  0  0  0  0  0  0  0  0
    6.9490   -0.0160   18.7090 C   0  0  0  0  0  0  0  0  0  0  0  0
   11.8240   -0.8630   24.7000 C   0  0  0  0  0  0  0  0  0  0  0  0
   12.9240   -0.7840   23.8970 C   0  0  0  0  0  0  0  0  0  0  0  0
   12.6770   -0.3270   22.6280 C   0  0  0  0  0  0  0  0  0  0  0  0
   11.5790    0.6960   22.6320 C   0  0  0  0  0  0  0  0  0  0  0  0
   10.9580    0.9170   23.8330 O   0  0  0  0  0  0  0  0  0  0  0  0
  2  1  1  1
  2  3  1  0
  3  4  1  0
  4  5  1  0
  5  6  2  0
  5  7  1  0
  7  8  1  0
  8  9  2  0
  9 10  1  0
 10 11  2  0
 11 12  1  0
  8 13  1  0
 12 13  2  0
  2 14  1  0
 14 15  1  0
 15 16  1  0
 16 17  1  0
  2 18  1  0
 17 18  1  0
M  END
