pyridine_urea_3268
     RDKit          3D

 20 21  0  0  0  0  0  0  0  0999 V2000
    8.8440    0.9220   21.3250 O   0  0  0  0  0  0  0  0  0  0  0  0
    8.4120   -0.2100   21.4840 C   0  0  0  0  0  0  0  0  0  0  0  0
    9.1070   -1.2290   22.0730 N   0  0  0  0  0  0  0  0  0  0  0  0
   10.4110   -1.0860   22.5660 C   0  0  0  0  0  0  0  0  0  0  0  0
   10.6530    0.0910   23.2650 C   0  0  0  0  0  0  0  0  0  0  0  0
   10.7210    1.0270   22.4800 O   0  0  0  0  0  0  0  0  0  0  0  0
   10.7770    2.3130   22.9560 C   0  0  0  0  0  0  0  0  0  0  0  0
   11.9860    2.9390   22.7520 C   0  0  0  0  0  0  0  0  0  0  0  0
   12.1760    4.3680   23.2290 C   0  0  0  0  0  0  0  0  0  0  0  0
   11.1420    5.0320   23.8700 C   0  0  0  0  0  0  0  0  0  0  0  0
   11.3350    6.8080   24.4850 Br  0  0  0  0  0  0  0  0  0  0  0  0
    9.8250    4.2450   24.0550 C   0  0  0  0  0  0  0  0  0  0  0  0
    9.6710    2.9220   23.6000 C   0  0  0  0  0  0  0  0  0  0  0  0
    7.1700   -0.6200   21.0760 N   0  0  0  0  0  0  0  0  0  0  0  0
    6.4780    0.0180   20.0370 C   0  0  0  0  0  0  0  0  0  0  0  0
    5.3110    0.7370   20.3210 C   0  0  0  0  0  0  0  0  0  0  0  0
    4.6430    1.3840   19.2710 C   0  0  0  0  0  0  0  0  0  0  0  0
    5.1590    1.2950   17.9890 C   0  0  0  0  0  0  0  0  0  0  0  0
    6.2670    0.6060   17.7010 N   0  0  0  0  0  0  0  0  0  0  0  0
    6.9020   -0.0160   18.7210 C   0  0  0  0  0  0  0  0  0  0  0  0
  1  2  2  0
  2  3  1  0
  3  4  1  0
  4  5  1  0
  5  6  1  0
  6  7  1  0
  7  8  2  0
  8  9  1  0
  9 10  2  0
 10 11  1  0
 10 12  1  0
  7 13  1  0
 12 13  2  0
  2 14  1  0
 14 15  1  0
 15 16  2  0
 16 17  1  0
 17 18  2  0
 18 19  1  0
 15 20  1  0
 19 20  2  0
M  END
