pyridine_urea_7703
     RDKit          3D

 20 22  0  0  0  0  0  0  0  0999 V2000
    9.0000    1.2160   21.2570 O   0  0  0  0  0  0  0  0  0  0  0  0
    8.4270    0.1830   21.6230 C   0  0  0  0  0  0  0  0  0  0  0  0
    7.3120   -0.3860   21.0570 N   0  0  0  0  0  0  0  0  0  0  0  0
    6.5760    0.1720   20.0150 C   0  0  0  0  0  0  0  0  0  0  0  0
    5.4130    0.8880   20.3130 C   0  0  0  0  0  0  0  0  0  0  0  0
    4.6800    1.4670   19.2810 C   0  0  0  0  0  0  0  0  0  0  0  0
    5.1410    1.3050   17.9950 C   0  0  0  0  0  0  0  0  0  0  0  0
    6.2460    0.6160   17.6860 N   0  0  0  0  0  0  0  0  0  0  0  0
    6.9350    0.0650   18.6990 C   0  0  0  0  0  0  0  0  0  0  0  0
    8.8290   -0.5760   22.6990 N   0  0  0  0  0  0  0  0  0  0  0  0
   10.0940   -0.3620   23.4360 C   0  0  2  0  0  0  0  0  0  0  0  0
   10.1470    1.0210   23.9720 C   0  0  0  0  0  0  0  0  0  0  0  0
   11.5280    1.2850   23.7620 O   0  0  0  0  0  0  0  0  0  0  0  0
   12.1200    0.2040   22.9760 C   0  0  0  0  0  0  0  0  0  0  0  0
   11.1840   -0.8180   22.5610 C   0  0  1  0  0  0  0  0  0  0  0  0
   11.6960   -2.0990   22.8990 N   0  0  0  0  0  0  0  0  0  0  0  0
   13.0070   -2.2320   22.6250 C   0  0  0  0  0  0  0  0  0  0  0  0
   13.5840   -2.5080   23.8250 C   0  0  0  0  0  0  0  0  0  0  0  0
   12.5770   -2.6660   24.7590 C   0  0  0  0  0  0  0  0  0  0  0  0
   11.3320   -2.5990   24.1250 C   0  0  0  0  0  0  0  0  0  0  0  0
  1  2  2  0
  2  3  1  0
  3  4  1  0
  4  5  2  0
  5  6  1  0
  6  7  2  0
  7  8  1  0
  4  9  1  0
  8  9  2  0
  2 10  1  0
 11 10  1  6
 11 12  1  0
 12 13  1  0
 13 14  1  0
 11 15  1  0
 14 15  1  0
 15 16  1  1
 16 17  1  0
 17 18  1  0
 18 19  1  0
 16 20  1  0
 19 20  1  0
M  END
