pyridine_urea_6732
     RDKit          3D

 21 22  0  0  0  0  0  0  0  0999 V2000
   11.0800   -0.8890   25.0910 C   0  0  0  0  0  0  0  0  0  0  0  0
   10.5940   -0.1050   23.8540 C   0  0  2  0  0  0  0  0  0  0  0  0
   10.3110   -1.1360   22.7420 C   0  0  0  0  0  0  0  0  0  0  0  0
    8.8490   -1.1920   22.3960 N   0  0  0  0  0  0  0  0  0  0  0  0
    8.3170   -0.2350   21.5690 C   0  0  0  0  0  0  0  0  0  0  0  0
    8.8670    0.8370   21.3650 O   0  0  0  0  0  0  0  0  0  0  0  0
    7.1240   -0.6510   21.0430 N   0  0  0  0  0  0  0  0  0  0  0  0
    6.4540    0.0130   20.0090 C   0  0  0  0  0  0  0  0  0  0  0  0
    5.2880    0.7150   20.3010 C   0  0  0  0  0  0  0  0  0  0  0  0
    4.6390    1.3840   19.2520 C   0  0  0  0  0  0  0  0  0  0  0  0
    5.1830    1.3190   17.9690 C   0  0  0  0  0  0  0  0  0  0  0  0
    6.3020    0.6370   17.6940 N   0  0  0  0  0  0  0  0  0  0  0  0
    6.9010    0.0060   18.7140 C   0  0  0  0  0  0  0  0  0  0  0  0
   11.6360    0.9750   23.4080 C   0  0  0  0  0  0  0  0  0  0  0  0
   11.3240    2.1640   23.4470 C   0  0  0  0  0  0  0  0  0  0  0  0
   12.5310    1.5150   23.0430 C   0  0  0  0  0  0  0  0  0  0  0  0
   12.6800    2.8590   22.9180 F   0  0  0  0  0  0  0  0  0  0  0  0
   11.6210    0.0720   23.4400 C   0  0  0  0  0  0  0  0  0  0  0  0
   12.8210   -0.4380   23.0450 C   0  0  0  0  0  0  0  0  0  0  0  0
   13.4370   -1.6120   22.8800 F   0  0  0  0  0  0  0  0  0  0  0  0
   12.9970    0.7150   22.9330 C   0  0  0  0  0  0  0  0  0  0  0  0
  2  1  1  1
  2  3  1  0
  3  4  1  0
  4  5  1  0
  5  6  2  0
  5  7  1  0
  7  8  1  0
  8  9  2  0
  9 10  1  0
 10 11  2  0
 11 12  1  0
  8 13  1  0
 12 13  2  0
  2 14  1  0
 14 15  2  0
 15 16  1  0
 16 17  1  0
 16 18  2  0
 18 19  1  0
 19 20  1  0
 14 21  1  0
 19 21  2  0
M  END
