pyridine_urea_14830
     RDKit          3D

 20 21  0  0  0  0  0  0  0  0999 V2000
   11.5240   -1.3620   21.9520 C   0  0  0  0  0  0  0  0  0  0  0  0
   10.4430   -0.3800   22.4030 C   0  0  1  0  0  0  0  0  0  0  0  0
   10.6750    0.9970   22.5560 C   0  0  0  0  0  0  0  0  0  0  0  0
    9.6230    1.9060   22.1000 N   0  0  0  0  0  0  0  0  0  0  0  0
    9.0730   -0.7360   22.0430 N   0  0  0  0  0  0  0  0  0  0  0  0
    8.1610    0.0800   21.3030 C   0  0  0  0  0  0  0  0  0  0  0  0
    8.4270    1.2360   20.8940 O   0  0  0  0  0  0  0  0  0  0  0  0
    6.8900   -0.5370   21.0390 N   0  0  0  0  0  0  0  0  0  0  0  0
    6.3400    0.0700   19.9750 C   0  0  0  0  0  0  0  0  0  0  0  0
    5.1620    0.7640   20.1650 C   0  0  0  0  0  0  0  0  0  0  0  0
    4.4900    1.5060   19.0220 C   0  0  0  0  0  0  0  0  0  0  0  0
    5.1360    1.4340   17.8040 C   0  0  0  0  0  0  0  0  0  0  0  0
    6.2910    0.7350   17.6310 N   0  0  0  0  0  0  0  0  0  0  0  0
    6.8530    0.0890   18.6740 C   0  0  0  0  0  0  0  0  0  0  0  0
   10.4970   -0.4770   23.8280 C   0  0  0  0  0  0  0  0  0  0  0  0
    9.5690   -0.5280   24.7320 C   0  0  0  0  0  0  0  0  0  0  0  0
   10.8830   -0.5840   25.5530 C   0  0  0  0  0  0  0  0  0  0  0  0
   12.3780   -0.5750   25.1980 C   0  0  0  0  0  0  0  0  0  0  0  0
   12.7920   -0.4910   23.8960 C   0  0  0  0  0  0  0  0  0  0  0  0
   11.6070   -0.5170   24.4070 C   0  0  0  0  0  0  0  0  0  0  0  0
  2  1  1  6
  2  3  1  0
  3  4  1  0
  2  5  1  0
  5  6  1  0
  6  7  2  0
  6  8  1  0
  8  9  1  0
  9 10  2  0
 10 11  1  0
 11 12  2  0
 12 13  1  0
  9 14  1  0
 13 14  2  0
  2 15  1  0
 15 16  2  0
 16 17  1  0
 17 18  2  0
 18 19  1  0
 15 20  1  0
 19 20  2  0
M  END
