pyridine_urea_10685
     RDKit          3D

 21 22  0  0  0  0  0  0  0  0999 V2000
    8.1990    0.8920   25.4280 C   0  0  0  0  0  0  0  0  0  0  0  0
    8.9950    1.9580   24.9010 O   0  0  0  0  0  0  0  0  0  0  0  0
   10.1740    1.5510   24.3350 C   0  0  0  0  0  0  0  0  0  0  0  0
   11.0910    2.5870   23.5600 C   0  0  0  0  0  0  0  0  0  0  0  0
   12.4400    2.1240   22.9100 C   0  0  0  0  0  0  0  0  0  0  0  0
   12.8170    0.6770   23.0360 C   0  0  0  0  0  0  0  0  0  0  0  0
   12.4090   -0.5440   23.5530 C   0  0  0  0  0  0  0  0  0  0  0  0
   11.5710   -1.2550   22.6670 C   0  0  0  0  0  0  0  0  0  0  0  0
   10.2100   -1.2180   23.0320 C   0  0  0  0  0  0  0  0  0  0  0  0
    9.3400   -1.3700   21.8810 N   0  0  0  0  0  0  0  0  0  0  0  0
    8.5620   -0.3210   21.4340 C   0  0  0  0  0  0  0  0  0  0  0  0
    8.9680    0.8340   21.3790 O   0  0  0  0  0  0  0  0  0  0  0  0
    7.3030   -0.7190   21.0440 N   0  0  0  0  0  0  0  0  0  0  0  0
    6.5280   -0.0340   20.0860 C   0  0  0  0  0  0  0  0  0  0  0  0
    5.3350    0.6890   20.3580 C   0  0  0  0  0  0  0  0  0  0  0  0
    4.5660    1.3990   19.3710 C   0  0  0  0  0  0  0  0  0  0  0  0
    5.1920    1.2850   17.9890 C   0  0  0  0  0  0  0  0  0  0  0  0
    6.3260    0.5840   17.7570 N   0  0  0  0  0  0  0  0  0  0  0  0
    6.9800   -0.0680   18.7860 C   0  0  0  0  0  0  0  0  0  0  0  0
   11.4870    0.9150   23.7480 C   0  0  0  0  0  0  0  0  0  0  0  0
   10.7070    0.0430   24.4070 C   0  0  0  0  0  0  0  0  0  0  0  0
  1  2  1  0
  2  3  1  0
  3  4  2  0
  4  5  1  0
  5  6  2  0
  6  7  1  0
  7  8  1  0
  8  9  1  0
  9 10  1  0
 10 11  1  0
 11 12  2  0
 11 13  1  0
 13 14  1  0
 14 15  2  0
 15 16  1  0
 16 17  2  0
 17 18  1  0
 14 19  1  0
 18 19  2  0
  6 20  1  0
  3 21  1  0
 20 21  2  0
M  END
