pyridine_urea_13761
     RDKit          3D

 25 26  0  0  0  0  0  0  0  0999 V2000
   12.7700   -1.8270   22.1940 C   0  0  0  0  0  0  0  0  0  0  0  0
   12.5740   -0.8460   22.8590 C   0  0  0  0  0  0  0  0  0  0  0  0
   12.7790    0.5500   23.4320 C   0  0  0  0  0  0  0  0  0  0  0  0
   11.1580   -0.5930   22.2900 C   0  0  0  0  0  0  0  0  0  0  0  0
   10.1950   -0.9920   23.1910 C   0  0  2  0  0  0  0  0  0  0  0  0
    8.9870   -1.2450   22.4230 N   0  0  0  0  0  0  0  0  0  0  0  0
    8.4430   -0.2970   21.5610 C   0  0  0  0  0  0  0  0  0  0  0  0
    8.9690    0.7890   21.3600 O   0  0  0  0  0  0  0  0  0  0  0  0
    7.2590   -0.7330   20.9940 N   0  0  0  0  0  0  0  0  0  0  0  0
    6.4470   -0.0120   20.0860 C   0  0  0  0  0  0  0  0  0  0  0  0
    5.2690    0.5760   20.4690 C   0  0  0  0  0  0  0  0  0  0  0  0
    4.6970    1.2600   19.2400 C   0  0  0  0  0  0  0  0  0  0  0  0
    5.2850    1.2640   18.0000 C   0  0  0  0  0  0  0  0  0  0  0  0
    6.4220    0.6600   17.7420 N   0  0  0  0  0  0  0  0  0  0  0  0
    6.9640    0.0410   18.7910 C   0  0  0  0  0  0  0  0  0  0  0  0
   10.1700    0.3930   23.9290 C   0  0  0  0  0  0  0  0  0  0  0  0
   10.0230    0.3490   25.3590 O   0  0  0  0  0  0  0  0  0  0  0  0
   10.2720    1.5490   23.0720 O   0  0  0  0  0  0  0  0  0  0  0  0
    9.4390    2.6530   23.4470 C   0  0  0  0  0  0  0  0  0  0  0  0
   10.2600    3.9140   23.3580 C   0  0  0  0  0  0  0  0  0  0  0  0
    9.6670    5.2690   23.0650 C   0  0  0  0  0  0  0  0  0  0  0  0
   10.4740    6.4120   22.9940 C   0  0  0  0  0  0  0  0  0  0  0  0
   11.8470    6.2700   23.2030 C   0  0  0  0  0  0  0  0  0  0  0  0
   12.4140    5.0270   23.4740 C   0  0  0  0  0  0  0  0  0  0  0  0
   11.6380    3.8670   23.5500 C   0  0  0  0  0  0  0  0  0  0  0  0
  1  2  1  0
  2  3  1  0
  2  4  1  0
  5  4  1  6
  5  6  1  0
  6  7  1  0
  7  8  2  0
  7  9  1  0
  9 10  1  0
 10 11  2  0
 11 12  1  0
 12 13  2  0
 13 14  1  0
 10 15  1  0
 14 15  2  0
  5 16  1  0
 16 17  2  0
 16 18  1  0
 18 19  1  0
 19 20  1  0
 20 21  2  0
 21 22  1  0
 22 23  2  0
 23 24  1  0
 20 25  1  0
 24 25  2  0
M  END
