pyridine_urea_1581
     RDKit          3D

 19 20  0  0  0  0  0  0  0  0999 V2000
    1.2330    4.4360   18.4120 C   0  0  0  0  0  0  0  0  0  0  0  0
    2.6340    3.8960   18.4620 C   0  0  0  0  0  0  0  0  0  0  0  0
    2.6850    2.2910   19.2730 S   0  0  0  0  0  0  0  0  0  0  0  0
    4.3000    1.5120   19.2590 C   0  0  0  0  0  0  0  0  0  0  0  0
    4.5240    0.9560   20.4700 C   0  0  0  0  0  0  0  0  0  0  0  0
    5.5900    0.2770   20.8890 C   0  0  0  0  0  0  0  0  0  0  0  0
    6.6200    0.0900   20.0360 C   0  0  0  0  0  0  0  0  0  0  0  0
    7.7280   -0.6000   20.5100 N   0  0  0  0  0  0  0  0  0  0  0  0
    8.6150    0.0450   21.3320 C   0  0  0  0  0  0  0  0  0  0  0  0
    8.8870    1.2470   21.2120 O   0  0  0  0  0  0  0  0  0  0  0  0
    9.2140   -0.7670   22.2730 N   0  0  0  0  0  0  0  0  0  0  0  0
   10.6230   -0.5080   22.4990 C   0  0  0  0  0  0  0  0  0  0  0  0
   11.6600   -1.4120   22.4150 C   0  0  0  0  0  0  0  0  0  0  0  0
   12.9490   -0.9540   22.6340 C   0  0  0  0  0  0  0  0  0  0  0  0
   13.1310    0.3850   22.9230 C   0  0  0  0  0  0  0  0  0  0  0  0
   12.1550    1.2810   23.0160 N   0  0  0  0  0  0  0  0  0  0  0  0
   10.9160    0.8080   22.8050 C   0  0  0  0  0  0  0  0  0  0  0  0
    6.5210    0.6220   18.7260 C   0  0  0  0  0  0  0  0  0  0  0  0
    5.4230    1.3210   18.2750 N   0  0  0  0  0  0  0  0  0  0  0  0
  1  2  1  0
  2  3  1  0
  3  4  1  0
  4  5  2  0
  5  6  1  0
  6  7  2  0
  7  8  1  0
  8  9  1  0
  9 10  2  0
  9 11  1  0
 11 12  1  0
 12 13  2  0
 13 14  1  0
 14 15  2  0
 15 16  1  0
 12 17  1  0
 16 17  2  0
  7 18  1  0
  4 19  1  0
 18 19  2  0
M  END
