pyridine_urea_9154
     RDKit          3D

 19 20  0  0  0  0  0  0  0  0999 V2000
   10.8140   -1.4020   22.1580 C   0  0  0  0  0  0  0  0  0  0  0  0
   10.0540   -0.0960   22.5470 C   0  0  2  0  0  0  0  0  0  0  0  0
   10.6300    0.3630   23.8840 C   0  0  0  0  0  0  0  0  0  0  0  0
   11.7280   -0.3960   24.0100 C   0  0  0  0  0  0  0  0  0  0  0  0
   12.2380    0.3820   23.1290 C   0  0  0  0  0  0  0  0  0  0  0  0
   13.3680   -0.2980   23.0300 C   0  0  0  0  0  0  0  0  0  0  0  0
   13.3760   -1.4730   23.9240 C   0  0  0  0  0  0  0  0  0  0  0  0
   12.2880   -1.8760   24.8380 C   0  0  0  0  0  0  0  0  0  0  0  0
   11.0430   -1.0970   24.9200 N   0  0  0  0  0  0  0  0  0  0  0  0
    8.7440   -0.2560   22.6050 N   0  0  0  0  0  0  0  0  0  0  0  0
    8.1180    0.2630   21.5020 C   0  0  0  0  0  0  0  0  0  0  0  0
    8.5130    1.3240   21.0000 O   0  0  0  0  0  0  0  0  0  0  0  0
    7.0910   -0.4970   21.0810 N   0  0  0  0  0  0  0  0  0  0  0  0
    6.4530    0.0890   20.0600 C   0  0  0  0  0  0  0  0  0  0  0  0
    5.2550    0.7790   20.3130 C   0  0  0  0  0  0  0  0  0  0  0  0
    4.6210    1.4230   19.1280 C   0  0  0  0  0  0  0  0  0  0  0  0
    5.1660    1.3470   17.8840 C   0  0  0  0  0  0  0  0  0  0  0  0
    6.3190    0.6620   17.6800 N   0  0  0  0  0  0  0  0  0  0  0  0
    6.9070    0.0690   18.7490 C   0  0  0  0  0  0  0  0  0  0  0  0
  2  1  1  1
  2  3  1  0
  3  4  1  0
  4  5  2  0
  5  6  1  0
  6  7  2  0
  7  8  1  0
  4  9  1  0
  8  9  2  0
  2 10  1  0
 10 11  1  0
 11 12  2  0
 11 13  1  0
 13 14  1  0
 14 15  2  0
 15 16  1  0
 16 17  2  0
 17 18  1  0
 14 19  1  0
 18 19  2  0
M  END
