pyridine_urea_9765
     RDKit          3D

 27 28  0  0  0  0  0  0  0  0999 V2000
   13.4150    0.3250   22.9610 C   0  0  0  0  0  0  0  0  0  0  0  0
   12.3650    0.7760   22.1900 O   0  0  0  0  0  0  0  0  0  0  0  0
   11.4830    1.6330   22.8520 C   0  0  0  0  0  0  0  0  0  0  0  0
   11.7150    2.7680   23.2460 O   0  0  0  0  0  0  0  0  0  0  0  0
   10.1740    0.9060   22.9650 C   0  0  0  0  0  0  0  0  0  0  0  0
   10.3110   -0.5100   22.4620 C   0  0  2  0  0  0  0  0  0  0  0  0
    9.4870   -0.5510   21.2860 N   0  0  0  0  0  0  0  0  0  0  0  0
    8.4230    0.2900   21.1480 C   0  0  0  0  0  0  0  0  0  0  0  0
    8.5650    1.5070   21.1100 O   0  0  0  0  0  0  0  0  0  0  0  0
    7.2150   -0.3920   20.9750 N   0  0  0  0  0  0  0  0  0  0  0  0
    6.4160    0.1700   20.0320 C   0  0  0  0  0  0  0  0  0  0  0  0
    5.0910    0.8730   20.2950 C   0  0  0  0  0  0  0  0  0  0  0  0
    4.4870    1.4010   19.1550 C   0  0  0  0  0  0  0  0  0  0  0  0
    5.0930    1.2610   17.9140 C   0  0  0  0  0  0  0  0  0  0  0  0
    6.2500    0.6270   17.6890 N   0  0  0  0  0  0  0  0  0  0  0  0
    6.8780    0.1020   18.7390 C   0  0  0  0  0  0  0  0  0  0  0  0
    9.5760   -1.5480   23.1560 C   0  0  0  0  0  0  0  0  0  0  0  0
   10.7950   -1.6180   23.2500 C   0  0  0  0  0  0  0  0  0  0  0  0
   12.0720   -1.3360   23.1090 C   0  0  0  0  0  0  0  0  0  0  0  0
   12.6760   -2.2690   23.7570 C   0  0  0  0  0  0  0  0  0  0  0  0
   14.0420   -2.4530   23.9480 O   0  0  0  0  0  0  0  0  0  0  0  0
   14.0010   -2.6450   25.3460 C   0  0  0  0  0  0  0  0  0  0  0  0
   13.1220   -1.7370   25.6800 F   0  0  0  0  0  0  0  0  0  0  0  0
   15.0780   -2.4770   26.1160 F   0  0  0  0  0  0  0  0  0  0  0  0
   13.5430   -3.8400   25.6810 F   0  0  0  0  0  0  0  0  0  0  0  0
   11.5230   -3.0380   24.2330 C   0  0  0  0  0  0  0  0  0  0  0  0
   10.0440   -2.6880   23.9420 C   0  0  0  0  0  0  0  0  0  0  0  0
  1  2  1  0
  2  3  1  0
  3  4  2  0
  3  5  1  0
  6  5  1  1
  6  7  1  0
  7  8  1  0
  8  9  2  0
  8 10  1  0
 10 11  1  0
 11 12  2  0
 12 13  1  0
 13 14  2  0
 14 15  1  0
 11 16  1  0
 15 16  2  0
  6 17  1  0
 17 18  2  0
 18 19  1  0
 19 20  2  0
 20 21  1  0
 21 22  1  0
 22 23  1  0
 22 24  1  0
 22 25  1  0
 20 26  1  0
 17 27  1  0
 26 27  2  0
M  END
