pyridine_urea_9590
     RDKit          3D

 26 28  0  0  0  0  0  0  0  0999 V2000
    8.5930    1.3190   21.1360 O   0  0  0  0  0  0  0  0  0  0  0  0
    8.2360    0.1850   21.4870 C   0  0  0  0  0  0  0  0  0  0  0  0
    9.0280   -0.5720   22.2880 N   0  0  0  0  0  0  0  0  0  0  0  0
   10.3420   -0.3590   21.8070 C   0  0  0  0  0  0  0  0  0  0  0  0
   11.4300   -1.1530   22.3830 C   0  0  0  0  0  0  0  0  0  0  0  0
   11.3520   -0.8540   23.7100 C   0  0  0  0  0  0  0  0  0  0  0  0
   12.7960   -0.6100   24.1880 C   0  0  0  0  0  0  0  0  0  0  0  0
   12.4270   -0.3730   25.4740 C   0  0  0  0  0  0  0  0  0  0  0  0
   11.0930   -0.6140   24.8640 C   0  0  0  0  0  0  0  0  0  0  0  0
   10.3870   -0.4280   25.9760 C   0  0  0  0  0  0  0  0  0  0  0  0
    9.0820   -0.4450   26.4510 O   0  0  0  0  0  0  0  0  0  0  0  0
    8.2390    0.6700   26.0700 C   0  0  0  0  0  0  0  0  0  0  0  0
    8.5990    1.2550   24.9200 F   0  0  0  0  0  0  0  0  0  0  0  0
    8.1680    1.6180   27.0470 F   0  0  0  0  0  0  0  0  0  0  0  0
    6.9700    0.2030   25.9110 F   0  0  0  0  0  0  0  0  0  0  0  0
   10.1000   -0.7760   24.5590 C   0  0  0  0  0  0  0  0  0  0  0  0
   12.7610   -1.2210   22.0140 C   0  0  0  0  0  0  0  0  0  0  0  0
   12.5530   -2.3230   21.4210 C   0  0  0  0  0  0  0  0  0  0  0  0
   11.2390   -2.6620   22.0950 C   0  0  0  0  0  0  0  0  0  0  0  0
    7.0840   -0.4290   21.1000 N   0  0  0  0  0  0  0  0  0  0  0  0
    6.4140    0.1370   20.0300 C   0  0  0  0  0  0  0  0  0  0  0  0
    5.1570    0.9000   20.2520 C   0  0  0  0  0  0  0  0  0  0  0  0
    4.5500    1.4690   19.1520 C   0  0  0  0  0  0  0  0  0  0  0  0
    5.1220    1.3120   17.9160 C   0  0  0  0  0  0  0  0  0  0  0  0
    6.2450    0.6260   17.6580 N   0  0  0  0  0  0  0  0  0  0  0  0
    6.8490    0.0610   18.7250 C   0  0  0  0  0  0  0  0  0  0  0  0
  1  2  2  0
  2  3  1  0
  3  4  1  0
  5  4  1  0
  5  6  1  0
  6  7  2  0
  7  8  1  0
  8  9  2  0
  9 10  1  0
 10 11  1  0
 11 12  1  0
 12 13  1  0
 12 14  1  0
 12 15  1  0
  6 16  1  0
 10 16  2  0
  5 17  1  0
 17 18  1  0
  5 19  1  0
 18 19  1  0
  2 20  1  0
 20 21  1  0
 21 22  2  0
 22 23  1  0
 23 24  2  0
 24 25  1  0
 21 26  1  0
 25 26  2  0
M  END
