pyridine_urea_120
     RDKit          3D

 22 24  0  0  0  0  0  0  0  0999 V2000
    8.9060    1.2180   21.0970 O   0  0  0  0  0  0  0  0  0  0  0  0
    8.5660    0.1080   21.5190 C   0  0  0  0  0  0  0  0  0  0  0  0
    7.4260   -0.5560   21.0870 N   0  0  0  0  0  0  0  0  0  0  0  0
    6.6600    0.0590   20.0260 C   0  0  0  0  0  0  0  0  0  0  0  0
    5.4060    0.8290   20.4370 C   0  0  0  0  0  0  0  0  0  0  0  0
    4.6670    1.4550   19.3050 C   0  0  0  0  0  0  0  0  0  0  0  0
    5.1560    1.2950   18.0250 C   0  0  0  0  0  0  0  0  0  0  0  0
    6.2630    0.5970   17.7150 N   0  0  0  0  0  0  0  0  0  0  0  0
    6.9760    0.0070   18.6960 C   0  0  0  0  0  0  0  0  0  0  0  0
    9.2590   -0.6220   22.4760 N   0  0  0  0  0  0  0  0  0  0  0  0
   10.7000   -0.4160   22.8480 C   0  0  2  0  0  0  0  0  0  0  0  0
   11.1510    0.8590   22.8480 C   0  0  0  0  0  0  0  0  0  0  0  0
    9.9220    1.7260   22.9200 C   0  0  0  0  0  0  0  0  0  0  0  0
   10.0690    3.1300   22.9350 C   0  0  0  0  0  0  0  0  0  0  0  0
   11.3530    3.7280   22.8870 C   0  0  0  0  0  0  0  0  0  0  0  0
   11.5540    5.6090   22.9120 Br  0  0  0  0  0  0  0  0  0  0  0  0
   12.4730    2.9180   22.8230 C   0  0  0  0  0  0  0  0  0  0  0  0
   12.4210    1.4240   22.8020 C   0  0  0  0  0  0  0  0  0  0  0  0
   11.6320   -1.4350   22.1150 C   0  0  0  0  0  0  0  0  0  0  0  0
   12.0160   -1.5310   23.4850 C   0  0  1  0  0  0  0  0  0  0  0  0
   13.1310   -0.8180   23.7420 F   0  0  0  0  0  0  0  0  0  0  0  0
   10.9440   -1.1230   24.2790 C   0  0  0  0  0  0  0  0  0  0  0  0
  1  2  2  0
  2  3  1  0
  3  4  1  0
  4  5  2  0
  5  6  1  0
  6  7  2  0
  7  8  1  0
  4  9  1  0
  8  9  2  0
  2 10  1  0
 11 10  1  6
 11 12  1  0
 12 13  2  0
 13 14  1  0
 14 15  2  0
 15 16  1  0
 15 17  1  0
 12 18  1  0
 17 18  2  0
 11 19  1  0
 19 20  1  0
 20 21  1  6
 11 22  1  0
 20 22  1  0
M  END
