pyridine_urea_6725
     RDKit          3D

 21 22  0  0  0  0  0  0  0  0999 V2000
   11.6610   -2.2200   22.0440 C   0  0  0  0  0  0  0  0  0  0  0  0
   11.3590   -1.2640   23.1750 C   0  0  0  0  0  0  0  0  0  0  0  0
   11.7740   -2.0170   24.4530 C   0  0  0  0  0  0  0  0  0  0  0  0
    9.8300   -0.9360   23.1310 C   0  0  0  0  0  0  0  0  0  0  0  0
    9.2740   -0.9270   21.7710 N   0  0  0  0  0  0  0  0  0  0  0  0
    8.4200    0.0800   21.3660 C   0  0  0  0  0  0  0  0  0  0  0  0
    8.7830    1.2450   21.1580 O   0  0  0  0  0  0  0  0  0  0  0  0
    7.1570   -0.3810   21.2160 N   0  0  0  0  0  0  0  0  0  0  0  0
    6.4660    0.1700   20.1960 C   0  0  0  0  0  0  0  0  0  0  0  0
    5.3020    0.9160   20.3400 C   0  0  0  0  0  0  0  0  0  0  0  0
    4.6380    1.4760   19.2530 C   0  0  0  0  0  0  0  0  0  0  0  0
    5.1670    1.2720   17.9930 C   0  0  0  0  0  0  0  0  0  0  0  0
    6.2740    0.5670   17.7160 N   0  0  0  0  0  0  0  0  0  0  0  0
    6.9150    0.0230   18.7770 C   0  0  0  0  0  0  0  0  0  0  0  0
   12.1910    0.0090   23.0820 C   0  0  0  0  0  0  0  0  0  0  0  0
   13.3430   -0.1900   22.6280 N   0  0  0  0  0  0  0  0  0  0  0  0
   13.3060    1.0260   22.8420 C   0  0  0  0  0  0  0  0  0  0  0  0
   11.8470    0.4070   23.2890 C   0  0  0  0  0  0  0  0  0  0  0  0
   10.5970    0.8000   23.8160 C   0  0  0  0  0  0  0  0  0  0  0  0
   11.6860    1.3360   23.4740 C   0  0  0  0  0  0  0  0  0  0  0  0
   12.1300    2.5950   23.4790 F   0  0  0  0  0  0  0  0  0  0  0  0
  2  1  1  0
  2  3  1  0
  2  4  1  0
  4  5  1  0
  5  6  1  0
  6  7  2  0
  6  8  1  0
  8  9  1  0
  9 10  2  0
 10 11  1  0
 11 12  2  0
 12 13  1  0
  9 14  1  0
 13 14  2  0
  2 15  1  0
 15 16  2  0
 16 17  1  0
 17 18  2  0
 18 19  1  0
 15 20  1  0
 19 20  2  0
 20 21  1  0
M  END
