pyridine_urea_2106
     RDKit          3D

 21 23  0  0  0  0  0  0  0  0999 V2000
    8.4600    1.1940   20.8320 O   0  0  0  0  0  0  0  0  0  0  0  0
    7.9730    0.1380   21.2520 C   0  0  0  0  0  0  0  0  0  0  0  0
    8.4820   -0.5730   22.2120 N   0  0  0  0  0  0  0  0  0  0  0  0
    9.1410    0.0650   23.1890 C   0  0  0  0  0  0  0  0  0  0  0  0
   10.4440   -0.5000   23.5060 C   0  0  0  0  0  0  0  0  0  0  0  0
   11.6030    0.3640   23.0840 C   0  0  0  0  0  0  0  0  0  0  0  0
   12.9300   -0.1920   23.3670 C   0  0  0  0  0  0  0  0  0  0  0  0
   13.9560    0.6540   22.9010 O   0  0  0  0  0  0  0  0  0  0  0  0
   13.0020   -1.3730   23.9950 N   0  0  0  0  0  0  0  0  0  0  0  0
   14.0860   -2.1010   24.4420 N   0  0  0  0  0  0  0  0  0  0  0  0
   13.4920   -3.1980   24.9950 C   0  0  0  0  0  0  0  0  0  0  0  0
   12.1820   -3.1880   24.8990 C   0  0  0  0  0  0  0  0  0  0  0  0
   11.8010   -2.0640   24.3010 C   0  0  0  0  0  0  0  0  0  0  0  0
   10.5430   -1.6930   24.0660 N   0  0  0  0  0  0  0  0  0  0  0  0
    6.8380   -0.4620   20.8520 N   0  0  0  0  0  0  0  0  0  0  0  0
    6.2360    0.1640   19.8900 C   0  0  0  0  0  0  0  0  0  0  0  0
    5.0040    0.8050   20.0160 C   0  0  0  0  0  0  0  0  0  0  0  0
    4.4170    1.4990   18.9450 C   0  0  0  0  0  0  0  0  0  0  0  0
    5.0820    1.5530   17.7070 C   0  0  0  0  0  0  0  0  0  0  0  0
    6.2340    0.9550   17.5390 N   0  0  0  0  0  0  0  0  0  0  0  0
    6.8220    0.2880   18.5220 C   0  0  0  0  0  0  0  0  0  0  0  0
  1  2  2  0
  2  3  1  0
  3  4  1  0
  4  5  1  0
  5  6  1  0
  6  7  2  0
  7  8  1  0
  7  9  1  0
  9 10  1  0
 10 11  2  0
 11 12  1  0
  9 13  1  0
 12 13  2  0
  5 14  2  0
 13 14  1  0
  2 15  1  0
 15 16  1  0
 16 17  2  0
 17 18  1  0
 18 19  2  0
 19 20  1  0
 16 21  1  0
 20 21  2  0
M  END
