pyridine_urea_8326
     RDKit          3D

 23 25  0  0  0  0  0  0  0  0999 V2000
    8.6770    0.6360   21.1560 O   0  0  0  0  0  0  0  0  0  0  0  0
    8.2790   -0.4590   21.5200 C   0  0  0  0  0  0  0  0  0  0  0  0
    7.0770   -0.9650   21.0690 N   0  0  0  0  0  0  0  0  0  0  0  0
    6.4230   -0.1830   20.0340 C   0  0  0  0  0  0  0  0  0  0  0  0
    5.1010    0.5880   20.3480 C   0  0  0  0  0  0  0  0  0  0  0  0
    4.5280    1.3260   19.3170 C   0  0  0  0  0  0  0  0  0  0  0  0
    5.2540    1.3130   17.9690 C   0  0  0  0  0  0  0  0  0  0  0  0
    6.3980    0.6250   17.7480 N   0  0  0  0  0  0  0  0  0  0  0  0
    6.9400   -0.0900   18.7600 C   0  0  0  0  0  0  0  0  0  0  0  0
    8.9410   -1.3000   22.3950 N   0  0  0  0  0  0  0  0  0  0  0  0
   10.2750   -0.8130   22.7040 C   0  0  0  0  0  0  0  0  0  0  0  0
   11.3740   -1.5010   21.9150 C   0  0  0  0  0  0  0  0  0  0  0  0
   12.8020   -1.0280   22.1450 C   0  0  0  0  0  0  0  0  0  0  0  0
   13.0360    0.0990   23.1340 C   0  0  0  0  0  0  0  0  0  0  0  0
   11.8780    0.7100   23.8830 C   0  0  0  0  0  0  0  0  0  0  0  0
   10.4810    0.2100   23.6410 C   0  0  0  0  0  0  0  0  0  0  0  0
    9.4400    0.7450   24.3280 N   0  0  0  0  0  0  0  0  0  0  0  0
    8.4570    1.3990   23.6660 C   0  0  0  0  0  0  0  0  0  0  0  0
    7.7300    2.3830   24.3530 C   0  0  0  0  0  0  0  0  0  0  0  0
    7.4340    1.9870   25.6530 C   0  0  0  0  0  0  0  0  0  0  0  0
    7.7560    0.6630   25.8770 C   0  0  0  0  0  0  0  0  0  0  0  0
    9.0960    0.3370   25.5870 C   0  0  0  0  0  0  0  0  0  0  0  0
    9.7980   -0.2450   26.4130 O   0  0  0  0  0  0  0  0  0  0  0  0
  1  2  2  0
  2  3  1  0
  3  4  1  0
  4  5  2  0
  5  6  1  0
  6  7  2  0
  7  8  1  0
  4  9  1  0
  8  9  2  0
  2 10  1  0
 10 11  1  0
 11 12  2  0
 12 13  1  0
 13 14  2  0
 14 15  1  0
 11 16  1  0
 15 16  2  0
 16 17  1  0
 17 18  1  0
 18 19  1  0
 19 20  1  0
 20 21  1  0
 17 22  1  0
 21 22  1  0
 22 23  2  0
M  END
