pyridine_urea_12548
     RDKit          3D

 21 22  0  0  0  0  0  0  0  0999 V2000
    8.7090    1.2460   21.1000 O   0  0  0  0  0  0  0  0  0  0  0  0
    7.9760    0.3150   21.4730 C   0  0  0  0  0  0  0  0  0  0  0  0
    7.9020   -0.1110   22.7450 N   0  0  0  0  0  0  0  0  0  0  0  0
    9.1170   -0.5700   23.2460 C   0  0  0  0  0  0  0  0  0  0  0  0
   10.2370    0.5010   23.2150 C   0  0  0  0  0  0  0  0  0  0  0  0
   11.5660    1.0450   23.1260 C   0  0  0  0  0  0  0  0  0  0  0  0
   12.9280    0.3730   22.9490 C   0  0  0  0  0  0  0  0  0  0  0  0
   12.9220   -0.9760   22.8430 C   0  0  0  0  0  0  0  0  0  0  0  0
   13.9180   -1.5360   22.7340 O   0  0  0  0  0  0  0  0  0  0  0  0
   13.7360   -2.6220   23.6470 C   0  0  0  0  0  0  0  0  0  0  0  0
   13.8580   -2.1970   24.9060 F   0  0  0  0  0  0  0  0  0  0  0  0
   12.4810   -3.0830   23.5730 F   0  0  0  0  0  0  0  0  0  0  0  0
   11.6300   -1.6450   22.8910 C   0  0  0  0  0  0  0  0  0  0  0  0
   10.4480   -0.9790   23.0620 N   0  0  0  0  0  0  0  0  0  0  0  0
    7.1210   -0.4250   20.7380 N   0  0  0  0  0  0  0  0  0  0  0  0
    6.3530    0.1940   19.8760 C   0  0  0  0  0  0  0  0  0  0  0  0
    5.0130    0.8240   20.2120 C   0  0  0  0  0  0  0  0  0  0  0  0
    4.3460    1.5160   19.0460 C   0  0  0  0  0  0  0  0  0  0  0  0
    5.1080    1.4730   17.7370 C   0  0  0  0  0  0  0  0  0  0  0  0
    6.2850    0.8610   17.5810 N   0  0  0  0  0  0  0  0  0  0  0  0
    6.8530    0.2620   18.6090 C   0  0  0  0  0  0  0  0  0  0  0  0
  1  2  2  0
  2  3  1  0
  3  4  1  0
  4  5  1  0
  5  6  2  0
  6  7  1  0
  7  8  2  0
  8  9  1  0
  9 10  1  0
 10 11  1  0
 10 12  1  0
  8 13  1  0
  5 14  1  0
 13 14  2  0
  2 15  1  0
 15 16  1  0
 16 17  2  0
 17 18  1  0
 18 19  2  0
 19 20  1  0
 16 21  1  0
 20 21  2  0
M  END
