pyridine_urea_7923
     RDKit          3D

 25 27  0  0  0  0  0  0  0  0999 V2000
    8.5790    0.6650   21.1210 O   0  0  0  0  0  0  0  0  0  0  0  0
    8.3530   -0.4870   21.4670 C   0  0  0  0  0  0  0  0  0  0  0  0
    9.2360   -1.2290   22.2460 N   0  0  0  0  0  0  0  0  0  0  0  0
   10.3720   -0.4570   22.5010 C   0  0  0  0  0  0  0  0  0  0  0  0
   10.0110    0.8400   22.7750 C   0  0  0  0  0  0  0  0  0  0  0  0
   10.9080    1.8300   23.0000 C   0  0  0  0  0  0  0  0  0  0  0  0
   12.2410    1.5980   22.9740 C   0  0  0  0  0  0  0  0  0  0  0  0
   12.9630    2.5570   23.1520 O   0  0  0  0  0  0  0  0  0  0  0  0
   12.4000    3.7260   22.5860 C   0  0  0  0  0  0  0  0  0  0  0  0
   12.7040    4.9860   23.1310 C   0  0  0  0  0  0  0  0  0  0  0  0
   11.6240    5.7510   23.3650 N   0  0  0  0  0  0  0  0  0  0  0  0
   10.5100    6.5210   23.1010 C   0  0  0  0  0  0  0  0  0  0  0  0
    9.3560    6.2390   23.8510 C   0  0  0  0  0  0  0  0  0  0  0  0
    9.7170    6.5590   25.2090 O   0  0  0  0  0  0  0  0  0  0  0  0
   11.1160    6.7410   25.3680 C   0  0  0  0  0  0  0  0  0  0  0  0
   11.7170    5.6530   24.7400 C   0  0  0  0  0  0  0  0  0  0  0  0
   12.6890    0.1480   22.7060 C   0  0  0  0  0  0  0  0  0  0  0  0
   11.7230   -0.8550   22.4700 C   0  0  0  0  0  0  0  0  0  0  0  0
    7.1770   -1.0330   21.0340 N   0  0  0  0  0  0  0  0  0  0  0  0
    6.4240   -0.2790   20.0990 C   0  0  0  0  0  0  0  0  0  0  0  0
    5.2100    0.3710   20.3260 C   0  0  0  0  0  0  0  0  0  0  0  0
    4.5980    1.0930   19.3080 C   0  0  0  0  0  0  0  0  0  0  0  0
    5.1930    1.1710   18.0600 C   0  0  0  0  0  0  0  0  0  0  0  0
    6.3580    0.5570   17.8020 N   0  0  0  0  0  0  0  0  0  0  0  0
    6.9300   -0.1410   18.8130 C   0  0  0  0  0  0  0  0  0  0  0  0
  1  2  2  0
  2  3  1  0
  3  4  1  0
  4  5  2  0
  5  6  1  0
  6  7  2  0
  7  8  1  0
  8  9  1  0
  9 10  1  0
 10 11  1  0
 11 12  1  0
 12 13  1  0
 13 14  1  0
 14 15  1  0
 11 16  1  0
 15 16  1  0
  7 17  1  0
  4 18  1  0
 17 18  2  0
  2 19  1  0
 19 20  1  0
 20 21  2  0
 21 22  1  0
 22 23  2  0
 23 24  1  0
 20 25  1  0
 24 25  2  0
M  END
