pyridine_urea_12594
     RDKit          3D

 21 22  0  0  0  0  0  0  0  0999 V2000
    8.5940    0.9660   21.1930 O   0  0  0  0  0  0  0  0  0  0  0  0
    8.4070   -0.2430   21.1810 C   0  0  0  0  0  0  0  0  0  0  0  0
    7.1580   -0.7770   20.9860 N   0  0  0  0  0  0  0  0  0  0  0  0
    6.4220   -0.0530   19.9860 C   0  0  0  0  0  0  0  0  0  0  0  0
    5.0910    0.6830   20.3290 C   0  0  0  0  0  0  0  0  0  0  0  0
    4.4700    1.3710   19.2930 C   0  0  0  0  0  0  0  0  0  0  0  0
    5.1580    1.3320   17.9230 C   0  0  0  0  0  0  0  0  0  0  0  0
    6.3070    0.6700   17.6880 N   0  0  0  0  0  0  0  0  0  0  0  0
    6.8960    0.0090   18.6980 C   0  0  0  0  0  0  0  0  0  0  0  0
    9.3840   -1.1810   21.3370 N   0  0  0  0  0  0  0  0  0  0  0  0
   10.2640   -0.8460   22.4120 C   0  0  0  0  0  0  0  0  0  0  0  0
    9.5660   -0.5840   23.7020 C   0  0  0  0  0  0  0  0  0  0  0  0
   10.4760   -0.1960   24.8670 C   0  0  0  0  0  0  0  0  0  0  0  0
    9.4380    0.1100   26.4610 Br  0  0  0  0  0  0  0  0  0  0  0  0
   12.0600   -0.1180   24.5960 C   0  0  0  0  0  0  0  0  0  0  0  0
   12.6080   -0.3840   23.3220 N   0  0  0  0  0  0  0  0  0  0  0  0
   11.6020   -0.6910   22.4880 C   0  0  0  0  0  0  0  0  0  0  0  0
   11.1870   -0.5280   23.6080 O   0  0  0  0  0  0  0  0  0  0  0  0
   11.3710   -1.6830   24.4880 C   0  0  0  0  0  0  0  0  0  0  0  0
   12.7380   -1.9660   24.7040 C   0  0  0  0  0  0  0  0  0  0  0  0
   13.0040   -3.2640   25.0340 O   0  0  0  0  0  0  0  0  0  0  0  0
  1  2  2  0
  2  3  1  0
  3  4  1  0
  4  5  2  0
  5  6  1  0
  6  7  2  0
  7  8  1  0
  4  9  1  0
  8  9  2  0
  2 10  1  0
 10 11  1  0
 11 12  2  0
 12 13  1  0
 13 14  1  0
 13 15  2  0
 15 16  1  0
 11 17  1  0
 16 17  2  0
 17 18  1  0
 18 19  1  0
 19 20  1  0
 20 21  1  0
M  END
