pyridine_urea_6557
     RDKit          3D

 22 24  0  0  0  0  0  0  0  0999 V2000
    8.8830    1.5000   21.2970 O   0  0  0  0  0  0  0  0  0  0  0  0
    8.5970    0.3040   21.3280 C   0  0  0  0  0  0  0  0  0  0  0  0
    7.3490   -0.2380   21.1340 N   0  0  0  0  0  0  0  0  0  0  0  0
    6.4970    0.2740   20.1580 C   0  0  0  0  0  0  0  0  0  0  0  0
    5.1700    0.9790   20.4550 C   0  0  0  0  0  0  0  0  0  0  0  0
    4.4540    1.4790   19.2070 C   0  0  0  0  0  0  0  0  0  0  0  0
    5.1160    1.2270   17.8940 C   0  0  0  0  0  0  0  0  0  0  0  0
    6.2760    0.5840   17.7470 N   0  0  0  0  0  0  0  0  0  0  0  0
    6.9110    0.1380   18.8420 C   0  0  0  0  0  0  0  0  0  0  0  0
    9.5390   -0.6650   21.4950 N   0  0  0  0  0  0  0  0  0  0  0  0
   10.6410   -0.5750   22.4160 C   0  0  1  0  0  0  0  0  0  0  0  0
   10.0240   -1.0060   23.6750 C   0  0  0  0  0  0  0  0  0  0  0  0
   10.2650   -0.1540   24.7480 C   0  0  0  0  0  0  0  0  0  0  0  0
   11.3530    0.3590   24.2450 C   0  0  0  0  0  0  0  0  0  0  0  0
   11.3060   -0.5440   23.2050 O   0  0  0  0  0  0  0  0  0  0  0  0
   12.1930   -1.5380   23.1250 C   0  0  0  0  0  0  0  0  0  0  0  0
   12.3740   -1.1370   24.4190 C   0  0  0  0  0  0  0  0  0  0  0  0
   13.3660   -2.1510   24.5440 C   0  0  0  0  0  0  0  0  0  0  0  0
   14.2360   -2.5860   25.9280 Cl  0  0  0  0  0  0  0  0  0  0  0  0
   13.4830   -2.7160   23.2780 C   0  0  0  0  0  0  0  0  0  0  0  0
   12.6970   -2.4180   22.0700 C   0  0  0  0  0  0  0  0  0  0  0  0
   11.5630   -1.5210   21.8280 C   0  0  0  0  0  0  0  0  0  0  0  0
  1  2  2  0
  2  3  1  0
  3  4  1  0
  4  5  2  0
  5  6  1  0
  6  7  2  0
  7  8  1  0
  4  9  1  0
  8  9  2  0
  2 10  1  0
 11 10  1  6
 11 12  1  0
 12 13  1  0
 13 14  1  0
 14 15  1  0
 15 16  1  0
 16 17  1  0
 17 18  2  0
 18 19  1  0
 18 20  1  0
 20 21  2  0
 11 22  1  0
 16 22  2  0
 21 22  1  0
M  END
