pyridine_urea_6177
     RDKit          3D

 24 26  0  0  0  0  0  0  0  0999 V2000
    8.6610    1.3830   20.8860 O   0  0  0  0  0  0  0  0  0  0  0  0
    8.1110    0.4880   21.5150 C   0  0  0  0  0  0  0  0  0  0  0  0
    7.2020   -0.4030   21.0090 N   0  0  0  0  0  0  0  0  0  0  0  0
    6.4910    0.1680   19.9270 C   0  0  0  0  0  0  0  0  0  0  0  0
    5.2130    0.9100   20.2820 C   0  0  0  0  0  0  0  0  0  0  0  0
    4.5320    1.5200   19.1170 C   0  0  0  0  0  0  0  0  0  0  0  0
    5.1030    1.3620   17.8710 C   0  0  0  0  0  0  0  0  0  0  0  0
    6.2320    0.6790   17.6220 N   0  0  0  0  0  0  0  0  0  0  0  0
    6.8920    0.1070   18.6340 C   0  0  0  0  0  0  0  0  0  0  0  0
    8.3450    0.3010   22.8170 N   0  0  0  0  0  0  0  0  0  0  0  0
    9.7200    0.0430   23.1640 C   0  0  0  0  0  0  0  0  0  0  0  0
   10.2230   -1.0720   23.1640 C   0  0  0  0  0  0  0  0  0  0  0  0
   11.4490   -0.9230   23.5450 N   0  0  0  0  0  0  0  0  0  0  0  0
   12.0280    0.3040   23.8710 N   0  0  0  0  0  0  0  0  0  0  0  0
   12.7470   -0.8250   23.9830 C   0  0  0  0  0  0  0  0  0  0  0  0
   13.1600   -1.2460   25.2170 C   0  0  0  0  0  0  0  0  0  0  0  0
   13.8230   -2.4340   25.3870 C   0  0  0  0  0  0  0  0  0  0  0  0
   14.0820   -3.2130   24.3880 N   0  0  0  0  0  0  0  0  0  0  0  0
   13.6760   -2.7860   23.1850 C   0  0  0  0  0  0  0  0  0  0  0  0
   12.9640   -1.5370   22.8050 C   0  0  0  0  0  0  0  0  0  0  0  0
   10.8370    0.9960   23.5900 C   0  0  0  0  0  0  0  0  0  0  0  0
   10.2330    2.3780   23.5590 C   0  0  0  0  0  0  0  0  0  0  0  0
   11.1490    3.3770   23.5550 F   0  0  0  0  0  0  0  0  0  0  0  0
    9.4440    2.5800   22.4860 F   0  0  0  0  0  0  0  0  0  0  0  0
  1  2  2  0
  2  3  1  0
  3  4  1  0
  4  5  2  0
  5  6  1  0
  6  7  2  0
  7  8  1  0
  4  9  1  0
  8  9  2  0
  2 10  1  0
 10 11  1  0
 11 12  1  0
 12 13  2  0
 13 14  1  0
 14 15  1  0
 15 16  2  0
 16 17  1  0
 17 18  2  0
 18 19  1  0
 15 20  1  0
 19 20  2  0
 11 21  2  0
 14 21  1  0
 21 22  1  0
 22 23  1  0
 22 24  1  0
M  END
