pyridine_urea_4512
     RDKit          3D

 23 24  0  0  0  0  0  0  0  0999 V2000
    8.8050   -0.9490   24.6710 N   0  0  0  0  0  0  0  0  0  0  0  0
   10.0190   -0.4140   24.3740 C   0  0  0  0  0  0  0  0  0  0  0  0
    9.6960    0.3380   25.5360 O   0  0  0  0  0  0  0  0  0  0  0  0
    9.9130   -1.4410   23.2220 C   0  0  2  0  0  0  0  0  0  0  0  0
   11.2370   -1.4590   22.4570 C   0  0  0  0  0  0  0  0  0  0  0  0
   12.1620   -0.2870   22.7400 C   0  0  0  0  0  0  0  0  0  0  0  0
   12.7980    1.1070   22.9870 C   0  0  0  0  0  0  0  0  0  0  0  0
   12.5860    2.6580   23.0910 C   0  0  0  0  0  0  0  0  0  0  0  0
   11.1050    2.6170   22.8170 C   0  0  0  0  0  0  0  0  0  0  0  0
   10.6220    3.7580   22.8300 O   0  0  0  0  0  0  0  0  0  0  0  0
   10.3940    1.5080   22.5880 C   0  0  0  0  0  0  0  0  0  0  0  0
    9.2220    1.7810   22.3990 O   0  0  0  0  0  0  0  0  0  0  0  0
   10.8700    0.2240   22.5530 C   0  0  0  0  0  0  0  0  0  0  0  0
    8.9530   -0.9370   22.3750 N   0  0  0  0  0  0  0  0  0  0  0  0
    8.1930   -0.2120   21.4260 C   0  0  0  0  0  0  0  0  0  0  0  0
    8.5770    0.8960   21.0800 O   0  0  0  0  0  0  0  0  0  0  0  0
    7.0840   -0.8470   20.9960 N   0  0  0  0  0  0  0  0  0  0  0  0
    6.3870   -0.1250   20.0760 C   0  0  0  0  0  0  0  0  0  0  0  0
    5.1980    0.5660   20.3210 C   0  0  0  0  0  0  0  0  0  0  0  0
    4.5810    1.3170   19.1890 C   0  0  0  0  0  0  0  0  0  0  0  0
    5.2230    1.2890   17.9580 C   0  0  0  0  0  0  0  0  0  0  0  0
    6.3630    0.6130   17.7480 N   0  0  0  0  0  0  0  0  0  0  0  0
    6.9020   -0.0640   18.7910 C   0  0  0  0  0  0  0  0  0  0  0  0
  1  2  1  0
  2  3  2  0
  2  4  1  0
  4  5  1  6
  5  6  1  0
  6  7  2  0
  7  8  1  0
  8  9  2  0
  9 10  1  0
  9 11  1  0
 11 12  1  0
  6 13  1  0
 11 13  2  0
  4 14  1  0
 14 15  1  0
 15 16  2  0
 15 17  1  0
 17 18  1  0
 18 19  2  0
 19 20  1  0
 20 21  2  0
 21 22  1  0
 18 23  1  0
 22 23  2  0
M  END
