pyridine_urea_8636
     RDKit          3D

 21 23  0  0  0  0  0  0  0  0999 V2000
   12.5610    3.3090   22.8360 C   0  0  0  0  0  0  0  0  0  0  0  0
   11.9070    2.1030   23.0990 N   0  0  0  0  0  0  0  0  0  0  0  0
   10.3990    1.8950   23.6120 C   0  0  0  0  0  0  0  0  0  0  0  0
   10.0660    0.4930   23.7350 C   0  0  0  0  0  0  0  0  0  0  0  0
    9.1380   -0.4750   24.0410 C   0  0  0  0  0  0  0  0  0  0  0  0
    8.7420   -1.0560   22.7470 N   0  0  0  0  0  0  0  0  0  0  0  0
    8.3490   -0.2390   21.7060 C   0  0  0  0  0  0  0  0  0  0  0  0
    8.9610    0.7660   21.3820 O   0  0  0  0  0  0  0  0  0  0  0  0
    7.1940   -0.6910   21.1090 N   0  0  0  0  0  0  0  0  0  0  0  0
    6.5070   -0.0320   20.0780 C   0  0  0  0  0  0  0  0  0  0  0  0
    5.3360    0.6750   20.3910 C   0  0  0  0  0  0  0  0  0  0  0  0
    4.6120    1.3990   19.2500 C   0  0  0  0  0  0  0  0  0  0  0  0
    5.1990    1.2770   18.0100 C   0  0  0  0  0  0  0  0  0  0  0  0
    6.3120    0.5950   17.7260 N   0  0  0  0  0  0  0  0  0  0  0  0
    6.9300   -0.0370   18.7560 C   0  0  0  0  0  0  0  0  0  0  0  0
   11.3000    0.6090   23.3270 C   0  0  0  0  0  0  0  0  0  0  0  0
   11.4480    1.8700   23.2770 C   0  0  0  0  0  0  0  0  0  0  0  0
   12.5070    0.9620   22.9360 C   0  0  0  0  0  0  0  0  0  0  0  0
   12.3230   -0.5240   22.9900 C   0  0  0  0  0  0  0  0  0  0  0  0
   13.5130   -0.1590   22.6030 C   0  0  0  0  0  0  0  0  0  0  0  0
   12.4690    0.6460   22.9400 C   0  0  0  0  0  0  0  0  0  0  0  0
  1  2  1  0
  2  3  1  0
  3  4  2  0
  4  5  1  0
  5  6  1  0
  6  7  1  0
  7  8  2  0
  7  9  1  0
  9 10  1  0
 10 11  2  0
 11 12  1  0
 12 13  2  0
 13 14  1  0
 10 15  1  0
 14 15  2  0
  4 16  1  0
 16 17  1  0
 17 18  2  0
 18 19  1  0
 19 20  2  0
  2 21  1  0
 16 21  2  0
 20 21  1  0
M  END
