pyridine_urea_2684
     RDKit          3D

 23 24  0  0  0  0  0  0  0  0999 V2000
    9.0560    0.7670   21.5910 O   0  0  0  0  0  0  0  0  0  0  0  0
    8.5920   -0.3470   21.4020 C   0  0  0  0  0  0  0  0  0  0  0  0
    9.3620   -1.4960   21.4270 N   0  0  0  0  0  0  0  0  0  0  0  0
   10.1260   -1.9470   22.5890 C   0  0  0  0  0  0  0  0  0  0  0  0
   11.7020   -1.8250   22.4860 C   0  0  1  0  0  0  0  0  0  0  0  0
   12.1500   -2.3270   21.2170 O   0  0  0  0  0  0  0  0  0  0  0  0
   12.1910   -0.5550   22.6300 C   0  0  0  0  0  0  0  0  0  0  0  0
   12.4300    0.9490   22.9840 C   0  0  0  0  0  0  0  0  0  0  0  0
   11.6890    1.8850   23.6800 C   0  0  0  0  0  0  0  0  0  0  0  0
   10.3980    1.5050   24.2870 C   0  0  0  0  0  0  0  0  0  0  0  0
   10.0660    0.1150   24.0590 C   0  0  0  0  0  0  0  0  0  0  0  0
    8.7190   -0.1730   24.7530 C   0  0  0  0  0  0  0  0  0  0  0  0
    8.1620   -1.3720   24.4160 F   0  0  0  0  0  0  0  0  0  0  0  0
    8.8150   -0.1920   26.1100 F   0  0  0  0  0  0  0  0  0  0  0  0
    7.7650    0.7670   24.4940 F   0  0  0  0  0  0  0  0  0  0  0  0
   10.9070   -0.7400   23.3080 C   0  0  0  0  0  0  0  0  0  0  0  0
    7.2730   -0.6300   21.0970 N   0  0  0  0  0  0  0  0  0  0  0  0
    6.5690    0.0020   20.0580 C   0  0  0  0  0  0  0  0  0  0  0  0
    5.3000    0.7840   20.3610 C   0  0  0  0  0  0  0  0  0  0  0  0
    4.6350    1.4100   19.3110 C   0  0  0  0  0  0  0  0  0  0  0  0
    5.1680    1.2880   18.0260 C   0  0  0  0  0  0  0  0  0  0  0  0
    6.2820    0.5950   17.7400 N   0  0  0  0  0  0  0  0  0  0  0  0
    6.9500   -0.0260   18.7380 C   0  0  0  0  0  0  0  0  0  0  0  0
  1  2  2  0
  2  3  1  0
  3  4  1  0
  4  5  1  0
  5  6  1  6
  5  7  1  0
  7  8  2  0
  8  9  1  0
  9 10  2  0
 10 11  1  0
 11 12  1  0
 12 13  1  0
 12 14  1  0
 12 15  1  0
  7 16  1  0
 11 16  2  0
  2 17  1  0
 17 18  1  0
 18 19  2  0
 19 20  1  0
 20 21  2  0
 21 22  1  0
 18 23  1  0
 22 23  2  0
M  END
