pyridine_urea_6039
     RDKit          3D

 25 27  0  0  0  0  0  0  0  0999 V2000
   11.7650   -0.4190   25.3590 C   0  0  0  0  0  0  0  0  0  0  0  0
   10.3190   -0.1090   25.5920 C   0  0  0  0  0  0  0  0  0  0  0  0
    9.8080    0.1200   26.8960 C   0  0  0  0  0  0  0  0  0  0  0  0
    8.4610    0.4130   27.1690 C   0  0  0  0  0  0  0  0  0  0  0  0
    7.5160    0.5000   26.1450 C   0  0  0  0  0  0  0  0  0  0  0  0
    7.9740    0.2720   24.7450 C   0  0  0  0  0  0  0  0  0  0  0  0
    9.4390   -0.0420   24.5190 C   0  0  0  0  0  0  0  0  0  0  0  0
    9.8290   -0.2690   23.0920 C   0  0  2  0  0  0  0  0  0  0  0  0
    8.6860   -0.7390   22.3880 N   0  0  0  0  0  0  0  0  0  0  0  0
    8.2040    0.0870   21.4290 C   0  0  0  0  0  0  0  0  0  0  0  0
    8.7500    1.1580   21.1110 O   0  0  0  0  0  0  0  0  0  0  0  0
    7.0560   -0.4440   20.9360 N   0  0  0  0  0  0  0  0  0  0  0  0
    6.3890    0.1710   19.9040 C   0  0  0  0  0  0  0  0  0  0  0  0
    5.2350    0.8970   20.1810 C   0  0  0  0  0  0  0  0  0  0  0  0
    4.5910    1.5310   19.1410 C   0  0  0  0  0  0  0  0  0  0  0  0
    5.1180    1.4150   17.8730 C   0  0  0  0  0  0  0  0  0  0  0  0
    6.2200    0.7090   17.5930 N   0  0  0  0  0  0  0  0  0  0  0  0
    6.8290    0.1040   18.6150 C   0  0  0  0  0  0  0  0  0  0  0  0
   11.0040   -0.9230   22.9220 C   0  0  1  0  0  0  0  0  0  0  0  0
   10.9670   -1.6720   21.7690 C   0  0  0  0  0  0  0  0  0  0  0  0
   12.1830   -2.2870   21.4510 C   0  0  0  0  0  0  0  0  0  0  0  0
   13.3450   -1.5350   21.6200 C   0  0  0  0  0  0  0  0  0  0  0  0
   13.2660   -0.4020   22.4270 C   0  0  2  0  0  0  0  0  0  0  0  0
   13.0090   -0.5140   23.7750 C   0  0  0  0  0  0  0  0  0  0  0  0
   11.9800    0.0690   22.9040 C   0  0  0  0  0  0  0  0  0  0  0  0
  1  2  1  0
  2  3  2  0
  3  4  1  0
  4  5  2  0
  5  6  1  0
  2  7  1  0
  6  7  2  0
  7  8  1  0
  8  9  1  1
  9 10  1  0
 10 11  2  0
 10 12  1  0
 12 13  1  0
 13 14  2  0
 14 15  1  0
 15 16  2  0
 16 17  1  0
 13 18  1  0
 17 18  2  0
  8 19  1  0
 19 20  1  6
 20 21  1  0
 21 22  1  0
 22 23  1  0
 23 24  1  1
 19 25  1  0
 23 25  1  0
M  END
