pyridine_urea_14062
     RDKit          3D

 23 25  0  0  0  0  0  0  0  0999 V2000
    8.4680    0.8210   21.1580 O   0  0  0  0  0  0  0  0  0  0  0  0
    7.8780   -0.1640   21.5900 C   0  0  0  0  0  0  0  0  0  0  0  0
    8.2720   -0.7430   22.7510 N   0  0  0  0  0  0  0  0  0  0  0  0
    9.6000   -0.3140   22.9260 C   0  0  0  0  0  0  0  0  0  0  0  0
   10.0700    0.9060   23.7580 C   0  0  0  0  0  0  0  0  0  0  0  0
   11.4960    1.2510   23.8030 C   0  0  0  0  0  0  0  0  0  0  0  0
   12.3060    0.4550   23.1060 C   0  0  0  0  0  0  0  0  0  0  0  0
   13.4400    0.5710   23.0320 O   0  0  0  0  0  0  0  0  0  0  0  0
   13.4010   -0.8060   22.5950 C   0  0  0  0  0  0  0  0  0  0  0  0
   13.3290   -1.5500   23.8420 C   0  0  2  0  0  0  0  0  0  0  0  0
   13.6140   -2.8270   23.6980 C   0  0  0  0  0  0  0  0  0  0  0  0
   13.3080   -2.9400   25.1510 C   0  0  0  0  0  0  0  0  0  0  0  0
   12.1450   -2.7220   25.2780 O   0  0  0  0  0  0  0  0  0  0  0  0
   11.8530   -1.9820   24.1970 C   0  0  0  0  0  0  0  0  0  0  0  0
   11.9300   -0.6380   22.3680 C   0  0  0  0  0  0  0  0  0  0  0  0
   10.6940   -1.1110   22.1940 C   0  0  0  0  0  0  0  0  0  0  0  0
    6.8230   -0.7620   20.9960 N   0  0  0  0  0  0  0  0  0  0  0  0
    6.1860   -0.0350   20.0050 C   0  0  0  0  0  0  0  0  0  0  0  0
    4.9120    0.7060   20.1630 C   0  0  0  0  0  0  0  0  0  0  0  0
    4.4210    1.4440   18.9740 C   0  0  0  0  0  0  0  0  0  0  0  0
    5.1620    1.4010   17.8000 C   0  0  0  0  0  0  0  0  0  0  0  0
    6.3140    0.7070   17.6860 N   0  0  0  0  0  0  0  0  0  0  0  0
    6.7880    0.0260   18.7560 C   0  0  0  0  0  0  0  0  0  0  0  0
  1  2  2  0
  2  3  1  0
  3  4  1  0
  4  5  2  0
  5  6  1  0
  6  7  2  0
  7  8  1  0
  8  9  1  0
 10  9  1  6
 10 11  1  0
 11 12  1  0
 12 13  1  0
 10 14  1  0
 13 14  1  0
  7 15  1  0
  4 16  1  0
 15 16  2  0
  2 17  1  0
 17 18  1  0
 18 19  2  0
 19 20  1  0
 20 21  2  0
 21 22  1  0
 18 23  1  0
 22 23  2  0
M  END
