pyridine_urea_6872
     RDKit          3D

 20 20  0  0  0  0  0  0  0  0999 V2000
   13.3840   -2.2990   25.0940 C   0  0  0  0  0  0  0  0  0  0  0  0
   12.0320   -1.7800   24.5760 C   0  0  0  0  0  0  0  0  0  0  0  0
   12.2310   -0.5700   23.6140 C   0  0  0  0  0  0  0  0  0  0  0  0
   12.6920    0.4140   24.1190 O   0  0  0  0  0  0  0  0  0  0  0  0
   13.2630   -0.9240   22.5980 C   0  0  0  0  0  0  0  0  0  0  0  0
   12.9110   -1.7890   21.4490 C   0  0  0  0  0  0  0  0  0  0  0  0
   11.0690   -0.1480   22.7510 C   0  0  0  0  0  0  0  0  0  0  0  0
   10.8640   -0.8470   23.9330 C   0  0  0  0  0  0  0  0  0  0  0  0
   10.4890    1.2710   22.8790 C   0  0  0  0  0  0  0  0  0  0  0  0
   10.1030   -1.1520   22.2230 C   0  0  0  0  0  0  0  0  0  0  0  0
    8.7440   -0.7660   22.4440 N   0  0  0  0  0  0  0  0  0  0  0  0
    8.1920    0.0220   21.4730 C   0  0  0  0  0  0  0  0  0  0  0  0
    8.7770    1.2730   21.1360 O   0  0  0  0  0  0  0  0  0  0  0  0
    7.0770   -0.5500   20.9380 N   0  0  0  0  0  0  0  0  0  0  0  0
    6.3200    0.1220   19.9930 C   0  0  0  0  0  0  0  0  0  0  0  0
    5.0850    0.7730   20.2830 C   0  0  0  0  0  0  0  0  0  0  0  0
    4.5100    1.4440   19.0320 C   0  0  0  0  0  0  0  0  0  0  0  0
    5.1750    1.3690   17.8310 C   0  0  0  0  0  0  0  0  0  0  0  0
    6.3270    0.7220   17.6660 N   0  0  0  0  0  0  0  0  0  0  0  0
    6.8540    0.1280   18.7270 C   0  0  0  0  0  0  0  0  0  0  0  0
  1  2  1  0
  2  3  1  0
  3  4  1  0
  3  5  1  0
  5  6  1  0
  3  7  1  0
  7  8  1  0
  7  9  1  0
  7 10  1  0
 10 11  1  0
 11 12  1  0
 12 13  2  0
 12 14  1  0
 14 15  1  0
 15 16  2  0
 16 17  1  0
 17 18  2  0
 18 19  1  0
 15 20  1  0
 19 20  2  0
M  END
