pyridine_urea_4889
     RDKit          3D

 21 22  0  0  0  0  0  0  0  0999 V2000
    8.9380    0.4880   21.4310 O   0  0  0  0  0  0  0  0  0  0  0  0
    8.2960   -0.5450   21.5830 C   0  0  0  0  0  0  0  0  0  0  0  0
    8.7200   -1.6010   22.3720 N   0  0  0  0  0  0  0  0  0  0  0  0
    9.9330   -1.5450   23.1790 C   0  0  0  0  0  0  0  0  0  0  0  0
   11.0410   -0.8400   22.3950 C   0  0  0  0  0  0  0  0  0  0  0  0
   11.8360    0.1670   22.9650 C   0  0  0  0  0  0  0  0  0  0  0  0
   13.1210    0.1980   22.8150 C   0  0  0  0  0  0  0  0  0  0  0  0
   12.1630    0.9760   23.4590 C   0  0  0  0  0  0  0  0  0  0  0  0
   10.7950    0.4080   23.2730 C   0  0  0  0  0  0  0  0  0  0  0  0
   10.4710    1.4560   24.0050 C   0  0  0  0  0  0  0  0  0  0  0  0
    9.1470    1.0450   23.9220 N   0  0  0  0  0  0  0  0  0  0  0  0
    8.3910    1.8650   23.3720 O   0  0  0  0  0  0  0  0  0  0  0  0
    8.7520    0.3120   24.8440 O   0  0  0  0  0  0  0  0  0  0  0  0
   11.7760    1.4070   23.7910 C   0  0  0  0  0  0  0  0  0  0  0  0
    7.0680   -0.8230   21.0240 N   0  0  0  0  0  0  0  0  0  0  0  0
    6.4620   -0.1220   20.0400 C   0  0  0  0  0  0  0  0  0  0  0  0
    5.2710    0.5740   20.3230 C   0  0  0  0  0  0  0  0  0  0  0  0
    4.6490    1.3400   19.2000 C   0  0  0  0  0  0  0  0  0  0  0  0
    5.2260    1.3500   17.9610 C   0  0  0  0  0  0  0  0  0  0  0  0
    6.3750    0.6620   17.7260 N   0  0  0  0  0  0  0  0  0  0  0  0
    6.9470   -0.0390   18.7400 C   0  0  0  0  0  0  0  0  0  0  0  0
  1  2  2  0
  2  3  1  0
  3  4  1  0
  4  5  1  0
  5  6  1  0
  6  7  2  0
  7  8  1  0
  8  9  2  0
  9 10  1  0
 10 11  1  0
 11 12  2  0
 11 13  1  0
  6 14  1  0
 10 14  2  0
  2 15  1  0
 15 16  1  0
 16 17  2  0
 17 18  1  0
 18 19  2  0
 19 20  1  0
 16 21  1  0
 20 21  2  0
M  CHG  2  11   1  13  -1
M  END
