pyridine_urea_2810
     RDKit          3D

 22 24  0  0  0  0  0  0  0  0999 V2000
   13.5260    4.9400   22.4630 C   0  0  0  0  0  0  0  0  0  0  0  0
   12.6640    3.8780   22.5910 N   0  0  0  0  0  0  0  0  0  0  0  0
   11.2430    4.0780   22.4690 C   0  0  0  0  0  0  0  0  0  0  0  0
   10.8150    2.6540   22.6840 C   0  0  0  0  0  0  0  0  0  0  0  0
   11.8870    1.8190   22.8900 C   0  0  0  0  0  0  0  0  0  0  0  0
   11.4880    0.4500   23.1050 N   0  0  0  0  0  0  0  0  0  0  0  0
   10.1470    0.3850   23.3680 C   0  0  0  0  0  0  0  0  0  0  0  0
    9.9160   -0.9130   23.6550 C   0  0  0  0  0  0  0  0  0  0  0  0
   10.5130   -1.4790   22.4530 C   0  0  1  0  0  0  0  0  0  0  0  0
    9.6170   -1.3930   21.3880 N   0  0  0  0  0  0  0  0  0  0  0  0
    8.5780   -0.4190   21.2440 C   0  0  0  0  0  0  0  0  0  0  0  0
    8.7490    0.7850   21.3080 O   0  0  0  0  0  0  0  0  0  0  0  0
    7.3470   -0.9580   20.9890 N   0  0  0  0  0  0  0  0  0  0  0  0
    6.5550   -0.1960   20.0980 C   0  0  0  0  0  0  0  0  0  0  0  0
    5.2650    0.5460   20.4480 C   0  0  0  0  0  0  0  0  0  0  0  0
    4.5550    1.3250   19.3520 C   0  0  0  0  0  0  0  0  0  0  0  0
    5.2300    1.2750   18.0000 C   0  0  0  0  0  0  0  0  0  0  0  0
    6.3690    0.5900   17.7740 N   0  0  0  0  0  0  0  0  0  0  0  0
    6.9770   -0.1000   18.7790 C   0  0  0  0  0  0  0  0  0  0  0  0
   11.7530   -0.7740   22.3680 C   0  0  0  0  0  0  0  0  0  0  0  0
   12.7720   -1.1800   21.8150 O   0  0  0  0  0  0  0  0  0  0  0  0
   13.0460    2.5410   22.8430 N   0  0  0  0  0  0  0  0  0  0  0  0
  1  2  1  0
  2  3  1  0
  3  4  2  0
  4  5  1  0
  5  6  1  0
  6  7  1  0
  7  8  1  0
  8  9  1  0
  9 10  1  6
 10 11  1  0
 11 12  2  0
 11 13  1  0
 13 14  1  0
 14 15  2  0
 15 16  1  0
 16 17  2  0
 17 18  1  0
 14 19  1  0
 18 19  2  0
  6 20  1  0
  9 20  1  0
 20 21  2  0
  2 22  1  0
  5 22  2  0
M  END
