pyridine_urea_501
     RDKit          3D

 25 26  0  0  0  0  0  0  0  0999 V2000
    8.2130   -1.6440   24.6100 C   0  0  0  0  0  0  0  0  0  0  0  0
    8.7730   -2.7650   24.0230 N   0  0  0  0  0  0  0  0  0  0  0  0
    8.0850   -3.8080   23.3730 C   0  0  0  0  0  0  0  0  0  0  0  0
   10.2210   -2.6490   23.7740 C   0  0  0  0  0  0  0  0  0  0  0  0
   10.5290   -2.4070   22.4250 C   0  0  0  0  0  0  0  0  0  0  0  0
   11.8210   -2.7350   22.0050 N   0  0  0  0  0  0  0  0  0  0  0  0
   13.1320   -1.6850   22.2050 S   0  0  0  0  0  0  0  0  0  0  0  0
   13.8290   -2.2020   23.3520 O   0  0  0  0  0  0  0  0  0  0  0  0
   13.7210   -1.4150   20.9170 O   0  0  0  0  0  0  0  0  0  0  0  0
   12.1670   -0.3530   22.7170 C   0  0  0  0  0  0  0  0  0  0  0  0
   12.6030    0.8500   23.2060 C   0  0  0  0  0  0  0  0  0  0  0  0
   11.5620    1.8760   23.6080 C   0  0  0  0  0  0  0  0  0  0  0  0
   10.2350    1.5950   23.4810 C   0  0  0  0  0  0  0  0  0  0  0  0
    9.8130    0.3850   22.9750 C   0  0  0  0  0  0  0  0  0  0  0  0
    8.5150    0.0120   22.7860 N   0  0  0  0  0  0  0  0  0  0  0  0
    8.0910   -0.4570   21.5450 C   0  0  0  0  0  0  0  0  0  0  0  0
    8.8880   -0.8410   20.7580 O   0  0  0  0  0  0  0  0  0  0  0  0
    6.7230   -0.4040   21.3250 N   0  0  0  0  0  0  0  0  0  0  0  0
    6.2150    0.1640   20.1840 C   0  0  0  0  0  0  0  0  0  0  0  0
    4.9650    0.9480   20.2730 C   0  0  0  0  0  0  0  0  0  0  0  0
    4.5150    1.5060   19.0830 C   0  0  0  0  0  0  0  0  0  0  0  0
    5.2130    1.3270   17.8950 C   0  0  0  0  0  0  0  0  0  0  0  0
    6.3530    0.6090   17.8010 N   0  0  0  0  0  0  0  0  0  0  0  0
    6.8270    0.0420   18.9370 C   0  0  0  0  0  0  0  0  0  0  0  0
   10.7840   -0.5520   22.6080 C   0  0  0  0  0  0  0  0  0  0  0  0
  1  2  1  0
  2  3  1  0
  2  4  1  0
  4  5  1  0
  5  6  1  0
  7  6  1  0
  7  8  2  0
  7  9  2  0
  7 10  1  0
 10 11  2  0
 11 12  1  0
 12 13  2  0
 13 14  1  0
 14 15  1  0
 15 16  1  0
 16 17  2  0
 16 18  1  0
 18 19  1  0
 19 20  2  0
 20 21  1  0
 21 22  2  0
 22 23  1  0
 19 24  1  0
 23 24  2  0
 10 25  1  0
 14 25  2  0
M  END
