pyridine_urea_13923
     RDKit          3D

 24 26  0  0  0  0  0  0  0  0999 V2000
    9.0280    1.2980   21.2250 O   0  0  0  0  0  0  0  0  0  0  0  0
    8.5510    0.2130   21.5720 C   0  0  0  0  0  0  0  0  0  0  0  0
    9.1120   -0.5400   22.5890 N   0  0  0  0  0  0  0  0  0  0  0  0
    9.3210   -1.9750   22.4530 C   0  0  0  0  0  0  0  0  0  0  0  0
    8.3570   -2.8000   23.3120 C   0  0  0  0  0  0  0  0  0  0  0  0
    7.2220   -3.2590   22.4620 C   0  0  0  0  0  0  0  0  0  0  0  0
    6.0770   -3.4890   23.1700 C   0  0  0  0  0  0  0  0  0  0  0  0
    6.2420   -3.8840   24.4290 N   0  0  0  0  0  0  0  0  0  0  0  0
    6.8910   -5.0650   24.5880 C   0  0  0  0  0  0  0  0  0  0  0  0
    7.2770   -5.3520   25.9800 C   0  0  0  0  0  0  0  0  0  0  0  0
    8.6050   -5.4140   26.3030 C   0  0  0  0  0  0  0  0  0  0  0  0
    8.6670   -5.7170   27.7830 C   0  0  0  0  0  0  0  0  0  0  0  0
    7.6390   -5.8930   28.6150 N   0  0  0  0  0  0  0  0  0  0  0  0
    6.4330   -5.7860   28.0810 C   0  0  0  0  0  0  0  0  0  0  0  0
    6.1190   -5.5170   26.7710 C   0  0  0  0  0  0  0  0  0  0  0  0
    6.7160   -2.8000   25.1950 C   0  0  0  0  0  0  0  0  0  0  0  0
    7.9050   -2.0520   24.6170 C   0  0  0  0  0  0  0  0  0  0  0  0
    7.4230   -0.3930   21.0490 N   0  0  0  0  0  0  0  0  0  0  0  0
    6.6830    0.1340   20.0580 C   0  0  0  0  0  0  0  0  0  0  0  0
    5.4510    0.9320   20.3830 C   0  0  0  0  0  0  0  0  0  0  0  0
    4.7020    1.4850   19.3470 C   0  0  0  0  0  0  0  0  0  0  0  0
    5.1470    1.2610   18.0510 C   0  0  0  0  0  0  0  0  0  0  0  0
    6.2330    0.5470   17.7240 N   0  0  0  0  0  0  0  0  0  0  0  0
    6.9720    0.0020   18.7160 C   0  0  0  0  0  0  0  0  0  0  0  0
  1  2  2  0
  2  3  1  0
  3  4  1  0
  4  5  1  0
  5  6  1  0
  6  7  1  0
  7  8  1  0
  8  9  1  0
  9 10  1  0
 10 11  2  0
 11 12  1  0
 12 13  2  0
 13 14  1  0
 10 15  1  0
 14 15  2  0
  8 16  1  0
  5 17  1  0
 16 17  1  0
  2 18  1  0
 18 19  1  0
 19 20  2  0
 20 21  1  0
 21 22  2  0
 22 23  1  0
 19 24  1  0
 23 24  2  0
M  END
