pyridine_urea_7159
     RDKit          3D

 19 20  0  0  0  0  0  0  0  0999 V2000
   13.3260   -3.0130   25.2250 N   0  0  0  0  0  0  0  0  0  0  0  0
   13.7730   -1.9980   24.4490 C   0  0  0  0  0  0  0  0  0  0  0  0
   12.7600   -1.0650   23.8540 C   0  0  0  0  0  0  0  0  0  0  0  0
   13.1130   -0.1170   22.9810 C   0  0  0  0  0  0  0  0  0  0  0  0
   12.0760    0.5780   22.5750 N   0  0  0  0  0  0  0  0  0  0  0  0
   10.7250    0.3210   23.0200 C   0  0  0  0  0  0  0  0  0  0  0  0
   10.2210   -0.6470   23.9360 C   0  0  0  0  0  0  0  0  0  0  0  0
    9.2930    0.1650   23.3780 C   0  0  0  0  0  0  0  0  0  0  0  0
    8.8260   -0.6250   22.2730 N   0  0  0  0  0  0  0  0  0  0  0  0
    8.1210    0.0660   21.3150 C   0  0  0  0  0  0  0  0  0  0  0  0
    8.5280    1.1700   20.9300 O   0  0  0  0  0  0  0  0  0  0  0  0
    7.0080   -0.5450   20.9000 N   0  0  0  0  0  0  0  0  0  0  0  0
    6.3960    0.1000   19.9310 C   0  0  0  0  0  0  0  0  0  0  0  0
    5.2150    0.8200   20.1400 C   0  0  0  0  0  0  0  0  0  0  0  0
    4.5980    1.5080   19.0970 C   0  0  0  0  0  0  0  0  0  0  0  0
    5.1280    1.5120   17.8060 C   0  0  0  0  0  0  0  0  0  0  0  0
    6.3480    0.7430   17.6340 N   0  0  0  0  0  0  0  0  0  0  0  0
    6.9140    0.0870   18.6720 C   0  0  0  0  0  0  0  0  0  0  0  0
   11.4510   -1.2480   24.2490 C   0  0  0  0  0  0  0  0  0  0  0  0
  1  2  3  0
  2  3  1  0
  3  4  2  0
  4  5  1  0
  5  6  2  0
  6  7  1  0
  7  8  1  0
  8  9  1  0
  9 10  1  0
 10 11  2  0
 10 12  1  0
 12 13  1  0
 13 14  2  0
 14 15  1  0
 15 16  2  0
 16 17  1  0
 13 18  1  0
 17 18  2  0
  3 19  1  0
  7 19  2  0
M  END
