pyridine_urea_2464
     RDKit          3D

 24 27  0  0  0  0  0  0  0  0999 V2000
   13.6860   -3.6370   20.6050 C   0  0  0  0  0  0  0  0  0  0  0  0
   13.3010   -2.8790   21.8660 C   0  0  0  0  0  0  0  0  0  0  0  0
   13.9220   -3.0130   23.1280 C   0  0  0  0  0  0  0  0  0  0  0  0
   13.6390   -2.3500   24.3000 C   0  0  0  0  0  0  0  0  0  0  0  0
   12.6440   -1.5160   24.0400 C   0  0  0  0  0  0  0  0  0  0  0  0
   12.0160   -0.6150   24.9540 N   0  0  0  0  0  0  0  0  0  0  0  0
   11.0220    0.0970   24.4110 C   0  0  0  0  0  0  0  0  0  0  0  0
   11.0140   -0.3460   23.1350 C   0  0  0  0  0  0  0  0  0  0  0  0
   11.9950   -1.3270   22.8820 C   0  0  0  0  0  0  0  0  0  0  0  0
   12.2370   -1.9580   21.7330 C   0  0  0  0  0  0  0  0  0  0  0  0
   10.0550    0.1550   22.2560 C   0  0  0  0  0  0  0  0  0  0  0  0
    9.1230   -0.0900   23.2140 C   0  0  2  0  0  0  0  0  0  0  0  0
    7.9900   -0.2760   22.5910 N   0  0  0  0  0  0  0  0  0  0  0  0
    7.8440    0.1510   21.3060 C   0  0  0  0  0  0  0  0  0  0  0  0
    8.4620    1.1310   20.8630 O   0  0  0  0  0  0  0  0  0  0  0  0
    6.9560   -0.6340   20.7040 N   0  0  0  0  0  0  0  0  0  0  0  0
    6.2860    0.0700   19.8190 C   0  0  0  0  0  0  0  0  0  0  0  0
    5.0650    0.7250   20.0340 C   0  0  0  0  0  0  0  0  0  0  0  0
    4.4770    1.4600   19.0000 C   0  0  0  0  0  0  0  0  0  0  0  0
    5.1190    1.5270   17.7700 C   0  0  0  0  0  0  0  0  0  0  0  0
    6.2940    0.8770   17.5820 N   0  0  0  0  0  0  0  0  0  0  0  0
    6.8700    0.1570   18.5930 C   0  0  0  0  0  0  0  0  0  0  0  0
    9.0070    0.9600   24.0940 C   0  0  0  0  0  0  0  0  0  0  0  0
   10.1320    1.0390   24.8900 C   0  0  0  0  0  0  0  0  0  0  0  0
  1  2  1  0
  2  3  2  0
  3  4  1  0
  4  5  2  0
  5  6  1  0
  6  7  1  0
  7  8  2  0
  5  9  1  0
  8  9  1  0
  2 10  1  0
  9 10  2  0
  8 11  1  0
 11 12  1  0
 12 13  1  6
 13 14  1  0
 14 15  2  0
 14 16  1  0
 16 17  1  0
 17 18  2  0
 18 19  1  0
 19 20  2  0
 20 21  1  0
 17 22  1  0
 21 22  2  0
 12 23  1  0
  7 24  1  0
 23 24  1  0
M  END
