pyridine_urea_8211
     RDKit          3D

 23 24  0  0  0  0  0  0  0  0999 V2000
   12.8710   -0.4280   22.5730 C   0  0  0  0  0  0  0  0  0  0  0  0
   11.5550   -1.2060   22.4160 C   0  0  0  0  0  0  0  0  0  0  0  0
   10.3670   -0.2880   22.8940 C   0  0  2  0  0  0  0  0  0  0  0  0
   10.1630   -0.0350   24.2560 C   0  0  0  0  0  0  0  0  0  0  0  0
    8.7040   -0.7630   24.8880 S   0  0  0  0  0  0  0  0  0  0  0  0
    8.9450   -2.1480   25.2320 O   0  0  0  0  0  0  0  0  0  0  0  0
    7.6240   -0.4090   24.0020 O   0  0  0  0  0  0  0  0  0  0  0  0
    8.4560    0.1320   26.4110 C   0  0  0  0  0  0  0  0  0  0  0  0
    8.9040   -0.2600   27.6610 C   0  0  0  0  0  0  0  0  0  0  0  0
    8.6310    0.5760   28.9090 C   0  0  0  0  0  0  0  0  0  0  0  0
    7.8560    1.8920   28.8980 C   0  0  0  0  0  0  0  0  0  0  0  0
    7.4130    2.2240   27.4710 C   0  0  0  0  0  0  0  0  0  0  0  0
    7.7340    1.3220   26.2720 C   0  0  0  0  0  0  0  0  0  0  0  0
    9.1210   -0.7760   22.3280 N   0  0  0  0  0  0  0  0  0  0  0  0
    8.4720    0.0680   21.4570 C   0  0  0  0  0  0  0  0  0  0  0  0
    8.9420    1.3350   21.1640 O   0  0  0  0  0  0  0  0  0  0  0  0
    7.2930   -0.5170   20.9440 N   0  0  0  0  0  0  0  0  0  0  0  0
    6.4930    0.1140   20.0200 C   0  0  0  0  0  0  0  0  0  0  0  0
    5.3130    0.8050   20.2980 C   0  0  0  0  0  0  0  0  0  0  0  0
    4.6300    1.4100   19.2440 C   0  0  0  0  0  0  0  0  0  0  0  0
    5.1450    1.3020   17.9660 C   0  0  0  0  0  0  0  0  0  0  0  0
    6.2680    0.6330   17.6790 N   0  0  0  0  0  0  0  0  0  0  0  0
    6.9050    0.0610   18.7090 C   0  0  0  0  0  0  0  0  0  0  0  0
  1  2  1  0
  3  2  1  1
  3  4  1  0
  5  4  1  0
  5  6  2  0
  5  7  2  0
  5  8  1  0
  8  9  2  0
  9 10  1  0
 10 11  2  0
 11 12  1  0
  8 13  1  0
 12 13  2  0
  3 14  1  0
 14 15  1  0
 15 16  2  0
 15 17  1  0
 17 18  1  0
 18 19  2  0
 19 20  1  0
 20 21  2  0
 21 22  1  0
 18 23  1  0
 22 23  2  0
M  END
