pyridine_urea_6436
     RDKit          3D

 23 25  0  0  0  0  0  0  0  0999 V2000
    8.7910    1.1390   21.1350 O   0  0  0  0  0  0  0  0  0  0  0  0
    8.1840    0.1390   21.5530 C   0  0  0  0  0  0  0  0  0  0  0  0
    8.4920   -0.5400   22.7110 N   0  0  0  0  0  0  0  0  0  0  0  0
    9.5120    0.0270   23.5590 C   0  0  0  0  0  0  0  0  0  0  0  0
   10.6700    0.4720   22.6880 C   0  0  0  0  0  0  0  0  0  0  0  0
   11.4390   -0.6690   22.2660 N   0  0  0  0  0  0  0  0  0  0  0  0
   10.9740   -1.8710   21.8020 C   0  0  0  0  0  0  0  0  0  0  0  0
    9.6700   -2.3680   22.0830 O   0  0  0  0  0  0  0  0  0  0  0  0
   12.0140   -2.4450   21.0590 C   0  0  0  0  0  0  0  0  0  0  0  0
   12.9660   -2.9700   21.9270 O   0  0  0  0  0  0  0  0  0  0  0  0
   12.9160   -2.2090   23.0960 C   0  0  0  0  0  0  0  0  0  0  0  0
   13.7500   -2.7580   24.1240 C   0  0  0  0  0  0  0  0  0  0  0  0
   13.9330   -2.2820   25.3540 C   0  0  0  0  0  0  0  0  0  0  0  0
   13.0910   -1.0290   25.4840 C   0  0  0  0  0  0  0  0  0  0  0  0
   12.3000   -0.5150   24.5110 C   0  0  0  0  0  0  0  0  0  0  0  0
   12.1990   -1.0900   23.3110 C   0  0  0  0  0  0  0  0  0  0  0  0
    7.0930   -0.4080   20.9210 N   0  0  0  0  0  0  0  0  0  0  0  0
    6.3510    0.2010   19.9650 C   0  0  0  0  0  0  0  0  0  0  0  0
    5.0440    0.8270   20.5160 C   0  0  0  0  0  0  0  0  0  0  0  0
    4.5670    1.3930   19.1890 C   0  0  0  0  0  0  0  0  0  0  0  0
    5.1930    1.3280   17.8490 C   0  0  0  0  0  0  0  0  0  0  0  0
    6.3150    0.7260   17.6080 N   0  0  0  0  0  0  0  0  0  0  0  0
    6.8510    0.1860   18.6760 C   0  0  0  0  0  0  0  0  0  0  0  0
  1  2  2  0
  2  3  1  0
  3  4  1  0
  4  5  1  0
  5  6  1  0
  6  7  1  0
  7  8  2  0
  7  9  1  0
  9 10  1  0
 10 11  1  0
 11 12  2  0
 12 13  1  0
 13 14  2  0
 14 15  1  0
  6 16  1  0
 11 16  1  0
 15 16  2  0
  2 17  1  0
 17 18  1  0
 18 19  2  0
 19 20  1  0
 20 21  2  0
 21 22  1  0
 18 23  1  0
 22 23  2  0
M  END
