pyridine_urea_9917
     RDKit          3D

 25 27  0  0  0  0  0  0  0  0999 V2000
    9.6460    0.2680   27.2540 C   0  0  0  0  0  0  0  0  0  0  0  0
   10.8150    0.0340   26.4560 O   0  0  0  0  0  0  0  0  0  0  0  0
   10.4460   -0.1790   25.1480 C   0  0  0  0  0  0  0  0  0  0  0  0
    9.1280    0.3220   24.8000 C   0  0  0  0  0  0  0  0  0  0  0  0
    8.6920    0.0700   23.4410 C   0  0  0  0  0  0  0  0  0  0  0  0
    9.5980   -0.6720   22.4960 C   0  0  0  0  0  0  0  0  0  0  0  0
    9.0750   -0.8640   21.2480 N   0  0  0  0  0  0  0  0  0  0  0  0
    8.2230    0.1510   21.0590 C   0  0  0  0  0  0  0  0  0  0  0  0
    8.6080    1.3230   21.0000 O   0  0  0  0  0  0  0  0  0  0  0  0
    6.9520   -0.2760   20.9520 N   0  0  0  0  0  0  0  0  0  0  0  0
    6.2910    0.2830   19.9100 C   0  0  0  0  0  0  0  0  0  0  0  0
    5.1060    0.9640   20.0930 C   0  0  0  0  0  0  0  0  0  0  0  0
    4.4970    1.5490   19.0180 C   0  0  0  0  0  0  0  0  0  0  0  0
    5.0700    1.4500   17.7770 C   0  0  0  0  0  0  0  0  0  0  0  0
    6.2120    0.7770   17.5740 N   0  0  0  0  0  0  0  0  0  0  0  0
    6.7960    0.2120   18.6380 C   0  0  0  0  0  0  0  0  0  0  0  0
   10.8230   -1.1260   22.7780 C   0  0  0  0  0  0  0  0  0  0  0  0
   11.3190   -0.8930   24.1370 C   0  0  0  0  0  0  0  0  0  0  0  0
   12.4720   -1.2620   24.4930 N   0  0  0  0  0  0  0  0  0  0  0  0
   13.2000   -0.4130   23.8910 C   0  0  0  0  0  0  0  0  0  0  0  0
   13.0460   -0.4020   22.4410 C   0  0  0  0  0  0  0  0  0  0  0  0
   12.9560   -1.6690   21.8770 C   0  0  0  0  0  0  0  0  0  0  0  0
   12.9280   -2.7150   22.8020 C   0  0  0  0  0  0  0  0  0  0  0  0
   12.8830   -2.4480   24.1760 C   0  0  0  0  0  0  0  0  0  0  0  0
   13.2720   -3.4220   25.0190 O   0  0  0  0  0  0  0  0  0  0  0  0
  1  2  1  0
  2  3  1  0
  3  4  2  0
  4  5  1  0
  5  6  2  0
  6  7  1  0
  7  8  1  0
  8  9  2  0
  8 10  1  0
 10 11  1  0
 11 12  2  0
 12 13  1  0
 13 14  2  0
 14 15  1  0
 11 16  1  0
 15 16  2  0
  6 17  1  0
  3 18  1  0
 17 18  2  0
 18 19  1  0
 19 20  1  0
 20 21  1  0
 21 22  1  0
 22 23  1  0
 19 24  1  0
 23 24  1  0
 24 25  2  0
M  END
