pyridine_urea_4152
     RDKit          3D

 25 27  0  0  0  0  0  0  0  0999 V2000
    8.5220    2.3950   22.6610 C   0  0  0  0  0  0  0  0  0  0  0  0
    8.7120    1.0280   23.0360 O   0  0  0  0  0  0  0  0  0  0  0  0
   10.0090    0.5970   22.8600 C   0  0  0  0  0  0  0  0  0  0  0  0
   11.0200    1.4410   23.0290 C   0  0  0  0  0  0  0  0  0  0  0  0
   12.3150    1.1380   22.8860 C   0  0  0  0  0  0  0  0  0  0  0  0
   13.2270    2.1950   23.0680 O   0  0  0  0  0  0  0  0  0  0  0  0
   12.5140    3.4540   22.9380 C   0  0  0  0  0  0  0  0  0  0  0  0
   11.1370    3.5440   22.8160 C   0  0  0  0  0  0  0  0  0  0  0  0
   10.4960    4.7650   22.7050 C   0  0  0  0  0  0  0  0  0  0  0  0
   11.3670    6.0310   22.7130 C   0  0  0  0  0  0  0  0  0  0  0  0
   12.7340    5.8900   22.8350 C   0  0  0  0  0  0  0  0  0  0  0  0
   13.2970    4.6130   22.9490 C   0  0  0  0  0  0  0  0  0  0  0  0
   12.6440   -0.1900   22.5520 C   0  0  0  0  0  0  0  0  0  0  0  0
   11.6080   -1.1410   22.3450 C   0  0  0  0  0  0  0  0  0  0  0  0
   10.2870   -0.6940   22.4950 C   0  0  0  0  0  0  0  0  0  0  0  0
    9.1050   -1.4050   22.2810 N   0  0  0  0  0  0  0  0  0  0  0  0
    8.2330   -0.5980   21.4730 C   0  0  0  0  0  0  0  0  0  0  0  0
    8.5930    0.7180   21.0810 O   0  0  0  0  0  0  0  0  0  0  0  0
    7.0250   -1.0930   21.0450 N   0  0  0  0  0  0  0  0  0  0  0  0
    6.3820   -0.3030   20.0040 C   0  0  0  0  0  0  0  0  0  0  0  0
    5.1870    0.3390   20.3230 C   0  0  0  0  0  0  0  0  0  0  0  0
    4.5660    1.1160   19.3400 C   0  0  0  0  0  0  0  0  0  0  0  0
    5.1720    1.2160   18.0850 C   0  0  0  0  0  0  0  0  0  0  0  0
    6.3290    0.5920   17.7760 N   0  0  0  0  0  0  0  0  0  0  0  0
    6.9060   -0.1550   18.7430 C   0  0  0  0  0  0  0  0  0  0  0  0
  1  2  1  0
  2  3  1  0
  3  4  2  0
  4  5  1  0
  5  6  1  0
  6  7  1  0
  7  8  2  0
  8  9  1  0
  9 10  2  0
 10 11  1  0
  7 12  1  0
 11 12  2  0
  5 13  2  0
 13 14  1  0
  3 15  1  0
 14 15  2  0
 15 16  1  0
 16 17  1  0
 17 18  2  0
 17 19  1  0
 19 20  1  0
 20 21  2  0
 21 22  1  0
 22 23  2  0
 23 24  1  0
 20 25  1  0
 24 25  2  0
M  END
