pyridine_urea_8562
     RDKit          3D

 22 24  0  0  0  0  0  0  0  0999 V2000
    8.6050    1.1050   20.9630 O   0  0  0  0  0  0  0  0  0  0  0  0
    8.1520    0.0270   21.3750 C   0  0  0  0  0  0  0  0  0  0  0  0
    8.7380   -0.7600   22.3070 N   0  0  0  0  0  0  0  0  0  0  0  0
   10.1030   -0.6990   22.5430 C   0  0  0  0  0  0  0  0  0  0  0  0
   10.5350    0.4600   23.1760 C   0  0  0  0  0  0  0  0  0  0  0  0
   11.9070    0.7470   23.0800 C   0  0  0  0  0  0  0  0  0  0  0  0
   13.1820    0.8410   22.9520 C   0  0  0  0  0  0  0  0  0  0  0  0
   13.0130   -0.3680   22.7050 C   0  0  0  0  0  0  0  0  0  0  0  0
   11.5500   -0.4220   22.8500 C   0  0  0  0  0  0  0  0  0  0  0  0
   12.5580   -1.9660   22.3970 Br  0  0  0  0  0  0  0  0  0  0  0  0
   10.9440   -1.5750   22.6530 C   0  0  0  0  0  0  0  0  0  0  0  0
   12.2180   -0.9230   22.6650 C   0  0  0  0  0  0  0  0  0  0  0  0
    9.7920    1.7190   22.7520 C   0  0  0  0  0  0  0  0  0  0  0  0
    9.8310    1.9190   24.1410 C   0  0  0  0  0  0  0  0  0  0  0  0
    9.9180    0.6870   24.5100 C   0  0  0  0  0  0  0  0  0  0  0  0
    6.9860   -0.5300   20.9470 N   0  0  0  0  0  0  0  0  0  0  0  0
    6.2740    0.1280   19.9630 C   0  0  0  0  0  0  0  0  0  0  0  0
    5.0680    0.7890   20.1360 C   0  0  0  0  0  0  0  0  0  0  0  0
    4.4970    1.4280   19.0460 C   0  0  0  0  0  0  0  0  0  0  0  0
    5.1730    1.3640   17.8410 C   0  0  0  0  0  0  0  0  0  0  0  0
    6.3290    0.7280   17.6390 N   0  0  0  0  0  0  0  0  0  0  0  0
    6.8460    0.1260   18.7110 C   0  0  0  0  0  0  0  0  0  0  0  0
  1  2  2  0
  2  3  1  0
  3  4  1  0
  5  4  1  0
  5  6  1  0
  6  7  2  0
  7  8  1  0
  8  9  2  0
  9 10  1  0
  9 11  1  0
  6 12  1  0
 11 12  2  0
  5 13  1  0
 13 14  1  0
  5 15  1  0
 14 15  1  0
  2 16  1  0
 16 17  1  0
 17 18  2  0
 18 19  1  0
 19 20  2  0
 20 21  1  0
 17 22  1  0
 21 22  2  0
M  END
