pyridine_urea_1549
     RDKit          3D

 19 20  0  0  0  0  0  0  0  0999 V2000
   10.3660   -0.1690   24.9770 C   0  0  0  0  0  0  0  0  0  0  0  0
    9.3780   -0.7800   24.0030 C   0  0  0  0  0  0  0  0  0  0  0  0
    9.8590   -1.2240   22.7740 C   0  0  1  0  0  0  0  0  0  0  0  0
    9.0070   -1.1990   21.6770 N   0  0  0  0  0  0  0  0  0  0  0  0
    8.2570   -0.1110   21.3610 C   0  0  0  0  0  0  0  0  0  0  0  0
    8.6740    1.0390   21.3170 O   0  0  0  0  0  0  0  0  0  0  0  0
    6.9690   -0.4860   21.0620 N   0  0  0  0  0  0  0  0  0  0  0  0
    6.3230    0.1370   20.0020 C   0  0  0  0  0  0  0  0  0  0  0  0
    5.1290    0.8170   20.2620 C   0  0  0  0  0  0  0  0  0  0  0  0
    4.4900    1.4650   19.2150 C   0  0  0  0  0  0  0  0  0  0  0  0
    5.1510    1.3820   17.8430 C   0  0  0  0  0  0  0  0  0  0  0  0
    6.2890    0.7080   17.6570 N   0  0  0  0  0  0  0  0  0  0  0  0
    6.8380    0.1100   18.7240 C   0  0  0  0  0  0  0  0  0  0  0  0
   11.0090   -0.5540   22.6250 C   0  0  0  0  0  0  0  0  0  0  0  0
   12.3010   -0.0830   22.6640 C   0  0  0  0  0  0  0  0  0  0  0  0
   13.3730   -0.5420   23.3110 C   0  0  0  0  0  0  0  0  0  0  0  0
   13.4040   -1.6550   24.1070 C   0  0  0  0  0  0  0  0  0  0  0  0
   12.0820   -2.2110   24.1060 C   0  0  0  0  0  0  0  0  0  0  0  0
   11.0840   -1.6680   23.4300 N   0  0  0  0  0  0  0  0  0  0  0  0
  1  2  1  0
  3  2  1  1
  3  4  1  0
  4  5  1  0
  5  6  2  0
  5  7  1  0
  7  8  1  0
  8  9  2  0
  9 10  1  0
 10 11  2  0
 11 12  1  0
  8 13  1  0
 12 13  2  0
  3 14  1  0
 14 15  2  0
 15 16  1  0
 16 17  2  0
 17 18  1  0
 14 19  1  0
 18 19  2  0
M  END
