pyridine_urea_5331
     RDKit          3D

 19 21  0  0  0  0  0  0  0  0999 V2000
    8.6130    0.5580   21.1490 O   0  0  0  0  0  0  0  0  0  0  0  0
    8.1430   -0.5070   21.5250 C   0  0  0  0  0  0  0  0  0  0  0  0
    6.9450   -0.9560   21.0710 N   0  0  0  0  0  0  0  0  0  0  0  0
    6.3420   -0.2220   20.0340 C   0  0  0  0  0  0  0  0  0  0  0  0
    5.1420    0.4580   20.2640 C   0  0  0  0  0  0  0  0  0  0  0  0
    4.5530    1.2020   19.2360 C   0  0  0  0  0  0  0  0  0  0  0  0
    5.1880    1.2420   18.0110 C   0  0  0  0  0  0  0  0  0  0  0  0
    6.3380    0.5940   17.7680 N   0  0  0  0  0  0  0  0  0  0  0  0
    6.8870   -0.1190   18.7710 C   0  0  0  0  0  0  0  0  0  0  0  0
    8.8410   -1.2900   22.4320 N   0  0  0  0  0  0  0  0  0  0  0  0
   10.0720   -0.5860   22.6000 C   0  0  0  0  0  0  0  0  0  0  0  0
   11.4250   -1.3390   22.6110 C   0  0  0  0  0  0  0  0  0  0  0  0
   12.5920   -0.5770   22.7310 C   0  0  0  0  0  0  0  0  0  0  0  0
   12.4220    0.7920   22.8160 C   0  0  0  0  0  0  0  0  0  0  0  0
   13.3250    1.7370   22.8990 N   0  0  0  0  0  0  0  0  0  0  0  0
   12.8360    2.9960   22.9430 C   0  0  0  0  0  0  0  0  0  0  0  0
   11.1640    3.1560   22.9120 S   0  0  0  0  0  0  0  0  0  0  0  0
   11.2030    1.4410   22.8150 C   0  0  0  0  0  0  0  0  0  0  0  0
   10.0330    0.7860   22.7230 C   0  0  0  0  0  0  0  0  0  0  0  0
  1  2  2  0
  2  3  1  0
  3  4  1  0
  4  5  2  0
  5  6  1  0
  6  7  2  0
  7  8  1  0
  4  9  1  0
  8  9  2  0
  2 10  1  0
 10 11  1  0
 11 12  2  0
 12 13  1  0
 13 14  2  0
 14 15  1  0
 15 16  2  0
 16 17  1  0
 14 18  1  0
 17 18  1  0
 11 19  1  0
 18 19  2  0
M  END
