pyridine_urea_13371
     RDKit          3D

 22 23  0  0  0  0  0  0  0  0999 V2000
   12.4950   -2.2960   21.0390 C   0  0  0  0  0  0  0  0  0  0  0  0
   12.1250   -1.5900   22.1180 N   0  0  0  0  0  0  0  0  0  0  0  0
   13.3060   -0.8330   22.8080 N   0  0  0  0  0  0  0  0  0  0  0  0
   12.4350   -0.4500   23.5690 C   0  0  0  0  0  0  0  0  0  0  0  0
   12.0520    0.2030   24.5700 C   0  0  0  0  0  0  0  0  0  0  0  0
   12.7130   -0.2240   25.6360 F   0  0  0  0  0  0  0  0  0  0  0  0
   12.1330    1.5140   24.2500 F   0  0  0  0  0  0  0  0  0  0  0  0
   10.7400   -0.0340   24.8100 F   0  0  0  0  0  0  0  0  0  0  0  0
   11.8360   -1.1800   22.7590 C   0  0  0  0  0  0  0  0  0  0  0  0
   13.0190   -2.0220   21.3680 I   0  0  0  0  0  0  0  0  0  0  0  0
   10.7520   -1.4110   22.7490 C   0  0  0  0  0  0  0  0  0  0  0  0
    9.7540   -2.1980   21.9830 C   0  0  0  0  0  0  0  0  0  0  0  0
    9.1470   -1.2700   21.0680 N   0  0  0  0  0  0  0  0  0  0  0  0
    8.3250   -0.1500   21.4070 C   0  0  0  0  0  0  0  0  0  0  0  0
    8.7830    0.9160   21.7800 O   0  0  0  0  0  0  0  0  0  0  0  0
    7.0080   -0.4610   21.1950 N   0  0  0  0  0  0  0  0  0  0  0  0
    6.3910    0.1280   20.0840 C   0  0  0  0  0  0  0  0  0  0  0  0
    5.2130    0.8530   20.2810 C   0  0  0  0  0  0  0  0  0  0  0  0
    4.6000    1.4570   19.1960 C   0  0  0  0  0  0  0  0  0  0  0  0
    5.1810    1.3190   17.9470 C   0  0  0  0  0  0  0  0  0  0  0  0
    6.3040    0.6250   17.7280 N   0  0  0  0  0  0  0  0  0  0  0  0
    6.8850    0.0420   18.7940 C   0  0  0  0  0  0  0  0  0  0  0  0
  1  2  1  0
  2  3  1  0
  3  4  2  0
  4  5  1  0
  5  6  1  0
  5  7  1  0
  5  8  1  0
  4  9  1  0
  9 10  1  0
  2 11  1  0
  9 11  2  0
 11 12  1  0
 12 13  1  0
 13 14  1  0
 14 15  2  0
 14 16  1  0
 16 17  1  0
 17 18  2  0
 18 19  1  0
 19 20  2  0
 20 21  1  0
 17 22  1  0
 21 22  2  0
M  END
