pyridine_urea_14785
     RDKit          3D

 20 22  0  0  0  0  0  0  0  0999 V2000
    8.4700    1.2670   20.8170 O   0  0  0  0  0  0  0  0  0  0  0  0
    8.1580    0.1460   21.2180 C   0  0  0  0  0  0  0  0  0  0  0  0
    8.8910   -0.4910   22.1280 N   0  0  0  0  0  0  0  0  0  0  0  0
    9.5140    0.3330   23.0350 C   0  0  0  0  0  0  0  0  0  0  0  0
   10.7650    0.8360   22.8300 C   0  0  0  0  0  0  0  0  0  0  0  0
   12.2000    0.9710   22.7740 C   0  0  0  0  0  0  0  0  0  0  0  0
   13.1930    0.0960   23.1290 C   0  0  0  0  0  0  0  0  0  0  0  0
   12.8480   -1.1070   23.6080 C   0  0  0  0  0  0  0  0  0  0  0  0
   11.4830   -1.3370   23.6700 C   0  0  0  0  0  0  0  0  0  0  0  0
   10.5930   -0.4560   23.3260 C   0  0  0  0  0  0  0  0  0  0  0  0
   11.2070   -2.6740   24.1530 C   0  0  0  0  0  0  0  0  0  0  0  0
   12.5370   -3.0150   24.6670 O   0  0  0  0  0  0  0  0  0  0  0  0
   13.5530   -2.2300   24.0670 C   0  0  0  0  0  0  0  0  0  0  0  0
    7.0620   -0.5520   20.8420 N   0  0  0  0  0  0  0  0  0  0  0  0
    6.3020    0.0970   19.9070 C   0  0  0  0  0  0  0  0  0  0  0  0
    5.0010    0.7580   20.1020 C   0  0  0  0  0  0  0  0  0  0  0  0
    4.4110    1.4020   19.0240 C   0  0  0  0  0  0  0  0  0  0  0  0
    5.0890    1.3850   17.8130 C   0  0  0  0  0  0  0  0  0  0  0  0
    6.2710    0.7730   17.6150 N   0  0  0  0  0  0  0  0  0  0  0  0
    6.8390    0.1520   18.6510 C   0  0  0  0  0  0  0  0  0  0  0  0
  1  2  2  0
  2  3  1  0
  3  4  1  0
  4  5  1  0
  5  6  2  0
  6  7  1  0
  7  8  2  0
  8  9  1  0
  5 10  1  0
  9 10  2  0
  9 11  1  0
 11 12  1  0
  8 13  1  0
 12 13  1  0
  2 14  1  0
 14 15  1  0
 15 16  2  0
 16 17  1  0
 17 18  2  0
 18 19  1  0
 15 20  1  0
 19 20  2  0
M  END
