pyridine_urea_9847
     RDKit          3D

 25 27  0  0  0  0  0  0  0  0999 V2000
    8.7300    1.3840   21.0680 O   0  0  0  0  0  0  0  0  0  0  0  0
    8.2770    0.3240   21.5180 C   0  0  0  0  0  0  0  0  0  0  0  0
    8.8650   -0.2680   22.5880 N   0  0  0  0  0  0  0  0  0  0  0  0
   10.2040    0.2100   22.7640 C   0  0  0  0  0  0  0  0  0  0  0  0
   10.7610    0.0240   24.1430 C   0  0  0  0  0  0  0  0  0  0  0  0
   12.1790    0.5360   24.1540 C   0  0  0  0  0  0  0  0  0  0  0  0
   12.9010    0.3970   22.8200 C   0  0  0  0  0  0  0  0  0  0  0  0
   13.0420   -1.0040   22.2450 C   0  0  0  0  0  0  0  0  0  0  0  0
   11.8590   -1.7830   22.7390 C   0  0  0  0  0  0  0  0  0  0  0  0
   10.6120   -1.7880   22.1060 C   0  0  0  0  0  0  0  0  0  0  0  0
    9.5410   -2.5210   22.6550 C   0  0  0  0  0  0  0  0  0  0  0  0
    9.7240   -3.2490   23.8310 C   0  0  0  0  0  0  0  0  0  0  0  0
   10.9350   -3.3060   24.5090 C   0  0  0  0  0  0  0  0  0  0  0  0
   11.1180   -4.0480   25.6770 C   0  0  0  0  0  0  0  0  0  0  0  0
   12.4690   -4.0350   26.3020 C   0  0  0  0  0  0  0  0  0  0  0  0
   13.4830   -3.3060   25.7400 C   0  0  0  0  0  0  0  0  0  0  0  0
   13.2620   -2.5380   24.5260 C   0  0  0  0  0  0  0  0  0  0  0  0
   11.9920   -2.5830   23.9700 C   0  0  0  0  0  0  0  0  0  0  0  0
    7.1840   -0.3560   21.0580 N   0  0  0  0  0  0  0  0  0  0  0  0
    6.4910    0.1690   20.0150 C   0  0  0  0  0  0  0  0  0  0  0  0
    5.3170    0.8760   20.2630 C   0  0  0  0  0  0  0  0  0  0  0  0
    4.6260    1.4390   19.2120 C   0  0  0  0  0  0  0  0  0  0  0  0
    5.1090    1.2930   17.9330 C   0  0  0  0  0  0  0  0  0  0  0  0
    6.2290    0.6090   17.6630 N   0  0  0  0  0  0  0  0  0  0  0  0
    6.8910    0.0630   18.7020 C   0  0  0  0  0  0  0  0  0  0  0  0
  1  2  2  0
  2  3  1  0
  3  4  1  0
  4  5  1  0
  5  6  1  0
  6  7  1  0
  7  8  1  0
  8  9  1  0
  9 10  2  0
 10 11  1  0
 11 12  2  0
 12 13  1  0
 13 14  1  0
 14 15  2  0
 15 16  1  0
 16 17  2  0
  9 18  1  0
 13 18  2  0
 17 18  1  0
  2 19  1  0
 19 20  1  0
 20 21  2  0
 21 22  1  0
 22 23  2  0
 23 24  1  0
 20 25  1  0
 24 25  2  0
M  END
