pyridine_urea_3551
     RDKit          3D

 18 19  0  0  0  0  0  0  0  0999 V2000
    9.0030    0.6530   21.4180 O   0  0  0  0  0  0  0  0  0  0  0  0
    8.5060   -0.4600   21.4660 C   0  0  0  0  0  0  0  0  0  0  0  0
    9.1960   -1.5850   21.9150 N   0  0  0  0  0  0  0  0  0  0  0  0
    9.9110   -1.6520   23.1880 C   0  0  0  0  0  0  0  0  0  0  0  0
   11.3650   -1.2260   23.0670 C   0  0  0  0  0  0  0  0  0  0  0  0
   10.3400   -0.0840   23.1200 C   0  0  0  0  0  0  0  0  0  0  0  0
   10.6130    1.3860   23.0450 C   0  0  0  0  0  0  0  0  0  0  0  0
   11.9760    1.9160   22.9070 C   0  0  0  0  0  0  0  0  0  0  0  0
   12.3400    3.7740   22.7610 Br  0  0  0  0  0  0  0  0  0  0  0  0
   13.0070    0.8340   22.8740 C   0  0  0  0  0  0  0  0  0  0  0  0
   12.6040   -0.5040   22.9520 C   0  0  0  0  0  0  0  0  0  0  0  0
    7.2190   -0.7620   21.0700 N   0  0  0  0  0  0  0  0  0  0  0  0
    6.4710   -0.0570   20.1040 C   0  0  0  0  0  0  0  0  0  0  0  0
    5.3020    0.6500   20.3410 C   0  0  0  0  0  0  0  0  0  0  0  0
    4.6550    1.3180   19.3040 C   0  0  0  0  0  0  0  0  0  0  0  0
    5.2110    1.2610   18.0310 C   0  0  0  0  0  0  0  0  0  0  0  0
    6.3370    0.5830   17.7690 N   0  0  0  0  0  0  0  0  0  0  0  0
    6.9330   -0.0550   18.7970 C   0  0  0  0  0  0  0  0  0  0  0  0
  1  2  2  0
  2  3  1  0
  3  4  1  0
  4  5  1  0
  5  6  2  0
  6  7  1  0
  7  8  2  0
  8  9  1  0
  8 10  1  0
  5 11  1  0
 10 11  2  0
  2 12  1  0
 12 13  1  0
 13 14  2  0
 14 15  1  0
 15 16  2  0
 16 17  1  0
 13 18  1  0
 17 18  2  0
M  END
