pyridine_urea_6929
     RDKit          3D

 20 21  0  0  0  0  0  0  0  0999 V2000
   11.9360   -0.8190   25.0160 C   0  0  0  0  0  0  0  0  0  0  0  0
   10.6980   -0.0130   24.6290 C   0  0  0  0  0  0  0  0  0  0  0  0
    9.6410   -0.4840   23.8560 C   0  0  0  0  0  0  0  0  0  0  0  0
   10.0350   -1.3570   22.8400 C   0  0  1  0  0  0  0  0  0  0  0  0
    9.3410   -1.1580   21.5680 N   0  0  0  0  0  0  0  0  0  0  0  0
    8.3820   -0.1770   21.3540 C   0  0  0  0  0  0  0  0  0  0  0  0
    8.6850    1.0140   21.3590 O   0  0  0  0  0  0  0  0  0  0  0  0
    7.1420   -0.6450   21.1140 N   0  0  0  0  0  0  0  0  0  0  0  0
    6.5280   -0.0310   20.0860 C   0  0  0  0  0  0  0  0  0  0  0  0
    5.2440    0.7980   20.2650 C   0  0  0  0  0  0  0  0  0  0  0  0
    4.5980    1.4560   19.2240 C   0  0  0  0  0  0  0  0  0  0  0  0
    5.1760    1.3370   17.9570 C   0  0  0  0  0  0  0  0  0  0  0  0
    6.3220    0.5980   17.7690 N   0  0  0  0  0  0  0  0  0  0  0  0
    6.9920   -0.0800   18.7900 C   0  0  0  0  0  0  0  0  0  0  0  0
   11.5180   -1.1220   22.6670 C   0  0  0  0  0  0  0  0  0  0  0  0
   12.9070   -0.4970   22.5820 C   0  0  0  0  0  0  0  0  0  0  0  0
   13.2950    0.8370   22.7710 C   0  0  0  0  0  0  0  0  0  0  0  0
   12.4000    1.7980   23.0590 C   0  0  0  0  0  0  0  0  0  0  0  0
   11.1730    1.3990   23.1520 N   0  0  0  0  0  0  0  0  0  0  0  0
   10.7800    0.0740   22.9750 C   0  0  0  0  0  0  0  0  0  0  0  0
  1  2  2  3
  2  3  1  0
  4  3  1  1
  4  5  1  0
  5  6  1  0
  6  7  2  0
  6  8  1  0
  8  9  1  0
  9 10  2  0
 10 11  1  0
 11 12  2  0
 12 13  1  0
  9 14  1  0
 13 14  2  0
  4 15  1  0
 15 16  2  0
 16 17  1  0
 17 18  2  0
 18 19  1  0
 15 20  1  0
 19 20  2  0
M  END
