pyridine_urea_11249
     RDKit          3D

 17 18  0  0  0  0  0  0  0  0999 V2000
   12.5730    1.6780   23.2750 C   0  0  0  0  0  0  0  0  0  0  0  0
   11.9950    0.7160   23.6550 C   0  0  1  0  0  0  0  0  0  0  0  0
   10.8050   -0.1870   23.8960 C   0  0  0  0  0  0  0  0  0  0  0  0
   10.4150   -0.5830   22.5370 C   0  0  2  0  0  0  0  0  0  0  0  0
    9.0030   -0.8680   22.3750 N   0  0  0  0  0  0  0  0  0  0  0  0
    8.3160   -0.0590   21.4860 C   0  0  0  0  0  0  0  0  0  0  0  0
    8.8000    1.2730   21.1040 O   0  0  0  0  0  0  0  0  0  0  0  0
    7.1780   -0.6510   21.0570 N   0  0  0  0  0  0  0  0  0  0  0  0
    6.5360   -0.0310   20.0320 C   0  0  0  0  0  0  0  0  0  0  0  0
    5.3000    0.7400   20.3320 C   0  0  0  0  0  0  0  0  0  0  0  0
    4.5490    1.4240   19.4160 C   0  0  0  0  0  0  0  0  0  0  0  0
    5.2170    1.2460   18.0650 C   0  0  0  0  0  0  0  0  0  0  0  0
    6.3240    0.5570   17.7670 N   0  0  0  0  0  0  0  0  0  0  0  0
    6.9620   -0.0700   18.7470 C   0  0  0  0  0  0  0  0  0  0  0  0
   11.3300   -1.7640   22.2250 C   0  0  0  0  0  0  0  0  0  0  0  0
   12.5140   -1.4290   22.8730 C   0  0  0  0  0  0  0  0  0  0  0  0
   12.9290   -0.1250   22.8380 N   0  0  0  0  0  0  0  0  0  0  0  0
  2  1  1  6
  2  3  1  0
  3  4  1  0
  4  5  1  1
  5  6  1  0
  6  7  2  0
  6  8  1  0
  8  9  1  0
  9 10  2  0
 10 11  1  0
 11 12  2  0
 12 13  1  0
  9 14  1  0
 13 14  2  0
  4 15  1  0
 15 16  1  0
  2 17  1  0
 16 17  1  0
M  END
