pyridine_urea_12790
     RDKit          3D

 20 21  0  0  0  0  0  0  0  0999 V2000
    3.3440    0.6780   21.6800 C   0  0  0  0  0  0  0  0  0  0  0  0
    4.7000    0.8750   21.5920 N   0  0  0  0  0  0  0  0  0  0  0  0
    5.5440    0.4590   22.6950 C   0  0  0  0  0  0  0  0  0  0  0  0
    5.1400    0.7750   20.2740 C   0  0  0  0  0  0  0  0  0  0  0  0
    4.2930    1.3520   19.3240 N   0  0  0  0  0  0  0  0  0  0  0  0
    4.9880    1.0950   18.1690 C   0  0  0  0  0  0  0  0  0  0  0  0
    5.8590    0.4510   19.4770 Cl  0  0  0  0  0  0  0  0  0  0  0  0
    6.1230    0.5090   17.7160 N   0  0  0  0  0  0  0  0  0  0  0  0
    6.9300   -0.0520   18.7100 C   0  0  0  0  0  0  0  0  0  0  0  0
    6.5000    0.0440   20.0400 C   0  0  0  0  0  0  0  0  0  0  0  0
    7.3440   -0.5180   20.9900 N   0  0  0  0  0  0  0  0  0  0  0  0
    8.5120    0.0880   21.4130 C   0  0  0  0  0  0  0  0  0  0  0  0
    8.8160    1.2310   21.0500 O   0  0  0  0  0  0  0  0  0  0  0  0
    9.2920   -0.6880   22.2360 N   0  0  0  0  0  0  0  0  0  0  0  0
   10.5990   -0.2680   22.5020 C   0  0  0  0  0  0  0  0  0  0  0  0
   11.5780   -1.2490   22.3530 C   0  0  0  0  0  0  0  0  0  0  0  0
   12.8810   -0.9620   22.5650 C   0  0  0  0  0  0  0  0  0  0  0  0
   13.0790    0.3260   22.9100 C   0  0  0  0  0  0  0  0  0  0  0  0
   12.1110    1.2220   23.0390 N   0  0  0  0  0  0  0  0  0  0  0  0
   10.7330    1.1140   22.8750 C   0  0  0  0  0  0  0  0  0  0  0  0
  1  2  1  0
  2  3  1  0
  2  4  1  0
  4  5  2  0
  5  6  1  0
  6  7  1  0
  6  8  2  0
  8  9  1  0
  4 10  1  0
  9 10  2  0
 10 11  1  0
 11 12  1  0
 12 13  2  0
 12 14  1  0
 14 15  1  0
 15 16  2  0
 16 17  1  0
 17 18  2  0
 18 19  1  0
 15 20  1  0
 19 20  2  0
M  END
