pyridine_urea_68
     RDKit          3D

 18 19  0  0  0  0  0  0  0  0999 V2000
   12.3720   -1.1240   22.2350 C   0  0  0  0  0  0  0  0  0  0  0  0
   12.3880   -1.0790   23.4250 C   0  0  0  0  0  0  0  0  0  0  0  0
   12.8760   -1.4580   24.8260 C   0  0  0  0  0  0  0  0  0  0  0  0
   12.4240    0.4760   23.5950 C   0  0  1  0  0  0  0  0  0  0  0  0
   12.6800    1.3300   22.5020 O   0  0  0  0  0  0  0  0  0  0  0  0
   11.1590    0.3310   23.8420 C   0  0  0  0  0  0  0  0  0  0  0  0
   10.9390   -1.1290   23.6300 C   0  0  1  0  0  0  0  0  0  0  0  0
   10.0240   -1.5020   22.5390 C   0  0  0  0  0  0  0  0  0  0  0  0
    8.8280   -0.6970   22.6220 N   0  0  0  0  0  0  0  0  0  0  0  0
    8.3990    0.0780   21.5650 C   0  0  0  0  0  0  0  0  0  0  0  0
    8.9370    1.1430   21.2260 O   0  0  0  0  0  0  0  0  0  0  0  0
    7.2980   -0.5070   20.9890 N   0  0  0  0  0  0  0  0  0  0  0  0
    6.5090    0.1310   20.0320 C   0  0  0  0  0  0  0  0  0  0  0  0
    5.3470    0.8450   20.2570 C   0  0  0  0  0  0  0  0  0  0  0  0
    4.6500    1.4550   19.2320 C   0  0  0  0  0  0  0  0  0  0  0  0
    5.1440    1.3370   17.9540 C   0  0  0  0  0  0  0  0  0  0  0  0
    6.2660    0.6420   17.6810 N   0  0  0  0  0  0  0  0  0  0  0  0
    6.9140    0.0620   18.7150 C   0  0  0  0  0  0  0  0  0  0  0  0
  2  1  1  0
  2  3  1  0
  2  4  1  0
  4  5  1  6
  4  6  1  0
  2  7  1  0
  6  7  1  0
  7  8  1  6
  8  9  1  0
  9 10  1  0
 10 11  2  0
 10 12  1  0
 12 13  1  0
 13 14  2  0
 14 15  1  0
 15 16  2  0
 16 17  1  0
 13 18  1  0
 17 18  2  0
M  END
