pyridine_urea_10316
     RDKit          3D

 22 23  0  0  0  0  0  0  0  0999 V2000
   11.0980   -1.0540   25.1240 C   0  0  0  0  0  0  0  0  0  0  0  0
   12.6000   -0.8160   25.1210 C   0  0  0  0  0  0  0  0  0  0  0  0
   13.3500   -1.9880   25.0080 C   0  0  0  0  0  0  0  0  0  0  0  0
   12.9170    0.0580   23.8930 C   0  0  0  0  0  0  0  0  0  0  0  0
   12.3740   -0.7310   22.9330 N   0  0  0  0  0  0  0  0  0  0  0  0
   11.4350    0.1250   23.5840 N   0  0  0  0  0  0  0  0  0  0  0  0
   10.0780    0.0240   23.1730 C   0  0  0  0  0  0  0  0  0  0  0  0
   10.0710   -0.8940   22.2440 C   0  0  0  0  0  0  0  0  0  0  0  0
    8.9280   -1.3570   21.5320 N   0  0  0  0  0  0  0  0  0  0  0  0
    8.0740   -0.3170   21.2220 C   0  0  0  0  0  0  0  0  0  0  0  0
    8.5030    0.8310   21.1600 O   0  0  0  0  0  0  0  0  0  0  0  0
    6.8020   -0.6390   21.0100 N   0  0  0  0  0  0  0  0  0  0  0  0
    6.2510    0.0230   20.0070 C   0  0  0  0  0  0  0  0  0  0  0  0
    5.0740    0.7720   20.1610 C   0  0  0  0  0  0  0  0  0  0  0  0
    4.5410    1.4710   19.0780 C   0  0  0  0  0  0  0  0  0  0  0  0
    5.1340    1.4600   17.8260 C   0  0  0  0  0  0  0  0  0  0  0  0
    6.3440    0.6810   17.6630 N   0  0  0  0  0  0  0  0  0  0  0  0
    6.8150    0.0190   18.7520 C   0  0  0  0  0  0  0  0  0  0  0  0
   11.4610   -1.3220   22.1090 C   0  0  0  0  0  0  0  0  0  0  0  0
   12.1070   -2.2530   21.3120 C   0  0  0  0  0  0  0  0  0  0  0  0
   13.1100   -1.6770   20.6220 F   0  0  0  0  0  0  0  0  0  0  0  0
   12.8070   -3.0540   22.1380 F   0  0  0  0  0  0  0  0  0  0  0  0
  1  2  1  0
  2  3  1  0
  2  4  1  0
  4  5  1  0
  5  6  1  0
  6  7  2  0
  7  8  1  0
  8  9  1  0
  9 10  1  0
 10 11  2  0
 10 12  1  0
 12 13  1  0
 13 14  2  0
 14 15  1  0
 15 16  2  0
 16 17  1  0
 13 18  1  0
 17 18  2  0
  5 19  1  0
  8 19  2  0
 19 20  1  0
 20 21  1  0
 20 22  1  0
M  END
