pyridine_urea_14388
     RDKit          3D

 21 23  0  0  0  0  0  0  0  0999 V2000
    8.8960    0.9540   21.4910 O   0  0  0  0  0  0  0  0  0  0  0  0
    8.5070   -0.1990   21.3990 C   0  0  0  0  0  0  0  0  0  0  0  0
    9.3930   -1.3390   21.6060 N   0  0  0  0  0  0  0  0  0  0  0  0
   10.1260   -1.5140   22.7930 C   0  0  0  0  0  0  0  0  0  0  0  0
   11.4930   -1.1370   22.8280 C   0  0  0  0  0  0  0  0  0  0  0  0
   11.9760    0.1600   23.0520 C   0  0  0  0  0  0  0  0  0  0  0  0
   13.2110    0.6420   22.7660 C   0  0  0  0  0  0  0  0  0  0  0  0
   12.1330    1.3860   23.3640 C   0  0  0  0  0  0  0  0  0  0  0  0
   10.9560    0.3380   23.4890 C   0  0  0  0  0  0  0  0  0  0  0  0
   10.9980   -0.9550   23.1190 F   0  0  0  0  0  0  0  0  0  0  0  0
    9.8200    1.0130   24.0780 C   0  0  0  0  0  0  0  0  0  0  0  0
   11.1760    1.3470   23.6840 N   0  0  0  0  0  0  0  0  0  0  0  0
   12.4750   -2.3560   23.1260 C   0  0  0  0  0  0  0  0  0  0  0  0
   12.2120   -2.0530   21.9130 C   0  0  0  0  0  0  0  0  0  0  0  0
    7.2290   -0.5920   21.0580 N   0  0  0  0  0  0  0  0  0  0  0  0
    6.5380    0.0120   20.0620 C   0  0  0  0  0  0  0  0  0  0  0  0
    5.3960    0.7370   20.3800 C   0  0  0  0  0  0  0  0  0  0  0  0
    4.6960    1.3680   19.3630 C   0  0  0  0  0  0  0  0  0  0  0  0
    5.1580    1.2540   18.0670 C   0  0  0  0  0  0  0  0  0  0  0  0
    6.2470    0.5590   17.7250 N   0  0  0  0  0  0  0  0  0  0  0  0
    6.9130   -0.0480   18.7310 C   0  0  0  0  0  0  0  0  0  0  0  0
  1  2  2  0
  2  3  1  0
  3  4  1  0
  5  4  1  0
  5  6  1  0
  6  7  2  0
  7  8  1  0
  8  9  2  0
  9 10  1  0
  9 11  1  0
  6 12  1  0
 11 12  2  0
  5 13  1  0
  5 14  1  0
 13 14  1  0
  2 15  1  0
 15 16  1  0
 16 17  2  0
 17 18  1  0
 18 19  2  0
 19 20  1  0
 16 21  1  0
 20 21  2  0
M  END
