pyridine_urea_6323
     RDKit          3D

 23 25  0  0  0  0  0  0  0  0999 V2000
    4.9150   -5.3810   22.3710 C   0  0  0  0  0  0  0  0  0  0  0  0
    5.7310   -4.5100   22.2420 C   0  0  0  0  0  0  0  0  0  0  0  0
    6.3080   -3.1810   21.7020 C   0  0  0  0  0  0  0  0  0  0  0  0
    7.6550   -2.6400   22.0410 C   0  0  0  0  0  0  0  0  0  0  0  0
    8.4650   -3.3230   22.8810 C   0  0  0  0  0  0  0  0  0  0  0  0
    9.7630   -2.6720   23.1210 N   0  0  0  0  0  0  0  0  0  0  0  0
   10.6320   -2.2000   22.1520 C   0  0  0  0  0  0  0  0  0  0  0  0
   11.7360   -1.7060   22.9200 C   0  0  0  0  0  0  0  0  0  0  0  0
   11.3470   -1.8770   24.2150 C   0  0  0  0  0  0  0  0  0  0  0  0
    9.7750   -1.6930   24.0360 C   0  0  1  0  0  0  0  0  0  0  0  0
    9.0330   -0.6880   23.4400 C   0  0  0  0  0  0  0  0  0  0  0  0
    9.3580   -0.2600   22.2010 N   0  0  0  0  0  0  0  0  0  0  0  0
    8.5140    0.4840   21.3760 C   0  0  0  0  0  0  0  0  0  0  0  0
    8.7380    1.6410   21.0450 O   0  0  0  0  0  0  0  0  0  0  0  0
    7.3370   -0.2860   20.9760 N   0  0  0  0  0  0  0  0  0  0  0  0
    6.5250    0.2730   20.0310 C   0  0  0  0  0  0  0  0  0  0  0  0
    5.2790    0.9710   20.6270 C   0  0  0  0  0  0  0  0  0  0  0  0
    4.6800    1.4640   19.3240 C   0  0  0  0  0  0  0  0  0  0  0  0
    5.1890    1.2880   17.9490 C   0  0  0  0  0  0  0  0  0  0  0  0
    6.2730    0.6450   17.6420 N   0  0  0  0  0  0  0  0  0  0  0  0
    6.9000    0.1610   18.7020 C   0  0  0  0  0  0  0  0  0  0  0  0
    7.9760   -4.5170   23.4000 C   0  0  0  0  0  0  0  0  0  0  0  0
    6.7220   -5.0490   23.0950 C   0  0  0  0  0  0  0  0  0  0  0  0
  1  2  1  0
  2  3  2  0
  3  4  1  0
  4  5  2  0
  5  6  1  0
  6  7  1  0
  7  8  1  0
  8  9  1  0
  6 10  1  0
  9 10  1  0
 10 11  1  6
 11 12  1  0
 12 13  1  0
 13 14  2  0
 13 15  1  0
 15 16  1  0
 16 17  2  0
 17 18  1  0
 18 19  2  0
 19 20  1  0
 16 21  1  0
 20 21  2  0
  5 22  1  0
  2 23  1  0
 22 23  2  0
M  END
