pyridine_urea_1235
     RDKit          3D

 21 24  0  0  0  0  0  0  0  0999 V2000
    8.6700    0.4280   21.4910 O   0  0  0  0  0  0  0  0  0  0  0  0
    7.9830   -0.5570   21.7360 C   0  0  0  0  0  0  0  0  0  0  0  0
    8.2930   -1.5200   22.6970 N   0  0  0  0  0  0  0  0  0  0  0  0
    9.1520   -1.2460   23.8400 C   0  0  0  0  0  0  0  0  0  0  0  0
   10.1490   -0.2220   23.3850 C   0  0  1  0  0  0  0  0  0  0  0  0
   11.2800    0.0820   24.0370 C   0  0  1  0  0  0  0  0  0  0  0  0
   12.1330   -0.8730   24.4100 C   0  0  0  0  0  0  0  0  0  0  0  0
   12.7600   -0.9980   23.1630 C   0  0  2  0  0  0  0  0  0  0  0  0
   13.0930    0.2570   22.6340 C   0  0  0  0  0  0  0  0  0  0  0  0
   12.0840    1.2600   22.7990 C   0  0  2  0  0  0  0  0  0  0  0  0
   11.7760    1.2670   24.0620 C   0  0  0  0  0  0  0  0  0  0  0  0
   10.6550    0.7130   22.4580 C   0  0  0  0  0  0  0  0  0  0  0  0
   10.6560   -0.6490   22.0330 C   0  0  1  0  0  0  0  0  0  0  0  0
   11.8070   -1.6190   22.1790 C   0  0  0  0  0  0  0  0  0  0  0  0
    6.8110   -0.8520   21.0960 N   0  0  0  0  0  0  0  0  0  0  0  0
    6.2890   -0.1220   20.0460 C   0  0  0  0  0  0  0  0  0  0  0  0
    5.0880    0.6140   20.2590 C   0  0  0  0  0  0  0  0  0  0  0  0
    4.5500    1.3480   19.2420 C   0  0  0  0  0  0  0  0  0  0  0  0
    5.2420    1.3630   17.9150 C   0  0  0  0  0  0  0  0  0  0  0  0
    6.3720    0.6610   17.7320 N   0  0  0  0  0  0  0  0  0  0  0  0
    6.8630   -0.0550   18.7790 C   0  0  0  0  0  0  0  0  0  0  0  0
  1  2  2  0
  2  3  1  0
  3  4  1  0
  5  4  1  1
  5  6  1  0
  6  7  1  6
  8  7  1  1
  8  9  1  0
 10  9  1  1
  6 11  1  0
 10 11  1  0
 10 12  1  0
  5 13  1  0
 13 12  1  1
  8 14  1  0
 13 14  1  0
  2 15  1  0
 15 16  1  0
 16 17  2  0
 17 18  1  0
 18 19  2  0
 19 20  1  0
 16 21  1  0
 20 21  2  0
M  END
