pyridine_urea_10190
     RDKit          3D

 23 24  0  0  0  0  0  0  0  0999 V2000
    8.2480   -0.0840   25.1100 C   0  0  0  0  0  0  0  0  0  0  0  0
    9.1090   -0.3360   24.2770 O   0  0  0  0  0  0  0  0  0  0  0  0
   10.3950    0.0130   24.5860 C   0  0  0  0  0  0  0  0  0  0  0  0
   10.0280   -0.0770   25.7500 O   0  0  0  0  0  0  0  0  0  0  0  0
   10.4200    0.0070   23.1810 C   0  0  2  0  0  0  0  0  0  0  0  0
    9.2220   -0.7060   22.6750 N   0  0  0  0  0  0  0  0  0  0  0  0
    8.4870    0.0100   21.6140 C   0  0  0  0  0  0  0  0  0  0  0  0
    8.9480    1.3120   21.1890 O   0  0  0  0  0  0  0  0  0  0  0  0
    7.3610   -0.6280   21.1000 N   0  0  0  0  0  0  0  0  0  0  0  0
    6.6050    0.0400   20.0470 C   0  0  0  0  0  0  0  0  0  0  0  0
    5.4490    0.7870   20.3360 C   0  0  0  0  0  0  0  0  0  0  0  0
    4.6650    1.5060   19.2120 C   0  0  0  0  0  0  0  0  0  0  0  0
    5.1640    1.3700   17.9340 C   0  0  0  0  0  0  0  0  0  0  0  0
    6.2790    0.6300   17.7240 N   0  0  0  0  0  0  0  0  0  0  0  0
    7.0080   -0.0340   18.7080 C   0  0  0  0  0  0  0  0  0  0  0  0
   11.6930   -0.6520   22.6890 C   0  0  0  0  0  0  0  0  0  0  0  0
   11.3800   -1.8910   22.0400 C   0  0  0  0  0  0  0  0  0  0  0  0
   12.6250   -1.4060   22.1810 C   0  0  0  0  0  0  0  0  0  0  0  0
   12.9480   -2.5530   21.5140 F   0  0  0  0  0  0  0  0  0  0  0  0
   11.5790   -0.4980   22.7920 C   0  0  0  0  0  0  0  0  0  0  0  0
   12.1550    0.5630   23.3150 C   0  0  0  0  0  0  0  0  0  0  0  0
   13.1480   -0.0360   22.8770 C   0  0  0  0  0  0  0  0  0  0  0  0
   13.5850   -1.1430   22.2190 F   0  0  0  0  0  0  0  0  0  0  0  0
  1  2  1  0
  2  3  1  0
  3  4  2  0
  3  5  1  0
  5  6  1  6
  6  7  1  0
  7  8  2  0
  7  9  1  0
  9 10  1  0
 10 11  2  0
 11 12  1  0
 12 13  2  0
 13 14  1  0
 10 15  1  0
 14 15  2  0
  5 16  1  0
 16 17  2  0
 17 18  1  0
 18 19  1  0
 18 20  2  0
 20 21  1  0
 16 22  1  0
 21 22  2  0
 22 23  1  0
M  END
