pyridine_urea_3489
     RDKit          3D

 18 19  0  0  0  0  0  0  0  0999 V2000
   12.9940    1.1230   22.9930 C   0  0  0  0  0  0  0  0  0  0  0  0
   12.7840   -0.2660   23.5680 C   0  0  1  0  0  0  0  0  0  0  0  0
   11.7080   -0.1010   24.6180 C   0  0  0  0  0  0  0  0  0  0  0  0
   10.4090   -0.7730   24.2880 C   0  0  0  0  0  0  0  0  0  0  0  0
   10.2900   -0.6190   22.8100 C   0  0  2  0  0  0  0  0  0  0  0  0
   10.3010    0.8600   22.4760 C   0  0  0  0  0  0  0  0  0  0  0  0
    9.0080   -1.0780   22.3080 N   0  0  0  0  0  0  0  0  0  0  0  0
    8.2460   -0.2520   21.4970 C   0  0  0  0  0  0  0  0  0  0  0  0
    8.5620    0.8960   21.2190 O   0  0  0  0  0  0  0  0  0  0  0  0
    7.0310   -0.8770   21.0060 N   0  0  0  0  0  0  0  0  0  0  0  0
    6.3320   -0.1270   20.0440 C   0  0  0  0  0  0  0  0  0  0  0  0
    5.1290    0.5550   20.2590 C   0  0  0  0  0  0  0  0  0  0  0  0
    4.5720    1.2660   19.2030 C   0  0  0  0  0  0  0  0  0  0  0  0
    5.2140    1.2850   17.9760 C   0  0  0  0  0  0  0  0  0  0  0  0
    6.3650    0.6340   17.7510 N   0  0  0  0  0  0  0  0  0  0  0  0
    6.8890   -0.0520   18.7830 C   0  0  0  0  0  0  0  0  0  0  0  0
   11.2330   -1.4470   22.2030 C   0  0  0  0  0  0  0  0  0  0  0  0
   12.5690   -1.1810   22.5390 C   0  0  0  0  0  0  0  0  0  0  0  0
  2  1  1  6
  2  3  1  0
  3  4  1  0
  4  5  1  0
  5  6  1  1
  5  7  1  0
  7  8  1  0
  8  9  2  0
  8 10  1  0
 10 11  1  0
 11 12  2  0
 12 13  1  0
 13 14  2  0
 14 15  1  0
 11 16  1  0
 15 16  2  0
  5 17  1  0
  2 18  1  0
 17 18  1  0
M  END
