pyridine_urea_12786
     RDKit          3D

 20 20  0  0  0  0  0  0  0  0999 V2000
    8.8360    1.1140   21.1950 O   0  0  0  0  0  0  0  0  0  0  0  0
    8.2710    0.0470   21.4920 C   0  0  0  0  0  0  0  0  0  0  0  0
    8.7440   -0.7980   22.4430 N   0  0  0  0  0  0  0  0  0  0  0  0
   10.1180   -1.1820   22.3670 C   0  0  0  0  0  0  0  0  0  0  0  0
   10.8510   -0.5880   23.5560 C   0  0  1  0  0  0  0  0  0  0  0  0
   10.3040   -1.3410   24.6730 O   0  0  0  0  0  0  0  0  0  0  0  0
   12.2290   -0.6700   23.6000 C   0  0  0  0  0  0  0  0  0  0  0  0
   12.5750   -1.2390   24.7750 F   0  0  0  0  0  0  0  0  0  0  0  0
   12.7670    0.5650   23.6100 F   0  0  0  0  0  0  0  0  0  0  0  0
   12.8410   -1.2830   22.5550 C   0  0  0  0  0  0  0  0  0  0  0  0
   13.6340   -2.2830   23.0110 F   0  0  0  0  0  0  0  0  0  0  0  0
   13.6080   -0.4250   21.8870 F   0  0  0  0  0  0  0  0  0  0  0  0
   12.0320   -1.8640   21.6440 F   0  0  0  0  0  0  0  0  0  0  0  0
    7.1200   -0.4650   20.9730 N   0  0  0  0  0  0  0  0  0  0  0  0
    6.3890    0.1850   19.9950 C   0  0  0  0  0  0  0  0  0  0  0  0
    5.2220    0.9110   20.1790 C   0  0  0  0  0  0  0  0  0  0  0  0
    4.6260    1.5190   19.1010 C   0  0  0  0  0  0  0  0  0  0  0  0
    5.1780    1.4070   17.8640 C   0  0  0  0  0  0  0  0  0  0  0  0
    6.2980    0.7110   17.6240 N   0  0  0  0  0  0  0  0  0  0  0  0
    6.8730    0.1170   18.6960 C   0  0  0  0  0  0  0  0  0  0  0  0
  1  2  2  0
  2  3  1  0
  3  4  1  0
  4  5  1  0
  5  6  1  1
  5  7  1  0
  7  8  1  0
  7  9  1  0
  7 10  1  0
 10 11  1  0
 10 12  1  0
 10 13  1  0
  2 14  1  0
 14 15  1  0
 15 16  2  0
 16 17  1  0
 17 18  2  0
 18 19  1  0
 15 20  1  0
 19 20  2  0
M  END
