pyridine_urea_4881
     RDKit          3D

 21 22  0  0  0  0  0  0  0  0999 V2000
   11.8750   -0.1980   24.6850 C   0  0  0  0  0  0  0  0  0  0  0  0
   10.3950    0.2850   24.6640 C   0  0  2  0  0  0  0  0  0  0  0  0
    9.6520   -0.4760   25.5990 O   0  0  0  0  0  0  0  0  0  0  0  0
    9.9680    0.1810   23.2180 C   0  0  2  0  0  0  0  0  0  0  0  0
    8.6140   -0.2000   22.9280 N   0  0  0  0  0  0  0  0  0  0  0  0
    8.2130    0.2750   21.7000 C   0  0  0  0  0  0  0  0  0  0  0  0
    8.7310    1.2590   21.1430 O   0  0  0  0  0  0  0  0  0  0  0  0
    7.1730   -0.4040   21.1140 N   0  0  0  0  0  0  0  0  0  0  0  0
    6.4870    0.1490   20.0350 C   0  0  0  0  0  0  0  0  0  0  0  0
    5.3110    0.8640   20.2840 C   0  0  0  0  0  0  0  0  0  0  0  0
    4.6320    1.4410   19.2230 C   0  0  0  0  0  0  0  0  0  0  0  0
    5.1440    1.2850   17.9450 C   0  0  0  0  0  0  0  0  0  0  0  0
    6.2600    0.5960   17.6850 N   0  0  0  0  0  0  0  0  0  0  0  0
    6.9030    0.0440   18.7290 C   0  0  0  0  0  0  0  0  0  0  0  0
   10.8050   -0.7720   22.5050 C   0  0  0  0  0  0  0  0  0  0  0  0
   10.6860   -1.9500   21.8410 C   0  0  0  0  0  0  0  0  0  0  0  0
   12.1370   -2.2630   21.3000 C   0  0  0  0  0  0  0  0  0  0  0  0
   13.3670   -1.4660   21.4890 C   0  0  0  0  0  0  0  0  0  0  0  0
   13.1330   -0.3160   22.2990 C   0  0  0  0  0  0  0  0  0  0  0  0
   12.0230   -0.8170   22.2300 C   0  0  0  0  0  0  0  0  0  0  0  0
   12.2200   -1.9320   21.5270 F   0  0  0  0  0  0  0  0  0  0  0  0
  2  1  1  6
  2  3  1  0
  2  4  1  0
  4  5  1  1
  5  6  1  0
  6  7  2  0
  6  8  1  0
  8  9  1  0
  9 10  2  0
 10 11  1  0
 11 12  2  0
 12 13  1  0
  9 14  1  0
 13 14  2  0
  4 15  1  0
 15 16  2  0
 16 17  1  0
 17 18  2  0
 18 19  1  0
 15 20  1  0
 19 20  2  0
 20 21  1  0
M  END
