pyridine_urea_14074
     RDKit          3D

 23 25  0  0  0  0  0  0  0  0999 V2000
    8.2650    0.3960   21.1290 O   0  0  0  0  0  0  0  0  0  0  0  0
    7.3530   -0.2650   21.6260 C   0  0  0  0  0  0  0  0  0  0  0  0
    6.4450   -0.9310   20.9000 N   0  0  0  0  0  0  0  0  0  0  0  0
    6.0360   -0.1290   19.8060 C   0  0  0  0  0  0  0  0  0  0  0  0
    4.7740    0.6740   20.0470 C   0  0  0  0  0  0  0  0  0  0  0  0
    4.3760    1.5220   18.9020 C   0  0  0  0  0  0  0  0  0  0  0  0
    5.1600    1.5010   17.7630 C   0  0  0  0  0  0  0  0  0  0  0  0
    6.2780    0.7550   17.6070 N   0  0  0  0  0  0  0  0  0  0  0  0
    6.6890   -0.0310   18.6140 C   0  0  0  0  0  0  0  0  0  0  0  0
    7.1480   -0.3800   22.9700 N   0  0  0  0  0  0  0  0  0  0  0  0
    8.4180   -0.1300   23.5180 C   0  0  0  0  0  0  0  0  0  0  0  0
    8.5390    0.6710   24.5570 C   0  0  0  0  0  0  0  0  0  0  0  0
    9.9910    0.7280   24.8080 C   0  0  0  0  0  0  0  0  0  0  0  0
   10.9810    0.1020   24.1420 C   0  0  0  0  0  0  0  0  0  0  0  0
   10.6910   -0.7130   23.0800 C   0  0  0  0  0  0  0  0  0  0  0  0
   11.4130   -1.3190   22.3360 C   0  0  0  0  0  0  0  0  0  0  0  0
   11.1420   -2.5410   21.5780 C   0  0  0  0  0  0  0  0  0  0  0  0
   12.5080   -2.4830   20.9280 C   0  0  0  0  0  0  0  0  0  0  0  0
   13.5340   -1.4510   21.1490 C   0  0  0  0  0  0  0  0  0  0  0  0
   13.2830   -0.4620   22.0230 C   0  0  0  0  0  0  0  0  0  0  0  0
   13.8090    0.8930   22.7370 Cl  0  0  0  0  0  0  0  0  0  0  0  0
   12.2660   -0.4560   22.5490 C   0  0  0  0  0  0  0  0  0  0  0  0
    9.3170   -0.7900   22.8050 C   0  0  0  0  0  0  0  0  0  0  0  0
  1  2  2  0
  2  3  1  0
  3  4  1  0
  4  5  2  0
  5  6  1  0
  6  7  2  0
  7  8  1  0
  4  9  1  0
  8  9  2  0
  2 10  1  0
 10 11  1  0
 11 12  2  0
 12 13  1  0
 13 14  2  0
 14 15  1  0
 15 16  1  0
 16 17  2  0
 17 18  1  0
 18 19  2  0
 19 20  1  0
 20 21  1  0
 16 22  1  0
 20 22  2  0
 11 23  1  0
 15 23  2  0
M  END
