pyridine_urea_12521
     RDKit          3D

 21 22  0  0  0  0  0  0  0  0999 V2000
   13.8630   -2.8100   25.5820 C   0  0  0  0  0  0  0  0  0  0  0  0
   13.0470   -2.1920   24.4730 C   0  0  0  0  0  0  0  0  0  0  0  0
   13.6430   -2.5490   23.1020 C   0  0  0  0  0  0  0  0  0  0  0  0
   11.6280   -2.6990   24.3950 C   0  0  0  0  0  0  0  0  0  0  0  0
   13.1240   -0.7910   24.6930 O   0  0  0  0  0  0  0  0  0  0  0  0
   12.5670    0.1550   23.8260 C   0  0  2  0  0  0  0  0  0  0  0  0
   11.3400    0.4860   24.3720 C   0  0  0  0  0  0  0  0  0  0  0  0
   10.0770    0.1160   23.6570 C   0  0  0  0  0  0  0  0  0  0  0  0
   10.2930   -0.5710   22.3490 C   0  0  2  0  0  0  0  0  0  0  0  0
    9.0320   -1.1940   22.0390 N   0  0  0  0  0  0  0  0  0  0  0  0
    8.2170   -0.2680   21.4630 C   0  0  0  0  0  0  0  0  0  0  0  0
    8.5420    0.9090   21.3780 O   0  0  0  0  0  0  0  0  0  0  0  0
    7.0140   -0.7770   20.9850 N   0  0  0  0  0  0  0  0  0  0  0  0
    6.3990   -0.0920   19.9800 C   0  0  0  0  0  0  0  0  0  0  0  0
    5.1000    0.6690   20.2300 C   0  0  0  0  0  0  0  0  0  0  0  0
    4.4720    1.4400   19.0760 C   0  0  0  0  0  0  0  0  0  0  0  0
    5.1310    1.4040   17.8550 C   0  0  0  0  0  0  0  0  0  0  0  0
    6.2900    0.6940   17.6990 N   0  0  0  0  0  0  0  0  0  0  0  0
    6.9070   -0.0280   18.7070 C   0  0  0  0  0  0  0  0  0  0  0  0
   11.5170   -1.1790   22.2370 C   0  0  0  0  0  0  0  0  0  0  0  0
   12.5590   -0.3200   22.5480 C   0  0  0  0  0  0  0  0  0  0  0  0
  1  2  1  0
  2  3  1  0
  2  4  1  0
  2  5  1  0
  6  5  1  1
  6  7  1  0
  7  8  1  0
  8  9  1  0
  9 10  1  1
 10 11  1  0
 11 12  2  0
 11 13  1  0
 13 14  1  0
 14 15  2  0
 15 16  1  0
 16 17  2  0
 17 18  1  0
 14 19  1  0
 18 19  2  0
  9 20  1  0
  6 21  1  0
 20 21  1  0
M  END
