pyridine_urea_2547
     RDKit          3D

 24 26  0  0  0  0  0  0  0  0999 V2000
    9.1890    0.0670   24.7290 C   0  0  0  0  0  0  0  0  0  0  0  0
   10.1870    0.1840   23.5950 C   0  0  2  0  0  0  0  0  0  0  0  0
    9.5210   -0.5030   22.4750 N   0  0  0  0  0  0  0  0  0  0  0  0
    8.7460    0.2630   21.5910 C   0  0  0  0  0  0  0  0  0  0  0  0
    9.0680    1.4060   21.2570 O   0  0  0  0  0  0  0  0  0  0  0  0
    7.5910   -0.3750   21.1550 N   0  0  0  0  0  0  0  0  0  0  0  0
    6.7570    0.1330   20.0740 C   0  0  0  0  0  0  0  0  0  0  0  0
    5.6400    0.9010   20.3650 C   0  0  0  0  0  0  0  0  0  0  0  0
    4.7910    1.4540   19.3970 C   0  0  0  0  0  0  0  0  0  0  0  0
    5.1180    1.2010   18.0660 C   0  0  0  0  0  0  0  0  0  0  0  0
    6.2040    0.4410   17.7530 N   0  0  0  0  0  0  0  0  0  0  0  0
    7.0240   -0.0970   18.7420 C   0  0  0  0  0  0  0  0  0  0  0  0
   11.5720   -0.2670   24.1740 C   0  0  0  0  0  0  0  0  0  0  0  0
   11.7720   -0.5270   25.3570 C   0  0  0  0  0  0  0  0  0  0  0  0
   12.8830   -0.6210   24.5260 C   0  0  0  0  0  0  0  0  0  0  0  0
   11.9690   -0.2340   23.4480 C   0  0  0  0  0  0  0  0  0  0  0  0
   11.7480    0.0020   22.2270 N   0  0  0  0  0  0  0  0  0  0  0  0
   12.0760   -1.2820   21.7910 C   0  0  0  0  0  0  0  0  0  0  0  0
   13.2090   -1.5450   21.0380 O   0  0  0  0  0  0  0  0  0  0  0  0
   11.2890   -2.3320   22.1190 C   0  0  0  0  0  0  0  0  0  0  0  0
   10.0420   -2.2230   22.0210 C   0  0  0  0  0  0  0  0  0  0  0  0
   10.3800   -2.2650   23.4350 C   0  0  0  0  0  0  0  0  0  0  0  0
   13.1630   -0.3500   22.6870 C   0  0  0  0  0  0  0  0  0  0  0  0
   12.9420   -0.5280   23.8510 C   0  0  0  0  0  0  0  0  0  0  0  0
  2  1  1  1
  2  3  1  0
  3  4  1  0
  4  5  2  0
  4  6  1  0
  6  7  1  0
  7  8  2  0
  8  9  1  0
  9 10  2  0
 10 11  1  0
  7 12  1  0
 11 12  2  0
  2 13  1  0
 13 14  2  0
 14 15  1  0
 15 16  2  0
 16 17  1  0
 17 18  1  0
 18 19  2  0
 18 20  1  0
 20 21  1  0
 20 22  1  0
 21 22  1  0
 16 23  1  0
 13 24  1  0
 23 24  2  0
M  END
