pyridine_urea_14292
     RDKit          3D

 22 24  0  0  0  0  0  0  0  0999 V2000
    8.8660    1.1340   21.0990 O   0  0  0  0  0  0  0  0  0  0  0  0
    8.6260   -0.0480   21.3840 C   0  0  0  0  0  0  0  0  0  0  0  0
    7.3100   -0.6150   21.1000 N   0  0  0  0  0  0  0  0  0  0  0  0
    6.5730    0.0210   20.0980 C   0  0  0  0  0  0  0  0  0  0  0  0
    5.4310    0.7680   20.4090 C   0  0  0  0  0  0  0  0  0  0  0  0
    4.7350    1.3960   19.3710 C   0  0  0  0  0  0  0  0  0  0  0  0
    5.1980    1.2620   18.0630 C   0  0  0  0  0  0  0  0  0  0  0  0
    6.2850    0.5470   17.7480 N   0  0  0  0  0  0  0  0  0  0  0  0
    6.9490   -0.0610   18.7700 C   0  0  0  0  0  0  0  0  0  0  0  0
    9.4880   -0.9810   21.9600 N   0  0  0  0  0  0  0  0  0  0  0  0
   10.7980   -0.6110   22.5300 C   0  0  0  0  0  0  0  0  0  0  0  0
   10.9580    0.9080   22.7290 C   0  0  0  0  0  0  0  0  0  0  0  0
    9.8390    1.7050   22.9110 C   0  0  0  0  0  0  0  0  0  0  0  0
    9.9740    3.0840   23.0810 C   0  0  0  0  0  0  0  0  0  0  0  0
   11.2380    3.6640   23.0700 C   0  0  0  0  0  0  0  0  0  0  0  0
   11.3640    4.9900   23.2330 F   0  0  0  0  0  0  0  0  0  0  0  0
   12.3590    2.8760   22.8930 C   0  0  0  0  0  0  0  0  0  0  0  0
   12.2300    1.5060   22.7270 C   0  0  0  0  0  0  0  0  0  0  0  0
   12.0290   -1.1330   22.1260 C   0  0  0  0  0  0  0  0  0  0  0  0
   12.7480   -1.7550   23.0880 C   0  0  0  0  0  0  0  0  0  0  0  0
   12.2130   -1.2890   24.2530 C   0  0  0  0  0  0  0  0  0  0  0  0
   10.8530   -1.0690   23.9630 C   0  0  0  0  0  0  0  0  0  0  0  0
  1  2  2  0
  2  3  1  0
  3  4  1  0
  4  5  2  0
  5  6  1  0
  6  7  2  0
  7  8  1  0
  4  9  1  0
  8  9  2  0
  2 10  1  0
 11 10  1  0
 11 12  1  0
 12 13  2  0
 13 14  1  0
 14 15  2  0
 15 16  1  0
 15 17  1  0
 12 18  1  0
 17 18  2  0
 11 19  1  0
 19 20  1  0
 20 21  1  0
 11 22  1  0
 21 22  1  0
M  END
