pyridine_urea_749
     RDKit          3D

 23 25  0  0  0  0  0  0  0  0999 V2000
   12.5050   -1.3270   25.1260 C   0  0  0  0  0  0  0  0  0  0  0  0
   11.4620   -0.3820   25.2160 N   0  0  0  0  0  0  0  0  0  0  0  0
   10.1420   -0.4360   25.8050 C   0  0  0  0  0  0  0  0  0  0  0  0
    9.1700    0.5510   25.6420 C   0  0  0  0  0  0  0  0  0  0  0  0
    9.2590    1.1670   24.4280 C   0  0  0  0  0  0  0  0  0  0  0  0
   10.1210    0.3870   23.7320 C   0  0  1  0  0  0  0  0  0  0  0  0
   10.1490    0.3900   22.3850 C   0  0  0  0  0  0  0  0  0  0  0  0
    9.1410   -0.3620   21.9200 N   0  0  0  0  0  0  0  0  0  0  0  0
    8.2000    0.2750   21.2350 C   0  0  0  0  0  0  0  0  0  0  0  0
    8.3620    1.4330   20.8550 O   0  0  0  0  0  0  0  0  0  0  0  0
    7.0760   -0.4470   20.9720 N   0  0  0  0  0  0  0  0  0  0  0  0
    6.3730    0.1300   19.9470 C   0  0  0  0  0  0  0  0  0  0  0  0
    5.1760    0.7900   20.1850 C   0  0  0  0  0  0  0  0  0  0  0  0
    4.5490    1.3850   19.1230 C   0  0  0  0  0  0  0  0  0  0  0  0
    5.0780    1.3370   17.8490 C   0  0  0  0  0  0  0  0  0  0  0  0
    6.2210    0.6880   17.6080 N   0  0  0  0  0  0  0  0  0  0  0  0
    6.8380    0.1050   18.6530 C   0  0  0  0  0  0  0  0  0  0  0  0
   11.4150    0.4290   24.1430 C   0  0  2  0  0  0  0  0  0  0  0  0
   12.4020    0.1000   23.2620 C   0  0  0  0  0  0  0  0  0  0  0  0
   13.2110   -0.5220   22.2740 C   0  0  0  0  0  0  0  0  0  0  0  0
   13.1560   -1.6790   21.4370 C   0  0  0  0  0  0  0  0  0  0  0  0
   11.9760   -2.0100   21.9580 C   0  0  0  0  0  0  0  0  0  0  0  0
   11.1990   -1.1550   23.1170 S   0  0  0  0  0  0  0  0  0  0  0  0
  1  2  1  0
  2  3  1  0
  3  4  1  0
  4  5  1  0
  5  6  1  0
  6  7  1  6
  7  8  1  0
  8  9  1  0
  9 10  2  0
  9 11  1  0
 11 12  1  0
 12 13  2  0
 13 14  1  0
 14 15  2  0
 15 16  1  0
 12 17  1  0
 16 17  2  0
  2 18  1  0
  6 18  1  0
 18 19  1  6
 19 20  2  0
 20 21  1  0
 21 22  2  0
 19 23  1  0
 22 23  1  0
M  END
