pyridine_urea_12216
     RDKit          3D

 22 23  0  0  0  0  0  0  0  0999 V2000
    8.0640    1.1590   23.0240 C   0  0  0  0  0  0  0  0  0  0  0  0
    9.5190    0.7180   22.8390 C   0  0  0  0  0  0  0  0  0  0  0  0
   10.4060    1.6940   23.0670 C   0  0  0  0  0  0  0  0  0  0  0  0
   11.6820    1.4050   22.9360 C   0  0  0  0  0  0  0  0  0  0  0  0
   12.8020    2.0640   23.0600 C   0  0  0  0  0  0  0  0  0  0  0  0
   12.5780    3.8510   22.8580 S   0  0  0  0  0  0  0  0  0  0  0  0
   12.2260    4.1190   21.2180 N   0  0  0  0  0  0  0  0  0  0  0  0
   11.3930    4.2130   23.6040 O   0  0  0  0  0  0  0  0  0  0  0  0
   13.8200    4.5570   23.0490 O   0  0  0  0  0  0  0  0  0  0  0  0
   12.3940    0.1240   22.5800 C   0  0  0  0  0  0  0  0  0  0  0  0
   11.5160   -0.9320   22.3170 C   0  0  0  0  0  0  0  0  0  0  0  0
    9.9930   -0.5760   22.4500 C   0  0  0  0  0  0  0  0  0  0  0  0
    8.9700   -1.4060   22.1910 N   0  0  0  0  0  0  0  0  0  0  0  0
    8.0410   -0.7460   21.3480 C   0  0  0  0  0  0  0  0  0  0  0  0
    8.4590    0.5710   20.9460 O   0  0  0  0  0  0  0  0  0  0  0  0
    6.8700   -1.2380   20.9410 N   0  0  0  0  0  0  0  0  0  0  0  0
    6.2790   -0.3950   20.0470 C   0  0  0  0  0  0  0  0  0  0  0  0
    5.1110    0.3650   20.2540 C   0  0  0  0  0  0  0  0  0  0  0  0
    4.6210    1.1990   19.2360 C   0  0  0  0  0  0  0  0  0  0  0  0
    5.2370    1.3250   17.9970 C   0  0  0  0  0  0  0  0  0  0  0  0
    6.3530    0.5770   17.8380 N   0  0  0  0  0  0  0  0  0  0  0  0
    6.8730   -0.2490   18.7940 C   0  0  0  0  0  0  0  0  0  0  0  0
  1  2  1  0
  2  3  2  0
  3  4  1  0
  4  5  1  0
  5  6  1  0
  6  7  1  0
  6  8  2  0
  6  9  2  0
  4 10  2  0
 10 11  1  0
  2 12  1  0
 11 12  2  0
 12 13  1  0
 13 14  1  0
 14 15  2  0
 14 16  1  0
 16 17  1  0
 17 18  2  0
 18 19  1  0
 19 20  2  0
 20 21  1  0
 17 22  1  0
 21 22  2  0
M  END
