pyridine_urea_12883
     RDKit          3D

 19 20  0  0  0  0  0  0  0  0999 V2000
    8.7850    0.1710   25.6330 C   0  0  0  0  0  0  0  0  0  0  0  0
    9.1090    1.2830   24.5990 C   0  0  0  0  0  0  0  0  0  0  0  0
    7.9400    1.4120   23.6060 C   0  0  0  0  0  0  0  0  0  0  0  0
   10.3700    0.9960   23.9220 N   0  0  0  0  0  0  0  0  0  0  0  0
   11.4500    1.8610   23.9870 N   0  0  0  0  0  0  0  0  0  0  0  0
   12.6480    1.4560   23.2930 C   0  0  0  0  0  0  0  0  0  0  0  0
   11.9360    0.3700   22.9480 C   0  0  0  0  0  0  0  0  0  0  0  0
   10.7090   -0.0670   23.1710 C   0  0  0  0  0  0  0  0  0  0  0  0
   10.0050   -1.1930   22.7890 C   0  0  0  0  0  0  0  0  0  0  0  0
    8.6780   -1.0600   22.6030 N   0  0  0  0  0  0  0  0  0  0  0  0
    8.2040   -0.3340   21.5420 C   0  0  0  0  0  0  0  0  0  0  0  0
    8.6970    0.7280   21.1700 O   0  0  0  0  0  0  0  0  0  0  0  0
    7.1500   -0.9450   21.0290 N   0  0  0  0  0  0  0  0  0  0  0  0
    6.4820   -0.1610   20.0920 C   0  0  0  0  0  0  0  0  0  0  0  0
    5.3200    0.5750   20.4100 C   0  0  0  0  0  0  0  0  0  0  0  0
    4.7180    1.3310   19.3900 C   0  0  0  0  0  0  0  0  0  0  0  0
    5.3260    1.3260   18.0350 C   0  0  0  0  0  0  0  0  0  0  0  0
    6.4260    0.6260   17.7470 N   0  0  0  0  0  0  0  0  0  0  0  0
    6.9720   -0.1040   18.7900 C   0  0  0  0  0  0  0  0  0  0  0  0
  1  2  1  0
  2  3  1  0
  2  4  1  0
  4  5  1  0
  5  6  2  0
  6  7  1  0
  4  8  1  0
  7  8  2  0
  8  9  1  0
  9 10  1  0
 10 11  1  0
 11 12  2  0
 11 13  1  0
 13 14  1  0
 14 15  2  0
 15 16  1  0
 16 17  2  0
 17 18  1  0
 14 19  1  0
 18 19  2  0
M  END
