pyridine_urea_12116
     RDKit          3D

 23 24  0  0  0  0  0  0  0  0999 V2000
   11.6390    5.4980   24.1470 C   0  0  0  0  0  0  0  0  0  0  0  0
   12.3520    4.8450   22.9700 C   0  0  0  0  0  0  0  0  0  0  0  0
   13.6980    4.7450   23.0770 C   0  0  0  0  0  0  0  0  0  0  0  0
   12.1460    5.7010   21.7550 C   0  0  0  0  0  0  0  0  0  0  0  0
   11.8050    3.5820   22.5890 O   0  0  0  0  0  0  0  0  0  0  0  0
   11.0870    2.7680   23.3860 C   0  0  0  0  0  0  0  0  0  0  0  0
   10.2430    3.0890   24.1860 O   0  0  0  0  0  0  0  0  0  0  0  0
   11.3980    1.4530   23.0950 C   0  0  0  0  0  0  0  0  0  0  0  0
   12.6650    0.8760   23.0670 C   0  0  0  0  0  0  0  0  0  0  0  0
   12.7900   -0.6030   22.6730 C   0  0  0  0  0  0  0  0  0  0  0  0
   11.6240   -1.3320   22.3460 C   0  0  0  0  0  0  0  0  0  0  0  0
   10.4100   -0.6510   22.4120 C   0  0  0  0  0  0  0  0  0  0  0  0
    9.1640   -1.2630   22.0770 N   0  0  0  0  0  0  0  0  0  0  0  0
    8.2780   -0.4700   21.4140 C   0  0  0  0  0  0  0  0  0  0  0  0
    8.5700    0.8320   21.1520 O   0  0  0  0  0  0  0  0  0  0  0  0
    7.0900   -0.9640   20.9830 N   0  0  0  0  0  0  0  0  0  0  0  0
    6.3760   -0.1990   20.0390 C   0  0  0  0  0  0  0  0  0  0  0  0
    5.1810    0.4930   20.2630 C   0  0  0  0  0  0  0  0  0  0  0  0
    4.5770    1.2420   19.2390 C   0  0  0  0  0  0  0  0  0  0  0  0
    5.1310    1.3370   17.9570 C   0  0  0  0  0  0  0  0  0  0  0  0
    6.3560    0.6060   17.7640 N   0  0  0  0  0  0  0  0  0  0  0  0
    6.9100   -0.1110   18.7790 C   0  0  0  0  0  0  0  0  0  0  0  0
   10.3390    0.6620   22.7770 C   0  0  0  0  0  0  0  0  0  0  0  0
  1  2  1  0
  2  3  1  0
  2  4  1  0
  2  5  1  0
  5  6  1  0
  6  7  2  0
  6  8  1  0
  8  9  2  0
  9 10  1  0
 10 11  2  0
 11 12  1  0
 12 13  1  0
 13 14  1  0
 14 15  2  0
 14 16  1  0
 16 17  1  0
 17 18  2  0
 18 19  1  0
 19 20  2  0
 20 21  1  0
 17 22  1  0
 21 22  2  0
  8 23  1  0
 12 23  2  0
M  END
