pyridine_urea_13470
     RDKit          3D

 19 19  0  0  0  0  0  0  0  0999 V2000
    8.8440    0.0320   26.2940 C   0  0  0  0  0  0  0  0  0  0  0  0
    9.0810   -0.5980   25.0370 O   0  0  0  0  0  0  0  0  0  0  0  0
   10.3820   -0.5440   24.6140 C   0  0  0  0  0  0  0  0  0  0  0  0
   11.3470   -0.6620   25.3640 O   0  0  0  0  0  0  0  0  0  0  0  0
   10.4770   -0.3310   23.1120 C   0  0  1  0  0  0  0  0  0  0  0  0
   10.8950    1.1360   22.9000 C   0  0  0  0  0  0  0  0  0  0  0  0
   11.5240   -1.2830   22.4660 C   0  0  0  0  0  0  0  0  0  0  0  0
   12.7960   -0.7850   22.6580 C   0  0  0  0  0  0  0  0  0  0  0  0
   13.4840   -1.8080   23.2100 F   0  0  0  0  0  0  0  0  0  0  0  0
    9.1290   -0.6090   22.4780 N   0  0  0  0  0  0  0  0  0  0  0  0
    8.5020    0.1670   21.5370 C   0  0  0  0  0  0  0  0  0  0  0  0
    8.9550    1.4090   21.1660 O   0  0  0  0  0  0  0  0  0  0  0  0
    7.3710   -0.4500   21.0510 N   0  0  0  0  0  0  0  0  0  0  0  0
    6.6130    0.1220   20.0260 C   0  0  0  0  0  0  0  0  0  0  0  0
    5.4670    0.8420   20.3450 C   0  0  0  0  0  0  0  0  0  0  0  0
    4.7250    1.4280   19.3380 C   0  0  0  0  0  0  0  0  0  0  0  0
    5.1360    1.2880   18.0180 C   0  0  0  0  0  0  0  0  0  0  0  0
    6.2310    0.5900   17.6890 N   0  0  0  0  0  0  0  0  0  0  0  0
    6.9420    0.0230   18.6930 C   0  0  0  0  0  0  0  0  0  0  0  0
  1  2  1  0
  2  3  1  0
  3  4  2  0
  5  3  1  0
  5  6  1  1
  5  7  1  0
  7  8  1  0
  8  9  1  0
  5 10  1  0
 10 11  1  0
 11 12  2  0
 11 13  1  0
 13 14  1  0
 14 15  2  0
 15 16  1  0
 16 17  2  0
 17 18  1  0
 14 19  1  0
 18 19  2  0
M  END
