pyridine_urea_2131
     RDKit          3D

 26 28  0  0  0  0  0  0  0  0999 V2000
   13.2320   -3.4950   20.5440 C   0  0  0  0  0  0  0  0  0  0  0  0
   13.2610   -2.0740   20.6460 O   0  0  0  0  0  0  0  0  0  0  0  0
   13.4080   -1.8700   21.9370 C   0  0  0  0  0  0  0  0  0  0  0  0
   13.7910   -2.8100   22.5680 O   0  0  0  0  0  0  0  0  0  0  0  0
   12.9830   -0.5110   22.4290 C   0  0  0  0  0  0  0  0  0  0  0  0
   13.7260    0.7890   22.4790 C   0  0  0  0  0  0  0  0  0  0  0  0
   13.1220    2.0740   22.9440 C   0  0  0  0  0  0  0  0  0  0  0  0
   11.9080    2.0850   23.3680 C   0  0  0  0  0  0  0  0  0  0  0  0
   11.3290    0.8940   23.3290 C   0  0  0  0  0  0  0  0  0  0  0  0
   10.2450    0.6270   23.6880 C   0  0  0  0  0  0  0  0  0  0  0  0
    9.7970    1.2740   24.7290 C   0  0  0  0  0  0  0  0  0  0  0  0
    8.6000    0.9790   25.2160 C   0  0  0  0  0  0  0  0  0  0  0  0
    7.8540   -0.0020   24.5670 C   0  0  0  0  0  0  0  0  0  0  0  0
    8.3970   -0.6340   23.4260 C   0  0  0  0  0  0  0  0  0  0  0  0
    7.8460   -1.5510   22.6090 N   0  0  0  0  0  0  0  0  0  0  0  0
    7.7050   -0.9310   21.4250 C   0  0  0  0  0  0  0  0  0  0  0  0
    8.6160    0.0500   20.9720 O   0  0  0  0  0  0  0  0  0  0  0  0
    6.5020   -1.2840   20.7270 N   0  0  0  0  0  0  0  0  0  0  0  0
    6.0780   -0.3730   19.8040 C   0  0  0  0  0  0  0  0  0  0  0  0
    4.9090    0.3440   20.0510 C   0  0  0  0  0  0  0  0  0  0  0  0
    4.4600    1.2760   19.1170 C   0  0  0  0  0  0  0  0  0  0  0  0
    5.2030    1.4530   17.9730 C   0  0  0  0  0  0  0  0  0  0  0  0
    6.3350    0.7810   17.7070 N   0  0  0  0  0  0  0  0  0  0  0  0
    6.7460   -0.1160   18.6300 C   0  0  0  0  0  0  0  0  0  0  0  0
    9.6120   -0.3120   23.0060 C   0  0  0  0  0  0  0  0  0  0  0  0
   11.8040   -0.4270   22.8670 C   0  0  0  0  0  0  0  0  0  0  0  0
  1  2  1  0
  2  3  1  0
  3  4  2  0
  3  5  1  0
  5  6  2  0
  6  7  1  0
  7  8  2  0
  8  9  1  0
  9 10  1  0
 10 11  2  0
 11 12  1  0
 12 13  2  0
 13 14  1  0
 14 15  1  0
 15 16  1  0
 16 17  2  0
 16 18  1  0
 18 19  1  0
 19 20  2  0
 20 21  1  0
 21 22  2  0
 22 23  1  0
 19 24  1  0
 23 24  2  0
 10 25  1  0
 14 25  2  0
  5 26  1  0
  9 26  2  0
M  END
