pyridine_urea_15150
     RDKit          3D

 18 19  0  0  0  0  0  0  0  0999 V2000
   13.5510   -1.7130   21.2160 O   0  0  0  0  0  0  0  0  0  0  0  0
   12.7620   -1.2800   22.0320 C   0  0  0  0  0  0  0  0  0  0  0  0
   11.3630   -1.8860   22.2080 C   0  0  0  0  0  0  0  0  0  0  0  0
   10.3510   -0.7590   22.2730 C   0  0  0  0  0  0  0  0  0  0  0  0
    9.0440   -1.0190   22.3190 N   0  0  0  0  0  0  0  0  0  0  0  0
    8.3520   -0.1460   21.5550 C   0  0  0  0  0  0  0  0  0  0  0  0
    8.8690    1.1420   21.1630 O   0  0  0  0  0  0  0  0  0  0  0  0
    7.0550   -0.6740   21.1890 N   0  0  0  0  0  0  0  0  0  0  0  0
    6.4360   -0.0300   20.1550 C   0  0  0  0  0  0  0  0  0  0  0  0
    5.1310    0.7620   20.3300 C   0  0  0  0  0  0  0  0  0  0  0  0
    4.5240    1.4670   19.1130 C   0  0  0  0  0  0  0  0  0  0  0  0
    5.2040    1.3410   17.9130 C   0  0  0  0  0  0  0  0  0  0  0  0
    6.3310    0.6650   17.6970 N   0  0  0  0  0  0  0  0  0  0  0  0
    6.9170    0.0230   18.7100 C   0  0  0  0  0  0  0  0  0  0  0  0
   10.6100    0.0880   23.4530 C   0  0  0  0  0  0  0  0  0  0  0  0
   11.8700    0.5630   23.0910 C   0  0  0  0  0  0  0  0  0  0  0  0
   11.8230    1.9860   22.9660 O   0  0  0  0  0  0  0  0  0  0  0  0
   12.9180   -0.2290   22.8860 N   0  0  0  0  0  0  0  0  0  0  0  0
  1  2  2  0
  2  3  1  0
  3  4  1  0
  4  5  1  0
  5  6  1  0
  6  7  2  0
  6  8  1  0
  8  9  1  0
  9 10  2  0
 10 11  1  0
 11 12  2  0
 12 13  1  0
  9 14  1  0
 13 14  2  0
  4 15  1  0
 15 16  1  0
 16 17  2  0
  2 18  1  0
 16 18  1  0
M  END
