pyridine_urea_9230
     RDKit          3D

 18 19  0  0  0  0  0  0  0  0999 V2000
    8.9700    0.7610   21.3160 O   0  0  0  0  0  0  0  0  0  0  0  0
    8.4450   -0.3170   21.5310 C   0  0  0  0  0  0  0  0  0  0  0  0
    8.9760   -1.3660   22.2530 N   0  0  0  0  0  0  0  0  0  0  0  0
   10.2600   -1.5140   22.8430 C   0  0  0  0  0  0  0  0  0  0  0  0
   11.4000   -1.5030   22.0180 C   0  0  0  0  0  0  0  0  0  0  0  0
   12.5310   -0.7080   22.3110 C   0  0  0  0  0  0  0  0  0  0  0  0
   12.6900   -0.4070   23.5720 C   0  0  0  0  0  0  0  0  0  0  0  0
   11.6520    0.4230   23.5460 C   0  0  0  0  0  0  0  0  0  0  0  0
   10.7610    0.8440   22.6560 C   0  0  0  0  0  0  0  0  0  0  0  0
   10.7740    1.3560   24.2480 S   0  0  0  0  0  0  0  0  0  0  0  0
   12.2440    0.3000   24.6320 C   0  0  0  0  0  0  0  0  0  0  0  0
    7.1890   -0.6520   21.0720 N   0  0  0  0  0  0  0  0  0  0  0  0
    6.5310   -0.0210   20.0580 C   0  0  0  0  0  0  0  0  0  0  0  0
    5.3610    0.6920   20.3430 C   0  0  0  0  0  0  0  0  0  0  0  0
    4.6910    1.3500   19.3110 C   0  0  0  0  0  0  0  0  0  0  0  0
    5.2050    1.2790   18.0300 C   0  0  0  0  0  0  0  0  0  0  0  0
    6.3210    0.5980   17.7350 N   0  0  0  0  0  0  0  0  0  0  0  0
    6.9510   -0.0330   18.7450 C   0  0  0  0  0  0  0  0  0  0  0  0
  1  2  2  0
  2  3  1  0
  3  4  1  0
  4  5  1  0
  5  6  1  0
  6  7  1  0
  7  8  1  0
  8  9  2  0
  9 10  1  0
  7 11  2  0
 10 11  1  0
  2 12  1  0
 12 13  1  0
 13 14  2  0
 14 15  1  0
 15 16  2  0
 16 17  1  0
 13 18  1  0
 17 18  2  0
M  END
