pyridine_urea_558
     RDKit          3D

 24 26  0  0  0  0  0  0  0  0999 V2000
    8.7510    1.1980   21.0980 O   0  0  0  0  0  0  0  0  0  0  0  0
    8.3900    0.0590   21.4190 C   0  0  0  0  0  0  0  0  0  0  0  0
    7.2100   -0.5240   21.0050 N   0  0  0  0  0  0  0  0  0  0  0  0
    6.4260    0.1070   20.0380 C   0  0  0  0  0  0  0  0  0  0  0  0
    5.2330    0.7840   20.2640 C   0  0  0  0  0  0  0  0  0  0  0  0
    4.5750    1.3890   19.1890 C   0  0  0  0  0  0  0  0  0  0  0  0
    5.1430    1.2880   17.9380 C   0  0  0  0  0  0  0  0  0  0  0  0
    6.2860    0.6310   17.6960 N   0  0  0  0  0  0  0  0  0  0  0  0
    6.8900    0.0610   18.7430 C   0  0  0  0  0  0  0  0  0  0  0  0
    9.1520   -0.7650   22.2200 N   0  0  0  0  0  0  0  0  0  0  0  0
   10.4430   -0.3610   22.5700 C   0  0  2  0  0  0  0  0  0  0  0  0
   11.4310   -1.3240   22.3340 C   0  0  0  0  0  0  0  0  0  0  0  0
   12.7620   -0.9000   22.4550 C   0  0  0  0  0  0  0  0  0  0  0  0
   12.9300    0.2110   23.2720 C   0  0  2  0  0  0  0  0  0  0  0  0
   13.2150   -0.2940   24.3420 O   0  0  0  0  0  0  0  0  0  0  0  0
   12.5370   -1.3910   24.7750 C   0  0  0  0  0  0  0  0  0  0  0  0
   13.3560   -2.5000   25.3290 C   0  0  0  0  0  0  0  0  0  0  0  0
   12.6980   -3.6360   25.7900 C   0  0  0  0  0  0  0  0  0  0  0  0
   11.3010   -3.7180   25.7110 C   0  0  0  0  0  0  0  0  0  0  0  0
   10.7590   -4.8650   26.1780 F   0  0  0  0  0  0  0  0  0  0  0  0
   10.5260   -2.7010   25.1980 C   0  0  0  0  0  0  0  0  0  0  0  0
   11.1380   -1.5490   24.7390 C   0  0  0  0  0  0  0  0  0  0  0  0
   11.8000    0.9840   23.5150 C   0  0  0  0  0  0  0  0  0  0  0  0
   10.6300    0.3070   23.7590 C   0  0  0  0  0  0  0  0  0  0  0  0
  1  2  2  0
  2  3  1  0
  3  4  1  0
  4  5  2  0
  5  6  1  0
  6  7  2  0
  7  8  1  0
  4  9  1  0
  8  9  2  0
  2 10  1  0
 11 10  1  1
 11 12  1  0
 12 13  1  0
 13 14  1  0
 14 15  1  1
 15 16  1  0
 16 17  2  0
 17 18  1  0
 18 19  2  0
 19 20  1  0
 19 21  1  0
 16 22  1  0
 21 22  2  0
 14 23  1  0
 11 24  1  0
 23 24  1  0
M  END
