pyridine_urea_1431
     RDKit          3D

 20 21  0  0  0  0  0  0  0  0999 V2000
    8.4880    0.7030   24.5660 C   0  0  0  0  0  0  0  0  0  0  0  0
    9.0780    1.7170   23.8490 N   0  0  0  0  0  0  0  0  0  0  0  0
    8.2890    2.5770   22.9850 C   0  0  0  0  0  0  0  0  0  0  0  0
   10.4320    1.5630   23.6310 C   0  0  0  0  0  0  0  0  0  0  0  0
   11.0480    0.2730   23.3340 N   0  0  0  0  0  0  0  0  0  0  0  0
   12.2470   -0.2960   23.0590 C   0  0  0  0  0  0  0  0  0  0  0  0
   13.2750    0.3190   22.9930 C   0  0  0  0  0  0  0  0  0  0  0  0
   12.0030    0.8860   23.2850 C   0  0  0  0  0  0  0  0  0  0  0  0
   10.5700    0.3070   23.4110 C   0  0  0  0  0  0  0  0  0  0  0  0
    9.9620   -0.9630   23.3000 C   0  0  0  0  0  0  0  0  0  0  0  0
    9.2470   -1.2340   22.1830 N   0  0  0  0  0  0  0  0  0  0  0  0
    8.5620   -0.2390   21.5640 C   0  0  0  0  0  0  0  0  0  0  0  0
    9.0300    0.8730   21.3820 O   0  0  0  0  0  0  0  0  0  0  0  0
    7.2390   -0.6750   21.1580 N   0  0  0  0  0  0  0  0  0  0  0  0
    6.5540   -0.0240   20.1210 C   0  0  0  0  0  0  0  0  0  0  0  0
    5.3880    0.7010   20.4040 C   0  0  0  0  0  0  0  0  0  0  0  0
    4.7260    1.3760   19.2660 C   0  0  0  0  0  0  0  0  0  0  0  0
    5.1930    1.3230   17.9920 C   0  0  0  0  0  0  0  0  0  0  0  0
    6.3150    0.6130   17.7390 N   0  0  0  0  0  0  0  0  0  0  0  0
    6.9510   -0.0270   18.7790 C   0  0  0  0  0  0  0  0  0  0  0  0
  1  2  1  0
  2  3  1  0
  2  4  1  0
  4  5  2  0
  5  6  1  0
  6  7  2  0
  7  8  1  0
  4  9  1  0
  8  9  2  0
  9 10  1  0
 10 11  1  0
 11 12  1  0
 12 13  2  0
 12 14  1  0
 14 15  1  0
 15 16  2  0
 16 17  1  0
 17 18  2  0
 18 19  1  0
 15 20  1  0
 19 20  2  0
M  END
