pyridine_urea_1193
     RDKit          3D

 21 23  0  0  0  0  0  0  0  0999 V2000
    7.5080    1.3090   21.3820 O   0  0  0  0  0  0  0  0  0  0  0  0
    7.4630    0.1280   21.6800 C   0  0  0  0  0  0  0  0  0  0  0  0
    6.5740   -0.6980   21.1050 N   0  0  0  0  0  0  0  0  0  0  0  0
    6.1870   -0.0540   19.9060 C   0  0  0  0  0  0  0  0  0  0  0  0
    4.9200    0.7910   20.0400 C   0  0  0  0  0  0  0  0  0  0  0  0
    4.4440    1.5020   18.9580 C   0  0  0  0  0  0  0  0  0  0  0  0
    5.1600    1.4140   17.7710 C   0  0  0  0  0  0  0  0  0  0  0  0
    6.2870    0.6370   17.6900 N   0  0  0  0  0  0  0  0  0  0  0  0
    6.8270   -0.1120   18.7360 C   0  0  0  0  0  0  0  0  0  0  0  0
    8.3170   -0.4360   22.5080 N   0  0  0  0  0  0  0  0  0  0  0  0
    9.4320   -0.7710   23.0580 C   0  0  0  0  0  0  0  0  0  0  0  0
   10.3630   -0.6150   22.2330 C   0  0  0  0  0  0  0  0  0  0  0  0
   11.3620   -0.9350   22.8450 N   0  0  0  0  0  0  0  0  0  0  0  0
   11.2340   -1.3610   24.1920 N   0  0  0  0  0  0  0  0  0  0  0  0
   12.2130   -1.2140   23.3550 C   0  0  0  0  0  0  0  0  0  0  0  0
   12.1430   -2.2580   22.4870 N   0  0  0  0  0  0  0  0  0  0  0  0
   12.8990   -2.2010   21.4370 C   0  0  0  0  0  0  0  0  0  0  0  0
   13.6880   -1.1330   21.2800 C   0  0  0  0  0  0  0  0  0  0  0  0
   13.6880   -0.0690   22.3610 C   0  0  0  0  0  0  0  0  0  0  0  0
   12.9390   -0.1390   23.4000 N   0  0  0  0  0  0  0  0  0  0  0  0
    9.8300   -1.2240   24.2740 C   0  0  0  0  0  0  0  0  0  0  0  0
  1  2  2  0
  2  3  1  0
  3  4  1  0
  4  5  2  0
  5  6  1  0
  6  7  2  0
  7  8  1  0
  4  9  1  0
  8  9  2  0
  2 10  1  0
 10 11  1  0
 11 12  1  0
 12 13  2  0
 13 14  1  0
 14 15  1  0
 15 16  2  0
 16 17  1  0
 17 18  2  0
 18 19  1  0
 15 20  1  0
 19 20  2  0
 11 21  2  0
 14 21  1  0
M  END
