pyridine_urea_14066
     RDKit          3D

 23 24  0  0  0  0  0  0  0  0999 V2000
    8.7390    1.1300   21.0800 O   0  0  0  0  0  0  0  0  0  0  0  0
    8.3960    0.0160   21.5020 C   0  0  0  0  0  0  0  0  0  0  0  0
    7.2320   -0.6160   21.1140 N   0  0  0  0  0  0  0  0  0  0  0  0
    6.5340    0.0130   20.0200 C   0  0  0  0  0  0  0  0  0  0  0  0
    5.2660    0.7730   20.3840 C   0  0  0  0  0  0  0  0  0  0  0  0
    4.5870    1.4250   19.2350 C   0  0  0  0  0  0  0  0  0  0  0  0
    5.1440    1.2900   17.9770 C   0  0  0  0  0  0  0  0  0  0  0  0
    6.2640    0.5990   17.7090 N   0  0  0  0  0  0  0  0  0  0  0  0
    6.9250   -0.0140   18.7080 C   0  0  0  0  0  0  0  0  0  0  0  0
    9.1530   -0.7050   22.3980 N   0  0  0  0  0  0  0  0  0  0  0  0
   10.4870   -0.1320   22.6640 C   0  0  2  0  0  0  0  0  0  0  0  0
   11.4870   -1.0010   22.9090 C   0  0  0  0  0  0  0  0  0  0  0  0
   12.3430   -0.4590   23.5960 O   0  0  0  0  0  0  0  0  0  0  0  0
   11.0690    0.0970   24.0480 C   0  0  0  0  0  0  0  0  0  0  0  0
   11.0710   -0.7290   24.9540 O   0  0  0  0  0  0  0  0  0  0  0  0
   11.5290    1.2390   24.1140 O   0  0  0  0  0  0  0  0  0  0  0  0
   10.5960    2.2920   23.7780 C   0  0  0  0  0  0  0  0  0  0  0  0
   11.2430    3.4620   23.3470 C   0  0  0  0  0  0  0  0  0  0  0  0
   10.6610    4.7140   23.6020 C   0  0  0  0  0  0  0  0  0  0  0  0
   11.0730    6.1860   23.2880 C   0  0  0  0  0  0  0  0  0  0  0  0
   12.3910    5.9000   22.5630 C   0  0  0  0  0  0  0  0  0  0  0  0
   13.0250    4.5830   22.2790 C   0  0  0  0  0  0  0  0  0  0  0  0
   12.4370    3.4330   22.6770 C   0  0  0  0  0  0  0  0  0  0  0  0
  1  2  2  0
  2  3  1  0
  3  4  1  0
  4  5  2  0
  5  6  1  0
  6  7  2  0
  7  8  1  0
  4  9  1  0
  8  9  2  0
  2 10  1  0
 10 11  1  0
 11 12  1  6
 12 13  1  0
 11 14  1  0
 14 15  2  0
 14 16  1  0
 16 17  1  0
 17 18  1  0
 18 19  2  0
 19 20  1  0
 20 21  2  0
 21 22  1  0
 18 23  1  0
 22 23  2  0
M  END
