pyridine_urea_14339
     RDKit          3D

 24 25  0  0  0  0  0  0  0  0999 V2000
    8.5040    0.4470   21.0850 O   0  0  0  0  0  0  0  0  0  0  0  0
    8.0290   -0.6670   20.8690 C   0  0  0  0  0  0  0  0  0  0  0  0
    6.6180   -0.8790   20.8170 N   0  0  0  0  0  0  0  0  0  0  0  0
    6.0760   -0.0780   19.8610 C   0  0  0  0  0  0  0  0  0  0  0  0
    4.8980    0.6170   20.0760 C   0  0  0  0  0  0  0  0  0  0  0  0
    4.4240    1.4190   19.0470 C   0  0  0  0  0  0  0  0  0  0  0  0
    5.1460    1.4890   17.8520 C   0  0  0  0  0  0  0  0  0  0  0  0
    6.2880    0.8110   17.6420 N   0  0  0  0  0  0  0  0  0  0  0  0
    6.7260    0.0430   18.6570 C   0  0  0  0  0  0  0  0  0  0  0  0
    8.7260   -1.8200   20.6560 N   0  0  0  0  0  0  0  0  0  0  0  0
    9.8380   -1.7090   21.4500 C   0  0  0  0  0  0  0  0  0  0  0  0
   11.3570   -1.7640   21.1820 C   0  0  0  0  0  0  0  0  0  0  0  0
   12.0860   -1.5190   22.1070 C   0  0  0  0  0  0  0  0  0  0  0  0
   11.4390   -1.3040   23.1790 C   0  0  0  0  0  0  0  0  0  0  0  0
   10.0020   -1.3090   23.6070 C   0  0  0  0  0  0  0  0  0  0  0  0
    9.2060   -1.1600   24.7850 C   0  0  0  0  0  0  0  0  0  0  0  0
    8.4460   -0.0610   24.8280 F   0  0  0  0  0  0  0  0  0  0  0  0
    9.9260   -1.0890   25.8930 F   0  0  0  0  0  0  0  0  0  0  0  0
    8.3980   -2.2870   24.8880 C   0  0  0  0  0  0  0  0  0  0  0  0
    7.6320   -2.2630   26.0590 C   0  0  0  0  0  0  0  0  0  0  0  0
    6.3880   -1.7720   25.8620 F   0  0  0  0  0  0  0  0  0  0  0  0
    8.1970   -1.5770   27.0690 F   0  0  0  0  0  0  0  0  0  0  0  0
    7.4720   -3.5340   26.5020 F   0  0  0  0  0  0  0  0  0  0  0  0
    9.2670   -1.4940   22.6730 C   0  0  0  0  0  0  0  0  0  0  0  0
  1  2  2  0
  2  3  1  0
  3  4  1  0
  4  5  2  0
  5  6  1  0
  6  7  2  0
  7  8  1  0
  4  9  1  0
  8  9  2  0
  2 10  1  0
 10 11  1  0
 11 12  2  0
 12 13  1  0
 13 14  2  0
 14 15  1  0
 15 16  1  0
 16 17  1  0
 16 18  1  0
 16 19  1  0
 19 20  1  0
 20 21  1  0
 20 22  1  0
 20 23  1  0
 11 24  1  0
 15 24  2  0
M  END
