pyridine_urea_13072
     RDKit          3D

 18 20  0  0  0  0  0  0  0  0999 V2000
    8.9230    1.1570   21.2190 O   0  0  0  0  0  0  0  0  0  0  0  0
    8.3750    0.1070   21.5860 C   0  0  0  0  0  0  0  0  0  0  0  0
    8.7870   -0.6930   22.6190 N   0  0  0  0  0  0  0  0  0  0  0  0
    9.3680   -0.2370   23.8090 C   0  0  0  0  0  0  0  0  0  0  0  0
   10.5680    0.2580   24.2890 C   0  0  0  0  0  0  0  0  0  0  0  0
   11.4600   -0.7460   24.5510 C   0  0  0  0  0  0  0  0  0  0  0  0
   11.9530   -0.4230   23.3450 C   0  0  0  0  0  0  0  0  0  0  0  0
   11.5650   -1.3840   22.2590 C   0  0  0  0  0  0  0  0  0  0  0  0
   12.8680   -1.5530   21.9980 C   0  0  0  0  0  0  0  0  0  0  0  0
   13.3330   -0.5330   23.0910 C   0  0  0  0  0  0  0  0  0  0  0  0
   11.3630    0.8540   23.2720 C   0  0  0  0  0  0  0  0  0  0  0  0
    7.2380   -0.4250   21.0400 N   0  0  0  0  0  0  0  0  0  0  0  0
    6.5190    0.1600   20.0100 C   0  0  0  0  0  0  0  0  0  0  0  0
    5.3610    0.8850   20.3120 C   0  0  0  0  0  0  0  0  0  0  0  0
    4.6990    1.4670   19.2420 C   0  0  0  0  0  0  0  0  0  0  0  0
    5.1580    1.3370   17.9540 C   0  0  0  0  0  0  0  0  0  0  0  0
    6.2500    0.6430   17.6410 N   0  0  0  0  0  0  0  0  0  0  0  0
    6.9040    0.0710   18.6790 C   0  0  0  0  0  0  0  0  0  0  0  0
  1  2  2  0
  2  3  1  0
  3  4  1  0
  4  5  1  0
  5  6  1  0
  7  6  1  0
  7  8  1  0
  8  9  1  0
  7 10  1  0
  9 10  1  0
  5 11  1  0
  7 11  1  0
  2 12  1  0
 12 13  1  0
 13 14  2  0
 14 15  1  0
 15 16  2  0
 16 17  1  0
 13 18  1  0
 17 18  2  0
M  END
