pyridine_urea_2994
     RDKit          3D

 21 22  0  0  0  0  0  0  0  0999 V2000
    8.7200    1.1960   21.0870 O   0  0  0  0  0  0  0  0  0  0  0  0
    8.3640    0.0850   21.5130 C   0  0  0  0  0  0  0  0  0  0  0  0
    7.2540   -0.5920   21.0430 N   0  0  0  0  0  0  0  0  0  0  0  0
    6.5090    0.0710   20.0040 C   0  0  0  0  0  0  0  0  0  0  0  0
    5.1950    0.8380   20.3590 C   0  0  0  0  0  0  0  0  0  0  0  0
    4.5370    1.4690   19.3130 C   0  0  0  0  0  0  0  0  0  0  0  0
    5.1690    1.3470   17.9240 C   0  0  0  0  0  0  0  0  0  0  0  0
    6.3080    0.6610   17.6780 N   0  0  0  0  0  0  0  0  0  0  0  0
    6.9340    0.0520   18.7000 C   0  0  0  0  0  0  0  0  0  0  0  0
    8.9910   -0.6360   22.4930 N   0  0  0  0  0  0  0  0  0  0  0  0
   10.1240    0.0150   23.1540 C   0  0  1  0  0  0  0  0  0  0  0  0
    9.8070    0.2080   24.6250 C   0  0  0  0  0  0  0  0  0  0  0  0
    8.5740    0.7580   24.8370 F   0  0  0  0  0  0  0  0  0  0  0  0
   11.3430   -0.7240   22.6790 C   0  0  0  0  0  0  0  0  0  0  0  0
   11.1910   -1.9100   22.0240 C   0  0  0  0  0  0  0  0  0  0  0  0
   12.6200   -1.8250   21.9900 C   0  0  0  0  0  0  0  0  0  0  0  0
   11.9720   -0.4420   22.8180 C   0  0  0  0  0  0  0  0  0  0  0  0
   10.6400   -0.3920   22.9390 F   0  0  0  0  0  0  0  0  0  0  0  0
   12.8700    0.5710   23.3300 C   0  0  0  0  0  0  0  0  0  0  0  0
   12.7950   -0.5040   22.7250 C   0  0  0  0  0  0  0  0  0  0  0  0
   13.7870   -1.2590   22.2390 F   0  0  0  0  0  0  0  0  0  0  0  0
  1  2  2  0
  2  3  1  0
  3  4  1  0
  4  5  2  0
  5  6  1  0
  6  7  2  0
  7  8  1  0
  4  9  1  0
  8  9  2  0
  2 10  1  0
 10 11  1  0
 11 12  1  1
 12 13  1  0
 11 14  1  0
 14 15  2  0
 15 16  1  0
 16 17  2  0
 17 18  1  0
 17 19  1  0
 14 20  1  0
 19 20  2  0
 20 21  1  0
M  END
