pyridine_urea_4005
     RDKit          3D

 26 28  0  0  0  0  0  0  0  0999 V2000
    8.4030    0.2770   21.1560 O   0  0  0  0  0  0  0  0  0  0  0  0
    7.7120   -0.6950   21.4620 C   0  0  0  0  0  0  0  0  0  0  0  0
    6.4910   -0.9270   20.9610 N   0  0  0  0  0  0  0  0  0  0  0  0
    6.0550   -0.1450   19.9070 C   0  0  0  0  0  0  0  0  0  0  0  0
    4.8900    0.5950   20.0610 C   0  0  0  0  0  0  0  0  0  0  0  0
    4.4470    1.3970   19.0180 C   0  0  0  0  0  0  0  0  0  0  0  0
    5.1900    1.4270   17.8550 C   0  0  0  0  0  0  0  0  0  0  0  0
    6.3180    0.7160   17.6840 N   0  0  0  0  0  0  0  0  0  0  0  0
    6.7280   -0.0530   18.7100 C   0  0  0  0  0  0  0  0  0  0  0  0
    8.1900   -1.6070   22.3480 N   0  0  0  0  0  0  0  0  0  0  0  0
    9.4790   -1.1020   22.5470 C   0  0  0  0  0  0  0  0  0  0  0  0
   10.7440   -1.7960   22.0780 C   0  0  0  0  0  0  0  0  0  0  0  0
   11.9030   -1.1620   22.2810 C   0  0  0  0  0  0  0  0  0  0  0  0
   11.8990    0.0640   22.8870 C   0  0  0  0  0  0  0  0  0  0  0  0
   13.5460    0.6830   22.9580 Br  0  0  0  0  0  0  0  0  0  0  0  0
   10.8250    0.7780   23.3720 C   0  0  0  0  0  0  0  0  0  0  0  0
   10.9290    1.9940   23.9640 O   0  0  0  0  0  0  0  0  0  0  0  0
    9.6240    2.4040   24.1560 C   0  0  0  0  0  0  0  0  0  0  0  0
    9.5410    3.7190   24.6030 C   0  0  0  0  0  0  0  0  0  0  0  0
   10.8890    4.3130   24.3660 C   0  0  0  0  0  0  0  0  0  0  0  0
   11.1740    4.6530   22.9300 C   0  0  0  0  0  0  0  0  0  0  0  0
   12.0740    5.6950   22.8570 C   0  0  0  0  0  0  0  0  0  0  0  0
   11.6120    6.8680   23.4400 C   0  0  0  0  0  0  0  0  0  0  0  0
   11.0340    6.6570   24.7060 C   0  0  0  0  0  0  0  0  0  0  0  0
   11.2620    5.3740   25.2060 C   0  0  0  0  0  0  0  0  0  0  0  0
    9.6170    0.2090   23.2140 C   0  0  0  0  0  0  0  0  0  0  0  0
  1  2  2  0
  2  3  1  0
  3  4  1  0
  4  5  2  0
  5  6  1  0
  6  7  2  0
  7  8  1  0
  4  9  1  0
  8  9  2  0
  2 10  1  0
 10 11  1  0
 11 12  2  0
 12 13  1  0
 13 14  2  0
 14 15  1  0
 14 16  1  0
 16 17  1  0
 17 18  1  0
 18 19  1  0
 19 20  1  0
 20 21  1  0
 21 22  1  0
 22 23  1  0
 23 24  1  0
 20 25  1  0
 24 25  1  0
 11 26  1  0
 16 26  2  0
M  END
