pyridine_urea_11282
     RDKit          3D

 16 16  0  0  0  0  0  0  0  0999 V2000
   13.2280   -2.0730   21.3320 C   0  0  0  0  0  0  0  0  0  0  0  0
   11.4910   -1.9360   21.7230 S   0  0  0  0  0  0  0  0  0  0  0  0
   11.7070   -0.6810   23.0110 C   0  0  0  0  0  0  0  0  0  0  0  0
   12.1850   -1.2870   24.3140 C   0  0  0  0  0  0  0  0  0  0  0  0
   12.7210    0.4020   22.6460 C   0  0  0  0  0  0  0  0  0  0  0  0
   10.3100   -0.1180   23.3220 C   0  0  0  0  0  0  0  0  0  0  0  0
    9.2900   -0.6780   22.4300 N   0  0  0  0  0  0  0  0  0  0  0  0
    8.6160    0.1240   21.5150 C   0  0  0  0  0  0  0  0  0  0  0  0
    9.0100    1.2620   21.2290 O   0  0  0  0  0  0  0  0  0  0  0  0
    7.4780   -0.4840   21.0040 N   0  0  0  0  0  0  0  0  0  0  0  0
    6.5680    0.1490   20.1290 C   0  0  0  0  0  0  0  0  0  0  0  0
    5.4370    0.7940   20.5560 C   0  0  0  0  0  0  0  0  0  0  0  0
    4.7480    1.3550   19.3290 C   0  0  0  0  0  0  0  0  0  0  0  0
    5.1940    1.2220   18.0440 C   0  0  0  0  0  0  0  0  0  0  0  0
    6.2840    0.5810   17.6940 N   0  0  0  0  0  0  0  0  0  0  0  0
    6.8920    0.0900   18.7760 C   0  0  0  0  0  0  0  0  0  0  0  0
  1  2  1  0
  3  2  1  0
  3  4  1  0
  3  5  1  0
  3  6  1  0
  6  7  1  0
  7  8  1  0
  8  9  2  0
  8 10  1  0
 10 11  1  0
 11 12  2  0
 12 13  1  0
 13 14  2  0
 14 15  1  0
 11 16  1  0
 15 16  2  0
M  END
