pyridine_urea_10874
     RDKit          3D

 20 20  0  0  0  0  0  0  0  0999 V2000
   13.3130   -3.0920   25.2890 C   0  0  0  0  0  0  0  0  0  0  0  0
   13.5880   -2.5320   23.9640 C   0  0  0  0  0  0  0  0  0  0  0  0
   12.5890   -2.0020   23.5670 O   0  0  0  0  0  0  0  0  0  0  0  0
   12.3910   -0.7920   24.1340 C   0  0  0  0  0  0  0  0  0  0  0  0
   13.4230   -0.3940   23.6270 O   0  0  0  0  0  0  0  0  0  0  0  0
   11.3160   -1.6150   24.5150 C   0  0  0  0  0  0  0  0  0  0  0  0
   10.1500   -1.4120   23.8020 C   0  0  0  0  0  0  0  0  0  0  0  0
   10.4360   -0.8970   22.4790 C   0  0  0  0  0  0  0  0  0  0  0  0
   11.5500    0.1410   22.5670 C   0  0  0  0  0  0  0  0  0  0  0  0
   11.7390   -1.4010   21.9030 C   0  0  0  0  0  0  0  0  0  0  0  0
    9.3760   -0.9690   21.5020 N   0  0  0  0  0  0  0  0  0  0  0  0
    8.5300    0.0900   21.3030 C   0  0  0  0  0  0  0  0  0  0  0  0
    8.8750    1.2790   21.2620 O   0  0  0  0  0  0  0  0  0  0  0  0
    7.2490   -0.3390   21.0940 N   0  0  0  0  0  0  0  0  0  0  0  0
    6.5190    0.1920   20.0360 C   0  0  0  0  0  0  0  0  0  0  0  0
    5.3530    0.9000   20.2930 C   0  0  0  0  0  0  0  0  0  0  0  0
    4.6330    1.4590   19.2530 C   0  0  0  0  0  0  0  0  0  0  0  0
    5.1200    1.2810   17.9750 C   0  0  0  0  0  0  0  0  0  0  0  0
    6.2300    0.5950   17.6930 N   0  0  0  0  0  0  0  0  0  0  0  0
    6.9060    0.0640   18.7240 C   0  0  0  0  0  0  0  0  0  0  0  0
  1  2  1  0
  2  3  1  0
  3  4  1  0
  4  5  2  0
  4  6  1  0
  6  7  1  0
  7  8  1  0
  8  9  1  0
  8 10  1  0
  8 11  1  0
 11 12  1  0
 12 13  2  0
 12 14  1  0
 14 15  1  0
 15 16  2  0
 16 17  1  0
 17 18  2  0
 18 19  1  0
 15 20  1  0
 19 20  2  0
M  END
