pyridine_urea_5481
     RDKit          3D

 18 19  0  0  0  0  0  0  0  0999 V2000
   11.0240    2.0830   23.7060 C   0  0  0  0  0  0  0  0  0  0  0  0
   12.4050    1.8160   23.1150 C   0  0  0  0  0  0  0  0  0  0  0  0
   12.4650    0.2910   22.9940 C   0  0  0  0  0  0  0  0  0  0  0  0
   13.2700   -0.5690   22.1630 N   0  0  0  0  0  0  0  0  0  0  0  0
   12.6020   -1.7540   22.5260 O   0  0  0  0  0  0  0  0  0  0  0  0
   11.3140   -1.2160   22.6670 C   0  0  1  0  0  0  0  0  0  0  0  0
   10.0210   -1.9960   22.5940 C   0  0  0  0  0  0  0  0  0  0  0  0
    9.1730   -1.7480   21.5660 N   0  0  0  0  0  0  0  0  0  0  0  0
    8.5120   -0.5610   21.4930 C   0  0  0  0  0  0  0  0  0  0  0  0
    9.0790    0.5070   21.6760 O   0  0  0  0  0  0  0  0  0  0  0  0
    7.1840   -0.7470   21.1610 N   0  0  0  0  0  0  0  0  0  0  0  0
    6.4920   -0.0350   20.0870 C   0  0  0  0  0  0  0  0  0  0  0  0
    5.2090    0.7410   20.4850 C   0  0  0  0  0  0  0  0  0  0  0  0
    4.5730    1.4650   19.2840 C   0  0  0  0  0  0  0  0  0  0  0  0
    5.2200    1.3580   17.9230 C   0  0  0  0  0  0  0  0  0  0  0  0
    6.3550    0.6230   17.7490 N   0  0  0  0  0  0  0  0  0  0  0  0
    6.9770   -0.0580   18.7840 C   0  0  0  0  0  0  0  0  0  0  0  0
   11.4810   -0.5140   23.8180 C   0  0  0  0  0  0  0  0  0  0  0  0
  1  2  1  0
  2  3  1  0
  3  4  2  0
  4  5  1  0
  5  6  1  0
  6  7  1  1
  7  8  1  0
  8  9  1  0
  9 10  2  0
  9 11  1  0
 11 12  1  0
 12 13  2  0
 13 14  1  0
 14 15  2  0
 15 16  1  0
 12 17  1  0
 16 17  2  0
  3 18  1  0
  6 18  1  0
M  END
