pyridine_urea_11494
     RDKit          3D

 15 15  0  0  0  0  0  0  0  0999 V2000
    8.6510    1.3940   20.9700 O   0  0  0  0  0  0  0  0  0  0  0  0
    8.3420    0.2870   21.4210 C   0  0  0  0  0  0  0  0  0  0  0  0
    9.0370   -0.2850   22.4170 N   0  0  0  0  0  0  0  0  0  0  0  0
   10.0050    0.4980   23.0460 C   0  0  0  0  0  0  0  0  0  0  0  0
   11.1710   -0.0930   23.4460 C   0  0  0  0  0  0  0  0  0  0  0  0
   11.7050   -0.9560   22.6360 C   0  0  0  0  0  0  0  0  0  0  0  0
   11.6560   -2.0590   21.9430 C   0  0  0  0  0  0  0  0  0  0  0  0
   13.1760   -2.3470   21.0250 Br  0  0  0  0  0  0  0  0  0  0  0  0
    7.2730   -0.4450   20.9940 N   0  0  0  0  0  0  0  0  0  0  0  0
    6.5410    0.0990   20.0150 C   0  0  0  0  0  0  0  0  0  0  0  0
    5.3650    0.7610   20.3420 C   0  0  0  0  0  0  0  0  0  0  0  0
    4.5770    1.4020   19.1950 C   0  0  0  0  0  0  0  0  0  0  0  0
    5.1090    1.2630   17.9410 C   0  0  0  0  0  0  0  0  0  0  0  0
    6.2390    0.6040   17.6740 N   0  0  0  0  0  0  0  0  0  0  0  0
    6.9220    0.0440   18.6910 C   0  0  0  0  0  0  0  0  0  0  0  0
  1  2  2  0
  2  3  1  0
  3  4  1  0
  4  5  1  0
  5  6  1  0
  6  7  2  3
  7  8  1  0
  2  9  1  0
  9 10  1  0
 10 11  2  0
 11 12  1  0
 12 13  2  0
 13 14  1  0
 10 15  1  0
 14 15  2  0
M  END
