pyridine_urea_14612
     RDKit          3D

 21 22  0  0  0  0  0  0  0  0999 V2000
    8.5890    0.9200   24.0580 C   0  0  0  0  0  0  0  0  0  0  0  0
    9.9570    0.5630   23.5040 C   0  0  0  0  0  0  0  0  0  0  0  0
   10.9910    1.4260   23.7070 C   0  0  0  0  0  0  0  0  0  0  0  0
   12.2490    1.1780   23.2170 C   0  0  0  0  0  0  0  0  0  0  0  0
   13.0340    2.0720   23.4120 O   0  0  0  0  0  0  0  0  0  0  0  0
   12.6470    3.2920   22.8380 C   0  0  0  0  0  0  0  0  0  0  0  0
   11.5280    3.7380   23.4300 F   0  0  0  0  0  0  0  0  0  0  0  0
   13.5560    4.2620   22.9810 F   0  0  0  0  0  0  0  0  0  0  0  0
   12.6350    0.0320   22.5230 C   0  0  0  0  0  0  0  0  0  0  0  0
   11.4650   -0.9300   22.2910 C   0  0  0  0  0  0  0  0  0  0  0  0
   10.1990   -0.6070   22.7650 C   0  0  0  0  0  0  0  0  0  0  0  0
    9.0720   -1.4840   22.4480 N   0  0  0  0  0  0  0  0  0  0  0  0
    8.2410   -0.6100   21.5400 C   0  0  0  0  0  0  0  0  0  0  0  0
    8.6930    0.7230   21.2410 O   0  0  0  0  0  0  0  0  0  0  0  0
    7.0100   -1.1500   21.0190 N   0  0  0  0  0  0  0  0  0  0  0  0
    6.3890   -0.3350   20.0450 C   0  0  0  0  0  0  0  0  0  0  0  0
    5.2090    0.3880   20.2950 C   0  0  0  0  0  0  0  0  0  0  0  0
    4.5820    1.2520   19.2420 C   0  0  0  0  0  0  0  0  0  0  0  0
    5.1900    1.3350   17.9910 C   0  0  0  0  0  0  0  0  0  0  0  0
    6.3600    0.5870   17.8080 N   0  0  0  0  0  0  0  0  0  0  0  0
    6.9200   -0.1950   18.7710 C   0  0  0  0  0  0  0  0  0  0  0  0
  1  2  1  0
  2  3  2  0
  3  4  1  0
  4  5  1  0
  5  6  1  0
  6  7  1  0
  6  8  1  0
  4  9  2  0
  9 10  1  0
  2 11  1  0
 10 11  2  0
 11 12  1  0
 12 13  1  0
 13 14  2  0
 13 15  1  0
 15 16  1  0
 16 17  2  0
 17 18  1  0
 18 19  2  0
 19 20  1  0
 16 21  1  0
 20 21  2  0
M  END
