pyridine_urea_15191
     RDKit          3D

 16 16  0  0  0  0  0  0  0  0999 V2000
   10.8190   -0.2460   24.4660 C   0  0  0  0  0  0  0  0  0  0  0  0
   12.1620    0.4620   24.2770 C   0  0  0  0  0  0  0  0  0  0  0  0
   12.7340    0.3400   22.8920 C   0  0  0  0  0  0  0  0  0  0  0  0
   12.9530   -1.0720   22.4260 C   0  0  0  0  0  0  0  0  0  0  0  0
   11.6240   -1.7700   22.1570 C   0  0  0  0  0  0  0  0  0  0  0  0
   10.3350   -1.0590   22.5620 C   0  0  0  0  0  0  0  0  0  0  0  0
    9.3260   -1.1920   21.5170 N   0  0  0  0  0  0  0  0  0  0  0  0
    8.4320   -0.1660   21.3380 C   0  0  0  0  0  0  0  0  0  0  0  0
    8.7620    1.0100   21.3890 O   0  0  0  0  0  0  0  0  0  0  0  0
    7.0930   -0.6620   21.0570 N   0  0  0  0  0  0  0  0  0  0  0  0
    6.3720    0.0260   20.0650 C   0  0  0  0  0  0  0  0  0  0  0  0
    5.1840    0.7270   20.2690 C   0  0  0  0  0  0  0  0  0  0  0  0
    4.5970    1.3720   19.1950 C   0  0  0  0  0  0  0  0  0  0  0  0
    5.1960    1.3100   17.9470 C   0  0  0  0  0  0  0  0  0  0  0  0
    6.3350    0.6360   17.7310 N   0  0  0  0  0  0  0  0  0  0  0  0
    6.8880    0.0130   18.7840 C   0  0  0  0  0  0  0  0  0  0  0  0
  1  2  1  0
  2  3  1  0
  3  4  1  0
  4  5  1  0
  5  6  1  0
  6  7  1  0
  7  8  1  0
  8  9  2  0
  8 10  1  0
 10 11  1  0
 11 12  2  0
 12 13  1  0
 13 14  2  0
 14 15  1  0
 11 16  1  0
 15 16  2  0
M  END
