pyridine_urea_9025
     RDKit          3D

 19 20  0  0  0  0  0  0  0  0999 V2000
   13.2260   -1.8640   25.0990 C   0  0  0  0  0  0  0  0  0  0  0  0
   13.0030   -1.6120   23.7790 N   0  0  0  0  0  0  0  0  0  0  0  0
   13.2460   -2.7160   22.7420 N   0  0  0  0  0  0  0  0  0  0  0  0
   12.9390   -2.2740   21.3880 C   0  0  0  0  0  0  0  0  0  0  0  0
   12.8120   -1.4950   22.4460 C   0  0  0  0  0  0  0  0  0  0  0  0
   12.5640   -0.5160   23.0610 C   0  0  0  0  0  0  0  0  0  0  0  0
   12.1360    0.7850   23.0820 C   0  0  0  0  0  0  0  0  0  0  0  0
   10.7280    0.7710   22.9200 C   0  0  0  0  0  0  0  0  0  0  0  0
   10.2590   -0.5120   22.6580 C   0  0  0  0  0  0  0  0  0  0  0  0
    8.9220   -0.6250   22.5110 N   0  0  0  0  0  0  0  0  0  0  0  0
    8.3390    0.0520   21.4800 C   0  0  0  0  0  0  0  0  0  0  0  0
    8.7260    1.1780   21.1070 O   0  0  0  0  0  0  0  0  0  0  0  0
    7.3420   -0.6770   21.0050 N   0  0  0  0  0  0  0  0  0  0  0  0
    6.5830    0.0240   20.0820 C   0  0  0  0  0  0  0  0  0  0  0  0
    5.4550    0.7760   20.4520 C   0  0  0  0  0  0  0  0  0  0  0  0
    4.7560    1.4510   19.4400 C   0  0  0  0  0  0  0  0  0  0  0  0
    5.2380    1.3390   18.0410 C   0  0  0  0  0  0  0  0  0  0  0  0
    6.3070    0.6170   17.6980 N   0  0  0  0  0  0  0  0  0  0  0  0
    6.9520   -0.0260   18.7410 C   0  0  0  0  0  0  0  0  0  0  0  0
  1  2  1  0
  2  3  1  0
  3  4  2  0
  4  5  1  0
  2  6  1  0
  5  6  2  0
  6  7  1  0
  7  8  1  0
  8  9  1  0
  9 10  1  0
 10 11  1  0
 11 12  2  0
 11 13  1  0
 13 14  1  0
 14 15  2  0
 15 16  1  0
 16 17  2  0
 17 18  1  0
 14 19  1  0
 18 19  2  0
M  END
