pyridine_urea_14512
     RDKit          3D

 21 23  0  0  0  0  0  0  0  0999 V2000
    8.2390    0.9780   21.1110 O   0  0  0  0  0  0  0  0  0  0  0  0
    7.7350   -0.0320   21.5910 C   0  0  0  0  0  0  0  0  0  0  0  0
    6.6350   -0.7120   20.9790 N   0  0  0  0  0  0  0  0  0  0  0  0
    6.1260   -0.0010   19.9340 C   0  0  0  0  0  0  0  0  0  0  0  0
    4.9450    0.7090   20.0890 C   0  0  0  0  0  0  0  0  0  0  0  0
    4.4680    1.4340   19.0050 C   0  0  0  0  0  0  0  0  0  0  0  0
    5.1910    1.4170   17.8110 C   0  0  0  0  0  0  0  0  0  0  0  0
    6.3320    0.7260   17.6570 N   0  0  0  0  0  0  0  0  0  0  0  0
    6.7790    0.0280   18.7220 C   0  0  0  0  0  0  0  0  0  0  0  0
    8.1280   -0.6530   22.7160 N   0  0  0  0  0  0  0  0  0  0  0  0
    9.5170   -0.7780   22.6430 C   0  0  0  0  0  0  0  0  0  0  0  0
   10.0210   -1.9910   21.8970 C   0  0  0  0  0  0  0  0  0  0  0  0
   11.3530   -2.1390   21.7790 C   0  0  0  0  0  0  0  0  0  0  0  0
   12.1100   -1.2130   22.3270 C   0  0  0  0  0  0  0  0  0  0  0  0
   11.6190   -0.1590   22.9800 C   0  0  0  0  0  0  0  0  0  0  0  0
   10.3420    0.1480   23.1920 C   0  0  0  0  0  0  0  0  0  0  0  0
   12.8950    0.6610   23.4550 S   0  0  0  0  0  0  0  0  0  0  0  0
   13.2720   -0.1090   24.5900 O   0  0  0  0  0  0  0  0  0  0  0  0
   12.6890    2.0870   23.3090 O   0  0  0  0  0  0  0  0  0  0  0  0
   13.7120   -0.0200   22.2080 N   0  0  0  0  0  0  0  0  0  0  0  0
   13.4370   -1.3410   22.2050 C   0  0  0  0  0  0  0  0  0  0  0  0
  1  2  2  0
  2  3  1  0
  3  4  1  0
  4  5  2  0
  5  6  1  0
  6  7  2  0
  7  8  1  0
  4  9  1  0
  8  9  2  0
  2 10  1  0
 10 11  1  0
 11 12  2  0
 12 13  1  0
 13 14  2  0
 14 15  1  0
 11 16  1  0
 15 16  2  0
 15 17  1  0
 17 18  2  0
 17 19  2  0
 17 20  1  0
 14 21  1  0
 20 21  1  0
M  END
