pyridine_urea_3554
     RDKit          3D

 17 18  0  0  0  0  0  0  0  0999 V2000
   13.2050   -2.7660   20.9720 C   0  0  0  0  0  0  0  0  0  0  0  0
   12.6550   -1.8100   21.7390 N   0  0  0  0  0  0  0  0  0  0  0  0
   13.4760   -0.7940   22.2470 N   0  0  0  0  0  0  0  0  0  0  0  0
   12.5030   -0.0470   22.9570 C   0  0  0  0  0  0  0  0  0  0  0  0
   11.2200   -0.7560   22.7530 C   0  0  0  0  0  0  0  0  0  0  0  0
   10.0000   -0.1870   23.3940 C   0  0  0  0  0  0  0  0  0  0  0  0
    8.8160   -0.5990   22.6600 N   0  0  0  0  0  0  0  0  0  0  0  0
    8.3790    0.1380   21.5860 C   0  0  0  0  0  0  0  0  0  0  0  0
    8.9240    1.1970   21.2340 O   0  0  0  0  0  0  0  0  0  0  0  0
    7.2930   -0.4580   21.0210 N   0  0  0  0  0  0  0  0  0  0  0  0
    6.5630    0.1260   19.9910 C   0  0  0  0  0  0  0  0  0  0  0  0
    5.2910    0.8980   20.3410 C   0  0  0  0  0  0  0  0  0  0  0  0
    4.6290    1.4740   19.2540 C   0  0  0  0  0  0  0  0  0  0  0  0
    5.1360    1.3230   17.9710 C   0  0  0  0  0  0  0  0  0  0  0  0
    6.2570    0.6290   17.6740 N   0  0  0  0  0  0  0  0  0  0  0  0
    6.9370    0.0510   18.6780 C   0  0  0  0  0  0  0  0  0  0  0  0
   11.3150   -1.8560   21.9950 N   0  0  0  0  0  0  0  0  0  0  0  0
  1  2  1  0
  2  3  1  0
  3  4  2  0
  4  5  1  0
  5  6  1  0
  6  7  1  0
  7  8  1  0
  8  9  2  0
  8 10  1  0
 10 11  1  0
 11 12  2  0
 12 13  1  0
 13 14  2  0
 14 15  1  0
 11 16  1  0
 15 16  2  0
  2 17  1  0
  5 17  2  0
M  END
