pyridine_urea_2238
     RDKit          3D

 27 30  0  0  0  0  0  0  0  0999 V2000
    8.6720    0.9370   21.1680 O   0  0  0  0  0  0  0  0  0  0  0  0
    8.4330   -0.2560   21.1440 C   0  0  0  0  0  0  0  0  0  0  0  0
    7.2060   -0.7930   20.8710 N   0  0  0  0  0  0  0  0  0  0  0  0
    6.3860   -0.0790   20.0020 C   0  0  0  0  0  0  0  0  0  0  0  0
    5.0470    0.5820   20.3600 C   0  0  0  0  0  0  0  0  0  0  0  0
    4.4030    1.3230   19.1890 C   0  0  0  0  0  0  0  0  0  0  0  0
    5.1310    1.3160   17.8800 C   0  0  0  0  0  0  0  0  0  0  0  0
    6.2990    0.6880   17.6900 N   0  0  0  0  0  0  0  0  0  0  0  0
    6.8690    0.0340   18.7140 C   0  0  0  0  0  0  0  0  0  0  0  0
    9.4290   -1.1610   21.3470 N   0  0  0  0  0  0  0  0  0  0  0  0
   10.4310   -0.7970   22.2920 C   0  0  0  0  0  0  0  0  0  0  0  0
   10.4900    0.5450   22.5300 C   0  0  0  0  0  0  0  0  0  0  0  0
    9.6680    0.5440   23.5740 N   0  0  0  0  0  0  0  0  0  0  0  0
    8.3550    1.5960   23.7700 S   0  0  0  0  0  0  0  0  0  0  0  0
    7.6050    1.7010   22.5450 O   0  0  0  0  0  0  0  0  0  0  0  0
    7.6400    1.1860   24.9590 O   0  0  0  0  0  0  0  0  0  0  0  0
    9.2300    3.1710   24.0690 C   0  0  0  0  0  0  0  0  0  0  0  0
    9.9790    3.7750   23.0710 C   0  0  0  0  0  0  0  0  0  0  0  0
   10.6750    4.9880   23.2430 C   0  0  0  0  0  0  0  0  0  0  0  0
   10.6820    5.7220   24.4690 C   0  0  0  0  0  0  0  0  0  0  0  0
    9.8660    5.0750   25.5800 C   0  0  0  0  0  0  0  0  0  0  0  0
    9.1750    3.8870   25.4280 C   0  0  0  0  0  0  0  0  0  0  0  0
    9.8070    5.6920   26.8070 O   0  0  0  0  0  0  0  0  0  0  0  0
   10.3050    7.0350   26.7400 C   0  0  0  0  0  0  0  0  0  0  0  0
   11.5280    7.0690   26.0470 C   0  0  0  0  0  0  0  0  0  0  0  0
   11.3550    6.8820   24.6330 O   0  0  0  0  0  0  0  0  0  0  0  0
    9.7900   -1.0040   23.6410 C   0  0  0  0  0  0  0  0  0  0  0  0
  1  2  2  0
  2  3  1  0
  3  4  1  0
  4  5  2  0
  5  6  1  0
  6  7  2  0
  7  8  1  0
  4  9  1  0
  8  9  2  0
  2 10  1  0
 10 11  1  0
 11 12  1  0
 12 13  1  0
 13 14  1  0
 14 15  2  0
 14 16  2  0
 14 17  1  0
 17 18  2  0
 18 19  1  0
 19 20  2  0
 20 21  1  0
 17 22  1  0
 21 22  2  0
 21 23  1  0
 23 24  1  0
 24 25  1  0
 20 26  1  0
 25 26  1  0
 11 27  1  0
 13 27  1  0
M  END
