pyridine_urea_953
     RDKit          3D

 22 23  0  0  0  0  0  0  0  0999 V2000
   13.1910   -2.3790   21.3050 C   0  0  0  0  0  0  0  0  0  0  0  0
   12.7780   -1.6880   22.4580 O   0  0  0  0  0  0  0  0  0  0  0  0
   11.6380   -1.1240   22.1090 C   0  0  0  0  0  0  0  0  0  0  0  0
   10.4220   -1.5380   22.5810 C   0  0  0  0  0  0  0  0  0  0  0  0
    9.6740   -0.6430   23.3280 C   0  0  2  0  0  0  0  0  0  0  0  0
    8.3770   -0.4660   23.1160 N   0  0  0  0  0  0  0  0  0  0  0  0
    8.2080   -0.0980   21.7880 C   0  0  0  0  0  0  0  0  0  0  0  0
    8.8760    0.7520   21.2220 O   0  0  0  0  0  0  0  0  0  0  0  0
    7.1970   -0.7660   21.1790 N   0  0  0  0  0  0  0  0  0  0  0  0
    6.5800   -0.1150   20.1420 C   0  0  0  0  0  0  0  0  0  0  0  0
    5.3430    0.6840   20.4780 C   0  0  0  0  0  0  0  0  0  0  0  0
    4.6870    1.3940   19.3260 C   0  0  0  0  0  0  0  0  0  0  0  0
    5.2460    1.2700   18.0770 C   0  0  0  0  0  0  0  0  0  0  0  0
    6.3230    0.5840   17.7160 N   0  0  0  0  0  0  0  0  0  0  0  0
    6.9590   -0.0980   18.8010 C   0  0  0  0  0  0  0  0  0  0  0  0
   10.2600    0.5970   23.2250 C   0  0  0  0  0  0  0  0  0  0  0  0
    9.5990    1.7520   23.0680 C   0  0  0  0  0  0  0  0  0  0  0  0
   10.4520    2.8310   22.9620 C   0  0  0  0  0  0  0  0  0  0  0  0
   11.8830    2.7790   23.0150 C   0  0  0  0  0  0  0  0  0  0  0  0
   12.6670    4.3040   22.8370 Cl  0  0  0  0  0  0  0  0  0  0  0  0
   12.7400    1.6190   23.1950 C   0  0  0  0  0  0  0  0  0  0  0  0
   11.6040    0.8600   23.2450 C   0  0  0  0  0  0  0  0  0  0  0  0
  1  2  1  0
  2  3  1  0
  3  4  1  0
  5  4  1  6
  5  6  1  0
  6  7  1  0
  7  8  2  0
  7  9  1  0
  9 10  1  0
 10 11  2  0
 11 12  1  0
 12 13  2  0
 13 14  1  0
 10 15  1  0
 14 15  2  0
  5 16  1  0
 16 17  2  0
 17 18  1  0
 18 19  2  0
 19 20  1  0
 19 21  1  0
 16 22  1  0
 21 22  2  0
M  END
