pyridine_urea_14972
     RDKit          3D

 19 20  0  0  0  0  0  0  0  0999 V2000
    8.6530    1.2600   20.9960 O   0  0  0  0  0  0  0  0  0  0  0  0
    8.0850    0.2780   21.4940 C   0  0  0  0  0  0  0  0  0  0  0  0
    7.1640   -0.5350   20.8950 N   0  0  0  0  0  0  0  0  0  0  0  0
    6.4580    0.1300   19.8780 C   0  0  0  0  0  0  0  0  0  0  0  0
    5.1710    0.8430   20.2570 C   0  0  0  0  0  0  0  0  0  0  0  0
    4.4430    1.5730   19.1390 C   0  0  0  0  0  0  0  0  0  0  0  0
    5.1180    1.4920   17.7700 C   0  0  0  0  0  0  0  0  0  0  0  0
    6.3050    0.7760   17.6090 N   0  0  0  0  0  0  0  0  0  0  0  0
    6.9320    0.1310   18.6120 C   0  0  0  0  0  0  0  0  0  0  0  0
    8.2920   -0.1370   22.7530 N   0  0  0  0  0  0  0  0  0  0  0  0
    9.5660   -0.5260   23.0540 C   0  0  0  0  0  0  0  0  0  0  0  0
    9.8920   -1.7660   23.4420 C   0  0  0  0  0  0  0  0  0  0  0  0
   11.1320   -2.1380   23.7510 C   0  0  0  0  0  0  0  0  0  0  0  0
   12.1290   -1.2560   23.6740 C   0  0  0  0  0  0  0  0  0  0  0  0
   13.5760   -2.2560   24.2230 Br  0  0  0  0  0  0  0  0  0  0  0  0
   11.9030    0.0660   23.2530 C   0  0  0  0  0  0  0  0  0  0  0  0
   12.9310    1.3620   23.0290 Cl  0  0  0  0  0  0  0  0  0  0  0  0
   10.5930    0.3880   22.9590 C   0  0  0  0  0  0  0  0  0  0  0  0
   10.4060    1.6750   22.5710 F   0  0  0  0  0  0  0  0  0  0  0  0
  1  2  2  0
  2  3  1  0
  3  4  1  0
  4  5  2  0
  5  6  1  0
  6  7  2  0
  7  8  1  0
  4  9  1  0
  8  9  2  0
  2 10  1  0
 10 11  1  0
 11 12  2  0
 12 13  1  0
 13 14  2  0
 14 15  1  0
 14 16  1  0
 16 17  1  0
 11 18  1  0
 16 18  2  0
 18 19  1  0
M  END
