pyridine_urea_4759
     RDKit          3D

 22 24  0  0  0  0  0  0  0  0999 V2000
    8.4610    1.6000   20.7000 O   0  0  0  0  0  0  0  0  0  0  0  0
    8.4580    0.5050   21.2440 C   0  0  0  0  0  0  0  0  0  0  0  0
    7.4200   -0.3680   21.0430 N   0  0  0  0  0  0  0  0  0  0  0  0
    6.6400    0.0300   19.8640 C   0  0  0  0  0  0  0  0  0  0  0  0
    5.2810    0.6650   20.1730 C   0  0  0  0  0  0  0  0  0  0  0  0
    4.4610    1.1210   19.1540 C   0  0  0  0  0  0  0  0  0  0  0  0
    4.9470    0.9820   17.8530 C   0  0  0  0  0  0  0  0  0  0  0  0
    6.1740    0.3890   17.6090 N   0  0  0  0  0  0  0  0  0  0  0  0
    7.0380   -0.0840   18.5660 C   0  0  0  0  0  0  0  0  0  0  0  0
    9.4240    0.0660   22.0600 N   0  0  0  0  0  0  0  0  0  0  0  0
   10.4750   -0.1660   22.8320 C   0  0  1  0  0  0  0  0  0  0  0  0
   10.1170   -0.1880   24.1870 C   0  0  0  0  0  0  0  0  0  0  0  0
   10.5850    0.9800   24.7290 C   0  0  0  0  0  0  0  0  0  0  0  0
   11.8880    0.7930   24.4680 C   0  0  0  0  0  0  0  0  0  0  0  0
   11.7830   -0.5410   24.4640 O   0  0  0  0  0  0  0  0  0  0  0  0
   12.1190   -1.2260   23.3550 C   0  0  0  0  0  0  0  0  0  0  0  0
   13.2830   -2.0240   23.6890 C   0  0  0  0  0  0  0  0  0  0  0  0
   13.8530   -1.9200   25.2990 Cl  0  0  0  0  0  0  0  0  0  0  0  0
   13.9710   -2.8390   22.9070 C   0  0  0  0  0  0  0  0  0  0  0  0
   13.4390   -2.8670   21.6360 C   0  0  0  0  0  0  0  0  0  0  0  0
   12.3460   -2.1230   21.3380 C   0  0  0  0  0  0  0  0  0  0  0  0
   11.4070   -1.1410   22.0880 C   0  0  0  0  0  0  0  0  0  0  0  0
  1  2  2  0
  2  3  1  0
  3  4  1  0
  4  5  2  0
  5  6  1  0
  6  7  2  0
  7  8  1  0
  4  9  1  0
  8  9  2  0
  2 10  1  0
 11 10  1  6
 11 12  1  0
 12 13  1  0
 13 14  1  0
 14 15  1  0
 15 16  1  0
 16 17  1  0
 17 18  1  0
 17 19  2  0
 19 20  1  0
 20 21  2  0
 11 22  1  0
 16 22  2  0
 21 22  1  0
M  END
