pyridine_urea_13713
     RDKit          3D

 25 27  0  0  0  0  0  0  0  0999 V2000
    8.8960    1.3540   21.1090 O   0  0  0  0  0  0  0  0  0  0  0  0
    8.3040    0.4130   21.6460 C   0  0  0  0  0  0  0  0  0  0  0  0
    7.3140   -0.3520   21.0750 N   0  0  0  0  0  0  0  0  0  0  0  0
    6.4900    0.2050   20.1060 C   0  0  0  0  0  0  0  0  0  0  0  0
    5.1620    0.9100   20.4120 C   0  0  0  0  0  0  0  0  0  0  0  0
    4.4630    1.4700   19.1830 C   0  0  0  0  0  0  0  0  0  0  0  0
    5.1360    1.2720   17.8640 C   0  0  0  0  0  0  0  0  0  0  0  0
    6.2970    0.6250   17.7090 N   0  0  0  0  0  0  0  0  0  0  0  0
    6.9180    0.1240   18.7890 C   0  0  0  0  0  0  0  0  0  0  0  0
    8.5860    0.0410   22.9380 N   0  0  0  0  0  0  0  0  0  0  0  0
    9.9310    0.1950   23.4460 C   0  0  1  0  0  0  0  0  0  0  0  0
   10.6330   -0.7260   22.6800 C   0  0  0  0  0  0  0  0  0  0  0  0
   10.2890   -1.0570   21.6070 C   0  0  0  0  0  0  0  0  0  0  0  0
   11.3100   -1.6760   21.9160 C   0  0  0  0  0  0  0  0  0  0  0  0
   11.0040   -0.6670   23.2320 C   0  0  0  0  0  0  0  0  0  0  0  0
   12.0020   -1.0020   24.0930 C   0  0  0  0  0  0  0  0  0  0  0  0
   12.8680   -1.0740   25.2280 C   0  0  0  0  0  0  0  0  0  0  0  0
   13.7700   -2.0490   24.8770 C   0  0  0  0  0  0  0  0  0  0  0  0
   13.7960   -2.7390   23.6220 C   0  0  0  0  0  0  0  0  0  0  0  0
   12.8310   -2.4480   22.6520 C   0  0  0  0  0  0  0  0  0  0  0  0
   11.9120   -1.5420   22.9940 C   0  0  0  0  0  0  0  0  0  0  0  0
   10.4540    1.4840   23.5260 C   0  0  0  0  0  0  0  0  0  0  0  0
    9.8290    2.2130   24.4870 F   0  0  0  0  0  0  0  0  0  0  0  0
   10.2690    2.2030   22.3940 F   0  0  0  0  0  0  0  0  0  0  0  0
   11.7830    1.5250   23.7960 F   0  0  0  0  0  0  0  0  0  0  0  0
  1  2  2  0
  2  3  1  0
  3  4  1  0
  4  5  2  0
  5  6  1  0
  6  7  2  0
  7  8  1  0
  4  9  1  0
  8  9  2  0
  2 10  1  0
 11 10  1  6
 11 12  1  0
 12 13  2  0
 13 14  1  0
 14 15  2  0
 15 16  1  0
 16 17  1  0
 17 18  2  0
 18 19  1  0
 19 20  2  0
 12 21  1  0
 16 21  2  0
 20 21  1  0
 11 22  1  0
 22 23  1  0
 22 24  1  0
 22 25  1  0
M  END
