pyridine_urea_5452
     RDKit          3D

 18 19  0  0  0  0  0  0  0  0999 V2000
    8.5800    0.8510   21.1900 O   0  0  0  0  0  0  0  0  0  0  0  0
    8.2470   -0.2640   21.5660 C   0  0  0  0  0  0  0  0  0  0  0  0
    7.0930   -0.8530   21.1060 N   0  0  0  0  0  0  0  0  0  0  0  0
    6.4280   -0.1170   20.0510 C   0  0  0  0  0  0  0  0  0  0  0  0
    5.1050    0.6590   20.3550 C   0  0  0  0  0  0  0  0  0  0  0  0
    4.5220    1.3560   19.3020 C   0  0  0  0  0  0  0  0  0  0  0  0
    5.2350    1.2970   17.9480 C   0  0  0  0  0  0  0  0  0  0  0  0
    6.3770    0.6060   17.7420 N   0  0  0  0  0  0  0  0  0  0  0  0
    6.9320   -0.0710   18.7700 C   0  0  0  0  0  0  0  0  0  0  0  0
    8.9510   -1.0410   22.4510 N   0  0  0  0  0  0  0  0  0  0  0  0
   10.3210   -0.5850   22.5650 C   0  0  0  0  0  0  0  0  0  0  0  0
   11.3890   -1.6380   22.3410 C   0  0  0  0  0  0  0  0  0  0  0  0
   12.8250   -1.1640   22.4290 C   0  0  0  0  0  0  0  0  0  0  0  0
   13.0900    0.3050   22.7240 C   0  0  0  0  0  0  0  0  0  0  0  0
   14.2940    0.8800   22.8060 O   0  0  0  0  0  0  0  0  0  0  0  0
   11.9670    1.2970   22.9410 C   0  0  0  0  0  0  0  0  0  0  0  0
   12.2760    2.6090   23.1940 O   0  0  0  0  0  0  0  0  0  0  0  0
   10.5640    0.7580   22.8480 C   0  0  0  0  0  0  0  0  0  0  0  0
  1  2  2  0
  2  3  1  0
  3  4  1  0
  4  5  2  0
  5  6  1  0
  6  7  2  0
  7  8  1  0
  4  9  1  0
  8  9  2  0
  2 10  1  0
 10 11  1  0
 11 12  2  0
 12 13  1  0
 13 14  2  0
 14 15  1  0
 14 16  1  0
 16 17  1  0
 11 18  1  0
 16 18  2  0
M  END
