pyridine_urea_2061
     RDKit          3D

 23 25  0  0  0  0  0  0  0  0999 V2000
   13.0800   -1.2250   24.8120 C   0  0  0  0  0  0  0  0  0  0  0  0
   11.8140   -1.3920   24.3410 N   0  0  0  0  0  0  0  0  0  0  0  0
   11.2580   -0.6610   23.3870 C   0  0  0  0  0  0  0  0  0  0  0  0
   11.8320    0.6100   23.6640 C   0  0  0  0  0  0  0  0  0  0  0  0
   11.2200    1.5310   22.5530 C   0  0  0  0  0  0  0  0  0  0  0  0
   12.0420    2.2250   23.3760 C   0  0  0  0  0  0  0  0  0  0  0  0
   11.9990    0.8740   23.8110 C   0  0  0  0  0  0  0  0  0  0  0  0
   11.0620    0.4900   22.7300 C   0  0  0  0  0  0  0  0  0  0  0  0
   10.2970   -0.4700   22.0340 C   0  0  2  0  0  0  0  0  0  0  0  0
    9.0250   -0.6730   22.4520 N   0  0  0  0  0  0  0  0  0  0  0  0
    8.1040    0.0240   21.6360 C   0  0  0  0  0  0  0  0  0  0  0  0
    8.3060    1.1960   21.3550 O   0  0  0  0  0  0  0  0  0  0  0  0
    7.0610   -0.6980   21.1720 N   0  0  0  0  0  0  0  0  0  0  0  0
    6.4500   -0.0760   20.1190 C   0  0  0  0  0  0  0  0  0  0  0  0
    5.2590    0.6430   20.3690 C   0  0  0  0  0  0  0  0  0  0  0  0
    4.5380    1.3490   19.3530 C   0  0  0  0  0  0  0  0  0  0  0  0
    5.2350    1.2110   18.0000 C   0  0  0  0  0  0  0  0  0  0  0  0
    6.3590    0.5190   17.7920 N   0  0  0  0  0  0  0  0  0  0  0  0
    6.9340   -0.1010   18.8280 C   0  0  0  0  0  0  0  0  0  0  0  0
   11.2460   -1.7260   21.8250 C   0  0  0  0  0  0  0  0  0  0  0  0
   11.7510   -2.6410   23.2740 S   0  0  0  0  0  0  0  0  0  0  0  0
   13.1210   -3.0640   23.1280 O   0  0  0  0  0  0  0  0  0  0  0  0
   10.5940   -3.4460   23.4950 O   0  0  0  0  0  0  0  0  0  0  0  0
  1  2  1  0
  2  3  1  0
  3  4  1  0
  4  5  2  0
  5  6  1  0
  6  7  2  0
  3  8  2  0
  7  8  1  0
  8  9  1  0
  9 10  1  1
 10 11  1  0
 11 12  2  0
 11 13  1  0
 13 14  1  0
 14 15  2  0
 15 16  1  0
 16 17  2  0
 17 18  1  0
 14 19  1  0
 18 19  2  0
  9 20  1  0
 21  2  1  0
 20 21  1  0
 21 22  2  0
 21 23  2  0
M  END
