pyridine_urea_5815
     RDKit          3D

 18 19  0  0  0  0  0  0  0  0999 V2000
   11.4720   -2.4670   24.5110 N   0  0  0  0  0  0  0  0  0  0  0  0
   12.4230   -1.5040   24.5700 C   0  0  0  0  0  0  0  0  0  0  0  0
   13.4660   -1.6200   25.5220 O   0  0  0  0  0  0  0  0  0  0  0  0
   12.2790   -0.4160   23.5740 C   0  0  1  0  0  0  0  0  0  0  0  0
   12.7820   -0.9110   22.3980 C   0  0  0  0  0  0  0  0  0  0  0  0
   11.6870   -1.5600   21.8500 C   0  0  0  0  0  0  0  0  0  0  0  0
   10.5390   -0.8420   22.1950 C   0  0  1  0  0  0  0  0  0  0  0  0
    9.2900   -1.3250   22.1060 N   0  0  0  0  0  0  0  0  0  0  0  0
    8.4500   -0.4150   21.5300 C   0  0  0  0  0  0  0  0  0  0  0  0
    8.7060    0.7590   21.3010 O   0  0  0  0  0  0  0  0  0  0  0  0
    7.2100   -0.7640   21.1330 N   0  0  0  0  0  0  0  0  0  0  0  0
    6.5200   -0.0700   20.0620 C   0  0  0  0  0  0  0  0  0  0  0  0
    5.2480    0.7340   20.3380 C   0  0  0  0  0  0  0  0  0  0  0  0
    4.6110    1.4070   19.2900 C   0  0  0  0  0  0  0  0  0  0  0  0
    5.1500    1.3330   17.9980 C   0  0  0  0  0  0  0  0  0  0  0  0
    6.2860    0.6140   17.7070 N   0  0  0  0  0  0  0  0  0  0  0  0
    6.9560   -0.0860   18.7690 C   0  0  0  0  0  0  0  0  0  0  0  0
   10.8780   -0.2000   23.5030 C   0  0  0  0  0  0  0  0  0  0  0  0
  1  2  1  0
  2  3  2  0
  4  2  1  1
  4  5  1  0
  5  6  1  0
  6  7  1  0
  7  8  1  1
  8  9  1  0
  9 10  2  0
  9 11  1  0
 11 12  1  0
 12 13  2  0
 13 14  1  0
 14 15  2  0
 15 16  1  0
 12 17  1  0
 16 17  2  0
  4 18  1  0
  7 18  1  0
M  END
