pyridine_urea_5563
     RDKit          3D

 17 17  0  0  0  0  0  0  0  0999 V2000
    9.6740   -2.7890   23.2410 C   0  0  0  0  0  0  0  0  0  0  0  0
   11.0760   -2.5570   23.1510 O   0  0  0  0  0  0  0  0  0  0  0  0
   11.4040   -1.3560   22.4350 C   0  0  1  0  0  0  0  0  0  0  0  0
   10.3810   -0.3060   22.9920 C   0  0  0  0  0  0  0  0  0  0  0  0
    9.0170   -0.5700   22.5690 N   0  0  0  0  0  0  0  0  0  0  0  0
    8.4150    0.1270   21.5610 C   0  0  0  0  0  0  0  0  0  0  0  0
    8.8510    1.3640   21.1230 O   0  0  0  0  0  0  0  0  0  0  0  0
    7.2610   -0.5660   21.0250 N   0  0  0  0  0  0  0  0  0  0  0  0
    6.5280    0.0720   20.0700 C   0  0  0  0  0  0  0  0  0  0  0  0
    5.3560    0.7530   20.4050 C   0  0  0  0  0  0  0  0  0  0  0  0
    4.6160    1.4460   19.2840 C   0  0  0  0  0  0  0  0  0  0  0  0
    5.1960    1.3490   17.9060 C   0  0  0  0  0  0  0  0  0  0  0  0
    6.3310    0.6600   17.6850 N   0  0  0  0  0  0  0  0  0  0  0  0
    6.9430    0.0570   18.7410 C   0  0  0  0  0  0  0  0  0  0  0  0
   12.7320   -0.9940   22.7130 C   0  0  0  0  0  0  0  0  0  0  0  0
   12.8670    0.4490   23.2110 C   0  0  0  0  0  0  0  0  0  0  0  0
   13.2150   -1.9000   23.8580 C   0  0  0  0  0  0  0  0  0  0  0  0
  1  2  1  0
  2  3  1  0
  3  4  1  1
  4  5  1  0
  5  6  1  0
  6  7  2  0
  6  8  1  0
  8  9  1  0
  9 10  2  0
 10 11  1  0
 11 12  2  0
 12 13  1  0
  9 14  1  0
 13 14  2  0
  3 15  1  0
 15 16  1  0
 15 17  1  0
M  END
