pyridine_urea_6847
     RDKit          3D

 21 22  0  0  0  0  0  0  0  0999 V2000
   12.9880   -2.3290   21.2700 C   0  0  0  0  0  0  0  0  0  0  0  0
   13.8210   -1.1800   21.2740 O   0  0  0  0  0  0  0  0  0  0  0  0
   13.5540   -0.2140   22.2050 C   0  0  0  0  0  0  0  0  0  0  0  0
   14.3020    0.6110   22.6440 O   0  0  0  0  0  0  0  0  0  0  0  0
   12.1980   -0.1810   22.6160 C   0  0  0  0  0  0  0  0  0  0  0  0
   11.5610    1.0970   22.8620 C   0  0  0  0  0  0  0  0  0  0  0  0
   10.1510    1.0700   23.2590 C   0  0  0  0  0  0  0  0  0  0  0  0
    9.2790   -0.0240   23.4600 C   0  0  0  0  0  0  0  0  0  0  0  0
    8.7130   -1.2580   23.5670 C   0  0  0  0  0  0  0  0  0  0  0  0
    8.5200   -1.6230   22.2110 N   0  0  0  0  0  0  0  0  0  0  0  0
    8.0830   -0.5840   21.4480 C   0  0  0  0  0  0  0  0  0  0  0  0
    8.8040    0.3800   21.2250 O   0  0  0  0  0  0  0  0  0  0  0  0
    6.8050   -0.7720   21.0450 N   0  0  0  0  0  0  0  0  0  0  0  0
    6.2500   -0.0420   20.0140 C   0  0  0  0  0  0  0  0  0  0  0  0
    5.0580    0.6630   20.1310 C   0  0  0  0  0  0  0  0  0  0  0  0
    4.5030    1.4120   19.0870 C   0  0  0  0  0  0  0  0  0  0  0  0
    5.1720    1.4660   17.8490 C   0  0  0  0  0  0  0  0  0  0  0  0
    6.3220    0.8200   17.6300 N   0  0  0  0  0  0  0  0  0  0  0  0
    6.8420    0.1060   18.6350 C   0  0  0  0  0  0  0  0  0  0  0  0
   10.0520   -1.1420   23.1950 N   0  0  0  0  0  0  0  0  0  0  0  0
   11.3060   -1.3190   22.8260 C   0  0  0  0  0  0  0  0  0  0  0  0
  1  2  1  0
  2  3  1  0
  3  4  2  0
  3  5  1  0
  5  6  2  0
  6  7  1  0
  7  8  2  0
  8  9  1  0
  9 10  1  0
 10 11  1  0
 11 12  2  0
 11 13  1  0
 13 14  1  0
 14 15  2  0
 15 16  1  0
 16 17  2  0
 17 18  1  0
 14 19  1  0
 18 19  2  0
  8 20  1  0
  5 21  1  0
 20 21  2  0
M  END
