pyridine_urea_7128
     RDKit          3D

 19 20  0  0  0  0  0  0  0  0999 V2000
   11.0070    0.9630   24.1920 C   0  0  0  0  0  0  0  0  0  0  0  0
   12.3890    0.7080   23.6540 C   0  0  0  0  0  0  0  0  0  0  0  0
   12.9340    1.7390   22.9380 C   0  0  0  0  0  0  0  0  0  0  0  0
   12.3740   -0.5020   22.7360 C   0  0  0  0  0  0  0  0  0  0  0  0
   13.4090   -0.7730   22.0680 O   0  0  0  0  0  0  0  0  0  0  0  0
   13.1650   -1.8870   21.3210 C   0  0  0  0  0  0  0  0  0  0  0  0
   11.9210   -2.4260   21.4640 N   0  0  0  0  0  0  0  0  0  0  0  0
   11.4100   -1.4540   22.4380 C   0  0  0  0  0  0  0  0  0  0  0  0
    9.9900   -1.5280   23.0200 C   0  0  0  0  0  0  0  0  0  0  0  0
    8.9270   -1.7380   22.0340 N   0  0  0  0  0  0  0  0  0  0  0  0
    8.3460   -0.5150   21.5020 C   0  0  0  0  0  0  0  0  0  0  0  0
    8.8840    0.5880   21.4080 O   0  0  0  0  0  0  0  0  0  0  0  0
    7.0590   -0.6450   21.0670 N   0  0  0  0  0  0  0  0  0  0  0  0
    6.3730    0.0600   20.0720 C   0  0  0  0  0  0  0  0  0  0  0  0
    5.1820    0.7860   20.2680 C   0  0  0  0  0  0  0  0  0  0  0  0
    4.5860    1.4660   19.1960 C   0  0  0  0  0  0  0  0  0  0  0  0
    5.2260    1.4070   17.8710 C   0  0  0  0  0  0  0  0  0  0  0  0
    6.3960    0.6790   17.7120 N   0  0  0  0  0  0  0  0  0  0  0  0
    6.9200    0.0380   18.7890 C   0  0  0  0  0  0  0  0  0  0  0  0
  1  2  1  0
  2  3  1  0
  2  4  1  0
  4  5  1  0
  5  6  1  0
  6  7  2  0
  4  8  2  0
  7  8  1  0
  8  9  1  0
  9 10  1  0
 10 11  1  0
 11 12  2  0
 11 13  1  0
 13 14  1  0
 14 15  2  0
 15 16  1  0
 16 17  2  0
 17 18  1  0
 14 19  1  0
 18 19  2  0
M  END
