pyridine_urea_7230
     RDKit          3D

 19 20  0  0  0  0  0  0  0  0999 V2000
    5.6250   -2.8660   26.2870 C   0  0  0  0  0  0  0  0  0  0  0  0
    6.5680   -2.9550   25.0970 C   0  0  0  0  0  0  0  0  0  0  0  0
    6.6330   -4.0050   24.1880 C   0  0  0  0  0  0  0  0  0  0  0  0
    7.7710   -3.9500   22.8990 S   0  0  0  0  0  0  0  0  0  0  0  0
    8.2430   -2.3620   23.6050 C   0  0  0  0  0  0  0  0  0  0  0  0
    9.2550   -1.5990   23.0370 C   0  0  0  0  0  0  0  0  0  0  0  0
    9.5630   -1.9380   21.7320 C   0  0  0  0  0  0  0  0  0  0  0  0
   10.3720   -1.6080   23.9110 C   0  0  0  0  0  0  0  0  0  0  0  0
    8.9050   -0.2410   22.9670 N   0  0  0  0  0  0  0  0  0  0  0  0
    8.4370    0.1990   21.7150 C   0  0  0  0  0  0  0  0  0  0  0  0
    8.8340    1.2120   21.1090 O   0  0  0  0  0  0  0  0  0  0  0  0
    7.3660   -0.6410   21.1530 N   0  0  0  0  0  0  0  0  0  0  0  0
    6.5900    0.0540   20.0930 C   0  0  0  0  0  0  0  0  0  0  0  0
    5.4640    0.7990   20.4580 C   0  0  0  0  0  0  0  0  0  0  0  0
    4.7610    1.4390   19.4410 C   0  0  0  0  0  0  0  0  0  0  0  0
    5.2370    1.3010   18.0550 C   0  0  0  0  0  0  0  0  0  0  0  0
    6.3120    0.5830   17.7110 N   0  0  0  0  0  0  0  0  0  0  0  0
    6.9450   -0.0140   18.7500 C   0  0  0  0  0  0  0  0  0  0  0  0
    7.5400   -1.8870   24.8000 N   0  0  0  0  0  0  0  0  0  0  0  0
  1  2  1  0
  2  3  2  0
  3  4  1  0
  4  5  1  0
  5  6  1  0
  6  7  1  0
  6  8  1  0
  6  9  1  0
  9 10  1  0
 10 11  2  0
 10 12  1  0
 12 13  1  0
 13 14  2  0
 14 15  1  0
 15 16  2  0
 16 17  1  0
 13 18  1  0
 17 18  2  0
  2 19  1  0
  5 19  2  0
M  END
