pyridine_urea_3648
     RDKit          3D

 15 15  0  0  0  0  0  0  0  0999 V2000
   13.5220   -0.4330   22.3340 C   0  0  0  0  0  0  0  0  0  0  0  0
   12.4070   -0.5090   23.3210 C   0  0  0  0  0  0  0  0  0  0  0  0
   11.5960    0.1470   24.3820 C   0  0  0  0  0  0  0  0  0  0  0  0
   10.1550   -0.1150   24.0560 C   0  0  0  0  0  0  0  0  0  0  0  0
   10.0910   -1.1710   22.9600 C   0  0  0  0  0  0  0  0  0  0  0  0
    8.7690   -1.2830   22.4030 N   0  0  0  0  0  0  0  0  0  0  0  0
    8.3040   -0.2840   21.5870 C   0  0  0  0  0  0  0  0  0  0  0  0
    8.9190    0.7500   21.3840 O   0  0  0  0  0  0  0  0  0  0  0  0
    7.0800   -0.6260   21.0710 N   0  0  0  0  0  0  0  0  0  0  0  0
    6.4470    0.0260   20.0100 C   0  0  0  0  0  0  0  0  0  0  0  0
    5.2670    0.7390   20.2540 C   0  0  0  0  0  0  0  0  0  0  0  0
    4.6310    1.4070   19.2060 C   0  0  0  0  0  0  0  0  0  0  0  0
    5.1990    1.3370   17.9520 C   0  0  0  0  0  0  0  0  0  0  0  0
    6.3270    0.6520   17.7010 N   0  0  0  0  0  0  0  0  0  0  0  0
    6.9220    0.0160   18.7240 C   0  0  0  0  0  0  0  0  0  0  0  0
  1  2  2  3
  2  3  1  0
  3  4  1  0
  4  5  1  0
  5  6  1  0
  6  7  1  0
  7  8  2  0
  7  9  1  0
  9 10  1  0
 10 11  2  0
 11 12  1  0
 12 13  2  0
 13 14  1  0
 10 15  1  0
 14 15  2  0
M  END
