pyridine_urea_12955
     RDKit          3D

 19 19  0  0  0  0  0  0  0  0999 V2000
   13.9500   -3.1120   25.8660 C   0  0  0  0  0  0  0  0  0  0  0  0
   12.7810   -2.8830   24.8990 C   0  0  0  0  0  0  0  0  0  0  0  0
   12.4940   -1.5020   24.3930 C   0  0  0  0  0  0  0  0  0  0  0  0
   11.1820   -1.2330   24.8470 O   0  0  0  0  0  0  0  0  0  0  0  0
   10.2020   -1.6070   23.8800 C   0  0  0  0  0  0  0  0  0  0  0  0
    9.2550   -2.3860   23.9490 O   0  0  0  0  0  0  0  0  0  0  0  0
   10.4370   -0.9440   22.7110 C   0  0  0  0  0  0  0  0  0  0  0  0
   11.5040   -1.5350   22.0270 C   0  0  0  0  0  0  0  0  0  0  0  0
   10.5600    0.4360   22.9290 C   0  0  0  0  0  0  0  0  0  0  0  0
    9.2880   -1.1150   21.8280 N   0  0  0  0  0  0  0  0  0  0  0  0
    8.4980   -0.0580   21.3780 C   0  0  0  0  0  0  0  0  0  0  0  0
    8.9520    1.2990   21.2120 O   0  0  0  0  0  0  0  0  0  0  0  0
    7.2220   -0.4920   21.0840 N   0  0  0  0  0  0  0  0  0  0  0  0
    6.5020    0.1020   20.0650 C   0  0  0  0  0  0  0  0  0  0  0  0
    5.3280    0.8050   20.3910 C   0  0  0  0  0  0  0  0  0  0  0  0
    4.6270    1.4170   19.3480 C   0  0  0  0  0  0  0  0  0  0  0  0
    5.1640    1.2860   17.9720 C   0  0  0  0  0  0  0  0  0  0  0  0
    6.2670    0.6080   17.6840 N   0  0  0  0  0  0  0  0  0  0  0  0
    6.9060    0.0370   18.7330 C   0  0  0  0  0  0  0  0  0  0  0  0
  1  2  2  3
  2  3  1  0
  3  4  1  0
  4  5  1  0
  5  6  2  0
  7  5  1  0
  7  8  1  0
  7  9  1  0
  7 10  1  0
 10 11  1  0
 11 12  2  0
 11 13  1  0
 13 14  1  0
 14 15  2  0
 15 16  1  0
 16 17  2  0
 17 18  1  0
 14 19  1  0
 18 19  2  0
M  END
