pyridine_urea_4869
     RDKit          3D

 21 22  0  0  0  0  0  0  0  0999 V2000
   13.0400   -1.7600   21.9980 C   0  0  0  0  0  0  0  0  0  0  0  0
   11.6150   -1.2290   22.2550 C   0  0  0  0  0  0  0  0  0  0  0  0
   12.7730   -0.4940   22.8670 N   0  0  0  0  0  0  0  0  0  0  0  0
   12.5380    0.5770   23.5950 C   0  0  0  0  0  0  0  0  0  0  0  0
   11.3330    0.0820   23.1770 C   0  0  0  0  0  0  0  0  0  0  0  0
   10.6060    1.0880   22.6210 F   0  0  0  0  0  0  0  0  0  0  0  0
   10.6230   -0.3900   24.2400 F   0  0  0  0  0  0  0  0  0  0  0  0
   11.4510   -0.9170   22.2890 F   0  0  0  0  0  0  0  0  0  0  0  0
   11.3770    1.2870   24.0000 C   0  0  0  0  0  0  0  0  0  0  0  0
   10.2490    0.7260   23.5260 C   0  0  0  0  0  0  0  0  0  0  0  0
   10.3960   -0.4560   22.7020 C   0  0  0  0  0  0  0  0  0  0  0  0
    9.1950   -0.9300   22.2420 N   0  0  0  0  0  0  0  0  0  0  0  0
    8.2960   -0.2400   21.4610 C   0  0  0  0  0  0  0  0  0  0  0  0
    8.6060    0.9120   21.1510 O   0  0  0  0  0  0  0  0  0  0  0  0
    7.1450   -0.8280   21.0710 N   0  0  0  0  0  0  0  0  0  0  0  0
    6.4960   -0.1460   20.0870 C   0  0  0  0  0  0  0  0  0  0  0  0
    5.3150    0.5490   20.4030 C   0  0  0  0  0  0  0  0  0  0  0  0
    4.6420    1.2650   19.3980 C   0  0  0  0  0  0  0  0  0  0  0  0
    5.2240    1.2530   18.0240 C   0  0  0  0  0  0  0  0  0  0  0  0
    6.3460    0.5800   17.7590 N   0  0  0  0  0  0  0  0  0  0  0  0
    6.9440   -0.0940   18.7730 C   0  0  0  0  0  0  0  0  0  0  0  0
  1  2  1  0
  2  3  2  0
  3  4  1  0
  4  5  1  0
  5  6  1  0
  5  7  1  0
  5  8  1  0
  4  9  2  0
  9 10  1  0
  2 11  1  0
 10 11  2  0
 11 12  1  0
 12 13  1  0
 13 14  2  0
 13 15  1  0
 15 16  1  0
 16 17  2  0
 17 18  1  0
 18 19  2  0
 19 20  1  0
 16 21  1  0
 20 21  2  0
M  END
