pyridine_urea_11255
     RDKit          3D

 17 17  0  0  0  0  0  0  0  0999 V2000
   12.4220    2.9620   22.7480 C   0  0  0  0  0  0  0  0  0  0  0  0
   13.1690    1.7500   22.6510 O   0  0  0  0  0  0  0  0  0  0  0  0
   12.6000    0.6740   23.3540 C   0  0  0  0  0  0  0  0  0  0  0  0
   12.8380   -0.6790   22.7260 C   0  0  0  0  0  0  0  0  0  0  0  0
   11.5350   -1.3680   22.8400 C   0  0  2  0  0  0  0  0  0  0  0  0
   11.1350   -1.9290   21.6640 C   0  0  0  0  0  0  0  0  0  0  0  0
   10.3060   -0.7520   23.2270 C   0  0  0  0  0  0  0  0  0  0  0  0
    9.0840   -1.0370   22.4370 N   0  0  0  0  0  0  0  0  0  0  0  0
    8.4730   -0.0900   21.6280 C   0  0  0  0  0  0  0  0  0  0  0  0
    9.0850    1.1680   21.2520 O   0  0  0  0  0  0  0  0  0  0  0  0
    7.1500   -0.5380   21.2320 N   0  0  0  0  0  0  0  0  0  0  0  0
    6.5390    0.0560   20.0430 C   0  0  0  0  0  0  0  0  0  0  0  0
    5.3080    0.8760   20.2940 C   0  0  0  0  0  0  0  0  0  0  0  0
    4.6500    1.5030   19.2580 C   0  0  0  0  0  0  0  0  0  0  0  0
    5.1230    1.3840   17.9710 C   0  0  0  0  0  0  0  0  0  0  0  0
    6.3070    0.5910   17.6930 N   0  0  0  0  0  0  0  0  0  0  0  0
    6.9630   -0.0390   18.7320 C   0  0  0  0  0  0  0  0  0  0  0  0
  1  2  1  0
  2  3  1  0
  3  4  1  0
  4  5  1  0
  5  6  1  6
  5  7  1  0
  7  8  1  0
  8  9  1  0
  9 10  2  0
  9 11  1  0
 11 12  1  0
 12 13  2  0
 13 14  1  0
 14 15  2  0
 15 16  1  0
 12 17  1  0
 16 17  2  0
M  END
