pyridine_urea_11677
     RDKit          3D

 27 29  0  0  0  0  0  0  0  0999 V2000
    8.3900    1.5590   21.0110 O   0  0  0  0  0  0  0  0  0  0  0  0
    7.9600    0.4770   21.4180 C   0  0  0  0  0  0  0  0  0  0  0  0
    8.5530   -0.2370   22.3480 N   0  0  0  0  0  0  0  0  0  0  0  0
    9.8090   -0.5870   22.0200 C   0  0  0  0  0  0  0  0  0  0  0  0
   10.4880   -1.2770   22.9230 C   0  0  2  0  0  0  0  0  0  0  0  0
   11.9410   -1.1640   22.6840 C   0  0  0  0  0  0  0  0  0  0  0  0
   12.9970   -0.6920   22.9890 C   0  0  0  0  0  0  0  0  0  0  0  0
   13.0860   -1.5120   21.9510 C   0  0  0  0  0  0  0  0  0  0  0  0
   11.6410   -2.0870   21.6020 C   0  0  0  0  0  0  0  0  0  0  0  0
   12.6920   -2.4640   20.9160 C   0  0  0  0  0  0  0  0  0  0  0  0
   13.0620   -1.6600   21.7880 C   0  0  0  0  0  0  0  0  0  0  0  0
    9.9270   -2.8280   22.9360 S   0  0  0  0  0  0  0  0  0  0  0  0
    9.0120   -3.0010   21.8490 O   0  0  0  0  0  0  0  0  0  0  0  0
   11.2270   -3.3500   22.9610 O   0  0  0  0  0  0  0  0  0  0  0  0
    9.0470   -2.9940   24.5260 C   0  0  0  0  0  0  0  0  0  0  0  0
    8.7500   -1.8020   25.2210 C   0  0  0  0  0  0  0  0  0  0  0  0
    8.0880   -1.7400   26.4610 C   0  0  0  0  0  0  0  0  0  0  0  0
    7.6460   -2.8680   27.1460 C   0  0  0  0  0  0  0  0  0  0  0  0
    7.9000   -4.1940   26.5090 C   0  0  0  0  0  0  0  0  0  0  0  0
    8.6080   -4.3190   25.1770 C   0  0  0  0  0  0  0  0  0  0  0  0
    6.8560   -0.1750   20.9820 N   0  0  0  0  0  0  0  0  0  0  0  0
    6.2010    0.3710   19.9640 C   0  0  0  0  0  0  0  0  0  0  0  0
    5.0080    1.0580   20.0540 C   0  0  0  0  0  0  0  0  0  0  0  0
    4.4450    1.6140   18.9330 C   0  0  0  0  0  0  0  0  0  0  0  0
    5.1200    1.4540   17.7360 C   0  0  0  0  0  0  0  0  0  0  0  0
    6.2750    0.7770   17.6180 N   0  0  0  0  0  0  0  0  0  0  0  0
    6.7860    0.2510   18.7310 C   0  0  0  0  0  0  0  0  0  0  0  0
  1  2  2  0
  2  3  1  0
  3  4  1  0
  5  4  1  6
  5  6  1  0
  6  7  2  0
  7  8  1  0
  8  9  2  0
  9 10  1  0
  6 11  1  0
 10 11  2  0
  5 12  1  0
 12 13  2  0
 12 14  2  0
 12 15  1  0
 15 16  2  0
 16 17  1  0
 17 18  2  0
 18 19  1  0
 15 20  1  0
 19 20  2  0
  2 21  1  0
 21 22  1  0
 22 23  2  0
 23 24  1  0
 24 25  2  0
 25 26  1  0
 22 27  1  0
 26 27  2  0
M  END
