pyridine_urea_14938
     RDKit          3D

 19 19  0  0  0  0  0  0  0  0999 V2000
   10.7750   -1.9630   22.3050 C   0  0  0  0  0  0  0  0  0  0  0  0
   10.2710   -0.5810   22.7330 C   0  0  2  0  0  0  0  0  0  0  0  0
   10.6820   -0.2720   24.1570 C   0  0  0  0  0  0  0  0  0  0  0  0
   12.0150    0.4370   24.2220 C   0  0  0  0  0  0  0  0  0  0  0  0
   12.8330    0.2150   22.9700 C   0  0  0  0  0  0  0  0  0  0  0  0
   12.9970   -1.2190   22.4920 C   0  0  0  0  0  0  0  0  0  0  0  0
   11.8240   -1.8320   22.3230 F   0  0  0  0  0  0  0  0  0  0  0  0
   13.6230   -1.2810   21.3010 F   0  0  0  0  0  0  0  0  0  0  0  0
   13.6730   -1.9800   23.3760 F   0  0  0  0  0  0  0  0  0  0  0  0
    8.8390   -0.4790   22.5560 N   0  0  0  0  0  0  0  0  0  0  0  0
    8.2970    0.2060   21.5060 C   0  0  0  0  0  0  0  0  0  0  0  0
    8.7510    1.2860   21.1080 O   0  0  0  0  0  0  0  0  0  0  0  0
    7.1460   -0.5190   20.9900 N   0  0  0  0  0  0  0  0  0  0  0  0
    6.3970    0.1340   20.0150 C   0  0  0  0  0  0  0  0  0  0  0  0
    5.2120    0.8360   20.2500 C   0  0  0  0  0  0  0  0  0  0  0  0
    4.6190    1.4340   19.1610 C   0  0  0  0  0  0  0  0  0  0  0  0
    5.1860    1.3310   17.9130 C   0  0  0  0  0  0  0  0  0  0  0  0
    6.3110    0.6600   17.6610 N   0  0  0  0  0  0  0  0  0  0  0  0
    6.8880    0.0750   18.7250 C   0  0  0  0  0  0  0  0  0  0  0  0
  2  1  1  1
  2  3  1  0
  3  4  1  0
  4  5  1  0
  5  6  1  0
  6  7  1  0
  6  8  1  0
  6  9  1  0
  2 10  1  0
 10 11  1  0
 11 12  2  0
 11 13  1  0
 13 14  1  0
 14 15  2  0
 15 16  1  0
 16 17  2  0
 17 18  1  0
 14 19  1  0
 18 19  2  0
M  END
