pyridine_urea_3418
     RDKit          3D

 19 20  0  0  0  0  0  0  0  0999 V2000
    9.8860   -1.4670   24.1030 C   0  0  0  0  0  0  0  0  0  0  0  0
   10.3900   -0.4250   23.1590 C   0  0  2  0  0  0  0  0  0  0  0  0
    9.7940   -0.7820   21.8630 N   0  0  0  0  0  0  0  0  0  0  0  0
    8.7380    0.1700   21.4160 C   0  0  0  0  0  0  0  0  0  0  0  0
    9.0160    1.3860   21.2880 O   0  0  0  0  0  0  0  0  0  0  0  0
    7.5120   -0.3920   21.1290 N   0  0  0  0  0  0  0  0  0  0  0  0
    6.6960    0.1160   20.1090 C   0  0  0  0  0  0  0  0  0  0  0  0
    5.5590    0.8230   20.4390 C   0  0  0  0  0  0  0  0  0  0  0  0
    4.6960    1.3950   19.3410 C   0  0  0  0  0  0  0  0  0  0  0  0
    5.1030    1.1760   18.0390 C   0  0  0  0  0  0  0  0  0  0  0  0
    6.2090    0.4750   17.7480 N   0  0  0  0  0  0  0  0  0  0  0  0
    6.9670   -0.0320   18.7550 C   0  0  0  0  0  0  0  0  0  0  0  0
   11.9890   -0.2820   23.1760 C   0  0  0  0  0  0  0  0  0  0  0  0
   12.5660    0.9160   22.7500 C   0  0  0  0  0  0  0  0  0  0  0  0
   12.8300   -0.2260   23.1960 C   0  0  0  0  0  0  0  0  0  0  0  0
   11.4930   -0.8740   23.4290 C   0  0  0  0  0  0  0  0  0  0  0  0
   10.3000   -0.2500   23.1880 F   0  0  0  0  0  0  0  0  0  0  0  0
   11.7980   -2.0360   23.8660 C   0  0  0  0  0  0  0  0  0  0  0  0
   12.8450   -1.4550   23.6600 N   0  0  0  0  0  0  0  0  0  0  0  0
  2  1  1  1
  2  3  1  0
  3  4  1  0
  4  5  2  0
  4  6  1  0
  6  7  1  0
  7  8  2  0
  8  9  1  0
  9 10  2  0
 10 11  1  0
  7 12  1  0
 11 12  2  0
  2 13  1  0
 13 14  2  0
 14 15  1  0
 15 16  2  0
 16 17  1  0
 16 18  1  0
 13 19  1  0
 18 19  2  0
M  END
