pyridine_urea_7032
     RDKit          3D

 20 21  0  0  0  0  0  0  0  0999 V2000
    9.8100    3.1430   22.3330 C   0  0  0  0  0  0  0  0  0  0  0  0
   10.0560    1.5000   22.9610 S   0  0  0  0  0  0  0  0  0  0  0  0
   11.8240    1.2320   22.9210 C   0  0  0  0  0  0  0  0  0  0  0  0
   12.6240    2.1460   22.8070 C   0  0  0  0  0  0  0  0  0  0  0  0
   12.9660    0.7570   22.9020 C   0  0  0  0  0  0  0  0  0  0  0  0
   11.4550    0.4470   23.0130 C   0  0  0  0  0  0  0  0  0  0  0  0
   10.2880   -0.3730   23.1640 C   0  0  2  0  0  0  0  0  0  0  0  0
   10.5630   -1.6720   23.9280 C   0  0  0  0  0  0  0  0  0  0  0  0
    9.6490   -0.7020   21.8810 N   0  0  0  0  0  0  0  0  0  0  0  0
    8.5990    0.0500   21.3380 C   0  0  0  0  0  0  0  0  0  0  0  0
    8.6390    1.2450   21.0040 O   0  0  0  0  0  0  0  0  0  0  0  0
    7.3460   -0.6860   21.1420 N   0  0  0  0  0  0  0  0  0  0  0  0
    6.5670    0.0060   20.0860 C   0  0  0  0  0  0  0  0  0  0  0  0
    5.4240    0.7220   20.4520 C   0  0  0  0  0  0  0  0  0  0  0  0
    4.7260    1.3680   19.4390 C   0  0  0  0  0  0  0  0  0  0  0  0
    5.2030    1.2790   18.0460 C   0  0  0  0  0  0  0  0  0  0  0  0
    6.3030    0.5740   17.7340 N   0  0  0  0  0  0  0  0  0  0  0  0
    6.9570   -0.0460   18.7490 C   0  0  0  0  0  0  0  0  0  0  0  0
   11.9410   -0.9750   23.1140 C   0  0  0  0  0  0  0  0  0  0  0  0
   12.6740    0.0510   22.9910 C   0  0  0  0  0  0  0  0  0  0  0  0
  1  2  1  0
  2  3  1  0
  3  4  2  0
  4  5  1  0
  5  6  2  0
  6  7  1  0
  7  8  1  6
  7  9  1  0
  9 10  1  0
 10 11  2  0
 10 12  1  0
 12 13  1  0
 13 14  2  0
 14 15  1  0
 15 16  2  0
 16 17  1  0
 13 18  1  0
 17 18  2  0
  6 19  1  0
  3 20  1  0
 19 20  2  0
M  END
