pyridine_urea_14563
     RDKit          3D

 21 22  0  0  0  0  0  0  0  0999 V2000
   12.0570    1.9820   23.0290 C   0  0  0  0  0  0  0  0  0  0  0  0
   10.7830    1.1570   22.8840 C   0  0  0  0  0  0  0  0  0  0  0  0
   10.8450   -0.2010   22.4870 C   0  0  2  0  0  0  0  0  0  0  0  0
    9.8070   -1.0150   22.9550 C   0  0  0  0  0  0  0  0  0  0  0  0
    8.5220   -0.3640   22.7960 N   0  0  0  0  0  0  0  0  0  0  0  0
    8.1590    0.1380   21.5510 C   0  0  0  0  0  0  0  0  0  0  0  0
    8.6930    1.1620   21.0790 O   0  0  0  0  0  0  0  0  0  0  0  0
    7.1950   -0.6000   20.9660 N   0  0  0  0  0  0  0  0  0  0  0  0
    6.5420    0.0320   19.9820 C   0  0  0  0  0  0  0  0  0  0  0  0
    5.2500    0.8380   20.2470 C   0  0  0  0  0  0  0  0  0  0  0  0
    4.6080    1.4930   19.1910 C   0  0  0  0  0  0  0  0  0  0  0  0
    5.1680    1.3940   17.9120 C   0  0  0  0  0  0  0  0  0  0  0  0
    6.3080    0.6710   17.6900 N   0  0  0  0  0  0  0  0  0  0  0  0
    6.9900   -0.0040   18.6910 C   0  0  0  0  0  0  0  0  0  0  0  0
   12.0760   -0.8780   22.6060 C   0  0  0  0  0  0  0  0  0  0  0  0
   13.2210   -1.5240   23.5270 C   0  0  0  0  0  0  0  0  0  0  0  0
   13.1300   -1.4770   25.0360 C   0  0  0  0  0  0  0  0  0  0  0  0
   12.2700   -0.9680   24.2530 C   0  0  0  0  0  0  0  0  0  0  0  0
   11.0170   -0.2250   23.3830 Cl  0  0  0  0  0  0  0  0  0  0  0  0
   11.2520   -0.3610   24.9520 C   0  0  0  0  0  0  0  0  0  0  0  0
   11.9460   -0.7800   23.8820 C   0  0  0  0  0  0  0  0  0  0  0  0
  1  2  1  0
  3  2  1  1
  3  4  1  0
  4  5  1  0
  5  6  1  0
  6  7  2  0
  6  8  1  0
  8  9  1  0
  9 10  2  0
 10 11  1  0
 11 12  2  0
 12 13  1  0
  9 14  1  0
 13 14  2  0
  3 15  1  0
 15 16  2  0
 16 17  1  0
 17 18  2  0
 18 19  1  0
 18 20  1  0
 15 21  1  0
 20 21  2  0
M  END
