pyridine_urea_9002
     RDKit          3D

 19 21  0  0  0  0  0  0  0  0999 V2000
    8.6780    1.1580   21.0830 O   0  0  0  0  0  0  0  0  0  0  0  0
    8.0170    0.1570   21.4100 C   0  0  0  0  0  0  0  0  0  0  0  0
    8.2400   -0.5680   22.5020 N   0  0  0  0  0  0  0  0  0  0  0  0
    9.4490   -1.2680   22.5280 C   0  0  0  0  0  0  0  0  0  0  0  0
   10.1000   -0.8740   23.8070 C   0  0  0  0  0  0  0  0  0  0  0  0
    9.6800   -0.9320   25.0130 N   0  0  0  0  0  0  0  0  0  0  0  0
   10.4420   -0.5520   25.9470 N   0  0  0  0  0  0  0  0  0  0  0  0
   11.4440   -0.2450   25.0780 C   0  0  0  0  0  0  0  0  0  0  0  0
   11.4560   -0.3240   23.6850 C   0  0  0  0  0  0  0  0  0  0  0  0
   12.3450   -0.0300   22.7550 C   0  0  0  0  0  0  0  0  0  0  0  0
   13.4600   -0.4570   22.9090 C   0  0  0  0  0  0  0  0  0  0  0  0
   12.8590   -1.3050   21.9350 C   0  0  0  0  0  0  0  0  0  0  0  0
    6.9610   -0.4110   20.7880 N   0  0  0  0  0  0  0  0  0  0  0  0
    6.2700    0.2330   19.8470 C   0  0  0  0  0  0  0  0  0  0  0  0
    5.0570    0.8650   20.1010 C   0  0  0  0  0  0  0  0  0  0  0  0
    4.4390    1.5310   19.0450 C   0  0  0  0  0  0  0  0  0  0  0  0
    5.1320    1.5120   17.7200 C   0  0  0  0  0  0  0  0  0  0  0  0
    6.2920    0.8780   17.5270 N   0  0  0  0  0  0  0  0  0  0  0  0
    6.8240    0.2540   18.6050 C   0  0  0  0  0  0  0  0  0  0  0  0
  1  2  2  0
  2  3  1  0
  3  4  1  0
  4  5  1  0
  5  6  1  0
  6  7  1  0
  7  8  2  0
  5  9  2  0
  8  9  1  0
  9 10  1  0
 10 11  1  0
 10 12  1  0
 11 12  1  0
  2 13  1  0
 13 14  1  0
 14 15  2  0
 15 16  1  0
 16 17  2  0
 17 18  1  0
 14 19  1  0
 18 19  2  0
M  END
