pyridine_urea_14069
     RDKit          3D

 23 25  0  0  0  0  0  0  0  0999 V2000
   13.9420   -3.6420   20.3510 C   0  0  0  0  0  0  0  0  0  0  0  0
   13.4860   -2.7690   20.9640 C   0  0  0  0  0  0  0  0  0  0  0  0
   14.0000   -1.4950   20.5830 N   0  0  0  0  0  0  0  0  0  0  0  0
   13.4520   -0.6930   21.4010 N   0  0  0  0  0  0  0  0  0  0  0  0
   12.6370   -1.4110   22.1350 C   0  0  0  0  0  0  0  0  0  0  0  0
   12.0080   -0.4500   22.8910 C   0  0  0  0  0  0  0  0  0  0  0  0
   12.2090    0.6820   23.4610 C   0  0  0  0  0  0  0  0  0  0  0  0
   11.0650    1.3920   24.1530 C   0  0  0  0  0  0  0  0  0  0  0  0
    9.6230    0.8810   24.2700 C   0  0  0  0  0  0  0  0  0  0  0  0
    8.5690    0.0910   24.1310 C   0  0  0  0  0  0  0  0  0  0  0  0
    7.7420    0.2810   23.0710 N   0  0  0  0  0  0  0  0  0  0  0  0
    8.1180    0.3650   21.7520 C   0  0  0  0  0  0  0  0  0  0  0  0
    8.9750    1.1740   21.3640 O   0  0  0  0  0  0  0  0  0  0  0  0
    7.3880   -0.5080   21.0070 N   0  0  0  0  0  0  0  0  0  0  0  0
    6.5940    0.1080   20.1010 C   0  0  0  0  0  0  0  0  0  0  0  0
    5.4420    0.8340   20.4510 C   0  0  0  0  0  0  0  0  0  0  0  0
    4.6960    1.4480   19.4580 C   0  0  0  0  0  0  0  0  0  0  0  0
    5.1330    1.3260   18.0320 C   0  0  0  0  0  0  0  0  0  0  0  0
    6.3010    0.5710   17.7220 N   0  0  0  0  0  0  0  0  0  0  0  0
    7.0240   -0.0290   18.7050 C   0  0  0  0  0  0  0  0  0  0  0  0
    9.8260   -0.4890   23.4780 C   0  0  0  0  0  0  0  0  0  0  0  0
   10.8730   -1.0670   22.8720 C   0  0  0  0  0  0  0  0  0  0  0  0
   12.6070   -2.7340   21.9540 N   0  0  0  0  0  0  0  0  0  0  0  0
  1  2  1  0
  2  3  2  0
  3  4  1  0
  4  5  2  0
  5  6  1  0
  6  7  2  0
  7  8  1  0
  8  9  2  0
  9 10  1  0
 10 11  1  0
 11 12  1  0
 12 13  2  0
 12 14  1  0
 14 15  1  0
 15 16  2  0
 16 17  1  0
 17 18  2  0
 18 19  1  0
 15 20  1  0
 19 20  2  0
  9 21  1  0
  6 22  1  0
 21 22  2  0
  2 23  1  0
  5 23  1  0
M  END
