pyridine_urea_14198
     RDKit          3D

 22 23  0  0  0  0  0  0  0  0999 V2000
    9.8580    2.6570   23.0400 C   0  0  0  0  0  0  0  0  0  0  0  0
    9.5740    1.4060   23.6980 O   0  0  0  0  0  0  0  0  0  0  0  0
   10.3800    0.3440   23.3280 C   0  0  0  0  0  0  0  0  0  0  0  0
    9.6950   -0.9660   23.3250 C   0  0  0  0  0  0  0  0  0  0  0  0
   10.4080   -2.1320   22.9610 C   0  0  0  0  0  0  0  0  0  0  0  0
   11.6600   -1.7390   22.6760 C   0  0  0  0  0  0  0  0  0  0  0  0
   10.7100   -0.6290   23.0360 C   0  0  2  0  0  0  0  0  0  0  0  0
    9.8430   -0.5170   21.7970 N   0  0  0  0  0  0  0  0  0  0  0  0
    8.7360    0.2290   21.4300 C   0  0  0  0  0  0  0  0  0  0  0  0
    8.9130    1.5750   21.2280 O   0  0  0  0  0  0  0  0  0  0  0  0
    7.4500   -0.4370   21.1860 N   0  0  0  0  0  0  0  0  0  0  0  0
    6.6880    0.0890   20.1470 C   0  0  0  0  0  0  0  0  0  0  0  0
    5.5550    0.8300   20.4600 C   0  0  0  0  0  0  0  0  0  0  0  0
    4.7830    1.3840   19.4330 C   0  0  0  0  0  0  0  0  0  0  0  0
    5.1720    1.1760   18.1210 C   0  0  0  0  0  0  0  0  0  0  0  0
    6.2530    0.4640   17.7910 N   0  0  0  0  0  0  0  0  0  0  0  0
    6.9850   -0.0670   18.7990 C   0  0  0  0  0  0  0  0  0  0  0  0
   11.5390    0.6360   23.3230 C   0  0  0  0  0  0  0  0  0  0  0  0
   11.0990    1.5130   24.2510 F   0  0  0  0  0  0  0  0  0  0  0  0
   12.7440    0.2410   23.8250 F   0  0  0  0  0  0  0  0  0  0  0  0
   12.4900   -0.6600   22.6020 C   0  0  0  0  0  0  0  0  0  0  0  0
   11.7900    0.4910   22.9590 C   0  0  0  0  0  0  0  0  0  0  0  0
  1  2  1  0
  2  3  1  0
  3  4  2  0
  4  5  1  0
  5  6  2  0
  6  7  1  0
  7  8  1  6
  8  9  1  0
  9 10  2  0
  9 11  1  0
 11 12  1  0
 12 13  2  0
 13 14  1  0
 14 15  2  0
 15 16  1  0
 12 17  1  0
 16 17  2  0
  7 18  1  0
 18 19  1  0
 18 20  1  0
  6 21  1  0
  3 22  1  0
 21 22  2  0
M  END
