pyridine_urea_8978
     RDKit          3D

 19 20  0  0  0  0  0  0  0  0999 V2000
    8.2360    1.5010   20.6630 O   0  0  0  0  0  0  0  0  0  0  0  0
    8.1770    0.3790   21.1380 C   0  0  0  0  0  0  0  0  0  0  0  0
    7.1110   -0.4320   20.9570 N   0  0  0  0  0  0  0  0  0  0  0  0
    6.4600    0.1350   19.8540 C   0  0  0  0  0  0  0  0  0  0  0  0
    5.1890    0.9300   20.1480 C   0  0  0  0  0  0  0  0  0  0  0  0
    4.5280    1.5540   19.1050 C   0  0  0  0  0  0  0  0  0  0  0  0
    5.0730    1.4140   17.8320 C   0  0  0  0  0  0  0  0  0  0  0  0
    6.2060    0.6750   17.6280 N   0  0  0  0  0  0  0  0  0  0  0  0
    6.9160    0.0260   18.6200 C   0  0  0  0  0  0  0  0  0  0  0  0
    9.1230   -0.1390   21.8680 N   0  0  0  0  0  0  0  0  0  0  0  0
    9.9890   -0.5040   22.7310 C   0  0  0  0  0  0  0  0  0  0  0  0
    9.5750   -0.1380   23.9740 C   0  0  0  0  0  0  0  0  0  0  0  0
   10.3130   -0.4110   25.0580 C   0  0  0  0  0  0  0  0  0  0  0  0
    9.4110    0.1590   26.6500 Br  0  0  0  0  0  0  0  0  0  0  0  0
   11.5530   -1.0660   24.9130 C   0  0  0  0  0  0  0  0  0  0  0  0
   11.9730   -1.4600   23.6560 C   0  0  0  0  0  0  0  0  0  0  0  0
   13.5450   -2.3930   23.4860 Br  0  0  0  0  0  0  0  0  0  0  0  0
   11.1520   -1.1630   22.5050 C   0  0  0  0  0  0  0  0  0  0  0  0
   11.5240   -1.5160   21.3950 O   0  0  0  0  0  0  0  0  0  0  0  0
  1  2  2  0
  2  3  1  0
  3  4  1  0
  4  5  2  0
  5  6  1  0
  6  7  2  0
  7  8  1  0
  4  9  1  0
  8  9  2  0
  2 10  1  0
 10 11  1  0
 11 12  2  0
 12 13  1  0
 13 14  1  0
 13 15  2  0
 15 16  1  0
 16 17  1  0
 11 18  1  0
 16 18  2  0
 18 19  1  0
M  END
