pyridine_urea_14960
     RDKit          3D

 19 21  0  0  0  0  0  0  0  0999 V2000
   13.0610   -2.1590   21.0830 C   0  0  0  0  0  0  0  0  0  0  0  0
   12.8560   -2.2730   22.4320 N   0  0  0  0  0  0  0  0  0  0  0  0
   13.7460   -2.9550   23.2810 N   0  0  0  0  0  0  0  0  0  0  0  0
   13.1490   -2.8200   24.5780 C   0  0  0  0  0  0  0  0  0  0  0  0
   11.9220   -2.0460   24.3850 C   0  0  0  0  0  0  0  0  0  0  0  0
   11.7330   -1.6820   22.9450 C   0  0  0  0  0  0  0  0  0  0  0  0
   10.5490   -0.8530   22.4940 C   0  0  0  0  0  0  0  0  0  0  0  0
    9.5860   -1.2150   21.5870 N   0  0  0  0  0  0  0  0  0  0  0  0
    8.5740   -0.2610   21.3420 C   0  0  0  0  0  0  0  0  0  0  0  0
    8.8250    0.9340   21.4100 O   0  0  0  0  0  0  0  0  0  0  0  0
    7.3470   -0.7530   20.9940 N   0  0  0  0  0  0  0  0  0  0  0  0
    6.5790   -0.1010   20.0240 C   0  0  0  0  0  0  0  0  0  0  0  0
    5.4070    0.5740   20.3500 C   0  0  0  0  0  0  0  0  0  0  0  0
    4.6760    1.2330   19.3780 C   0  0  0  0  0  0  0  0  0  0  0  0
    5.1090    1.2240   18.0740 C   0  0  0  0  0  0  0  0  0  0  0  0
    6.2290    0.5750   17.7160 N   0  0  0  0  0  0  0  0  0  0  0  0
    6.9320   -0.0670   18.6880 C   0  0  0  0  0  0  0  0  0  0  0  0
   10.8750    0.5640   22.6740 C   0  0  0  0  0  0  0  0  0  0  0  0
   10.0860   -0.0030   23.5330 C   0  0  0  0  0  0  0  0  0  0  0  0
  1  2  1  0
  2  3  1  0
  3  4  2  0
  4  5  1  0
  2  6  1  0
  5  6  2  0
  6  7  1  0
  7  8  1  0
  8  9  1  0
  9 10  2  0
  9 11  1  0
 11 12  1  0
 12 13  2  0
 13 14  1  0
 14 15  2  0
 15 16  1  0
 12 17  1  0
 16 17  2  0
  7 18  1  0
  7 19  1  0
 18 19  1  0
M  END
