pyridine_urea_14788
     RDKit          3D

 20 21  0  0  0  0  0  0  0  0999 V2000
   11.3920    1.7580   23.6460 C   0  0  0  0  0  0  0  0  0  0  0  0
   10.0640    1.0170   23.7610 C   0  0  0  0  0  0  0  0  0  0  0  0
   10.0660   -0.2570   23.2350 C   0  0  2  0  0  0  0  0  0  0  0  0
   11.1220   -0.4960   22.3970 C   0  0  0  0  0  0  0  0  0  0  0  0
   12.0360   -1.1110   23.1150 C   0  0  0  0  0  0  0  0  0  0  0  0
   12.1940   -0.6410   24.3900 C   0  0  0  0  0  0  0  0  0  0  0  0
   13.1730   -1.3270   25.2530 C   0  0  0  0  0  0  0  0  0  0  0  0
   13.8990   -2.3690   24.8350 C   0  0  0  0  0  0  0  0  0  0  0  0
   13.7170   -2.7860   23.5190 C   0  0  0  0  0  0  0  0  0  0  0  0
   12.8020   -2.1780   22.6690 C   0  0  0  0  0  0  0  0  0  0  0  0
    8.8020   -0.6570   22.6600 N   0  0  0  0  0  0  0  0  0  0  0  0
    8.3360    0.1990   21.5990 C   0  0  0  0  0  0  0  0  0  0  0  0
    8.9320    1.2160   21.2180 O   0  0  0  0  0  0  0  0  0  0  0  0
    7.1220   -0.3050   21.1220 N   0  0  0  0  0  0  0  0  0  0  0  0
    6.5240    0.2140   19.9270 C   0  0  0  0  0  0  0  0  0  0  0  0
    5.3960    0.9880   20.2390 C   0  0  0  0  0  0  0  0  0  0  0  0
    4.6990    1.5960   19.2010 C   0  0  0  0  0  0  0  0  0  0  0  0
    5.1290    1.4250   17.8990 C   0  0  0  0  0  0  0  0  0  0  0  0
    6.2130    0.6640   17.6070 N   0  0  0  0  0  0  0  0  0  0  0  0
    6.9200    0.0500   18.6310 C   0  0  0  0  0  0  0  0  0  0  0  0
  1  2  1  0
  3  2  1  6
  3  4  1  0
  4  5  1  0
  5  6  2  0
  6  7  1  0
  7  8  2  0
  8  9  1  0
  5 10  1  0
  9 10  2  0
  3 11  1  0
 11 12  1  0
 12 13  2  0
 12 14  1  0
 14 15  1  0
 15 16  2  0
 16 17  1  0
 17 18  2  0
 18 19  1  0
 15 20  1  0
 19 20  2  0
M  END
