pyridine_urea_5022
     RDKit          3D

 21 22  0  0  0  0  0  0  0  0999 V2000
   11.2680    4.9390   24.1990 C   0  0  0  0  0  0  0  0  0  0  0  0
   10.8620    3.6080   23.6280 C   0  0  0  0  0  0  0  0  0  0  0  0
    9.5080    3.1890   23.8600 O   0  0  0  0  0  0  0  0  0  0  0  0
   11.8450    2.8240   22.8950 N   0  0  0  0  0  0  0  0  0  0  0  0
   11.6790    1.3350   22.8220 C   0  0  0  0  0  0  0  0  0  0  0  0
   10.3930    0.8390   22.7800 C   0  0  0  0  0  0  0  0  0  0  0  0
   10.1530   -0.5160   22.6740 C   0  0  0  0  0  0  0  0  0  0  0  0
    8.8850   -0.9230   22.6020 N   0  0  0  0  0  0  0  0  0  0  0  0
    8.2320   -0.2120   21.6490 C   0  0  0  0  0  0  0  0  0  0  0  0
    8.6620    0.8620   21.2600 O   0  0  0  0  0  0  0  0  0  0  0  0
    7.0160   -0.8430   21.1630 N   0  0  0  0  0  0  0  0  0  0  0  0
    6.4340   -0.1450   20.0400 C   0  0  0  0  0  0  0  0  0  0  0  0
    5.1360    0.6340   20.2770 C   0  0  0  0  0  0  0  0  0  0  0  0
    4.5510    1.3300   19.2250 C   0  0  0  0  0  0  0  0  0  0  0  0
    5.1980    1.2700   18.0040 C   0  0  0  0  0  0  0  0  0  0  0  0
    6.3410    0.5910   17.7550 N   0  0  0  0  0  0  0  0  0  0  0  0
    6.9320   -0.0980   18.7570 C   0  0  0  0  0  0  0  0  0  0  0  0
   11.2540   -1.3610   22.6280 C   0  0  0  0  0  0  0  0  0  0  0  0
   12.5440   -0.8760   22.6790 C   0  0  0  0  0  0  0  0  0  0  0  0
   12.7750    0.4790   22.7710 C   0  0  0  0  0  0  0  0  0  0  0  0
   14.0220    0.8900   22.7860 F   0  0  0  0  0  0  0  0  0  0  0  0
  1  2  1  0
  2  3  2  0
  2  4  1  0
  4  5  1  0
  5  6  2  0
  6  7  1  0
  7  8  1  0
  8  9  1  0
  9 10  2  0
  9 11  1  0
 11 12  1  0
 12 13  2  0
 13 14  1  0
 14 15  2  0
 15 16  1  0
 12 17  1  0
 16 17  2  0
  7 18  2  0
 18 19  1  0
  5 20  1  0
 19 20  2  0
 20 21  1  0
M  END
