pyridine_urea_12049
     RDKit          3D

 23 24  0  0  0  0  0  0  0  0999 V2000
   10.1370   -1.2280   21.7810 C   0  0  0  0  0  0  0  0  0  0  0  0
    9.6900   -0.4000   22.9780 C   0  0  2  0  0  0  0  0  0  0  0  0
    8.3950    0.1120   22.7910 N   0  0  0  0  0  0  0  0  0  0  0  0
    8.1460    0.5170   21.5450 C   0  0  0  0  0  0  0  0  0  0  0  0
    8.7630    1.4490   21.0300 O   0  0  0  0  0  0  0  0  0  0  0  0
    7.1570   -0.2420   21.0060 N   0  0  0  0  0  0  0  0  0  0  0  0
    6.4620    0.2970   19.9000 C   0  0  0  0  0  0  0  0  0  0  0  0
    5.3210    1.0340   20.1210 C   0  0  0  0  0  0  0  0  0  0  0  0
    4.5970    1.6330   19.1000 C   0  0  0  0  0  0  0  0  0  0  0  0
    5.0890    1.4520   17.8110 C   0  0  0  0  0  0  0  0  0  0  0  0
    6.2120    0.7090   17.5830 N   0  0  0  0  0  0  0  0  0  0  0  0
    6.9010    0.1280   18.6250 C   0  0  0  0  0  0  0  0  0  0  0  0
   10.6770    0.6600   23.3700 C   0  0  0  0  0  0  0  0  0  0  0  0
   10.9740    1.7830   23.5920 C   0  0  0  0  0  0  0  0  0  0  0  0
   11.8910    0.6970   23.6940 C   0  0  0  0  0  0  0  0  0  0  0  0
   11.8100   -0.8640   23.4600 C   0  0  0  0  0  0  0  0  0  0  0  0
   12.8780   -0.5510   23.8030 C   0  0  0  0  0  0  0  0  0  0  0  0
   13.9900   -1.2100   24.0250 O   0  0  0  0  0  0  0  0  0  0  0  0
   13.7210   -2.6010   24.0110 C   0  0  0  0  0  0  0  0  0  0  0  0
   12.5070   -3.1360   23.8570 F   0  0  0  0  0  0  0  0  0  0  0  0
   13.3310   -2.3610   22.7310 F   0  0  0  0  0  0  0  0  0  0  0  0
   13.1340   -2.4260   25.2150 F   0  0  0  0  0  0  0  0  0  0  0  0
   12.1400    0.6760   23.7600 C   0  0  0  0  0  0  0  0  0  0  0  0
  2  1  1  6
  2  3  1  0
  3  4  1  0
  4  5  2  0
  4  6  1  0
  6  7  1  0
  7  8  2  0
  8  9  1  0
  9 10  2  0
 10 11  1  0
  7 12  1  0
 11 12  2  0
  2 13  1  0
 13 14  2  0
 14 15  1  0
 15 16  2  0
 16 17  1  0
 17 18  1  0
 18 19  1  0
 19 20  1  0
 19 21  1  0
 19 22  1  0
 13 23  1  0
 17 23  2  0
M  END
