pyridine_urea_13216
     RDKit          3D

 17 17  0  0  0  0  0  0  0  0999 V2000
    8.4560    3.8090   25.6020 C   0  0  0  0  0  0  0  0  0  0  0  0
    8.4750    4.2400   24.2440 O   0  0  0  0  0  0  0  0  0  0  0  0
    7.7740    3.2850   23.4490 N   0  0  0  0  0  0  0  0  0  0  0  0
    7.7520    3.7030   22.0970 C   0  0  0  0  0  0  0  0  0  0  0  0
    8.3100    1.9070   23.5440 C   0  0  0  0  0  0  0  0  0  0  0  0
    9.4900    1.5970   23.5880 O   0  0  0  0  0  0  0  0  0  0  0  0
    7.4550    0.8040   23.5920 C   0  0  0  0  0  0  0  0  0  0  0  0
    8.0930   -0.3890   23.0330 N   0  0  0  0  0  0  0  0  0  0  0  0
    8.3560   -0.3540   21.7080 C   0  0  0  0  0  0  0  0  0  0  0  0
    9.4080    0.0430   21.2720 O   0  0  0  0  0  0  0  0  0  0  0  0
    7.2660   -0.8030   20.9930 N   0  0  0  0  0  0  0  0  0  0  0  0
    6.5690   -0.0880   20.0070 C   0  0  0  0  0  0  0  0  0  0  0  0
    5.3860    0.5820   20.3130 C   0  0  0  0  0  0  0  0  0  0  0  0
    4.6430    1.3600   19.2210 C   0  0  0  0  0  0  0  0  0  0  0  0
    5.2140    1.3470   17.9580 C   0  0  0  0  0  0  0  0  0  0  0  0
    6.3580    0.6860   17.6980 N   0  0  0  0  0  0  0  0  0  0  0  0
    6.9740    0.0120   18.6980 C   0  0  0  0  0  0  0  0  0  0  0  0
  1  2  1  0
  2  3  1  0
  3  4  1  0
  3  5  1  0
  5  6  2  0
  5  7  1  0
  7  8  1  0
  8  9  1  0
  9 10  2  0
  9 11  1  0
 11 12  1  0
 12 13  2  0
 13 14  1  0
 14 15  2  0
 15 16  1  0
 12 17  1  0
 16 17  2  0
M  END
