pyridine_urea_10379
     RDKit          3D

 23 25  0  0  0  0  0  0  0  0999 V2000
    9.0130    0.8050   21.4430 O   0  0  0  0  0  0  0  0  0  0  0  0
    8.4570   -0.2750   21.6170 C   0  0  0  0  0  0  0  0  0  0  0  0
    8.9270   -1.2920   22.4160 N   0  0  0  0  0  0  0  0  0  0  0  0
    8.6670   -1.4740   23.7950 C   0  0  0  0  0  0  0  0  0  0  0  0
    8.4360   -2.8720   24.3990 C   0  0  0  0  0  0  0  0  0  0  0  0
    8.3080   -3.0310   25.7260 N   0  0  0  0  0  0  0  0  0  0  0  0
    8.1140   -4.3560   26.0330 C   0  0  0  0  0  0  0  0  0  0  0  0
    7.9370   -4.8700   27.4440 C   0  0  0  0  0  0  0  0  0  0  0  0
    6.6180   -5.0400   27.8380 C   0  0  0  0  0  0  0  0  0  0  0  0
    5.8490   -6.1800   27.6040 C   0  0  0  0  0  0  0  0  0  0  0  0
    4.5370   -6.3030   28.0180 C   0  0  0  0  0  0  0  0  0  0  0  0
    3.9090   -5.2890   28.6920 C   0  0  0  0  0  0  0  0  0  0  0  0
    4.5700   -4.1090   28.9800 C   0  0  0  0  0  0  0  0  0  0  0  0
    5.9230   -3.8530   28.6130 C   0  0  0  0  0  0  0  0  0  0  0  0
    8.1180   -5.0680   24.8380 N   0  0  0  0  0  0  0  0  0  0  0  0
    8.3160   -4.1290   23.8600 N   0  0  0  0  0  0  0  0  0  0  0  0
    7.2580   -0.6460   21.0400 N   0  0  0  0  0  0  0  0  0  0  0  0
    6.5700   -0.0050   20.0660 C   0  0  0  0  0  0  0  0  0  0  0  0
    5.2970    0.8060   20.3540 C   0  0  0  0  0  0  0  0  0  0  0  0
    4.6870    1.4290   19.2870 C   0  0  0  0  0  0  0  0  0  0  0  0
    5.2300    1.3040   18.0220 C   0  0  0  0  0  0  0  0  0  0  0  0
    6.3260    0.6040   17.7290 N   0  0  0  0  0  0  0  0  0  0  0  0
    6.9740   -0.0350   18.7390 C   0  0  0  0  0  0  0  0  0  0  0  0
  1  2  2  0
  2  3  1  0
  3  4  1  0
  4  5  1  0
  5  6  2  0
  6  7  1  0
  7  8  1  0
  8  9  1  0
  9 10  2  0
 10 11  1  0
 11 12  2  0
 12 13  1  0
  9 14  1  0
 13 14  2  0
  7 15  2  0
  5 16  1  0
 15 16  1  0
  2 17  1  0
 17 18  1  0
 18 19  2  0
 19 20  1  0
 20 21  2  0
 21 22  1  0
 18 23  1  0
 22 23  2  0
M  END
