pyridine_urea_2311
     RDKit          3D

 25 27  0  0  0  0  0  0  0  0999 V2000
    8.9570    0.8750   21.3310 O   0  0  0  0  0  0  0  0  0  0  0  0
    8.4670   -0.2080   21.6030 C   0  0  0  0  0  0  0  0  0  0  0  0
    8.9500   -1.1080   22.5200 N   0  0  0  0  0  0  0  0  0  0  0  0
    9.7900   -2.2160   22.2870 C   0  0  0  0  0  0  0  0  0  0  0  0
   10.7610   -2.4940   23.2500 C   0  0  0  0  0  0  0  0  0  0  0  0
   12.0710   -2.0310   23.0910 C   0  0  0  0  0  0  0  0  0  0  0  0
   13.0070   -2.3240   24.0750 C   0  0  0  0  0  0  0  0  0  0  0  0
   12.7510   -3.0320   25.1940 N   0  0  0  0  0  0  0  0  0  0  0  0
   11.4760   -3.4820   25.3370 C   0  0  0  0  0  0  0  0  0  0  0  0
   10.4800   -3.2330   24.4030 C   0  0  0  0  0  0  0  0  0  0  0  0
    9.1890   -3.7770   24.6930 O   0  0  0  0  0  0  0  0  0  0  0  0
    8.7100   -3.5860   25.9530 C   0  0  0  0  0  0  0  0  0  0  0  0
    7.8110   -4.4750   26.5590 C   0  0  0  0  0  0  0  0  0  0  0  0
    8.0160   -4.9190   27.8770 C   0  0  0  0  0  0  0  0  0  0  0  0
    7.1170   -5.8050   28.4790 C   0  0  0  0  0  0  0  0  0  0  0  0
    6.0050   -6.2540   27.7790 C   0  0  0  0  0  0  0  0  0  0  0  0
    5.8260   -5.7990   26.4810 C   0  0  0  0  0  0  0  0  0  0  0  0
    6.6910   -4.9240   25.8490 C   0  0  0  0  0  0  0  0  0  0  0  0
    7.3070   -0.6620   21.0130 N   0  0  0  0  0  0  0  0  0  0  0  0
    6.5350    0.0160   20.0550 C   0  0  0  0  0  0  0  0  0  0  0  0
    5.3650    0.7370   20.3090 C   0  0  0  0  0  0  0  0  0  0  0  0
    4.6890    1.3820   19.2690 C   0  0  0  0  0  0  0  0  0  0  0  0
    5.1850    1.3060   17.9750 C   0  0  0  0  0  0  0  0  0  0  0  0
    6.2900    0.6270   17.6620 N   0  0  0  0  0  0  0  0  0  0  0  0
    6.9640   -0.0270   18.7490 C   0  0  0  0  0  0  0  0  0  0  0  0
  1  2  2  0
  2  3  1  0
  3  4  1  0
  4  5  1  0
  5  6  2  0
  6  7  1  0
  7  8  2  0
  8  9  1  0
  5 10  1  0
  9 10  2  0
 10 11  1  0
 11 12  1  0
 12 13  1  0
 13 14  2  0
 14 15  1  0
 15 16  2  0
 16 17  1  0
 13 18  1  0
 17 18  2  0
  2 19  1  0
 19 20  1  0
 20 21  2  0
 21 22  1  0
 22 23  2  0
 23 24  1  0
 20 25  1  0
 24 25  2  0
M  END
