pyridine_urea_3507
     RDKit          3D

 18 19  0  0  0  0  0  0  0  0999 V2000
    3.1200    1.6810   19.7760 C   0  0  0  0  0  0  0  0  0  0  0  0
    4.0640    2.4620   18.8430 C   0  0  0  0  0  0  0  0  0  0  0  0
    5.0560    1.5150   18.1910 C   0  0  0  0  0  0  0  0  0  0  0  0
    5.0040    1.4980   19.5700 N   0  0  0  0  0  0  0  0  0  0  0  0
    5.7780    0.7050   20.1950 C   0  0  0  0  0  0  0  0  0  0  0  0
    6.7920   -0.2840   20.0460 C   0  0  0  0  0  0  0  0  0  0  0  0
    7.4460   -0.9670   21.0570 N   0  0  0  0  0  0  0  0  0  0  0  0
    8.6110   -0.5040   21.6020 C   0  0  0  0  0  0  0  0  0  0  0  0
    8.9520    0.6690   21.5130 O   0  0  0  0  0  0  0  0  0  0  0  0
    9.2980   -1.5160   22.2180 N   0  0  0  0  0  0  0  0  0  0  0  0
   10.5830   -1.3520   22.7230 C   0  0  0  0  0  0  0  0  0  0  0  0
   11.6620   -1.4010   21.9320 C   0  0  0  0  0  0  0  0  0  0  0  0
   12.9160   -1.2160   22.3720 C   0  0  0  0  0  0  0  0  0  0  0  0
   13.2510   -0.9670   23.6700 C   0  0  0  0  0  0  0  0  0  0  0  0
   12.0010   -0.9890   24.2540 N   0  0  0  0  0  0  0  0  0  0  0  0
   10.6320   -1.1400   24.0590 C   0  0  0  0  0  0  0  0  0  0  0  0
    6.8710   -0.2950   18.7220 C   0  0  0  0  0  0  0  0  0  0  0  0
    6.0700    0.5300   17.9240 N   0  0  0  0  0  0  0  0  0  0  0  0
  1  2  1  0
  2  3  1  0
  3  4  2  0
  4  5  1  0
  5  6  2  0
  6  7  1  0
  7  8  1  0
  8  9  2  0
  8 10  1  0
 10 11  1  0
 11 12  2  0
 12 13  1  0
 13 14  2  0
 14 15  1  0
 11 16  1  0
 15 16  2  0
  6 17  1  0
  3 18  1  0
 17 18  2  0
M  END
