pyridine_urea_14448
     RDKit          3D

 20 21  0  0  0  0  0  0  0  0999 V2000
    9.7500    0.6360   24.0710 C   0  0  0  0  0  0  0  0  0  0  0  0
    9.7750   -0.7900   23.6000 C   0  0  1  0  0  0  0  0  0  0  0  0
    8.7360   -1.1240   22.6390 N   0  0  0  0  0  0  0  0  0  0  0  0
    8.3170   -0.2120   21.7030 C   0  0  0  0  0  0  0  0  0  0  0  0
    8.9360    0.8070   21.4270 O   0  0  0  0  0  0  0  0  0  0  0  0
    7.1250   -0.6050   21.1590 N   0  0  0  0  0  0  0  0  0  0  0  0
    6.4400    0.0670   20.0340 C   0  0  0  0  0  0  0  0  0  0  0  0
    5.2700    0.7650   20.3210 C   0  0  0  0  0  0  0  0  0  0  0  0
    4.5410    1.4810   19.2420 C   0  0  0  0  0  0  0  0  0  0  0  0
    5.1940    1.3610   17.8900 C   0  0  0  0  0  0  0  0  0  0  0  0
    6.3270    0.6620   17.6720 N   0  0  0  0  0  0  0  0  0  0  0  0
    6.9130    0.0390   18.7310 C   0  0  0  0  0  0  0  0  0  0  0  0
   11.0990   -1.0770   22.9700 C   0  0  0  0  0  0  0  0  0  0  0  0
   11.5190   -2.2020   22.2820 C   0  0  0  0  0  0  0  0  0  0  0  0
   12.8070   -1.4530   22.1590 C   0  0  0  0  0  0  0  0  0  0  0  0
   13.0350   -0.1230   22.7010 C   0  0  0  0  0  0  0  0  0  0  0  0
   11.7780   -0.4440   23.0190 F   0  0  0  0  0  0  0  0  0  0  0  0
   12.4730    0.8970   23.3890 C   0  0  0  0  0  0  0  0  0  0  0  0
   12.1210   -0.3070   22.9530 C   0  0  0  0  0  0  0  0  0  0  0  0
   13.3890   -1.0740   22.1140 Cl  0  0  0  0  0  0  0  0  0  0  0  0
  2  1  1  6
  2  3  1  0
  3  4  1  0
  4  5  2  0
  4  6  1  0
  6  7  1  0
  7  8  2  0
  8  9  1  0
  9 10  2  0
 10 11  1  0
  7 12  1  0
 11 12  2  0
  2 13  1  0
 13 14  2  0
 14 15  1  0
 15 16  2  0
 16 17  1  0
 16 18  1  0
 13 19  1  0
 18 19  2  0
 19 20  1  0
M  END
