pyridine_urea_2638
     RDKit          3D

 23 25  0  0  0  0  0  0  0  0999 V2000
    6.5800    1.2070   24.3900 C   0  0  0  0  0  0  0  0  0  0  0  0
    7.7040    0.1770   24.3160 C   0  0  0  0  0  0  0  0  0  0  0  0
    8.3440    0.0690   25.6200 N   0  0  0  0  0  0  0  0  0  0  0  0
    7.6420    0.1730   26.7540 N   0  0  0  0  0  0  0  0  0  0  0  0
    8.5740    0.0170   27.7310 N   0  0  0  0  0  0  0  0  0  0  0  0
    9.8280   -0.1660   27.1920 N   0  0  0  0  0  0  0  0  0  0  0  0
    9.6960   -0.1560   25.8860 C   0  0  0  0  0  0  0  0  0  0  0  0
   10.5800   -0.3450   24.7950 C   0  0  0  0  0  0  0  0  0  0  0  0
   11.9830   -0.3300   24.7580 C   0  0  0  0  0  0  0  0  0  0  0  0
   12.6670   -0.5870   23.5600 C   0  0  0  0  0  0  0  0  0  0  0  0
   11.9800   -0.8660   22.3860 C   0  0  0  0  0  0  0  0  0  0  0  0
   10.4520   -0.8850   22.3670 C   0  0  0  0  0  0  0  0  0  0  0  0
    9.5810   -1.0990   21.4340 N   0  0  0  0  0  0  0  0  0  0  0  0
    8.5400   -0.2190   21.2200 C   0  0  0  0  0  0  0  0  0  0  0  0
    8.7400    0.9880   21.2620 O   0  0  0  0  0  0  0  0  0  0  0  0
    7.3220   -0.6940   20.9380 N   0  0  0  0  0  0  0  0  0  0  0  0
    6.4920   -0.0110   20.0400 C   0  0  0  0  0  0  0  0  0  0  0  0
    5.3170    0.6730   20.3450 C   0  0  0  0  0  0  0  0  0  0  0  0
    4.6220    1.3190   19.3270 C   0  0  0  0  0  0  0  0  0  0  0  0
    5.1260    1.2600   18.0320 C   0  0  0  0  0  0  0  0  0  0  0  0
    6.2480    0.6020   17.7150 N   0  0  0  0  0  0  0  0  0  0  0  0
    6.8930   -0.0110   18.7200 C   0  0  0  0  0  0  0  0  0  0  0  0
    9.8740   -0.5990   23.6760 C   0  0  0  0  0  0  0  0  0  0  0  0
  1  2  1  0
  2  3  1  0
  3  4  1  0
  4  5  2  0
  5  6  1  0
  3  7  1  0
  6  7  2  0
  7  8  1  0
  8  9  2  0
  9 10  1  0
 10 11  2  0
 11 12  1  0
 12 13  1  0
 13 14  1  0
 14 15  2  0
 14 16  1  0
 16 17  1  0
 17 18  2  0
 18 19  1  0
 19 20  2  0
 20 21  1  0
 17 22  1  0
 21 22  2  0
  8 23  1  0
 12 23  2  0
M  END
