pyridine_urea_1173
     RDKit          3D

 21 23  0  0  0  0  0  0  0  0999 V2000
   12.6250   -3.0820   24.7920 C   0  0  0  0  0  0  0  0  0  0  0  0
   12.3350   -1.9020   23.9000 C   0  0  0  0  0  0  0  0  0  0  0  0
   13.4270   -1.0560   23.8680 C   0  0  0  0  0  0  0  0  0  0  0  0
   13.3210    0.0360   23.1600 C   0  0  0  0  0  0  0  0  0  0  0  0
   12.2270    0.3490   22.4740 C   0  0  0  0  0  0  0  0  0  0  0  0
   10.9980   -0.3820   22.3420 C   0  0  0  0  0  0  0  0  0  0  0  0
   11.2480   -1.5610   23.1870 C   0  0  0  0  0  0  0  0  0  0  0  0
   10.4390   -2.4220   23.3770 O   0  0  0  0  0  0  0  0  0  0  0  0
    9.6330   -1.7460   24.2780 C   0  0  0  0  0  0  0  0  0  0  0  0
    9.2100   -0.8340   23.4180 C   0  0  0  0  0  0  0  0  0  0  0  0
    9.9150   -1.1920   22.3270 C   0  0  1  0  0  0  0  0  0  0  0  0
    9.0930   -0.9420   21.2140 N   0  0  0  0  0  0  0  0  0  0  0  0
    8.3360    0.1790   21.1910 C   0  0  0  0  0  0  0  0  0  0  0  0
    8.7910    1.3250   21.2460 O   0  0  0  0  0  0  0  0  0  0  0  0
    7.0330   -0.1780   21.0590 N   0  0  0  0  0  0  0  0  0  0  0  0
    6.3540    0.3380   19.9830 C   0  0  0  0  0  0  0  0  0  0  0  0
    5.1930    1.0420   20.2200 C   0  0  0  0  0  0  0  0  0  0  0  0
    4.5230    1.5980   19.0910 C   0  0  0  0  0  0  0  0  0  0  0  0
    5.1020    1.3770   17.8670 C   0  0  0  0  0  0  0  0  0  0  0  0
    6.2160    0.6850   17.6400 N   0  0  0  0  0  0  0  0  0  0  0  0
    6.8180    0.1780   18.7060 C   0  0  0  0  0  0  0  0  0  0  0  0
  1  2  1  0
  2  3  2  0
  3  4  1  0
  4  5  2  0
  5  6  1  0
  2  7  1  0
  6  7  2  0
  7  8  1  0
  8  9  1  0
  9 10  1  0
  6 11  1  0
 10 11  1  0
 11 12  1  6
 12 13  1  0
 13 14  2  0
 13 15  1  0
 15 16  1  0
 16 17  2  0
 17 18  1  0
 18 19  2  0
 19 20  1  0
 16 21  1  0
 20 21  2  0
M  END
