pyridine_urea_12420
     RDKit          3D

 22 23  0  0  0  0  0  0  0  0999 V2000
   10.3000    0.3870   23.9050 C   0  0  0  0  0  0  0  0  0  0  0  0
   10.1490   -0.1330   22.4540 C   0  0  2  0  0  0  0  0  0  0  0  0
    8.8870   -0.7900   22.3100 N   0  0  0  0  0  0  0  0  0  0  0  0
    8.2480    0.0190   21.2960 C   0  0  0  0  0  0  0  0  0  0  0  0
    8.7300    1.0870   20.8840 O   0  0  0  0  0  0  0  0  0  0  0  0
    6.9730   -0.6390   20.8710 N   0  0  0  0  0  0  0  0  0  0  0  0
    6.3540    0.0900   19.7860 C   0  0  0  0  0  0  0  0  0  0  0  0
    5.0880    0.9380   20.0480 C   0  0  0  0  0  0  0  0  0  0  0  0
    4.5240    1.6260   18.9910 C   0  0  0  0  0  0  0  0  0  0  0  0
    5.1490    1.5360   17.6110 C   0  0  0  0  0  0  0  0  0  0  0  0
    6.2860    0.7550   17.4410 N   0  0  0  0  0  0  0  0  0  0  0  0
    6.8730    0.0450   18.4950 C   0  0  0  0  0  0  0  0  0  0  0  0
   11.2160   -1.1820   22.2170 C   0  0  1  0  0  0  0  0  0  0  0  0
   11.8230   -1.3440   21.1800 O   0  0  0  0  0  0  0  0  0  0  0  0
   12.2350   -0.6380   23.1240 C   0  0  0  0  0  0  0  0  0  0  0  0
   11.7200   -1.7960   23.8310 C   0  0  0  0  0  0  0  0  0  0  0  0
   10.8100   -2.6620   23.3660 F   0  0  0  0  0  0  0  0  0  0  0  0
   12.5250   -1.7130   25.1680 C   0  0  0  0  0  0  0  0  0  0  0  0
   13.5140   -0.7350   25.6550 C   0  0  0  0  0  0  0  0  0  0  0  0
   13.3720   -0.2240   24.6460 C   0  0  0  0  0  0  0  0  0  0  0  0
   12.5200   -1.1790   24.5150 C   0  0  0  0  0  0  0  0  0  0  0  0
   13.1430   -1.2120   25.6120 F   0  0  0  0  0  0  0  0  0  0  0  0
  2  1  1  1
  2  3  1  0
  3  4  1  0
  4  5  2  0
  4  6  1  0
  6  7  1  0
  7  8  2  0
  8  9  1  0
  9 10  2  0
 10 11  1  0
  7 12  1  0
 11 12  2  0
  2 13  1  0
 13 14  1  6
 13 15  1  0
 15 16  2  0
 16 17  1  0
 16 18  1  0
 18 19  2  0
 19 20  1  0
 15 21  1  0
 20 21  2  0
 21 22  1  0
M  END
