pyridine_urea_7057
     RDKit          3D

 20 22  0  0  0  0  0  0  0  0999 V2000
    8.7730    0.9470   21.4610 O   0  0  0  0  0  0  0  0  0  0  0  0
    8.5370   -0.2420   21.3130 C   0  0  0  0  0  0  0  0  0  0  0  0
    9.5150   -1.2110   21.4480 N   0  0  0  0  0  0  0  0  0  0  0  0
   10.6460   -0.9130   22.2210 C   0  0  0  0  0  0  0  0  0  0  0  0
   11.8850   -1.5850   22.3030 C   0  0  1  0  0  0  0  0  0  0  0  0
   12.9060   -0.7300   22.6580 C   0  0  0  0  0  0  0  0  0  0  0  0
   12.1890    0.2840   23.2320 C   0  0  0  0  0  0  0  0  0  0  0  0
   11.2810    1.1560   23.9450 C   0  0  0  0  0  0  0  0  0  0  0  0
   10.0060    1.1940   24.9140 C   0  0  0  0  0  0  0  0  0  0  0  0
    9.8120   -0.1490   25.0770 C   0  0  0  0  0  0  0  0  0  0  0  0
   10.5320   -1.1170   24.5340 C   0  0  0  0  0  0  0  0  0  0  0  0
   11.5610   -0.9230   23.7320 C   0  0  0  0  0  0  0  0  0  0  0  0
   11.9790   -2.0150   23.3880 O   0  0  0  0  0  0  0  0  0  0  0  0
    7.3040   -0.7360   20.9590 N   0  0  0  0  0  0  0  0  0  0  0  0
    6.4960   -0.0470   20.0420 C   0  0  0  0  0  0  0  0  0  0  0  0
    5.2290    0.6790   20.3100 C   0  0  0  0  0  0  0  0  0  0  0  0
    4.5680    1.3290   19.2670 C   0  0  0  0  0  0  0  0  0  0  0  0
    5.1340    1.2680   17.9980 C   0  0  0  0  0  0  0  0  0  0  0  0
    6.2780    0.6110   17.7220 N   0  0  0  0  0  0  0  0  0  0  0  0
    6.9200   -0.0200   18.7280 C   0  0  0  0  0  0  0  0  0  0  0  0
  1  2  2  0
  2  3  1  0
  3  4  1  0
  5  4  1  1
  5  6  1  0
  6  7  1  0
  7  8  1  0
  8  9  2  0
  9 10  1  0
 10 11  2  0
  7 12  2  0
 11 12  1  0
  5 13  1  0
 12 13  1  0
  2 14  1  0
 14 15  1  0
 15 16  2  0
 16 17  1  0
 17 18  2  0
 18 19  1  0
 15 20  1  0
 19 20  2  0
M  END
