pyridine_urea_9840
     RDKit          3D

 25 27  0  0  0  0  0  0  0  0999 V2000
   13.4080   -2.0970   25.4200 C   0  0  0  0  0  0  0  0  0  0  0  0
   12.5840   -1.1180   24.5850 C   0  0  0  0  0  0  0  0  0  0  0  0
   11.0890   -1.2390   24.7310 C   0  0  0  0  0  0  0  0  0  0  0  0
   12.5770   -1.7420   23.3440 C   0  0  0  0  0  0  0  0  0  0  0  0
   13.5620   -2.7310   23.1380 N   0  0  0  0  0  0  0  0  0  0  0  0
   13.2260   -3.0470   21.9790 N   0  0  0  0  0  0  0  0  0  0  0  0
   13.7930   -3.8920   21.1720 C   0  0  0  0  0  0  0  0  0  0  0  0
   12.9490   -3.8410   20.1520 C   0  0  0  0  0  0  0  0  0  0  0  0
   13.5390   -4.6050   19.1970 C   0  0  0  0  0  0  0  0  0  0  0  0
   14.7940   -5.3030   19.3020 C   0  0  0  0  0  0  0  0  0  0  0  0
   15.4830   -5.3340   20.2980 C   0  0  0  0  0  0  0  0  0  0  0  0
   15.0090   -4.6720   21.2180 C   0  0  0  0  0  0  0  0  0  0  0  0
   12.1120   -2.2760   21.5820 C   0  0  0  0  0  0  0  0  0  0  0  0
   11.4900   -1.3050   22.3830 C   0  0  0  0  0  0  0  0  0  0  0  0
   10.3680   -0.3090   22.4180 C   0  0  0  0  0  0  0  0  0  0  0  0
    9.1420   -0.7950   22.1510 N   0  0  0  0  0  0  0  0  0  0  0  0
    8.3680    0.0350   21.4060 C   0  0  0  0  0  0  0  0  0  0  0  0
    8.7200    1.1870   21.1050 O   0  0  0  0  0  0  0  0  0  0  0  0
    7.2080   -0.5700   21.0670 N   0  0  0  0  0  0  0  0  0  0  0  0
    6.5280    0.0340   20.0660 C   0  0  0  0  0  0  0  0  0  0  0  0
    5.4130    0.8180   20.3820 C   0  0  0  0  0  0  0  0  0  0  0  0
    4.7300    1.4430   19.3600 C   0  0  0  0  0  0  0  0  0  0  0  0
    5.1460    1.2930   18.0530 C   0  0  0  0  0  0  0  0  0  0  0  0
    6.2010    0.5470   17.7130 N   0  0  0  0  0  0  0  0  0  0  0  0
    6.8660   -0.0660   18.7260 C   0  0  0  0  0  0  0  0  0  0  0  0
  1  2  1  0
  2  3  1  0
  2  4  1  0
  4  5  2  0
  5  6  1  0
  6  7  1  0
  7  8  2  0
  8  9  1  0
  9 10  2  0
 10 11  1  0
  7 12  1  0
 11 12  2  0
  6 13  1  0
  4 14  1  0
 13 14  2  0
 14 15  1  0
 15 16  1  0
 16 17  1  0
 17 18  2  0
 17 19  1  0
 19 20  1  0
 20 21  2  0
 21 22  1  0
 22 23  2  0
 23 24  1  0
 20 25  1  0
 24 25  2  0
M  END
