pyridine_urea_8895
     RDKit          3D

 20 21  0  0  0  0  0  0  0  0999 V2000
   10.8100   -2.1980   21.7610 C   0  0  0  0  0  0  0  0  0  0  0  0
   11.5090   -1.9880   22.9140 N   0  0  0  0  0  0  0  0  0  0  0  0
   11.3700   -2.7850   24.1200 C   0  0  0  0  0  0  0  0  0  0  0  0
   12.5000   -1.0760   22.7670 C   0  0  0  0  0  0  0  0  0  0  0  0
   13.0950    0.1370   22.8020 C   0  0  0  0  0  0  0  0  0  0  0  0
   12.6610    1.3370   23.1620 C   0  0  0  0  0  0  0  0  0  0  0  0
   11.4000    1.5110   23.5790 C   0  0  0  0  0  0  0  0  0  0  0  0
   10.4310    0.5400   23.6700 C   0  0  0  0  0  0  0  0  0  0  0  0
    9.6730   -0.6200   23.6600 C   0  0  0  0  0  0  0  0  0  0  0  0
    8.4850   -0.3680   22.9730 N   0  0  0  0  0  0  0  0  0  0  0  0
    8.3010    0.1420   21.6760 C   0  0  0  0  0  0  0  0  0  0  0  0
    8.9170    1.1210   21.2270 O   0  0  0  0  0  0  0  0  0  0  0  0
    7.3440   -0.5860   21.0450 N   0  0  0  0  0  0  0  0  0  0  0  0
    6.6400    0.0370   20.0740 C   0  0  0  0  0  0  0  0  0  0  0  0
    5.4880    0.7700   20.4040 C   0  0  0  0  0  0  0  0  0  0  0  0
    4.7720    1.4330   19.2900 C   0  0  0  0  0  0  0  0  0  0  0  0
    5.1820    1.3550   18.0040 C   0  0  0  0  0  0  0  0  0  0  0  0
    6.2970    0.6340   17.6950 N   0  0  0  0  0  0  0  0  0  0  0  0
    6.9740    0.0120   18.7190 C   0  0  0  0  0  0  0  0  0  0  0  0
   11.2240   -0.5710   23.2350 N   0  0  0  0  0  0  0  0  0  0  0  0
  1  2  1  0
  2  3  1  0
  2  4  1  0
  4  5  2  0
  5  6  1  0
  6  7  2  0
  7  8  1  0
  8  9  1  0
  9 10  1  0
 10 11  1  0
 11 12  2  0
 11 13  1  0
 13 14  1  0
 14 15  2  0
 15 16  1  0
 16 17  2  0
 17 18  1  0
 14 19  1  0
 18 19  2  0
  4 20  1  0
  8 20  2  0
M  END
