pyridine_urea_8880
     RDKit          3D

 20 21  0  0  0  0  0  0  0  0999 V2000
    8.8720    2.8420   24.1810 C   0  0  0  0  0  0  0  0  0  0  0  0
    8.8760    1.4290   23.9690 O   0  0  0  0  0  0  0  0  0  0  0  0
    9.9340    0.9110   23.2820 C   0  0  0  0  0  0  0  0  0  0  0  0
   10.8120    1.5930   22.7800 O   0  0  0  0  0  0  0  0  0  0  0  0
    9.9020   -0.6200   23.2150 C   0  0  1  0  0  0  0  0  0  0  0  0
    8.8200   -0.9950   22.3520 N   0  0  0  0  0  0  0  0  0  0  0  0
    8.2980   -0.0580   21.4990 C   0  0  0  0  0  0  0  0  0  0  0  0
    8.9250    1.1250   21.1770 O   0  0  0  0  0  0  0  0  0  0  0  0
    7.0800   -0.4800   21.0420 N   0  0  0  0  0  0  0  0  0  0  0  0
    6.4190    0.1290   19.9860 C   0  0  0  0  0  0  0  0  0  0  0  0
    5.2530    0.8530   20.2520 C   0  0  0  0  0  0  0  0  0  0  0  0
    4.5940    1.4790   19.2040 C   0  0  0  0  0  0  0  0  0  0  0  0
    5.1390    1.3450   17.9440 C   0  0  0  0  0  0  0  0  0  0  0  0
    6.2430    0.6540   17.6510 N   0  0  0  0  0  0  0  0  0  0  0  0
    6.8630    0.0580   18.6840 C   0  0  0  0  0  0  0  0  0  0  0  0
   11.1410   -1.0670   22.5570 C   0  0  0  0  0  0  0  0  0  0  0  0
   12.3380   -0.4200   22.8450 C   0  0  0  0  0  0  0  0  0  0  0  0
   13.5330   -1.1450   21.9410 S   0  0  0  0  0  0  0  0  0  0  0  0
   12.4890   -2.2710   21.2010 C   0  0  0  0  0  0  0  0  0  0  0  0
   11.2280   -2.0870   21.6590 N   0  0  0  0  0  0  0  0  0  0  0  0
  1  2  1  0
  2  3  1  0
  3  4  2  0
  3  5  1  0
  5  6  1  6
  6  7  1  0
  7  8  2  0
  7  9  1  0
  9 10  1  0
 10 11  2  0
 11 12  1  0
 12 13  2  0
 13 14  1  0
 10 15  1  0
 14 15  2  0
  5 16  1  0
 16 17  2  0
 17 18  1  0
 18 19  1  0
 16 20  1  0
 19 20  2  0
M  END
