pyridine_urea_3131
     RDKit          3D

 21 22  0  0  0  0  0  0  0  0999 V2000
   13.2190   -2.4860   25.0660 C   0  0  0  0  0  0  0  0  0  0  0  0
   12.2410   -2.7430   24.1360 N   0  0  0  0  0  0  0  0  0  0  0  0
   12.4110   -2.6630   22.7410 C   0  0  0  0  0  0  0  0  0  0  0  0
   13.5460   -3.2100   22.1100 O   0  0  0  0  0  0  0  0  0  0  0  0
   11.4360   -2.0170   22.0310 C   0  0  0  0  0  0  0  0  0  0  0  0
   11.3560   -0.7650   22.5130 C   0  0  0  0  0  0  0  0  0  0  0  0
   12.5580   -0.1620   22.7510 C   0  0  0  0  0  0  0  0  0  0  0  0
   12.5940    1.2200   23.3000 C   0  0  0  0  0  0  0  0  0  0  0  0
   11.4240    1.8870   23.5890 C   0  0  0  0  0  0  0  0  0  0  0  0
   10.1090    1.1680   23.2980 C   0  0  0  0  0  0  0  0  0  0  0  0
   10.1560   -0.1090   22.7670 C   0  0  0  0  0  0  0  0  0  0  0  0
    8.9230   -0.6270   22.5070 N   0  0  0  0  0  0  0  0  0  0  0  0
    8.2060    0.0110   21.4790 C   0  0  0  0  0  0  0  0  0  0  0  0
    8.6240    1.2540   21.0280 O   0  0  0  0  0  0  0  0  0  0  0  0
    7.1410   -0.6860   21.0370 N   0  0  0  0  0  0  0  0  0  0  0  0
    6.4330   -0.0250   20.0910 C   0  0  0  0  0  0  0  0  0  0  0  0
    5.2430    0.6790   20.3160 C   0  0  0  0  0  0  0  0  0  0  0  0
    4.6170    1.3360   19.2510 C   0  0  0  0  0  0  0  0  0  0  0  0
    5.2050    1.2640   18.0000 C   0  0  0  0  0  0  0  0  0  0  0  0
    6.3430    0.5870   17.7580 N   0  0  0  0  0  0  0  0  0  0  0  0
    6.9290   -0.0400   18.7950 C   0  0  0  0  0  0  0  0  0  0  0  0
  1  2  1  0
  2  3  1  0
  3  4  2  0
  3  5  1  0
  5  6  1  0
  6  7  2  0
  7  8  1  0
  8  9  2  0
  9 10  1  0
  6 11  1  0
 10 11  2  0
 11 12  1  0
 12 13  1  0
 13 14  2  0
 13 15  1  0
 15 16  1  0
 16 17  2  0
 17 18  1  0
 18 19  2  0
 19 20  1  0
 16 21  1  0
 20 21  2  0
M  END
