pyridine_urea_916
     RDKit          3D

 22 23  0  0  0  0  0  0  0  0999 V2000
   13.0390   -2.3190   21.0940 C   0  0  0  0  0  0  0  0  0  0  0  0
   13.2470   -1.8820   22.4480 N   0  0  0  0  0  0  0  0  0  0  0  0
   12.6110   -2.4760   23.5520 C   0  0  0  0  0  0  0  0  0  0  0  0
   12.0060   -1.6520   24.5230 C   0  0  0  0  0  0  0  0  0  0  0  0
   12.0160   -0.2690   24.4600 N   0  0  0  0  0  0  0  0  0  0  0  0
   10.9500    0.6660   24.0710 C   0  0  0  0  0  0  0  0  0  0  0  0
    9.7690   -0.0140   24.1960 C   0  0  0  0  0  0  0  0  0  0  0  0
    9.3790   -0.8660   23.0310 C   0  0  0  0  0  0  0  0  0  0  0  0
   10.3820   -1.8940   22.5080 C   0  0  0  0  0  0  0  0  0  0  0  0
   10.0960   -0.6700   21.7500 C   0  0  0  0  0  0  0  0  0  0  0  0
    8.1210   -1.0700   22.6990 N   0  0  0  0  0  0  0  0  0  0  0  0
    7.7370   -0.3500   21.5600 C   0  0  0  0  0  0  0  0  0  0  0  0
    8.3570    0.6630   21.2420 O   0  0  0  0  0  0  0  0  0  0  0  0
    6.6960   -0.8690   20.9140 N   0  0  0  0  0  0  0  0  0  0  0  0
    6.2000   -0.1100   19.9290 C   0  0  0  0  0  0  0  0  0  0  0  0
    5.0260    0.6010   20.1450 C   0  0  0  0  0  0  0  0  0  0  0  0
    4.5590    1.3690   19.0980 C   0  0  0  0  0  0  0  0  0  0  0  0
    5.2350    1.4210   17.9000 C   0  0  0  0  0  0  0  0  0  0  0  0
    6.3750    0.7310   17.6890 N   0  0  0  0  0  0  0  0  0  0  0  0
    6.8300   -0.0200   18.7120 C   0  0  0  0  0  0  0  0  0  0  0  0
   13.0920   -0.0100   23.6880 C   0  0  0  0  0  0  0  0  0  0  0  0
   12.9910   -0.4590   22.4400 C   0  0  0  0  0  0  0  0  0  0  0  0
  1  2  1  0
  2  3  1  0
  3  4  1  0
  4  5  1  0
  5  6  1  0
  6  7  1  0
  7  8  1  0
  8  9  1  0
  8 10  1  0
  8 11  1  0
 11 12  1  0
 12 13  2  0
 12 14  1  0
 14 15  1  0
 15 16  2  0
 16 17  1  0
 17 18  2  0
 18 19  1  0
 15 20  1  0
 19 20  2  0
  5 21  1  0
  2 22  1  0
 21 22  1  0
M  END
