pyridine_urea_6943
     RDKit          3D

 20 21  0  0  0  0  0  0  0  0999 V2000
    9.6480   -0.3790   25.3760 C   0  0  0  0  0  0  0  0  0  0  0  0
   10.7580   -0.3910   24.3290 C   0  0  0  0  0  0  0  0  0  0  0  0
   11.2920   -1.6020   23.7240 C   0  0  0  0  0  0  0  0  0  0  0  0
   12.3910   -1.5350   22.6990 N   0  0  0  0  0  0  0  0  0  0  0  0
   12.5790   -0.1150   22.6480 C   0  0  0  0  0  0  0  0  0  0  0  0
   11.5510   -0.4890   23.4720 C   0  0  0  0  0  0  0  0  0  0  0  0
   10.3150    0.1660   23.1820 C   0  0  0  0  0  0  0  0  0  0  0  0
    9.4220   -0.4940   22.3620 N   0  0  0  0  0  0  0  0  0  0  0  0
    8.6110    0.2040   21.4860 C   0  0  0  0  0  0  0  0  0  0  0  0
    8.8800    1.3520   21.1260 O   0  0  0  0  0  0  0  0  0  0  0  0
    7.4750   -0.4730   21.0670 N   0  0  0  0  0  0  0  0  0  0  0  0
    6.6680    0.0760   20.0550 C   0  0  0  0  0  0  0  0  0  0  0  0
    5.5100    0.7760   20.4080 C   0  0  0  0  0  0  0  0  0  0  0  0
    4.7220    1.3440   19.4080 C   0  0  0  0  0  0  0  0  0  0  0  0
    5.1190    1.1930   18.0880 C   0  0  0  0  0  0  0  0  0  0  0  0
    6.2150    0.5200   17.7290 N   0  0  0  0  0  0  0  0  0  0  0  0
    6.9610   -0.0230   18.7130 C   0  0  0  0  0  0  0  0  0  0  0  0
   12.1790    1.1180   23.1170 C   0  0  0  0  0  0  0  0  0  0  0  0
   12.6520    2.3740   22.7760 C   0  0  0  0  0  0  0  0  0  0  0  0
   11.1780    0.9340   24.0410 C   0  0  0  0  0  0  0  0  0  0  0  0
  1  2  1  0
  2  3  2  0
  3  4  1  0
  4  5  2  0
  5  6  1  0
  6  7  1  0
  7  8  1  0
  8  9  1  0
  9 10  2  0
  9 11  1  0
 11 12  1  0
 12 13  2  0
 13 14  1  0
 14 15  2  0
 15 16  1  0
 12 17  1  0
 16 17  2  0
  5 18  1  0
 18 19  1  0
  2 20  1  0
 18 20  2  0
M  END
