pyridine_urea_12879
     RDKit          3D

 19 20  0  0  0  0  0  0  0  0999 V2000
    8.6010   -2.7440   23.5980 C   0  0  0  0  0  0  0  0  0  0  0  0
    9.6900   -1.6590   23.4260 C   0  0  0  0  0  0  0  0  0  0  0  0
   11.0320   -2.0880   23.8290 C   0  0  0  0  0  0  0  0  0  0  0  0
   12.0790   -1.3000   23.7440 C   0  0  0  0  0  0  0  0  0  0  0  0
   13.5570   -2.2070   24.3540 Br  0  0  0  0  0  0  0  0  0  0  0  0
   11.8990   -0.0080   23.2380 C   0  0  0  0  0  0  0  0  0  0  0  0
   13.1360    1.0940   23.0280 Cl  0  0  0  0  0  0  0  0  0  0  0  0
   10.6390    0.4400   22.8610 C   0  0  0  0  0  0  0  0  0  0  0  0
    9.5540   -0.3900   22.9610 C   0  0  0  0  0  0  0  0  0  0  0  0
    8.2670   -0.0910   22.6140 N   0  0  0  0  0  0  0  0  0  0  0  0
    7.8780   -0.5010   21.3960 C   0  0  0  0  0  0  0  0  0  0  0  0
    8.6590   -0.8830   20.5880 O   0  0  0  0  0  0  0  0  0  0  0  0
    6.5410   -0.4320   21.1900 N   0  0  0  0  0  0  0  0  0  0  0  0
    6.0800    0.1870   20.0650 C   0  0  0  0  0  0  0  0  0  0  0  0
    4.9050    0.9210   20.1750 C   0  0  0  0  0  0  0  0  0  0  0  0
    4.4210    1.5790   19.0440 C   0  0  0  0  0  0  0  0  0  0  0  0
    5.1990    1.4530   17.7790 C   0  0  0  0  0  0  0  0  0  0  0  0
    6.3250    0.7280   17.7060 N   0  0  0  0  0  0  0  0  0  0  0  0
    6.7350    0.1170   18.8400 C   0  0  0  0  0  0  0  0  0  0  0  0
  1  2  1  0
  2  3  2  0
  3  4  1  0
  4  5  1  0
  4  6  2  0
  6  7  1  0
  6  8  1  0
  2  9  1  0
  8  9  2  0
  9 10  1  0
 10 11  1  0
 11 12  2  0
 11 13  1  0
 13 14  1  0
 14 15  2  0
 15 16  1  0
 16 17  2  0
 17 18  1  0
 14 19  1  0
 18 19  2  0
M  END
