pyridine_urea_1455
     RDKit          3D

 20 22  0  0  0  0  0  0  0  0999 V2000
    8.2280    1.5700   20.9410 O   0  0  0  0  0  0  0  0  0  0  0  0
    8.3580    0.3910   21.2320 C   0  0  0  0  0  0  0  0  0  0  0  0
    7.3390   -0.4870   21.0570 N   0  0  0  0  0  0  0  0  0  0  0  0
    6.6140    0.0390   19.9540 C   0  0  0  0  0  0  0  0  0  0  0  0
    5.3020    0.7690   20.2690 C   0  0  0  0  0  0  0  0  0  0  0  0
    4.5690    1.3420   19.2380 C   0  0  0  0  0  0  0  0  0  0  0  0
    5.0830    1.2220   17.9500 C   0  0  0  0  0  0  0  0  0  0  0  0
    6.2540    0.5500   17.7200 N   0  0  0  0  0  0  0  0  0  0  0  0
    7.0330   -0.0500   18.6990 C   0  0  0  0  0  0  0  0  0  0  0  0
    9.5150   -0.0650   21.6890 N   0  0  0  0  0  0  0  0  0  0  0  0
   10.7360   -0.2050   22.1580 C   0  0  0  0  0  0  0  0  0  0  0  0
   10.9430   -1.2450   22.9360 C   0  0  0  0  0  0  0  0  0  0  0  0
   10.0050   -2.2170   23.0880 C   0  0  0  0  0  0  0  0  0  0  0  0
   10.2040   -3.2870   23.8870 C   0  0  0  0  0  0  0  0  0  0  0  0
   11.4170   -3.3860   24.5690 C   0  0  0  0  0  0  0  0  0  0  0  0
   12.4410   -2.3680   24.4450 C   0  0  0  0  0  0  0  0  0  0  0  0
   13.8510   -2.5990   25.3500 Cl  0  0  0  0  0  0  0  0  0  0  0  0
   12.2940   -1.2950   23.6660 C   0  0  0  0  0  0  0  0  0  0  0  0
   11.8120    0.6600   22.7270 C   0  0  0  0  0  0  0  0  0  0  0  0
   10.7090    1.0010   23.0220 C   0  0  0  0  0  0  0  0  0  0  0  0
  1  2  2  0
  2  3  1  0
  3  4  1  0
  4  5  2  0
  5  6  1  0
  6  7  2  0
  7  8  1  0
  4  9  1  0
  8  9  2  0
  2 10  1  0
 11 10  1  0
 11 12  1  0
 12 13  2  0
 13 14  1  0
 14 15  2  0
 15 16  1  0
 16 17  1  0
 12 18  1  0
 16 18  2  0
 11 19  1  0
 11 20  1  0
 19 20  1  0
M  END
