pyridine_urea_4028
     RDKit          3D

 26 28  0  0  0  0  0  0  0  0999 V2000
    8.6880    1.6870   20.9000 O   0  0  0  0  0  0  0  0  0  0  0  0
    8.1690    0.7290   21.4530 C   0  0  0  0  0  0  0  0  0  0  0  0
    7.1680   -0.0720   21.0040 N   0  0  0  0  0  0  0  0  0  0  0  0
    6.4640    0.3800   19.9310 C   0  0  0  0  0  0  0  0  0  0  0  0
    5.2880    1.0820   20.1630 C   0  0  0  0  0  0  0  0  0  0  0  0
    4.5840    1.5810   19.0840 C   0  0  0  0  0  0  0  0  0  0  0  0
    5.1020    1.3470   17.8320 C   0  0  0  0  0  0  0  0  0  0  0  0
    6.2200    0.6610   17.5940 N   0  0  0  0  0  0  0  0  0  0  0  0
    6.8800    0.1890   18.6500 C   0  0  0  0  0  0  0  0  0  0  0  0
    8.5790    0.3650   22.6460 N   0  0  0  0  0  0  0  0  0  0  0  0
    9.7950   -0.3390   22.6260 C   0  0  2  0  0  0  0  0  0  0  0  0
    9.4220   -1.4950   23.5380 C   0  0  0  0  0  0  0  0  0  0  0  0
    8.5770   -1.0540   24.5910 O   0  0  0  0  0  0  0  0  0  0  0  0
    9.7270   -2.7500   23.3100 N   0  0  0  0  0  0  0  0  0  0  0  0
   10.8060   -2.6390   22.6300 C   0  0  0  0  0  0  0  0  0  0  0  0
   10.9460   -2.0710   21.4840 C   0  0  0  0  0  0  0  0  0  0  0  0
   12.1680   -2.0250   20.8610 C   0  0  0  0  0  0  0  0  0  0  0  0
   13.2850   -2.4410   21.2630 C   0  0  0  0  0  0  0  0  0  0  0  0
   13.3150   -3.0270   22.4110 C   0  0  0  0  0  0  0  0  0  0  0  0
   12.0110   -3.1530   23.0960 C   0  0  0  0  0  0  0  0  0  0  0  0
   10.9790    0.6320   22.8810 C   0  0  0  0  0  0  0  0  0  0  0  0
   11.0920    1.8250   22.9400 C   0  0  0  0  0  0  0  0  0  0  0  0
   12.4040    1.4740   23.1430 C   0  0  0  0  0  0  0  0  0  0  0  0
   11.7380    0.0310   22.9820 C   0  0  0  0  0  0  0  0  0  0  0  0
   12.9990   -0.4410   23.1770 C   0  0  0  0  0  0  0  0  0  0  0  0
   12.4540    0.6730   23.1370 C   0  0  0  0  0  0  0  0  0  0  0  0
  1  2  2  0
  2  3  1  0
  3  4  1  0
  4  5  2  0
  5  6  1  0
  6  7  2  0
  7  8  1  0
  4  9  1  0
  8  9  2  0
  2 10  1  0
 11 10  1  1
 11 12  1  0
 12 13  2  0
 12 14  1  0
 14 15  1  0
 15 16  2  0
 16 17  1  0
 17 18  2  0
 18 19  1  0
 15 20  1  0
 19 20  2  0
 11 21  1  0
 21 22  2  0
 22 23  1  0
 23 24  2  0
 24 25  1  0
 21 26  1  0
 25 26  2  0
M  END
