pyridine_urea_6771
     RDKit          3D

 21 22  0  0  0  0  0  0  0  0999 V2000
    9.9200   -1.2710   24.4660 C   0  0  0  0  0  0  0  0  0  0  0  0
   10.6220   -0.1210   23.9390 O   0  0  0  0  0  0  0  0  0  0  0  0
   11.4770   -0.5880   23.0310 C   0  0  0  0  0  0  0  0  0  0  0  0
   12.4070    0.4320   23.4930 C   0  0  0  0  0  0  0  0  0  0  0  0
   12.9650   -0.3000   22.5260 C   0  0  0  0  0  0  0  0  0  0  0  0
   11.8160   -1.3090   22.0920 C   0  0  0  0  0  0  0  0  0  0  0  0
   10.4700   -1.6100   22.3920 C   0  0  0  0  0  0  0  0  0  0  0  0
    9.7130   -1.2610   21.3050 N   0  0  0  0  0  0  0  0  0  0  0  0
    8.7220   -0.3030   21.4510 C   0  0  0  0  0  0  0  0  0  0  0  0
    8.9030    0.8370   21.8510 O   0  0  0  0  0  0  0  0  0  0  0  0
    7.4470   -0.7050   21.0590 N   0  0  0  0  0  0  0  0  0  0  0  0
    6.6690   -0.0570   20.0690 C   0  0  0  0  0  0  0  0  0  0  0  0
    5.5730    0.7240   20.4350 C   0  0  0  0  0  0  0  0  0  0  0  0
    4.8230    1.3670   19.4740 C   0  0  0  0  0  0  0  0  0  0  0  0
    5.1440    1.2480   18.1310 C   0  0  0  0  0  0  0  0  0  0  0  0
    6.1860    0.4990   17.7380 N   0  0  0  0  0  0  0  0  0  0  0  0
    6.9170   -0.1320   18.7040 C   0  0  0  0  0  0  0  0  0  0  0  0
   12.7940   -1.7300   21.2720 C   0  0  0  0  0  0  0  0  0  0  0  0
   12.1450   -2.7710   20.6260 O   0  0  0  0  0  0  0  0  0  0  0  0
   13.1010   -3.7960   20.4700 C   0  0  0  0  0  0  0  0  0  0  0  0
   12.7570   -0.7130   22.2410 N   0  0  0  0  0  0  0  0  0  0  0  0
  1  2  1  0
  2  3  1  0
  3  4  2  0
  4  5  1  0
  5  6  2  0
  6  7  1  0
  7  8  1  0
  8  9  1  0
  9 10  2  0
  9 11  1  0
 11 12  1  0
 12 13  2  0
 13 14  1  0
 14 15  2  0
 15 16  1  0
 12 17  1  0
 16 17  2  0
  6 18  1  0
 18 19  1  0
 19 20  1  0
  3 21  1  0
 18 21  2  0
M  END
