pyridine_urea_9337
     RDKit          3D

 17 17  0  0  0  0  0  0  0  0999 V2000
   12.3030    4.2680   21.6620 C   0  0  0  0  0  0  0  0  0  0  0  0
   12.3450    3.3350   22.8370 C   0  0  0  0  0  0  0  0  0  0  0  0
   12.3010    1.9300   22.4520 O   0  0  0  0  0  0  0  0  0  0  0  0
   11.2190    1.2110   22.8810 C   0  0  0  0  0  0  0  0  0  0  0  0
    9.8990    1.7240   23.1090 O   0  0  0  0  0  0  0  0  0  0  0  0
   11.2950   -0.1660   23.1530 C   0  0  0  0  0  0  0  0  0  0  0  0
   10.4530   -1.0310   22.4870 C   0  0  0  0  0  0  0  0  0  0  0  0
    9.0530   -0.6470   22.5910 N   0  0  0  0  0  0  0  0  0  0  0  0
    8.5130    0.1290   21.5920 C   0  0  0  0  0  0  0  0  0  0  0  0
    9.0040    1.2150   21.2480 O   0  0  0  0  0  0  0  0  0  0  0  0
    7.3130   -0.4700   21.0230 N   0  0  0  0  0  0  0  0  0  0  0  0
    6.5890    0.0750   20.0240 C   0  0  0  0  0  0  0  0  0  0  0  0
    5.2920    0.8350   20.3450 C   0  0  0  0  0  0  0  0  0  0  0  0
    4.6140    1.3890   19.2810 C   0  0  0  0  0  0  0  0  0  0  0  0
    5.1240    1.2350   17.9970 C   0  0  0  0  0  0  0  0  0  0  0  0
    6.2470    0.5650   17.6970 N   0  0  0  0  0  0  0  0  0  0  0  0
    6.9510    0.0040   18.6980 C   0  0  0  0  0  0  0  0  0  0  0  0
  1  2  1  0
  2  3  1  0
  3  4  1  0
  4  5  2  0
  4  6  1  0
  6  7  1  0
  7  8  1  0
  8  9  1  0
  9 10  2  0
  9 11  1  0
 11 12  1  0
 12 13  2  0
 13 14  1  0
 14 15  2  0
 15 16  1  0
 12 17  1  0
 16 17  2  0
M  END
