pyridine_urea_9648
     RDKit          3D

 18 19  0  0  0  0  0  0  0  0999 V2000
    9.8080   -2.9880   23.4170 C   0  0  0  0  0  0  0  0  0  0  0  0
   11.1270   -2.6160   23.0230 O   0  0  0  0  0  0  0  0  0  0  0  0
   11.1840   -1.2770   22.5370 C   0  0  2  0  0  0  0  0  0  0  0  0
   12.6240   -0.7910   22.6430 C   0  0  0  0  0  0  0  0  0  0  0  0
   12.9010    0.3810   23.5520 C   0  0  0  0  0  0  0  0  0  0  0  0
   11.7740    1.1680   23.9120 O   0  0  0  0  0  0  0  0  0  0  0  0
   10.5870    0.8790   23.1990 C   0  0  0  0  0  0  0  0  0  0  0  0
   10.1690   -0.5700   23.1800 C   0  0  1  0  0  0  0  0  0  0  0  0
    8.7960   -0.6330   22.6800 N   0  0  0  0  0  0  0  0  0  0  0  0
    8.3670    0.0890   21.5850 C   0  0  0  0  0  0  0  0  0  0  0  0
    8.8900    1.1540   21.2160 O   0  0  0  0  0  0  0  0  0  0  0  0
    7.2200   -0.5930   20.9890 N   0  0  0  0  0  0  0  0  0  0  0  0
    6.4500    0.0860   20.0400 C   0  0  0  0  0  0  0  0  0  0  0  0
    5.2760    0.7980   20.3040 C   0  0  0  0  0  0  0  0  0  0  0  0
    4.6360    1.4270   19.2430 C   0  0  0  0  0  0  0  0  0  0  0  0
    5.1730    1.3300   17.9740 C   0  0  0  0  0  0  0  0  0  0  0  0
    6.2920    0.6450   17.7030 N   0  0  0  0  0  0  0  0  0  0  0  0
    6.8980    0.0420   18.7420 C   0  0  0  0  0  0  0  0  0  0  0  0
  1  2  1  0
  3  2  1  1
  3  4  1  0
  4  5  1  0
  5  6  1  0
  6  7  1  0
  3  8  1  0
  7  8  1  0
  8  9  1  6
  9 10  1  0
 10 11  2  0
 10 12  1  0
 12 13  1  0
 13 14  2  0
 14 15  1  0
 15 16  2  0
 16 17  1  0
 13 18  1  0
 17 18  2  0
M  END
