pyridine_urea_10193
     RDKit          3D

 23 24  0  0  0  0  0  0  0  0999 V2000
    7.2610   -3.7150   22.3070 O   0  0  0  0  0  0  0  0  0  0  0  0
    8.0520   -2.7840   22.3900 C   0  0  0  0  0  0  0  0  0  0  0  0
    7.7300   -1.5540   23.2260 C   0  0  0  0  0  0  0  0  0  0  0  0
    8.6190   -0.4280   22.9070 N   0  0  0  0  0  0  0  0  0  0  0  0
    8.3140    0.2050   21.6410 C   0  0  0  0  0  0  0  0  0  0  0  0
    8.9200    1.2130   21.2010 O   0  0  0  0  0  0  0  0  0  0  0  0
    7.2710   -0.4130   20.9890 N   0  0  0  0  0  0  0  0  0  0  0  0
    6.5140    0.2290   19.9460 C   0  0  0  0  0  0  0  0  0  0  0  0
    5.3780    0.9680   20.2960 C   0  0  0  0  0  0  0  0  0  0  0  0
    4.6400    1.6150   19.2950 C   0  0  0  0  0  0  0  0  0  0  0  0
    5.1610    1.4470   17.8710 C   0  0  0  0  0  0  0  0  0  0  0  0
    6.2580    0.7100   17.5940 N   0  0  0  0  0  0  0  0  0  0  0  0
    6.9350    0.1010   18.6350 C   0  0  0  0  0  0  0  0  0  0  0  0
    9.3010   -2.6950   21.8100 N   0  0  0  0  0  0  0  0  0  0  0  0
   10.3070   -2.3250   22.5880 C   0  0  0  0  0  0  0  0  0  0  0  0
   10.1030   -2.0880   23.9300 C   0  0  0  0  0  0  0  0  0  0  0  0
   11.1590   -1.7060   24.7110 C   0  0  0  0  0  0  0  0  0  0  0  0
   12.4740   -1.5540   24.1520 C   0  0  0  0  0  0  0  0  0  0  0  0
   13.4340   -1.1970   24.9930 F   0  0  0  0  0  0  0  0  0  0  0  0
   12.6370   -1.7830   22.8280 C   0  0  0  0  0  0  0  0  0  0  0  0
   13.8490   -1.6160   22.3360 F   0  0  0  0  0  0  0  0  0  0  0  0
   11.5980   -2.1620   22.0550 C   0  0  0  0  0  0  0  0  0  0  0  0
   11.9690   -2.3510   20.7800 F   0  0  0  0  0  0  0  0  0  0  0  0
  1  2  2  0
  2  3  1  0
  3  4  1  0
  4  5  1  0
  5  6  2  0
  5  7  1  0
  7  8  1  0
  8  9  2  0
  9 10  1  0
 10 11  2  0
 11 12  1  0
  8 13  1  0
 12 13  2  0
  2 14  1  0
 14 15  1  0
 15 16  2  0
 16 17  1  0
 17 18  2  0
 18 19  1  0
 18 20  1  0
 20 21  1  0
 15 22  1  0
 20 22  2  0
 22 23  1  0
M  END
