pyridine_urea_9978
     RDKit          3D

 24 26  0  0  0  0  0  0  0  0999 V2000
    9.2670   -2.3230   21.6490 C   0  0  0  0  0  0  0  0  0  0  0  0
    9.5990   -1.5940   22.9080 C   0  0  2  0  0  0  0  0  0  0  0  0
   10.9580   -1.3780   23.1520 C   0  0  0  0  0  0  0  0  0  0  0  0
   11.5150   -2.3000   24.1030 O   0  0  0  0  0  0  0  0  0  0  0  0
    9.0360   -2.3880   24.0900 C   0  0  0  0  0  0  0  0  0  0  0  0
    7.5770   -2.6130   24.1310 N   0  0  0  0  0  0  0  0  0  0  0  0
    6.5860   -1.8050   24.6960 C   0  0  0  0  0  0  0  0  0  0  0  0
    5.3360   -2.2840   24.5780 N   0  0  0  0  0  0  0  0  0  0  0  0
    5.5540   -3.4360   23.9080 C   0  0  0  0  0  0  0  0  0  0  0  0
    4.4810   -4.4340   23.4730 C   0  0  0  0  0  0  0  0  0  0  0  0
    4.7760   -5.6050   22.7880 C   0  0  0  0  0  0  0  0  0  0  0  0
    6.1260   -5.8710   22.4920 C   0  0  0  0  0  0  0  0  0  0  0  0
    7.1460   -4.9710   22.8770 C   0  0  0  0  0  0  0  0  0  0  0  0
    6.8620   -3.7820   23.5660 C   0  0  0  0  0  0  0  0  0  0  0  0
    9.0810   -0.3390   22.9000 N   0  0  0  0  0  0  0  0  0  0  0  0
    8.5150    0.3420   21.7090 C   0  0  0  0  0  0  0  0  0  0  0  0
    9.0220    1.3820   21.2650 O   0  0  0  0  0  0  0  0  0  0  0  0
    7.3700   -0.2890   21.1510 N   0  0  0  0  0  0  0  0  0  0  0  0
    6.6310    0.2090   20.1130 C   0  0  0  0  0  0  0  0  0  0  0  0
    5.5020    0.9670   20.3570 C   0  0  0  0  0  0  0  0  0  0  0  0
    4.7340    1.5090   19.3400 C   0  0  0  0  0  0  0  0  0  0  0  0
    5.1370    1.2680   18.0360 C   0  0  0  0  0  0  0  0  0  0  0  0
    6.2160    0.5370   17.6740 N   0  0  0  0  0  0  0  0  0  0  0  0
    6.9680   -0.0030   18.8000 C   0  0  0  0  0  0  0  0  0  0  0  0
  2  1  1  6
  2  3  1  0
  3  4  1  0
  2  5  1  0
  5  6  1  0
  6  7  1  0
  7  8  2  0
  8  9  1  0
  9 10  1  0
 10 11  2  0
 11 12  1  0
 12 13  2  0
  6 14  1  0
  9 14  2  0
 13 14  1  0
  2 15  1  0
 15 16  1  0
 16 17  2  0
 16 18  1  0
 18 19  1  0
 19 20  2  0
 20 21  1  0
 21 22  2  0
 22 23  1  0
 19 24  1  0
 23 24  2  0
M  END
