pyridine_urea_12167
     RDKit          3D

 23 24  0  0  0  0  0  0  0  0999 V2000
   13.8270   -2.8080   25.5850 C   0  0  0  0  0  0  0  0  0  0  0  0
   12.9240   -2.6970   24.3760 C   0  0  0  0  0  0  0  0  0  0  0  0
   13.5650   -2.7480   23.1660 C   0  0  0  0  0  0  0  0  0  0  0  0
   12.3780   -1.3200   24.3740 C   0  0  0  0  0  0  0  0  0  0  0  0
   12.2680   -0.9670   23.2190 O   0  0  0  0  0  0  0  0  0  0  0  0
   11.7040    0.2390   23.0450 C   0  0  0  0  0  0  0  0  0  0  0  0
   13.1010    0.3300   23.1130 C   0  0  0  0  0  0  0  0  0  0  0  0
   12.3100    1.2840   22.9700 C   0  0  0  0  0  0  0  0  0  0  0  0
   10.8580    0.7100   22.9250 C   0  0  0  0  0  0  0  0  0  0  0  0
   10.3240   -0.6180   23.0040 C   0  0  2  0  0  0  0  0  0  0  0  0
   10.8370   -1.5270   22.0660 C   0  0  0  0  0  0  0  0  0  0  0  0
    8.8960   -0.5920   22.6880 N   0  0  0  0  0  0  0  0  0  0  0  0
    8.3790    0.0200   21.5830 C   0  0  0  0  0  0  0  0  0  0  0  0
    8.9530    1.2510   21.1370 O   0  0  0  0  0  0  0  0  0  0  0  0
    7.3040   -0.5930   21.0000 N   0  0  0  0  0  0  0  0  0  0  0  0
    6.5280    0.0670   20.0400 C   0  0  0  0  0  0  0  0  0  0  0  0
    5.3500    0.7730   20.2850 C   0  0  0  0  0  0  0  0  0  0  0  0
    4.6730    1.4150   19.2430 C   0  0  0  0  0  0  0  0  0  0  0  0
    5.1320    1.3860   17.9220 C   0  0  0  0  0  0  0  0  0  0  0  0
    6.3390    0.6400   17.7120 N   0  0  0  0  0  0  0  0  0  0  0  0
    6.9650    0.0280   18.7440 C   0  0  0  0  0  0  0  0  0  0  0  0
   10.2440    1.7960   22.7900 C   0  0  0  0  0  0  0  0  0  0  0  0
   11.6930    1.7730   22.8730 C   0  0  0  0  0  0  0  0  0  0  0  0
  1  2  1  0
  2  3  1  0
  2  4  1  0
  4  5  1  0
  5  6  1  0
  6  7  2  0
  7  8  1  0
  8  9  2  0
  9 10  1  0
 10 11  1  6
 10 12  1  0
 12 13  1  0
 13 14  2  0
 13 15  1  0
 15 16  1  0
 16 17  2  0
 17 18  1  0
 18 19  2  0
 19 20  1  0
 16 21  1  0
 20 21  2  0
  9 22  1  0
  6 23  1  0
 22 23  2  0
M  END
