pyridine_urea_12743
     RDKit          3D

 20 21  0  0  0  0  0  0  0  0999 V2000
   13.2470   -1.6330   25.4820 C   0  0  0  0  0  0  0  0  0  0  0  0
   12.3500   -0.5100   25.4480 O   0  0  0  0  0  0  0  0  0  0  0  0
   11.7200   -0.7290   24.3130 C   0  0  0  0  0  0  0  0  0  0  0  0
   12.8520   -0.9860   23.3150 C   0  0  0  0  0  0  0  0  0  0  0  0
   12.5540   -1.3020   22.1050 C   0  0  0  0  0  0  0  0  0  0  0  0
   13.5260   -1.6740   20.8120 Cl  0  0  0  0  0  0  0  0  0  0  0  0
   11.2700   -1.2820   22.1220 C   0  0  0  0  0  0  0  0  0  0  0  0
   10.1670   -1.0850   22.8290 C   0  0  0  0  0  0  0  0  0  0  0  0
   10.2470   -0.7370   24.2060 C   0  0  0  0  0  0  0  0  0  0  0  0
    8.9330   -0.8250   23.7770 C   0  0  0  0  0  0  0  0  0  0  0  0
    8.4360    0.3700   23.1500 N   0  0  0  0  0  0  0  0  0  0  0  0
    8.2970    0.5540   21.7950 C   0  0  0  0  0  0  0  0  0  0  0  0
    9.0390    1.5400   21.1300 O   0  0  0  0  0  0  0  0  0  0  0  0
    7.3350   -0.2830   21.1900 N   0  0  0  0  0  0  0  0  0  0  0  0
    6.6390    0.1640   20.0910 C   0  0  0  0  0  0  0  0  0  0  0  0
    5.5090    0.9130   20.4410 C   0  0  0  0  0  0  0  0  0  0  0  0
    4.7320    1.4530   19.2870 C   0  0  0  0  0  0  0  0  0  0  0  0
    5.1270    1.2120   17.9940 C   0  0  0  0  0  0  0  0  0  0  0  0
    6.2160    0.4750   17.6970 N   0  0  0  0  0  0  0  0  0  0  0  0
    6.9610   -0.0450   18.7690 C   0  0  0  0  0  0  0  0  0  0  0  0
  1  2  1  0
  2  3  1  0
  3  4  2  0
  4  5  1  0
  5  6  1  0
  5  7  2  0
  7  8  1  0
  3  9  1  0
  8  9  2  0
  9 10  1  0
 10 11  1  0
 11 12  1  0
 12 13  2  0
 12 14  1  0
 14 15  1  0
 15 16  2  0
 16 17  1  0
 17 18  2  0
 18 19  1  0
 15 20  1  0
 19 20  2  0
M  END
