pyridine_urea_5519
     RDKit          3D

 17 18  0  0  0  0  0  0  0  0999 V2000
   12.3850    2.7100   22.7830 C   0  0  0  0  0  0  0  0  0  0  0  0
   11.8360    1.4420   22.7840 N   0  0  0  0  0  0  0  0  0  0  0  0
   10.4850    1.3590   22.8460 C   0  0  0  0  0  0  0  0  0  0  0  0
   10.2070    0.1580   22.8300 N   0  0  0  0  0  0  0  0  0  0  0  0
   11.4180   -0.7930   22.7450 C   0  0  0  0  0  0  0  0  0  0  0  0
   10.1300   -1.3490   22.7880 C   0  0  0  0  0  0  0  0  0  0  0  0
    9.4510   -1.1230   21.6270 N   0  0  0  0  0  0  0  0  0  0  0  0
    8.3970   -0.2010   21.3430 C   0  0  0  0  0  0  0  0  0  0  0  0
    8.5690    1.0060   21.2650 O   0  0  0  0  0  0  0  0  0  0  0  0
    7.1750   -0.8300   21.1450 N   0  0  0  0  0  0  0  0  0  0  0  0
    6.5640   -0.1440   20.0990 C   0  0  0  0  0  0  0  0  0  0  0  0
    5.2820    0.6640   20.3730 C   0  0  0  0  0  0  0  0  0  0  0  0
    4.5320    1.4600   19.2980 C   0  0  0  0  0  0  0  0  0  0  0  0
    5.2580    1.3110   17.9710 C   0  0  0  0  0  0  0  0  0  0  0  0
    6.3740    0.5890   17.7890 N   0  0  0  0  0  0  0  0  0  0  0  0
    7.0190   -0.1270   18.7980 C   0  0  0  0  0  0  0  0  0  0  0  0
   12.6590    0.3340   22.7190 C   0  0  0  0  0  0  0  0  0  0  0  0
  1  2  1  0
  2  3  1  0
  3  4  2  0
  4  5  1  0
  5  6  1  0
  6  7  1  0
  7  8  1  0
  8  9  2  0
  8 10  1  0
 10 11  1  0
 11 12  2  0
 12 13  1  0
 13 14  2  0
 14 15  1  0
 11 16  1  0
 15 16  2  0
  2 17  1  0
  5 17  2  0
M  END
