pyridine_urea_15032
     RDKit          3D

 18 19  0  0  0  0  0  0  0  0999 V2000
    8.6490    0.8290   21.1480 O   0  0  0  0  0  0  0  0  0  0  0  0
    8.3230   -0.2730   21.5670 C   0  0  0  0  0  0  0  0  0  0  0  0
    7.1730   -0.8880   21.1340 N   0  0  0  0  0  0  0  0  0  0  0  0
    6.4950   -0.1620   20.0810 C   0  0  0  0  0  0  0  0  0  0  0  0
    5.2170    0.5880   20.4450 C   0  0  0  0  0  0  0  0  0  0  0  0
    4.5130    1.3660   19.3320 C   0  0  0  0  0  0  0  0  0  0  0  0
    5.1830    1.3070   17.9580 C   0  0  0  0  0  0  0  0  0  0  0  0
    6.3560    0.5680   17.7880 N   0  0  0  0  0  0  0  0  0  0  0  0
    6.9740   -0.1290   18.7910 C   0  0  0  0  0  0  0  0  0  0  0  0
    9.0730   -0.9810   22.4970 N   0  0  0  0  0  0  0  0  0  0  0  0
   10.3950   -0.5180   22.6470 C   0  0  0  0  0  0  0  0  0  0  0  0
   11.5580   -1.2770   22.7120 C   0  0  0  0  0  0  0  0  0  0  0  0
   12.8350   -0.7390   22.8440 C   0  0  0  0  0  0  0  0  0  0  0  0
   12.9640    0.6370   22.9070 C   0  0  0  0  0  0  0  0  0  0  0  0
   11.8350    1.4500   22.8450 C   0  0  0  0  0  0  0  0  0  0  0  0
   11.9500    3.3440   22.8910 Br  0  0  0  0  0  0  0  0  0  0  0  0
   10.5840    0.8660   22.7270 C   0  0  0  0  0  0  0  0  0  0  0  0
    9.5740    1.7700   22.6850 F   0  0  0  0  0  0  0  0  0  0  0  0
  1  2  2  0
  2  3  1  0
  3  4  1  0
  4  5  2  0
  5  6  1  0
  6  7  2  0
  7  8  1  0
  4  9  1  0
  8  9  2  0
  2 10  1  0
 10 11  1  0
 11 12  2  0
 12 13  1  0
 13 14  2  0
 14 15  1  0
 15 16  1  0
 11 17  1  0
 15 17  2  0
 17 18  1  0
M  END
