pyridine_urea_13169
     RDKit          3D

 17 17  0  0  0  0  0  0  0  0999 V2000
    8.7290    0.8270   21.3950 O   0  0  0  0  0  0  0  0  0  0  0  0
    8.2820   -0.3100   21.4970 C   0  0  0  0  0  0  0  0  0  0  0  0
    7.0470   -0.6980   21.0660 N   0  0  0  0  0  0  0  0  0  0  0  0
    6.4020   -0.0370   20.0170 C   0  0  0  0  0  0  0  0  0  0  0  0
    5.2060    0.6490   20.2590 C   0  0  0  0  0  0  0  0  0  0  0  0
    4.5740    1.3270   19.2120 C   0  0  0  0  0  0  0  0  0  0  0  0
    5.1690    1.2920   17.9660 C   0  0  0  0  0  0  0  0  0  0  0  0
    6.3100    0.6360   17.7180 N   0  0  0  0  0  0  0  0  0  0  0  0
    6.8960   -0.0110   18.7370 C   0  0  0  0  0  0  0  0  0  0  0  0
    9.0220   -1.3150   22.0680 N   0  0  0  0  0  0  0  0  0  0  0  0
   10.3980   -0.9220   22.2080 C   0  0  2  0  0  0  0  0  0  0  0  0
   11.3730   -2.0760   22.0190 C   0  0  0  0  0  0  0  0  0  0  0  0
   12.4920   -2.0640   22.7590 F   0  0  0  0  0  0  0  0  0  0  0  0
   10.7750   -0.0800   23.3280 C   0  0  0  0  0  0  0  0  0  0  0  0
   12.0250    0.4510   23.1750 F   0  0  0  0  0  0  0  0  0  0  0  0
    9.9000    0.9540   23.4570 F   0  0  0  0  0  0  0  0  0  0  0  0
   10.7850   -0.8860   24.4180 F   0  0  0  0  0  0  0  0  0  0  0  0
  1  2  2  0
  2  3  1  0
  3  4  1  0
  4  5  2  0
  5  6  1  0
  6  7  2  0
  7  8  1  0
  4  9  1  0
  8  9  2  0
  2 10  1  0
 10 11  1  0
 11 12  1  1
 12 13  1  0
 11 14  1  0
 14 15  1  0
 14 16  1  0
 14 17  1  0
M  END
