pyridine_urea_9106
     RDKit          3D

 19 21  0  0  0  0  0  0  0  0999 V2000
    9.4520    0.0930   21.3330 O   0  0  0  0  0  0  0  0  0  0  0  0
    8.3750   -0.2690   21.7500 C   0  0  0  0  0  0  0  0  0  0  0  0
    8.0940   -0.2070   23.0780 N   0  0  0  0  0  0  0  0  0  0  0  0
    8.4450   -1.2420   24.0240 C   0  0  0  0  0  0  0  0  0  0  0  0
    7.7740   -0.8940   25.3740 C   0  0  0  0  0  0  0  0  0  0  0  0
    7.9910   -1.6860   26.4610 N   0  0  0  0  0  0  0  0  0  0  0  0
    7.6570   -2.9450   26.0670 C   0  0  0  0  0  0  0  0  0  0  0  0
    6.7210   -3.4860   26.9230 C   0  0  1  0  0  0  0  0  0  0  0  0
    7.3710   -3.6480   28.1560 C   0  0  0  0  0  0  0  0  0  0  0  0
    7.6700   -2.3190   28.5060 C   0  0  0  0  0  0  0  0  0  0  0  0
    7.0760   -1.5880   27.4820 C   0  0  2  0  0  0  0  0  0  0  0  0
    5.9550   -2.3430   27.1710 C   0  0  0  0  0  0  0  0  0  0  0  0
    7.2980   -0.7410   21.0340 N   0  0  0  0  0  0  0  0  0  0  0  0
    6.5970   -0.0670   20.0900 C   0  0  0  0  0  0  0  0  0  0  0  0
    5.4370    0.6620   20.4530 C   0  0  0  0  0  0  0  0  0  0  0  0
    4.7460    1.3770   19.3300 C   0  0  0  0  0  0  0  0  0  0  0  0
    5.2210    1.3100   18.0610 C   0  0  0  0  0  0  0  0  0  0  0  0
    6.3210    0.6110   17.7030 N   0  0  0  0  0  0  0  0  0  0  0  0
    6.9270   -0.0240   18.7410 C   0  0  0  0  0  0  0  0  0  0  0  0
  1  2  2  0
  2  3  1  0
  3  4  1  0
  4  5  1  0
  5  6  1  0
  6  7  1  0
  8  7  1  6
  8  9  1  0
  9 10  1  0
  6 11  1  0
 11 10  1  1
  8 12  1  0
 11 12  1  0
  2 13  1  0
 13 14  1  0
 14 15  2  0
 15 16  1  0
 16 17  2  0
 17 18  1  0
 14 19  1  0
 18 19  2  0
M  END
