pyridine_urea_11874
     RDKit          3D

 25 26  0  0  0  0  0  0  0  0999 V2000
    8.2990    0.3980   24.4730 C   0  0  0  0  0  0  0  0  0  0  0  0
    9.1240    0.1240   23.5960 O   0  0  0  0  0  0  0  0  0  0  0  0
   10.2210    0.9080   23.6580 C   0  0  0  0  0  0  0  0  0  0  0  0
   10.5000   -0.3520   23.0250 C   0  0  0  0  0  0  0  0  0  0  0  0
   11.4860   -1.2020   22.4010 C   0  0  0  0  0  0  0  0  0  0  0  0
   10.2380   -1.7880   22.4200 C   0  0  0  0  0  0  0  0  0  0  0  0
    9.4150   -1.3160   21.3210 N   0  0  0  0  0  0  0  0  0  0  0  0
    8.5550   -0.2660   21.3020 C   0  0  0  0  0  0  0  0  0  0  0  0
    8.9060    0.8950   21.4500 O   0  0  0  0  0  0  0  0  0  0  0  0
    7.1650   -0.6560   21.0440 N   0  0  0  0  0  0  0  0  0  0  0  0
    6.4490    0.0080   20.0850 C   0  0  0  0  0  0  0  0  0  0  0  0
    5.1510    0.7780   20.2450 C   0  0  0  0  0  0  0  0  0  0  0  0
    4.5600    1.4190   19.1630 C   0  0  0  0  0  0  0  0  0  0  0  0
    5.1980    1.3300   17.9310 C   0  0  0  0  0  0  0  0  0  0  0  0
    6.3530    0.6520   17.7190 N   0  0  0  0  0  0  0  0  0  0  0  0
    6.9130    0.0310   18.7850 C   0  0  0  0  0  0  0  0  0  0  0  0
   12.5760   -0.3560   22.5340 C   0  0  0  0  0  0  0  0  0  0  0  0
   12.6090    0.8750   23.0660 C   0  0  0  0  0  0  0  0  0  0  0  0
   11.4840    1.4240   23.5660 C   0  0  0  0  0  0  0  0  0  0  0  0
   11.6180    2.6590   24.0350 O   0  0  0  0  0  0  0  0  0  0  0  0
   11.6210    3.7770   23.1230 C   0  0  0  0  0  0  0  0  0  0  0  0
   11.2760    4.8970   23.8630 C   0  0  0  0  0  0  0  0  0  0  0  0
   11.5630    6.0690   23.2400 N   0  0  0  0  0  0  0  0  0  0  0  0
   12.7870    6.3250   22.5820 C   0  0  0  0  0  0  0  0  0  0  0  0
   10.4340    6.6170   22.7280 C   0  0  0  0  0  0  0  0  0  0  0  0
  1  2  1  0
  2  3  1  0
  3  4  2  0
  4  5  1  0
  5  6  1  0
  6  7  1  0
  7  8  1  0
  8  9  2  0
  8 10  1  0
 10 11  1  0
 11 12  2  0
 12 13  1  0
 13 14  2  0
 14 15  1  0
 11 16  1  0
 15 16  2  0
  5 17  2  0
 17 18  1  0
  3 19  1  0
 18 19  2  0
 19 20  1  0
 20 21  1  0
 21 22  1  0
 22 23  1  0
 23 24  1  0
 23 25  1  0
M  END
