pyridine_urea_7337
     RDKit          3D

 17 18  0  0  0  0  0  0  0  0999 V2000
   12.3860    2.0080   23.0340 C   0  0  0  0  0  0  0  0  0  0  0  0
   13.3450    0.5040   22.7320 S   0  0  0  0  0  0  0  0  0  0  0  0
   12.3770   -0.6800   23.6450 C   0  0  1  0  0  0  0  0  0  0  0  0
   11.3350   -0.0640   24.3580 C   0  0  0  0  0  0  0  0  0  0  0  0
   10.0660   -0.2740   23.8120 C   0  0  0  0  0  0  0  0  0  0  0  0
   10.0920   -1.3400   22.9370 C   0  0  1  0  0  0  0  0  0  0  0  0
    9.3520   -1.1040   21.7010 N   0  0  0  0  0  0  0  0  0  0  0  0
    8.4790   -0.1110   21.4160 C   0  0  0  0  0  0  0  0  0  0  0  0
    8.8740    1.0490   21.4430 O   0  0  0  0  0  0  0  0  0  0  0  0
    7.1400   -0.5950   21.0660 N   0  0  0  0  0  0  0  0  0  0  0  0
    6.4290    0.0520   20.0840 C   0  0  0  0  0  0  0  0  0  0  0  0
    5.1330    0.8280   20.2870 C   0  0  0  0  0  0  0  0  0  0  0  0
    4.5550    1.4410   19.1730 C   0  0  0  0  0  0  0  0  0  0  0  0
    5.2000    1.3040   17.9540 C   0  0  0  0  0  0  0  0  0  0  0  0
    6.3390    0.6240   17.7320 N   0  0  0  0  0  0  0  0  0  0  0  0
    6.9170    0.0190   18.7890 C   0  0  0  0  0  0  0  0  0  0  0  0
   11.5580   -1.5740   22.7130 C   0  0  0  0  0  0  0  0  0  0  0  0
  1  2  1  0
  3  2  1  6
  3  4  1  0
  4  5  1  0
  5  6  1  0
  6  7  1  6
  7  8  1  0
  8  9  2  0
  8 10  1  0
 10 11  1  0
 11 12  2  0
 12 13  1  0
 13 14  2  0
 14 15  1  0
 11 16  1  0
 15 16  2  0
  3 17  1  0
  6 17  1  0
M  END
