pyridine_urea_15110
     RDKit          3D

 18 18  0  0  0  0  0  0  0  0999 V2000
    6.8290   -2.1160   24.9710 C   0  0  0  0  0  0  0  0  0  0  0  0
    7.1900   -3.0170   23.9960 N   0  0  0  0  0  0  0  0  0  0  0  0
    8.5970   -3.0380   23.6260 C   0  0  0  0  0  0  0  0  0  0  0  0
    8.9190   -2.3380   22.3100 C   0  0  0  0  0  0  0  0  0  0  0  0
    9.1120   -0.9710   22.4250 N   0  0  0  0  0  0  0  0  0  0  0  0
    8.5230   -0.0130   21.5710 C   0  0  0  0  0  0  0  0  0  0  0  0
    9.0130    1.0810   21.2500 O   0  0  0  0  0  0  0  0  0  0  0  0
    7.2300   -0.5360   21.1430 N   0  0  0  0  0  0  0  0  0  0  0  0
    6.5060    0.1070   20.1890 C   0  0  0  0  0  0  0  0  0  0  0  0
    5.2360    0.9250   20.3220 C   0  0  0  0  0  0  0  0  0  0  0  0
    4.5740    1.5800   19.1220 C   0  0  0  0  0  0  0  0  0  0  0  0
    5.2070    1.3810   17.8970 C   0  0  0  0  0  0  0  0  0  0  0  0
    6.3040    0.6880   17.6660 N   0  0  0  0  0  0  0  0  0  0  0  0
    6.9180    0.0850   18.7290 C   0  0  0  0  0  0  0  0  0  0  0  0
    6.2390   -4.2240   23.7420 S   0  0  0  0  0  0  0  0  0  0  0  0
    7.2510   -5.5220   23.0760 C   0  0  0  0  0  0  0  0  0  0  0  0
    5.8070   -4.6420   25.0510 O   0  0  0  0  0  0  0  0  0  0  0  0
    5.2890   -3.8670   22.7090 O   0  0  0  0  0  0  0  0  0  0  0  0
  1  2  1  0
  2  3  1  0
  3  4  1  0
  4  5  1  0
  5  6  1  0
  6  7  2  0
  6  8  1  0
  8  9  1  0
  9 10  2  0
 10 11  1  0
 11 12  2  0
 12 13  1  0
  9 14  1  0
 13 14  2  0
 15  2  1  0
 15 16  1  0
 15 17  2  0
 15 18  2  0
M  END
