pyridine_urea_12777
     RDKit          3D

 20 20  0  0  0  0  0  0  0  0999 V2000
   12.6360   -1.1270   24.8210 C   0  0  0  0  0  0  0  0  0  0  0  0
   13.0800   -0.7830   23.3770 C   0  0  0  0  0  0  0  0  0  0  0  0
   13.0730    0.7210   23.0650 C   0  0  0  0  0  0  0  0  0  0  0  0
   12.2530   -1.5410   22.3490 C   0  0  0  0  0  0  0  0  0  0  0  0
   11.0200   -0.9670   22.1640 C   0  0  0  0  0  0  0  0  0  0  0  0
   10.0630   -1.1320   23.1410 C   0  0  2  0  0  0  0  0  0  0  0  0
    8.7270   -1.1760   22.5160 N   0  0  0  0  0  0  0  0  0  0  0  0
    8.3290   -0.2400   21.5830 C   0  0  0  0  0  0  0  0  0  0  0  0
    8.9440    0.7880   21.3490 O   0  0  0  0  0  0  0  0  0  0  0  0
    7.1660   -0.6230   20.9890 N   0  0  0  0  0  0  0  0  0  0  0  0
    6.4380    0.0390   20.0500 C   0  0  0  0  0  0  0  0  0  0  0  0
    5.2600    0.7330   20.2860 C   0  0  0  0  0  0  0  0  0  0  0  0
    4.6210    1.3830   19.2270 C   0  0  0  0  0  0  0  0  0  0  0  0
    5.1970    1.3100   17.9550 C   0  0  0  0  0  0  0  0  0  0  0  0
    6.3320    0.6390   17.7150 N   0  0  0  0  0  0  0  0  0  0  0  0
    6.9190    0.0220   18.7560 C   0  0  0  0  0  0  0  0  0  0  0  0
    9.9590    0.0860   24.0970 C   0  0  0  0  0  0  0  0  0  0  0  0
    9.1310    1.1910   23.7350 C   0  0  0  0  0  0  0  0  0  0  0  0
    9.6590   -0.1780   25.5630 C   0  0  0  0  0  0  0  0  0  0  0  0
   11.0900    1.1490   24.0210 C   0  0  0  0  0  0  0  0  0  0  0  0
  1  2  1  0
  2  3  1  0
  2  4  1  0
  4  5  1  0
  6  5  1  6
  6  7  1  0
  7  8  1  0
  8  9  2  0
  8 10  1  0
 10 11  1  0
 11 12  2  0
 12 13  1  0
 13 14  2  0
 14 15  1  0
 11 16  1  0
 15 16  2  0
  6 17  1  0
 17 18  1  0
 17 19  1  0
 17 20  1  0
M  END
