pyridine_urea_2498
     RDKit          3D

 24 26  0  0  0  0  0  0  0  0999 V2000
    8.9270    1.7610   21.1640 O   0  0  0  0  0  0  0  0  0  0  0  0
    8.3390    0.9020   21.8080 C   0  0  0  0  0  0  0  0  0  0  0  0
    7.3350    0.0820   21.3230 N   0  0  0  0  0  0  0  0  0  0  0  0
    6.6060    0.3970   20.1720 C   0  0  0  0  0  0  0  0  0  0  0  0
    5.4500    1.1630   20.3370 C   0  0  0  0  0  0  0  0  0  0  0  0
    4.6950    1.5280   19.2300 C   0  0  0  0  0  0  0  0  0  0  0  0
    5.1290    1.1100   17.9950 C   0  0  0  0  0  0  0  0  0  0  0  0
    6.2210    0.3680   17.7980 N   0  0  0  0  0  0  0  0  0  0  0  0
    6.9390    0.0220   18.8820 C   0  0  0  0  0  0  0  0  0  0  0  0
    8.6610    0.6720   23.1380 N   0  0  0  0  0  0  0  0  0  0  0  0
    9.6760   -0.3470   23.2620 C   0  0  2  0  0  0  0  0  0  0  0  0
   10.8410   -0.4060   24.1610 C   0  0  0  0  0  0  0  0  0  0  0  0
   11.8600   -1.0480   24.9210 C   0  0  0  0  0  0  0  0  0  0  0  0
   12.0670   -2.4170   25.0940 C   0  0  0  0  0  0  0  0  0  0  0  0
   11.2000   -3.3350   24.5760 C   0  0  0  0  0  0  0  0  0  0  0  0
   10.1630   -2.8340   23.9010 C   0  0  0  0  0  0  0  0  0  0  0  0
    8.8500   -3.6980   23.1990 Cl  0  0  0  0  0  0  0  0  0  0  0  0
   10.0880   -1.5210   23.7380 C   0  0  0  0  0  0  0  0  0  0  0  0
   10.7790   -0.0900   22.2560 C   0  0  0  0  0  0  0  0  0  0  0  0
   11.8790   -0.9850   22.3250 C   0  0  0  0  0  0  0  0  0  0  0  0
   12.8620   -0.4150   23.1290 C   0  0  0  0  0  0  0  0  0  0  0  0
   12.2360    0.1440   24.2370 C   0  0  0  0  0  0  0  0  0  0  0  0
   11.5750    1.3080   23.8630 C   0  0  0  0  0  0  0  0  0  0  0  0
   11.2110    1.2190   22.5510 C   0  0  0  0  0  0  0  0  0  0  0  0
  1  2  2  0
  2  3  1  0
  3  4  1  0
  4  5  2  0
  5  6  1  0
  6  7  2  0
  7  8  1  0
  4  9  1  0
  8  9  2  0
  2 10  1  0
 11 10  1  1
 11 12  1  0
 12 13  2  0
 13 14  1  0
 14 15  2  0
 15 16  1  0
 16 17  1  0
 12 18  1  0
 16 18  2  0
 11 19  1  0
 19 20  1  0
 20 21  1  0
 21 22  1  0
 22 23  1  0
 19 24  1  0
 23 24  1  0
M  END
