pyridine_urea_10693
     RDKit          3D

 21 22  0  0  0  0  0  0  0  0999 V2000
   11.2760    6.0290   23.9270 N   0  0  0  0  0  0  0  0  0  0  0  0
   10.8810    5.3860   22.7800 C   0  0  0  0  0  0  0  0  0  0  0  0
   11.0700    3.8490   22.7970 C   0  0  0  0  0  0  0  0  0  0  0  0
   12.5540    3.4390   22.8140 C   0  0  0  0  0  0  0  0  0  0  0  0
   12.8320    1.9310   22.8400 C   0  0  0  0  0  0  0  0  0  0  0  0
   11.7030    0.9720   22.8430 C   0  0  0  0  0  0  0  0  0  0  0  0
   12.0330   -0.2100   22.8700 O   0  0  0  0  0  0  0  0  0  0  0  0
   11.0270   -1.0270   22.2600 C   0  0  0  0  0  0  0  0  0  0  0  0
   10.0120   -1.3010   23.1540 C   0  0  0  0  0  0  0  0  0  0  0  0
    8.7800   -1.3180   22.5370 N   0  0  0  0  0  0  0  0  0  0  0  0
    8.2490   -0.3950   21.6010 C   0  0  0  0  0  0  0  0  0  0  0  0
    8.6930    0.6630   21.1750 O   0  0  0  0  0  0  0  0  0  0  0  0
    7.0530   -0.8450   21.1660 N   0  0  0  0  0  0  0  0  0  0  0  0
    6.4040   -0.1210   20.2160 C   0  0  0  0  0  0  0  0  0  0  0  0
    5.2280    0.6320   20.3400 C   0  0  0  0  0  0  0  0  0  0  0  0
    4.6550    1.3470   19.2620 C   0  0  0  0  0  0  0  0  0  0  0  0
    5.2680    1.3200   17.9990 C   0  0  0  0  0  0  0  0  0  0  0  0
    6.3900    0.6370   17.7560 N   0  0  0  0  0  0  0  0  0  0  0  0
    6.9190   -0.0380   18.7890 C   0  0  0  0  0  0  0  0  0  0  0  0
   10.3590    1.3790   22.8220 C   0  0  0  0  0  0  0  0  0  0  0  0
    9.9830    2.7280   22.8000 C   0  0  0  0  0  0  0  0  0  0  0  0
  1  2  3  0
  2  3  1  0
  3  4  2  0
  4  5  1  0
  5  6  2  0
  6  7  1  0
  7  8  1  0
  8  9  1  0
  9 10  1  0
 10 11  1  0
 11 12  2  0
 11 13  1  0
 13 14  1  0
 14 15  2  0
 15 16  1  0
 16 17  2  0
 17 18  1  0
 14 19  1  0
 18 19  2  0
  6 20  1  0
  3 21  1  0
 20 21  2  0
M  END
