pyridine_urea_11782
     RDKit          3D

 25 27  0  0  0  0  0  0  0  0999 V2000
   11.9540    7.6560   24.7640 C   0  0  0  0  0  0  0  0  0  0  0  0
   12.1830    6.4740   23.8710 C   0  0  0  0  0  0  0  0  0  0  0  0
   13.0370    6.5440   22.7740 C   0  0  0  0  0  0  0  0  0  0  0  0
   13.3000    5.4950   21.9170 C   0  0  0  0  0  0  0  0  0  0  0  0
   12.6500    4.3280   22.2050 C   0  0  0  0  0  0  0  0  0  0  0  0
   11.7880    4.1540   23.2660 C   0  0  0  0  0  0  0  0  0  0  0  0
   11.1440    2.9410   23.5350 N   0  0  0  0  0  0  0  0  0  0  0  0
   11.3540    1.6240   23.1240 C   0  0  0  0  0  0  0  0  0  0  0  0
   12.7340    0.9780   22.9810 C   0  0  0  0  0  0  0  0  0  0  0  0
   12.8050   -0.3460   22.5880 C   0  0  0  0  0  0  0  0  0  0  0  0
   11.6180   -1.0580   22.3200 C   0  0  0  0  0  0  0  0  0  0  0  0
   10.3560   -0.4460   22.4500 C   0  0  0  0  0  0  0  0  0  0  0  0
    9.1540   -1.1610   22.1480 N   0  0  0  0  0  0  0  0  0  0  0  0
    8.2300   -0.4490   21.3590 C   0  0  0  0  0  0  0  0  0  0  0  0
    8.4630    0.7010   20.9970 O   0  0  0  0  0  0  0  0  0  0  0  0
    7.0840   -1.0320   21.0010 N   0  0  0  0  0  0  0  0  0  0  0  0
    6.4180   -0.2710   20.0930 C   0  0  0  0  0  0  0  0  0  0  0  0
    5.1470    0.5100   20.3240 C   0  0  0  0  0  0  0  0  0  0  0  0
    4.5470    1.3230   19.1830 C   0  0  0  0  0  0  0  0  0  0  0  0
    5.1910    1.3250   17.9620 C   0  0  0  0  0  0  0  0  0  0  0  0
    6.3520    0.5980   17.7850 N   0  0  0  0  0  0  0  0  0  0  0  0
    6.9480   -0.1730   18.8020 C   0  0  0  0  0  0  0  0  0  0  0  0
   10.2570    0.8730   22.8570 C   0  0  0  0  0  0  0  0  0  0  0  0
    9.0060    1.4680   23.0000 C   0  0  0  0  0  0  0  0  0  0  0  0
   11.5510    5.2530   24.1140 C   0  0  0  0  0  0  0  0  0  0  0  0
  1  2  1  0
  2  3  2  0
  3  4  1  0
  4  5  2  0
  5  6  1  0
  6  7  1  0
  7  8  1  0
  8  9  2  0
  9 10  1  0
 10 11  2  0
 11 12  1  0
 12 13  1  0
 13 14  1  0
 14 15  2  0
 14 16  1  0
 16 17  1  0
 17 18  2  0
 18 19  1  0
 19 20  2  0
 20 21  1  0
 17 22  1  0
 21 22  2  0
  8 23  1  0
 12 23  2  0
 23 24  1  0
  2 25  1  0
  6 25  2  0
M  END
