pyridine_urea_7085
     RDKit          3D

 20 21  0  0  0  0  0  0  0  0999 V2000
   11.0650    3.7540   22.6610 C   0  0  0  0  0  0  0  0  0  0  0  0
   11.1880    2.9710   23.5990 O   0  0  0  0  0  0  0  0  0  0  0  0
   11.7880    1.7800   23.3020 C   0  0  0  0  0  0  0  0  0  0  0  0
   11.5450    0.5880   23.1930 C   0  0  0  0  0  0  0  0  0  0  0  0
   12.8570   -0.0030   22.8230 C   0  0  0  0  0  0  0  0  0  0  0  0
   12.5650   -1.1950   22.7100 C   0  0  0  0  0  0  0  0  0  0  0  0
   11.9460    0.0550   23.0150 C   0  0  0  0  0  0  0  0  0  0  0  0
   10.4110    0.1580   23.3500 C   0  0  2  0  0  0  0  0  0  0  0  0
   10.0630   -0.1130   24.6730 C   0  0  0  0  0  0  0  0  0  0  0  0
    9.5180   -0.6160   22.5380 N   0  0  0  0  0  0  0  0  0  0  0  0
    8.6380    0.1130   21.5500 C   0  0  0  0  0  0  0  0  0  0  0  0
    8.9470    1.4600   21.1340 O   0  0  0  0  0  0  0  0  0  0  0  0
    7.4730   -0.6420   21.0990 N   0  0  0  0  0  0  0  0  0  0  0  0
    6.6910   -0.0140   20.1100 C   0  0  0  0  0  0  0  0  0  0  0  0
    5.5360    0.7320   20.4050 C   0  0  0  0  0  0  0  0  0  0  0  0
    4.7150    1.4200   19.3620 C   0  0  0  0  0  0  0  0  0  0  0  0
    5.1530    1.2870   18.0510 C   0  0  0  0  0  0  0  0  0  0  0  0
    6.2990    0.5340   17.7840 N   0  0  0  0  0  0  0  0  0  0  0  0
    7.0180   -0.0790   18.7630 C   0  0  0  0  0  0  0  0  0  0  0  0
   12.9360    1.3210   22.9840 C   0  0  0  0  0  0  0  0  0  0  0  0
  1  2  1  0
  2  3  1  0
  3  4  2  0
  4  5  1  0
  5  6  2  0
  6  7  1  0
  7  8  1  0
  8  9  1  1
  8 10  1  0
 10 11  1  0
 11 12  2  0
 11 13  1  0
 13 14  1  0
 14 15  2  0
 15 16  1  0
 16 17  2  0
 17 18  1  0
 14 19  1  0
 18 19  2  0
  3 20  1  0
  7 20  2  0
M  END
