pyridine_urea_13806
     RDKit          3D

 24 25  0  0  0  0  0  0  0  0999 V2000
   11.2790    2.7520   23.1820 C   0  0  0  0  0  0  0  0  0  0  0  0
   10.3770    2.0520   22.8190 C   0  0  0  0  0  0  0  0  0  0  0  0
    9.6800    0.8180   22.3020 C   0  0  2  0  0  0  0  0  0  0  0  0
    8.2430    0.8000   22.5510 N   0  0  0  0  0  0  0  0  0  0  0  0
    7.9090   -0.2250   21.5480 C   0  0  0  0  0  0  0  0  0  0  0  0
    8.9330   -0.8910   20.8670 O   0  0  0  0  0  0  0  0  0  0  0  0
    6.5710   -0.4380   21.3790 N   0  0  0  0  0  0  0  0  0  0  0  0
    6.2890    0.0500   20.1900 C   0  0  0  0  0  0  0  0  0  0  0  0
    5.0320    0.9100   20.2740 C   0  0  0  0  0  0  0  0  0  0  0  0
    4.5590    1.5500   19.0420 C   0  0  0  0  0  0  0  0  0  0  0  0
    5.2650    1.3360   17.9240 C   0  0  0  0  0  0  0  0  0  0  0  0
    6.3890    0.5650   17.8400 N   0  0  0  0  0  0  0  0  0  0  0  0
    6.8840   -0.0640   18.9490 C   0  0  0  0  0  0  0  0  0  0  0  0
   10.2500   -0.3580   22.9820 C   0  0  0  0  0  0  0  0  0  0  0  0
    9.6150   -1.4180   23.3710 C   0  0  0  0  0  0  0  0  0  0  0  0
   10.6420   -2.1810   23.9370 C   0  0  0  0  0  0  0  0  0  0  0  0
   10.1450   -3.4440   24.4280 O   0  0  0  0  0  0  0  0  0  0  0  0
    8.8130   -3.6320   24.1370 C   0  0  0  0  0  0  0  0  0  0  0  0
   12.2040   -1.7060   24.0160 C   0  0  0  0  0  0  0  0  0  0  0  0
   13.1940   -2.5090   24.5310 O   0  0  0  0  0  0  0  0  0  0  0  0
   13.8110   -2.8380   23.2970 C   0  0  0  0  0  0  0  0  0  0  0  0
   12.6840   -0.2860   23.4460 C   0  0  0  0  0  0  0  0  0  0  0  0
   11.5320   -0.7850   23.4500 C   0  0  0  0  0  0  0  0  0  0  0  0
   11.5010   -2.4920   24.2770 Br  0  0  0  0  0  0  0  0  0  0  0  0
  1  2  1  0
  3  2  1  1
  3  4  1  0
  4  5  1  0
  5  6  2  0
  5  7  1  0
  7  8  1  0
  8  9  2  0
  9 10  1  0
 10 11  2  0
 11 12  1  0
  8 13  1  0
 12 13  2  0
  3 14  1  0
 14 15  2  0
 15 16  1  0
 16 17  1  0
 17 18  1  0
 16 19  2  0
 19 20  1  0
 20 21  1  0
 19 22  1  0
 14 23  1  0
 22 23  2  0
 23 24  1  0
M  END
