pyridine_urea_9032
     RDKit          3D

 19 20  0  0  0  0  0  0  0  0999 V2000
   12.0560   -2.6340   24.6050 C   0  0  0  0  0  0  0  0  0  0  0  0
   12.9790   -1.4150   24.8300 C   0  0  0  0  0  0  0  0  0  0  0  0
   12.4260   -0.1600   24.3230 N   0  0  0  0  0  0  0  0  0  0  0  0
   12.8950    0.1980   23.0940 C   0  0  0  0  0  0  0  0  0  0  0  0
   12.8130   -0.9420   22.3170 C   0  0  0  0  0  0  0  0  0  0  0  0
   11.5020   -1.3750   22.1460 C   0  0  0  0  0  0  0  0  0  0  0  0
   10.5480   -0.5140   22.6880 C   0  0  1  0  0  0  0  0  0  0  0  0
    9.1990   -0.6990   22.4410 N   0  0  0  0  0  0  0  0  0  0  0  0
    8.4290    0.0370   21.5010 C   0  0  0  0  0  0  0  0  0  0  0  0
    8.8090    1.1580   21.1300 O   0  0  0  0  0  0  0  0  0  0  0  0
    7.2900   -0.5730   21.0860 N   0  0  0  0  0  0  0  0  0  0  0  0
    6.5970    0.0360   20.0860 C   0  0  0  0  0  0  0  0  0  0  0  0
    5.4580    0.7670   20.3960 C   0  0  0  0  0  0  0  0  0  0  0  0
    4.7460    1.4020   19.3750 C   0  0  0  0  0  0  0  0  0  0  0  0
    5.2030    1.2850   18.0600 C   0  0  0  0  0  0  0  0  0  0  0  0
    6.2940    0.5810   17.7420 N   0  0  0  0  0  0  0  0  0  0  0  0
    6.9570   -0.0230   18.7500 C   0  0  0  0  0  0  0  0  0  0  0  0
   10.9480   -0.3200   24.1830 C   0  0  0  0  0  0  0  0  0  0  0  0
   10.1390   -0.3090   25.1110 O   0  0  0  0  0  0  0  0  0  0  0  0
  1  2  1  0
  2  3  1  0
  3  4  1  0
  4  5  1  0
  5  6  1  0
  6  7  1  0
  7  8  1  1
  8  9  1  0
  9 10  2  0
  9 11  1  0
 11 12  1  0
 12 13  2  0
 13 14  1  0
 14 15  2  0
 15 16  1  0
 12 17  1  0
 16 17  2  0
  3 18  1  0
  7 18  1  0
 18 19  2  0
M  END
