pyridine_urea_14848
     RDKit          3D

 19 20  0  0  0  0  0  0  0  0999 V2000
   13.5160   -3.6400   20.5220 C   0  0  0  0  0  0  0  0  0  0  0  0
   12.5590   -2.9910   21.4710 C   0  0  0  0  0  0  0  0  0  0  0  0
   12.3100   -1.6450   21.3650 O   0  0  0  0  0  0  0  0  0  0  0  0
   11.5960   -1.2410   22.4370 C   0  0  2  0  0  0  0  0  0  0  0  0
   10.2240   -1.4860   22.6370 C   0  0  0  0  0  0  0  0  0  0  0  0
    9.3690   -1.2770   21.4630 N   0  0  0  0  0  0  0  0  0  0  0  0
    8.4630   -0.2200   21.3570 C   0  0  0  0  0  0  0  0  0  0  0  0
    8.8970    1.1360   21.4070 O   0  0  0  0  0  0  0  0  0  0  0  0
    7.1740   -0.5940   21.1780 N   0  0  0  0  0  0  0  0  0  0  0  0
    6.5410   -0.0130   20.1300 C   0  0  0  0  0  0  0  0  0  0  0  0
    5.2570    0.8250   20.3380 C   0  0  0  0  0  0  0  0  0  0  0  0
    4.6220    1.4340   19.2460 C   0  0  0  0  0  0  0  0  0  0  0  0
    5.1790    1.2670   17.9760 C   0  0  0  0  0  0  0  0  0  0  0  0
    6.3110    0.5220   17.7870 N   0  0  0  0  0  0  0  0  0  0  0  0
    6.9920   -0.1170   18.8240 C   0  0  0  0  0  0  0  0  0  0  0  0
   11.9470    0.0220   22.6900 C   0  0  0  0  0  0  0  0  0  0  0  0
   10.8830    0.9590   23.0090 C   0  0  0  0  0  0  0  0  0  0  0  0
   11.5590    1.1240   24.1250 C   0  0  0  0  0  0  0  0  0  0  0  0
   12.6270    0.2580   23.8800 C   0  0  0  0  0  0  0  0  0  0  0  0
  1  2  1  0
  2  3  1  0
  3  4  1  0
  4  5  1  6
  5  6  1  0
  6  7  1  0
  7  8  2  0
  7  9  1  0
  9 10  1  0
 10 11  2  0
 11 12  1  0
 12 13  2  0
 13 14  1  0
 10 15  1  0
 14 15  2  0
  4 16  1  0
 16 17  1  0
 17 18  1  0
 16 19  1  0
 18 19  1  0
M  END
