pyridine_urea_13439
     RDKit          3D

 18 19  0  0  0  0  0  0  0  0999 V2000
   12.4920    2.1140   22.9340 C   0  0  0  0  0  0  0  0  0  0  0  0
   12.2540    0.6080   23.0870 C   0  0  1  0  0  0  0  0  0  0  0  0
   10.7330    0.3830   22.9170 C   0  0  0  0  0  0  0  0  0  0  0  0
   10.3820   -1.0980   22.8920 C   0  0  1  0  0  0  0  0  0  0  0  0
   10.3710   -1.7370   24.2430 C   0  0  0  0  0  0  0  0  0  0  0  0
    9.0600   -1.2880   22.2840 N   0  0  0  0  0  0  0  0  0  0  0  0
    8.4370   -0.2780   21.5580 C   0  0  0  0  0  0  0  0  0  0  0  0
    8.9280    0.8210   21.3470 O   0  0  0  0  0  0  0  0  0  0  0  0
    7.1250   -0.7150   21.0950 N   0  0  0  0  0  0  0  0  0  0  0  0
    6.5000   -0.0530   20.0650 C   0  0  0  0  0  0  0  0  0  0  0  0
    5.3310    0.6800   20.3230 C   0  0  0  0  0  0  0  0  0  0  0  0
    4.6990    1.3560   19.2900 C   0  0  0  0  0  0  0  0  0  0  0  0
    5.2200    1.3060   18.0140 C   0  0  0  0  0  0  0  0  0  0  0  0
    6.3360    0.6060   17.7430 N   0  0  0  0  0  0  0  0  0  0  0  0
    6.9470   -0.0550   18.7550 C   0  0  0  0  0  0  0  0  0  0  0  0
   11.4790   -1.7670   22.1610 C   0  0  0  0  0  0  0  0  0  0  0  0
   12.8580   -1.2340   22.5140 C   0  0  0  0  0  0  0  0  0  0  0  0
   12.8760   -0.0690   22.2780 O   0  0  0  0  0  0  0  0  0  0  0  0
  2  1  1  6
  2  3  1  0
  3  4  1  0
  4  5  1  1
  4  6  1  0
  6  7  1  0
  7  8  2  0
  7  9  1  0
  9 10  1  0
 10 11  2  0
 11 12  1  0
 12 13  2  0
 13 14  1  0
 10 15  1  0
 14 15  2  0
  4 16  1  0
 16 17  1  0
  2 18  1  0
 17 18  1  0
M  END
