pyridine_urea_1055
     RDKit          3D

 22 23  0  0  0  0  0  0  0  0999 V2000
   11.4800    5.8400   22.5100 N   0  0  0  0  0  0  0  0  0  0  0  0
   11.7930    4.6910   23.1740 C   0  0  0  0  0  0  0  0  0  0  0  0
   11.2110    4.4150   24.4510 O   0  0  0  0  0  0  0  0  0  0  0  0
   12.7560    3.8040   22.4370 C   0  0  0  0  0  0  0  0  0  0  0  0
   12.9640    2.7350   23.0330 O   0  0  0  0  0  0  0  0  0  0  0  0
   12.0010    1.7960   22.9430 C   0  0  0  0  0  0  0  0  0  0  0  0
   10.7070    2.1260   23.0850 C   0  0  0  0  0  0  0  0  0  0  0  0
   10.0780    1.0240   22.9390 C   0  0  0  0  0  0  0  0  0  0  0  0
   10.2030   -0.3520   22.6890 C   0  0  0  0  0  0  0  0  0  0  0  0
   11.5710   -0.9840   22.4800 C   0  0  0  0  0  0  0  0  0  0  0  0
   10.3170   -1.8750   22.3890 C   0  0  0  0  0  0  0  0  0  0  0  0
    9.0030   -1.1760   22.4680 N   0  0  0  0  0  0  0  0  0  0  0  0
    8.3340   -0.3870   21.5190 C   0  0  0  0  0  0  0  0  0  0  0  0
    8.7060    0.6970   21.0980 O   0  0  0  0  0  0  0  0  0  0  0  0
    7.2030   -0.9920   21.1670 N   0  0  0  0  0  0  0  0  0  0  0  0
    6.5920   -0.2290   20.1270 C   0  0  0  0  0  0  0  0  0  0  0  0
    5.4430    0.5260   20.4210 C   0  0  0  0  0  0  0  0  0  0  0  0
    4.8170    1.2760   19.4240 C   0  0  0  0  0  0  0  0  0  0  0  0
    5.3520    1.2580   18.1510 C   0  0  0  0  0  0  0  0  0  0  0  0
    6.4450    0.5480   17.8360 N   0  0  0  0  0  0  0  0  0  0  0  0
    7.0360   -0.1740   18.8170 C   0  0  0  0  0  0  0  0  0  0  0  0
   12.3500    0.4140   22.6830 C   0  0  0  0  0  0  0  0  0  0  0  0
  1  2  1  0
  2  3  2  0
  2  4  1  0
  4  5  1  0
  5  6  1  0
  6  7  2  0
  7  8  1  0
  8  9  2  0
  9 10  1  0
 10 11  1  0
 11 12  1  0
 12 13  1  0
 13 14  2  0
 13 15  1  0
 15 16  1  0
 16 17  2  0
 17 18  1  0
 18 19  2  0
 19 20  1  0
 16 21  1  0
 20 21  2  0
  6 22  1  0
 10 22  2  0
M  END
