pyridine_urea_1865
     RDKit          3D

 15 16  0  0  0  0  0  0  0  0999 V2000
   11.0350   -2.1430   21.8730 C   0  0  0  0  0  0  0  0  0  0  0  0
   10.5220   -0.8190   22.3030 C   0  0  1  0  0  0  0  0  0  0  0  0
    9.0940   -0.7410   22.5060 N   0  0  0  0  0  0  0  0  0  0  0  0
    8.4450    0.0800   21.6030 C   0  0  0  0  0  0  0  0  0  0  0  0
    8.9070    1.1830   21.2750 O   0  0  0  0  0  0  0  0  0  0  0  0
    7.2700   -0.4580   21.1320 N   0  0  0  0  0  0  0  0  0  0  0  0
    6.5520    0.1050   20.0700 C   0  0  0  0  0  0  0  0  0  0  0  0
    5.3970    0.8180   20.3430 C   0  0  0  0  0  0  0  0  0  0  0  0
    4.6800    1.4040   19.2990 C   0  0  0  0  0  0  0  0  0  0  0  0
    5.1540    1.2530   18.0100 C   0  0  0  0  0  0  0  0  0  0  0  0
    6.2610    0.5630   17.7190 N   0  0  0  0  0  0  0  0  0  0  0  0
    6.9340    0.0040   18.7470 C   0  0  0  0  0  0  0  0  0  0  0  0
   11.3220   -0.2600   23.4250 C   0  0  0  0  0  0  0  0  0  0  0  0
   12.6350   -0.3480   23.4530 C   0  0  0  0  0  0  0  0  0  0  0  0
   12.4640    0.8960   23.1370 C   0  0  0  0  0  0  0  0  0  0  0  0
  2  1  1  1
  2  3  1  0
  3  4  1  0
  4  5  2  0
  4  6  1  0
  6  7  1  0
  7  8  2  0
  8  9  1  0
  9 10  2  0
 10 11  1  0
  7 12  1  0
 11 12  2  0
  2 13  1  0
 13 14  1  0
 13 15  1  0
 14 15  1  0
M  END
