pyridine_urea_833
     RDKit          3D

 23 24  0  0  0  0  0  0  0  0999 V2000
    8.9590    0.7800   21.4040 O   0  0  0  0  0  0  0  0  0  0  0  0
    8.5830   -0.3790   21.3700 C   0  0  0  0  0  0  0  0  0  0  0  0
    9.4720   -1.5310   21.6010 N   0  0  0  0  0  0  0  0  0  0  0  0
   10.3750   -1.6240   22.6960 C   0  0  0  0  0  0  0  0  0  0  0  0
   11.5750   -0.8940   22.6370 C   0  0  0  0  0  0  0  0  0  0  0  0
   10.3460   -0.2390   22.8900 C   0  0  0  0  0  0  0  0  0  0  0  0
    9.9630    1.0620   23.1010 C   0  0  0  0  0  0  0  0  0  0  0  0
   10.8500    2.1950   23.1070 C   0  0  0  0  0  0  0  0  0  0  0  0
   12.2040    1.6720   22.8710 C   0  0  0  0  0  0  0  0  0  0  0  0
   13.2990    2.4760   22.8190 O   0  0  0  0  0  0  0  0  0  0  0  0
   13.2410    3.9310   22.6860 C   0  0  0  0  0  0  0  0  0  0  0  0
   11.9790    4.4870   22.6630 C   0  0  0  0  0  0  0  0  0  0  0  0
   11.0520    3.7820   22.0080 F   0  0  0  0  0  0  0  0  0  0  0  0
   12.0050    5.7310   22.1330 F   0  0  0  0  0  0  0  0  0  0  0  0
   11.5220    4.6500   23.9300 F   0  0  0  0  0  0  0  0  0  0  0  0
   12.4390    0.2860   22.6750 C   0  0  0  0  0  0  0  0  0  0  0  0
    7.2740   -0.7300   21.0530 N   0  0  0  0  0  0  0  0  0  0  0  0
    6.5040   -0.0550   20.1190 C   0  0  0  0  0  0  0  0  0  0  0  0
    5.3280    0.6340   20.3670 C   0  0  0  0  0  0  0  0  0  0  0  0
    4.6900    1.2730   19.3250 C   0  0  0  0  0  0  0  0  0  0  0  0
    5.1990    1.2370   18.0410 C   0  0  0  0  0  0  0  0  0  0  0  0
    6.3330    0.5710   17.7690 N   0  0  0  0  0  0  0  0  0  0  0  0
    6.9480   -0.0530   18.8020 C   0  0  0  0  0  0  0  0  0  0  0  0
  1  2  2  0
  2  3  1  0
  3  4  1  0
  4  5  1  0
  5  6  2  0
  6  7  1  0
  7  8  2  0
  8  9  1  0
  9 10  1  0
 10 11  1  0
 11 12  1  0
 12 13  1  0
 12 14  1  0
 12 15  1  0
  5 16  1  0
  9 16  2  0
  2 17  1  0
 17 18  1  0
 18 19  2  0
 19 20  1  0
 20 21  2  0
 21 22  1  0
 18 23  1  0
 22 23  2  0
M  END
