pyridine_urea_10593
     RDKit          3D

 21 23  0  0  0  0  0  0  0  0999 V2000
    8.7260    1.2370   21.0760 O   0  0  0  0  0  0  0  0  0  0  0  0
    8.2210    0.1730   21.4560 C   0  0  0  0  0  0  0  0  0  0  0  0
    7.1660   -0.4910   20.9090 N   0  0  0  0  0  0  0  0  0  0  0  0
    6.3810    0.1510   19.9860 C   0  0  0  0  0  0  0  0  0  0  0  0
    5.0530    0.8500   20.3000 C   0  0  0  0  0  0  0  0  0  0  0  0
    4.4160    1.5100   19.0850 C   0  0  0  0  0  0  0  0  0  0  0  0
    5.1430    1.3980   17.7860 C   0  0  0  0  0  0  0  0  0  0  0  0
    6.3030    0.7430   17.6360 N   0  0  0  0  0  0  0  0  0  0  0  0
    6.8660    0.1600   18.6970 C   0  0  0  0  0  0  0  0  0  0  0  0
    8.7020   -0.4850   22.5260 N   0  0  0  0  0  0  0  0  0  0  0  0
   10.0410   -0.1830   22.8460 C   0  0  0  0  0  0  0  0  0  0  0  0
   10.4400    1.1570   22.9080 C   0  0  0  0  0  0  0  0  0  0  0  0
   11.7380    1.5270   23.2020 C   0  0  0  0  0  0  0  0  0  0  0  0
   12.6380    0.5380   23.4430 C   0  0  0  0  0  0  0  0  0  0  0  0
   12.1590   -0.7520   23.3820 C   0  0  0  0  0  0  0  0  0  0  0  0
   12.9740   -1.7960   23.6740 C   0  0  0  0  0  0  0  0  0  0  0  0
   13.1720   -1.7000   25.1210 C   0  0  0  0  0  0  0  0  0  0  0  0
   13.9480   -2.7290   25.4120 C   0  0  0  0  0  0  0  0  0  0  0  0
   14.1970   -3.4020   24.1460 O   0  0  0  0  0  0  0  0  0  0  0  0
   13.5550   -2.7840   23.0400 N   0  0  0  0  0  0  0  0  0  0  0  0
   10.9130   -1.2070   23.0880 C   0  0  0  0  0  0  0  0  0  0  0  0
  1  2  2  0
  2  3  1  0
  3  4  1  0
  4  5  2  0
  5  6  1  0
  6  7  2  0
  7  8  1  0
  4  9  1  0
  8  9  2  0
  2 10  1  0
 10 11  1  0
 11 12  2  0
 12 13  1  0
 13 14  2  0
 14 15  1  0
 15 16  1  0
 16 17  1  0
 17 18  2  0
 18 19  1  0
 16 20  2  0
 19 20  1  0
 11 21  1  0
 15 21  2  0
M  END
