pyridine_urea_6675
     RDKit          3D

 22 23  0  0  0  0  0  0  0  0999 V2000
   11.9390    7.5540   24.4110 C   0  0  0  0  0  0  0  0  0  0  0  0
   12.0260    6.1760   23.7330 C   0  0  0  0  0  0  0  0  0  0  0  0
   12.9730    6.0750   22.5370 C   0  0  0  0  0  0  0  0  0  0  0  0
   13.0750    4.7070   21.8710 C   0  0  0  0  0  0  0  0  0  0  0  0
   12.2720    3.5450   22.3970 C   0  0  0  0  0  0  0  0  0  0  0  0
   11.4090    3.6260   23.4740 C   0  0  0  0  0  0  0  0  0  0  0  0
   10.7990    2.6080   23.8260 O   0  0  0  0  0  0  0  0  0  0  0  0
   11.3380    1.3450   23.6640 C   0  0  0  0  0  0  0  0  0  0  0  0
   10.5570    0.2130   23.9590 C   0  0  2  0  0  0  0  0  0  0  0  0
   11.0390   -0.3150   24.9540 O   0  0  0  0  0  0  0  0  0  0  0  0
   10.4060   -0.6690   22.8850 C   0  0  0  0  0  0  0  0  0  0  0  0
    8.9900   -0.7880   22.5600 N   0  0  0  0  0  0  0  0  0  0  0  0
    8.4550   -0.0030   21.5500 C   0  0  0  0  0  0  0  0  0  0  0  0
    9.0110    1.2830   21.1890 O   0  0  0  0  0  0  0  0  0  0  0  0
    7.3440   -0.5970   20.9830 N   0  0  0  0  0  0  0  0  0  0  0  0
    6.5060    0.0730   20.0800 C   0  0  0  0  0  0  0  0  0  0  0  0
    5.3120    0.7700   20.4420 C   0  0  0  0  0  0  0  0  0  0  0  0
    4.6510    1.4100   19.2250 C   0  0  0  0  0  0  0  0  0  0  0  0
    5.1830    1.2930   17.9710 C   0  0  0  0  0  0  0  0  0  0  0  0
    6.2920    0.6210   17.6860 N   0  0  0  0  0  0  0  0  0  0  0  0
    6.8900    0.0510   18.7450 C   0  0  0  0  0  0  0  0  0  0  0  0
   11.2480    4.8590   24.1490 C   0  0  0  0  0  0  0  0  0  0  0  0
  1  2  1  0
  2  3  2  0
  3  4  1  0
  4  5  2  0
  5  6  1  0
  6  7  1  0
  7  8  1  0
  8  9  1  0
  9 10  1  1
  9 11  1  0
 11 12  1  0
 12 13  1  0
 13 14  2  0
 13 15  1  0
 15 16  1  0
 16 17  2  0
 17 18  1  0
 18 19  2  0
 19 20  1  0
 16 21  1  0
 20 21  2  0
  2 22  1  0
  6 22  2  0
M  END
