pyridine_urea_11856
     RDKit          3D

 25 28  0  0  0  0  0  0  0  0999 V2000
    9.0050    0.5130   21.2740 O   0  0  0  0  0  0  0  0  0  0  0  0
    8.2140   -0.3070   21.7000 C   0  0  0  0  0  0  0  0  0  0  0  0
    8.2120   -0.8870   22.9350 N   0  0  0  0  0  0  0  0  0  0  0  0
    7.2840   -0.5440   23.9420 C   0  0  0  0  0  0  0  0  0  0  0  0
    7.4110    0.7480   24.4640 C   0  0  0  0  0  0  0  0  0  0  0  0
    8.4220    1.5150   23.9980 N   0  0  0  0  0  0  0  0  0  0  0  0
    8.4990    2.8170   24.5790 C   0  0  0  0  0  0  0  0  0  0  0  0
    9.5050    3.6650   24.1580 C   0  0  0  0  0  0  0  0  0  0  0  0
   10.2390    3.3960   23.0270 C   0  0  0  0  0  0  0  0  0  0  0  0
   11.1270    4.3950   22.8780 C   0  0  0  0  0  0  0  0  0  0  0  0
   12.1970    4.7040   21.8650 C   0  0  0  0  0  0  0  0  0  0  0  0
   12.8940    5.8810   22.1020 C   0  0  0  0  0  0  0  0  0  0  0  0
   12.5800    6.6840   23.2210 C   0  0  0  0  0  0  0  0  0  0  0  0
   11.5650    6.3490   24.1490 C   0  0  0  0  0  0  0  0  0  0  0  0
   10.8280    5.1810   23.9680 C   0  0  0  0  0  0  0  0  0  0  0  0
    9.8890    4.7310   24.6910 O   0  0  0  0  0  0  0  0  0  0  0  0
    7.4960    3.0480   25.5280 C   0  0  0  0  0  0  0  0  0  0  0  0
    6.4980    1.6230   25.6530 S   0  0  0  0  0  0  0  0  0  0  0  0
    7.1480   -0.7670   20.9660 N   0  0  0  0  0  0  0  0  0  0  0  0
    6.4200   -0.0370   20.0180 C   0  0  0  0  0  0  0  0  0  0  0  0
    5.2330    0.6650   20.2590 C   0  0  0  0  0  0  0  0  0  0  0  0
    4.6200    1.3560   19.2140 C   0  0  0  0  0  0  0  0  0  0  0  0
    5.2130    1.3240   17.9640 C   0  0  0  0  0  0  0  0  0  0  0  0
    6.3490    0.6520   17.7130 N   0  0  0  0  0  0  0  0  0  0  0  0
    6.9140   -0.0060   18.7370 C   0  0  0  0  0  0  0  0  0  0  0  0
  1  2  2  0
  2  3  1  0
  3  4  1  0
  4  5  1  0
  5  6  2  0
  6  7  1  0
  7  8  1  0
  8  9  2  0
  9 10  1  0
 10 11  2  0
 11 12  1  0
 12 13  2  0
 13 14  1  0
 10 15  1  0
 14 15  2  0
  8 16  1  0
 15 16  1  0
  7 17  2  0
  5 18  1  0
 17 18  1  0
  2 19  1  0
 19 20  1  0
 20 21  2  0
 21 22  1  0
 22 23  2  0
 23 24  1  0
 20 25  1  0
 24 25  2  0
M  END
