pyridine_urea_808
     RDKit          3D

 23 24  0  0  0  0  0  0  0  0999 V2000
   11.0020   -2.3510   21.9890 C   0  0  0  0  0  0  0  0  0  0  0  0
   11.1790   -0.9780   22.5180 C   0  0  0  0  0  0  0  0  0  0  0  0
   10.1340   -0.1200   22.8060 C   0  0  0  0  0  0  0  0  0  0  0  0
    8.8360   -0.7270   22.5120 N   0  0  0  0  0  0  0  0  0  0  0  0
    8.1240   -0.1600   21.5360 C   0  0  0  0  0  0  0  0  0  0  0  0
    8.5430    0.9310   21.1520 O   0  0  0  0  0  0  0  0  0  0  0  0
    6.9470   -0.8170   21.0180 N   0  0  0  0  0  0  0  0  0  0  0  0
    6.3590   -0.1060   20.0120 C   0  0  0  0  0  0  0  0  0  0  0  0
    5.0660    0.6390   20.3490 C   0  0  0  0  0  0  0  0  0  0  0  0
    4.5000    1.4160   19.1600 C   0  0  0  0  0  0  0  0  0  0  0  0
    5.2190    1.3830   17.8400 C   0  0  0  0  0  0  0  0  0  0  0  0
    6.3540    0.6730   17.6870 N   0  0  0  0  0  0  0  0  0  0  0  0
    6.9050   -0.0480   18.7400 C   0  0  0  0  0  0  0  0  0  0  0  0
   10.4830    1.1470   23.3010 C   0  0  0  0  0  0  0  0  0  0  0  0
   11.7920    1.5480   23.4870 C   0  0  0  0  0  0  0  0  0  0  0  0
   12.8450    0.7200   23.2070 C   0  0  0  0  0  0  0  0  0  0  0  0
   12.6120   -0.5220   22.7470 C   0  0  0  0  0  0  0  0  0  0  0  0
   13.5700   -1.4240   22.4740 O   0  0  0  0  0  0  0  0  0  0  0  0
   13.4080   -2.6330   23.2010 C   0  0  0  0  0  0  0  0  0  0  0  0
   12.8840   -2.3690   24.4730 C   0  0  0  0  0  0  0  0  0  0  0  0
   13.6120   -3.0170   25.4120 F   0  0  0  0  0  0  0  0  0  0  0  0
   12.9170   -1.0710   24.8050 F   0  0  0  0  0  0  0  0  0  0  0  0
   11.6130   -2.8020   24.5940 F   0  0  0  0  0  0  0  0  0  0  0  0
  1  2  1  0
  2  3  2  0
  3  4  1  0
  4  5  1  0
  5  6  2  0
  5  7  1  0
  7  8  1  0
  8  9  2  0
  9 10  1  0
 10 11  2  0
 11 12  1  0
  8 13  1  0
 12 13  2  0
  3 14  1  0
 14 15  2  0
 15 16  1  0
  2 17  1  0
 16 17  2  0
 17 18  1  0
 18 19  1  0
 19 20  1  0
 20 21  1  0
 20 22  1  0
 20 23  1  0
M  END
