pyridine_urea_2929
     RDKit          3D

 22 23  0  0  0  0  0  0  0  0999 V2000
   13.2390   -2.0410   21.2290 C   0  0  0  0  0  0  0  0  0  0  0  0
   11.9110   -1.6230   21.0780 O   0  0  0  0  0  0  0  0  0  0  0  0
   11.4150   -1.1260   22.2970 C   0  0  0  0  0  0  0  0  0  0  0  0
   12.4180   -0.5160   23.3060 C   0  0  0  0  0  0  0  0  0  0  0  0
   11.9530   -0.0820   24.5430 C   0  0  0  0  0  0  0  0  0  0  0  0
   10.4480   -0.2090   24.9500 C   0  0  0  0  0  0  0  0  0  0  0  0
    9.7530    0.0840   26.1590 C   0  0  0  0  0  0  0  0  0  0  0  0
    8.6060   -0.8330   26.3480 N   0  0  0  0  0  0  0  0  0  0  0  0
    8.4370   -1.1790   27.7620 C   0  0  0  0  0  0  0  0  0  0  0  0
    7.3980   -0.1320   25.9070 C   0  0  0  0  0  0  0  0  0  0  0  0
    9.6460   -0.7040   23.9790 C   0  0  0  0  0  0  0  0  0  0  0  0
   10.0700   -1.1700   22.6250 C   0  0  0  0  0  0  0  0  0  0  0  0
    9.0480   -1.6080   21.8080 N   0  0  0  0  0  0  0  0  0  0  0  0
    8.2120   -0.6040   21.2730 C   0  0  0  0  0  0  0  0  0  0  0  0
    8.5210    0.5690   21.0960 O   0  0  0  0  0  0  0  0  0  0  0  0
    6.9620   -0.9920   20.9590 N   0  0  0  0  0  0  0  0  0  0  0  0
    6.3930   -0.2310   19.9970 C   0  0  0  0  0  0  0  0  0  0  0  0
    5.1960    0.4500   20.2580 C   0  0  0  0  0  0  0  0  0  0  0  0
    4.6040    1.2490   19.2620 C   0  0  0  0  0  0  0  0  0  0  0  0
    5.1990    1.3740   18.0060 C   0  0  0  0  0  0  0  0  0  0  0  0
    6.3410    0.7500   17.6880 N   0  0  0  0  0  0  0  0  0  0  0  0
    6.9280   -0.0740   18.7410 C   0  0  0  0  0  0  0  0  0  0  0  0
  1  2  1  0
  2  3  1  0
  3  4  2  0
  4  5  1  0
  5  6  2  0
  6  7  1  0
  7  8  1  0
  8  9  1  0
  8 10  1  0
  6 11  1  0
  3 12  1  0
 11 12  2  0
 12 13  1  0
 13 14  1  0
 14 15  2  0
 14 16  1  0
 16 17  1  0
 17 18  2  0
 18 19  1  0
 19 20  2  0
 20 21  1  0
 17 22  1  0
 21 22  2  0
M  END
