pyridine_urea_6104
     RDKit          3D

 25 27  0  0  0  0  0  0  0  0999 V2000
   13.6220    5.0290   21.4120 C   0  0  0  0  0  0  0  0  0  0  0  0
   12.7450    6.0720   21.8470 N   0  0  0  0  0  0  0  0  0  0  0  0
   13.2960    6.8710   22.7770 C   0  0  0  0  0  0  0  0  0  0  0  0
   11.6840    5.3900   22.2320 C   0  0  0  0  0  0  0  0  0  0  0  0
   10.6200    5.7820   22.7010 O   0  0  0  0  0  0  0  0  0  0  0  0
   11.8730    4.0250   22.0600 C   0  0  0  0  0  0  0  0  0  0  0  0
   11.8030    3.3180   23.2970 N   0  0  0  0  0  0  0  0  0  0  0  0
   10.6760    3.8780   23.9350 C   0  0  0  0  0  0  0  0  0  0  0  0
    9.4270    3.1040   23.5620 C   0  0  0  0  0  0  0  0  0  0  0  0
   10.0510    1.7920   23.1720 C   0  0  0  0  0  0  0  0  0  0  0  0
    9.3710    0.5210   22.9360 C   0  0  0  0  0  0  0  0  0  0  0  0
   10.1000   -0.5690   22.5910 C   0  0  0  0  0  0  0  0  0  0  0  0
    9.3210   -1.5820   22.3640 N   0  0  0  0  0  0  0  0  0  0  0  0
    8.4760   -0.7390   21.5600 C   0  0  0  0  0  0  0  0  0  0  0  0
    9.0270    0.5290   21.2310 O   0  0  0  0  0  0  0  0  0  0  0  0
    7.2080   -1.0910   21.1460 N   0  0  0  0  0  0  0  0  0  0  0  0
    6.5550   -0.3390   20.0580 C   0  0  0  0  0  0  0  0  0  0  0  0
    5.4060    0.3210   20.4840 C   0  0  0  0  0  0  0  0  0  0  0  0
    4.7280    1.0670   19.5300 C   0  0  0  0  0  0  0  0  0  0  0  0
    5.1930    1.1360   18.2290 C   0  0  0  0  0  0  0  0  0  0  0  0
    6.2960    0.5030   17.8030 N   0  0  0  0  0  0  0  0  0  0  0  0
    6.9570   -0.2270   18.7380 C   0  0  0  0  0  0  0  0  0  0  0  0
   11.5280   -0.5100   22.4920 C   0  0  0  0  0  0  0  0  0  0  0  0
   12.2520    0.7150   22.7160 C   0  0  0  0  0  0  0  0  0  0  0  0
   11.5210    1.8940   23.0380 C   0  0  0  0  0  0  0  0  0  0  0  0
  1  2  1  0
  2  3  1  0
  2  4  1  0
  4  5  2  0
  4  6  1  0
  6  7  1  0
  7  8  1  0
  8  9  1  0
  9 10  1  0
 10 11  2  0
 11 12  1  0
 12 13  1  0
 13 14  1  0
 14 15  2  0
 14 16  1  0
 16 17  1  0
 17 18  2  0
 18 19  1  0
 19 20  2  0
 20 21  1  0
 17 22  1  0
 21 22  2  0
 12 23  2  0
 23 24  1  0
  7 25  1  0
 10 25  1  0
 24 25  2  0
M  END
