pyridine_urea_11060
     RDKit          3D

 19 20  0  0  0  0  0  0  0  0999 V2000
    8.9930    0.3620   21.3820 O   0  0  0  0  0  0  0  0  0  0  0  0
    8.2520   -0.6120   21.4340 C   0  0  0  0  0  0  0  0  0  0  0  0
    8.6450   -1.9360   21.8850 N   0  0  0  0  0  0  0  0  0  0  0  0
    9.8380   -2.1220   22.5410 C   0  0  0  0  0  0  0  0  0  0  0  0
   10.1950   -1.0730   23.2980 C   0  0  0  0  0  0  0  0  0  0  0  0
   11.2640   -1.4460   22.4140 C   0  0  0  0  0  0  0  0  0  0  0  0
   12.5410   -0.9420   22.1940 C   0  0  0  0  0  0  0  0  0  0  0  0
   13.2460   -1.6060   21.2510 F   0  0  0  0  0  0  0  0  0  0  0  0
   13.1040    0.2040   22.8900 C   0  0  0  0  0  0  0  0  0  0  0  0
   12.0950    0.6820   23.8480 C   0  0  0  0  0  0  0  0  0  0  0  0
   10.7420   -0.0010   23.9730 C   0  0  0  0  0  0  0  0  0  0  0  0
    9.4110    0.5430   25.1950 Br  0  0  0  0  0  0  0  0  0  0  0  0
    6.9160   -0.6420   21.0820 N   0  0  0  0  0  0  0  0  0  0  0  0
    6.3330    0.0330   20.0600 C   0  0  0  0  0  0  0  0  0  0  0  0
    5.1660    0.7830   20.2340 C   0  0  0  0  0  0  0  0  0  0  0  0
    4.6320    1.4530   19.1370 C   0  0  0  0  0  0  0  0  0  0  0  0
    5.2610    1.3620   17.9170 C   0  0  0  0  0  0  0  0  0  0  0  0
    6.3770    0.6530   17.6980 N   0  0  0  0  0  0  0  0  0  0  0  0
    6.9030   -0.0170   18.8040 C   0  0  0  0  0  0  0  0  0  0  0  0
  1  2  2  0
  2  3  1  0
  3  4  1  0
  4  5  1  0
  5  6  2  0
  6  7  1  0
  7  8  1  0
  7  9  2  0
  9 10  1  0
  5 11  1  0
 10 11  2  0
 11 12  1  0
  2 13  1  0
 13 14  1  0
 14 15  2  0
 15 16  1  0
 16 17  2  0
 17 18  1  0
 14 19  1  0
 18 19  2  0
M  END
