pyridine_urea_12122
     RDKit          3D

 23 24  0  0  0  0  0  0  0  0999 V2000
    8.8810    0.1000   26.1770 C   0  0  0  0  0  0  0  0  0  0  0  0
    8.8600    1.2290   25.1510 C   0  0  0  0  0  0  0  0  0  0  0  0
   10.2190    1.6330   24.9200 O   0  0  0  0  0  0  0  0  0  0  0  0
   10.8820    0.6370   24.3010 C   0  0  0  0  0  0  0  0  0  0  0  0
   10.2340    0.2510   23.2470 C   0  0  0  0  0  0  0  0  0  0  0  0
   10.6910   -0.7540   22.4860 C   0  0  0  0  0  0  0  0  0  0  0  0
   11.8170   -1.5930   22.5120 C   0  0  0  0  0  0  0  0  0  0  0  0
   10.9600   -1.8230   21.5360 C   0  0  0  0  0  0  0  0  0  0  0  0
    9.7000   -2.3720   22.2150 C   0  0  0  0  0  0  0  0  0  0  0  0
    8.6930   -1.3410   22.4940 N   0  0  0  0  0  0  0  0  0  0  0  0
    8.2480   -0.4330   21.5550 C   0  0  0  0  0  0  0  0  0  0  0  0
    8.8940    0.7430   21.2750 O   0  0  0  0  0  0  0  0  0  0  0  0
    7.0760   -0.8460   20.9690 N   0  0  0  0  0  0  0  0  0  0  0  0
    6.3710   -0.0870   20.0240 C   0  0  0  0  0  0  0  0  0  0  0  0
    5.1860    0.6230   20.2580 C   0  0  0  0  0  0  0  0  0  0  0  0
    4.6210    1.3420   19.2030 C   0  0  0  0  0  0  0  0  0  0  0  0
    5.2290    1.3450   17.9630 C   0  0  0  0  0  0  0  0  0  0  0  0
    6.3550    0.6800   17.6860 N   0  0  0  0  0  0  0  0  0  0  0  0
    6.9110   -0.0390   18.7480 C   0  0  0  0  0  0  0  0  0  0  0  0
   12.4290   -1.0780   23.6300 C   0  0  0  0  0  0  0  0  0  0  0  0
   12.0340   -0.0980   24.4690 C   0  0  0  0  0  0  0  0  0  0  0  0
   12.8080   -0.0190   25.3350 O   0  0  0  0  0  0  0  0  0  0  0  0
   13.2340   -1.3990   25.4100 C   0  0  0  0  0  0  0  0  0  0  0  0
  1  2  1  0
  2  3  1  0
  3  4  1  0
  4  5  2  0
  5  6  1  0
  6  7  2  0
  7  8  1  0
  8  9  1  0
  9 10  1  0
 10 11  1  0
 11 12  2  0
 11 13  1  0
 13 14  1  0
 14 15  2  0
 15 16  1  0
 16 17  2  0
 17 18  1  0
 14 19  1  0
 18 19  2  0
  7 20  1  0
  4 21  1  0
 20 21  2  0
 21 22  1  0
 22 23  1  0
M  END
