pyridine_urea_8071
     RDKit          3D

 24 26  0  0  0  0  0  0  0  0999 V2000
    9.1510   -5.6060   25.4680 C   0  0  0  0  0  0  0  0  0  0  0  0
    8.0510   -5.2480   24.4510 C   0  0  0  0  0  0  0  0  0  0  0  0
    7.6210   -6.2500   23.3160 C   0  0  0  0  0  0  0  0  0  0  0  0
    6.6350   -5.8990   22.4320 C   0  0  0  0  0  0  0  0  0  0  0  0
    6.0570   -4.6480   22.5720 N   0  0  0  0  0  0  0  0  0  0  0  0
    6.4230   -3.7540   23.5430 C   0  0  0  0  0  0  0  0  0  0  0  0
    5.9050   -2.4960   23.6810 C   0  0  0  0  0  0  0  0  0  0  0  0
    4.6140   -2.0350   24.0810 N   0  0  0  0  0  0  0  0  0  0  0  0
    4.7450   -0.6630   24.0210 N   0  0  0  0  0  0  0  0  0  0  0  0
    6.1020   -0.3780   23.5910 C   0  0  0  0  0  0  0  0  0  0  0  0
    6.6760    0.9930   23.3890 C   0  0  1  0  0  0  0  0  0  0  0  0
    6.8030    1.4190   24.8460 C   0  0  0  0  0  0  0  0  0  0  0  0
    7.9290    0.9810   22.8480 N   0  0  0  0  0  0  0  0  0  0  0  0
    8.2790    0.1140   21.7970 C   0  0  0  0  0  0  0  0  0  0  0  0
    9.6330   -0.0970   21.4300 O   0  0  0  0  0  0  0  0  0  0  0  0
    7.2810   -0.5100   21.1300 N   0  0  0  0  0  0  0  0  0  0  0  0
    6.5990    0.1020   20.0380 C   0  0  0  0  0  0  0  0  0  0  0  0
    5.3410    0.9140   20.3060 C   0  0  0  0  0  0  0  0  0  0  0  0
    4.6740    1.5320   19.2480 C   0  0  0  0  0  0  0  0  0  0  0  0
    5.1460    1.4180   17.9420 C   0  0  0  0  0  0  0  0  0  0  0  0
    6.3520    0.6250   17.7110 N   0  0  0  0  0  0  0  0  0  0  0  0
    6.9910    0.0270   18.7320 C   0  0  0  0  0  0  0  0  0  0  0  0
    6.7640   -1.4990   23.3990 N   0  0  0  0  0  0  0  0  0  0  0  0
    7.4150   -4.0190   24.5070 C   0  0  0  0  0  0  0  0  0  0  0  0
  1  2  1  0
  2  3  2  0
  3  4  1  0
  4  5  2  0
  5  6  1  0
  6  7  1  0
  7  8  2  0
  8  9  1  0
  9 10  2  0
 10 11  1  0
 11 12  1  1
 11 13  1  0
 13 14  1  0
 14 15  2  0
 14 16  1  0
 16 17  1  0
 17 18  2  0
 18 19  1  0
 19 20  2  0
 20 21  1  0
 17 22  1  0
 21 22  2  0
  7 23  1  0
 10 23  1  0
  2 24  1  0
  6 24  2  0
M  END
