pyridine_urea_2840
     RDKit          3D

 22 23  0  0  0  0  0  0  0  0999 V2000
    8.6900    1.2910   21.0440 O   0  0  0  0  0  0  0  0  0  0  0  0
    8.2900    0.2240   21.5210 C   0  0  0  0  0  0  0  0  0  0  0  0
    7.2840   -0.5360   20.9730 N   0  0  0  0  0  0  0  0  0  0  0  0
    6.5150    0.1160   19.9550 C   0  0  0  0  0  0  0  0  0  0  0  0
    5.2160    0.8900   20.3340 C   0  0  0  0  0  0  0  0  0  0  0  0
    4.5390    1.5130   19.2960 C   0  0  0  0  0  0  0  0  0  0  0  0
    5.1480    1.3690   17.8980 C   0  0  0  0  0  0  0  0  0  0  0  0
    6.2710    0.6740   17.6370 N   0  0  0  0  0  0  0  0  0  0  0  0
    6.9150    0.0760   18.6520 C   0  0  0  0  0  0  0  0  0  0  0  0
    8.7380   -0.3910   22.6440 N   0  0  0  0  0  0  0  0  0  0  0  0
   10.0320   -0.0440   23.1950 C   0  0  2  0  0  0  0  0  0  0  0  0
   10.5340    1.3400   22.8940 C   0  0  0  0  0  0  0  0  0  0  0  0
   12.0770    1.2200   23.0220 C   0  0  0  0  0  0  0  0  0  0  0  0
   12.5540    0.5490   22.1550 O   0  0  0  0  0  0  0  0  0  0  0  0
   10.8780   -0.9750   22.8220 C   0  0  0  0  0  0  0  0  0  0  0  0
   11.0750   -2.0220   21.7910 C   0  0  0  0  0  0  0  0  0  0  0  0
   12.4680   -2.7620   22.1510 C   0  0  0  0  0  0  0  0  0  0  0  0
   13.3190   -2.4170   23.3170 C   0  0  0  0  0  0  0  0  0  0  0  0
   14.3740   -3.1380   23.5090 F   0  0  0  0  0  0  0  0  0  0  0  0
   12.8690   -1.3740   24.0610 C   0  0  0  0  0  0  0  0  0  0  0  0
   11.9460   -1.3890   23.2530 C   0  0  0  0  0  0  0  0  0  0  0  0
   12.3040   -2.3750   22.4300 F   0  0  0  0  0  0  0  0  0  0  0  0
  1  2  2  0
  2  3  1  0
  3  4  1  0
  4  5  2  0
  5  6  1  0
  6  7  2  0
  7  8  1  0
  4  9  1  0
  8  9  2  0
  2 10  1  0
 10 11  1  0
 11 12  1  6
 12 13  1  0
 13 14  1  0
 11 15  1  0
 15 16  2  0
 16 17  1  0
 17 18  2  0
 18 19  1  0
 18 20  1  0
 15 21  1  0
 20 21  2  0
 21 22  1  0
M  END
