pyridine_urea_7203
     RDKit          3D

 19 21  0  0  0  0  0  0  0  0999 V2000
    8.4600    0.8020   20.9980 O   0  0  0  0  0  0  0  0  0  0  0  0
    7.9230   -0.2490   21.3130 C   0  0  0  0  0  0  0  0  0  0  0  0
    8.3130   -1.0070   22.3610 N   0  0  0  0  0  0  0  0  0  0  0  0
    8.9190   -0.4240   23.4460 C   0  0  0  0  0  0  0  0  0  0  0  0
   10.0920    0.2210   23.2410 C   0  0  0  0  0  0  0  0  0  0  0  0
   10.2830    1.5870   23.1090 N   0  0  0  0  0  0  0  0  0  0  0  0
   11.5830    1.7020   22.9120 N   0  0  0  0  0  0  0  0  0  0  0  0
   12.0910    0.4280   22.9270 C   0  0  0  0  0  0  0  0  0  0  0  0
   11.2990   -0.6310   23.1300 C   0  0  0  0  0  0  0  0  0  0  0  0
   11.6560   -1.9310   23.1650 C   0  0  0  0  0  0  0  0  0  0  0  0
   13.0790   -1.6150   22.7030 C   0  0  0  0  0  0  0  0  0  0  0  0
   13.3060   -0.2040   22.7760 C   0  0  0  0  0  0  0  0  0  0  0  0
    6.8480   -0.8140   20.7140 N   0  0  0  0  0  0  0  0  0  0  0  0
    6.1860   -0.0500   19.8580 C   0  0  0  0  0  0  0  0  0  0  0  0
    4.9740    0.5760   20.1210 C   0  0  0  0  0  0  0  0  0  0  0  0
    4.4390    1.3460   19.1170 C   0  0  0  0  0  0  0  0  0  0  0  0
    5.1630    1.4640   17.8450 C   0  0  0  0  0  0  0  0  0  0  0  0
    6.3340    0.8500   17.5980 N   0  0  0  0  0  0  0  0  0  0  0  0
    6.7930    0.1170   18.6230 C   0  0  0  0  0  0  0  0  0  0  0  0
  1  2  2  0
  2  3  1  0
  3  4  1  0
  4  5  1  0
  5  6  1  0
  6  7  1  0
  7  8  2  0
  5  9  2  0
  8  9  1  0
  9 10  1  0
 10 11  1  0
  8 12  1  0
 11 12  1  0
  2 13  1  0
 13 14  1  0
 14 15  2  0
 15 16  1  0
 16 17  2  0
 17 18  1  0
 14 19  1  0
 18 19  2  0
M  END
