pyridine_urea_7276
     RDKit          3D

 18 19  0  0  0  0  0  0  0  0999 V2000
    8.8860    0.9110   21.4060 O   0  0  0  0  0  0  0  0  0  0  0  0
    8.4560   -0.2260   21.4750 C   0  0  0  0  0  0  0  0  0  0  0  0
    9.1880   -1.3200   21.8360 N   0  0  0  0  0  0  0  0  0  0  0  0
   10.3170   -1.2630   22.6610 C   0  0  0  0  0  0  0  0  0  0  0  0
   11.5640   -1.6010   22.1240 C   0  0  0  0  0  0  0  0  0  0  0  0
   12.6570   -0.8290   22.4970 C   0  0  2  0  0  0  0  0  0  0  0  0
   13.6610   -1.3990   22.1460 O   0  0  0  0  0  0  0  0  0  0  0  0
   12.5600   -0.3920   23.7680 C   0  0  0  0  0  0  0  0  0  0  0  0
   11.5280    0.5150   24.0050 C   0  0  0  0  0  0  0  0  0  0  0  0
   10.9190   -0.3470   24.8850 C   0  0  0  0  0  0  0  0  0  0  0  0
   12.1180   -1.2790   24.7400 C   0  0  0  0  0  0  0  0  0  0  0  0
    7.1690   -0.5810   21.1770 N   0  0  0  0  0  0  0  0  0  0  0  0
    6.4810    0.0400   20.1350 C   0  0  0  0  0  0  0  0  0  0  0  0
    5.3110    0.7820   20.3290 C   0  0  0  0  0  0  0  0  0  0  0  0
    4.6420    1.4150   19.2900 C   0  0  0  0  0  0  0  0  0  0  0  0
    5.1490    1.3090   18.0140 C   0  0  0  0  0  0  0  0  0  0  0  0
    6.2460    0.6300   17.6700 N   0  0  0  0  0  0  0  0  0  0  0  0
    6.9050    0.0110   18.6730 C   0  0  0  0  0  0  0  0  0  0  0  0
  1  2  2  0
  2  3  1  0
  3  4  1  0
  4  5  1  0
  5  6  1  0
  6  7  1  1
  6  8  1  0
  8  9  1  0
  9 10  1  0
  8 11  1  0
 10 11  1  0
  2 12  1  0
 12 13  1  0
 13 14  2  0
 14 15  1  0
 15 16  2  0
 16 17  1  0
 13 18  1  0
 17 18  2  0
M  END
