pyridine_urea_3438
     RDKit          3D

 19 20  0  0  0  0  0  0  0  0999 V2000
    3.6360   -2.6430   24.8180 C   0  0  0  0  0  0  0  0  0  0  0  0
    4.2040   -3.1310   26.0340 O   0  0  0  0  0  0  0  0  0  0  0  0
    5.5650   -3.2860   26.0910 C   0  0  0  0  0  0  0  0  0  0  0  0
    6.3510   -3.4930   24.9550 C   0  0  0  0  0  0  0  0  0  0  0  0
    7.3070   -2.5450   24.4500 N   0  0  0  0  0  0  0  0  0  0  0  0
    7.8770   -3.0950   23.3280 C   0  0  0  0  0  0  0  0  0  0  0  0
    8.8510   -2.3550   22.6580 C   0  0  0  0  0  0  0  0  0  0  0  0
    8.8600   -1.0040   22.7740 N   0  0  0  0  0  0  0  0  0  0  0  0
    8.4210   -0.2470   21.7260 C   0  0  0  0  0  0  0  0  0  0  0  0
    9.0150    0.7610   21.3680 O   0  0  0  0  0  0  0  0  0  0  0  0
    7.1850   -0.7910   21.1580 N   0  0  0  0  0  0  0  0  0  0  0  0
    6.5410   -0.0930   20.0630 C   0  0  0  0  0  0  0  0  0  0  0  0
    5.2710    0.7100   20.3900 C   0  0  0  0  0  0  0  0  0  0  0  0
    4.6850    1.3670   19.3160 C   0  0  0  0  0  0  0  0  0  0  0  0
    5.2100    1.2980   18.0480 C   0  0  0  0  0  0  0  0  0  0  0  0
    6.3170    0.5990   17.7320 N   0  0  0  0  0  0  0  0  0  0  0  0
    6.9450   -0.0710   18.7340 C   0  0  0  0  0  0  0  0  0  0  0  0
    7.4500   -4.3900   22.9110 C   0  0  0  0  0  0  0  0  0  0  0  0
    6.2390   -5.0170   23.9780 S   0  0  0  0  0  0  0  0  0  0  0  0
  1  2  1  0
  2  3  1  0
  3  4  1  0
  4  5  2  0
  5  6  1  0
  6  7  1  0
  7  8  1  0
  8  9  1  0
  9 10  2  0
  9 11  1  0
 11 12  1  0
 12 13  2  0
 13 14  1  0
 14 15  2  0
 15 16  1  0
 12 17  1  0
 16 17  2  0
  6 18  2  0
  4 19  1  0
 18 19  1  0
M  END
