pyridine_urea_5381
     RDKit          3D

 18 18  0  0  0  0  0  0  0  0999 V2000
   13.0180    1.1280   22.8620 C   0  0  0  0  0  0  0  0  0  0  0  0
   12.9020    0.5360   24.1200 O   0  0  0  0  0  0  0  0  0  0  0  0
   12.9980   -0.8690   24.0330 C   0  0  0  0  0  0  0  0  0  0  0  0
   13.4610   -1.6440   24.8520 O   0  0  0  0  0  0  0  0  0  0  0  0
   12.3640   -1.3210   22.7010 C   0  0  0  0  0  0  0  0  0  0  0  0
   10.9840   -1.3750   22.7700 C   0  0  2  0  0  0  0  0  0  0  0  0
   10.3470   -2.3080   21.7770 C   0  0  0  0  0  0  0  0  0  0  0  0
   10.3230   -0.1470   22.8820 C   0  0  0  0  0  0  0  0  0  0  0  0
    8.8680   -0.3760   22.7900 N   0  0  0  0  0  0  0  0  0  0  0  0
    8.3150    0.2050   21.5710 C   0  0  0  0  0  0  0  0  0  0  0  0
    8.7430    1.2640   21.0900 O   0  0  0  0  0  0  0  0  0  0  0  0
    7.2460   -0.6180   21.0830 N   0  0  0  0  0  0  0  0  0  0  0  0
    6.5530    0.0290   20.0760 C   0  0  0  0  0  0  0  0  0  0  0  0
    5.2900    0.8090   20.4320 C   0  0  0  0  0  0  0  0  0  0  0  0
    4.5800    1.5070   19.2940 C   0  0  0  0  0  0  0  0  0  0  0  0
    5.2130    1.3440   17.9400 C   0  0  0  0  0  0  0  0  0  0  0  0
    6.3250    0.6330   17.7020 N   0  0  0  0  0  0  0  0  0  0  0  0
    6.9480    0.0110   18.7400 C   0  0  0  0  0  0  0  0  0  0  0  0
  1  2  1  0
  2  3  1  0
  3  4  2  0
  3  5  1  0
  5  6  1  0
  6  7  1  6
  6  8  1  0
  8  9  1  0
  9 10  1  0
 10 11  2  0
 10 12  1  0
 12 13  1  0
 13 14  2  0
 14 15  1  0
 15 16  2  0
 16 17  1  0
 13 18  1  0
 17 18  2  0
M  END
