pyridine_urea_12373
     RDKit          3D

 22 25  0  0  0  0  0  0  0  0999 V2000
    8.8970    1.1430   21.2070 O   0  0  0  0  0  0  0  0  0  0  0  0
    8.4390    0.0290   21.5030 C   0  0  0  0  0  0  0  0  0  0  0  0
    9.0650   -0.8330   22.3880 N   0  0  0  0  0  0  0  0  0  0  0  0
   10.3070   -1.4620   21.9400 C   0  0  0  0  0  0  0  0  0  0  0  0
   11.6190   -1.3410   22.8010 C   0  0  2  0  0  0  0  0  0  0  0  0
   11.5950   -0.6870   24.0880 C   0  0  0  0  0  0  0  0  0  0  0  0
   10.3030   -0.0500   24.3580 C   0  0  2  0  0  0  0  0  0  0  0  0
    9.9680   -1.3180   24.6080 C   0  0  0  0  0  0  0  0  0  0  0  0
   11.4430   -1.8230   24.7030 C   0  0  2  0  0  0  0  0  0  0  0  0
   12.4600   -0.5760   24.7590 C   0  0  0  0  0  0  0  0  0  0  0  0
   12.2650    0.2850   23.4000 C   0  0  2  0  0  0  0  0  0  0  0  0
   12.9330    1.7920   23.0410 Cl  0  0  0  0  0  0  0  0  0  0  0  0
   10.7330    0.5870   23.2690 C   0  0  0  0  0  0  0  0  0  0  0  0
   12.8760   -0.5950   22.5310 C   0  0  0  0  0  0  0  0  0  0  0  0
   11.7630   -2.5920   23.6010 C   0  0  0  0  0  0  0  0  0  0  0  0
    7.2740   -0.5160   21.0270 N   0  0  0  0  0  0  0  0  0  0  0  0
    6.4550    0.1480   20.0150 C   0  0  0  0  0  0  0  0  0  0  0  0
    5.2720    0.8470   20.2550 C   0  0  0  0  0  0  0  0  0  0  0  0
    4.6080    1.4520   19.1890 C   0  0  0  0  0  0  0  0  0  0  0  0
    5.1620    1.3280   17.9350 C   0  0  0  0  0  0  0  0  0  0  0  0
    6.2900    0.6540   17.6810 N   0  0  0  0  0  0  0  0  0  0  0  0
    6.9070    0.0810   18.7230 C   0  0  0  0  0  0  0  0  0  0  0  0
  1  2  2  0
  2  3  1  0
  3  4  1  0
  5  4  1  6
  5  6  1  0
  7  6  1  1
  7  8  1  0
  9  8  1  6
  9 10  1  0
 10 11  1  0
 11 12  1  1
  7 13  1  0
 11 13  1  0
  5 14  1  0
 11 14  1  0
  5 15  1  0
  9 15  1  0
  2 16  1  0
 16 17  1  0
 17 18  2  0
 18 19  1  0
 19 20  2  0
 20 21  1  0
 17 22  1  0
 21 22  2  0
M  END
