pyridine_urea_2707
     RDKit          3D

 23 25  0  0  0  0  0  0  0  0999 V2000
   10.7380   -1.8750   21.8650 C   0  0  0  0  0  0  0  0  0  0  0  0
   10.2710   -0.4530   22.1950 C   0  0  1  0  0  0  0  0  0  0  0  0
    8.9820   -0.3840   22.8150 N   0  0  0  0  0  0  0  0  0  0  0  0
    8.2630    0.2560   21.6980 C   0  0  0  0  0  0  0  0  0  0  0  0
    8.6390    1.3410   21.2250 O   0  0  0  0  0  0  0  0  0  0  0  0
    7.0890   -0.5650   21.2280 N   0  0  0  0  0  0  0  0  0  0  0  0
    6.4370    0.0710   20.0940 C   0  0  0  0  0  0  0  0  0  0  0  0
    5.1390    0.8730   20.3040 C   0  0  0  0  0  0  0  0  0  0  0  0
    4.5550    1.4860   19.2110 C   0  0  0  0  0  0  0  0  0  0  0  0
    5.1890    1.3660   17.8420 C   0  0  0  0  0  0  0  0  0  0  0  0
    6.3410    0.6310   17.7060 N   0  0  0  0  0  0  0  0  0  0  0  0
    6.9500   -0.0040   18.7990 C   0  0  0  0  0  0  0  0  0  0  0  0
   11.3600    0.4250   22.8340 C   0  0  0  0  0  0  0  0  0  0  0  0
   11.4850    1.7970   22.7080 C   0  0  0  0  0  0  0  0  0  0  0  0
   12.4700    0.8610   23.4780 C   0  0  0  0  0  0  0  0  0  0  0  0
   11.4530   -0.3950   23.0590 C   0  0  0  0  0  0  0  0  0  0  0  0
   12.2600   -1.1950   23.7420 C   0  0  0  0  0  0  0  0  0  0  0  0
   12.4450    0.0210   23.6450 C   0  0  0  0  0  0  0  0  0  0  0  0
   13.3580   -1.5740   24.5380 C   0  0  0  0  0  0  0  0  0  0  0  0
   12.9470   -2.8200   24.4160 C   0  0  0  0  0  0  0  0  0  0  0  0
   11.5960   -2.7500   23.9050 C   0  0  0  0  0  0  0  0  0  0  0  0
   10.8220   -3.6410   24.2190 O   0  0  0  0  0  0  0  0  0  0  0  0
   11.0700   -1.7300   23.0650 N   0  0  0  0  0  0  0  0  0  0  0  0
  2  1  1  1
  2  3  1  0
  3  4  1  0
  4  5  2  0
  4  6  1  0
  6  7  1  0
  7  8  2  0
  8  9  1  0
  9 10  2  0
 10 11  1  0
  7 12  1  0
 11 12  2  0
  2 13  1  0
 13 14  2  0
 14 15  1  0
 15 16  2  0
 16 17  1  0
 13 18  1  0
 17 18  2  0
 17 19  1  0
 19 20  1  0
 20 21  1  0
 21 22  2  0
 16 23  1  0
 21 23  1  0
M  END
