pyridine_urea_12539
     RDKit          3D

 21 22  0  0  0  0  0  0  0  0999 V2000
    8.6530    1.1590   21.0570 O   0  0  0  0  0  0  0  0  0  0  0  0
    8.2390    0.0670   21.4780 C   0  0  0  0  0  0  0  0  0  0  0  0
    7.1010   -0.5560   21.0260 N   0  0  0  0  0  0  0  0  0  0  0  0
    6.4090    0.1160   19.9630 C   0  0  0  0  0  0  0  0  0  0  0  0
    5.0940    0.8880   20.2690 C   0  0  0  0  0  0  0  0  0  0  0  0
    4.4840    1.5290   19.2020 C   0  0  0  0  0  0  0  0  0  0  0  0
    5.1810    1.4000   17.8430 C   0  0  0  0  0  0  0  0  0  0  0  0
    6.3200    0.7080   17.6460 N   0  0  0  0  0  0  0  0  0  0  0  0
    6.8960    0.0890   18.6870 C   0  0  0  0  0  0  0  0  0  0  0  0
    8.8190   -0.7030   22.4410 N   0  0  0  0  0  0  0  0  0  0  0  0
   10.2530   -0.5770   22.5830 C   0  0  1  0  0  0  0  0  0  0  0  0
   10.4780    0.3660   23.7430 C   0  0  1  0  0  0  0  0  0  0  0  0
   11.2820   -0.5400   24.6190 C   0  0  0  0  0  0  0  0  0  0  0  0
   12.7310   -0.4990   24.1910 C   0  0  0  0  0  0  0  0  0  0  0  0
   12.8760    0.3480   22.9300 C   0  0  0  0  0  0  0  0  0  0  0  0
   12.3140    1.4260   22.8610 O   0  0  0  0  0  0  0  0  0  0  0  0
   11.0440    1.6130   23.4810 C   0  0  0  0  0  0  0  0  0  0  0  0
   10.9000   -1.8260   22.5630 C   0  0  0  0  0  0  0  0  0  0  0  0
   12.0670   -1.8540   21.8590 F   0  0  0  0  0  0  0  0  0  0  0  0
   11.1640   -2.3490   23.7940 F   0  0  0  0  0  0  0  0  0  0  0  0
   10.0750   -2.7350   21.9920 F   0  0  0  0  0  0  0  0  0  0  0  0
  1  2  2  0
  2  3  1  0
  3  4  1  0
  4  5  2  0
  5  6  1  0
  6  7  2  0
  7  8  1  0
  4  9  1  0
  8  9  2  0
  2 10  1  0
 11 10  1  1
 11 12  1  0
 12 13  1  1
 13 14  1  0
 14 15  1  0
 15 16  1  0
 12 17  1  0
 16 17  1  0
 11 18  1  0
 18 19  1  0
 18 20  1  0
 18 21  1  0
M  END
