pyridine_urea_10937
     RDKit          3D

 19 20  0  0  0  0  0  0  0  0999 V2000
    9.5150   -2.1340   21.5120 C   0  0  0  0  0  0  0  0  0  0  0  0
   10.3490   -0.9880   21.3100 O   0  0  0  0  0  0  0  0  0  0  0  0
   10.8820   -0.6330   22.4730 C   0  0  0  0  0  0  0  0  0  0  0  0
   10.0150   -1.0040   23.4820 C   0  0  0  0  0  0  0  0  0  0  0  0
    8.6780   -0.4680   23.0470 N   0  0  0  0  0  0  0  0  0  0  0  0
    8.3000    0.0330   21.8210 C   0  0  0  0  0  0  0  0  0  0  0  0
    8.9100    1.2040   21.1990 O   0  0  0  0  0  0  0  0  0  0  0  0
    7.2010   -0.6530   21.1390 N   0  0  0  0  0  0  0  0  0  0  0  0
    6.5590   -0.0150   20.1040 C   0  0  0  0  0  0  0  0  0  0  0  0
    5.2960    0.7640   20.4080 C   0  0  0  0  0  0  0  0  0  0  0  0
    4.5620    1.4950   19.2910 C   0  0  0  0  0  0  0  0  0  0  0  0
    5.1940    1.3690   17.9210 C   0  0  0  0  0  0  0  0  0  0  0  0
    6.3310    0.6350   17.7590 N   0  0  0  0  0  0  0  0  0  0  0  0
    6.9910   -0.0340   18.7920 C   0  0  0  0  0  0  0  0  0  0  0  0
   12.2540   -1.3270   22.5390 C   0  0  0  0  0  0  0  0  0  0  0  0
   13.1350   -0.7050   23.3940 C   0  0  0  0  0  0  0  0  0  0  0  0
   12.2010   -0.2170   24.7220 S   0  0  0  0  0  0  0  0  0  0  0  0
   11.2480    1.1340   24.0590 C   0  0  0  0  0  0  0  0  0  0  0  0
   11.1430    0.8540   22.7430 C   0  0  0  0  0  0  0  0  0  0  0  0
  1  2  1  0
  3  2  1  0
  3  4  1  0
  4  5  1  0
  5  6  1  0
  6  7  2  0
  6  8  1  0
  8  9  1  0
  9 10  2  0
 10 11  1  0
 11 12  2  0
 12 13  1  0
  9 14  1  0
 13 14  2  0
  3 15  1  0
 15 16  1  0
 16 17  1  0
 17 18  1  0
  3 19  1  0
 18 19  1  0
M  END
