pyridine_urea_8011
     RDKit          3D

 24 25  0  0  0  0  0  0  0  0999 V2000
   13.4070   -1.5470   21.3250 C   0  0  0  0  0  0  0  0  0  0  0  0
   13.1330   -1.2980   22.8160 C   0  0  0  0  0  0  0  0  0  0  0  0
   11.9770   -1.9510   23.2830 C   0  0  0  0  0  0  0  0  0  0  0  0
   11.4100   -2.4460   22.2130 C   0  0  0  0  0  0  0  0  0  0  0  0
   12.0920   -2.1590   21.2090 C   0  0  0  0  0  0  0  0  0  0  0  0
   12.8700   -1.5230   22.2100 C   0  0  0  0  0  0  0  0  0  0  0  0
   11.6840   -2.1750   22.7350 C   0  0  0  0  0  0  0  0  0  0  0  0
   10.3750   -1.3080   22.5350 C   0  0  1  0  0  0  0  0  0  0  0  0
    9.4560   -1.5930   21.4580 N   0  0  0  0  0  0  0  0  0  0  0  0
    8.5880   -0.5640   21.1620 C   0  0  0  0  0  0  0  0  0  0  0  0
    8.8890    0.5790   21.4860 O   0  0  0  0  0  0  0  0  0  0  0  0
    7.4540   -0.9520   20.4910 N   0  0  0  0  0  0  0  0  0  0  0  0
    6.3110   -0.1710   20.2960 C   0  0  0  0  0  0  0  0  0  0  0  0
    5.1330    0.7530   19.7670 C   0  0  0  0  0  0  0  0  0  0  0  0
    4.5000    1.5860   18.5710 C   0  0  0  0  0  0  0  0  0  0  0  0
    5.5350    1.2260   17.8130 C   0  0  0  0  0  0  0  0  0  0  0  0
    6.0110    0.6160   18.6430 N   0  0  0  0  0  0  0  0  0  0  0  0
    6.8790   -0.0930   19.0770 C   0  0  0  0  0  0  0  0  0  0  0  0
    9.5660   -1.6230   23.7720 C   0  0  0  0  0  0  0  0  0  0  0  0
    8.9260   -2.8280   23.9370 O   0  0  0  0  0  0  0  0  0  0  0  0
    9.5390   -0.7270   24.5820 O   0  0  0  0  0  0  0  0  0  0  0  0
    8.3070   -0.6260   25.1490 C   0  0  0  0  0  0  0  0  0  0  0  0
   13.0130   -1.2360   23.6790 C   0  0  0  0  0  0  0  0  0  0  0  0
   11.9700   -1.7870   24.5530 C   0  0  0  0  0  0  0  0  0  0  0  0
  1  2  3  0
  2  3  1  0
  3  4  2  0
  4  5  1  0
  5  6  2  0
  6  7  1  0
  8  7  1  6
  8  9  1  0
  9 10  1  0
 10 11  2  0
 10 12  1  0
 12 13  1  0
 13 14  2  0
 14 15  1  0
 15 16  2  0
 16 17  1  0
 13 18  1  0
 17 18  2  0
  8 19  1  0
 19 20  2  0
 19 21  1  0
 21 22  1  0
  6 23  1  0
  3 24  1  0
 23 24  2  0
M  END
