pyridine_urea_9327
     RDKit          3D

 17 18  0  0  0  0  0  0  0  0999 V2000
   10.0190   -1.4650   24.3100 C   0  0  0  0  0  0  0  0  0  0  0  0
   10.1690   -0.6340   23.1000 C   0  0  2  0  0  0  0  0  0  0  0  0
    9.0990   -0.9270   22.1720 N   0  0  0  0  0  0  0  0  0  0  0  0
    8.4660    0.0620   21.4630 C   0  0  0  0  0  0  0  0  0  0  0  0
    8.9830    1.1610   21.2100 O   0  0  0  0  0  0  0  0  0  0  0  0
    7.2110   -0.3540   21.0930 N   0  0  0  0  0  0  0  0  0  0  0  0
    6.5100    0.2010   20.0260 C   0  0  0  0  0  0  0  0  0  0  0  0
    5.3550    0.9180   20.2850 C   0  0  0  0  0  0  0  0  0  0  0  0
    4.6550    1.4960   19.2290 C   0  0  0  0  0  0  0  0  0  0  0  0
    5.1440    1.3290   17.9490 C   0  0  0  0  0  0  0  0  0  0  0  0
    6.2510    0.6320   17.6720 N   0  0  0  0  0  0  0  0  0  0  0  0
    6.9070    0.0840   18.7130 C   0  0  0  0  0  0  0  0  0  0  0  0
   11.4610   -0.9880   22.4530 C   0  0  0  0  0  0  0  0  0  0  0  0
   11.7530   -2.0200   21.5850 C   0  0  0  0  0  0  0  0  0  0  0  0
   12.8740   -2.2890   21.0570 N   0  0  0  0  0  0  0  0  0  0  0  0
   13.5010   -1.3080   21.6210 N   0  0  0  0  0  0  0  0  0  0  0  0
   12.8860   -0.3310   22.5410 C   0  0  0  0  0  0  0  0  0  0  0  0
  2  1  1  1
  2  3  1  0
  3  4  1  0
  4  5  2  0
  4  6  1  0
  6  7  1  0
  7  8  2  0
  8  9  1  0
  9 10  2  0
 10 11  1  0
  7 12  1  0
 11 12  2  0
  2 13  1  0
 13 14  1  0
 14 15  2  0
 15 16  1  0
 13 17  2  0
 16 17  1  0
M  END
