pyridine_urea_2097
     RDKit          3D

 23 26  0  0  0  0  0  0  0  0999 V2000
    8.7130    0.4050   21.3720 O   0  0  0  0  0  0  0  0  0  0  0  0
    8.0700   -0.6170   21.5760 C   0  0  0  0  0  0  0  0  0  0  0  0
    6.9120   -0.9490   20.9470 N   0  0  0  0  0  0  0  0  0  0  0  0
    6.2580   -0.1420   20.0210 C   0  0  0  0  0  0  0  0  0  0  0  0
    4.9720    0.6420   20.3170 C   0  0  0  0  0  0  0  0  0  0  0  0
    4.4550    1.4590   19.1400 C   0  0  0  0  0  0  0  0  0  0  0  0
    5.2370    1.4070   17.8670 C   0  0  0  0  0  0  0  0  0  0  0  0
    6.3590    0.6770   17.7180 N   0  0  0  0  0  0  0  0  0  0  0  0
    6.8220   -0.0490   18.7570 C   0  0  0  0  0  0  0  0  0  0  0  0
    8.4130   -1.5870   22.4960 N   0  0  0  0  0  0  0  0  0  0  0  0
    9.5580   -1.3650   23.3160 C   0  0  2  0  0  0  0  0  0  0  0  0
   10.1660   -0.3680   22.9430 C   0  0  0  0  0  0  0  0  0  0  0  0
   11.0660   -1.3950   22.6220 C   0  0  1  0  0  0  0  0  0  0  0  0
   12.0870   -0.5330   22.6830 C   0  0  0  0  0  0  0  0  0  0  0  0
   13.3390   -0.4550   22.6390 C   0  0  0  0  0  0  0  0  0  0  0  0
   13.6200    0.9920   22.7260 C   0  0  0  0  0  0  0  0  0  0  0  0
   12.4160    2.1210   22.8770 C   0  0  0  0  0  0  0  0  0  0  0  0
   12.9200    3.4260   22.9090 C   0  0  0  0  0  0  0  0  0  0  0  0
   12.1790    4.5440   23.0360 C   0  0  0  0  0  0  0  0  0  0  0  0
   10.8560    4.4210   23.1430 C   0  0  0  0  0  0  0  0  0  0  0  0
   10.2590    3.1850   23.1140 C   0  0  0  0  0  0  0  0  0  0  0  0
   10.9600    1.7820   22.9630 C   0  0  0  0  0  0  0  0  0  0  0  0
   12.0010    0.8420   22.8230 C   0  0  0  0  0  0  0  0  0  0  0  0
  1  2  2  0
  2  3  1  0
  3  4  1  0
  4  5  2  0
  5  6  1  0
  6  7  2  0
  7  8  1  0
  4  9  1  0
  8  9  2  0
  2 10  1  0
 11 10  1  6
 11 12  1  0
 11 13  1  0
 12 13  1  0
 13 14  1  1
 14 15  2  0
 15 16  1  0
 16 17  2  0
 17 18  1  0
 18 19  2  0
 19 20  1  0
 20 21  2  0
 17 22  1  0
 21 22  1  0
 14 23  1  0
 22 23  2  0
M  END
