pyridine_urea_1603
     RDKit          3D

 19 20  0  0  0  0  0  0  0  0999 V2000
    9.2670    0.0700   26.7620 C   0  0  0  0  0  0  0  0  0  0  0  0
   10.5980   -0.2700   26.3650 O   0  0  0  0  0  0  0  0  0  0  0  0
   10.7490   -0.5100   25.0290 C   0  0  0  0  0  0  0  0  0  0  0  0
   11.9510   -0.7320   24.3350 C   0  0  0  0  0  0  0  0  0  0  0  0
   11.9300   -1.0070   22.9710 C   0  0  0  0  0  0  0  0  0  0  0  0
   13.3830   -1.3750   21.8600 Br  0  0  0  0  0  0  0  0  0  0  0  0
   10.7340   -1.0320   22.3740 C   0  0  0  0  0  0  0  0  0  0  0  0
    9.5650   -0.8140   23.0080 C   0  0  0  0  0  0  0  0  0  0  0  0
    8.3760   -0.8580   22.3640 N   0  0  0  0  0  0  0  0  0  0  0  0
    8.0120   -0.0410   21.3670 C   0  0  0  0  0  0  0  0  0  0  0  0
    8.7340    1.1710   21.0820 O   0  0  0  0  0  0  0  0  0  0  0  0
    6.9100   -0.5670   20.7800 N   0  0  0  0  0  0  0  0  0  0  0  0
    6.1850    0.1780   19.8040 C   0  0  0  0  0  0  0  0  0  0  0  0
    4.9750    0.8000   20.0060 C   0  0  0  0  0  0  0  0  0  0  0  0
    4.4340    1.4990   18.9450 C   0  0  0  0  0  0  0  0  0  0  0  0
    5.1210    1.5430   17.7460 C   0  0  0  0  0  0  0  0  0  0  0  0
    6.2930    0.9300   17.5470 N   0  0  0  0  0  0  0  0  0  0  0  0
    6.7880    0.2650   18.5820 C   0  0  0  0  0  0  0  0  0  0  0  0
    9.5660   -0.5460   24.3560 C   0  0  0  0  0  0  0  0  0  0  0  0
  1  2  1  0
  2  3  1  0
  3  4  2  0
  4  5  1  0
  5  6  1  0
  5  7  2  0
  7  8  1  0
  8  9  1  0
  9 10  1  0
 10 11  2  0
 10 12  1  0
 12 13  1  0
 13 14  2  0
 14 15  1  0
 15 16  2  0
 16 17  1  0
 13 18  1  0
 17 18  2  0
  3 19  1  0
  8 19  2  0
M  END
