pyridine_urea_14168
     RDKit          3D

 22 23  0  0  0  0  0  0  0  0999 V2000
   10.6210   -4.7190   25.9580 C   0  0  0  0  0  0  0  0  0  0  0  0
    9.7880   -3.6690   25.2890 C   0  0  0  0  0  0  0  0  0  0  0  0
    9.3890   -3.8450   23.9670 C   0  0  0  0  0  0  0  0  0  0  0  0
    8.4900   -3.6110   26.1130 C   0  0  0  0  0  0  0  0  0  0  0  0
   10.3220   -2.5680   25.4560 O   0  0  0  0  0  0  0  0  0  0  0  0
   11.3910   -2.2330   24.6620 C   0  0  0  0  0  0  0  0  0  0  0  0
   12.4990   -2.7490   24.6560 O   0  0  0  0  0  0  0  0  0  0  0  0
   11.3080   -1.1180   23.6450 C   0  0  0  0  0  0  0  0  0  0  0  0
    9.8560   -0.7450   23.3830 C   0  0  0  0  0  0  0  0  0  0  0  0
    9.3080   -0.8920   22.0940 N   0  0  0  0  0  0  0  0  0  0  0  0
    8.5500    0.0470   21.4230 C   0  0  0  0  0  0  0  0  0  0  0  0
    8.8560    1.2120   21.1420 O   0  0  0  0  0  0  0  0  0  0  0  0
    7.2500   -0.4620   21.0210 N   0  0  0  0  0  0  0  0  0  0  0  0
    6.5110    0.1270   20.0500 C   0  0  0  0  0  0  0  0  0  0  0  0
    5.3500    0.8560   20.2970 C   0  0  0  0  0  0  0  0  0  0  0  0
    4.6400    1.4600   19.2600 C   0  0  0  0  0  0  0  0  0  0  0  0
    5.1320    1.3080   17.9790 C   0  0  0  0  0  0  0  0  0  0  0  0
    6.2390    0.6100   17.6750 N   0  0  0  0  0  0  0  0  0  0  0  0
    6.9170    0.0200   18.7440 C   0  0  0  0  0  0  0  0  0  0  0  0
   12.3140   -1.0010   22.6510 C   0  0  0  0  0  0  0  0  0  0  0  0
   12.8310    0.1730   23.0480 C   0  0  0  0  0  0  0  0  0  0  0  0
   12.0670    0.1690   24.1690 C   0  0  0  0  0  0  0  0  0  0  0  0
  1  2  1  0
  2  3  1  0
  2  4  1  0
  2  5  1  0
  5  6  1  0
  6  7  2  0
  8  6  1  0
  8  9  1  0
  9 10  1  0
 10 11  1  0
 11 12  2  0
 11 13  1  0
 13 14  1  0
 14 15  2  0
 15 16  1  0
 16 17  2  0
 17 18  1  0
 14 19  1  0
 18 19  2  0
  8 20  1  0
 20 21  1  0
  8 22  1  0
 21 22  1  0
M  END
