pyridine_urea_412
     RDKit          3D

 26 28  0  0  0  0  0  0  0  0999 V2000
   11.6070   -3.0020   20.8180 C   0  0  0  0  0  0  0  0  0  0  0  0
   10.6220   -2.4400   21.6330 N   0  0  0  0  0  0  0  0  0  0  0  0
    9.2460   -2.0920   21.4470 C   0  0  0  0  0  0  0  0  0  0  0  0
    8.1620   -2.3620   22.3180 C   0  0  0  0  0  0  0  0  0  0  0  0
    8.3320   -2.5710   23.7200 C   0  0  0  0  0  0  0  0  0  0  0  0
    7.2270   -2.8320   24.5430 C   0  0  0  0  0  0  0  0  0  0  0  0
    5.9550   -2.8940   24.0100 C   0  0  0  0  0  0  0  0  0  0  0  0
    5.7670   -2.6750   22.5280 C   0  0  0  0  0  0  0  0  0  0  0  0
    6.8610   -2.4160   21.7270 C   0  0  0  0  0  0  0  0  0  0  0  0
   11.3310   -1.5330   22.4560 C   0  0  0  0  0  0  0  0  0  0  0  0
   10.6730   -0.2990   22.6100 C   0  0  0  0  0  0  0  0  0  0  0  0
    9.2830   -0.2950   22.5160 N   0  0  0  0  0  0  0  0  0  0  0  0
    8.5030    0.4290   21.5760 C   0  0  0  0  0  0  0  0  0  0  0  0
    8.8490    1.5200   21.1190 O   0  0  0  0  0  0  0  0  0  0  0  0
    7.3520   -0.2220   21.2680 N   0  0  0  0  0  0  0  0  0  0  0  0
    6.6490    0.2490   20.0760 C   0  0  0  0  0  0  0  0  0  0  0  0
    5.5600    1.1000   20.3280 C   0  0  0  0  0  0  0  0  0  0  0  0
    4.8220    1.6260   19.2730 C   0  0  0  0  0  0  0  0  0  0  0  0
    5.1310    1.3370   17.9610 C   0  0  0  0  0  0  0  0  0  0  0  0
    6.1860    0.5010   17.7120 N   0  0  0  0  0  0  0  0  0  0  0  0
    6.9410   -0.0460   18.7540 C   0  0  0  0  0  0  0  0  0  0  0  0
   11.4210   -2.1650   23.7970 C   0  0  0  0  0  0  0  0  0  0  0  0
   11.6600   -1.1110   24.5300 C   0  0  0  0  0  0  0  0  0  0  0  0
   12.2230   -0.0500   23.7590 C   0  0  0  0  0  0  0  0  0  0  0  0
   13.2720   -0.5070   23.0780 C   0  0  0  0  0  0  0  0  0  0  0  0
   12.8330   -1.3030   22.0940 C   0  0  0  0  0  0  0  0  0  0  0  0
  1  2  1  0
  2  3  1  0
  3  4  1  0
  4  5  2  0
  5  6  1  0
  6  7  2  0
  7  8  1  0
  4  9  1  0
  8  9  2  0
 10  2  1  0
 10 11  1  0
 11 12  1  0
 12 13  1  0
 13 14  2  0
 13 15  1  0
 15 16  1  0
 16 17  2  0
 17 18  1  0
 18 19  2  0
 19 20  1  0
 16 21  1  0
 20 21  2  0
 10 22  1  0
 22 23  1  0
 23 24  1  0
 24 25  1  0
 10 26  1  0
 25 26  1  0
M  END
