pyridine_urea_1784
     RDKit          3D

 17 19  0  0  0  0  0  0  0  0999 V2000
    9.0360    1.1770   21.2880 O   0  0  0  0  0  0  0  0  0  0  0  0
    8.6130    0.0510   21.6000 C   0  0  0  0  0  0  0  0  0  0  0  0
    7.4380   -0.5040   21.1240 N   0  0  0  0  0  0  0  0  0  0  0  0
    6.6610    0.0590   20.0870 C   0  0  0  0  0  0  0  0  0  0  0  0
    5.5030    0.7800   20.4090 C   0  0  0  0  0  0  0  0  0  0  0  0
    4.7340    1.3580   19.3960 C   0  0  0  0  0  0  0  0  0  0  0  0
    5.1490    1.1980   18.0950 C   0  0  0  0  0  0  0  0  0  0  0  0
    6.2450    0.5090   17.7550 N   0  0  0  0  0  0  0  0  0  0  0  0
    6.9720   -0.0450   18.7500 C   0  0  0  0  0  0  0  0  0  0  0  0
    9.3320   -0.7710   22.4660 N   0  0  0  0  0  0  0  0  0  0  0  0
   10.7990   -0.6280   22.4350 C   0  0  2  0  0  0  0  0  0  0  0  0
   11.5510   -1.8410   21.8940 C   0  0  0  0  0  0  0  0  0  0  0  0
   12.7730   -1.8500   22.5440 C   0  0  0  0  0  0  0  0  0  0  0  0
   12.5880   -1.1860   23.7520 C   0  0  0  0  0  0  0  0  0  0  0  0
   11.5370   -0.3030   23.5410 C   0  0  0  0  0  0  0  0  0  0  0  0
   11.7470    0.8350   23.8620 C   0  0  0  0  0  0  0  0  0  0  0  0
   10.8790    0.0360   24.8000 C   0  0  0  0  0  0  0  0  0  0  0  0
  1  2  2  0
  2  3  1  0
  3  4  1  0
  4  5  2  0
  5  6  1  0
  6  7  2  0
  7  8  1  0
  4  9  1  0
  8  9  2  0
  2 10  1  0
 11 10  1  1
 11 12  1  0
 12 13  1  0
 13 14  1  0
 11 15  1  0
 15 14  1  0
 15 16  1  0
 15 17  1  0
 16 17  1  0
M  END
