pyridine_urea_14831
     RDKit          3D

 20 21  0  0  0  0  0  0  0  0999 V2000
    5.2930   -2.5970   26.1420 C   0  0  0  0  0  0  0  0  0  0  0  0
    5.4390   -1.4400   26.5140 O   0  0  0  0  0  0  0  0  0  0  0  0
    6.6780   -1.1040   26.9870 C   0  0  2  0  0  0  0  0  0  0  0  0
    6.7510    0.0810   27.7010 C   0  0  0  0  0  0  0  0  0  0  0  0
    7.7020   -1.0470   25.8310 C   0  0  0  0  0  0  0  0  0  0  0  0
    7.6130   -1.8650   24.6430 N   0  0  0  0  0  0  0  0  0  0  0  0
    8.7030   -1.5590   23.8360 C   0  0  0  0  0  0  0  0  0  0  0  0
    9.0060   -2.1180   22.5940 C   0  0  0  0  0  0  0  0  0  0  0  0
    9.2820   -1.1690   21.6480 N   0  0  0  0  0  0  0  0  0  0  0  0
    8.5210   -0.0610   21.3460 C   0  0  0  0  0  0  0  0  0  0  0  0
    8.9980    1.2410   21.2820 O   0  0  0  0  0  0  0  0  0  0  0  0
    7.2220   -0.4420   21.0760 N   0  0  0  0  0  0  0  0  0  0  0  0
    6.5030    0.1390   20.0310 C   0  0  0  0  0  0  0  0  0  0  0  0
    5.3290    0.8430   20.3140 C   0  0  0  0  0  0  0  0  0  0  0  0
    4.6350    1.4330   19.2660 C   0  0  0  0  0  0  0  0  0  0  0  0
    5.1370    1.3010   17.9780 C   0  0  0  0  0  0  0  0  0  0  0  0
    6.2490    0.6240   17.6860 N   0  0  0  0  0  0  0  0  0  0  0  0
    6.9030    0.0620   18.7150 C   0  0  0  0  0  0  0  0  0  0  0  0
    9.5950   -0.5900   24.3150 C   0  0  0  0  0  0  0  0  0  0  0  0
    9.1580    0.0570   25.8470 S   0  0  0  0  0  0  0  0  0  0  0  0
  1  2  1  0
  2  3  1  0
  3  4  1  6
  3  5  1  0
  5  6  2  0
  6  7  1  0
  7  8  1  0
  8  9  1  0
  9 10  1  0
 10 11  2  0
 10 12  1  0
 12 13  1  0
 13 14  2  0
 14 15  1  0
 15 16  2  0
 16 17  1  0
 13 18  1  0
 17 18  2  0
  7 19  2  0
  5 20  1  0
 19 20  1  0
M  END
