pyridine_urea_3190
     RDKit          3D

 20 22  0  0  0  0  0  0  0  0999 V2000
    8.9670    0.6800   21.5270 O   0  0  0  0  0  0  0  0  0  0  0  0
    8.4900   -0.4410   21.3970 C   0  0  0  0  0  0  0  0  0  0  0  0
    9.1860   -1.6330   21.3970 N   0  0  0  0  0  0  0  0  0  0  0  0
   10.1520   -2.1070   22.3210 C   0  0  0  0  0  0  0  0  0  0  0  0
   11.3990   -1.5530   22.1530 C   0  0  0  0  0  0  0  0  0  0  0  0
   12.5950   -0.7510   22.2450 C   0  0  0  0  0  0  0  0  0  0  0  0
   12.9140    0.3150   23.0590 C   0  0  0  0  0  0  0  0  0  0  0  0
   11.9520    0.7910   24.0590 C   0  0  0  0  0  0  0  0  0  0  0  0
   10.8380    0.0760   24.0710 C   0  0  0  0  0  0  0  0  0  0  0  0
    9.7440    0.2610   24.9390 N   0  0  0  0  0  0  0  0  0  0  0  0
    8.8880   -0.6190   24.6170 O   0  0  0  0  0  0  0  0  0  0  0  0
    9.3300   -1.4450   23.5320 N   0  0  0  0  0  0  0  0  0  0  0  0
   10.5880   -1.0080   23.1780 C   0  0  0  0  0  0  0  0  0  0  0  0
    7.1400   -0.6420   21.1790 N   0  0  0  0  0  0  0  0  0  0  0  0
    6.5070    0.0060   20.0580 C   0  0  0  0  0  0  0  0  0  0  0  0
    5.3610    0.7260   20.3650 C   0  0  0  0  0  0  0  0  0  0  0  0
    4.6930    1.3940   19.3320 C   0  0  0  0  0  0  0  0  0  0  0  0
    5.2070    1.3070   18.0360 C   0  0  0  0  0  0  0  0  0  0  0  0
    6.3090    0.6080   17.7350 N   0  0  0  0  0  0  0  0  0  0  0  0
    6.9360   -0.0280   18.7460 C   0  0  0  0  0  0  0  0  0  0  0  0
  1  2  2  0
  2  3  1  0
  3  4  1  0
  4  5  1  0
  5  6  2  0
  6  7  1  0
  7  8  2  0
  8  9  1  0
  9 10  2  0
 10 11  1  0
 11 12  1  0
  5 13  1  0
  9 13  1  0
 12 13  2  0
  2 14  1  0
 14 15  1  0
 15 16  2  0
 16 17  1  0
 17 18  2  0
 18 19  1  0
 15 20  1  0
 19 20  2  0
M  END
