pyridine_urea_9892
     RDKit          3D

 25 26  0  0  0  0  0  0  0  0999 V2000
   13.3770   -2.5900   24.1490 C   0  0  0  0  0  0  0  0  0  0  0  0
   13.1420   -1.5580   23.2060 O   0  0  0  0  0  0  0  0  0  0  0  0
   13.1060   -0.2820   23.8350 C   0  0  0  0  0  0  0  0  0  0  0  0
   12.9780   -0.1340   25.0420 O   0  0  0  0  0  0  0  0  0  0  0  0
   13.2650    0.8340   22.7920 C   0  0  0  0  0  0  0  0  0  0  0  0
   13.1510    2.1910   23.0420 N   0  0  0  0  0  0  0  0  0  0  0  0
   11.7850    2.8460   22.8880 S   0  0  0  0  0  0  0  0  0  0  0  0
   11.6610    3.4350   21.5910 O   0  0  0  0  0  0  0  0  0  0  0  0
   11.4040    3.6330   24.0310 O   0  0  0  0  0  0  0  0  0  0  0  0
   11.2010    1.2620   23.1020 C   0  0  0  0  0  0  0  0  0  0  0  0
   11.8050    0.4770   24.2130 C   0  0  0  0  0  0  0  0  0  0  0  0
   11.3840   -0.9300   24.5550 C   0  0  0  0  0  0  0  0  0  0  0  0
   10.2940   -1.5490   23.6950 C   0  0  0  0  0  0  0  0  0  0  0  0
    9.7760   -0.7820   22.6700 C   0  0  0  0  0  0  0  0  0  0  0  0
    8.8050   -1.2750   21.8820 N   0  0  0  0  0  0  0  0  0  0  0  0
    7.9850   -0.3840   21.1970 C   0  0  0  0  0  0  0  0  0  0  0  0
    8.2910    0.7740   20.9420 O   0  0  0  0  0  0  0  0  0  0  0  0
    6.8150   -0.9180   20.8570 N   0  0  0  0  0  0  0  0  0  0  0  0
    6.1930   -0.1400   19.9600 C   0  0  0  0  0  0  0  0  0  0  0  0
    5.0080    0.5600   20.1840 C   0  0  0  0  0  0  0  0  0  0  0  0
    4.4680    1.3410   19.1710 C   0  0  0  0  0  0  0  0  0  0  0  0
    5.2070    1.3830   17.8850 C   0  0  0  0  0  0  0  0  0  0  0  0
    6.3420    0.7010   17.6890 N   0  0  0  0  0  0  0  0  0  0  0  0
    6.8020   -0.0350   18.7180 C   0  0  0  0  0  0  0  0  0  0  0  0
   10.1330    0.5100   22.3260 C   0  0  0  0  0  0  0  0  0  0  0  0
  1  2  1  0
  2  3  1  0
  3  4  2  0
  3  5  1  0
  5  6  1  0
  7  6  1  0
  7  8  2  0
  7  9  2  0
  7 10  1  0
 10 11  2  0
 11 12  1  0
 12 13  2  0
 13 14  1  0
 14 15  1  0
 15 16  1  0
 16 17  2  0
 16 18  1  0
 18 19  1  0
 19 20  2  0
 20 21  1  0
 21 22  2  0
 22 23  1  0
 19 24  1  0
 23 24  2  0
 10 25  1  0
 14 25  2  0
M  END
