pyridine_urea_560
     RDKit          3D

 24 26  0  0  0  0  0  0  0  0999 V2000
    8.6490    1.3220   21.1510 O   0  0  0  0  0  0  0  0  0  0  0  0
    8.2550    0.1500   21.1340 C   0  0  0  0  0  0  0  0  0  0  0  0
    6.9520   -0.2400   21.0310 N   0  0  0  0  0  0  0  0  0  0  0  0
    6.2260    0.3270   20.0150 C   0  0  0  0  0  0  0  0  0  0  0  0
    5.0240    0.9900   20.1400 C   0  0  0  0  0  0  0  0  0  0  0  0
    4.4440    1.5380   19.0050 C   0  0  0  0  0  0  0  0  0  0  0  0
    5.1040    1.3890   17.8010 C   0  0  0  0  0  0  0  0  0  0  0  0
    6.2610    0.7380   17.6570 N   0  0  0  0  0  0  0  0  0  0  0  0
    6.7900    0.2240   18.7620 C   0  0  0  0  0  0  0  0  0  0  0  0
    9.0690   -0.9260   21.1680 N   0  0  0  0  0  0  0  0  0  0  0  0
   10.0590   -0.9820   22.0820 C   0  0  2  0  0  0  0  0  0  0  0  0
   11.0070   -1.9220   21.6850 C   0  0  0  0  0  0  0  0  0  0  0  0
   12.1430   -2.0450   22.3590 C   0  0  0  0  0  0  0  0  0  0  0  0
   11.8670   -1.7470   23.6050 C   0  0  2  0  0  0  0  0  0  0  0  0
   12.6070   -0.8180   23.7680 O   0  0  0  0  0  0  0  0  0  0  0  0
   12.2740   -2.4800   24.5260 C   0  0  0  0  0  0  0  0  0  0  0  0
   11.3850   -3.4890   25.0840 C   0  0  0  0  0  0  0  0  0  0  0  0
   11.8980   -4.1980   26.0970 C   0  0  0  0  0  0  0  0  0  0  0  0
   13.2020   -3.8940   26.4900 C   0  0  0  0  0  0  0  0  0  0  0  0
   13.9700   -2.9100   25.9020 C   0  0  0  0  0  0  0  0  0  0  0  0
   15.1710   -2.5910   26.2860 F   0  0  0  0  0  0  0  0  0  0  0  0
   13.4950   -2.2170   24.9160 C   0  0  0  0  0  0  0  0  0  0  0  0
   10.5510   -1.6530   24.0760 C   0  0  0  0  0  0  0  0  0  0  0  0
    9.5570   -1.1180   23.3470 C   0  0  0  0  0  0  0  0  0  0  0  0
  1  2  2  0
  2  3  1  0
  3  4  1  0
  4  5  2  0
  5  6  1  0
  6  7  2  0
  7  8  1  0
  4  9  1  0
  8  9  2  0
  2 10  1  0
 11 10  1  6
 11 12  1  0
 12 13  1  0
 13 14  1  0
 14 15  1  1
 14 16  1  0
 16 17  2  0
 17 18  1  0
 18 19  2  0
 19 20  1  0
 20 21  1  0
 16 22  1  0
 20 22  2  0
 14 23  1  0
 11 24  1  0
 23 24  1  0
M  END
