pyridine_urea_10384
     RDKit          3D

 22 24  0  0  0  0  0  0  0  0999 V2000
   10.3140    2.2280   23.7110 C   0  0  0  0  0  0  0  0  0  0  0  0
   11.3460    1.4680   23.0140 O   0  0  0  0  0  0  0  0  0  0  0  0
   12.5820    1.9170   23.3400 C   0  0  0  0  0  0  0  0  0  0  0  0
   11.4380    2.7780   23.3060 C   0  0  0  0  0  0  0  0  0  0  0  0
   10.4610    1.6870   22.8520 C   0  0  0  0  0  0  0  0  0  0  0  0
   10.9480    0.1760   22.6030 C   0  0  0  0  0  0  0  0  0  0  0  0
   12.2330   -0.5640   22.6970 C   0  0  0  0  0  0  0  0  0  0  0  0
   12.7860    0.6040   23.0790 C   0  0  0  0  0  0  0  0  0  0  0  0
   11.5770    0.6870   22.8900 O   0  0  0  0  0  0  0  0  0  0  0  0
   10.7510   -0.0770   23.7510 C   0  0  0  0  0  0  0  0  0  0  0  0
   10.0870   -1.1880   23.2090 C   0  0  1  0  0  0  0  0  0  0  0  0
    8.7300   -0.9770   22.6650 N   0  0  0  0  0  0  0  0  0  0  0  0
    8.3750   -0.1530   21.5870 C   0  0  0  0  0  0  0  0  0  0  0  0
    9.0340    1.0850   21.2150 O   0  0  0  0  0  0  0  0  0  0  0  0
    7.2740   -0.6790   20.9500 N   0  0  0  0  0  0  0  0  0  0  0  0
    6.4690    0.0220   20.0400 C   0  0  0  0  0  0  0  0  0  0  0  0
    5.2580    0.6950   20.4020 C   0  0  0  0  0  0  0  0  0  0  0  0
    4.6170    1.3840   19.1840 C   0  0  0  0  0  0  0  0  0  0  0  0
    5.2020    1.3110   17.9450 C   0  0  0  0  0  0  0  0  0  0  0  0
    6.3340    0.6500   17.7050 N   0  0  0  0  0  0  0  0  0  0  0  0
    6.9170    0.0380   18.7380 C   0  0  0  0  0  0  0  0  0  0  0  0
   11.3010   -1.5180   22.2920 C   0  0  0  0  0  0  0  0  0  0  0  0
  1  2  1  0
  2  3  1  0
  3  4  2  0
  4  5  1  0
  5  6  2  0
  6  7  1  0
  3  8  1  0
  7  8  2  0
  8  9  1  0
  9 10  1  0
 10 11  1  0
 11 12  1  6
 12 13  1  0
 13 14  2  0
 13 15  1  0
 15 16  1  0
 16 17  2  0
 17 18  1  0
 18 19  2  0
 19 20  1  0
 16 21  1  0
 20 21  2  0
  7 22  1  0
 11 22  1  0
M  END
