pyridine_urea_7781
     RDKit          3D

 26 27  0  0  0  0  0  0  0  0999 V2000
    7.0420    1.6560   24.4030 C   0  0  0  0  0  0  0  0  0  0  0  0
    6.8010    0.3000   25.0570 C   0  0  0  0  0  0  0  0  0  0  0  0
    7.9640   -0.5260   24.8690 O   0  0  0  0  0  0  0  0  0  0  0  0
    8.8460   -0.0550   23.9360 C   0  0  0  0  0  0  0  0  0  0  0  0
    9.2100    1.2870   23.6230 O   0  0  0  0  0  0  0  0  0  0  0  0
    9.4720   -1.0280   23.1770 C   0  0  1  0  0  0  0  0  0  0  0  0
    8.4650   -1.4890   22.2540 N   0  0  0  0  0  0  0  0  0  0  0  0
    7.9130   -0.6100   21.3860 C   0  0  0  0  0  0  0  0  0  0  0  0
    8.4090    0.4640   21.0490 O   0  0  0  0  0  0  0  0  0  0  0  0
    6.7300   -0.9730   20.8870 N   0  0  0  0  0  0  0  0  0  0  0  0
    6.1650   -0.1530   19.9800 C   0  0  0  0  0  0  0  0  0  0  0  0
    5.0220    0.6070   20.2010 C   0  0  0  0  0  0  0  0  0  0  0  0
    4.5250    1.4750   19.0600 C   0  0  0  0  0  0  0  0  0  0  0  0
    5.2410    1.4610   17.8640 C   0  0  0  0  0  0  0  0  0  0  0  0
    6.3430    0.7050   17.7010 N   0  0  0  0  0  0  0  0  0  0  0  0
    6.7700   -0.0630   18.7310 C   0  0  0  0  0  0  0  0  0  0  0  0
   10.5620   -0.6050   22.2960 C   0  0  1  0  0  0  0  0  0  0  0  0
   10.5260    0.6040   22.3630 O   0  0  0  0  0  0  0  0  0  0  0  0
   11.8850   -0.8920   22.4450 C   0  0  0  0  0  0  0  0  0  0  0  0
   13.1760   -0.4020   22.6540 C   0  0  0  0  0  0  0  0  0  0  0  0
   13.4290    1.0480   22.8400 C   0  0  0  0  0  0  0  0  0  0  0  0
   12.4740    2.1650   22.9040 C   0  0  0  0  0  0  0  0  0  0  0  0
   12.7780    3.4930   23.0710 O   0  0  0  0  0  0  0  0  0  0  0  0
   12.6390    4.3580   21.9430 C   0  0  0  0  0  0  0  0  0  0  0  0
   11.2530    1.4150   22.7390 C   0  0  0  0  0  0  0  0  0  0  0  0
   12.0610    0.3740   22.6560 C   0  0  0  0  0  0  0  0  0  0  0  0
  1  2  1  0
  2  3  1  0
  3  4  1  0
  4  5  2  0
  4  6  1  0
  6  7  1  6
  7  8  1  0
  8  9  2  0
  8 10  1  0
 10 11  1  0
 11 12  2  0
 12 13  1  0
 13 14  2  0
 14 15  1  0
 11 16  1  0
 15 16  2  0
  6 17  1  0
 17 18  1  1
 17 19  1  0
 19 20  2  0
 20 21  1  0
 21 22  2  0
 22 23  1  0
 23 24  1  0
 22 25  1  0
 19 26  1  0
 25 26  2  0
M  END
