pyridine_urea_5323
     RDKit          3D

 19 20  0  0  0  0  0  0  0  0999 V2000
   12.8960   -2.2530   21.3330 C   0  0  0  0  0  0  0  0  0  0  0  0
   12.2160   -2.1290   22.5770 O   0  0  0  0  0  0  0  0  0  0  0  0
   10.8780   -1.8510   22.5200 C   0  0  0  0  0  0  0  0  0  0  0  0
   10.0860   -2.7580   22.2970 O   0  0  0  0  0  0  0  0  0  0  0  0
   10.3820   -0.5650   22.7200 C   0  0  2  0  0  0  0  0  0  0  0  0
   10.6750   -0.0420   23.9750 C   0  0  0  0  0  0  0  0  0  0  0  0
   12.0040    0.3240   23.9700 C   0  0  0  0  0  0  0  0  0  0  0  0
   12.7900    0.0500   22.9020 C   0  0  0  0  0  0  0  0  0  0  0  0
   12.4170    1.4590   23.1250 C   0  0  0  0  0  0  0  0  0  0  0  0
    8.9320   -0.6570   22.6020 N   0  0  0  0  0  0  0  0  0  0  0  0
    8.4090    0.0990   21.5760 C   0  0  0  0  0  0  0  0  0  0  0  0
    8.9680    1.3640   21.1870 O   0  0  0  0  0  0  0  0  0  0  0  0
    7.3050   -0.4960   21.0100 N   0  0  0  0  0  0  0  0  0  0  0  0
    6.4990    0.1300   20.0540 C   0  0  0  0  0  0  0  0  0  0  0  0
    5.3260    0.8200   20.3150 C   0  0  0  0  0  0  0  0  0  0  0  0
    4.6370    1.4130   19.2560 C   0  0  0  0  0  0  0  0  0  0  0  0
    5.1580    1.2880   17.9700 C   0  0  0  0  0  0  0  0  0  0  0  0
    6.2810    0.6190   17.7000 N   0  0  0  0  0  0  0  0  0  0  0  0
    6.9180    0.0590   18.7400 C   0  0  0  0  0  0  0  0  0  0  0  0
  1  2  1  0
  2  3  1  0
  3  4  2  0
  3  5  1  0
  5  6  1  1
  6  7  1  0
  7  8  1  0
  7  9  1  0
  8  9  1  0
  5 10  1  0
 10 11  1  0
 11 12  2  0
 11 13  1  0
 13 14  1  0
 14 15  2  0
 15 16  1  0
 16 17  2  0
 17 18  1  0
 14 19  1  0
 18 19  2  0
M  END
