pyridine_urea_11891
     RDKit          3D

 24 25  0  0  0  0  0  0  0  0999 V2000
   12.6160    2.3120   22.9390 C   0  0  0  0  0  0  0  0  0  0  0  0
   12.9400    1.4690   23.7740 O   0  0  0  0  0  0  0  0  0  0  0  0
   12.4880    0.2360   23.5590 C   0  0  0  0  0  0  0  0  0  0  0  0
   11.3790    0.7960   23.6460 C   0  0  0  0  0  0  0  0  0  0  0  0
   10.2230    0.0160   23.4620 C   0  0  0  0  0  0  0  0  0  0  0  0
    9.9550   -1.3180   23.1690 C   0  0  2  0  0  0  0  0  0  0  0  0
   10.5740   -1.8240   22.0300 C   0  0  0  0  0  0  0  0  0  0  0  0
    8.5420   -1.3120   22.7600 N   0  0  0  0  0  0  0  0  0  0  0  0
    8.4520   -0.4050   21.7480 C   0  0  0  0  0  0  0  0  0  0  0  0
    9.4710    0.5370   21.4510 O   0  0  0  0  0  0  0  0  0  0  0  0
    7.3550   -0.4030   21.0330 N   0  0  0  0  0  0  0  0  0  0  0  0
    6.5720    0.1220   20.0480 C   0  0  0  0  0  0  0  0  0  0  0  0
    5.3820    0.8020   20.3710 C   0  0  0  0  0  0  0  0  0  0  0  0
    4.6400    1.3500   19.3300 C   0  0  0  0  0  0  0  0  0  0  0  0
    5.1040    1.2000   18.0430 C   0  0  0  0  0  0  0  0  0  0  0  0
    6.2160    0.5520   17.6930 N   0  0  0  0  0  0  0  0  0  0  0  0
    6.9190    0.0280   18.7130 C   0  0  0  0  0  0  0  0  0  0  0  0
    9.4040    0.8990   23.6250 C   0  0  0  0  0  0  0  0  0  0  0  0
   10.8530    1.1340   23.6910 C   0  0  0  0  0  0  0  0  0  0  0  0
   11.2530   -0.3710   23.4390 C   0  0  0  0  0  0  0  0  0  0  0  0
   12.5300   -1.6420   23.2700 S   0  0  0  0  0  0  0  0  0  0  0  0
   12.9870   -1.8190   21.5600 C   0  0  0  0  0  0  0  0  0  0  0  0
   12.0210   -2.8980   23.7660 O   0  0  0  0  0  0  0  0  0  0  0  0
   13.6730   -1.0720   23.9160 O   0  0  0  0  0  0  0  0  0  0  0  0
  1  2  1  0
  2  3  1  0
  3  4  2  0
  4  5  1  0
  5  6  1  0
  6  7  1  6
  6  8  1  0
  8  9  1  0
  9 10  2  0
  9 11  1  0
 11 12  1  0
 12 13  2  0
 13 14  1  0
 14 15  2  0
 15 16  1  0
 12 17  1  0
 16 17  2  0
  5 18  2  0
 18 19  1  0
  3 20  1  0
 19 20  2  0
 20 21  1  0
 21 22  1  0
 21 23  2  0
 21 24  2  0
M  END
