pyridine_urea_10381
     RDKit          3D

 22 24  0  0  0  0  0  0  0  0999 V2000
    8.9770    1.2120   21.3220 O   0  0  0  0  0  0  0  0  0  0  0  0
    8.3010    0.2750   21.7840 C   0  0  0  0  0  0  0  0  0  0  0  0
    8.3970   -0.3000   23.0500 N   0  0  0  0  0  0  0  0  0  0  0  0
    9.5320   -0.4670   23.9020 C   0  0  0  0  0  0  0  0  0  0  0  0
   10.7020    0.4920   23.7670 C   0  0  0  0  0  0  0  0  0  0  0  0
   12.0480    1.0780   23.4570 C   0  0  0  0  0  0  0  0  0  0  0  0
   13.1760    0.4390   22.8590 C   0  0  0  0  0  0  0  0  0  0  0  0
   13.1730   -0.8300   22.4890 C   0  0  0  0  0  0  0  0  0  0  0  0
   12.1610   -1.7480   22.6060 C   0  0  0  0  0  0  0  0  0  0  0  0
   11.1340   -2.3590   22.8180 O   0  0  0  0  0  0  0  0  0  0  0  0
    9.9490   -1.7960   22.4150 C   0  0  0  0  0  0  0  0  0  0  0  0
    9.1950   -2.3700   21.5500 C   0  0  0  0  0  0  0  0  0  0  0  0
    8.5220   -2.6580   22.6060 C   0  0  0  0  0  0  0  0  0  0  0  0
   11.0910   -0.9840   23.2170 C   0  0  0  0  0  0  0  0  0  0  0  0
   10.0330   -1.8060   23.3970 F   0  0  0  0  0  0  0  0  0  0  0  0
    7.2840   -0.3700   21.1100 N   0  0  0  0  0  0  0  0  0  0  0  0
    6.5780    0.1750   20.0410 C   0  0  0  0  0  0  0  0  0  0  0  0
    5.3160    0.9890   20.3310 C   0  0  0  0  0  0  0  0  0  0  0  0
    4.6680    1.5210   19.2420 C   0  0  0  0  0  0  0  0  0  0  0  0
    5.1780    1.2970   17.9780 C   0  0  0  0  0  0  0  0  0  0  0  0
    6.2700    0.5840   17.6850 N   0  0  0  0  0  0  0  0  0  0  0  0
    6.9470    0.0360   18.7170 C   0  0  0  0  0  0  0  0  0  0  0  0
  1  2  2  0
  2  3  1  0
  3  4  1  0
  4  5  1  0
  5  6  2  0
  6  7  1  0
  7  8  2  0
  8  9  1  0
  9 10  1  0
 10 11  1  0
 11 12  1  0
 11 13  1  0
 12 13  1  0
  5 14  1  0
  9 14  2  0
 14 15  1  0
  2 16  1  0
 16 17  1  0
 17 18  2  0
 18 19  1  0
 19 20  2  0
 20 21  1  0
 17 22  1  0
 21 22  2  0
M  END
