pyridine_urea_14303
     RDKit          3D

 22 23  0  0  0  0  0  0  0  0999 V2000
   11.8260    4.0790   21.4120 C   0  0  0  0  0  0  0  0  0  0  0  0
   12.5180    3.6500   22.6070 C   0  0  0  0  0  0  0  0  0  0  0  0
   13.6610    4.3150   22.7850 C   0  0  0  0  0  0  0  0  0  0  0  0
   11.5540    4.1940   23.6750 C   0  0  0  0  0  0  0  0  0  0  0  0
   12.7090    2.3680   22.6670 O   0  0  0  0  0  0  0  0  0  0  0  0
   11.6270    1.5620   22.7940 C   0  0  0  0  0  0  0  0  0  0  0  0
   10.5810    2.5070   23.2060 C   0  0  0  0  0  0  0  0  0  0  0  0
    9.2410    2.0470   23.4770 C   0  0  0  0  0  0  0  0  0  0  0  0
    9.0880    0.6220   23.2870 C   0  0  0  0  0  0  0  0  0  0  0  0
   10.1530   -0.1190   22.8860 C   0  0  0  0  0  0  0  0  0  0  0  0
   11.5140    0.1050   22.5690 C   0  0  0  0  0  0  0  0  0  0  0  0
   11.0290   -1.2050   22.4570 C   0  0  0  0  0  0  0  0  0  0  0  0
    9.6510   -1.3140   21.9670 N   0  0  0  0  0  0  0  0  0  0  0  0
    8.7890   -0.3200   21.4410 C   0  0  0  0  0  0  0  0  0  0  0  0
    9.1270    0.8470   21.2970 O   0  0  0  0  0  0  0  0  0  0  0  0
    7.5260   -0.7680   21.0840 N   0  0  0  0  0  0  0  0  0  0  0  0
    6.7320   -0.1220   20.1030 C   0  0  0  0  0  0  0  0  0  0  0  0
    5.5850    0.5900   20.4510 C   0  0  0  0  0  0  0  0  0  0  0  0
    4.7850    1.2480   19.5230 C   0  0  0  0  0  0  0  0  0  0  0  0
    5.1700    1.1760   18.1880 C   0  0  0  0  0  0  0  0  0  0  0  0
    6.2620    0.4970   17.7940 N   0  0  0  0  0  0  0  0  0  0  0  0
    7.0090   -0.1310   18.7460 C   0  0  0  0  0  0  0  0  0  0  0  0
  1  2  1  0
  2  3  1  0
  2  4  1  0
  2  5  1  0
  5  6  1  0
  6  7  2  0
  7  8  1  0
  8  9  2  0
  9 10  1  0
  6 11  1  0
 10 11  2  0
 11 12  1  0
 12 13  1  0
 13 14  1  0
 14 15  2  0
 14 16  1  0
 16 17  1  0
 17 18  2  0
 18 19  1  0
 19 20  2  0
 20 21  1  0
 17 22  1  0
 21 22  2  0
M  END
