pyridine_urea_598
     RDKit          3D

 24 25  0  0  0  0  0  0  0  0999 V2000
    8.7760    1.3640   21.0560 O   0  0  0  0  0  0  0  0  0  0  0  0
    8.4240    0.2030   21.2680 C   0  0  0  0  0  0  0  0  0  0  0  0
    9.2100   -0.7530   21.8120 N   0  0  0  0  0  0  0  0  0  0  0  0
    9.2470   -0.9880   23.1610 C   0  0  0  0  0  0  0  0  0  0  0  0
    9.9770   -0.2110   24.0270 C   0  0  2  0  0  0  0  0  0  0  0  0
   11.1750   -0.8870   24.1790 C   0  0  0  0  0  0  0  0  0  0  0  0
   11.3410   -1.9460   24.8330 C   0  0  0  0  0  0  0  0  0  0  0  0
   12.3000   -1.2060   24.0910 C   0  0  0  0  0  0  0  0  0  0  0  0
   11.7150    0.1540   23.3400 C   0  0  0  0  0  0  0  0  0  0  0  0
   11.8160    1.2700   22.5760 F   0  0  0  0  0  0  0  0  0  0  0  0
   12.9870    0.1790   22.9740 C   0  0  0  0  0  0  0  0  0  0  0  0
   12.5430   -0.8080   23.7570 C   0  0  0  0  0  0  0  0  0  0  0  0
   13.5510   -2.0850   24.3180 Cl  0  0  0  0  0  0  0  0  0  0  0  0
    9.0720   -0.2190   25.2270 C   0  0  0  0  0  0  0  0  0  0  0  0
    9.7110   -0.1120   26.4240 F   0  0  0  0  0  0  0  0  0  0  0  0
    8.3850   -1.3940   25.2760 F   0  0  0  0  0  0  0  0  0  0  0  0
    8.0980    0.7140   25.1760 F   0  0  0  0  0  0  0  0  0  0  0  0
    7.1870   -0.3040   20.9840 N   0  0  0  0  0  0  0  0  0  0  0  0
    6.4020    0.2690   20.0040 C   0  0  0  0  0  0  0  0  0  0  0  0
    5.1250    0.9900   20.2180 C   0  0  0  0  0  0  0  0  0  0  0  0
    4.5130    1.5250   19.0850 C   0  0  0  0  0  0  0  0  0  0  0  0
    5.1170    1.3570   17.8470 C   0  0  0  0  0  0  0  0  0  0  0  0
    6.2620    0.6930   17.6490 N   0  0  0  0  0  0  0  0  0  0  0  0
    6.8670    0.1720   18.7170 C   0  0  0  0  0  0  0  0  0  0  0  0
  1  2  2  0
  2  3  1  0
  3  4  1  0
  5  4  1  6
  5  6  1  0
  6  7  2  0
  7  8  1  0
  8  9  2  0
  9 10  1  0
  9 11  1  0
  6 12  1  0
 11 12  2  0
 12 13  1  0
  5 14  1  0
 14 15  1  0
 14 16  1  0
 14 17  1  0
  2 18  1  0
 18 19  1  0
 19 20  2  0
 20 21  1  0
 21 22  2  0
 22 23  1  0
 19 24  1  0
 23 24  2  0
M  END
