pyridine_urea_9934
     RDKit          3D

 25 27  0  0  0  0  0  0  0  0999 V2000
   13.0950    4.1820   22.6550 C   0  0  0  0  0  0  0  0  0  0  0  0
   11.6810    4.6400   22.2850 C   0  0  2  0  0  0  0  0  0  0  0  0
   11.4140    5.8730   23.1260 C   0  0  0  0  0  0  0  0  0  0  0  0
   10.0850    6.5110   22.8190 C   0  0  0  0  0  0  0  0  0  0  0  0
    8.9660    5.4740   22.8530 C   0  0  0  0  0  0  0  0  0  0  0  0
    9.2250    4.0120   22.4520 C   0  0  0  0  0  0  0  0  0  0  0  0
   10.6530    3.5670   22.4340 N   0  0  0  0  0  0  0  0  0  0  0  0
   10.8460    2.6310   23.3780 C   0  0  0  0  0  0  0  0  0  0  0  0
   11.3280    1.3180   23.0890 C   0  0  0  0  0  0  0  0  0  0  0  0
   12.6780    1.2580   22.8470 C   0  0  0  0  0  0  0  0  0  0  0  0
   13.2710    0.1040   22.5770 C   0  0  0  0  0  0  0  0  0  0  0  0
   12.5700   -1.0170   22.5410 C   0  0  0  0  0  0  0  0  0  0  0  0
   11.2340   -0.9540   22.7900 C   0  0  0  0  0  0  0  0  0  0  0  0
   10.3470    0.2410   23.1190 C   0  0  0  0  0  0  0  0  0  0  0  0
    9.6870   -0.9850   23.0700 C   0  0  0  0  0  0  0  0  0  0  0  0
    8.4060   -0.8630   22.6540 N   0  0  0  0  0  0  0  0  0  0  0  0
    7.9940   -0.1600   21.5250 C   0  0  0  0  0  0  0  0  0  0  0  0
    8.5150    0.8600   21.1000 O   0  0  0  0  0  0  0  0  0  0  0  0
    6.9240   -0.7600   20.9770 N   0  0  0  0  0  0  0  0  0  0  0  0
    6.2810   -0.0340   20.0430 C   0  0  0  0  0  0  0  0  0  0  0  0
    5.1100    0.6620   20.2360 C   0  0  0  0  0  0  0  0  0  0  0  0
    4.5750    1.3770   19.1550 C   0  0  0  0  0  0  0  0  0  0  0  0
    5.2310    1.3680   17.9250 C   0  0  0  0  0  0  0  0  0  0  0  0
    6.3770    0.6980   17.6860 N   0  0  0  0  0  0  0  0  0  0  0  0
    6.9080    0.0050   18.7000 C   0  0  0  0  0  0  0  0  0  0  0  0
  2  1  1  1
  2  3  1  0
  3  4  1  0
  4  5  1  0
  5  6  1  0
  2  7  1  0
  6  7  1  0
  7  8  1  0
  8  9  1  0
  9 10  2  0
 10 11  1  0
 11 12  2  0
 12 13  1  0
  9 14  1  0
 13 14  2  0
 14 15  1  0
 15 16  1  0
 16 17  1  0
 17 18  2  0
 17 19  1  0
 19 20  1  0
 20 21  2  0
 21 22  1  0
 22 23  2  0
 23 24  1  0
 20 25  1  0
 24 25  2  0
M  END
