pyridine_urea_10431
     RDKit          3D

 22 23  0  0  0  0  0  0  0  0999 V2000
   13.7300   -2.7580   25.0620 C   0  0  0  0  0  0  0  0  0  0  0  0
   12.7710   -1.6540   24.6320 C   0  0  0  0  0  0  0  0  0  0  0  0
   12.0500   -1.8010   23.4130 C   0  0  0  0  0  0  0  0  0  0  0  0
   11.4490   -0.5270   23.7060 C   0  0  0  0  0  0  0  0  0  0  0  0
   10.5420    0.3330   23.1750 C   0  0  0  0  0  0  0  0  0  0  0  0
   10.3400   -0.5240   22.1340 C   0  0  2  0  0  0  0  0  0  0  0  0
    9.1440   -1.1360   22.2790 N   0  0  0  0  0  0  0  0  0  0  0  0
    8.3340   -0.2420   21.6190 C   0  0  0  0  0  0  0  0  0  0  0  0
    8.6480    0.9330   21.4980 O   0  0  0  0  0  0  0  0  0  0  0  0
    7.1760   -0.7700   21.1010 N   0  0  0  0  0  0  0  0  0  0  0  0
    6.4940   -0.1050   20.0620 C   0  0  0  0  0  0  0  0  0  0  0  0
    5.3130    0.5930   20.3190 C   0  0  0  0  0  0  0  0  0  0  0  0
    4.6430    1.2640   19.3130 C   0  0  0  0  0  0  0  0  0  0  0  0
    5.1710    1.2310   18.0240 C   0  0  0  0  0  0  0  0  0  0  0  0
    6.3030    0.5640   17.7420 N   0  0  0  0  0  0  0  0  0  0  0  0
    6.9370   -0.0870   18.7520 C   0  0  0  0  0  0  0  0  0  0  0  0
   11.7070   -1.2200   22.4520 C   0  0  0  0  0  0  0  0  0  0  0  0
   11.7270   -2.3900   23.2180 C   0  0  0  0  0  0  0  0  0  0  0  0
   12.9720   -0.3360   22.5920 C   0  0  0  0  0  0  0  0  0  0  0  0
   12.1890   -2.2070   21.3140 C   0  0  0  0  0  0  0  0  0  0  0  0
   11.2120    0.6340   24.4060 C   0  0  0  0  0  0  0  0  0  0  0  0
   12.3390   -0.3910   25.1370 C   0  0  0  0  0  0  0  0  0  0  0  0
  1  2  1  0
  2  3  2  0
  3  4  1  0
  4  5  2  0
  5  6  1  0
  6  7  1  1
  7  8  1  0
  8  9  2  0
  8 10  1  0
 10 11  1  0
 11 12  2  0
 12 13  1  0
 13 14  2  0
 14 15  1  0
 11 16  1  0
 15 16  2  0
  6 17  1  0
 17 18  1  0
 17 19  1  0
 17 20  1  0
  5 21  1  0
  2 22  1  0
 21 22  2  0
M  END
