pyridine_urea_2825
     RDKit          3D

 22 23  0  0  0  0  0  0  0  0999 V2000
   13.0730   -3.1980   20.7670 C   0  0  0  0  0  0  0  0  0  0  0  0
   12.3240   -1.9440   21.1050 C   0  0  0  0  0  0  0  0  0  0  0  0
   13.1700   -1.2190   22.1730 C   0  0  0  0  0  0  0  0  0  0  0  0
   10.9260   -2.1790   21.7150 C   0  0  0  0  0  0  0  0  0  0  0  0
   10.6490   -1.0720   22.4920 N   0  0  0  0  0  0  0  0  0  0  0  0
    9.3740   -0.1810   22.6720 N   0  0  0  0  0  0  0  0  0  0  0  0
    9.6920    0.8920   23.6920 C   0  0  0  0  0  0  0  0  0  0  0  0
   10.3020   -0.0020   23.2170 C   0  0  0  0  0  0  0  0  0  0  0  0
    9.4620   -0.6470   22.3140 N   0  0  0  0  0  0  0  0  0  0  0  0
    8.6020    0.1280   21.4000 C   0  0  0  0  0  0  0  0  0  0  0  0
    8.8570    1.3040   21.0980 O   0  0  0  0  0  0  0  0  0  0  0  0
    7.4800   -0.5530   20.9390 N   0  0  0  0  0  0  0  0  0  0  0  0
    6.5830    0.0720   20.0600 C   0  0  0  0  0  0  0  0  0  0  0  0
    5.3250    0.8100   20.5000 C   0  0  0  0  0  0  0  0  0  0  0  0
    4.5440    1.4290   19.3540 C   0  0  0  0  0  0  0  0  0  0  0  0
    5.1130    1.2300   17.9670 C   0  0  0  0  0  0  0  0  0  0  0  0
    6.2310    0.5410   17.7200 N   0  0  0  0  0  0  0  0  0  0  0  0
    6.8960    0.0110   18.7120 C   0  0  0  0  0  0  0  0  0  0  0  0
   11.4460   -0.5010   23.3010 C   0  0  0  0  0  0  0  0  0  0  0  0
   12.6740   -0.4650   23.8760 C   0  0  0  0  0  0  0  0  0  0  0  0
   12.6130   -0.7360   25.1990 C   0  0  0  0  0  0  0  0  0  0  0  0
   13.2230   -1.7670   24.4700 C   0  0  0  0  0  0  0  0  0  0  0  0
  1  2  1  0
  2  3  1  0
  2  4  1  0
  4  5  1  0
  5  6  1  0
  6  7  2  0
  7  8  1  0
  8  9  1  0
  9 10  1  0
 10 11  2  0
 10 12  1  0
 12 13  1  0
 13 14  2  0
 14 15  1  0
 15 16  2  0
 16 17  1  0
 13 18  1  0
 17 18  2  0
  5 19  1  0
  8 19  2  0
 19 20  1  0
 20 21  1  0
 20 22  1  0
M  END
