pyridine_urea_2650
     RDKit          3D

 23 24  0  0  0  0  0  0  0  0999 V2000
   11.0400    4.1930   23.4380 C   0  0  0  0  0  0  0  0  0  0  0  0
   12.4170    3.9910   22.8080 C   0  0  0  0  0  0  0  0  0  0  0  0
   12.4470    4.4050   21.4840 C   0  0  0  0  0  0  0  0  0  0  0  0
   13.3150    5.0190   23.4660 C   0  0  0  0  0  0  0  0  0  0  0  0
   12.9530    2.6370   23.0860 O   0  0  0  0  0  0  0  0  0  0  0  0
   12.1650    1.5190   22.9520 C   0  0  0  0  0  0  0  0  0  0  0  0
   10.8890    1.9790   22.9750 C   0  0  0  0  0  0  0  0  0  0  0  0
    9.7680    1.2230   22.8540 C   0  0  0  0  0  0  0  0  0  0  0  0
    9.9160   -0.2580   22.6640 C   0  0  0  0  0  0  0  0  0  0  0  0
    8.7420   -1.0430   22.4830 N   0  0  0  0  0  0  0  0  0  0  0  0
    8.0660   -0.3680   21.5120 C   0  0  0  0  0  0  0  0  0  0  0  0
    8.5530    0.8330   21.0670 O   0  0  0  0  0  0  0  0  0  0  0  0
    6.9210   -0.9130   21.0280 N   0  0  0  0  0  0  0  0  0  0  0  0
    6.2540   -0.1670   20.0490 C   0  0  0  0  0  0  0  0  0  0  0  0
    5.0480    0.5170   20.2250 C   0  0  0  0  0  0  0  0  0  0  0  0
    4.5290    1.2340   19.1530 C   0  0  0  0  0  0  0  0  0  0  0  0
    5.2010    1.2630   17.9450 C   0  0  0  0  0  0  0  0  0  0  0  0
    6.3520    0.6240   17.7160 N   0  0  0  0  0  0  0  0  0  0  0  0
    6.8640   -0.0940   18.8040 C   0  0  0  0  0  0  0  0  0  0  0  0
   11.3080   -0.7580   22.6570 C   0  0  0  0  0  0  0  0  0  0  0  0
   12.3710    0.1270   22.8030 C   0  0  0  0  0  0  0  0  0  0  0  0
   13.5540   -0.5020   22.7770 C   0  0  0  0  0  0  0  0  0  0  0  0
   13.5790   -1.8240   23.0560 N   0  0  0  0  0  0  0  0  0  0  0  0
  1  2  1  0
  2  3  1  0
  2  4  1  0
  2  5  1  0
  5  6  1  0
  6  7  2  0
  7  8  1  0
  8  9  2  0
  9 10  1  0
 10 11  1  0
 11 12  2  0
 11 13  1  0
 13 14  1  0
 14 15  2  0
 15 16  1  0
 16 17  2  0
 17 18  1  0
 14 19  1  0
 18 19  2  0
  9 20  1  0
  6 21  1  0
 20 21  2  0
 21 22  1  0
 22 23  3  0
M  END
