pyridine_urea_298
     RDKit          3D

 31 33  0  0  0  0  0  0  0  0999 V2000
   13.4000   -2.5600   25.2980 C   0  0  0  0  0  0  0  0  0  0  0  0
   13.0560   -1.5490   24.7700 C   0  0  0  0  0  0  0  0  0  0  0  0
   13.6350   -1.5430   23.4410 N   0  0  0  0  0  0  0  0  0  0  0  0
   13.2050   -2.6900   22.7650 C   0  0  0  0  0  0  0  0  0  0  0  0
   12.8830   -2.2330   21.3810 C   0  0  0  0  0  0  0  0  0  0  0  0
   13.4300   -0.2720   22.3900 S   0  0  0  0  0  0  0  0  0  0  0  0
   13.6810   -0.8570   21.0870 O   0  0  0  0  0  0  0  0  0  0  0  0
   14.0290    0.9240   22.8550 O   0  0  0  0  0  0  0  0  0  0  0  0
   11.7490   -0.2410   22.8470 C   0  0  0  0  0  0  0  0  0  0  0  0
   11.5580    0.5790   24.0850 C   0  0  0  0  0  0  0  0  0  0  0  0
   10.2210    0.6810   24.6430 C   0  0  0  0  0  0  0  0  0  0  0  0
    9.2120    0.0520   24.0480 C   0  0  0  0  0  0  0  0  0  0  0  0
    7.9410    0.1380   24.5940 N   0  0  0  0  0  0  0  0  0  0  0  0
    7.5960    0.8700   25.7440 C   0  0  0  0  0  0  0  0  0  0  0  0
    7.5950    0.1750   26.9480 C   0  0  0  0  0  0  0  0  0  0  0  0
    7.0350   -1.0430   26.9960 N   0  0  0  0  0  0  0  0  0  0  0  0
    6.6260   -1.5280   28.1940 C   0  0  0  0  0  0  0  0  0  0  0  0
    6.4130   -1.3270   25.7990 C   0  0  0  0  0  0  0  0  0  0  0  0
    7.2860   -1.1220   24.5730 C   0  0  0  0  0  0  0  0  0  0  0  0
    9.5170   -0.7570   22.7560 C   0  0  0  0  0  0  0  0  0  0  0  0
    8.4820   -1.3310   22.1970 N   0  0  0  0  0  0  0  0  0  0  0  0
    7.8820   -0.4110   21.2960 C   0  0  0  0  0  0  0  0  0  0  0  0
    8.4280    0.8840   20.9920 O   0  0  0  0  0  0  0  0  0  0  0  0
    6.7520   -0.9100   20.7970 N   0  0  0  0  0  0  0  0  0  0  0  0
    6.1750   -0.1250   19.9110 C   0  0  0  0  0  0  0  0  0  0  0  0
    5.0020    0.6030   20.1080 C   0  0  0  0  0  0  0  0  0  0  0  0
    4.5120    1.3970   19.0800 C   0  0  0  0  0  0  0  0  0  0  0  0
    5.2100    1.4410   17.8820 C   0  0  0  0  0  0  0  0  0  0  0  0
    6.3430    0.7430   17.6750 N   0  0  0  0  0  0  0  0  0  0  0  0
    6.7900   -0.0140   18.6870 C   0  0  0  0  0  0  0  0  0  0  0  0
   10.7590   -0.8780   22.2060 C   0  0  0  0  0  0  0  0  0  0  0  0
  1  2  1  0
  2  3  1  0
  3  4  1  0
  4  5  1  0
  6  3  1  0
  6  7  2  0
  6  8  2  0
  6  9  1  0
  9 10  2  0
 10 11  1  0
 11 12  2  0
 12 13  1  0
 13 14  1  0
 14 15  1  0
 15 16  1  0
 16 17  1  0
 16 18  1  0
 13 19  1  0
 18 19  1  0
 12 20  1  0
 20 21  1  0
 21 22  1  0
 22 23  2  0
 22 24  1  0
 24 25  1  0
 25 26  2  0
 26 27  1  0
 27 28  2  0
 28 29  1  0
 25 30  1  0
 29 30  2  0
  9 31  1  0
 20 31  2  0
M  END
