pyridine_urea_6805
     RDKit          3D

 21 22  0  0  0  0  0  0  0  0999 V2000
   13.1090   -2.6030   20.8510 N   0  0  0  0  0  0  0  0  0  0  0  0
   13.2040   -2.2170   22.4810 S   0  0  0  0  0  0  0  0  0  0  0  0
   13.9480   -3.2060   23.1780 O   0  0  0  0  0  0  0  0  0  0  0  0
   13.6140   -0.8340   22.4510 O   0  0  0  0  0  0  0  0  0  0  0  0
   11.5170   -2.3100   22.9440 C   0  0  0  0  0  0  0  0  0  0  0  0
   11.2970   -0.8320   22.9720 C   0  0  0  0  0  0  0  0  0  0  0  0
   12.6230   -0.1330   23.2500 C   0  0  0  0  0  0  0  0  0  0  0  0
   12.5360    1.3490   23.2810 C   0  0  0  0  0  0  0  0  0  0  0  0
   11.2410    1.9980   23.0720 C   0  0  0  0  0  0  0  0  0  0  0  0
   10.0910    1.2660   22.8360 C   0  0  0  0  0  0  0  0  0  0  0  0
   10.1240   -0.1250   22.7770 C   0  0  0  0  0  0  0  0  0  0  0  0
    8.9170   -0.6930   22.5020 N   0  0  0  0  0  0  0  0  0  0  0  0
    8.1350   -0.1010   21.5040 C   0  0  0  0  0  0  0  0  0  0  0  0
    8.4620    0.9770   21.0260 O   0  0  0  0  0  0  0  0  0  0  0  0
    7.0420   -0.7960   21.1490 N   0  0  0  0  0  0  0  0  0  0  0  0
    6.3660   -0.1170   20.1920 C   0  0  0  0  0  0  0  0  0  0  0  0
    5.1780    0.6090   20.2670 C   0  0  0  0  0  0  0  0  0  0  0  0
    4.5650    1.2980   19.2100 C   0  0  0  0  0  0  0  0  0  0  0  0
    5.1880    1.2720   17.9510 C   0  0  0  0  0  0  0  0  0  0  0  0
    6.3300    0.6060   17.7370 N   0  0  0  0  0  0  0  0  0  0  0  0
    6.8880   -0.0500   18.7700 C   0  0  0  0  0  0  0  0  0  0  0  0
  2  1  1  0
  2  3  2  0
  2  4  2  0
  2  5  1  0
  5  6  1  0
  6  7  2  0
  7  8  1  0
  8  9  2  0
  9 10  1  0
  6 11  1  0
 10 11  2  0
 11 12  1  0
 12 13  1  0
 13 14  2  0
 13 15  1  0
 15 16  1  0
 16 17  2  0
 17 18  1  0
 18 19  2  0
 19 20  1  0
 16 21  1  0
 20 21  2  0
M  END
