pyridine_urea_11923
     RDKit          3D

 24 26  0  0  0  0  0  0  0  0999 V2000
    8.7590    0.8960   21.4490 O   0  0  0  0  0  0  0  0  0  0  0  0
    8.4760   -0.2760   21.5840 C   0  0  0  0  0  0  0  0  0  0  0  0
    9.2340   -1.1410   22.3110 N   0  0  0  0  0  0  0  0  0  0  0  0
   10.5730   -0.8010   22.4790 C   0  0  0  0  0  0  0  0  0  0  0  0
   10.8180    0.4940   22.9180 C   0  0  0  0  0  0  0  0  0  0  0  0
   12.1240    0.9280   23.0880 C   0  0  0  0  0  0  0  0  0  0  0  0
   13.1310    0.0500   22.8220 C   0  0  0  0  0  0  0  0  0  0  0  0
   12.9440   -1.2170   22.4000 N   0  0  0  0  0  0  0  0  0  0  0  0
   11.6640   -1.6170   22.2350 C   0  0  0  0  0  0  0  0  0  0  0  0
    7.3630   -0.8310   20.9980 N   0  0  0  0  0  0  0  0  0  0  0  0
    6.3050    0.1090   20.5750 C   0  0  2  0  0  0  0  0  0  0  0  0
    5.2790   -0.5900   19.6940 C   0  0  0  0  0  0  0  0  0  0  0  0
    4.8390    0.0370   18.5000 C   0  0  0  0  0  0  0  0  0  0  0  0
    5.7210    0.9780   18.0150 C   0  0  0  0  0  0  0  0  0  0  0  0
    5.8570    1.8680   19.1020 N   0  0  0  0  0  0  0  0  0  0  0  0
    4.6670    2.3570   19.5960 C   0  0  0  0  0  0  0  0  0  0  0  0
    3.6960    2.9200   18.7850 C   0  0  0  0  0  0  0  0  0  0  0  0
    2.4760    3.4120   19.2340 C   0  0  0  0  0  0  0  0  0  0  0  0
    2.2040    3.3420   20.5920 C   0  0  0  0  0  0  0  0  0  0  0  0
    1.0370    3.8000   21.1070 F   0  0  0  0  0  0  0  0  0  0  0  0
    3.1510    2.7870   21.4570 C   0  0  0  0  0  0  0  0  0  0  0  0
    4.3700    2.2990   20.9680 C   0  0  0  0  0  0  0  0  0  0  0  0
    6.7520    1.2550   19.9740 C   0  0  0  0  0  0  0  0  0  0  0  0
    7.8820    1.6740   20.2400 O   0  0  0  0  0  0  0  0  0  0  0  0
  1  2  2  0
  2  3  1  0
  3  4  1  0
  4  5  2  0
  5  6  1  0
  6  7  2  0
  7  8  1  0
  4  9  1  0
  8  9  2  0
  2 10  1  0
 11 10  1  6
 11 12  1  0
 12 13  1  0
 13 14  1  0
 14 15  1  0
 15 16  1  0
 16 17  2  0
 17 18  1  0
 18 19  2  0
 19 20  1  0
 19 21  1  0
 16 22  1  0
 21 22  2  0
 11 23  1  0
 15 23  1  0
 23 24  2  0
M  END
