pyridine_urea_10669
     RDKit          3D

 21 23  0  0  0  0  0  0  0  0999 V2000
    8.8560   -0.9210   20.6170 O   0  0  0  0  0  0  0  0  0  0  0  0
    8.1770   -0.6970   21.5320 C   0  0  0  0  0  0  0  0  0  0  0  0
    6.8340   -0.4930   21.4450 N   0  0  0  0  0  0  0  0  0  0  0  0
    6.2170    0.1330   20.3380 C   0  0  0  0  0  0  0  0  0  0  0  0
    4.9270    0.9490   20.4550 C   0  0  0  0  0  0  0  0  0  0  0  0
    4.4390    1.5520   19.1430 C   0  0  0  0  0  0  0  0  0  0  0  0
    5.2430    1.2900   17.9130 C   0  0  0  0  0  0  0  0  0  0  0  0
    6.3650    0.5530   17.8970 N   0  0  0  0  0  0  0  0  0  0  0  0
    6.8110    0.0080   19.0650 C   0  0  0  0  0  0  0  0  0  0  0  0
    8.7750   -0.5880   22.7480 N   0  0  0  0  0  0  0  0  0  0  0  0
   10.0950   -0.0050   22.6610 C   0  0  0  0  0  0  0  0  0  0  0  0
   10.3600    0.7670   23.7770 C   0  0  0  0  0  0  0  0  0  0  0  0
   11.6940    1.0730   23.7460 C   0  0  0  0  0  0  0  0  0  0  0  0
   12.6180    0.1010   23.7430 N   0  0  0  0  0  0  0  0  0  0  0  0
   12.7620   -0.7850   24.7750 C   0  0  0  0  0  0  0  0  0  0  0  0
   13.2110   -0.5390   26.0330 O   0  0  0  0  0  0  0  0  0  0  0  0
   12.4090   -2.0840   24.4720 C   0  0  0  0  0  0  0  0  0  0  0  0
   13.2660   -2.6730   23.7040 C   0  0  0  0  0  0  0  0  0  0  0  0
   13.5510   -2.7600   25.2820 C   0  0  0  0  0  0  0  0  0  0  0  0
   12.4820   -0.4630   22.5670 C   0  0  0  0  0  0  0  0  0  0  0  0
   11.1520   -0.9080   22.3640 C   0  0  0  0  0  0  0  0  0  0  0  0
  1  2  2  0
  2  3  1  0
  3  4  1  0
  4  5  2  0
  5  6  1  0
  6  7  2  0
  7  8  1  0
  4  9  1  0
  8  9  2  0
  2 10  1  0
 10 11  1  0
 11 12  1  0
 12 13  1  0
 13 14  1  0
 14 15  1  0
 15 16  2  0
 15 17  1  0
 17 18  1  0
 17 19  1  0
 18 19  1  0
 14 20  1  0
 11 21  1  0
 20 21  1  0
M  END
