pyridine_urea_6656
     RDKit          3D

 22 23  0  0  0  0  0  0  0  0999 V2000
   13.4210   -0.8500   20.2400 C   0  0  0  0  0  0  0  0  0  0  0  0
   13.4520   -2.0780   20.7940 C   0  0  0  0  0  0  0  0  0  0  0  0
   14.2120   -3.1470   20.1850 C   0  0  0  0  0  0  0  0  0  0  0  0
   14.2090   -4.1410   21.0060 C   0  0  0  0  0  0  0  0  0  0  0  0
   15.0870   -5.3310   20.6900 C   0  0  0  0  0  0  0  0  0  0  0  0
   16.0310   -5.0120   19.7780 F   0  0  0  0  0  0  0  0  0  0  0  0
   14.5630   -6.3970   20.2020 F   0  0  0  0  0  0  0  0  0  0  0  0
   15.8000   -5.7250   21.7310 F   0  0  0  0  0  0  0  0  0  0  0  0
   13.2820   -3.6140   22.1450 N   0  0  0  0  0  0  0  0  0  0  0  0
   12.7990   -2.3700   21.9360 N   0  0  0  0  0  0  0  0  0  0  0  0
   11.9100   -1.7420   22.7750 C   0  0  0  0  0  0  0  0  0  0  0  0
   10.5320   -1.9940   22.4350 C   0  0  0  0  0  0  0  0  0  0  0  0
    9.5990   -0.8900   22.7440 N   0  0  0  0  0  0  0  0  0  0  0  0
    8.8770   -0.1460   21.7820 C   0  0  0  0  0  0  0  0  0  0  0  0
    9.2200    0.9850   21.4840 O   0  0  0  0  0  0  0  0  0  0  0  0
    7.7370   -0.7410   21.2290 N   0  0  0  0  0  0  0  0  0  0  0  0
    6.8420   -0.1060   20.3010 C   0  0  0  0  0  0  0  0  0  0  0  0
    5.7120    0.6850   20.5430 C   0  0  0  0  0  0  0  0  0  0  0  0
    4.8870    1.2890   19.5710 C   0  0  0  0  0  0  0  0  0  0  0  0
    5.1970    1.1010   18.2160 C   0  0  0  0  0  0  0  0  0  0  0  0
    6.2410    0.3650   17.8250 N   0  0  0  0  0  0  0  0  0  0  0  0
    7.0160   -0.2080   18.7810 C   0  0  0  0  0  0  0  0  0  0  0  0
  1  2  1  0
  2  3  2  0
  3  4  1  0
  4  5  1  0
  5  6  1  0
  5  7  1  0
  5  8  1  0
  4  9  2  0
  2 10  1  0
  9 10  1  0
 10 11  1  0
 11 12  1  0
 12 13  1  0
 13 14  1  0
 14 15  2  0
 14 16  1  0
 16 17  1  0
 17 18  2  0
 18 19  1  0
 19 20  2  0
 20 21  1  0
 17 22  1  0
 21 22  2  0
M  END
