pyridine_urea_7767
     RDKit          3D

 32 35  0  0  0  0  0  0  0  0999 V2000
    6.6520   -6.5350   22.6250 C   0  0  0  0  0  0  0  0  0  0  0  0
    6.1290   -5.4300   22.6950 O   0  0  0  0  0  0  0  0  0  0  0  0
    5.7670   -5.0320   23.9370 C   0  0  0  0  0  0  0  0  0  0  0  0
    4.8900   -5.5480   24.6140 O   0  0  0  0  0  0  0  0  0  0  0  0
    6.5220   -3.9320   24.3810 C   0  0  0  0  0  0  0  0  0  0  0  0
    7.6550   -3.3950   23.8420 C   0  0  0  0  0  0  0  0  0  0  0  0
    8.2790   -3.7950   22.7240 C   0  0  0  0  0  0  0  0  0  0  0  0
    9.4110   -3.3560   22.5840 O   0  0  0  0  0  0  0  0  0  0  0  0
    7.5800   -4.5890   21.8800 O   0  0  0  0  0  0  0  0  0  0  0  0
    6.3380   -3.9570   21.4930 C   0  0  0  0  0  0  0  0  0  0  0  0
    8.3220   -2.2340   24.4990 C   0  0  0  0  0  0  0  0  0  0  0  0
    9.6600   -1.4380   24.0810 C   0  0  0  0  0  0  0  0  0  0  0  0
   11.0600   -1.4840   24.4590 C   0  0  0  0  0  0  0  0  0  0  0  0
   11.9700   -0.5880   23.8560 C   0  0  0  0  0  0  0  0  0  0  0  0
   11.5040    0.3040   22.9220 C   0  0  0  0  0  0  0  0  0  0  0  0
   10.1780    0.3060   22.5850 C   0  0  0  0  0  0  0  0  0  0  0  0
    9.3820    0.9850   21.7340 N   0  0  0  0  0  0  0  0  0  0  0  0
    8.4430    0.1210   21.2200 C   0  0  0  0  0  0  0  0  0  0  0  0
    8.7320   -0.9490   20.7770 O   0  0  0  0  0  0  0  0  0  0  0  0
    7.1600    0.5470   21.2680 N   0  0  0  0  0  0  0  0  0  0  0  0
    6.4720    0.7750   20.1020 C   0  0  0  0  0  0  0  0  0  0  0  0
    5.3370    1.5560   20.1740 C   0  0  0  0  0  0  0  0  0  0  0  0
    4.6380    1.8240   19.0230 C   0  0  0  0  0  0  0  0  0  0  0  0
    5.1130    1.2950   17.8420 C   0  0  0  0  0  0  0  0  0  0  0  0
    6.1950    0.5270   17.7390 N   0  0  0  0  0  0  0  0  0  0  0  0
    6.8590    0.2750   18.8700 C   0  0  0  0  0  0  0  0  0  0  0  0
    9.3330   -0.5420   23.1620 C   0  0  0  0  0  0  0  0  0  0  0  0
    7.3430   -2.1180   25.5310 N   0  0  0  0  0  0  0  0  0  0  0  0
    6.3400   -3.0980   25.4530 C   0  0  0  0  0  0  0  0  0  0  0  0
    5.4670   -2.9030   26.5060 C   0  0  0  0  0  0  0  0  0  0  0  0
    5.9400   -1.8640   27.2670 C   0  0  0  0  0  0  0  0  0  0  0  0
    7.0480   -1.2500   26.7010 C   0  0  0  0  0  0  0  0  0  0  0  0
  1  2  1  0
  2  3  1  0
  3  4  2  0
  3  5  1  0
  5  6  1  0
  6  7  1  0
  7  8  2  0
  7  9  1  0
  9 10  1  0
  6 11  2  0
 11 12  1  0
 12 13  2  0
 13 14  1  0
 14 15  2  0
 15 16  1  0
 16 17  1  0
 17 18  1  0
 18 19  2  0
 18 20  1  0
 20 21  1  0
 21 22  2  0
 22 23  1  0
 23 24  2  0
 24 25  1  0
 21 26  1  0
 25 26  2  0
 12 27  1  0
 16 27  2  0
 11 28  1  0
  5 29  2  0
 28 29  1  0
 29 30  1  0
 30 31  1  0
 28 32  1  0
 31 32  1  0
M  END
