pyridine_urea_12317
     RDKit          3D

 22 23  0  0  0  0  0  0  0  0999 V2000
    8.5740    0.7140   21.4140 O   0  0  0  0  0  0  0  0  0  0  0  0
    8.1550   -0.3800   21.7750 C   0  0  0  0  0  0  0  0  0  0  0  0
    7.0390   -0.9300   21.1720 N   0  0  0  0  0  0  0  0  0  0  0  0
    6.4100   -0.1660   20.0980 C   0  0  0  0  0  0  0  0  0  0  0  0
    5.0940    0.6340   20.3780 C   0  0  0  0  0  0  0  0  0  0  0  0
    4.5390    1.3500   19.3210 C   0  0  0  0  0  0  0  0  0  0  0  0
    5.2700    1.2920   17.9740 C   0  0  0  0  0  0  0  0  0  0  0  0
    6.4020    0.5840   17.7820 N   0  0  0  0  0  0  0  0  0  0  0  0
    6.9360   -0.1140   18.8160 C   0  0  0  0  0  0  0  0  0  0  0  0
    8.6930   -1.1920   22.7770 N   0  0  0  0  0  0  0  0  0  0  0  0
   10.1140   -1.0050   23.1070 C   0  0  0  0  0  0  0  0  0  0  0  0
   10.7190   -1.5850   24.3140 C   0  0  0  0  0  0  0  0  0  0  0  0
   12.2020   -1.2590   24.4440 C   0  0  0  0  0  0  0  0  0  0  0  0
   12.7860   -1.6960   25.3740 O   0  0  0  0  0  0  0  0  0  0  0  0
   13.1530   -2.9570   24.9710 C   0  0  0  0  0  0  0  0  0  0  0  0
   13.8970   -3.5560   25.8990 F   0  0  0  0  0  0  0  0  0  0  0  0
   12.0000   -3.5970   24.7970 F   0  0  0  0  0  0  0  0  0  0  0  0
   13.8000   -2.9440   23.7770 F   0  0  0  0  0  0  0  0  0  0  0  0
   12.9250   -0.5210   23.5810 C   0  0  0  0  0  0  0  0  0  0  0  0
   12.2150    0.0020   22.4270 C   0  0  0  0  0  0  0  0  0  0  0  0
   10.8450   -0.2880   22.2760 C   0  0  0  0  0  0  0  0  0  0  0  0
   10.0770    0.1200   21.2780 O   0  0  0  0  0  0  0  0  0  0  0  0
  1  2  2  0
  2  3  1  0
  3  4  1  0
  4  5  2  0
  5  6  1  0
  6  7  2  0
  7  8  1  0
  4  9  1  0
  8  9  2  0
  2 10  1  0
 10 11  1  0
 11 12  2  0
 12 13  1  0
 13 14  1  0
 14 15  1  0
 15 16  1  0
 15 17  1  0
 15 18  1  0
 13 19  2  0
 19 20  1  0
 11 21  1  0
 20 21  2  0
 21 22  1  0
M  END
