pyridine_urea_854
     RDKit          3D

 23 24  0  0  0  0  0  0  0  0999 V2000
   13.7440   -2.8590   23.7300 C   0  0  0  0  0  0  0  0  0  0  0  0
   12.8310   -2.4080   22.6450 C   0  0  0  0  0  0  0  0  0  0  0  0
   11.5360   -2.3170   23.0840 C   0  0  0  0  0  0  0  0  0  0  0  0
   11.4760   -1.9220   24.4020 C   0  0  0  0  0  0  0  0  0  0  0  0
   12.6800   -0.5740   24.5380 S   0  0  0  0  0  0  0  0  0  0  0  0
   13.6830   -0.7060   23.5250 O   0  0  0  0  0  0  0  0  0  0  0  0
   13.0160   -0.3890   25.8990 O   0  0  0  0  0  0  0  0  0  0  0  0
   11.7670    0.7130   23.9850 N   0  0  0  0  0  0  0  0  0  0  0  0
   11.5940    0.5130   22.6850 C   0  0  0  0  0  0  0  0  0  0  0  0
   10.8100   -0.6440   22.1300 C   0  0  0  0  0  0  0  0  0  0  0  0
    9.6690   -0.9050   23.0960 C   0  0  0  0  0  0  0  0  0  0  0  0
    8.5130   -1.3070   22.3590 N   0  0  0  0  0  0  0  0  0  0  0  0
    8.0360   -0.3650   21.4960 C   0  0  0  0  0  0  0  0  0  0  0  0
    8.6270    0.6820   21.2590 O   0  0  0  0  0  0  0  0  0  0  0  0
    6.8450   -0.7460   20.9710 N   0  0  0  0  0  0  0  0  0  0  0  0
    6.2800   -0.0330   19.9290 C   0  0  0  0  0  0  0  0  0  0  0  0
    5.0890    0.6550   20.1210 C   0  0  0  0  0  0  0  0  0  0  0  0
    4.5230    1.3840   19.0900 C   0  0  0  0  0  0  0  0  0  0  0  0
    5.1680    1.4110   17.8720 C   0  0  0  0  0  0  0  0  0  0  0  0
    6.3230    0.7470   17.6600 N   0  0  0  0  0  0  0  0  0  0  0  0
    6.8460    0.0460   18.6830 C   0  0  0  0  0  0  0  0  0  0  0  0
    9.5220    0.2640   23.7990 C   0  0  0  0  0  0  0  0  0  0  0  0
   10.4540    0.8090   24.6390 C   0  0  0  0  0  0  0  0  0  0  0  0
  1  2  1  0
  2  3  1  0
  3  4  1  0
  5  4  1  0
  5  6  2  0
  5  7  2  0
  5  8  1  0
  8  9  1  0
  9 10  1  0
 10 11  1  0
 11 12  1  0
 12 13  1  0
 13 14  2  0
 13 15  1  0
 15 16  1  0
 16 17  2  0
 17 18  1  0
 18 19  2  0
 19 20  1  0
 16 21  1  0
 20 21  2  0
 11 22  1  0
  8 23  1  0
 22 23  1  0
M  END
