pyridine_urea_3117
     RDKit          3D

 21 22  0  0  0  0  0  0  0  0999 V2000
    9.7370    0.8710   24.3910 C   0  0  0  0  0  0  0  0  0  0  0  0
    9.9890   -0.3070   23.5100 C   0  0  1  0  0  0  0  0  0  0  0  0
    8.7750   -0.7270   22.8300 N   0  0  0  0  0  0  0  0  0  0  0  0
    8.3870    0.0690   21.6410 C   0  0  0  0  0  0  0  0  0  0  0  0
    9.0170    1.1050   21.2890 O   0  0  0  0  0  0  0  0  0  0  0  0
    7.2810   -0.4840   21.0460 N   0  0  0  0  0  0  0  0  0  0  0  0
    6.5620    0.1210   20.0220 C   0  0  0  0  0  0  0  0  0  0  0  0
    5.4180    0.8250   20.3280 C   0  0  0  0  0  0  0  0  0  0  0  0
    4.6480    1.4980   19.2130 C   0  0  0  0  0  0  0  0  0  0  0  0
    5.1450    1.3650   17.9340 C   0  0  0  0  0  0  0  0  0  0  0  0
    6.2600    0.6610   17.6740 N   0  0  0  0  0  0  0  0  0  0  0  0
    6.9300    0.0660   18.6960 C   0  0  0  0  0  0  0  0  0  0  0  0
   11.1280   -0.0280   22.5190 C   0  0  1  0  0  0  0  0  0  0  0  0
   11.3410    1.1720   22.5050 O   0  0  0  0  0  0  0  0  0  0  0  0
   12.0800   -0.9360   22.8030 C   0  0  0  0  0  0  0  0  0  0  0  0
   12.9070   -1.8630   22.3310 C   0  0  0  0  0  0  0  0  0  0  0  0
   13.5880   -2.3640   23.6360 C   0  0  0  0  0  0  0  0  0  0  0  0
   13.2660   -1.7920   25.0530 C   0  0  0  0  0  0  0  0  0  0  0  0
   12.3390   -0.8570   24.7950 C   0  0  0  0  0  0  0  0  0  0  0  0
   12.7040   -1.4100   23.7510 C   0  0  0  0  0  0  0  0  0  0  0  0
   13.3000   -1.8260   24.8770 F   0  0  0  0  0  0  0  0  0  0  0  0
  2  1  1  6
  2  3  1  0
  3  4  1  0
  4  5  2  0
  4  6  1  0
  6  7  1  0
  7  8  2  0
  8  9  1  0
  9 10  2  0
 10 11  1  0
  7 12  1  0
 11 12  2  0
  2 13  1  0
 13 14  1  1
 13 15  1  0
 15 16  2  0
 16 17  1  0
 17 18  2  0
 18 19  1  0
 15 20  1  0
 19 20  2  0
 20 21  1  0
M  END
