pyridine_urea_4250
     RDKit          3D

 24 26  0  0  0  0  0  0  0  0999 V2000
   13.4300   -2.9420   25.0220 C   0  0  0  0  0  0  0  0  0  0  0  0
   13.3340   -1.5390   25.0820 O   0  0  0  0  0  0  0  0  0  0  0  0
   13.0440   -1.0070   23.7980 C   0  0  0  0  0  0  0  0  0  0  0  0
   13.8210   -0.6390   22.9510 O   0  0  0  0  0  0  0  0  0  0  0  0
   11.5920   -0.9270   23.5390 C   0  0  0  0  0  0  0  0  0  0  0  0
   11.2360   -1.2030   22.1340 C   0  0  0  0  0  0  0  0  0  0  0  0
    9.7560   -1.0770   21.9670 C   0  0  0  0  0  0  0  0  0  0  0  0
    9.0250   -1.2390   20.8370 N   0  0  0  0  0  0  0  0  0  0  0  0
    8.0720   -0.2930   20.9180 C   0  0  0  0  0  0  0  0  0  0  0  0
    8.4130    0.8720   21.1400 O   0  0  0  0  0  0  0  0  0  0  0  0
    6.8120   -0.7310   20.7280 N   0  0  0  0  0  0  0  0  0  0  0  0
    6.1780    0.0110   19.7860 C   0  0  0  0  0  0  0  0  0  0  0  0
    4.9550    0.6100   19.9930 C   0  0  0  0  0  0  0  0  0  0  0  0
    4.3560    1.3840   19.0200 C   0  0  0  0  0  0  0  0  0  0  0  0
    5.0360    1.5330   17.8240 C   0  0  0  0  0  0  0  0  0  0  0  0
    6.2310    0.9560   17.5800 N   0  0  0  0  0  0  0  0  0  0  0  0
    6.7440    0.2220   18.5700 C   0  0  0  0  0  0  0  0  0  0  0  0
    8.8510   -0.7720   22.8800 C   0  0  0  0  0  0  0  0  0  0  0  0
    9.2880   -0.5460   24.1790 C   0  0  0  0  0  0  0  0  0  0  0  0
    8.3180   -0.2490   25.1040 C   0  0  0  0  0  0  0  0  0  0  0  0
    8.6250   -0.0080   26.4790 C   0  0  0  0  0  0  0  0  0  0  0  0
    9.9300   -0.0910   26.8160 C   0  0  0  0  0  0  0  0  0  0  0  0
   10.8830   -0.4050   25.7760 C   0  0  0  0  0  0  0  0  0  0  0  0
   10.6030   -0.6250   24.5040 C   0  0  0  0  0  0  0  0  0  0  0  0
  1  2  1  0
  2  3  1  0
  3  4  2  0
  3  5  1  0
  5  6  2  0
  6  7  1  0
  7  8  1  0
  8  9  1  0
  9 10  2  0
  9 11  1  0
 11 12  1  0
 12 13  2  0
 13 14  1  0
 14 15  2  0
 15 16  1  0
 12 17  1  0
 16 17  2  0
  7 18  2  0
 18 19  1  0
 19 20  1  0
 20 21  2  0
 21 22  1  0
 22 23  2  0
  5 24  1  0
 19 24  2  0
 23 24  1  0
M  END
