pyridine_urea_4823
     RDKit          3D

 21 22  0  0  0  0  0  0  0  0999 V2000
   13.2470   -0.4060   24.1460 C   0  0  0  0  0  0  0  0  0  0  0  0
   12.9550   -1.8390   23.8670 C   0  0  0  0  0  0  0  0  0  0  0  0
   13.4090   -2.3760   22.5350 C   0  0  0  0  0  0  0  0  0  0  0  0
   13.1290   -2.7920   25.0580 C   0  0  0  0  0  0  0  0  0  0  0  0
   11.6730   -1.3150   23.5970 C   0  0  0  0  0  0  0  0  0  0  0  0
   11.0620   -0.5570   24.5790 C   0  0  0  0  0  0  0  0  0  0  0  0
    9.8460   -0.0140   24.3700 C   0  0  0  0  0  0  0  0  0  0  0  0
    9.2710   -0.2630   23.1590 C   0  0  0  0  0  0  0  0  0  0  0  0
    8.0190    0.2740   22.9120 N   0  0  0  0  0  0  0  0  0  0  0  0
    7.9260    0.6100   21.6320 C   0  0  0  0  0  0  0  0  0  0  0  0
    8.6440    1.4880   21.1250 O   0  0  0  0  0  0  0  0  0  0  0  0
    6.9580   -0.1740   21.0200 N   0  0  0  0  0  0  0  0  0  0  0  0
    6.3920    0.3180   19.9130 C   0  0  0  0  0  0  0  0  0  0  0  0
    5.2630    1.0760   20.1840 C   0  0  0  0  0  0  0  0  0  0  0  0
    4.6320    1.6650   18.9990 C   0  0  0  0  0  0  0  0  0  0  0  0
    5.1170    1.4920   17.7400 C   0  0  0  0  0  0  0  0  0  0  0  0
    6.2160    0.7320   17.5160 N   0  0  0  0  0  0  0  0  0  0  0  0
    6.8430    0.1430   18.6320 C   0  0  0  0  0  0  0  0  0  0  0  0
    9.8240   -1.0060   22.1390 C   0  0  0  0  0  0  0  0  0  0  0  0
    9.1920   -1.1490   21.1150 O   0  0  0  0  0  0  0  0  0  0  0  0
   11.1330   -1.5790   22.3600 C   0  0  0  0  0  0  0  0  0  0  0  0
  2  1  1  0
  2  3  1  0
  2  4  1  0
  2  5  1  0
  5  6  2  0
  6  7  1  0
  7  8  2  0
  8  9  1  0
  9 10  1  0
 10 11  2  0
 10 12  1  0
 12 13  1  0
 13 14  2  0
 14 15  1  0
 15 16  2  0
 16 17  1  0
 13 18  1  0
 17 18  2  0
  8 19  1  0
 19 20  1  0
  5 21  1  0
 19 21  2  0
M  END
