pyridine_urea_14810
     RDKit          3D

 20 20  0  0  0  0  0  0  0  0999 V2000
    8.8450   -1.6120   20.8870 O   0  0  0  0  0  0  0  0  0  0  0  0
    8.1340   -0.8640   21.4510 C   0  0  0  0  0  0  0  0  0  0  0  0
    8.6240   -0.0700   22.4130 N   0  0  0  0  0  0  0  0  0  0  0  0
    9.6970    0.7660   22.1520 C   0  0  0  0  0  0  0  0  0  0  0  0
   10.2060    1.5450   23.1280 C   0  0  0  0  0  0  0  0  0  0  0  0
   10.4480    3.2430   22.9410 S   0  0  0  0  0  0  0  0  0  0  0  0
   11.3280    3.4970   21.8340 O   0  0  0  0  0  0  0  0  0  0  0  0
   10.6220    3.8760   24.2330 O   0  0  0  0  0  0  0  0  0  0  0  0
    8.7130    3.4310   22.4920 C   0  0  0  0  0  0  0  0  0  0  0  0
    8.1860    4.5080   23.1990 C   0  0  0  0  0  0  0  0  0  0  0  0
    8.9410    5.6110   23.2990 F   0  0  0  0  0  0  0  0  0  0  0  0
    6.9930    4.9830   22.8050 F   0  0  0  0  0  0  0  0  0  0  0  0
    7.9910    4.1340   24.4900 F   0  0  0  0  0  0  0  0  0  0  0  0
    6.8020   -0.6650   21.2150 N   0  0  0  0  0  0  0  0  0  0  0  0
    6.3180   -0.0340   20.1250 C   0  0  0  0  0  0  0  0  0  0  0  0
    5.0470    0.8250   20.1980 C   0  0  0  0  0  0  0  0  0  0  0  0
    4.5110    1.5020   19.1120 C   0  0  0  0  0  0  0  0  0  0  0  0
    5.1970    1.3710   17.8980 C   0  0  0  0  0  0  0  0  0  0  0  0
    6.3380    0.6050   17.7970 N   0  0  0  0  0  0  0  0  0  0  0  0
    6.9030   -0.0950   18.8710 C   0  0  0  0  0  0  0  0  0  0  0  0
  1  2  2  0
  2  3  1  0
  3  4  1  0
  4  5  1  0
  6  5  1  0
  6  7  2  0
  6  8  2  0
  6  9  1  0
  9 10  1  0
 10 11  1  0
 10 12  1  0
 10 13  1  0
  2 14  1  0
 14 15  1  0
 15 16  2  0
 16 17  1  0
 17 18  2  0
 18 19  1  0
 15 20  1  0
 19 20  2  0
M  END
