pyridine_urea_1621
     RDKit          3D

 19 20  0  0  0  0  0  0  0  0999 V2000
    8.6190    1.3760   20.9460 O   0  0  0  0  0  0  0  0  0  0  0  0
    8.4530    0.2460   21.3970 C   0  0  0  0  0  0  0  0  0  0  0  0
    9.3090   -0.3120   22.2940 N   0  0  0  0  0  0  0  0  0  0  0  0
   10.2900    0.4990   22.9050 C   0  0  0  0  0  0  0  0  0  0  0  0
    9.9520    1.8760   22.9270 C   0  0  0  0  0  0  0  0  0  0  0  0
   10.8420    2.8800   23.2660 N   0  0  0  0  0  0  0  0  0  0  0  0
   12.1410    3.0600   22.7290 C   0  0  0  0  0  0  0  0  0  0  0  0
   12.7620    4.2830   22.5370 C   0  0  0  0  0  0  0  0  0  0  0  0
   12.0620    5.4180   22.9070 C   0  0  0  0  0  0  0  0  0  0  0  0
   10.8730    5.2860   23.5790 N   0  0  0  0  0  0  0  0  0  0  0  0
   10.3110    3.9780   23.9180 C   0  0  0  0  0  0  0  0  0  0  0  0
    9.2720    3.8550   24.8780 O   0  0  0  0  0  0  0  0  0  0  0  0
    7.3790   -0.5220   21.0270 N   0  0  0  0  0  0  0  0  0  0  0  0
    6.5190    0.0540   20.0820 C   0  0  0  0  0  0  0  0  0  0  0  0
    5.3160    0.6890   20.3480 C   0  0  0  0  0  0  0  0  0  0  0  0
    4.5900    1.2450   19.2950 C   0  0  0  0  0  0  0  0  0  0  0  0
    5.1060    1.1390   18.0150 C   0  0  0  0  0  0  0  0  0  0  0  0
    6.2550    0.5220   17.7320 N   0  0  0  0  0  0  0  0  0  0  0  0
    6.9290   -0.0030   18.7640 C   0  0  0  0  0  0  0  0  0  0  0  0
  1  2  2  0
  2  3  1  0
  3  4  1  0
  4  5  1  0
  5  6  1  0
  6  7  1  0
  7  8  2  0
  8  9  1  0
  9 10  2  0
  6 11  1  0
 10 11  1  0
 11 12  2  0
  2 13  1  0
 13 14  1  0
 14 15  2  0
 15 16  1  0
 16 17  2  0
 17 18  1  0
 14 19  1  0
 18 19  2  0
M  END
