pyridine_urea_950
     RDKit          3D

 22 24  0  0  0  0  0  0  0  0999 V2000
    8.7700    0.7090   21.3010 O   0  0  0  0  0  0  0  0  0  0  0  0
    8.2830   -0.3960   21.4950 C   0  0  0  0  0  0  0  0  0  0  0  0
    8.9960   -1.4890   22.1340 N   0  0  0  0  0  0  0  0  0  0  0  0
   10.0230   -1.1990   23.0230 C   0  0  0  0  0  0  0  0  0  0  0  0
   11.3130   -1.3910   22.5510 C   0  0  0  0  0  0  0  0  0  0  0  0
   12.0210   -0.2200   22.7100 C   0  0  0  0  0  0  0  0  0  0  0  0
   11.3070    1.0570   22.7150 N   0  0  0  0  0  0  0  0  0  0  0  0
   12.2560    2.0210   22.8750 C   0  0  0  0  0  0  0  0  0  0  0  0
   12.0270    3.5080   22.9350 C   0  0  0  0  0  0  0  0  0  0  0  0
   12.9120    4.5440   22.3000 C   0  0  0  0  0  0  0  0  0  0  0  0
   12.2590    5.8050   22.6600 C   0  0  0  0  0  0  0  0  0  0  0  0
   11.1750    5.3530   23.3900 C   0  0  0  0  0  0  0  0  0  0  0  0
   11.0700    4.0870   23.5270 O   0  0  0  0  0  0  0  0  0  0  0  0
   13.3950    1.2910   22.9580 N   0  0  0  0  0  0  0  0  0  0  0  0
   13.3060   -0.0200   22.8680 N   0  0  0  0  0  0  0  0  0  0  0  0
    7.0070   -0.6390   21.0880 N   0  0  0  0  0  0  0  0  0  0  0  0
    6.4160    0.0020   20.0600 C   0  0  0  0  0  0  0  0  0  0  0  0
    5.2400    0.7210   20.2800 C   0  0  0  0  0  0  0  0  0  0  0  0
    4.6390    1.3900   19.2200 C   0  0  0  0  0  0  0  0  0  0  0  0
    5.2300    1.3210   17.9760 C   0  0  0  0  0  0  0  0  0  0  0  0
    6.3570    0.6300   17.7430 N   0  0  0  0  0  0  0  0  0  0  0  0
    6.9230   -0.0140   18.7800 C   0  0  0  0  0  0  0  0  0  0  0  0
  1  2  2  0
  2  3  1  0
  3  4  1  0
  4  5  1  0
  5  6  1  0
  6  7  2  0
  7  8  1  0
  8  9  1  0
  9 10  2  0
 10 11  1  0
 11 12  2  0
  9 13  1  0
 12 13  1  0
  8 14  2  0
  6 15  1  0
 14 15  1  0
  2 16  1  0
 16 17  1  0
 17 18  2  0
 18 19  1  0
 19 20  2  0
 20 21  1  0
 17 22  1  0
 21 22  2  0
M  END
