pyridine_urea_10438
     RDKit          3D

 22 24  0  0  0  0  0  0  0  0999 V2000
    8.9210    1.1650   21.1360 O   0  0  0  0  0  0  0  0  0  0  0  0
    8.4090    0.0600   21.3670 C   0  0  0  0  0  0  0  0  0  0  0  0
    9.0090   -0.9900   21.9840 N   0  0  0  0  0  0  0  0  0  0  0  0
    9.0920   -1.2120   23.3570 C   0  0  0  0  0  0  0  0  0  0  0  0
    9.5220   -0.0990   24.3150 C   0  0  0  0  0  0  0  0  0  0  0  0
   10.9420    0.4220   24.0720 C   0  0  0  0  0  0  0  0  0  0  0  0
   12.3840    0.6170   23.5660 C   0  0  0  0  0  0  0  0  0  0  0  0
   13.1890   -0.0590   22.6790 C   0  0  0  0  0  0  0  0  0  0  0  0
   12.7030   -1.1480   22.0720 C   0  0  0  0  0  0  0  0  0  0  0  0
   13.3990   -1.8910   21.1820 F   0  0  0  0  0  0  0  0  0  0  0  0
   11.4590   -1.4890   22.3810 C   0  0  0  0  0  0  0  0  0  0  0  0
   10.7060   -0.7590   23.2800 C   0  0  0  0  0  0  0  0  0  0  0  0
    8.4870    0.9450   24.8890 C   0  0  0  0  0  0  0  0  0  0  0  0
    8.5240    0.0930   25.9930 C   0  0  0  0  0  0  0  0  0  0  0  0
    9.7230   -0.6140   25.8250 C   0  0  0  0  0  0  0  0  0  0  0  0
    7.1320   -0.3070   21.0430 N   0  0  0  0  0  0  0  0  0  0  0  0
    6.4650    0.2310   19.9960 C   0  0  0  0  0  0  0  0  0  0  0  0
    5.3110    0.9490   20.2330 C   0  0  0  0  0  0  0  0  0  0  0  0
    4.6200    1.5330   19.1800 C   0  0  0  0  0  0  0  0  0  0  0  0
    5.1320    1.3640   17.9080 C   0  0  0  0  0  0  0  0  0  0  0  0
    6.2410    0.6620   17.6490 N   0  0  0  0  0  0  0  0  0  0  0  0
    6.8850    0.1090   18.6930 C   0  0  0  0  0  0  0  0  0  0  0  0
  1  2  2  0
  2  3  1  0
  3  4  1  0
  5  4  1  0
  5  6  1  0
  6  7  2  0
  7  8  1  0
  8  9  2  0
  9 10  1  0
  9 11  1  0
  6 12  1  0
 11 12  2  0
  5 13  1  0
 13 14  1  0
  5 15  1  0
 14 15  1  0
  2 16  1  0
 16 17  1  0
 17 18  2  0
 18 19  1  0
 19 20  2  0
 20 21  1  0
 17 22  1  0
 21 22  2  0
M  END
