pyridine_urea_7705
     RDKit          3D

 23 25  0  0  0  0  0  0  0  0999 V2000
    8.8290    0.6260   21.1740 O   0  0  0  0  0  0  0  0  0  0  0  0
    8.5080   -0.4840   21.5510 C   0  0  0  0  0  0  0  0  0  0  0  0
    7.3190   -1.0320   21.1330 N   0  0  0  0  0  0  0  0  0  0  0  0
    6.5830   -0.3190   20.1320 C   0  0  0  0  0  0  0  0  0  0  0  0
    5.3960    0.3590   20.4590 C   0  0  0  0  0  0  0  0  0  0  0  0
    4.6900    1.0720   19.4750 C   0  0  0  0  0  0  0  0  0  0  0  0
    5.1900    1.0880   18.1880 C   0  0  0  0  0  0  0  0  0  0  0  0
    6.3160    0.4460   17.8450 N   0  0  0  0  0  0  0  0  0  0  0  0
    6.9820   -0.2360   18.8080 C   0  0  0  0  0  0  0  0  0  0  0  0
    9.3790   -1.1730   22.4240 N   0  0  0  0  0  0  0  0  0  0  0  0
   10.4610   -0.1890   22.6440 C   0  0  0  0  0  0  0  0  0  0  0  0
    9.7080    1.0730   22.8090 C   0  0  0  0  0  0  0  0  0  0  0  0
   10.3600    2.2170   22.9510 C   0  0  0  0  0  0  0  0  0  0  0  0
   11.7030    2.2440   22.9490 C   0  0  0  0  0  0  0  0  0  0  0  0
   12.0930    3.6080   23.0420 C   0  0  0  0  0  0  0  0  0  0  0  0
   13.3420    4.0800   22.7970 C   0  0  0  0  0  0  0  0  0  0  0  0
   13.1040    5.1310   21.9290 C   0  0  0  0  0  0  0  0  0  0  0  0
   12.3290    6.1510   22.4390 O   0  0  0  0  0  0  0  0  0  0  0  0
   11.1410    5.6650   23.0960 C   0  0  0  0  0  0  0  0  0  0  0  0
   11.3970    4.5150   23.8580 C   0  0  0  0  0  0  0  0  0  0  0  0
   12.4470    0.9960   22.8310 C   0  0  0  0  0  0  0  0  0  0  0  0
   11.8800   -0.3450   22.6680 C   0  0  0  0  0  0  0  0  0  0  0  0
   12.5670   -1.4900   22.5390 F   0  0  0  0  0  0  0  0  0  0  0  0
  1  2  2  0
  2  3  1  0
  3  4  1  0
  4  5  2  0
  5  6  1  0
  6  7  2  0
  7  8  1  0
  4  9  1  0
  8  9  2  0
  2 10  1  0
 10 11  1  0
 11 12  2  0
 12 13  1  0
 13 14  2  0
 14 15  1  0
 15 16  1  0
 16 17  1  0
 17 18  1  0
 18 19  1  0
 15 20  1  0
 19 20  1  0
 14 21  1  0
 11 22  1  0
 21 22  2  0
 22 23  1  0
M  END
