pyridine_urea_384
     RDKit          3D

 26 28  0  0  0  0  0  0  0  0999 V2000
    6.3370    1.7810   24.0030 C   0  0  0  0  0  0  0  0  0  0  0  0
    7.7170    2.1090   23.4670 C   0  0  0  0  0  0  0  0  0  0  0  0
    8.3570    0.9600   22.9070 O   0  0  0  0  0  0  0  0  0  0  0  0
    9.7250    0.8970   22.8490 C   0  0  0  0  0  0  0  0  0  0  0  0
   10.4710    1.9880   23.0650 C   0  0  0  0  0  0  0  0  0  0  0  0
   11.8130    2.0150   23.0330 C   0  0  0  0  0  0  0  0  0  0  0  0
   12.1670    3.3600   23.2940 N   0  0  0  0  0  0  0  0  0  0  0  0
   12.8150    4.1290   22.1980 C   0  0  0  0  0  0  0  0  0  0  0  0
   12.8110    5.6820   22.3970 C   0  0  0  0  0  0  0  0  0  0  0  0
   11.7950    6.2900   23.3090 N   0  0  0  0  0  0  0  0  0  0  0  0
   12.2860    7.4480   24.0360 C   0  0  0  0  0  0  0  0  0  0  0  0
   11.3650    5.3460   24.3320 C   0  0  0  0  0  0  0  0  0  0  0  0
   11.0050    4.1370   23.8060 C   0  0  0  0  0  0  0  0  0  0  0  0
   12.5060    0.7950   22.7740 C   0  0  0  0  0  0  0  0  0  0  0  0
   11.6940   -0.4630   22.5080 C   0  0  0  0  0  0  0  0  0  0  0  0
   10.2810   -0.3230   22.5460 C   0  0  0  0  0  0  0  0  0  0  0  0
    9.3210   -1.3070   22.2660 N   0  0  0  0  0  0  0  0  0  0  0  0
    8.4050   -0.6600   21.4370 C   0  0  0  0  0  0  0  0  0  0  0  0
    8.6100    0.4830   21.0370 O   0  0  0  0  0  0  0  0  0  0  0  0
    7.2100   -1.1260   20.9760 N   0  0  0  0  0  0  0  0  0  0  0  0
    6.4290   -0.3490   20.0790 C   0  0  0  0  0  0  0  0  0  0  0  0
    5.2160    0.2940   20.3410 C   0  0  0  0  0  0  0  0  0  0  0  0
    4.5810    1.0410   19.3420 C   0  0  0  0  0  0  0  0  0  0  0  0
    5.1790    1.1290   18.0990 C   0  0  0  0  0  0  0  0  0  0  0  0
    6.3420    0.5210   17.8140 N   0  0  0  0  0  0  0  0  0  0  0  0
    6.9290   -0.1940   18.7940 C   0  0  0  0  0  0  0  0  0  0  0  0
  1  2  1  0
  2  3  1  0
  3  4  1  0
  4  5  2  0
  5  6  1  0
  6  7  1  0
  7  8  1  0
  8  9  1  0
  9 10  1  0
 10 11  1  0
 10 12  1  0
  7 13  1  0
 12 13  1  0
  6 14  2  0
 14 15  1  0
  4 16  1  0
 15 16  2  0
 16 17  1  0
 17 18  1  0
 18 19  2  0
 18 20  1  0
 20 21  1  0
 21 22  2  0
 22 23  1  0
 23 24  2  0
 24 25  1  0
 21 26  1  0
 25 26  2  0
M  END
