pyridine_urea_4796
     RDKit          3D

 21 22  0  0  0  0  0  0  0  0999 V2000
   10.9530   -1.8660   21.6080 C   0  0  0  0  0  0  0  0  0  0  0  0
   11.5380   -1.0750   22.7740 C   0  0  0  0  0  0  0  0  0  0  0  0
   12.3200   -2.2730   22.6900 C   0  0  0  0  0  0  0  0  0  0  0  0
   12.7770   -1.4670   23.7420 C   0  0  0  0  0  0  0  0  0  0  0  0
   11.7300   -0.4640   23.4200 C   0  0  0  0  0  0  0  0  0  0  0  0
   10.9840    0.6960   23.5310 C   0  0  0  0  0  0  0  0  0  0  0  0
    9.6700    0.3010   23.7510 C   0  0  0  0  0  0  0  0  0  0  0  0
    8.9760   -0.3460   22.7060 N   0  0  0  0  0  0  0  0  0  0  0  0
    8.4670    0.2890   21.5880 C   0  0  0  0  0  0  0  0  0  0  0  0
    8.9190    1.3560   21.1450 O   0  0  0  0  0  0  0  0  0  0  0  0
    7.3820   -0.3900   21.0530 N   0  0  0  0  0  0  0  0  0  0  0  0
    6.6160    0.1550   20.0440 C   0  0  0  0  0  0  0  0  0  0  0  0
    5.4520    0.8600   20.3890 C   0  0  0  0  0  0  0  0  0  0  0  0
    4.6780    1.4390   19.3740 C   0  0  0  0  0  0  0  0  0  0  0  0
    5.1450    1.2680   17.9740 C   0  0  0  0  0  0  0  0  0  0  0  0
    6.2510    0.5830   17.6800 N   0  0  0  0  0  0  0  0  0  0  0  0
    6.9460    0.0500   18.7080 C   0  0  0  0  0  0  0  0  0  0  0  0
   12.4540   -0.0200   24.5010 C   0  0  0  0  0  0  0  0  0  0  0  0
   12.6530   -1.1420   23.8930 C   0  0  0  0  0  0  0  0  0  0  0  0
   13.6710   -2.2330   24.1990 C   0  0  0  0  0  0  0  0  0  0  0  0
   13.7960   -2.8410   25.4040 N   0  0  0  0  0  0  0  0  0  0  0  0
  1  2  1  0
  2  3  2  0
  3  4  1  0
  4  5  2  0
  5  6  1  0
  6  7  1  0
  7  8  1  0
  8  9  1  0
  9 10  2  0
  9 11  1  0
 11 12  1  0
 12 13  2  0
 13 14  1  0
 14 15  2  0
 15 16  1  0
 12 17  1  0
 16 17  2  0
  5 18  1  0
  2 19  1  0
 18 19  2  0
 19 20  1  0
 20 21  3  0
M  END
