pyridine_urea_552
     RDKit          3D

 24 26  0  0  0  0  0  0  0  0999 V2000
    9.0240    1.1450   21.2570 O   0  0  0  0  0  0  0  0  0  0  0  0
    8.5340    0.0410   21.5350 C   0  0  0  0  0  0  0  0  0  0  0  0
    9.1350   -0.8990   22.3690 N   0  0  0  0  0  0  0  0  0  0  0  0
    8.4770   -1.8060   23.2400 C   0  0  0  0  0  0  0  0  0  0  0  0
    8.6560   -3.1860   23.1480 C   0  0  0  0  0  0  0  0  0  0  0  0
    7.6570   -4.0000   23.6790 N   0  0  0  0  0  0  0  0  0  0  0  0
    7.0070   -5.1140   22.9750 C   0  0  0  0  0  0  0  0  0  0  0  0
    7.4440   -5.7250   21.9920 O   0  0  0  0  0  0  0  0  0  0  0  0
    5.7500   -5.5010   23.5610 N   0  0  0  0  0  0  0  0  0  0  0  0
    5.6370   -5.2390   24.8960 C   0  0  2  0  0  0  0  0  0  0  0  0
    4.5370   -5.8850   25.4500 C   0  0  0  0  0  0  0  0  0  0  0  0
    4.2180   -5.4160   26.8780 C   0  0  0  0  0  0  0  0  0  0  0  0
    4.9990   -4.3440   27.3140 C   0  0  0  0  0  0  0  0  0  0  0  0
    5.1310   -3.3750   26.2960 C   0  0  0  0  0  0  0  0  0  0  0  0
    5.6320   -3.8420   25.0740 C   0  0  1  0  0  0  0  0  0  0  0  0
    6.8970   -3.3310   24.6860 C   0  0  0  0  0  0  0  0  0  0  0  0
    7.2660   -2.3110   25.2510 O   0  0  0  0  0  0  0  0  0  0  0  0
    7.3220   -0.4310   21.0810 N   0  0  0  0  0  0  0  0  0  0  0  0
    6.6500    0.1180   20.0450 C   0  0  0  0  0  0  0  0  0  0  0  0
    5.5520    0.8910   20.4080 C   0  0  0  0  0  0  0  0  0  0  0  0
    4.7870    1.5240   19.4310 C   0  0  0  0  0  0  0  0  0  0  0  0
    5.0810    1.4120   18.0750 C   0  0  0  0  0  0  0  0  0  0  0  0
    6.2270    0.5930   17.6590 N   0  0  0  0  0  0  0  0  0  0  0  0
    6.9770   -0.0360   18.7280 C   0  0  0  0  0  0  0  0  0  0  0  0
  1  2  2  0
  2  3  1  0
  3  4  1  0
  4  5  1  0
  5  6  1  0
  6  7  1  0
  7  8  2  0
  7  9  1  0
  9 10  1  0
 10 11  1  6
 11 12  1  0
 12 13  1  0
 13 14  1  0
 10 15  1  0
 15 14  1  1
  6 16  1  0
 15 16  1  0
 16 17  2  0
  2 18  1  0
 18 19  1  0
 19 20  2  0
 20 21  1  0
 21 22  2  0
 22 23  1  0
 19 24  1  0
 23 24  2  0
M  END
