pyridine_urea_921
     RDKit          3D

 22 24  0  0  0  0  0  0  0  0999 V2000
    8.6970    1.3020   21.0800 O   0  0  0  0  0  0  0  0  0  0  0  0
    8.3750    0.1940   21.5270 C   0  0  0  0  0  0  0  0  0  0  0  0
    7.2160   -0.5450   21.0430 N   0  0  0  0  0  0  0  0  0  0  0  0
    6.4980    0.0790   20.0390 C   0  0  0  0  0  0  0  0  0  0  0  0
    5.3420    0.7970   20.3350 C   0  0  0  0  0  0  0  0  0  0  0  0
    4.6600    1.4250   19.2910 C   0  0  0  0  0  0  0  0  0  0  0  0
    5.1690    1.3030   17.9920 C   0  0  0  0  0  0  0  0  0  0  0  0
    6.2740    0.6070   17.7010 N   0  0  0  0  0  0  0  0  0  0  0  0
    6.9160    0.0080   18.7290 C   0  0  0  0  0  0  0  0  0  0  0  0
    9.0360   -0.4930   22.5100 N   0  0  0  0  0  0  0  0  0  0  0  0
   10.4110   -0.1030   22.7620 C   0  0  1  0  0  0  0  0  0  0  0  0
   10.7690   -0.0750   24.2660 C   0  0  0  0  0  0  0  0  0  0  0  0
   12.1460   -0.1420   24.5860 C   0  0  0  0  0  0  0  0  0  0  0  0
   12.7900   -1.0420   23.9990 O   0  0  0  0  0  0  0  0  0  0  0  0
   12.1370   -1.1610   22.8530 C   0  0  0  0  0  0  0  0  0  0  0  0
   11.8370   -0.4940   23.8470 C   0  0  0  0  0  0  0  0  0  0  0  0
   12.9060   -1.2870   23.6820 F   0  0  0  0  0  0  0  0  0  0  0  0
   12.7330   -0.7350   24.6590 C   0  0  0  0  0  0  0  0  0  0  0  0
   13.3020   -1.6170   23.5800 C   0  0  0  0  0  0  0  0  0  0  0  0
   12.5670   -1.7550   22.1900 C   0  0  0  0  0  0  0  0  0  0  0  0
   13.0720   -2.5200   21.2060 F   0  0  0  0  0  0  0  0  0  0  0  0
   11.3110   -1.0310   21.9980 C   0  0  0  0  0  0  0  0  0  0  0  0
  1  2  2  0
  2  3  1  0
  3  4  1  0
  4  5  2  0
  5  6  1  0
  6  7  2  0
  7  8  1  0
  4  9  1  0
  8  9  2  0
  2 10  1  0
 11 10  1  1
 11 12  1  0
 12 13  1  0
 13 14  1  0
 14 15  1  0
 15 16  2  0
 16 17  1  0
 16 18  1  0
 18 19  2  0
 19 20  1  0
 20 21  1  0
 11 22  1  0
 15 22  1  0
 20 22  2  0
M  END
