pyridine_urea_10886
     RDKit          3D

 20 21  0  0  0  0  0  0  0  0999 V2000
   13.2340   -2.0470   21.1500 C   0  0  0  0  0  0  0  0  0  0  0  0
   13.4360   -1.3820   22.4740 C   0  0  0  0  0  0  0  0  0  0  0  0
   13.6550   -2.1480   23.6220 C   0  0  0  0  0  0  0  0  0  0  0  0
   12.2960   -2.1390   23.8330 N   0  0  0  0  0  0  0  0  0  0  0  0
   11.5250   -3.1590   24.3290 N   0  0  0  0  0  0  0  0  0  0  0  0
   10.1690   -2.5520   24.2130 C   0  0  0  0  0  0  0  0  0  0  0  0
   10.2450   -1.2950   23.7110 C   0  0  0  0  0  0  0  0  0  0  0  0
    9.2390   -0.3220   23.3940 C   0  0  0  0  0  0  0  0  0  0  0  0
    8.7620   -0.5900   22.2140 N   0  0  0  0  0  0  0  0  0  0  0  0
    8.1860    0.3350   21.3450 C   0  0  0  0  0  0  0  0  0  0  0  0
    8.6970    1.3980   20.9900 O   0  0  0  0  0  0  0  0  0  0  0  0
    7.0270   -0.1390   21.0010 N   0  0  0  0  0  0  0  0  0  0  0  0
    6.3820    0.3870   19.9220 C   0  0  0  0  0  0  0  0  0  0  0  0
    5.2610    1.1290   20.1060 C   0  0  0  0  0  0  0  0  0  0  0  0
    4.6110    1.6950   19.0470 C   0  0  0  0  0  0  0  0  0  0  0  0
    5.1050    1.5070   17.7660 C   0  0  0  0  0  0  0  0  0  0  0  0
    6.1970    0.7730   17.5010 N   0  0  0  0  0  0  0  0  0  0  0  0
    6.8000    0.2340   18.6370 C   0  0  0  0  0  0  0  0  0  0  0  0
   11.6660   -1.0150   23.4780 C   0  0  0  0  0  0  0  0  0  0  0  0
   12.2400    0.1720   22.9740 C   0  0  0  0  0  0  0  0  0  0  0  0
  1  2  1  0
  2  3  1  0
  3  4  1  0
  4  5  1  0
  5  6  2  0
  6  7  1  0
  7  8  1  0
  8  9  1  0
  9 10  1  0
 10 11  2  0
 10 12  1  0
 12 13  1  0
 13 14  2  0
 14 15  1  0
 15 16  2  0
 16 17  1  0
 13 18  1  0
 17 18  2  0
  4 19  1  0
  7 19  2  0
 19 20  1  0
M  END
