pyridine_urea_12781
     RDKit          3D

 20 21  0  0  0  0  0  0  0  0999 V2000
   13.7840   -2.5590   25.2290 C   0  0  0  0  0  0  0  0  0  0  0  0
   13.3800   -1.2540   24.8510 O   0  0  0  0  0  0  0  0  0  0  0  0
   12.2740   -1.2760   24.0930 C   0  0  0  0  0  0  0  0  0  0  0  0
   10.9450   -1.3220   24.7550 C   0  0  0  0  0  0  0  0  0  0  0  0
    9.8250   -1.3570   24.0260 C   0  0  0  0  0  0  0  0  0  0  0  0
    9.8830   -1.3670   22.6690 C   0  0  0  0  0  0  0  0  0  0  0  0
    8.6240   -1.4260   22.0220 N   0  0  0  0  0  0  0  0  0  0  0  0
    8.1520   -0.3010   21.4360 C   0  0  0  0  0  0  0  0  0  0  0  0
    8.7970    0.7350   21.3110 O   0  0  0  0  0  0  0  0  0  0  0  0
    6.8800   -0.5500   21.0310 N   0  0  0  0  0  0  0  0  0  0  0  0
    6.2700    0.1280   20.0000 C   0  0  0  0  0  0  0  0  0  0  0  0
    5.1010    0.8760   20.0810 C   0  0  0  0  0  0  0  0  0  0  0  0
    4.5560    1.5430   19.0130 C   0  0  0  0  0  0  0  0  0  0  0  0
    5.1650    1.4970   17.7760 C   0  0  0  0  0  0  0  0  0  0  0  0
    6.3190    0.7590   17.6560 N   0  0  0  0  0  0  0  0  0  0  0  0
    6.8660    0.0810   18.7480 C   0  0  0  0  0  0  0  0  0  0  0  0
   11.1070   -1.3350   22.0310 C   0  0  0  0  0  0  0  0  0  0  0  0
   12.2770   -1.2840   22.7330 C   0  0  0  0  0  0  0  0  0  0  0  0
   13.4130   -1.2660   21.9840 C   0  0  0  0  0  0  0  0  0  0  0  0
   13.1820   -2.0680   20.8400 O   0  0  0  0  0  0  0  0  0  0  0  0
  1  2  1  0
  2  3  1  0
  3  4  2  0
  4  5  1  0
  5  6  2  0
  6  7  1  0
  7  8  1  0
  8  9  2  0
  8 10  1  0
 10 11  1  0
 11 12  2  0
 12 13  1  0
 13 14  2  0
 14 15  1  0
 11 16  1  0
 15 16  2  0
  6 17  1  0
  3 18  1  0
 17 18  2  0
 18 19  1  0
 19 20  1  0
M  END
