pyridine_urea_9206
     RDKit          3D

 18 19  0  0  0  0  0  0  0  0999 V2000
   12.9920   -2.8100   24.8420 C   0  0  0  0  0  0  0  0  0  0  0  0
   13.0520   -2.4470   23.3920 C   0  0  0  0  0  0  0  0  0  0  0  0
   12.4950   -1.1430   23.1950 N   0  0  0  0  0  0  0  0  0  0  0  0
   13.4160    0.0040   23.0750 N   0  0  0  0  0  0  0  0  0  0  0  0
   12.7150    1.3740   22.8850 C   0  0  0  0  0  0  0  0  0  0  0  0
   12.2180    0.2660   23.0040 C   0  0  0  0  0  0  0  0  0  0  0  0
   11.2930   -0.5560   23.0760 C   0  0  0  0  0  0  0  0  0  0  0  0
    9.9470   -0.9080   23.0800 C   0  0  0  0  0  0  0  0  0  0  0  0
    9.3480   -0.9350   21.8370 N   0  0  0  0  0  0  0  0  0  0  0  0
    8.3660    0.0030   21.3010 C   0  0  0  0  0  0  0  0  0  0  0  0
    8.6430    1.1860   21.0550 O   0  0  0  0  0  0  0  0  0  0  0  0
    7.1590   -0.6380   21.1340 N   0  0  0  0  0  0  0  0  0  0  0  0
    6.4530    0.0430   20.1230 C   0  0  0  0  0  0  0  0  0  0  0  0
    5.2910    0.7640   20.3180 C   0  0  0  0  0  0  0  0  0  0  0  0
    4.6750    1.4080   19.2390 C   0  0  0  0  0  0  0  0  0  0  0  0
    5.2540    1.3080   17.9840 C   0  0  0  0  0  0  0  0  0  0  0  0
    6.3820    0.6120   17.7610 N   0  0  0  0  0  0  0  0  0  0  0  0
    6.9370    0.0040   18.8280 C   0  0  0  0  0  0  0  0  0  0  0  0
  1  2  1  0
  2  3  1  0
  3  4  1  0
  4  5  2  0
  5  6  1  0
  3  7  1  0
  6  7  2  0
  7  8  1  0
  8  9  1  0
  9 10  1  0
 10 11  2  0
 10 12  1  0
 12 13  1  0
 13 14  2  0
 14 15  1  0
 15 16  2  0
 16 17  1  0
 13 18  1  0
 17 18  2  0
M  END
