pyridine_urea_3808
     RDKit          3D

 19 21  0  0  0  0  0  0  0  0999 V2000
    8.7630    0.8900   21.4220 O   0  0  0  0  0  0  0  0  0  0  0  0
    8.4560   -0.2940   21.4120 C   0  0  0  0  0  0  0  0  0  0  0  0
    7.1750   -0.7410   21.1340 N   0  0  0  0  0  0  0  0  0  0  0  0
    6.4960   -0.0400   20.0700 C   0  0  0  0  0  0  0  0  0  0  0  0
    5.2230    0.7260   20.4160 C   0  0  0  0  0  0  0  0  0  0  0  0
    4.5210    1.4750   19.2810 C   0  0  0  0  0  0  0  0  0  0  0  0
    5.1890    1.3720   17.9100 C   0  0  0  0  0  0  0  0  0  0  0  0
    6.3570    0.6190   17.7570 N   0  0  0  0  0  0  0  0  0  0  0  0
    6.9700   -0.0490   18.7790 C   0  0  0  0  0  0  0  0  0  0  0  0
    9.3430   -1.3260   21.6460 N   0  0  0  0  0  0  0  0  0  0  0  0
   10.4060   -1.1690   22.5730 C   0  0  1  0  0  0  0  0  0  0  0  0
   11.6210   -1.7130   22.2540 C   0  0  0  0  0  0  0  0  0  0  0  0
   12.3210   -0.5620   22.5410 C   0  0  2  0  0  0  0  0  0  0  0  0
   12.8560   -0.6460   23.8040 C   0  0  0  0  0  0  0  0  0  0  0  0
   11.8360   -0.1900   24.6100 C   0  0  1  0  0  0  0  0  0  0  0  0
   11.2750    1.0620   24.2700 C   0  0  0  0  0  0  0  0  0  0  0  0
   10.7390    1.0370   23.1780 O   0  0  0  0  0  0  0  0  0  0  0  0
   10.5520    0.0040   23.9250 C   0  0  0  0  0  0  0  0  0  0  0  0
   11.0990    0.2100   22.6920 C   0  0  2  0  0  0  0  0  0  0  0  0
  1  2  2  0
  2  3  1  0
  3  4  1  0
  4  5  2  0
  5  6  1  0
  6  7  2  0
  7  8  1  0
  4  9  1  0
  8  9  2  0
  2 10  1  0
 11 10  1  6
 11 12  1  0
 13 12  1  1
 13 14  1  0
 14 15  1  0
 15 16  1  6
 16 17  1  0
 15 18  1  0
 11 19  1  0
 13 19  1  0
 19 18  1  1
M  END
