pyridine_urea_407
     RDKit          3D

 28 30  0  0  0  0  0  0  0  0999 V2000
    9.2930   -3.0700   24.0150 N   0  0  0  0  0  0  0  0  0  0  0  0
   10.5390   -2.7970   23.5160 C   0  0  0  0  0  0  0  0  0  0  0  0
   10.7190   -2.8240   22.3090 O   0  0  0  0  0  0  0  0  0  0  0  0
   11.6640   -2.4130   24.4920 C   0  0  0  0  0  0  0  0  0  0  0  0
   12.5500   -1.3890   23.9490 N   0  0  0  0  0  0  0  0  0  0  0  0
   12.7000   -1.5420   22.5870 C   0  0  0  0  0  0  0  0  0  0  0  0
   13.4350   -2.5370   22.2300 C   0  0  0  0  0  0  0  0  0  0  0  0
   14.2050   -3.3680   23.0090 C   0  0  0  0  0  0  0  0  0  0  0  0
   15.1190   -4.5310   22.2070 C   0  0  0  0  0  0  0  0  0  0  0  0
   15.0650   -4.6810   20.6910 C   0  0  0  0  0  0  0  0  0  0  0  0
   14.1390   -3.6610   20.2470 C   0  0  0  0  0  0  0  0  0  0  0  0
   13.3980   -2.6860   20.9160 C   0  0  0  0  0  0  0  0  0  0  0  0
   11.8070   -0.3030   23.7610 C   0  0  0  0  0  0  0  0  0  0  0  0
   12.1730    0.9920   23.8610 C   0  0  0  0  0  0  0  0  0  0  0  0
   11.1950    2.0490   23.6130 C   0  0  0  0  0  0  0  0  0  0  0  0
    9.9060    1.6590   23.2600 C   0  0  0  0  0  0  0  0  0  0  0  0
    9.5920    0.3130   23.1520 C   0  0  0  0  0  0  0  0  0  0  0  0
    8.4110   -0.1660   22.8020 N   0  0  0  0  0  0  0  0  0  0  0  0
    8.1260    0.2940   21.5870 C   0  0  0  0  0  0  0  0  0  0  0  0
    8.7950    1.4220   21.0120 O   0  0  0  0  0  0  0  0  0  0  0  0
    7.1180   -0.4210   20.9940 N   0  0  0  0  0  0  0  0  0  0  0  0
    6.3640    0.1850   20.0030 C   0  0  0  0  0  0  0  0  0  0  0  0
    5.1590    0.8450   20.2030 C   0  0  0  0  0  0  0  0  0  0  0  0
    4.5450    1.4260   19.1130 C   0  0  0  0  0  0  0  0  0  0  0  0
    5.1540    1.3290   17.8650 C   0  0  0  0  0  0  0  0  0  0  0  0
    6.3060    0.6860   17.6560 N   0  0  0  0  0  0  0  0  0  0  0  0
    6.8760    0.1320   18.7270 C   0  0  0  0  0  0  0  0  0  0  0  0
   10.5320   -0.6200   23.4030 C   0  0  0  0  0  0  0  0  0  0  0  0
  1  2  1  0
  2  3  2  0
  2  4  1  0
  4  5  1  0
  5  6  1  0
  6  7  1  0
  7  8  2  0
  8  9  1  0
  9 10  2  0
 10 11  1  0
  7 12  1  0
 11 12  2  0
  5 13  1  0
 13 14  2  0
 14 15  1  0
 15 16  2  0
 16 17  1  0
 17 18  1  0
 18 19  1  0
 19 20  2  0
 19 21  1  0
 21 22  1  0
 22 23  2  0
 23 24  1  0
 24 25  2  0
 25 26  1  0
 22 27  1  0
 26 27  2  0
 13 28  1  0
 17 28  2  0
M  END
