pyridine_urea_1267
     RDKit          3D

 20 20  0  0  0  0  0  0  0  0999 V2000
   12.4920    3.2760   22.6860 C   0  0  0  0  0  0  0  0  0  0  0  0
   11.7240    1.9380   22.8430 C   0  0  0  0  0  0  0  0  0  0  0  0
   10.2250    2.2880   22.6810 C   0  0  0  0  0  0  0  0  0  0  0  0
   11.9270    1.3350   24.1320 N   0  0  0  0  0  0  0  0  0  0  0  0
   12.2680   -0.2940   24.3430 S   0  0  0  0  0  0  0  0  0  0  0  0
   12.5130   -0.8580   23.0360 O   0  0  0  0  0  0  0  0  0  0  0  0
   13.1320   -0.5450   25.4570 O   0  0  0  0  0  0  0  0  0  0  0  0
   10.7660   -0.7440   24.8200 N   0  0  0  0  0  0  0  0  0  0  0  0
    9.8530   -0.7040   23.8430 C   0  0  0  0  0  0  0  0  0  0  0  0
   10.0220   -1.2660   22.6020 C   0  0  0  0  0  0  0  0  0  0  0  0
    8.8240   -1.4650   22.0080 N   0  0  0  0  0  0  0  0  0  0  0  0
    8.1580   -0.3560   21.3920 C   0  0  0  0  0  0  0  0  0  0  0  0
    8.6840    0.7330   21.2460 O   0  0  0  0  0  0  0  0  0  0  0  0
    6.8980   -0.6800   20.9920 N   0  0  0  0  0  0  0  0  0  0  0  0
    6.3130   -0.0030   19.9660 C   0  0  0  0  0  0  0  0  0  0  0  0
    5.1250    0.6930   20.1960 C   0  0  0  0  0  0  0  0  0  0  0  0
    4.5360    1.3960   19.1570 C   0  0  0  0  0  0  0  0  0  0  0  0
    5.1530    1.3870   17.9100 C   0  0  0  0  0  0  0  0  0  0  0  0
    6.3200    0.6990   17.6720 N   0  0  0  0  0  0  0  0  0  0  0  0
    6.8560    0.0300   18.6990 C   0  0  0  0  0  0  0  0  0  0  0  0
  1  2  1  0
  2  3  1  0
  2  4  1  0
  5  4  1  0
  5  6  2  0
  5  7  2  0
  5  8  1  0
  8  9  1  0
  9 10  1  0
 10 11  1  0
 11 12  1  0
 12 13  2  0
 12 14  1  0
 14 15  1  0
 15 16  2  0
 16 17  1  0
 17 18  2  0
 18 19  1  0
 15 20  1  0
 19 20  2  0
M  END
