pyridine_urea_11948
     RDKit          3D

 24 25  0  0  0  0  0  0  0  0999 V2000
    8.7650    0.5290   21.1300 O   0  0  0  0  0  0  0  0  0  0  0  0
    8.2880   -0.5420   21.4080 C   0  0  0  0  0  0  0  0  0  0  0  0
    8.8810   -1.5040   22.1800 N   0  0  0  0  0  0  0  0  0  0  0  0
    9.7520   -1.2590   23.2550 C   0  0  0  0  0  0  0  0  0  0  0  0
   10.7780   -0.3330   23.0790 C   0  0  0  0  0  0  0  0  0  0  0  0
   10.5540    0.7630   22.2680 N   0  0  0  0  0  0  0  0  0  0  0  0
    9.5260    2.0550   22.7420 S   0  0  0  0  0  0  0  0  0  0  0  0
    8.7220    2.3760   21.5680 O   0  0  0  0  0  0  0  0  0  0  0  0
    8.9320    1.9090   24.0460 O   0  0  0  0  0  0  0  0  0  0  0  0
   10.6370    3.4400   22.7860 C   0  0  0  0  0  0  0  0  0  0  0  0
   10.1460    4.7480   22.7320 C   0  0  0  0  0  0  0  0  0  0  0  0
   10.9160    5.9180   22.7310 C   0  0  0  0  0  0  0  0  0  0  0  0
   12.2790    5.7240   22.7890 C   0  0  0  0  0  0  0  0  0  0  0  0
   13.1140    6.7750   22.7820 F   0  0  0  0  0  0  0  0  0  0  0  0
   12.8430    4.3160   22.8620 C   0  0  0  0  0  0  0  0  0  0  0  0
   12.0190    3.1760   22.8650 C   0  0  0  0  0  0  0  0  0  0  0  0
   12.6720    1.5880   22.9600 Cl  0  0  0  0  0  0  0  0  0  0  0  0
    7.0430   -0.9070   20.9510 N   0  0  0  0  0  0  0  0  0  0  0  0
    6.3790   -0.1650   20.0270 C   0  0  0  0  0  0  0  0  0  0  0  0
    5.1830    0.5540   20.2260 C   0  0  0  0  0  0  0  0  0  0  0  0
    4.5930    1.2990   19.1860 C   0  0  0  0  0  0  0  0  0  0  0  0
    5.2040    1.3290   17.9340 C   0  0  0  0  0  0  0  0  0  0  0  0
    6.3460    0.6250   17.7800 N   0  0  0  0  0  0  0  0  0  0  0  0
    6.9250   -0.0990   18.7620 C   0  0  0  0  0  0  0  0  0  0  0  0
  1  2  2  0
  2  3  1  0
  3  4  1  0
  4  5  1  0
  5  6  1  0
  7  6  1  0
  7  8  2  0
  7  9  2  0
  7 10  1  0
 10 11  2  0
 11 12  1  0
 12 13  2  0
 13 14  1  0
 13 15  1  0
 10 16  1  0
 15 16  2  0
 16 17  1  0
  2 18  1  0
 18 19  1  0
 19 20  2  0
 20 21  1  0
 21 22  2  0
 22 23  1  0
 19 24  1  0
 23 24  2  0
M  END
