pyridine_urea_7752
     RDKit          3D

 27 30  0  0  0  0  0  0  0  0999 V2000
    9.5450    1.8000   20.8910 O   0  0  0  0  0  0  0  0  0  0  0  0
    9.0460    2.2750   21.7520 C   0  0  0  0  0  0  0  0  0  0  0  0
    9.7100    3.3220   22.5870 N   0  0  0  0  0  0  0  0  0  0  0  0
   11.1990    3.7770   22.9160 C   0  0  0  0  0  0  0  0  0  0  0  0
   12.3710    3.3560   22.3510 C   0  0  0  0  0  0  0  0  0  0  0  0
   13.7840    3.6770   22.7360 C   0  0  0  0  0  0  0  0  0  0  0  0
   14.3790    4.5970   23.8730 C   0  0  0  0  0  0  0  0  0  0  0  0
   16.5500    4.5420   24.4590 C   0  0  0  0  0  0  0  0  0  0  0  0
   18.0430    5.1760   24.1800 N   0  0  0  0  0  0  0  0  0  0  0  0
   19.4160    4.9340   24.5530 C   0  0  0  0  0  0  0  0  0  0  0  0
   20.7770    5.5720   24.2770 C   0  0  0  0  0  0  0  0  0  0  0  0
   21.8470    4.9580   24.9440 C   0  0  0  0  0  0  0  0  0  0  0  0
   23.0840    5.4890   24.7290 F   0  0  0  0  0  0  0  0  0  0  0  0
   21.5930    3.8550   25.7920 C   0  0  0  0  0  0  0  0  0  0  0  0
   22.6600    3.3020   26.4360 F   0  0  0  0  0  0  0  0  0  0  0  0
   20.3150    3.2800   26.0340 C   0  0  0  0  0  0  0  0  0  0  0  0
   19.2020    3.8200   25.3850 C   0  0  0  0  0  0  0  0  0  0  0  0
   17.5680    3.6720   25.2550 N   0  0  0  0  0  0  0  0  0  0  0  0
   12.9930    5.1580   24.3390 C   0  0  0  0  0  0  0  0  0  0  0  0
   11.5890    4.7410   23.8940 C   0  0  0  0  0  0  0  0  0  0  0  0
    7.6890    1.7770   21.8360 N   0  0  0  0  0  0  0  0  0  0  0  0
    6.8970    1.3970   20.6260 C   0  0  0  0  0  0  0  0  0  0  0  0
    5.7290    2.1260   20.3690 C   0  0  0  0  0  0  0  0  0  0  0  0
    4.9280    1.8680   19.2450 C   0  0  0  0  0  0  0  0  0  0  0  0
    5.2940    0.8710   18.3540 C   0  0  0  0  0  0  0  0  0  0  0  0
    6.3890    0.1240   18.5320 N   0  0  0  0  0  0  0  0  0  0  0  0
    7.1540    0.3870   19.6540 C   0  0  0  0  0  0  0  0  0  0  0  0
  1  2  2  0
  2  3  1  0
  3  4  1  0
  4  5  2  0
  5  6  1  0
  6  7  2  0
  7  8  1  0
  8  9  2  0
  9 10  1  0
 10 11  2  0
 11 12  1  0
 12 13  1  0
 12 14  2  0
 14 15  1  0
 14 16  1  0
 10 17  1  0
 16 17  2  0
  8 18  1  0
 17 18  1  0
  7 19  1  0
  4 20  1  0
 19 20  2  0
  2 21  1  0
 21 22  1  0
 22 23  2  0
 23 24  1  0
 24 25  2  0
 25 26  1  0
 22 27  1  0
 26 27  2  0
M  END
