pyridine_urea_15266
     RDKit          3D

 17 17  0  0  0  0  0  0  0  0999 V2000
    7.7430   -3.8840   23.4620 C   0  0  0  0  0  0  0  0  0  0  0  0
    8.8910   -3.4860   22.7270 O   0  0  0  0  0  0  0  0  0  0  0  0
    9.7790   -2.6630   23.4840 C   0  0  0  0  0  0  0  0  0  0  0  0
   10.3460   -1.5200   22.6630 C   0  0  2  0  0  0  0  0  0  0  0  0
   11.5990   -1.9110   21.9070 C   0  0  0  0  0  0  0  0  0  0  0  0
   10.8080   -0.4940   23.6670 C   0  0  0  0  0  0  0  0  0  0  0  0
   11.2340   -1.0920   24.6450 O   0  0  0  0  0  0  0  0  0  0  0  0
    9.4400   -0.8590   21.9160 N   0  0  0  0  0  0  0  0  0  0  0  0
    8.5830    0.1040   21.4080 C   0  0  0  0  0  0  0  0  0  0  0  0
    8.9910    1.2640   21.2280 O   0  0  0  0  0  0  0  0  0  0  0  0
    7.3150   -0.3430   21.1230 N   0  0  0  0  0  0  0  0  0  0  0  0
    6.5660    0.1830   20.0620 C   0  0  0  0  0  0  0  0  0  0  0  0
    5.3960    0.9000   20.3310 C   0  0  0  0  0  0  0  0  0  0  0  0
    4.6630    1.4500   19.2810 C   0  0  0  0  0  0  0  0  0  0  0  0
    5.1350    1.2570   18.0020 C   0  0  0  0  0  0  0  0  0  0  0  0
    6.2420    0.5680   17.7180 N   0  0  0  0  0  0  0  0  0  0  0  0
    6.9310    0.0460   18.7480 C   0  0  0  0  0  0  0  0  0  0  0  0
  1  2  1  0
  2  3  1  0
  3  4  1  0
  4  5  1  6
  4  6  1  0
  6  7  1  0
  4  8  1  0
  8  9  1  0
  9 10  2  0
  9 11  1  0
 11 12  1  0
 12 13  2  0
 13 14  1  0
 14 15  2  0
 15 16  1  0
 12 17  1  0
 16 17  2  0
M  END
