pyridine_urea_14189
     RDKit          3D

 22 23  0  0  0  0  0  0  0  0999 V2000
   13.7780   -2.5160   25.3860 C   0  0  0  0  0  0  0  0  0  0  0  0
   13.4070   -1.1530   25.1460 O   0  0  0  0  0  0  0  0  0  0  0  0
   12.2950   -1.0800   24.4120 C   0  0  0  0  0  0  0  0  0  0  0  0
   12.8440   -1.4120   23.4560 C   0  0  0  0  0  0  0  0  0  0  0  0
   11.6720   -1.3630   22.7460 C   0  0  0  0  0  0  0  0  0  0  0  0
   12.9460   -1.8790   21.7040 Cl  0  0  0  0  0  0  0  0  0  0  0  0
   11.1510   -1.5560   21.6100 C   0  0  0  0  0  0  0  0  0  0  0  0
   12.4540   -1.8290   21.5390 C   0  0  0  0  0  0  0  0  0  0  0  0
   11.6810   -1.2860   23.0390 C   0  0  0  0  0  0  0  0  0  0  0  0
   10.1600   -1.0250   22.9020 C   0  0  2  0  0  0  0  0  0  0  0  0
    9.4950   -2.2070   23.0230 C   0  0  0  0  0  0  0  0  0  0  0  0
    9.2750   -2.5150   24.1880 O   0  0  0  0  0  0  0  0  0  0  0  0
    9.6680   -0.6560   21.5840 N   0  0  0  0  0  0  0  0  0  0  0  0
    8.6150    0.2230   21.4140 C   0  0  0  0  0  0  0  0  0  0  0  0
    8.7130    1.4280   21.5810 O   0  0  0  0  0  0  0  0  0  0  0  0
    7.4470   -0.4070   21.0020 N   0  0  0  0  0  0  0  0  0  0  0  0
    6.5970    0.1580   20.0770 C   0  0  0  0  0  0  0  0  0  0  0  0
    5.4290    0.8530   20.3840 C   0  0  0  0  0  0  0  0  0  0  0  0
    4.6910    1.3840   19.3440 C   0  0  0  0  0  0  0  0  0  0  0  0
    5.1440    1.2000   18.0580 C   0  0  0  0  0  0  0  0  0  0  0  0
    6.2450    0.5370   17.7150 N   0  0  0  0  0  0  0  0  0  0  0  0
    6.9450    0.0280   18.7410 C   0  0  0  0  0  0  0  0  0  0  0  0
  1  2  1  0
  2  3  1  0
  3  4  2  0
  4  5  1  0
  5  6  1  0
  5  7  2  0
  7  8  1  0
  3  9  1  0
  8  9  2  0
  9 10  1  0
 10 11  1  6
 11 12  1  0
 10 13  1  0
 13 14  1  0
 14 15  2  0
 14 16  1  0
 16 17  1  0
 17 18  2  0
 18 19  1  0
 19 20  2  0
 20 21  1  0
 17 22  1  0
 21 22  2  0
M  END
