pyridine_urea_3811
     RDKit          3D

 22 23  0  0  0  0  0  0  0  0999 V2000
   13.4390    0.0520   22.2800 C   0  0  0  0  0  0  0  0  0  0  0  0
   12.9400   -0.8190   23.2140 O   0  0  0  0  0  0  0  0  0  0  0  0
   12.1680   -1.8120   22.5430 C   0  0  0  0  0  0  0  0  0  0  0  0
   12.5350   -2.4840   21.5870 O   0  0  0  0  0  0  0  0  0  0  0  0
   10.8100   -1.8820   23.2450 C   0  0  0  0  0  0  0  0  0  0  0  0
   10.8430   -1.3360   21.7330 S   0  0  0  0  0  0  0  0  0  0  0  0
    9.2630   -1.1020   21.7660 C   0  0  0  0  0  0  0  0  0  0  0  0
    8.5260   -0.6380   20.7460 N   0  0  0  0  0  0  0  0  0  0  0  0
    7.9740    0.5230   21.0220 C   0  0  0  0  0  0  0  0  0  0  0  0
    8.5980    1.5780   21.1220 O   0  0  0  0  0  0  0  0  0  0  0  0
    6.6350    0.2580   21.1190 N   0  0  0  0  0  0  0  0  0  0  0  0
    6.0020    0.6970   20.0400 C   0  0  0  0  0  0  0  0  0  0  0  0
    4.6820    1.4250   20.0510 C   0  0  0  0  0  0  0  0  0  0  0  0
    4.3350    1.7880   18.7790 C   0  0  0  0  0  0  0  0  0  0  0  0
    5.0950    1.5110   17.6680 C   0  0  0  0  0  0  0  0  0  0  0  0
    6.2520    0.8490   17.6510 N   0  0  0  0  0  0  0  0  0  0  0  0
    6.6770    0.4550   18.8500 C   0  0  0  0  0  0  0  0  0  0  0  0
    8.3300   -1.3190   22.8120 C   0  0  0  0  0  0  0  0  0  0  0  0
    9.2770   -1.8010   23.6440 C   0  0  0  0  0  0  0  0  0  0  0  0
    9.3280   -2.3650   24.9920 C   0  0  0  0  0  0  0  0  0  0  0  0
    9.0540   -1.4100   25.9730 C   0  0  0  0  0  0  0  0  0  0  0  0
    8.1700   -3.3570   25.0700 C   0  0  0  0  0  0  0  0  0  0  0  0
  1  2  1  0
  2  3  1  0
  3  4  2  0
  3  5  1  0
  5  6  1  0
  6  7  1  0
  7  8  1  0
  8  9  1  0
  9 10  2  0
  9 11  1  0
 11 12  1  0
 12 13  2  0
 13 14  1  0
 14 15  2  0
 15 16  1  0
 12 17  1  0
 16 17  2  0
  7 18  2  0
  5 19  2  0
 18 19  1  0
 19 20  1  0
 20 21  1  0
 20 22  1  0
M  END
