pyridine_urea_1217
     RDKit          3D

 21 22  0  0  0  0  0  0  0  0999 V2000
   13.3940   -2.3540   23.5700 C   0  0  0  0  0  0  0  0  0  0  0  0
   13.3420   -1.4730   22.3030 C   0  0  0  0  0  0  0  0  0  0  0  0
   13.1580   -2.0760   20.9400 C   0  0  0  0  0  0  0  0  0  0  0  0
   13.4740    0.0390   22.4650 C   0  0  0  0  0  0  0  0  0  0  0  0
   13.4260    0.1200   23.5780 O   0  0  0  0  0  0  0  0  0  0  0  0
   12.2190   -0.1990   23.8750 C   0  0  0  0  0  0  0  0  0  0  0  0
   11.8110   -0.2940   25.1110 C   0  0  0  0  0  0  0  0  0  0  0  0
   10.5130   -0.5820   25.4080 C   0  0  0  0  0  0  0  0  0  0  0  0
    9.5970   -0.8180   24.4010 C   0  0  0  0  0  0  0  0  0  0  0  0
   10.0210   -0.7580   23.1120 C   0  0  0  0  0  0  0  0  0  0  0  0
    9.0520   -1.0320   22.0880 N   0  0  0  0  0  0  0  0  0  0  0  0
    8.4210   -0.0120   21.4290 C   0  0  0  0  0  0  0  0  0  0  0  0
    8.9830    1.2320   21.1880 O   0  0  0  0  0  0  0  0  0  0  0  0
    7.1720   -0.4260   21.0610 N   0  0  0  0  0  0  0  0  0  0  0  0
    6.4980    0.1510   19.9950 C   0  0  0  0  0  0  0  0  0  0  0  0
    5.2430    0.9210   20.2280 C   0  0  0  0  0  0  0  0  0  0  0  0
    4.5500    1.5290   19.2090 C   0  0  0  0  0  0  0  0  0  0  0  0
    5.1380    1.3540   17.9230 C   0  0  0  0  0  0  0  0  0  0  0  0
    6.2630    0.6560   17.6780 N   0  0  0  0  0  0  0  0  0  0  0  0
    6.9190    0.0700   18.6980 C   0  0  0  0  0  0  0  0  0  0  0  0
   11.3250   -0.4450   22.8310 C   0  0  0  0  0  0  0  0  0  0  0  0
  1  2  2  3
  2  3  1  0
  2  4  1  0
  4  5  1  0
  5  6  1  0
  6  7  2  0
  7  8  1  0
  8  9  2  0
  9 10  1  0
 10 11  1  0
 11 12  1  0
 12 13  2  0
 12 14  1  0
 14 15  1  0
 15 16  2  0
 16 17  1  0
 17 18  2  0
 18 19  1  0
 15 20  1  0
 19 20  2  0
  6 21  1  0
 10 21  2  0
M  END
