pyridine_urea_12299
     RDKit          3D

 22 22  0  0  0  0  0  0  0  0999 V2000
    8.8100    1.1460   21.1570 O   0  0  0  0  0  0  0  0  0  0  0  0
    8.2440    0.1020   21.5180 C   0  0  0  0  0  0  0  0  0  0  0  0
    8.6300   -0.6380   22.5970 N   0  0  0  0  0  0  0  0  0  0  0  0
    9.9340   -0.3870   23.1470 C   0  0  0  0  0  0  0  0  0  0  0  0
   10.2160    1.1270   23.4130 C   0  0  0  0  0  0  0  0  0  0  0  0
   11.4560    1.4860   23.9020 C   0  0  0  0  0  0  0  0  0  0  0  0
   12.5990    1.5330   22.8950 C   0  0  0  0  0  0  0  0  0  0  0  0
   12.9990    0.2300   22.6210 C   0  0  0  0  0  0  0  0  0  0  0  0
   11.9780   -0.7780   23.0230 C   0  0  0  0  0  0  0  0  0  0  0  0
   11.9360   -0.8430   24.5380 C   0  0  0  0  0  0  0  0  0  0  0  0
   13.2100   -1.5980   24.7120 C   0  0  0  0  0  0  0  0  0  0  0  0
   12.8700   -2.9700   24.2830 C   0  0  0  0  0  0  0  0  0  0  0  0
   11.3860   -3.1090   24.5630 C   0  0  0  0  0  0  0  0  0  0  0  0
   10.4830   -2.8870   23.3560 C   0  0  0  0  0  0  0  0  0  0  0  0
    9.4210   -3.5090   23.3170 O   0  0  0  0  0  0  0  0  0  0  0  0
    7.1550   -0.4880   20.9520 N   0  0  0  0  0  0  0  0  0  0  0  0
    6.3650    0.1810   19.9460 C   0  0  0  0  0  0  0  0  0  0  0  0
    5.1700    0.8600   20.1670 C   0  0  0  0  0  0  0  0  0  0  0  0
    4.5380    1.4770   19.0940 C   0  0  0  0  0  0  0  0  0  0  0  0
    5.1330    1.3810   17.8550 C   0  0  0  0  0  0  0  0  0  0  0  0
    6.2760    0.7200   17.6280 N   0  0  0  0  0  0  0  0  0  0  0  0
    6.8570    0.1400   18.6740 C   0  0  0  0  0  0  0  0  0  0  0  0
  1  2  2  0
  2  3  1  0
  3  4  1  0
  4  5  1  0
  5  6  1  0
  6  7  1  0
  7  8  1  0
  8  9  1  0
  9 10  1  0
 10 11  1  0
 11 12  1  0
 12 13  1  0
 13 14  1  0
 14 15  1  0
  2 16  1  0
 16 17  1  0
 17 18  2  0
 18 19  1  0
 19 20  2  0
 20 21  1  0
 17 22  1  0
 21 22  2  0
M  END
