pyridine_urea_6914
     RDKit          3D

 21 22  0  0  0  0  0  0  0  0999 V2000
   11.8870    5.4320   22.8860 C   0  0  0  0  0  0  0  0  0  0  0  0
   10.9690    4.5030   22.3960 N   0  0  0  0  0  0  0  0  0  0  0  0
   10.4040    3.4120   23.1080 C   0  0  0  0  0  0  0  0  0  0  0  0
    9.3900    3.5850   24.0970 O   0  0  0  0  0  0  0  0  0  0  0  0
   10.7840    2.0700   22.9220 C   0  0  0  0  0  0  0  0  0  0  0  0
    9.8400    1.0820   22.8590 C   0  0  0  0  0  0  0  0  0  0  0  0
   10.1880   -0.2280   22.6590 C   0  0  0  0  0  0  0  0  0  0  0  0
    9.1780   -1.1040   22.5370 N   0  0  0  0  0  0  0  0  0  0  0  0
    8.3860   -0.4380   21.6310 C   0  0  0  0  0  0  0  0  0  0  0  0
    8.7810    0.6200   21.1530 O   0  0  0  0  0  0  0  0  0  0  0  0
    7.0810   -0.9660   21.2470 N   0  0  0  0  0  0  0  0  0  0  0  0
    6.4750   -0.2750   20.1590 C   0  0  0  0  0  0  0  0  0  0  0  0
    5.2890    0.4480   20.3460 C   0  0  0  0  0  0  0  0  0  0  0  0
    4.6240    1.1790   19.3410 C   0  0  0  0  0  0  0  0  0  0  0  0
    5.1720    1.1980   18.0620 C   0  0  0  0  0  0  0  0  0  0  0  0
    6.3500    0.4790   17.8630 N   0  0  0  0  0  0  0  0  0  0  0  0
    6.9710   -0.2280   18.8630 C   0  0  0  0  0  0  0  0  0  0  0  0
   11.5610   -0.5410   22.5650 C   0  0  0  0  0  0  0  0  0  0  0  0
   12.5620    0.4580   22.6360 C   0  0  0  0  0  0  0  0  0  0  0  0
   12.1190    1.7940   22.7970 C   0  0  0  0  0  0  0  0  0  0  0  0
   13.0830    3.1960   22.8330 Cl  0  0  0  0  0  0  0  0  0  0  0  0
  1  2  1  0
  2  3  1  0
  3  4  2  0
  3  5  1  0
  5  6  2  0
  6  7  1  0
  7  8  1  0
  8  9  1  0
  9 10  2  0
  9 11  1  0
 11 12  1  0
 12 13  2  0
 13 14  1  0
 14 15  2  0
 15 16  1  0
 12 17  1  0
 16 17  2  0
  7 18  2  0
 18 19  1  0
  5 20  1  0
 19 20  2  0
 20 21  1  0
M  END
