pyridine_urea_3407
     RDKit          3D

 19 20  0  0  0  0  0  0  0  0999 V2000
   12.4640   -2.2680   20.9870 C   0  0  0  0  0  0  0  0  0  0  0  0
   11.1190   -1.7970   21.4650 C   0  0  0  0  0  0  0  0  0  0  0  0
   10.0880   -2.6090   21.8740 C   0  0  0  0  0  0  0  0  0  0  0  0
   11.4700   -1.1630   22.6740 C   0  0  1  0  0  0  0  0  0  0  0  0
   12.7140   -0.5610   22.4870 C   0  0  0  0  0  0  0  0  0  0  0  0
   12.7590    0.8600   22.8870 C   0  0  0  0  0  0  0  0  0  0  0  0
   11.9710    1.1320   23.9300 C   0  0  0  0  0  0  0  0  0  0  0  0
   10.5440    0.6000   23.8980 C   0  0  0  0  0  0  0  0  0  0  0  0
   10.3650   -0.6130   23.3500 C   0  0  1  0  0  0  0  0  0  0  0  0
    9.0810   -0.6270   22.6230 N   0  0  0  0  0  0  0  0  0  0  0  0
    8.5770    0.1830   21.6080 C   0  0  0  0  0  0  0  0  0  0  0  0
    9.0580    1.2640   21.2590 O   0  0  0  0  0  0  0  0  0  0  0  0
    7.4320   -0.4010   21.0650 N   0  0  0  0  0  0  0  0  0  0  0  0
    6.6500    0.1590   20.0470 C   0  0  0  0  0  0  0  0  0  0  0  0
    5.5070    0.8990   20.3900 C   0  0  0  0  0  0  0  0  0  0  0  0
    4.7370    1.4740   19.3680 C   0  0  0  0  0  0  0  0  0  0  0  0
    5.1580    1.2740   18.0670 C   0  0  0  0  0  0  0  0  0  0  0  0
    6.2340    0.5720   17.6930 N   0  0  0  0  0  0  0  0  0  0  0  0
    6.9370    0.0390   18.7020 C   0  0  0  0  0  0  0  0  0  0  0  0
  1  2  1  0
  2  3  1  0
  4  2  1  6
  4  5  1  0
  5  6  1  0
  6  7  1  0
  7  8  1  0
  4  9  1  0
  8  9  1  0
  9 10  1  6
 10 11  1  0
 11 12  2  0
 11 13  1  0
 13 14  1  0
 14 15  2  0
 15 16  1  0
 16 17  2  0
 17 18  1  0
 14 19  1  0
 18 19  2  0
M  END
