pyridine_urea_13906
     RDKit          3D

 24 26  0  0  0  0  0  0  0  0999 V2000
    8.6170    0.7390   21.1860 O   0  0  0  0  0  0  0  0  0  0  0  0
    8.2360   -0.4120   21.3760 C   0  0  0  0  0  0  0  0  0  0  0  0
    6.9730   -0.8320   21.0390 N   0  0  0  0  0  0  0  0  0  0  0  0
    6.3690   -0.0930   19.9620 C   0  0  0  0  0  0  0  0  0  0  0  0
    5.0790    0.6520   20.2770 C   0  0  0  0  0  0  0  0  0  0  0  0
    4.5110    1.4090   19.1260 C   0  0  0  0  0  0  0  0  0  0  0  0
    5.1790    1.3720   17.9180 C   0  0  0  0  0  0  0  0  0  0  0  0
    6.3190    0.6890   17.6970 N   0  0  0  0  0  0  0  0  0  0  0  0
    6.8790   -0.0150   18.6960 C   0  0  0  0  0  0  0  0  0  0  0  0
    9.0120   -1.4010   21.9360 N   0  0  0  0  0  0  0  0  0  0  0  0
   10.0680   -0.9520   22.8690 C   0  0  2  0  0  0  0  0  0  0  0  0
   11.0670   -1.8460   22.9300 C   0  0  0  0  0  0  0  0  0  0  0  0
   12.0450   -0.7860   22.5020 C   0  0  0  0  0  0  0  0  0  0  0  0
   12.9400   -0.3900   23.4200 C   0  0  0  0  0  0  0  0  0  0  0  0
   12.3630    0.4830   24.2760 C   0  0  0  0  0  0  0  0  0  0  0  0
   11.1150    0.8440   23.9040 C   0  0  0  0  0  0  0  0  0  0  0  0
   11.1610    1.6720   22.6730 C   0  0  0  0  0  0  0  0  0  0  0  0
   10.8580    0.1880   22.4710 C   0  0  0  0  0  0  0  0  0  0  0  0
    9.3750   -0.6110   24.2490 C   0  0  0  0  0  0  0  0  0  0  0  0
    8.0100   -0.4940   24.2420 N   0  0  0  0  0  0  0  0  0  0  0  0
    7.2200   -0.2040   25.3240 C   0  0  0  0  0  0  0  0  0  0  0  0
    7.9450   -0.0310   26.4880 C   0  0  0  0  0  0  0  0  0  0  0  0
    9.3060   -0.1570   26.4600 C   0  0  0  0  0  0  0  0  0  0  0  0
   10.0560   -0.4380   25.3980 N   0  0  0  0  0  0  0  0  0  0  0  0
  1  2  2  0
  2  3  1  0
  3  4  1  0
  4  5  2  0
  5  6  1  0
  6  7  2  0
  7  8  1  0
  4  9  1  0
  8  9  2  0
  2 10  1  0
 10 11  1  0
 11 12  1  1
 12 13  1  0
 13 14  1  0
 14 15  1  0
 15 16  1  0
 16 17  1  0
 13 18  1  0
 17 18  1  0
 11 19  1  0
 19 20  2  0
 20 21  1  0
 21 22  2  0
 22 23  1  0
 19 24  1  0
 23 24  2  0
M  END
