pyridine_urea_163
     RDKit          3D

 21 23  0  0  0  0  0  0  0  0999 V2000
    8.9210    0.8280   21.4960 O   0  0  0  0  0  0  0  0  0  0  0  0
    8.4180   -0.2810   21.3850 C   0  0  0  0  0  0  0  0  0  0  0  0
    9.1380   -1.4460   21.5230 N   0  0  0  0  0  0  0  0  0  0  0  0
    9.8790   -1.7650   22.7360 C   0  0  0  0  0  0  0  0  0  0  0  0
   11.3890   -1.5570   22.5760 C   0  0  1  0  0  0  0  0  0  0  0  0
   11.9350   -0.5140   23.5980 C   0  0  0  0  0  0  0  0  0  0  0  0
   12.8250    0.3710   23.0140 C   0  0  0  0  0  0  0  0  0  0  0  0
   12.1500    1.6040   23.3650 C   0  0  0  0  0  0  0  0  0  0  0  0
   10.8810    1.6660   24.1510 C   0  0  0  0  0  0  0  0  0  0  0  0
   10.6130    0.2710   24.4220 C   0  0  0  0  0  0  0  0  0  0  0  0
   11.4850   -0.9660   23.9500 C   0  0  0  0  0  0  0  0  0  0  0  0
   12.6490   -0.9500   23.1980 C   0  0  0  0  0  0  0  0  0  0  0  0
   13.2400   -2.0820   22.8530 C   0  0  0  0  0  0  0  0  0  0  0  0
   12.0790   -2.6340   22.6130 O   0  0  0  0  0  0  0  0  0  0  0  0
    7.1030   -0.5530   21.0760 N   0  0  0  0  0  0  0  0  0  0  0  0
    6.3800    0.1050   20.0640 C   0  0  0  0  0  0  0  0  0  0  0  0
    5.0930    0.7920   20.5910 C   0  0  0  0  0  0  0  0  0  0  0  0
    4.6180    1.3860   19.2650 C   0  0  0  0  0  0  0  0  0  0  0  0
    5.2620    1.2770   17.9350 C   0  0  0  0  0  0  0  0  0  0  0  0
    6.3620    0.6330   17.7010 N   0  0  0  0  0  0  0  0  0  0  0  0
    6.8810    0.0690   18.7740 C   0  0  0  0  0  0  0  0  0  0  0  0
  1  2  2  0
  2  3  1  0
  3  4  1  0
  5  4  1  1
  5  6  1  0
  6  7  1  0
  7  8  2  0
  8  9  1  0
  9 10  2  0
 10 11  1  0
  7 12  1  0
 11 12  2  0
 12 13  1  0
  5 14  1  0
 13 14  1  0
  2 15  1  0
 15 16  1  0
 16 17  2  0
 17 18  1  0
 18 19  2  0
 19 20  1  0
 16 21  1  0
 20 21  2  0
M  END
