pyridine_urea_3184
     RDKit          3D

 20 22  0  0  0  0  0  0  0  0999 V2000
    8.8870    1.1990   21.1390 O   0  0  0  0  0  0  0  0  0  0  0  0
    8.4640    0.0560   21.3680 C   0  0  0  0  0  0  0  0  0  0  0  0
    9.1530   -0.9190   22.0310 N   0  0  0  0  0  0  0  0  0  0  0  0
    8.7730   -2.2570   22.2440 C   0  0  0  0  0  0  0  0  0  0  0  0
    8.9510   -2.6450   23.5560 C   0  0  0  0  0  0  0  0  0  0  0  0
    9.4570   -1.7060   24.3940 N   0  0  0  0  0  0  0  0  0  0  0  0
    8.6980   -0.8040   25.1270 C   0  0  0  0  0  0  0  0  0  0  0  0
    9.6120   -0.0350   25.8220 N   0  0  0  0  0  0  0  0  0  0  0  0
   10.8880   -0.5000   25.4850 N   0  0  0  0  0  0  0  0  0  0  0  0
   10.7730   -1.4910   24.6420 C   0  0  0  0  0  0  0  0  0  0  0  0
   11.8490   -2.3440   23.9730 C   0  0  0  0  0  0  0  0  0  0  0  0
   12.9640   -1.8450   23.4830 C   0  0  0  0  0  0  0  0  0  0  0  0
   13.3230   -2.3760   24.7540 C   0  0  0  0  0  0  0  0  0  0  0  0
    7.2330   -0.4170   20.9870 N   0  0  0  0  0  0  0  0  0  0  0  0
    6.4860    0.1720   20.0540 C   0  0  0  0  0  0  0  0  0  0  0  0
    5.3220    0.8850   20.3010 C   0  0  0  0  0  0  0  0  0  0  0  0
    4.6540    1.4630   19.2350 C   0  0  0  0  0  0  0  0  0  0  0  0
    5.1660    1.3120   17.9610 C   0  0  0  0  0  0  0  0  0  0  0  0
    6.2760    0.6260   17.6770 N   0  0  0  0  0  0  0  0  0  0  0  0
    6.9080    0.0720   18.7340 C   0  0  0  0  0  0  0  0  0  0  0  0
  1  2  2  0
  2  3  1  0
  3  4  1  0
  4  5  1  0
  5  6  1  0
  6  7  1  0
  7  8  2  0
  8  9  1  0
  6 10  1  0
  9 10  2  0
 10 11  1  0
 11 12  1  0
 11 13  1  0
 12 13  1  0
  2 14  1  0
 14 15  1  0
 15 16  2  0
 16 17  1  0
 17 18  2  0
 18 19  1  0
 15 20  1  0
 19 20  2  0
M  END
