pyridine_urea_6383
     RDKit          3D

 23 24  0  0  0  0  0  0  0  0999 V2000
    8.6910   -2.9440   23.0550 C   0  0  0  0  0  0  0  0  0  0  0  0
    9.7230   -2.7120   22.4840 C   0  0  0  0  0  0  0  0  0  0  0  0
   11.2030   -2.4930   22.1600 C   0  0  0  0  0  0  0  0  0  0  0  0
    9.3790   -1.3570   22.2870 O   0  0  0  0  0  0  0  0  0  0  0  0
   10.7210   -0.8030   22.5000 C   0  0  0  0  0  0  0  0  0  0  0  0
   11.7060   -1.4930   21.8450 C   0  0  0  0  0  0  0  0  0  0  0  0
   12.8470   -0.6100   22.3320 C   0  0  0  0  0  0  0  0  0  0  0  0
   12.8510    0.5700   23.2000 C   0  0  0  0  0  0  0  0  0  0  0  0
   11.8790    1.2440   23.8510 C   0  0  0  0  0  0  0  0  0  0  0  0
   10.3790    1.0880   23.9720 C   0  0  1  0  0  0  0  0  0  0  0  0
    9.8680    1.9610   23.2770 O   0  0  0  0  0  0  0  0  0  0  0  0
    9.7950   -0.1550   23.7070 C   0  0  0  0  0  0  0  0  0  0  0  0
    8.4390   -0.0640   23.0880 N   0  0  0  0  0  0  0  0  0  0  0  0
    8.2400    0.3860   21.6860 C   0  0  0  0  0  0  0  0  0  0  0  0
    8.9850    1.4750   21.1370 O   0  0  0  0  0  0  0  0  0  0  0  0
    7.2610   -0.3430   21.0410 N   0  0  0  0  0  0  0  0  0  0  0  0
    6.4650    0.2250   20.0450 C   0  0  0  0  0  0  0  0  0  0  0  0
    5.1940    0.9160   20.6030 C   0  0  0  0  0  0  0  0  0  0  0  0
    4.6330    1.4150   19.2890 C   0  0  0  0  0  0  0  0  0  0  0  0
    5.1880    1.2470   17.9320 C   0  0  0  0  0  0  0  0  0  0  0  0
    6.2820    0.6120   17.6520 N   0  0  0  0  0  0  0  0  0  0  0  0
    6.8840    0.1220   18.7230 C   0  0  0  0  0  0  0  0  0  0  0  0
   10.7490    0.3170   23.3310 C   0  0  0  0  0  0  0  0  0  0  0  0
  1  2  1  0
  2  3  1  0
  2  4  1  0
  4  5  1  0
  5  6  2  0
  6  7  1  0
  7  8  2  0
  8  9  1  0
  9 10  1  0
 10 11  1  6
 10 12  1  0
 12 13  1  0
 13 14  1  0
 14 15  2  0
 14 16  1  0
 16 17  1  0
 17 18  2  0
 18 19  1  0
 19 20  2  0
 20 21  1  0
 17 22  1  0
 21 22  2  0
  5 23  1  0
  9 23  2  0
M  END
