pyridine_urea_125
     RDKit          3D

 22 22  0  0  0  0  0  0  0  0999 V2000
   13.0090   -2.4460   23.1180 C   0  0  0  0  0  0  0  0  0  0  0  0
   11.5950   -2.5250   22.8990 O   0  0  0  0  0  0  0  0  0  0  0  0
   10.9040   -3.2490   23.9280 C   0  0  0  0  0  0  0  0  0  0  0  0
   11.4960   -3.6110   24.9180 O   0  0  0  0  0  0  0  0  0  0  0  0
    9.3930   -3.5380   23.5860 C   0  0  0  0  0  0  0  0  0  0  0  0
    8.3600   -2.5790   24.0520 C   0  0  0  0  0  0  0  0  0  0  0  0
    9.0010   -1.3670   24.4510 N   0  0  0  0  0  0  0  0  0  0  0  0
    8.2920   -0.5240   25.2750 C   0  0  0  0  0  0  0  0  0  0  0  0
   10.3730   -1.3060   24.3920 C   0  0  0  0  0  0  0  0  0  0  0  0
   11.4840   -1.1380   23.9120 O   0  0  0  0  0  0  0  0  0  0  0  0
   10.1140   -0.9510   22.9580 C   0  0  0  0  0  0  0  0  0  0  0  0
    9.7530   -1.9180   22.1650 C   0  0  0  0  0  0  0  0  0  0  0  0
    8.5940   -1.5850   21.5520 N   0  0  0  0  0  0  0  0  0  0  0  0
    8.0640   -0.3190   21.3270 C   0  0  0  0  0  0  0  0  0  0  0  0
    8.7220    0.7180   21.2820 O   0  0  0  0  0  0  0  0  0  0  0  0
    6.7420   -0.4620   21.1720 N   0  0  0  0  0  0  0  0  0  0  0  0
    6.1780    0.1760   20.1360 C   0  0  0  0  0  0  0  0  0  0  0  0
    5.0140    0.9190   20.2460 C   0  0  0  0  0  0  0  0  0  0  0  0
    4.4980    1.5520   19.1400 C   0  0  0  0  0  0  0  0  0  0  0  0
    5.2390    1.4060   17.8420 C   0  0  0  0  0  0  0  0  0  0  0  0
    6.3710    0.6850   17.7140 N   0  0  0  0  0  0  0  0  0  0  0  0
    6.8360    0.0800   18.8230 C   0  0  0  0  0  0  0  0  0  0  0  0
  1  2  1  0
  2  3  1  0
  3  4  2  0
  3  5  1  0
  5  6  1  0
  6  7  1  0
  7  8  1  0
  7  9  1  0
  9 10  2  0
  9 11  1  0
 11 12  1  0
 12 13  1  0
 13 14  1  0
 14 15  2  0
 14 16  1  0
 16 17  1  0
 17 18  2  0
 18 19  1  0
 19 20  2  0
 20 21  1  0
 17 22  1  0
 21 22  2  0
M  END
