pyridine_urea_100
     RDKit          3D

 19 21  0  0  0  0  0  0  0  0999 V2000
    8.7950    0.6900   21.4060 O   0  0  0  0  0  0  0  0  0  0  0  0
    8.2870   -0.3720   21.7500 C   0  0  0  0  0  0  0  0  0  0  0  0
    7.1290   -0.8660   21.1710 N   0  0  0  0  0  0  0  0  0  0  0  0
    6.5090   -0.1400   20.0670 C   0  0  0  0  0  0  0  0  0  0  0  0
    5.2280    0.6270   20.3930 C   0  0  0  0  0  0  0  0  0  0  0  0
    4.6220    1.3630   19.2400 C   0  0  0  0  0  0  0  0  0  0  0  0
    5.2470    1.2960   18.0100 C   0  0  0  0  0  0  0  0  0  0  0  0
    6.3760    0.6020   17.7730 N   0  0  0  0  0  0  0  0  0  0  0  0
    6.9720   -0.0890   18.7740 C   0  0  0  0  0  0  0  0  0  0  0  0
    8.7990   -1.1940   22.7570 N   0  0  0  0  0  0  0  0  0  0  0  0
   10.2180   -1.0240   23.1820 C   0  0  1  0  0  0  0  0  0  0  0  0
   10.8650   -0.9050   22.0290 C   0  0  0  0  0  0  0  0  0  0  0  0
   12.2320   -1.2630   22.5460 C   0  0  0  0  0  0  0  0  0  0  0  0
   12.7750   -0.2490   23.2700 C   0  0  1  0  0  0  0  0  0  0  0  0
   12.9240    0.9160   22.4740 O   0  0  0  0  0  0  0  0  0  0  0  0
   12.1330    1.9940   22.9940 C   0  0  0  0  0  0  0  0  0  0  0  0
   11.2500    1.3720   23.8490 C   0  0  0  0  0  0  0  0  0  0  0  0
   11.7410    0.0280   24.3250 C   0  0  1  0  0  0  0  0  0  0  0  0
   10.2720    0.2290   24.1320 C   0  0  0  0  0  0  0  0  0  0  0  0
  1  2  2  0
  2  3  1  0
  3  4  1  0
  4  5  2  0
  5  6  1  0
  6  7  2  0
  7  8  1  0
  4  9  1  0
  8  9  2  0
  2 10  1  0
 11 10  1  6
 11 12  1  0
 12 13  1  0
 14 13  1  6
 14 15  1  0
 15 16  1  0
 16 17  1  0
 14 18  1  0
 18 17  1  6
 11 19  1  0
 18 19  1  0
M  END
