pyridine_urea_14228
     RDKit          3D

 22 23  0  0  0  0  0  0  0  0999 V2000
   10.5960   -1.9480   22.1030 C   0  0  0  0  0  0  0  0  0  0  0  0
   10.2890   -0.4740   22.2380 C   0  0  1  0  0  0  0  0  0  0  0  0
    8.9370   -0.2170   22.6940 N   0  0  0  0  0  0  0  0  0  0  0  0
    8.1590   -0.4830   21.5960 C   0  0  0  0  0  0  0  0  0  0  0  0
    8.6500   -1.0550   20.6760 O   0  0  0  0  0  0  0  0  0  0  0  0
    6.8740   -0.0610   21.5820 N   0  0  0  0  0  0  0  0  0  0  0  0
    6.2860    0.4040   20.3000 C   0  0  0  0  0  0  0  0  0  0  0  0
    5.1140    1.1370   20.3790 C   0  0  0  0  0  0  0  0  0  0  0  0
    4.4720    1.6560   19.1500 C   0  0  0  0  0  0  0  0  0  0  0  0
    5.2090    1.3090   17.8790 C   0  0  0  0  0  0  0  0  0  0  0  0
    6.3460    0.5840   17.8450 N   0  0  0  0  0  0  0  0  0  0  0  0
    6.8500    0.1510   19.0370 C   0  0  0  0  0  0  0  0  0  0  0  0
   11.4780    0.2680   22.8430 C   0  0  0  0  0  0  0  0  0  0  0  0
   11.7650    1.4930   22.8420 C   0  0  0  0  0  0  0  0  0  0  0  0
   12.4750    0.3970   23.3720 C   0  0  0  0  0  0  0  0  0  0  0  0
   11.2770   -0.4030   22.8240 C   0  0  0  0  0  0  0  0  0  0  0  0
   11.9240   -1.5350   23.3420 C   0  0  0  0  0  0  0  0  0  0  0  0
   13.1020   -1.5520   23.9850 C   0  0  0  0  0  0  0  0  0  0  0  0
   13.8860   -2.5620   23.5820 F   0  0  0  0  0  0  0  0  0  0  0  0
   13.1060   -1.6190   25.3250 F   0  0  0  0  0  0  0  0  0  0  0  0
   13.6900   -0.4230   23.6170 F   0  0  0  0  0  0  0  0  0  0  0  0
   12.5080   -0.4620   23.5280 C   0  0  0  0  0  0  0  0  0  0  0  0
  2  1  1  1
  2  3  1  0
  3  4  1  0
  4  5  2  0
  4  6  1  0
  6  7  1  0
  7  8  2  0
  8  9  1  0
  9 10  2  0
 10 11  1  0
  7 12  1  0
 11 12  2  0
  2 13  1  0
 13 14  2  0
 14 15  1  0
 15 16  2  0
 16 17  1  0
 17 18  1  0
 18 19  1  0
 18 20  1  0
 18 21  1  0
 13 22  1  0
 17 22  2  0
M  END
