pyridine_urea_12082
     RDKit          3D

 23 25  0  0  0  0  0  0  0  0999 V2000
    9.0080    1.2590   21.2800 O   0  0  0  0  0  0  0  0  0  0  0  0
    8.7000    0.0750   21.4070 C   0  0  0  0  0  0  0  0  0  0  0  0
    7.4570   -0.4440   21.0950 N   0  0  0  0  0  0  0  0  0  0  0  0
    6.6600    0.1050   20.0710 C   0  0  0  0  0  0  0  0  0  0  0  0
    5.5000    0.8190   20.3990 C   0  0  0  0  0  0  0  0  0  0  0  0
    4.7210    1.3880   19.3890 C   0  0  0  0  0  0  0  0  0  0  0  0
    5.1290    1.2130   18.0860 C   0  0  0  0  0  0  0  0  0  0  0  0
    6.2260    0.5260   17.7390 N   0  0  0  0  0  0  0  0  0  0  0  0
    6.9620   -0.0090   18.7340 C   0  0  0  0  0  0  0  0  0  0  0  0
    9.6010   -0.8880   21.8510 N   0  0  0  0  0  0  0  0  0  0  0  0
   10.3460   -0.8160   23.1370 C   0  0  1  0  0  0  0  0  0  0  0  0
   11.4800    0.2410   23.0680 C   0  0  0  0  0  0  0  0  0  0  0  0
   12.2640   -0.9440   22.9240 C   0  0  0  0  0  0  0  0  0  0  0  0
   12.7490    0.2140   22.9370 C   0  0  0  0  0  0  0  0  0  0  0  0
   11.6710    1.1250   23.1060 C   0  0  0  0  0  0  0  0  0  0  0  0
   10.3590    0.9060   23.2440 F   0  0  0  0  0  0  0  0  0  0  0  0
   12.2280    2.2140   23.0950 C   0  0  0  0  0  0  0  0  0  0  0  0
   12.8760    0.9300   22.9520 C   0  0  0  0  0  0  0  0  0  0  0  0
    9.3680   -0.6100   24.3240 C   0  0  0  0  0  0  0  0  0  0  0  0
    8.1980   -1.4330   24.3960 N   0  0  0  0  0  0  0  0  0  0  0  0
    7.5800   -0.9620   25.5660 C   0  0  0  0  0  0  0  0  0  0  0  0
    8.4920   -0.0550   25.8470 C   0  0  0  0  0  0  0  0  0  0  0  0
    9.4360    0.2840   25.3840 N   0  0  0  0  0  0  0  0  0  0  0  0
  1  2  2  0
  2  3  1  0
  3  4  1  0
  4  5  2  0
  5  6  1  0
  6  7  2  0
  7  8  1  0
  4  9  1  0
  8  9  2  0
  2 10  1  0
 11 10  1  6
 11 12  1  0
 12 13  2  0
 13 14  1  0
 14 15  2  0
 15 16  1  0
 15 17  1  0
 12 18  1  0
 17 18  2  0
 11 19  1  0
 19 20  2  0
 20 21  1  0
 21 22  2  0
 19 23  1  0
 22 23  1  0
M  END
