pyridine_urea_11955
     RDKit          3D

 24 25  0  0  0  0  0  0  0  0999 V2000
    8.8470    0.9520   21.3100 O   0  0  0  0  0  0  0  0  0  0  0  0
    8.4700   -0.1790   21.5720 C   0  0  0  0  0  0  0  0  0  0  0  0
    9.0910   -1.0520   22.4320 N   0  0  0  0  0  0  0  0  0  0  0  0
   10.4880   -1.2560   22.5210 C   0  0  0  0  0  0  0  0  0  0  0  0
   11.2120   -0.5070   23.4530 C   0  0  0  0  0  0  0  0  0  0  0  0
   11.6630    0.7730   23.1120 C   0  0  0  0  0  0  0  0  0  0  0  0
   10.4770    1.6490   23.0840 N   0  0  0  0  0  0  0  0  0  0  0  0
   10.5720    3.2540   22.5470 S   0  0  0  0  0  0  0  0  0  0  0  0
    9.3070    3.4230   21.8760 O   0  0  0  0  0  0  0  0  0  0  0  0
   11.8310    3.4670   21.8780 O   0  0  0  0  0  0  0  0  0  0  0  0
   10.5500    4.2540   23.9710 C   0  0  0  0  0  0  0  0  0  0  0  0
    9.6950    4.1560   25.0810 C   0  0  0  0  0  0  0  0  0  0  0  0
    9.7590    5.0110   26.1770 C   0  0  0  0  0  0  0  0  0  0  0  0
   10.8090    6.1040   26.1720 C   0  0  0  0  0  0  0  0  0  0  0  0
   11.6520    6.1990   25.0670 C   0  0  0  0  0  0  0  0  0  0  0  0
   11.5230    5.3000   23.9970 C   0  0  0  0  0  0  0  0  0  0  0  0
   12.7540    5.5900   22.5770 Br  0  0  0  0  0  0  0  0  0  0  0  0
    7.3230   -0.6990   21.0100 N   0  0  0  0  0  0  0  0  0  0  0  0
    6.5590   -0.0560   20.0960 C   0  0  0  0  0  0  0  0  0  0  0  0
    5.3920    0.6590   20.3400 C   0  0  0  0  0  0  0  0  0  0  0  0
    4.6700    1.3120   19.3430 C   0  0  0  0  0  0  0  0  0  0  0  0
    5.1550    1.2340   18.0460 C   0  0  0  0  0  0  0  0  0  0  0  0
    6.2710    0.5550   17.7290 N   0  0  0  0  0  0  0  0  0  0  0  0
    6.9590   -0.0870   18.7720 C   0  0  0  0  0  0  0  0  0  0  0  0
  1  2  2  0
  2  3  1  0
  3  4  1  0
  4  5  1  0
  5  6  1  0
  6  7  1  0
  8  7  1  0
  8  9  2  0
  8 10  2  0
  8 11  1  0
 11 12  2  0
 12 13  1  0
 13 14  2  0
 14 15  1  0
 11 16  1  0
 15 16  2  0
 16 17  1  0
  2 18  1  0
 18 19  1  0
 19 20  2  0
 20 21  1  0
 21 22  2  0
 22 23  1  0
 19 24  1  0
 23 24  2  0
M  END
