pyridine_urea_4463
     RDKit          3D

 23 25  0  0  0  0  0  0  0  0999 V2000
    8.9150    1.2280   21.2560 O   0  0  0  0  0  0  0  0  0  0  0  0
    8.4460    0.1270   21.5740 C   0  0  0  0  0  0  0  0  0  0  0  0
    9.0250   -0.6880   22.5230 N   0  0  0  0  0  0  0  0  0  0  0  0
   10.2140   -1.3880   22.1020 C   0  0  0  0  0  0  0  0  0  0  0  0
   11.4170   -1.3140   23.0320 C   0  0  0  0  0  0  0  0  0  0  0  0
   12.1040    0.0300   22.9770 C   0  0  0  0  0  0  0  0  0  0  0  0
   13.3090    0.2860   22.7190 C   0  0  0  0  0  0  0  0  0  0  0  0
   12.4860    1.4690   22.9940 C   0  0  0  0  0  0  0  0  0  0  0  0
   11.2890    0.1100   23.1790 C   0  0  0  0  0  0  0  0  0  0  0  0
   10.6410    1.2110   23.3840 C   0  0  0  0  0  0  0  0  0  0  0  0
   11.7120    1.5050   23.1660 C   0  0  0  0  0  0  0  0  0  0  0  0
   12.2830    2.7250   23.1160 F   0  0  0  0  0  0  0  0  0  0  0  0
   12.3590   -2.3300   22.5040 C   0  0  0  0  0  0  0  0  0  0  0  0
   13.2210   -2.2890   23.5390 C   0  0  0  0  0  0  0  0  0  0  0  0
   12.5490   -1.6040   24.5220 C   0  0  0  0  0  0  0  0  0  0  0  0
   11.0720   -1.9080   24.4250 C   0  0  0  0  0  0  0  0  0  0  0  0
    7.3090   -0.4480   21.0630 N   0  0  0  0  0  0  0  0  0  0  0  0
    6.5780    0.1320   20.0270 C   0  0  0  0  0  0  0  0  0  0  0  0
    5.3480    0.9190   20.3340 C   0  0  0  0  0  0  0  0  0  0  0  0
    4.6640    1.4980   19.2670 C   0  0  0  0  0  0  0  0  0  0  0  0
    5.1580    1.3150   17.9960 C   0  0  0  0  0  0  0  0  0  0  0  0
    6.2500    0.6100   17.6690 N   0  0  0  0  0  0  0  0  0  0  0  0
    6.9100    0.0490   18.6990 C   0  0  0  0  0  0  0  0  0  0  0  0
  1  2  2  0
  2  3  1  0
  3  4  1  0
  5  4  1  0
  5  6  1  0
  6  7  2  0
  7  8  1  0
  8  9  2  0
  9 10  1  0
  6 11  1  0
 10 11  2  0
 11 12  1  0
  5 13  1  0
 13 14  1  0
 14 15  1  0
  5 16  1  0
 15 16  1  0
  2 17  1  0
 17 18  1  0
 18 19  2  0
 19 20  1  0
 20 21  2  0
 21 22  1  0
 18 23  1  0
 22 23  2  0
M  END
