pyridine_urea_3966
     RDKit          3D

 28 30  0  0  0  0  0  0  0  0999 V2000
    8.9600    0.9130   21.3100 O   0  0  0  0  0  0  0  0  0  0  0  0
    8.5960   -0.2180   21.5930 C   0  0  0  0  0  0  0  0  0  0  0  0
    9.2470   -1.1030   22.4370 N   0  0  0  0  0  0  0  0  0  0  0  0
   10.6440   -1.1490   22.7640 C   0  0  0  0  0  0  0  0  0  0  0  0
   11.3710    0.0650   22.8300 C   0  0  0  0  0  0  0  0  0  0  0  0
   12.4390   -0.8710   22.7740 C   0  0  0  0  0  0  0  0  0  0  0  0
   12.3990    0.3450   22.8500 C   0  0  0  0  0  0  0  0  0  0  0  0
   11.0420    0.8800   22.8980 C   0  0  0  0  0  0  0  0  0  0  0  0
   11.5150    2.0260   22.9470 N   0  0  0  0  0  0  0  0  0  0  0  0
   12.5590    1.1700   22.8850 C   0  0  0  0  0  0  0  0  0  0  0  0
   13.1480    2.4620   22.9510 O   0  0  0  0  0  0  0  0  0  0  0  0
   12.4180    3.6420   22.9530 C   0  0  0  0  0  0  0  0  0  0  0  0
   13.0640    4.6220   22.2450 C   0  0  0  0  0  0  0  0  0  0  0  0
   12.5610    5.9080   22.1030 C   0  0  0  0  0  0  0  0  0  0  0  0
   11.3400    6.2490   22.6990 C   0  0  0  0  0  0  0  0  0  0  0  0
   10.6410    5.3030   23.4250 C   0  0  0  0  0  0  0  0  0  0  0  0
    9.4310    5.5910   24.0390 C   0  0  0  0  0  0  0  0  0  0  0  0
    9.1120    4.8540   25.1130 F   0  0  0  0  0  0  0  0  0  0  0  0
    9.2670    6.8540   24.4650 F   0  0  0  0  0  0  0  0  0  0  0  0
    8.3800    5.3950   23.1900 F   0  0  0  0  0  0  0  0  0  0  0  0
   11.1900    3.9180   23.5720 C   0  0  0  0  0  0  0  0  0  0  0  0
    7.4130   -0.7070   21.0660 N   0  0  0  0  0  0  0  0  0  0  0  0
    6.6330   -0.0580   20.1580 C   0  0  0  0  0  0  0  0  0  0  0  0
    5.4840    0.6970   20.4430 C   0  0  0  0  0  0  0  0  0  0  0  0
    4.7550    1.3430   19.4300 C   0  0  0  0  0  0  0  0  0  0  0  0
    5.1680    1.2420   18.1070 C   0  0  0  0  0  0  0  0  0  0  0  0
    6.2430    0.5400   17.7310 N   0  0  0  0  0  0  0  0  0  0  0  0
    6.9880   -0.1300   18.8240 C   0  0  0  0  0  0  0  0  0  0  0  0
  1  2  2  0
  2  3  1  0
  3  4  1  0
  4  5  1  0
  5  6  2  0
  6  7  1  0
  7  8  2  0
  8  9  1  0
  5 10  1  0
  9 10  2  0
 10 11  1  0
 11 12  1  0
 12 13  2  0
 13 14  1  0
 14 15  2  0
 15 16  1  0
 16 17  1  0
 17 18  1  0
 17 19  1  0
 17 20  1  0
 12 21  1  0
 16 21  2  0
  2 22  1  0
 22 23  1  0
 23 24  2  0
 24 25  1  0
 25 26  2  0
 26 27  1  0
 23 28  1  0
 27 28  2  0
M  END
