pyridine_urea_7299
     RDKit          3D

 18 19  0  0  0  0  0  0  0  0999 V2000
    8.6590    0.9790   21.3400 O   0  0  0  0  0  0  0  0  0  0  0  0
    8.3000   -0.1580   21.6010 C   0  0  0  0  0  0  0  0  0  0  0  0
    7.1590   -0.7160   21.0890 N   0  0  0  0  0  0  0  0  0  0  0  0
    6.4740   -0.0670   20.0480 C   0  0  0  0  0  0  0  0  0  0  0  0
    5.2850    0.6220   20.3210 C   0  0  0  0  0  0  0  0  0  0  0  0
    4.6120    1.2870   19.2900 C   0  0  0  0  0  0  0  0  0  0  0  0
    5.1570    1.2370   18.0230 C   0  0  0  0  0  0  0  0  0  0  0  0
    6.2910    0.5770   17.7420 N   0  0  0  0  0  0  0  0  0  0  0  0
    6.9200   -0.0580   18.7520 C   0  0  0  0  0  0  0  0  0  0  0  0
    9.0460   -0.9740   22.4280 N   0  0  0  0  0  0  0  0  0  0  0  0
   10.4800   -0.6360   22.3800 C   0  0  1  0  0  0  0  0  0  0  0  0
   10.5700    0.7920   22.8710 C   0  0  0  0  0  0  0  0  0  0  0  0
   11.9340    1.2320   23.0360 O   0  0  0  0  0  0  0  0  0  0  0  0
   12.9440    0.2270   23.2380 C   0  0  0  0  0  0  0  0  0  0  0  0
   12.6570   -1.0180   22.6690 C   0  0  0  0  0  0  0  0  0  0  0  0
   11.3840   -1.4750   22.9840 C   0  0  0  0  0  0  0  0  0  0  0  0
   11.0790   -1.5990   24.2800 F   0  0  0  0  0  0  0  0  0  0  0  0
   11.1550   -2.7110   22.5030 F   0  0  0  0  0  0  0  0  0  0  0  0
  1  2  2  0
  2  3  1  0
  3  4  1  0
  4  5  2  0
  5  6  1  0
  6  7  2  0
  7  8  1  0
  4  9  1  0
  8  9  2  0
  2 10  1  0
 11 10  1  1
 11 12  1  0
 12 13  1  0
 13 14  1  0
 14 15  1  0
 11 16  1  0
 15 16  1  0
 16 17  1  0
 16 18  1  0
M  END
