pyridine_urea_14082
     RDKit          3D

 23 24  0  0  0  0  0  0  0  0999 V2000
   13.7470   -2.4330   25.4780 C   0  0  0  0  0  0  0  0  0  0  0  0
   13.1470   -1.1560   25.2720 O   0  0  0  0  0  0  0  0  0  0  0  0
   12.6220   -1.1410   23.9720 C   0  0  0  0  0  0  0  0  0  0  0  0
   13.6580   -2.1430   23.4120 C   0  0  0  0  0  0  0  0  0  0  0  0
   13.1660   -2.1780   22.0520 C   0  0  0  0  0  0  0  0  0  0  0  0
   12.1740   -1.5450   21.6390 C   0  0  0  0  0  0  0  0  0  0  0  0
   11.3000   -0.6320   22.3500 C   0  0  0  0  0  0  0  0  0  0  0  0
   11.4400   -0.2860   23.7350 C   0  0  0  0  0  0  0  0  0  0  0  0
   10.4280    0.3180   23.1520 C   0  0  0  0  0  0  0  0  0  0  0  0
    9.8180   -1.0540   23.1860 C   0  0  2  0  0  0  0  0  0  0  0  0
    9.6830   -1.7380   24.3980 C   0  0  0  0  0  0  0  0  0  0  0  0
   10.6570   -1.9320   22.2700 C   0  0  0  0  0  0  0  0  0  0  0  0
   11.1930   -3.0200   22.8750 O   0  0  0  0  0  0  0  0  0  0  0  0
    8.5050   -0.8990   22.6330 N   0  0  0  0  0  0  0  0  0  0  0  0
    8.1950   -0.0930   21.5640 C   0  0  0  0  0  0  0  0  0  0  0  0
    8.9150    1.1170   21.2110 O   0  0  0  0  0  0  0  0  0  0  0  0
    7.1080   -0.6190   20.9310 N   0  0  0  0  0  0  0  0  0  0  0  0
    6.3800    0.0750   19.9850 C   0  0  0  0  0  0  0  0  0  0  0  0
    5.1120    0.8120   20.2080 C   0  0  0  0  0  0  0  0  0  0  0  0
    4.5090    1.5100   19.0420 C   0  0  0  0  0  0  0  0  0  0  0  0
    5.1630    1.4330   17.8210 C   0  0  0  0  0  0  0  0  0  0  0  0
    6.3140    0.7440   17.6490 N   0  0  0  0  0  0  0  0  0  0  0  0
    6.8740    0.1020   18.7000 C   0  0  0  0  0  0  0  0  0  0  0  0
  1  2  1  0
  2  3  1  0
  3  4  2  0
  4  5  1  0
  5  6  2  0
  6  7  1  0
  3  8  1  0
  7  8  2  0
  8  9  1  0
  9 10  1  0
 10 11  1  1
 10 12  1  0
 12 13  1  0
 10 14  1  0
 14 15  1  0
 15 16  2  0
 15 17  1  0
 17 18  1  0
 18 19  2  0
 19 20  1  0
 20 21  2  0
 21 22  1  0
 18 23  1  0
 22 23  2  0
M  END
