pyridine_urea_9616
     RDKit          3D

 18 19  0  0  0  0  0  0  0  0999 V2000
    8.6650    0.8890   21.1910 O   0  0  0  0  0  0  0  0  0  0  0  0
    8.3610   -0.2570   21.4960 C   0  0  0  0  0  0  0  0  0  0  0  0
    7.1780   -0.8360   21.0890 N   0  0  0  0  0  0  0  0  0  0  0  0
    6.4950   -0.1100   20.0460 C   0  0  0  0  0  0  0  0  0  0  0  0
    5.2200    0.6430   20.4140 C   0  0  0  0  0  0  0  0  0  0  0  0
    4.5140    1.4230   19.3040 C   0  0  0  0  0  0  0  0  0  0  0  0
    5.1810    1.3590   17.9320 C   0  0  0  0  0  0  0  0  0  0  0  0
    6.3520    0.6140   17.7600 N   0  0  0  0  0  0  0  0  0  0  0  0
    6.9700   -0.0810   18.7590 C   0  0  0  0  0  0  0  0  0  0  0  0
    9.1570   -1.0760   22.2750 N   0  0  0  0  0  0  0  0  0  0  0  0
   10.4480   -0.5980   22.5770 C   0  0  2  0  0  0  0  0  0  0  0  0
   11.5520   -1.4180   22.3040 C   0  0  0  0  0  0  0  0  0  0  0  0
   12.7940   -0.8180   22.5580 C   0  0  0  0  0  0  0  0  0  0  0  0
   12.6280    0.4830   22.9980 C   0  0  0  0  0  0  0  0  0  0  0  0
   11.7390    0.5900   24.0460 C   0  0  1  0  0  0  0  0  0  0  0  0
   11.4560    1.7800   24.1120 O   0  0  0  0  0  0  0  0  0  0  0  0
   10.5470   -0.0700   23.8650 C   0  0  1  0  0  0  0  0  0  0  0  0
    9.5570    0.8600   23.9660 O   0  0  0  0  0  0  0  0  0  0  0  0
  1  2  2  0
  2  3  1  0
  3  4  1  0
  4  5  2  0
  5  6  1  0
  6  7  2  0
  7  8  1  0
  4  9  1  0
  8  9  2  0
  2 10  1  0
 11 10  1  1
 11 12  1  0
 12 13  1  0
 13 14  1  0
 14 15  1  0
 15 16  1  6
 11 17  1  0
 15 17  1  0
 17 18  1  6
M  END
