pyridine_urea_9785
     RDKit          3D

 25 28  0  0  0  0  0  0  0  0999 V2000
    8.5600    0.3110   21.1300 O   0  0  0  0  0  0  0  0  0  0  0  0
    8.0010   -0.7240   21.4830 C   0  0  0  0  0  0  0  0  0  0  0  0
    8.6350   -1.5800   22.3760 N   0  0  0  0  0  0  0  0  0  0  0  0
    9.8690   -0.9140   22.4620 C   0  0  0  0  0  0  0  0  0  0  0  0
    9.6040    0.5370   22.7310 C   0  0  0  0  0  0  0  0  0  0  0  0
   10.7490    1.4430   22.7710 C   0  0  0  0  0  0  0  0  0  0  0  0
   12.0890    0.8170   22.5410 C   0  0  0  0  0  0  0  0  0  0  0  0
   13.1930    1.7290   22.5480 C   0  0  0  0  0  0  0  0  0  0  0  0
   12.9570    3.1300   22.6560 N   0  0  0  0  0  0  0  0  0  0  0  0
   14.1910    3.4410   22.9710 C   0  0  0  0  0  0  0  0  0  0  0  0
   14.7150    4.5680   23.5620 C   0  0  0  0  0  0  0  0  0  0  0  0
   16.3470    4.5620   24.1790 N   0  0  0  0  0  0  0  0  0  0  0  0
   17.6390    3.7250   24.2750 C   0  0  0  0  0  0  0  0  0  0  0  0
   17.1490    2.5370   23.5080 C   0  0  0  0  0  0  0  0  0  0  0  0
   15.1440    2.3090   22.8130 C   0  0  0  0  0  0  0  0  0  0  0  0
   14.5140    1.2110   22.5190 N   0  0  0  0  0  0  0  0  0  0  0  0
   12.4010   -0.5150   22.3420 C   0  0  0  0  0  0  0  0  0  0  0  0
   11.2810   -1.4780   22.2840 C   0  0  0  0  0  0  0  0  0  0  0  0
    6.7760   -1.0600   21.0140 N   0  0  0  0  0  0  0  0  0  0  0  0
    6.2560   -0.2960   20.0210 C   0  0  0  0  0  0  0  0  0  0  0  0
    4.9910    0.4840   20.2130 C   0  0  0  0  0  0  0  0  0  0  0  0
    4.5120    1.2680   19.1530 C   0  0  0  0  0  0  0  0  0  0  0  0
    5.2230    1.2960   17.9650 C   0  0  0  0  0  0  0  0  0  0  0  0
    6.3520    0.5860   17.8130 N   0  0  0  0  0  0  0  0  0  0  0  0
    6.8770   -0.1960   18.7970 C   0  0  0  0  0  0  0  0  0  0  0  0
  1  2  2  0
  2  3  1  0
  3  4  1  0
  4  5  2  0
  5  6  1  0
  6  7  2  0
  7  8  1  0
  8  9  2  0
  9 10  1  0
 10 11  2  0
 11 12  1  0
 12 13  2  0
 13 14  1  0
 10 15  1  0
 14 15  2  0
  8 16  1  0
 15 16  1  0
  7 17  1  0
  4 18  1  0
 17 18  2  0
  2 19  1  0
 19 20  1  0
 20 21  2  0
 21 22  1  0
 22 23  2  0
 23 24  1  0
 20 25  1  0
 24 25  2  0
M  END
