pyridine_urea_15131
     RDKit          3D

 18 19  0  0  0  0  0  0  0  0999 V2000
   10.7670   -4.0240   25.5000 C   0  0  0  0  0  0  0  0  0  0  0  0
   10.1040   -3.2610   24.3400 C   0  0  0  0  0  0  0  0  0  0  0  0
   11.1650   -2.6690   23.4100 C   0  0  0  0  0  0  0  0  0  0  0  0
   11.2190   -1.1540   23.4350 C   0  0  0  0  0  0  0  0  0  0  0  0
    9.8630   -0.4850   23.3290 C   0  0  0  0  0  0  0  0  0  0  0  0
    9.0880   -0.9280   22.1950 N   0  0  0  0  0  0  0  0  0  0  0  0
    8.4400    0.0220   21.4370 C   0  0  0  0  0  0  0  0  0  0  0  0
    8.9350    1.1300   21.1750 O   0  0  0  0  0  0  0  0  0  0  0  0
    7.2100   -0.4400   21.0440 N   0  0  0  0  0  0  0  0  0  0  0  0
    6.5060    0.1420   20.0020 C   0  0  0  0  0  0  0  0  0  0  0  0
    5.3420    0.8560   20.2800 C   0  0  0  0  0  0  0  0  0  0  0  0
    4.6420    1.4610   19.2420 C   0  0  0  0  0  0  0  0  0  0  0  0
    5.1390    1.3230   17.9640 C   0  0  0  0  0  0  0  0  0  0  0  0
    6.2480    0.6340   17.6750 N   0  0  0  0  0  0  0  0  0  0  0  0
    6.9050    0.0600   18.6930 C   0  0  0  0  0  0  0  0  0  0  0  0
   12.0640   -0.5030   24.5230 C   0  0  0  0  0  0  0  0  0  0  0  0
   12.8450    0.2860   23.5960 C   0  0  0  0  0  0  0  0  0  0  0  0
   12.1750   -0.2420   22.5530 C   0  0  0  0  0  0  0  0  0  0  0  0
  1  2  1  0
  2  3  1  0
  4  3  1  0
  4  5  1  0
  5  6  1  0
  6  7  1  0
  7  8  2  0
  7  9  1  0
  9 10  1  0
 10 11  2  0
 11 12  1  0
 12 13  2  0
 13 14  1  0
 10 15  1  0
 14 15  2  0
  4 16  1  0
 16 17  1  0
  4 18  1  0
 17 18  1  0
M  END
