pyridine_urea_9312
     RDKit          3D

 17 18  0  0  0  0  0  0  0  0999 V2000
    8.9950    1.0680   21.2690 O   0  0  0  0  0  0  0  0  0  0  0  0
    8.4380    0.0140   21.6210 C   0  0  0  0  0  0  0  0  0  0  0  0
    8.7950   -0.7880   22.6830 N   0  0  0  0  0  0  0  0  0  0  0  0
   10.0870   -1.2100   23.0480 C   0  0  0  0  0  0  0  0  0  0  0  0
   11.0980   -0.8640   22.1670 C   0  0  0  0  0  0  0  0  0  0  0  0
   12.4070   -0.7960   22.6040 C   0  0  1  0  0  0  0  0  0  0  0  0
   12.6050    0.0830   23.6430 C   0  0  0  0  0  0  0  0  0  0  0  0
   12.3720   -0.5090   24.8720 C   0  0  0  0  0  0  0  0  0  0  0  0
   12.7290   -2.1700   24.8260 S   0  0  0  0  0  0  0  0  0  0  0  0
   12.9760   -2.1360   23.0840 C   0  0  0  0  0  0  0  0  0  0  0  0
    7.3370   -0.5430   21.0180 N   0  0  0  0  0  0  0  0  0  0  0  0
    6.5050    0.1330   20.0300 C   0  0  0  0  0  0  0  0  0  0  0  0
    5.3430    0.8350   20.2960 C   0  0  0  0  0  0  0  0  0  0  0  0
    4.6550    1.4510   19.2490 C   0  0  0  0  0  0  0  0  0  0  0  0
    5.1710    1.3320   17.9680 C   0  0  0  0  0  0  0  0  0  0  0  0
    6.2870    0.6480   17.6880 N   0  0  0  0  0  0  0  0  0  0  0  0
    6.9190    0.0700   18.7210 C   0  0  0  0  0  0  0  0  0  0  0  0
  1  2  2  0
  2  3  1  0
  3  4  1  0
  4  5  1  0
  6  5  1  1
  6  7  1  0
  7  8  1  0
  8  9  1  0
  6 10  1  0
  9 10  1  0
  2 11  1  0
 11 12  1  0
 12 13  2  0
 13 14  1  0
 14 15  2  0
 15 16  1  0
 12 17  1  0
 16 17  2  0
M  END
