pyridine_urea_2766
     RDKit          3D

 22 24  0  0  0  0  0  0  0  0999 V2000
   12.6480   -0.5480   25.5300 C   0  0  0  0  0  0  0  0  0  0  0  0
   11.4120   -0.1310   25.1680 N   0  0  0  0  0  0  0  0  0  0  0  0
   10.1850   -0.1410   26.0170 C   0  0  0  0  0  0  0  0  0  0  0  0
   10.0030    0.0170   27.4320 O   0  0  0  0  0  0  0  0  0  0  0  0
    8.8540   -0.2970   25.2430 C   0  0  0  0  0  0  0  0  0  0  0  0
    8.9100   -0.6560   23.9360 C   0  0  0  0  0  0  0  0  0  0  0  0
   10.2710   -0.9030   23.2950 C   0  0  0  0  0  0  0  0  0  0  0  0
   10.3760   -1.4340   22.0760 C   0  0  0  0  0  0  0  0  0  0  0  0
    9.1850   -1.6980   21.4510 N   0  0  0  0  0  0  0  0  0  0  0  0
    8.3210   -0.5320   21.1980 C   0  0  0  0  0  0  0  0  0  0  0  0
    8.8020    0.7580   21.2760 O   0  0  0  0  0  0  0  0  0  0  0  0
    7.0330   -0.8650   20.8830 N   0  0  0  0  0  0  0  0  0  0  0  0
    6.3590   -0.1120   19.9320 C   0  0  0  0  0  0  0  0  0  0  0  0
    5.0460    0.5580   20.3050 C   0  0  0  0  0  0  0  0  0  0  0  0
    4.4050    1.3790   19.1870 C   0  0  0  0  0  0  0  0  0  0  0  0
    5.1660    1.4060   17.8720 C   0  0  0  0  0  0  0  0  0  0  0  0
    6.3230    0.7620   17.6680 N   0  0  0  0  0  0  0  0  0  0  0  0
    6.8620    0.0490   18.6680 C   0  0  0  0  0  0  0  0  0  0  0  0
   11.6480   -1.6880   21.5030 C   0  0  0  0  0  0  0  0  0  0  0  0
   12.7980   -1.3590   22.1780 C   0  0  0  0  0  0  0  0  0  0  0  0
   12.6620   -0.8180   23.3990 C   0  0  0  0  0  0  0  0  0  0  0  0
   11.4210   -0.6160   23.9350 C   0  0  0  0  0  0  0  0  0  0  0  0
  1  2  1  0
  2  3  1  0
  3  4  2  0
  3  5  1  0
  5  6  2  0
  6  7  1  0
  7  8  1  0
  8  9  1  0
  9 10  1  0
 10 11  2  0
 10 12  1  0
 12 13  1  0
 13 14  2  0
 14 15  1  0
 15 16  2  0
 16 17  1  0
 13 18  1  0
 17 18  2  0
  8 19  2  0
 19 20  1  0
 20 21  2  0
  2 22  1  0
  7 22  2  0
 21 22  1  0
M  END
