pyridine_urea_3025
     RDKit          3D

 21 22  0  0  0  0  0  0  0  0999 V2000
    9.3270   -0.0240   26.6470 C   0  0  0  0  0  0  0  0  0  0  0  0
   10.6830   -0.3780   26.3710 O   0  0  0  0  0  0  0  0  0  0  0  0
   10.9380   -0.6810   25.0200 C   0  0  0  0  0  0  0  0  0  0  0  0
    9.7580   -0.2950   24.2150 C   0  0  0  0  0  0  0  0  0  0  0  0
    9.6040   -0.4480   22.9080 C   0  0  0  0  0  0  0  0  0  0  0  0
    8.4340   -0.0750   22.3870 N   0  0  0  0  0  0  0  0  0  0  0  0
    8.0580    0.3240   21.2250 C   0  0  0  0  0  0  0  0  0  0  0  0
    8.5190    1.4900   20.6990 O   0  0  0  0  0  0  0  0  0  0  0  0
    7.1800   -0.5230   20.6910 N   0  0  0  0  0  0  0  0  0  0  0  0
    6.4340    0.1320   19.8420 C   0  0  0  0  0  0  0  0  0  0  0  0
    5.1080    0.8260   20.1490 C   0  0  0  0  0  0  0  0  0  0  0  0
    4.3650    1.5820   19.0600 C   0  0  0  0  0  0  0  0  0  0  0  0
    5.0950    1.5400   17.7310 C   0  0  0  0  0  0  0  0  0  0  0  0
    6.2730    0.8730   17.5770 N   0  0  0  0  0  0  0  0  0  0  0  0
    6.9150    0.1980   18.5840 C   0  0  0  0  0  0  0  0  0  0  0  0
   10.7870   -1.0530   22.1570 C   0  0  0  0  0  0  0  0  0  0  0  0
   12.0330   -1.4690   22.9170 C   0  0  0  0  0  0  0  0  0  0  0  0
   13.0420   -1.9750   22.4670 O   0  0  0  0  0  0  0  0  0  0  0  0
   13.0110   -2.4030   21.1260 C   0  0  0  0  0  0  0  0  0  0  0  0
   12.0470   -1.2710   24.4130 C   0  0  0  0  0  0  0  0  0  0  0  0
   13.3900   -1.8150   25.2710 Cl  0  0  0  0  0  0  0  0  0  0  0  0
  1  2  1  0
  2  3  1  0
  3  4  2  0
  4  5  1  0
  5  6  1  0
  6  7  1  0
  7  8  2  0
  7  9  1  0
  9 10  1  0
 10 11  2  0
 11 12  1  0
 12 13  2  0
 13 14  1  0
 10 15  1  0
 14 15  2  0
  5 16  2  0
 16 17  1  0
 17 18  1  0
 18 19  1  0
  3 20  1  0
 17 20  2  0
 20 21  1  0
M  END
