pyridine_urea_14050
     RDKit          3D

 23 25  0  0  0  0  0  0  0  0999 V2000
    8.7330    0.7750   21.2500 O   0  0  0  0  0  0  0  0  0  0  0  0
    8.3220   -0.3270   21.5900 C   0  0  0  0  0  0  0  0  0  0  0  0
    7.1200   -0.8340   21.1470 N   0  0  0  0  0  0  0  0  0  0  0  0
    6.4880   -0.1200   20.0550 C   0  0  0  0  0  0  0  0  0  0  0  0
    5.2100    0.6440   20.3890 C   0  0  0  0  0  0  0  0  0  0  0  0
    4.5980    1.3730   19.2380 C   0  0  0  0  0  0  0  0  0  0  0  0
    5.2200    1.3020   18.0040 C   0  0  0  0  0  0  0  0  0  0  0  0
    6.3490    0.6090   17.7640 N   0  0  0  0  0  0  0  0  0  0  0  0
    6.9480   -0.0750   18.7620 C   0  0  0  0  0  0  0  0  0  0  0  0
    9.0250   -1.1570   22.4390 N   0  0  0  0  0  0  0  0  0  0  0  0
   10.4340   -0.7780   22.6330 C   0  0  0  0  0  0  0  0  0  0  0  0
   11.4290   -1.4780   22.0270 C   0  0  0  0  0  0  0  0  0  0  0  0
   12.7550   -0.8420   22.3830 C   0  0  0  0  0  0  0  0  0  0  0  0
   12.9700    0.2530   23.1790 C   0  0  0  0  0  0  0  0  0  0  0  0
   11.9290    0.9010   23.7650 C   0  0  0  0  0  0  0  0  0  0  0  0
   10.6930    0.4260   23.5230 C   0  0  0  0  0  0  0  0  0  0  0  0
    9.5090    1.1130   24.1500 C   0  0  0  0  0  0  0  0  0  0  0  0
    9.7650    2.1900   23.1870 C   0  0  0  0  0  0  0  0  0  0  0  0
    8.7910    3.3070   23.3260 C   0  0  0  0  0  0  0  0  0  0  0  0
    7.7640    3.2540   24.3030 C   0  0  0  0  0  0  0  0  0  0  0  0
    6.6500    4.5600   24.4330 Cl  0  0  0  0  0  0  0  0  0  0  0  0
    7.6330    2.1350   25.1820 C   0  0  0  0  0  0  0  0  0  0  0  0
    8.5190    1.0330   25.1160 C   0  0  0  0  0  0  0  0  0  0  0  0
  1  2  2  0
  2  3  1  0
  3  4  1  0
  4  5  2  0
  5  6  1  0
  6  7  2  0
  7  8  1  0
  4  9  1  0
  8  9  2  0
  2 10  1  0
 10 11  1  0
 11 12  2  0
 12 13  1  0
 13 14  2  0
 14 15  1  0
 11 16  1  0
 15 16  2  0
 16 17  1  0
 17 18  2  0
 18 19  1  0
 19 20  2  0
 20 21  1  0
 20 22  1  0
 17 23  1  0
 22 23  2  0
M  END
