pyridine_urea_14942
     RDKit          3D

 19 20  0  0  0  0  0  0  0  0999 V2000
   10.6510    1.4880   22.9030 C   0  0  0  0  0  0  0  0  0  0  0  0
   11.4180    0.1610   22.9750 C   0  0  0  0  0  0  0  0  0  0  0  0
   12.3840    1.3010   22.8510 C   0  0  0  0  0  0  0  0  0  0  0  0
   12.7120   -0.0800   22.9340 C   0  0  0  0  0  0  0  0  0  0  0  0
   11.5660   -1.1400   23.0670 C   0  0  0  0  0  0  0  0  0  0  0  0
   10.0280   -1.0850   23.1400 C   0  0  0  0  0  0  0  0  0  0  0  0
    9.3870   -1.1270   21.8030 N   0  0  0  0  0  0  0  0  0  0  0  0
    8.4910   -0.1600   21.3870 C   0  0  0  0  0  0  0  0  0  0  0  0
    8.7780    1.0220   21.2930 O   0  0  0  0  0  0  0  0  0  0  0  0
    7.1830   -0.7210   21.0570 N   0  0  0  0  0  0  0  0  0  0  0  0
    6.4310   -0.0240   20.0910 C   0  0  0  0  0  0  0  0  0  0  0  0
    5.2560    0.6940   20.3450 C   0  0  0  0  0  0  0  0  0  0  0  0
    4.6390    1.3400   19.2840 C   0  0  0  0  0  0  0  0  0  0  0  0
    5.1880    1.2650   18.0180 C   0  0  0  0  0  0  0  0  0  0  0  0
    6.3070    0.5800   17.7480 N   0  0  0  0  0  0  0  0  0  0  0  0
    6.8940   -0.0440   18.7870 C   0  0  0  0  0  0  0  0  0  0  0  0
   12.3920   -2.1070   23.1100 C   0  0  0  0  0  0  0  0  0  0  0  0
   11.3580   -2.9440   23.2300 F   0  0  0  0  0  0  0  0  0  0  0  0
   12.6730   -0.6990   22.9840 C   0  0  0  0  0  0  0  0  0  0  0  0
  1  2  1  0
  2  3  2  0
  3  4  1  0
  4  5  2  0
  5  6  1  0
  6  7  1  0
  7  8  1  0
  8  9  2  0
  8 10  1  0
 10 11  1  0
 11 12  2  0
 12 13  1  0
 13 14  2  0
 14 15  1  0
 11 16  1  0
 15 16  2  0
  5 17  1  0
 17 18  1  0
  2 19  1  0
 17 19  2  0
M  END
