pyridine_urea_9768
     RDKit          3D

 27 29  0  0  0  0  0  0  0  0999 V2000
    8.8430    1.1730   21.0780 O   0  0  0  0  0  0  0  0  0  0  0  0
    8.3160    0.0710   21.3020 C   0  0  0  0  0  0  0  0  0  0  0  0
    8.9240   -0.9680   21.9270 N   0  0  0  0  0  0  0  0  0  0  0  0
    9.2580   -0.7550   23.3010 C   0  0  0  0  0  0  0  0  0  0  0  0
   10.3240    0.1970   23.1980 C   0  0  0  0  0  0  0  0  0  0  0  0
   11.6780    0.9450   23.0390 C   0  0  0  0  0  0  0  0  0  0  0  0
   13.0380    0.3770   22.8140 C   0  0  0  0  0  0  0  0  0  0  0  0
   13.2160   -1.0600   22.7090 C   0  0  0  0  0  0  0  0  0  0  0  0
   11.9660   -1.8250   22.8590 C   0  0  0  0  0  0  0  0  0  0  0  0
   10.7290   -1.2250   23.0770 C   0  0  0  0  0  0  0  0  0  0  0  0
    9.8550   -2.4130   23.1680 C   0  0  0  0  0  0  0  0  0  0  0  0
    8.0810   -2.5890   23.3280 S   0  0  0  0  0  0  0  0  0  0  0  0
    7.8900   -3.9790   23.6830 O   0  0  0  0  0  0  0  0  0  0  0  0
    7.4520   -2.1070   22.1210 O   0  0  0  0  0  0  0  0  0  0  0  0
    7.4090   -1.6490   24.5950 N   0  0  0  0  0  0  0  0  0  0  0  0
    6.6970   -0.5000   24.1510 C   0  0  0  0  0  0  0  0  0  0  0  0
    5.5020   -0.1900   24.8150 C   0  0  0  0  0  0  0  0  0  0  0  0
    5.6360   -0.3400   26.2000 C   0  0  0  0  0  0  0  0  0  0  0  0
    6.2050   -1.6630   26.5810 C   0  0  0  0  0  0  0  0  0  0  0  0
    6.6080   -2.4100   25.4740 C   0  0  0  0  0  0  0  0  0  0  0  0
    7.0340   -0.2630   20.9540 N   0  0  0  0  0  0  0  0  0  0  0  0
    6.4060    0.2870   19.9350 C   0  0  0  0  0  0  0  0  0  0  0  0
    5.2450    1.0180   20.1780 C   0  0  0  0  0  0  0  0  0  0  0  0
    4.6100    1.6070   19.1110 C   0  0  0  0  0  0  0  0  0  0  0  0
    5.1470    1.4500   17.8390 C   0  0  0  0  0  0  0  0  0  0  0  0
    6.2530    0.7380   17.5980 N   0  0  0  0  0  0  0  0  0  0  0  0
    6.8550    0.1760   18.6500 C   0  0  0  0  0  0  0  0  0  0  0  0
  1  2  2  0
  2  3  1  0
  3  4  1  0
  4  5  1  0
  5  6  2  0
  6  7  1  0
  7  8  2  0
  8  9  1  0
  5 10  1  0
  9 10  2  0
 10 11  1  0
 12 11  1  0
 12 13  2  0
 12 14  2  0
 12 15  1  0
 15 16  1  0
 16 17  1  0
 17 18  1  0
 18 19  1  0
 15 20  1  0
 19 20  1  0
  2 21  1  0
 21 22  1  0
 22 23  2  0
 23 24  1  0
 24 25  2  0
 25 26  1  0
 22 27  1  0
 26 27  2  0
M  END
