pyridine_urea_6958
     RDKit          3D

 20 21  0  0  0  0  0  0  0  0999 V2000
    8.6830    0.9360   21.1450 O   0  0  0  0  0  0  0  0  0  0  0  0
    8.2930   -0.1510   21.5420 C   0  0  0  0  0  0  0  0  0  0  0  0
    7.1230   -0.7160   21.0730 N   0  0  0  0  0  0  0  0  0  0  0  0
    6.3800   -0.0370   20.0910 C   0  0  0  0  0  0  0  0  0  0  0  0
    5.1780    0.6400   20.2880 C   0  0  0  0  0  0  0  0  0  0  0  0
    4.5640    1.2900   19.2130 C   0  0  0  0  0  0  0  0  0  0  0  0
    5.1770    1.2430   17.9770 C   0  0  0  0  0  0  0  0  0  0  0  0
    6.3310    0.5930   17.7610 N   0  0  0  0  0  0  0  0  0  0  0  0
    6.8960   -0.0270   18.8080 C   0  0  0  0  0  0  0  0  0  0  0  0
    8.9830   -0.9140   22.4700 N   0  0  0  0  0  0  0  0  0  0  0  0
   10.3880   -0.8500   22.5120 C   0  0  2  0  0  0  0  0  0  0  0  0
   11.1300   -1.6150   23.3840 C   0  0  0  0  0  0  0  0  0  0  0  0
   12.5230   -1.4430   23.2990 C   0  0  0  0  0  0  0  0  0  0  0  0
   13.1510   -2.6730   23.6970 O   0  0  0  0  0  0  0  0  0  0  0  0
   10.7470    0.4810   22.6220 C   0  0  0  0  0  0  0  0  0  0  0  0
   10.1550    1.6730   22.5970 C   0  0  0  0  0  0  0  0  0  0  0  0
   11.3010    2.6920   22.7470 C   0  0  0  0  0  0  0  0  0  0  0  0
   12.7180    2.2400   22.8950 N   0  0  0  0  0  0  0  0  0  0  0  0
   13.1210    0.8650   22.9070 C   0  0  0  0  0  0  0  0  0  0  0  0
   11.8740    1.1350   22.7820 C   0  0  0  0  0  0  0  0  0  0  0  0
  1  2  2  0
  2  3  1  0
  3  4  1  0
  4  5  2  0
  5  6  1  0
  6  7  2  0
  7  8  1  0
  4  9  1  0
  8  9  2  0
  2 10  1  0
 10 11  1  0
 11 12  1  1
 12 13  1  0
 13 14  1  0
 11 15  1  0
 15 16  2  0
 16 17  1  0
 17 18  2  0
 18 19  1  0
 15 20  1  0
 19 20  2  0
M  END
