pyridine_urea_7381
     RDKit          3D

 18 19  0  0  0  0  0  0  0  0999 V2000
    8.9760    0.8130   21.3470 O   0  0  0  0  0  0  0  0  0  0  0  0
    8.4150   -0.2100   21.7100 C   0  0  0  0  0  0  0  0  0  0  0  0
    8.8250   -1.0340   22.7400 N   0  0  0  0  0  0  0  0  0  0  0  0
    8.7920   -2.4550   22.8040 C   0  0  0  0  0  0  0  0  0  0  0  0
    7.5970   -3.1340   22.5190 C   0  0  0  0  0  0  0  0  0  0  0  0
    6.6910   -3.3820   23.5380 N   0  0  0  0  0  0  0  0  0  0  0  0
    5.6070   -2.4830   23.9150 C   0  0  0  0  0  0  0  0  0  0  0  0
    4.5870   -3.3300   24.2390 C   0  0  0  0  0  0  0  0  0  0  0  0
    5.0000   -4.6550   24.1800 C   0  0  2  0  0  0  0  0  0  0  0  0
    4.7650   -5.2760   25.2080 O   0  0  0  0  0  0  0  0  0  0  0  0
    6.3420   -4.7260   23.7330 C   0  0  0  0  0  0  0  0  0  0  0  0
    7.2490   -0.6440   21.1130 N   0  0  0  0  0  0  0  0  0  0  0  0
    6.5560    0.0030   20.0780 C   0  0  0  0  0  0  0  0  0  0  0  0
    5.4090    0.7640   20.3880 C   0  0  0  0  0  0  0  0  0  0  0  0
    4.7420    1.4020   19.3530 C   0  0  0  0  0  0  0  0  0  0  0  0
    5.1940    1.2910   18.0570 C   0  0  0  0  0  0  0  0  0  0  0  0
    6.2720    0.5760   17.7260 N   0  0  0  0  0  0  0  0  0  0  0  0
    6.9280   -0.0520   18.7380 C   0  0  0  0  0  0  0  0  0  0  0  0
  1  2  2  0
  2  3  1  0
  3  4  1  0
  4  5  1  0
  5  6  1  0
  6  7  1  0
  7  8  1  0
  8  9  1  0
  9 10  1  1
  6 11  1  0
  9 11  1  0
  2 12  1  0
 12 13  1  0
 13 14  2  0
 14 15  1  0
 15 16  2  0
 16 17  1  0
 13 18  1  0
 17 18  2  0
M  END
