pyridine_urea_1576
     RDKit          3D

 19 20  0  0  0  0  0  0  0  0999 V2000
    8.9140    1.1830   21.1940 O   0  0  0  0  0  0  0  0  0  0  0  0
    8.4910    0.0640   21.5130 C   0  0  0  0  0  0  0  0  0  0  0  0
    9.0760   -0.7630   22.4410 N   0  0  0  0  0  0  0  0  0  0  0  0
   10.4290   -0.7220   22.8260 C   0  0  0  0  0  0  0  0  0  0  0  0
   10.9740    0.5410   23.0900 C   0  0  0  0  0  0  0  0  0  0  0  0
   10.2150    1.7090   22.9370 C   0  0  0  0  0  0  0  0  0  0  0  0
   10.8320    2.9410   23.1310 C   0  0  0  0  0  0  0  0  0  0  0  0
   12.1280    3.1330   22.6390 C   0  0  0  0  0  0  0  0  0  0  0  0
   12.8020    4.3430   22.7960 C   0  0  0  0  0  0  0  0  0  0  0  0
   12.0890    5.4820   23.5360 C   0  0  0  0  0  0  0  0  0  0  0  0
   10.8180    5.2280   23.9990 C   0  0  0  0  0  0  0  0  0  0  0  0
   10.1850    3.9980   23.8130 C   0  0  0  0  0  0  0  0  0  0  0  0
    7.3540   -0.5120   20.9910 N   0  0  0  0  0  0  0  0  0  0  0  0
    6.5280    0.1220   20.0560 C   0  0  0  0  0  0  0  0  0  0  0  0
    5.3540    0.8190   20.3510 C   0  0  0  0  0  0  0  0  0  0  0  0
    4.6200    1.4290   19.3560 C   0  0  0  0  0  0  0  0  0  0  0  0
    5.1680    1.2860   17.9800 C   0  0  0  0  0  0  0  0  0  0  0  0
    6.2810    0.6130   17.6860 N   0  0  0  0  0  0  0  0  0  0  0  0
    6.9230    0.0530   18.7270 C   0  0  0  0  0  0  0  0  0  0  0  0
  1  2  2  0
  2  3  1  0
  3  4  1  0
  4  5  1  0
  5  6  3  0
  6  7  1  0
  7  8  2  0
  8  9  1  0
  9 10  2  0
 10 11  1  0
  7 12  1  0
 11 12  2  0
  2 13  1  0
 13 14  1  0
 14 15  2  0
 15 16  1  0
 16 17  2  0
 17 18  1  0
 14 19  1  0
 18 19  2  0
M  END
