pyridine_urea_14255
     RDKit          3D

 22 23  0  0  0  0  0  0  0  0999 V2000
    9.2720   -5.9720   26.5650 C   0  0  0  0  0  0  0  0  0  0  0  0
    9.6330   -5.0850   25.5060 O   0  0  0  0  0  0  0  0  0  0  0  0
   10.3520   -4.0260   25.9580 C   0  0  0  0  0  0  0  0  0  0  0  0
   11.3240   -3.4530   25.1300 C   0  0  0  0  0  0  0  0  0  0  0  0
   11.3050   -2.0840   24.8650 C   0  0  0  0  0  0  0  0  0  0  0  0
   12.5400   -1.4100   24.7320 C   0  0  0  0  0  0  0  0  0  0  0  0
   12.7670   -0.5360   23.6320 N   0  0  0  0  0  0  0  0  0  0  0  0
   12.8160   -1.0690   22.3720 C   0  0  0  0  0  0  0  0  0  0  0  0
   11.3810   -1.5140   22.1180 C   0  0  0  0  0  0  0  0  0  0  0  0
   10.3510   -0.4260   22.4540 C   0  0  0  0  0  0  0  0  0  0  0  0
    8.9800   -0.8560   22.2650 N   0  0  0  0  0  0  0  0  0  0  0  0
    8.1010   -0.2120   21.4320 C   0  0  0  0  0  0  0  0  0  0  0  0
    8.4850    0.8930   21.0740 O   0  0  0  0  0  0  0  0  0  0  0  0
    6.9980   -0.8740   21.1540 N   0  0  0  0  0  0  0  0  0  0  0  0
    6.4270   -0.1470   20.0850 C   0  0  0  0  0  0  0  0  0  0  0  0
    5.2580    0.5930   20.3180 C   0  0  0  0  0  0  0  0  0  0  0  0
    4.6760    1.3200   19.2810 C   0  0  0  0  0  0  0  0  0  0  0  0
    5.2750    1.2930   18.0390 C   0  0  0  0  0  0  0  0  0  0  0  0
    6.3920    0.5930   17.7860 N   0  0  0  0  0  0  0  0  0  0  0  0
    6.9420   -0.1100   18.8030 C   0  0  0  0  0  0  0  0  0  0  0  0
   10.5770    0.2910   23.6160 C   0  0  0  0  0  0  0  0  0  0  0  0
   11.9170    0.6630   23.7150 C   0  0  0  0  0  0  0  0  0  0  0  0
  1  2  1  0
  2  3  1  0
  3  4  1  0
  4  5  1  0
  5  6  1  0
  6  7  1  0
  7  8  1  0
  8  9  1  0
  9 10  1  0
 10 11  1  0
 11 12  1  0
 12 13  2  0
 12 14  1  0
 14 15  1  0
 15 16  2  0
 16 17  1  0
 17 18  2  0
 18 19  1  0
 15 20  1  0
 19 20  2  0
 10 21  1  0
  7 22  1  0
 21 22  1  0
M  END
