pyridine_urea_4304
     RDKit          3D

 24 26  0  0  0  0  0  0  0  0999 V2000
    8.7070    0.7680   21.2150 O   0  0  0  0  0  0  0  0  0  0  0  0
    8.3310   -0.3710   21.4610 C   0  0  0  0  0  0  0  0  0  0  0  0
    7.1010   -0.8560   21.0780 N   0  0  0  0  0  0  0  0  0  0  0  0
    6.4500   -0.1150   20.0320 C   0  0  0  0  0  0  0  0  0  0  0  0
    5.1720    0.6450   20.3840 C   0  0  0  0  0  0  0  0  0  0  0  0
    4.4960    1.4400   19.2670 C   0  0  0  0  0  0  0  0  0  0  0  0
    5.1890    1.3840   17.9050 C   0  0  0  0  0  0  0  0  0  0  0  0
    6.3580    0.6320   17.7500 N   0  0  0  0  0  0  0  0  0  0  0  0
    6.9500   -0.0780   18.7550 C   0  0  0  0  0  0  0  0  0  0  0  0
    9.0880   -1.2890   22.1500 N   0  0  0  0  0  0  0  0  0  0  0  0
   10.3920   -0.9030   22.5020 C   0  0  0  0  0  0  0  0  0  0  0  0
   11.5550   -1.5180   22.0660 C   0  0  0  0  0  0  0  0  0  0  0  0
   12.8260   -1.1180   22.4120 C   0  0  0  0  0  0  0  0  0  0  0  0
   12.9400   -0.0430   23.2470 C   0  0  0  0  0  0  0  0  0  0  0  0
   11.8270    0.6170   23.7240 C   0  0  0  0  0  0  0  0  0  0  0  0
   10.5340    0.2030   23.3560 C   0  0  0  0  0  0  0  0  0  0  0  0
    9.3570    0.8100   23.7520 N   0  0  0  0  0  0  0  0  0  0  0  0
    8.8870    0.6310   25.1330 C   0  0  0  0  0  0  0  0  0  0  0  0
    9.4240   -0.3290   25.9580 C   0  0  0  0  0  0  0  0  0  0  0  0
    8.9480   -0.4970   27.3410 C   0  0  0  0  0  0  0  0  0  0  0  0
    7.9450    0.3110   27.8520 C   0  0  0  0  0  0  0  0  0  0  0  0
    7.4110    1.2830   26.9980 C   0  0  0  0  0  0  0  0  0  0  0  0
    7.8600    1.4510   25.6630 C   0  0  0  0  0  0  0  0  0  0  0  0
    7.1120    2.6940   24.7150 Cl  0  0  0  0  0  0  0  0  0  0  0  0
  1  2  2  0
  2  3  1  0
  3  4  1  0
  4  5  2  0
  5  6  1  0
  6  7  2  0
  7  8  1  0
  4  9  1  0
  8  9  2  0
  2 10  1  0
 10 11  1  0
 11 12  2  0
 12 13  1  0
 13 14  2  0
 14 15  1  0
 11 16  1  0
 15 16  2  0
 16 17  1  0
 17 18  1  0
 18 19  2  0
 19 20  1  0
 20 21  2  0
 21 22  1  0
 18 23  1  0
 22 23  2  0
 23 24  1  0
M  END
