pyridine_urea_9804
     RDKit          3D

 25 27  0  0  0  0  0  0  0  0999 V2000
   13.2060   -2.7310   25.2400 C   0  0  0  0  0  0  0  0  0  0  0  0
   13.4860   -2.0330   23.9210 C   0  0  1  0  0  0  0  0  0  0  0  0
   12.6460   -2.6220   22.8450 C   0  0  0  0  0  0  0  0  0  0  0  0
   12.1950   -1.6620   22.1360 N   0  0  0  0  0  0  0  0  0  0  0  0
   11.3300   -1.1670   22.9390 C   0  0  0  0  0  0  0  0  0  0  0  0
   11.4480   -0.9600   24.4650 C   0  0  0  0  0  0  0  0  0  0  0  0
   10.2930   -0.3910   25.2670 C   0  0  0  0  0  0  0  0  0  0  0  0
   10.3410   -0.2320   26.5940 F   0  0  0  0  0  0  0  0  0  0  0  0
    9.0370   -0.0070   24.5840 C   0  0  0  0  0  0  0  0  0  0  0  0
    9.0070   -0.2150   23.2420 C   0  0  0  0  0  0  0  0  0  0  0  0
    7.8940    0.1040   22.6260 N   0  0  0  0  0  0  0  0  0  0  0  0
    7.8950    0.3850   21.3030 C   0  0  0  0  0  0  0  0  0  0  0  0
    8.5350    1.3230   20.8250 O   0  0  0  0  0  0  0  0  0  0  0  0
    7.1000   -0.4950   20.6880 N   0  0  0  0  0  0  0  0  0  0  0  0
    6.3440    0.1550   19.8360 C   0  0  0  0  0  0  0  0  0  0  0  0
    5.1140    0.7430   20.1180 C   0  0  0  0  0  0  0  0  0  0  0  0
    4.4570    1.4190   19.1020 C   0  0  0  0  0  0  0  0  0  0  0  0
    5.1240    1.4640   17.7840 C   0  0  0  0  0  0  0  0  0  0  0  0
    6.3020    0.8770   17.5530 N   0  0  0  0  0  0  0  0  0  0  0  0
    6.8670    0.2450   18.5780 C   0  0  0  0  0  0  0  0  0  0  0  0
    9.9860   -0.7270   22.4330 C   0  0  0  0  0  0  0  0  0  0  0  0
   13.3480   -1.0510   21.9210 C   0  0  0  0  0  0  0  0  0  0  0  0
   13.4030   -0.0880   22.8730 C   0  0  1  0  0  0  0  0  0  0  0  0
   12.3410    0.8010   23.0640 C   0  0  0  0  0  0  0  0  0  0  0  0
   13.5120   -0.7500   23.9250 O   0  0  0  0  0  0  0  0  0  0  0  0
  2  1  1  1
  2  3  1  0
  3  4  1  0
  4  5  1  0
  5  6  2  0
  6  7  1  0
  7  8  1  0
  7  9  2  0
  9 10  1  0
 10 11  1  0
 11 12  1  0
 12 13  2  0
 12 14  1  0
 14 15  1  0
 15 16  2  0
 16 17  1  0
 17 18  2  0
 18 19  1  0
 15 20  1  0
 19 20  2  0
  5 21  1  0
 10 21  2  0
  4 22  1  0
 22 23  1  0
 23 24  1  1
  2 25  1  0
 23 25  1  0
M  END
