pyridine_urea_14466
     RDKit          3D

 23 25  0  0  0  0  0  0  0  0999 V2000
    8.8200    1.5160   21.0070 O   0  0  0  0  0  0  0  0  0  0  0  0
    8.4730    0.4840   21.5720 C   0  0  0  0  0  0  0  0  0  0  0  0
    7.4140   -0.3850   21.0660 N   0  0  0  0  0  0  0  0  0  0  0  0
    6.6270    0.1640   20.0710 C   0  0  0  0  0  0  0  0  0  0  0  0
    5.4800    0.8900   20.3960 C   0  0  0  0  0  0  0  0  0  0  0  0
    4.7280    1.4430   19.3560 C   0  0  0  0  0  0  0  0  0  0  0  0
    5.1520    1.2490   18.0420 C   0  0  0  0  0  0  0  0  0  0  0  0
    6.2450    0.5460   17.7200 N   0  0  0  0  0  0  0  0  0  0  0  0
    6.9600    0.0150   18.7420 C   0  0  0  0  0  0  0  0  0  0  0  0
    9.0060    0.0230   22.7360 N   0  0  0  0  0  0  0  0  0  0  0  0
    9.5220   -1.3080   22.8470 C   0  0  0  0  0  0  0  0  0  0  0  0
    8.4250   -2.2490   23.4260 C   0  0  0  0  0  0  0  0  0  0  0  0
    7.7110   -1.8320   24.5510 C   0  0  0  0  0  0  0  0  0  0  0  0
    6.6910   -2.5830   25.1630 C   0  0  0  0  0  0  0  0  0  0  0  0
    6.3140   -3.8250   24.6630 C   0  0  0  0  0  0  0  0  0  0  0  0
    6.9530   -4.3160   23.5590 C   0  0  0  0  0  0  0  0  0  0  0  0
    6.6490   -5.5370   22.9740 C   0  0  0  0  0  0  0  0  0  0  0  0
    6.3790   -5.5330   21.6600 F   0  0  0  0  0  0  0  0  0  0  0  0
    5.5690   -6.1630   23.5060 F   0  0  0  0  0  0  0  0  0  0  0  0
    7.6670   -6.3930   23.1220 F   0  0  0  0  0  0  0  0  0  0  0  0
    8.0780   -3.4980   22.8880 C   0  0  0  0  0  0  0  0  0  0  0  0
   10.7610   -1.1710   23.7610 C   0  0  0  0  0  0  0  0  0  0  0  0
   10.8400   -1.7310   22.5600 C   0  0  0  0  0  0  0  0  0  0  0  0
  1  2  2  0
  2  3  1  0
  3  4  1  0
  4  5  2  0
  5  6  1  0
  6  7  2  0
  7  8  1  0
  4  9  1  0
  8  9  2  0
  2 10  1  0
 11 10  1  0
 11 12  1  0
 12 13  2  0
 13 14  1  0
 14 15  2  0
 15 16  1  0
 16 17  1  0
 17 18  1  0
 17 19  1  0
 17 20  1  0
 12 21  1  0
 16 21  2  0
 11 22  1  0
 11 23  1  0
 22 23  1  0
M  END
