pyridine_urea_15113
     RDKit          3D

 19 20  0  0  0  0  0  0  0  0999 V2000
   10.0570    0.6340   24.3940 C   0  0  0  0  0  0  0  0  0  0  0  0
   10.1820    0.1330   22.9530 C   0  0  2  0  0  0  0  0  0  0  0  0
    9.0270   -0.5970   22.4740 N   0  0  0  0  0  0  0  0  0  0  0  0
    8.3670    0.0920   21.4940 C   0  0  0  0  0  0  0  0  0  0  0  0
    8.7560    1.2050   21.1140 O   0  0  0  0  0  0  0  0  0  0  0  0
    7.2570   -0.5580   21.0260 N   0  0  0  0  0  0  0  0  0  0  0  0
    6.5250    0.0490   20.0150 C   0  0  0  0  0  0  0  0  0  0  0  0
    5.2230    0.7630   20.3620 C   0  0  0  0  0  0  0  0  0  0  0  0
    4.4580    1.4450   19.2440 C   0  0  0  0  0  0  0  0  0  0  0  0
    5.1380    1.3070   17.8920 C   0  0  0  0  0  0  0  0  0  0  0  0
    6.2880    0.6420   17.6870 N   0  0  0  0  0  0  0  0  0  0  0  0
    6.9300    0.0500   18.7080 C   0  0  0  0  0  0  0  0  0  0  0  0
   11.4650   -0.6490   22.7070 C   0  0  0  0  0  0  0  0  0  0  0  0
   11.7090   -1.7710   22.4100 C   0  0  0  0  0  0  0  0  0  0  0  0
   12.9340   -1.2150   22.4990 C   0  0  0  0  0  0  0  0  0  0  0  0
   11.9470    0.0110   22.8750 C   0  0  0  0  0  0  0  0  0  0  0  0
   11.7360    1.3150   23.2290 F   0  0  0  0  0  0  0  0  0  0  0  0
   13.1420    0.8450   23.0130 C   0  0  0  0  0  0  0  0  0  0  0  0
   12.9230   -0.3540   22.7180 C   0  0  0  0  0  0  0  0  0  0  0  0
  2  1  1  1
  2  3  1  0
  3  4  1  0
  4  5  2  0
  4  6  1  0
  6  7  1  0
  7  8  2  0
  8  9  1  0
  9 10  2  0
 10 11  1  0
  7 12  1  0
 11 12  2  0
  2 13  1  0
 13 14  2  0
 14 15  1  0
 15 16  2  0
 16 17  1  0
 16 18  1  0
 13 19  1  0
 18 19  2  0
M  END
