pyridine_urea_366
     RDKit          3D

 26 28  0  0  0  0  0  0  0  0999 V2000
    8.6550    0.4600   21.1740 O   0  0  0  0  0  0  0  0  0  0  0  0
    8.2440   -0.6580   21.4540 C   0  0  0  0  0  0  0  0  0  0  0  0
    9.0320   -1.5190   22.2180 N   0  0  0  0  0  0  0  0  0  0  0  0
   10.2140   -0.7440   22.4670 C   0  0  0  0  0  0  0  0  0  0  0  0
    9.8380    0.6610   22.8070 C   0  0  0  0  0  0  0  0  0  0  0  0
   10.9000    1.5980   23.0150 C   0  0  0  0  0  0  0  0  0  0  0  0
   12.1990    1.2580   22.9310 C   0  0  0  0  0  0  0  0  0  0  0  0
   13.0460    2.2330   23.1060 N   0  0  0  0  0  0  0  0  0  0  0  0
   12.4760    3.3950   22.6380 C   0  0  0  0  0  0  0  0  0  0  0  0
   12.0510    3.5830   21.3780 O   0  0  0  0  0  0  0  0  0  0  0  0
   12.3620    4.3800   23.5400 N   0  0  0  0  0  0  0  0  0  0  0  0
   13.0670    5.6000   23.2280 C   0  0  0  0  0  0  0  0  0  0  0  0
   12.7900    5.9670   21.9970 C   0  0  0  0  0  0  0  0  0  0  0  0
   11.3520    6.1610   22.4330 C   0  0  0  0  0  0  0  0  0  0  0  0
   11.2020    6.7720   23.6720 C   0  0  0  0  0  0  0  0  0  0  0  0
   11.0660    5.8490   24.6920 C   0  0  0  0  0  0  0  0  0  0  0  0
   11.1250    4.5800   24.1470 C   0  0  0  0  0  0  0  0  0  0  0  0
   12.6870   -0.1040   22.6380 C   0  0  0  0  0  0  0  0  0  0  0  0
   11.6790   -1.2070   22.3800 C   0  0  0  0  0  0  0  0  0  0  0  0
    7.0220   -1.0890   21.0290 N   0  0  0  0  0  0  0  0  0  0  0  0
    6.3500   -0.2910   20.0320 C   0  0  0  0  0  0  0  0  0  0  0  0
    5.1360    0.3770   20.2840 C   0  0  0  0  0  0  0  0  0  0  0  0
    4.5590    1.1430   19.2690 C   0  0  0  0  0  0  0  0  0  0  0  0
    5.1900    1.2300   18.0460 C   0  0  0  0  0  0  0  0  0  0  0  0
    6.3410    0.6110   17.7630 N   0  0  0  0  0  0  0  0  0  0  0  0
    6.8870   -0.1310   18.7570 C   0  0  0  0  0  0  0  0  0  0  0  0
  1  2  2  0
  2  3  1  0
  3  4  1  0
  4  5  2  0
  5  6  1  0
  6  7  2  0
  7  8  1  0
  8  9  1  0
  9 10  2  0
  9 11  1  0
 11 12  1  0
 12 13  1  0
 13 14  1  0
 14 15  1  0
 15 16  1  0
 11 17  1  0
 16 17  1  0
  7 18  1  0
  4 19  1  0
 18 19  2  0
  2 20  1  0
 20 21  1  0
 21 22  2  0
 22 23  1  0
 23 24  2  0
 24 25  1  0
 21 26  1  0
 25 26  2  0
M  END
