pyridine_urea_11086
     RDKit          3D

 18 19  0  0  0  0  0  0  0  0999 V2000
    9.4590    0.7700   24.5910 C   0  0  0  0  0  0  0  0  0  0  0  0
   10.6590    0.6070   23.9210 N   0  0  0  0  0  0  0  0  0  0  0  0
   11.6560    1.5470   23.8340 C   0  0  0  0  0  0  0  0  0  0  0  0
   12.6900    0.8770   23.0490 C   0  0  0  0  0  0  0  0  0  0  0  0
   12.3330   -0.5070   22.6060 C   0  0  0  0  0  0  0  0  0  0  0  0
   11.5990   -1.6590   22.4430 C   0  0  0  0  0  0  0  0  0  0  0  0
   10.0890   -1.8000   22.8060 C   0  0  0  0  0  0  0  0  0  0  0  0
    9.4420   -1.3800   21.6510 N   0  0  0  0  0  0  0  0  0  0  0  0
    8.5990   -0.2650   21.4690 C   0  0  0  0  0  0  0  0  0  0  0  0
    9.0550    1.0810   21.5560 O   0  0  0  0  0  0  0  0  0  0  0  0
    7.3060   -0.6160   21.1460 N   0  0  0  0  0  0  0  0  0  0  0  0
    6.5970    0.0080   20.1090 C   0  0  0  0  0  0  0  0  0  0  0  0
    5.3550    0.7880   20.4070 C   0  0  0  0  0  0  0  0  0  0  0  0
    4.7030    1.4080   19.3500 C   0  0  0  0  0  0  0  0  0  0  0  0
    5.1080    1.3670   18.0210 C   0  0  0  0  0  0  0  0  0  0  0  0
    6.3230    0.5890   17.7280 N   0  0  0  0  0  0  0  0  0  0  0  0
    6.9690   -0.0280   18.7840 C   0  0  0  0  0  0  0  0  0  0  0  0
   11.0530   -0.5160   23.2320 N   0  0  0  0  0  0  0  0  0  0  0  0
  1  2  1  0
  2  3  1  0
  3  4  2  0
  4  5  1  0
  5  6  1  0
  6  7  1  0
  7  8  1  0
  8  9  1  0
  9 10  2  0
  9 11  1  0
 11 12  1  0
 12 13  2  0
 13 14  1  0
 14 15  2  0
 15 16  1  0
 12 17  1  0
 16 17  2  0
  2 18  1  0
  5 18  2  0
M  END
