pyridine_urea_23
     RDKit          3D

 19 20  0  0  0  0  0  0  0  0999 V2000
   13.2220   -2.8240   21.1850 C   0  0  0  0  0  0  0  0  0  0  0  0
   13.4120   -2.2050   22.4510 O   0  0  0  0  0  0  0  0  0  0  0  0
   12.6070   -1.0580   22.4360 C   0  0  1  0  0  0  0  0  0  0  0  0
   11.2390   -1.6050   22.0960 C   0  0  0  0  0  0  0  0  0  0  0  0
   10.3060   -0.5260   22.2680 C   0  0  1  0  0  0  0  0  0  0  0  0
    8.9190   -0.8900   22.3140 N   0  0  0  0  0  0  0  0  0  0  0  0
    8.1510   -0.1110   21.4830 C   0  0  0  0  0  0  0  0  0  0  0  0
    8.5060    1.0150   21.1680 O   0  0  0  0  0  0  0  0  0  0  0  0
    7.0230   -0.7110   21.0650 N   0  0  0  0  0  0  0  0  0  0  0  0
    6.4340   -0.0640   20.0260 C   0  0  0  0  0  0  0  0  0  0  0  0
    5.1770    0.6910   20.2770 C   0  0  0  0  0  0  0  0  0  0  0  0
    4.4770    1.3970   19.3380 C   0  0  0  0  0  0  0  0  0  0  0  0
    5.2230    1.2600   18.0210 C   0  0  0  0  0  0  0  0  0  0  0  0
    6.3500    0.5830   17.7710 N   0  0  0  0  0  0  0  0  0  0  0  0
    6.9350   -0.0650   18.7660 C   0  0  0  0  0  0  0  0  0  0  0  0
   10.8100    0.0600   23.5330 C   0  0  0  0  0  0  0  0  0  0  0  0
   12.0700   -0.5300   23.7890 C   0  0  1  0  0  0  0  0  0  0  0  0
   11.9240   -1.6370   24.6840 O   0  0  0  0  0  0  0  0  0  0  0  0
   13.1680   -2.2520   25.0150 C   0  0  0  0  0  0  0  0  0  0  0  0
  1  2  1  0
  3  2  1  1
  3  4  1  0
  4  5  1  0
  5  6  1  1
  6  7  1  0
  7  8  2  0
  7  9  1  0
  9 10  1  0
 10 11  2  0
 11 12  1  0
 12 13  2  0
 13 14  1  0
 10 15  1  0
 14 15  2  0
  5 16  1  0
  3 17  1  0
 16 17  1  0
 17 18  1  1
 18 19  1  0
M  END
