pyridine_urea_4521
     RDKit          3D

 23 24  0  0  0  0  0  0  0  0999 V2000
    8.6560    1.2660   21.0080 O   0  0  0  0  0  0  0  0  0  0  0  0
    8.3520    0.1340   21.4060 C   0  0  0  0  0  0  0  0  0  0  0  0
    9.0950   -0.5330   22.3280 N   0  0  0  0  0  0  0  0  0  0  0  0
   10.1110    0.2960   22.9080 C   0  0  0  0  0  0  0  0  0  0  0  0
   11.4390   -0.3910   23.0450 C   0  0  0  0  0  0  0  0  0  0  0  0
   12.5960    0.5780   23.0200 C   0  0  0  0  0  0  0  0  0  0  0  0
   13.6040    0.1050   22.1310 N   0  0  0  0  0  0  0  0  0  0  0  0
   13.4060   -1.0600   21.4720 C   0  0  0  0  0  0  0  0  0  0  0  0
   13.8110   -1.4360   20.4040 O   0  0  0  0  0  0  0  0  0  0  0  0
   12.5890   -1.8360   22.3510 C   0  0  0  0  0  0  0  0  0  0  0  0
   11.1690   -2.2810   22.0970 C   0  0  0  0  0  0  0  0  0  0  0  0
   10.6780   -2.9830   23.1920 C   0  0  0  0  0  0  0  0  0  0  0  0
   11.4900   -3.1960   24.3220 C   0  0  0  0  0  0  0  0  0  0  0  0
   12.7640   -2.7200   24.4030 C   0  0  0  0  0  0  0  0  0  0  0  0
   13.9030   -2.9160   25.8290 Br  0  0  0  0  0  0  0  0  0  0  0  0
   13.2640   -2.0720   23.4390 C   0  0  0  0  0  0  0  0  0  0  0  0
    7.2380   -0.5590   20.9850 N   0  0  0  0  0  0  0  0  0  0  0  0
    6.4900    0.0780   20.0810 C   0  0  0  0  0  0  0  0  0  0  0  0
    5.2440    0.8510   20.3750 C   0  0  0  0  0  0  0  0  0  0  0  0
    4.5970    1.4790   19.3230 C   0  0  0  0  0  0  0  0  0  0  0  0
    5.1020    1.4020   17.9390 C   0  0  0  0  0  0  0  0  0  0  0  0
    6.3020    0.6480   17.6060 N   0  0  0  0  0  0  0  0  0  0  0  0
    6.9310    0.0140   18.7690 C   0  0  0  0  0  0  0  0  0  0  0  0
  1  2  2  0
  2  3  1  0
  3  4  1  0
  4  5  1  0
  5  6  1  0
  6  7  1  0
  7  8  1  0
  8  9  2  0
  8 10  1  0
 10 11  2  0
 11 12  1  0
 12 13  2  0
 13 14  1  0
 14 15  1  0
 10 16  1  0
 14 16  2  0
  2 17  1  0
 17 18  1  0
 18 19  2  0
 19 20  1  0
 20 21  2  0
 21 22  1  0
 18 23  1  0
 22 23  2  0
M  END
