pyridine_urea_13090
     RDKit          3D

 18 19  0  0  0  0  0  0  0  0999 V2000
   13.6750   -2.5750   24.6690 C   0  0  0  0  0  0  0  0  0  0  0  0
   13.7110   -1.3940   23.7360 C   0  0  0  0  0  0  0  0  0  0  0  0
   12.5170   -0.9100   23.4140 C   0  0  0  0  0  0  0  0  0  0  0  0
   12.1630    0.4330   23.2710 C   0  0  0  0  0  0  0  0  0  0  0  0
   10.8500    0.7300   22.9770 C   0  0  0  0  0  0  0  0  0  0  0  0
    9.9230   -0.4410   22.8390 C   0  0  0  0  0  0  0  0  0  0  0  0
    8.5560   -0.2670   22.5780 N   0  0  0  0  0  0  0  0  0  0  0  0
    8.1860    0.3360   21.4480 C   0  0  0  0  0  0  0  0  0  0  0  0
    8.7350    1.3590   21.0250 O   0  0  0  0  0  0  0  0  0  0  0  0
    7.0880   -0.4060   20.9050 N   0  0  0  0  0  0  0  0  0  0  0  0
    6.4310    0.1880   19.8960 C   0  0  0  0  0  0  0  0  0  0  0  0
    5.2690    0.9000   20.1710 C   0  0  0  0  0  0  0  0  0  0  0  0
    4.5990    1.5300   19.1440 C   0  0  0  0  0  0  0  0  0  0  0  0
    5.1320    1.4160   17.8680 C   0  0  0  0  0  0  0  0  0  0  0  0
    6.2450    0.7240   17.5900 N   0  0  0  0  0  0  0  0  0  0  0  0
    6.8700    0.1260   18.6110 C   0  0  0  0  0  0  0  0  0  0  0  0
   10.4590   -1.7870   22.9930 C   0  0  0  0  0  0  0  0  0  0  0  0
   11.7380   -2.0430   23.2780 C   0  0  0  0  0  0  0  0  0  0  0  0
  1  2  3  0
  2  3  1  0
  3  4  2  0
  4  5  1  0
  5  6  2  0
  6  7  1  0
  7  8  1  0
  8  9  2  0
  8 10  1  0
 10 11  1  0
 11 12  2  0
 12 13  1  0
 13 14  2  0
 14 15  1  0
 11 16  1  0
 15 16  2  0
  6 17  1  0
  3 18  1  0
 17 18  2  0
M  END
