pyridine_urea_3442
     RDKit          3D

 19 20  0  0  0  0  0  0  0  0999 V2000
    1.9610    2.4020   20.1240 C   0  0  0  0  0  0  0  0  0  0  0  0
    3.0240    1.5990   19.6220 O   0  0  0  0  0  0  0  0  0  0  0  0
    3.9350    2.3450   18.8010 C   0  0  0  0  0  0  0  0  0  0  0  0
    4.9750    1.4420   18.1660 C   0  0  0  0  0  0  0  0  0  0  0  0
    4.8810    1.4100   19.5450 N   0  0  0  0  0  0  0  0  0  0  0  0
    5.6710    0.6460   20.1790 C   0  0  0  0  0  0  0  0  0  0  0  0
    6.7310   -0.3000   20.0540 C   0  0  0  0  0  0  0  0  0  0  0  0
    7.3890   -0.9480   21.0880 N   0  0  0  0  0  0  0  0  0  0  0  0
    8.4500   -0.2840   21.6270 C   0  0  0  0  0  0  0  0  0  0  0  0
    8.6570    0.8960   21.3910 O   0  0  0  0  0  0  0  0  0  0  0  0
    9.2460   -1.0570   22.4180 N   0  0  0  0  0  0  0  0  0  0  0  0
   10.5580   -0.6560   22.5690 C   0  0  0  0  0  0  0  0  0  0  0  0
   10.8850    0.6280   22.9620 C   0  0  0  0  0  0  0  0  0  0  0  0
   12.2130    0.9870   23.0790 C   0  0  0  0  0  0  0  0  0  0  0  0
   13.1580    0.0450   22.8000 C   0  0  0  0  0  0  0  0  0  0  0  0
   12.8880   -1.2210   22.4180 N   0  0  0  0  0  0  0  0  0  0  0  0
   11.5880   -1.5370   22.3090 C   0  0  0  0  0  0  0  0  0  0  0  0
    6.8420   -0.3040   18.7260 C   0  0  0  0  0  0  0  0  0  0  0  0
    6.0310    0.4960   17.9180 N   0  0  0  0  0  0  0  0  0  0  0  0
  1  2  1  0
  2  3  1  0
  3  4  1  0
  4  5  2  0
  5  6  1  0
  6  7  2  0
  7  8  1  0
  8  9  1  0
  9 10  2  0
  9 11  1  0
 11 12  1  0
 12 13  2  0
 13 14  1  0
 14 15  2  0
 15 16  1  0
 12 17  1  0
 16 17  2  0
  7 18  1  0
  4 19  1  0
 18 19  2  0
M  END
