pyridine_urea_4997
     RDKit          3D

 21 22  0  0  0  0  0  0  0  0999 V2000
   13.5170   -2.7130   22.7470 C   0  0  0  0  0  0  0  0  0  0  0  0
   13.5830   -1.7970   23.7060 N   0  0  0  0  0  0  0  0  0  0  0  0
   13.5950   -2.2060   25.0580 C   0  0  0  0  0  0  0  0  0  0  0  0
   12.3210   -1.1810   23.5130 C   0  0  0  0  0  0  0  0  0  0  0  0
   11.7810   -1.4100   22.2560 C   0  0  0  0  0  0  0  0  0  0  0  0
   12.4530   -2.1100   21.3290 F   0  0  0  0  0  0  0  0  0  0  0  0
   10.5590   -0.9310   21.9870 C   0  0  0  0  0  0  0  0  0  0  0  0
    9.8510   -0.1740   23.0420 C   0  0  0  0  0  0  0  0  0  0  0  0
    8.6080    0.2920   22.7910 N   0  0  0  0  0  0  0  0  0  0  0  0
    8.1920    0.5930   21.5050 C   0  0  0  0  0  0  0  0  0  0  0  0
    8.6610    1.5660   20.9250 O   0  0  0  0  0  0  0  0  0  0  0  0
    7.2730   -0.2840   21.0460 N   0  0  0  0  0  0  0  0  0  0  0  0
    6.5180    0.2470   20.0720 C   0  0  0  0  0  0  0  0  0  0  0  0
    5.3450    0.9640   20.2580 C   0  0  0  0  0  0  0  0  0  0  0  0
    4.6450    1.4940   19.2050 C   0  0  0  0  0  0  0  0  0  0  0  0
    5.1460    1.2950   17.9330 C   0  0  0  0  0  0  0  0  0  0  0  0
    6.2680    0.5980   17.6920 N   0  0  0  0  0  0  0  0  0  0  0  0
    6.9260    0.0900   18.7590 C   0  0  0  0  0  0  0  0  0  0  0  0
   10.5230    0.0420   24.3370 C   0  0  0  0  0  0  0  0  0  0  0  0
   11.7740   -0.4790   24.5530 C   0  0  0  0  0  0  0  0  0  0  0  0
   12.4420   -0.3580   25.6800 F   0  0  0  0  0  0  0  0  0  0  0  0
  1  2  1  0
  2  3  1  0
  2  4  1  0
  4  5  2  0
  5  6  1  0
  5  7  1  0
  7  8  2  0
  8  9  1  0
  9 10  1  0
 10 11  2  0
 10 12  1  0
 12 13  1  0
 13 14  2  0
 14 15  1  0
 15 16  2  0
 16 17  1  0
 13 18  1  0
 17 18  2  0
  8 19  1  0
  4 20  1  0
 19 20  2  0
 20 21  1  0
M  END
