pyridine_urea_12768
     RDKit          3D

 20 22  0  0  0  0  0  0  0  0999 V2000
    8.3740   -1.3570   20.3230 O   0  0  0  0  0  0  0  0  0  0  0  0
    8.1990   -0.7290   21.2940 C   0  0  0  0  0  0  0  0  0  0  0  0
    6.9640   -0.1890   21.4470 N   0  0  0  0  0  0  0  0  0  0  0  0
    6.4270    0.2780   20.1860 C   0  0  0  0  0  0  0  0  0  0  0  0
    5.1650    1.1470   20.2810 C   0  0  0  0  0  0  0  0  0  0  0  0
    4.5770    1.6610   19.1280 C   0  0  0  0  0  0  0  0  0  0  0  0
    5.1690    1.3630   17.9040 C   0  0  0  0  0  0  0  0  0  0  0  0
    6.2910    0.5780   17.8480 N   0  0  0  0  0  0  0  0  0  0  0  0
    6.9360    0.0220   18.9560 C   0  0  0  0  0  0  0  0  0  0  0  0
    9.1650   -0.4390   22.2230 N   0  0  0  0  0  0  0  0  0  0  0  0
   10.2460   -0.0320   22.9600 C   0  0  0  0  0  0  0  0  0  0  0  0
   10.1490    1.0970   23.9540 C   0  0  0  0  0  0  0  0  0  0  0  0
    9.0920    0.8800   23.4500 N   0  0  0  0  0  0  0  0  0  0  0  0
    9.8300   -0.0570   22.8520 C   0  0  0  0  0  0  0  0  0  0  0  0
   10.9970    0.4920   23.6370 C   0  0  0  0  0  0  0  0  0  0  0  0
   11.5260   -0.4330   23.0080 C   0  0  0  0  0  0  0  0  0  0  0  0
   11.6060   -1.5110   22.1150 C   0  0  0  0  0  0  0  0  0  0  0  0
   12.9490   -1.3360   22.1090 C   0  0  0  0  0  0  0  0  0  0  0  0
   13.0650    0.0660   22.6940 C   0  0  0  0  0  0  0  0  0  0  0  0
   12.3560    0.3870   23.8950 C   0  0  0  0  0  0  0  0  0  0  0  0
  1  2  2  0
  2  3  1  0
  3  4  1  0
  4  5  2  0
  5  6  1  0
  6  7  2  0
  7  8  1  0
  4  9  1  0
  8  9  2  0
  2 10  1  0
 10 11  1  0
 11 12  2  0
 12 13  1  0
 13 14  2  0
 14 15  1  0
 11 16  1  0
 15 16  2  0
 16 17  1  0
 17 18  1  0
 18 19  1  0
 15 20  1  0
 19 20  1  0
M  END
