pyridine_urea_10110
     RDKit          3D

 23 25  0  0  0  0  0  0  0  0999 V2000
    7.5110    2.3760   23.2710 C   0  0  0  0  0  0  0  0  0  0  0  0
    8.5820    2.7950   22.8420 O   0  0  0  0  0  0  0  0  0  0  0  0
    9.5700    1.8850   22.5160 C   0  0  0  0  0  0  0  0  0  0  0  0
    9.4830    0.6160   23.0580 C   0  0  1  0  0  0  0  0  0  0  0  0
    8.1750   -0.0000   23.0310 N   0  0  0  0  0  0  0  0  0  0  0  0
    7.8470   -0.0420   21.6320 C   0  0  0  0  0  0  0  0  0  0  0  0
    8.4500    0.6940   20.8690 O   0  0  0  0  0  0  0  0  0  0  0  0
    6.8580   -0.8260   21.1190 N   0  0  0  0  0  0  0  0  0  0  0  0
    6.2770   -0.0980   20.0160 C   0  0  0  0  0  0  0  0  0  0  0  0
    5.1100    0.6390   20.1990 C   0  0  0  0  0  0  0  0  0  0  0  0
    4.5470    1.4260   19.0160 C   0  0  0  0  0  0  0  0  0  0  0  0
    5.1530    1.4280   17.7780 C   0  0  0  0  0  0  0  0  0  0  0  0
    6.2800    0.6650   17.7080 N   0  0  0  0  0  0  0  0  0  0  0  0
    6.8620   -0.0820   18.7390 C   0  0  0  0  0  0  0  0  0  0  0  0
   10.3010   -0.2810   22.3240 C   0  0  0  0  0  0  0  0  0  0  0  0
   11.2990   -1.1710   22.0490 C   0  0  0  0  0  0  0  0  0  0  0  0
   12.2150   -1.5790   22.9890 C   0  0  0  0  0  0  0  0  0  0  0  0
   13.1340   -2.4930   22.6640 C   0  0  0  0  0  0  0  0  0  0  0  0
   13.9770   -2.8700   23.6410 C   0  0  0  0  0  0  0  0  0  0  0  0
   13.9170   -2.3250   24.9190 C   0  0  0  0  0  0  0  0  0  0  0  0
   12.9660   -1.3870   25.1210 C   0  0  0  0  0  0  0  0  0  0  0  0
   12.1050   -1.0330   24.1670 C   0  0  0  0  0  0  0  0  0  0  0  0
   10.8090   -0.0050   24.0560 S   0  0  0  0  0  0  0  0  0  0  0  0
  1  2  1  0
  2  3  1  0
  4  3  1  6
  4  5  1  0
  5  6  1  0
  6  7  2  0
  6  8  1  0
  8  9  1  0
  9 10  2  0
 10 11  1  0
 11 12  2  0
 12 13  1  0
  9 14  1  0
 13 14  2  0
  4 15  1  0
 15 16  2  0
 16 17  1  0
 17 18  2  0
 18 19  1  0
 19 20  2  0
 20 21  1  0
 17 22  1  0
 21 22  2  0
 15 23  1  0
 22 23  1  0
M  END
