pyridine_urea_7658
     RDKit          3D

 22 24  0  0  0  0  0  0  0  0999 V2000
   13.1840   -0.4010   22.3200 C   0  0  0  0  0  0  0  0  0  0  0  0
   12.7890   -1.8420   22.0470 C   0  0  0  0  0  0  0  0  0  0  0  0
   13.2190   -2.2610   20.8530 C   0  0  0  0  0  0  0  0  0  0  0  0
   13.3370   -2.5950   23.2190 C   0  0  0  0  0  0  0  0  0  0  0  0
   13.1830   -1.8770   24.2960 C   0  0  0  0  0  0  0  0  0  0  0  0
   12.0020   -1.2300   24.1550 C   0  0  0  0  0  0  0  0  0  0  0  0
   11.5710   -0.4740   25.1440 C   0  0  0  0  0  0  0  0  0  0  0  0
   10.2390    0.2160   25.0210 C   0  0  0  0  0  0  0  0  0  0  0  0
    9.5040    0.0680   23.8760 C   0  0  0  0  0  0  0  0  0  0  0  0
   10.0270   -0.7210   22.8850 C   0  0  0  0  0  0  0  0  0  0  0  0
    9.2290   -0.8370   21.7300 N   0  0  0  0  0  0  0  0  0  0  0  0
    8.3640    0.0550   21.2660 C   0  0  0  0  0  0  0  0  0  0  0  0
    8.7060    1.2320   21.0860 O   0  0  0  0  0  0  0  0  0  0  0  0
    7.1300   -0.4360   21.0060 N   0  0  0  0  0  0  0  0  0  0  0  0
    6.3990    0.1930   20.0160 C   0  0  0  0  0  0  0  0  0  0  0  0
    5.2160    0.8930   20.1680 C   0  0  0  0  0  0  0  0  0  0  0  0
    4.5960    1.5060   19.1040 C   0  0  0  0  0  0  0  0  0  0  0  0
    5.0950    1.4770   17.8110 C   0  0  0  0  0  0  0  0  0  0  0  0
    6.3180    0.7310   17.6570 N   0  0  0  0  0  0  0  0  0  0  0  0
    6.9020    0.1350   18.7360 C   0  0  0  0  0  0  0  0  0  0  0  0
   11.2250   -1.3500   23.0010 C   0  0  0  0  0  0  0  0  0  0  0  0
   11.6200   -2.0150   22.0920 O   0  0  0  0  0  0  0  0  0  0  0  0
  2  1  1  0
  2  3  1  0
  2  4  1  0
  4  5  1  0
  5  6  1  0
  6  7  1  0
  7  8  2  0
  8  9  1  0
  9 10  2  0
 10 11  1  0
 11 12  1  0
 12 13  2  0
 12 14  1  0
 14 15  1  0
 15 16  2  0
 16 17  1  0
 17 18  2  0
 18 19  1  0
 15 20  1  0
 19 20  2  0
  6 21  2  0
 10 21  1  0
  2 22  1  0
 21 22  1  0
M  END
