pyridine_urea_11979
     RDKit          3D

 24 26  0  0  0  0  0  0  0  0999 V2000
   13.6200   -3.5580   26.0200 C   0  0  0  0  0  0  0  0  0  0  0  0
   12.7210   -4.2060   26.5780 O   0  0  0  0  0  0  0  0  0  0  0  0
   11.5030   -4.0740   26.0120 C   0  0  0  0  0  0  0  0  0  0  0  0
   11.5080   -3.3310   24.8680 C   0  0  0  0  0  0  0  0  0  0  0  0
   10.3460   -3.1590   24.2410 C   0  0  0  0  0  0  0  0  0  0  0  0
   10.2170   -2.4210   23.0500 N   0  0  0  0  0  0  0  0  0  0  0  0
    8.9090   -2.5590   22.8450 C   0  0  0  0  0  0  0  0  0  0  0  0
    8.5660   -1.9100   21.7360 C   0  0  0  0  0  0  0  0  0  0  0  0
    9.0290   -0.5790   22.0120 N   0  0  0  0  0  0  0  0  0  0  0  0
    8.3390    0.4080   21.4510 C   0  0  0  0  0  0  0  0  0  0  0  0
    8.8370    1.7020   21.1220 O   0  0  0  0  0  0  0  0  0  0  0  0
    7.0520    0.0510   21.1720 N   0  0  0  0  0  0  0  0  0  0  0  0
    6.4210    0.4910   20.0420 C   0  0  0  0  0  0  0  0  0  0  0  0
    5.2820    1.2720   20.1650 C   0  0  0  0  0  0  0  0  0  0  0  0
    4.6410    1.7490   19.0610 C   0  0  0  0  0  0  0  0  0  0  0  0
    5.1230    1.4580   17.8100 C   0  0  0  0  0  0  0  0  0  0  0  0
    6.2120    0.6950   17.6190 N   0  0  0  0  0  0  0  0  0  0  0  0
    6.8170    0.2410   18.7410 C   0  0  0  0  0  0  0  0  0  0  0  0
    8.1910   -3.2780   23.7390 N   0  0  0  0  0  0  0  0  0  0  0  0
    9.1620   -3.6830   24.6850 C   0  0  0  0  0  0  0  0  0  0  0  0
    9.0750   -4.4290   25.8280 C   0  0  0  0  0  0  0  0  0  0  0  0
   10.2830   -4.6270   26.5120 C   0  0  0  0  0  0  0  0  0  0  0  0
   10.1910   -5.2870   27.5330 O   0  0  0  0  0  0  0  0  0  0  0  0
    8.8920   -5.6150   27.7590 C   0  0  0  0  0  0  0  0  0  0  0  0
  1  2  1  0
  2  3  1  0
  3  4  2  0
  4  5  1  0
  5  6  1  0
  6  7  2  0
  7  8  1  0
  8  9  1  0
  9 10  1  0
 10 11  2  0
 10 12  1  0
 12 13  1  0
 13 14  2  0
 14 15  1  0
 15 16  2  0
 16 17  1  0
 13 18  1  0
 17 18  2  0
  7 19  1  0
  5 20  2  0
 19 20  1  0
 20 21  1  0
  3 22  1  0
 21 22  2  0
 22 23  1  0
 23 24  1  0
M  END
