pyridine_urea_11339
     RDKit          3D

 23 24  0  0  0  0  0  0  0  0999 V2000
   13.0960   -1.2240   21.6370 C   0  0  0  0  0  0  0  0  0  0  0  0
   12.6460   -0.7420   22.8430 N   0  0  2  0  0  0  0  0  0  0  0  0
   13.4020    0.3470   23.1800 O   0  0  0  0  0  0  0  0  0  0  0  0
   12.7520   -1.6960   23.8870 C   0  0  0  0  0  0  0  0  0  0  0  0
   11.7830   -2.7490   23.4290 C   0  0  0  0  0  0  0  0  0  0  0  0
   10.4320   -2.1320   23.3130 C   0  0  1  0  0  0  0  0  0  0  0  0
    9.9230   -1.7830   22.0940 C   0  0  0  0  0  0  0  0  0  0  0  0
    8.6050   -1.5910   22.0190 N   0  0  0  0  0  0  0  0  0  0  0  0
    8.1870   -0.4250   21.4990 C   0  0  0  0  0  0  0  0  0  0  0  0
    8.9430    0.7100   21.4490 O   0  0  0  0  0  0  0  0  0  0  0  0
    6.9010   -0.5860   21.0720 N   0  0  0  0  0  0  0  0  0  0  0  0
    6.2790    0.1210   19.9540 C   0  0  0  0  0  0  0  0  0  0  0  0
    5.1330    0.7530   20.3190 C   0  0  0  0  0  0  0  0  0  0  0  0
    4.6070    1.4490   19.0790 C   0  0  0  0  0  0  0  0  0  0  0  0
    5.2330    1.3960   17.8520 C   0  0  0  0  0  0  0  0  0  0  0  0
    6.3510    0.7330   17.6360 N   0  0  0  0  0  0  0  0  0  0  0  0
    6.8420    0.1110   18.6910 C   0  0  0  0  0  0  0  0  0  0  0  0
    9.4010   -2.9240   24.3980 S   0  0  0  0  0  0  0  0  0  0  0  0
   10.8860   -3.4440   25.0150 C   0  0  0  0  0  0  0  0  0  0  0  0
    8.6230   -3.9790   23.7690 O   0  0  0  0  0  0  0  0  0  0  0  0
    8.7880   -1.9590   25.2810 O   0  0  0  0  0  0  0  0  0  0  0  0
   10.3760   -0.6650   23.7450 C   0  0  0  0  0  0  0  0  0  0  0  0
   11.2510   -0.3000   22.6160 C   0  0  0  0  0  0  0  0  0  0  0  0
  2  1  1  6
  2  3  1  0
  2  4  1  0
  4  5  1  0
  5  6  1  0
  6  7  1  6
  7  8  1  0
  8  9  1  0
  9 10  2  0
  9 11  1  0
 11 12  1  0
 12 13  2  0
 13 14  1  0
 14 15  2  0
 15 16  1  0
 12 17  1  0
 16 17  2  0
  6 18  1  0
 18 19  1  0
 18 20  2  0
 18 21  2  0
  6 22  1  0
  2 23  1  0
 22 23  1  0
M  CHG  2   2   1   3  -1
M  END
