pyridine_urea_6511
     RDKit          3D

 23 24  0  0  0  0  0  0  0  0999 V2000
    8.2620    0.1180   27.3540 C   0  0  0  0  0  0  0  0  0  0  0  0
    7.5050    0.4780   26.0530 C   0  0  0  0  0  0  0  0  0  0  0  0
    7.9050    1.9020   25.1710 S   0  0  0  0  0  0  0  0  0  0  0  0
    7.5410    3.0490   25.9660 O   0  0  0  0  0  0  0  0  0  0  0  0
    7.4290    1.7490   23.8160 O   0  0  0  0  0  0  0  0  0  0  0  0
    9.5820    1.8490   25.1200 N   0  0  0  0  0  0  0  0  0  0  0  0
   10.1650    0.9540   24.2900 C   0  0  0  0  0  0  0  0  0  0  0  0
   11.5080    1.1120   23.7330 C   0  0  0  0  0  0  0  0  0  0  0  0
   12.0420    0.1350   22.8520 C   0  0  0  0  0  0  0  0  0  0  0  0
   11.5870   -1.0350   22.3240 C   0  0  0  0  0  0  0  0  0  0  0  0
   10.6990   -2.0580   22.1000 C   0  0  0  0  0  0  0  0  0  0  0  0
    9.6160   -1.5870   21.3190 N   0  0  0  0  0  0  0  0  0  0  0  0
    8.7510   -0.4510   21.4030 C   0  0  0  0  0  0  0  0  0  0  0  0
    9.1720    0.6820   21.5830 O   0  0  0  0  0  0  0  0  0  0  0  0
    7.4380   -0.7920   21.2130 N   0  0  0  0  0  0  0  0  0  0  0  0
    6.6750   -0.1140   20.2910 C   0  0  0  0  0  0  0  0  0  0  0  0
    5.5220    0.6640   20.5100 C   0  0  0  0  0  0  0  0  0  0  0  0
    4.8320    1.3170   19.4670 C   0  0  0  0  0  0  0  0  0  0  0  0
    5.2730    1.2170   18.1450 C   0  0  0  0  0  0  0  0  0  0  0  0
    6.3430    0.5150   17.7840 N   0  0  0  0  0  0  0  0  0  0  0  0
    6.9990   -0.1110   18.7920 C   0  0  0  0  0  0  0  0  0  0  0  0
   10.1690   -0.9440   23.0970 C   0  0  0  0  0  0  0  0  0  0  0  0
    9.2820   -0.2390   23.9890 C   0  0  0  0  0  0  0  0  0  0  0  0
  1  2  1  0
  2  3  1  0
  3  4  2  0
  3  5  2  0
  3  6  1  0
  6  7  1  0
  7  8  2  0
  8  9  1  0
  9 10  2  0
 10 11  1  0
 11 12  1  0
 12 13  1  0
 13 14  2  0
 13 15  1  0
 15 16  1  0
 16 17  2  0
 17 18  1  0
 18 19  2  0
 19 20  1  0
 16 21  1  0
 20 21  2  0
 10 22  1  0
  7 23  1  0
 22 23  2  0
M  END
