pyridine_urea_6380
     RDKit          3D

 23 24  0  0  0  0  0  0  0  0999 V2000
   13.2090    1.6620   22.9280 C   0  0  0  0  0  0  0  0  0  0  0  0
   12.7280    0.6470   22.8100 C   0  0  0  0  0  0  0  0  0  0  0  0
   12.5020   -0.8270   22.6600 C   0  0  0  0  0  0  0  0  0  0  0  0
   11.1590   -1.4220   22.5080 C   0  0  0  0  0  0  0  0  0  0  0  0
    9.9400   -0.7400   22.4970 C   0  0  0  0  0  0  0  0  0  0  0  0
    8.6810   -1.3510   22.2990 N   0  0  0  0  0  0  0  0  0  0  0  0
    8.0050   -0.5160   21.4370 C   0  0  0  0  0  0  0  0  0  0  0  0
    8.4740    0.5710   21.1290 O   0  0  0  0  0  0  0  0  0  0  0  0
    6.8170   -0.9580   20.9520 N   0  0  0  0  0  0  0  0  0  0  0  0
    6.1440   -0.1560   20.0210 C   0  0  0  0  0  0  0  0  0  0  0  0
    4.9790    0.4810   20.3140 C   0  0  0  0  0  0  0  0  0  0  0  0
    4.5550    1.2620   19.0970 C   0  0  0  0  0  0  0  0  0  0  0  0
    5.2340    1.3110   17.9090 C   0  0  0  0  0  0  0  0  0  0  0  0
    6.3590    0.6500   17.7200 N   0  0  0  0  0  0  0  0  0  0  0  0
    6.7790   -0.0590   18.7760 C   0  0  0  0  0  0  0  0  0  0  0  0
   10.0090    0.8100   22.6840 C   0  0  0  0  0  0  0  0  0  0  0  0
   11.4000    1.2360   22.8030 C   0  0  0  0  0  0  0  0  0  0  0  0
   10.8490    2.6550   22.9000 C   0  0  0  0  0  0  0  0  0  0  0  0
    9.8890    2.7230   23.6550 O   0  0  0  0  0  0  0  0  0  0  0  0
   11.3640    3.7060   22.2100 N   0  0  0  0  0  0  0  0  0  0  0  0
   12.3760    4.5100   22.8490 C   0  0  0  0  0  0  0  0  0  0  0  0
   12.9500    5.5000   22.0360 C   0  0  0  0  0  0  0  0  0  0  0  0
   11.8380    5.3850   24.0030 C   0  0  0  0  0  0  0  0  0  0  0  0
  1  2  1  0
  2  3  2  0
  3  4  1  0
  4  5  2  0
  5  6  1  0
  6  7  1  0
  7  8  2  0
  7  9  1  0
  9 10  1  0
 10 11  2  0
 11 12  1  0
 12 13  2  0
 13 14  1  0
 10 15  1  0
 14 15  2  0
  5 16  1  0
  2 17  1  0
 16 17  2  0
 17 18  1  0
 18 19  2  0
 18 20  1  0
 20 21  1  0
 21 22  1  0
 21 23  1  0
M  END
