pyridine_urea_861
     RDKit          3D

 23 24  0  0  0  0  0  0  0  0999 V2000
   10.4100   -0.5800   22.3430 C   0  0  0  0  0  0  0  0  0  0  0  0
    9.5550   -0.3720   23.5810 C   0  0  1  0  0  0  0  0  0  0  0  0
    9.9220    0.6130   24.5610 C   0  0  0  0  0  0  0  0  0  0  0  0
   11.1130    1.1400   24.1390 C   0  0  0  0  0  0  0  0  0  0  0  0
   12.3780    1.2300   23.4710 C   0  0  0  0  0  0  0  0  0  0  0  0
   12.9910    0.2250   22.6610 C   0  0  0  0  0  0  0  0  0  0  0  0
   12.5220   -1.0610   22.3420 C   0  0  0  0  0  0  0  0  0  0  0  0
   13.1330   -2.0410   21.4960 C   0  0  0  0  0  0  0  0  0  0  0  0
   13.9810   -1.6030   20.5890 F   0  0  0  0  0  0  0  0  0  0  0  0
   13.6020   -3.0390   22.2700 F   0  0  0  0  0  0  0  0  0  0  0  0
   12.1830   -2.5760   20.7460 F   0  0  0  0  0  0  0  0  0  0  0  0
   11.2310   -1.3030   23.0110 C   0  0  0  0  0  0  0  0  0  0  0  0
   10.7300   -0.2230   23.7720 C   0  0  0  0  0  0  0  0  0  0  0  0
    8.2620   -0.0370   23.0350 N   0  0  0  0  0  0  0  0  0  0  0  0
    8.1900    0.3630   21.7130 C   0  0  0  0  0  0  0  0  0  0  0  0
    8.8860    1.2730   21.2390 O   0  0  0  0  0  0  0  0  0  0  0  0
    7.2430   -0.3660   21.0370 N   0  0  0  0  0  0  0  0  0  0  0  0
    6.4620    0.2080   20.0440 C   0  0  0  0  0  0  0  0  0  0  0  0
    5.2760    0.8900   20.2600 C   0  0  0  0  0  0  0  0  0  0  0  0
    4.6000    1.4430   19.1850 C   0  0  0  0  0  0  0  0  0  0  0  0
    5.1430    1.2880   17.9210 C   0  0  0  0  0  0  0  0  0  0  0  0
    6.2780    0.6250   17.6810 N   0  0  0  0  0  0  0  0  0  0  0  0
    6.9070    0.1030   18.7410 C   0  0  0  0  0  0  0  0  0  0  0  0
  2  1  1  6
  2  3  1  0
  3  4  1  0
  4  5  2  0
  5  6  1  0
  6  7  2  0
  7  8  1  0
  8  9  1  0
  8 10  1  0
  8 11  1  0
  7 12  1  0
  4 13  1  0
 12 13  2  0
  2 14  1  0
 14 15  1  0
 15 16  2  0
 15 17  1  0
 17 18  1  0
 18 19  2  0
 19 20  1  0
 20 21  2  0
 21 22  1  0
 18 23  1  0
 22 23  2  0
M  END
