pyridine_urea_6067
     RDKit          3D

 25 28  0  0  0  0  0  0  0  0999 V2000
    9.0330    0.5760   21.3770 O   0  0  0  0  0  0  0  0  0  0  0  0
    8.2870   -0.3390   21.7030 C   0  0  0  0  0  0  0  0  0  0  0  0
    8.5440   -1.1840   22.8700 N   0  0  0  0  0  0  0  0  0  0  0  0
    8.7600   -2.5590   22.6940 C   0  0  0  0  0  0  0  0  0  0  0  0
    7.8640   -3.4900   23.2680 C   0  0  0  0  0  0  0  0  0  0  0  0
    7.5920   -4.6740   22.5860 C   0  0  0  0  0  0  0  0  0  0  0  0
    6.4760   -5.7990   23.3630 S   0  0  0  0  0  0  0  0  0  0  0  0
    6.4340   -4.5710   24.6280 C   0  0  0  0  0  0  0  0  0  0  0  0
    5.5910   -4.8560   25.8390 C   0  0  0  0  0  0  0  0  0  0  0  0
    4.8000   -6.1340   26.0350 C   0  0  0  0  0  0  0  0  0  0  0  0
    4.2070   -5.8810   27.3540 C   0  0  0  0  0  0  0  0  0  0  0  0
    3.3720   -6.6940   28.0880 C   0  0  0  0  0  0  0  0  0  0  0  0
    2.9390   -6.2180   29.3320 C   0  0  0  0  0  0  0  0  0  0  0  0
    3.3680   -4.9550   29.7670 C   0  0  0  0  0  0  0  0  0  0  0  0
    4.2120   -4.1480   29.0130 C   0  0  0  0  0  0  0  0  0  0  0  0
    4.6280   -4.6340   27.7910 C   0  0  0  0  0  0  0  0  0  0  0  0
    5.4710   -4.0660   26.8130 O   0  0  0  0  0  0  0  0  0  0  0  0
    7.1670   -3.3950   24.5100 N   0  0  0  0  0  0  0  0  0  0  0  0
    7.1180   -0.7120   21.0710 N   0  0  0  0  0  0  0  0  0  0  0  0
    6.4970   -0.0560   20.0570 C   0  0  0  0  0  0  0  0  0  0  0  0
    5.3300    0.6700   20.3310 C   0  0  0  0  0  0  0  0  0  0  0  0
    4.6930    1.3530   19.2900 C   0  0  0  0  0  0  0  0  0  0  0  0
    5.2340    1.2980   18.0080 C   0  0  0  0  0  0  0  0  0  0  0  0
    6.3470    0.6030   17.7360 N   0  0  0  0  0  0  0  0  0  0  0  0
    6.9490   -0.0540   18.7520 C   0  0  0  0  0  0  0  0  0  0  0  0
  1  2  2  0
  2  3  1  0
  3  4  1  0
  4  5  1  0
  5  6  2  0
  6  7  1  0
  7  8  1  0
  8  9  1  0
  9 10  2  0
 10 11  1  0
 11 12  2  0
 12 13  1  0
 13 14  2  0
 14 15  1  0
 11 16  1  0
 15 16  2  0
  9 17  1  0
 16 17  1  0
  5 18  1  0
  8 18  2  0
  2 19  1  0
 19 20  1  0
 20 21  2  0
 21 22  1  0
 22 23  2  0
 23 24  1  0
 20 25  1  0
 24 25  2  0
M  END
