pyridine_urea_4531
     RDKit          3D

 23 24  0  0  0  0  0  0  0  0999 V2000
    8.8250    1.2650   21.1110 O   0  0  0  0  0  0  0  0  0  0  0  0
    8.4200    0.1710   21.5270 C   0  0  0  0  0  0  0  0  0  0  0  0
    9.0950   -0.5270   22.5170 N   0  0  0  0  0  0  0  0  0  0  0  0
    8.8310   -1.9360   22.7240 C   0  0  0  0  0  0  0  0  0  0  0  0
    7.7800   -2.1700   23.8060 C   0  0  0  0  0  0  0  0  0  0  0  0
    7.3690   -3.4840   23.8730 N   0  0  0  0  0  0  0  0  0  0  0  0
    6.0380   -3.9450   23.8060 C   0  0  0  0  0  0  0  0  0  0  0  0
    5.1160   -2.9530   24.3400 N   0  0  0  0  0  0  0  0  0  0  0  0
    3.7960   -3.2970   24.3200 C   0  0  0  0  0  0  0  0  0  0  0  0
    3.2430   -4.6130   23.7940 C   0  0  0  0  0  0  0  0  0  0  0  0
    4.3020   -5.5910   23.2510 C   0  0  0  0  0  0  0  0  0  0  0  0
    5.6530   -5.1840   23.2970 C   0  0  0  0  0  0  0  0  0  0  0  0
    6.6230   -6.0490   22.8210 C   0  0  0  0  0  0  0  0  0  0  0  0
    6.1970   -7.3100   22.7940 F   0  0  0  0  0  0  0  0  0  0  0  0
    7.0720   -5.8090   21.5790 F   0  0  0  0  0  0  0  0  0  0  0  0
    7.7090   -6.0140   23.6190 F   0  0  0  0  0  0  0  0  0  0  0  0
    7.2800   -0.5140   21.1310 N   0  0  0  0  0  0  0  0  0  0  0  0
    6.6540    0.0470   20.0590 C   0  0  0  0  0  0  0  0  0  0  0  0
    5.5350    0.7790   20.4620 C   0  0  0  0  0  0  0  0  0  0  0  0
    4.7740    1.4300   19.4870 C   0  0  0  0  0  0  0  0  0  0  0  0
    5.2180    1.2970   18.0760 C   0  0  0  0  0  0  0  0  0  0  0  0
    6.2950    0.5780   17.7280 N   0  0  0  0  0  0  0  0  0  0  0  0
    6.9880   -0.0300   18.7220 C   0  0  0  0  0  0  0  0  0  0  0  0
  1  2  2  0
  2  3  1  0
  3  4  1  0
  4  5  1  0
  5  6  1  0
  6  7  1  0
  7  8  2  0
  8  9  1  0
  9 10  2  0
 10 11  1  0
  7 12  1  0
 11 12  2  0
 12 13  1  0
 13 14  1  0
 13 15  1  0
 13 16  1  0
  2 17  1  0
 17 18  1  0
 18 19  2  0
 19 20  1  0
 20 21  2  0
 21 22  1  0
 18 23  1  0
 22 23  2  0
M  END
