pyridine_urea_8600
     RDKit          3D

 21 23  0  0  0  0  0  0  0  0999 V2000
   13.9760   -2.7680   25.4270 C   0  0  0  0  0  0  0  0  0  0  0  0
   13.1220   -1.8500   24.6510 C   0  0  0  0  0  0  0  0  0  0  0  0
   13.4900   -0.4900   24.3820 O   0  0  0  0  0  0  0  0  0  0  0  0
   12.4390    0.0770   23.7030 C   0  0  0  0  0  0  0  0  0  0  0  0
   12.2820    1.3860   23.2540 C   0  0  0  0  0  0  0  0  0  0  0  0
   11.0790    1.7130   22.6420 C   0  0  0  0  0  0  0  0  0  0  0  0
   10.0360    0.6250   22.4690 C   0  0  0  0  0  0  0  0  0  0  0  0
    8.7590    0.8020   21.8660 N   0  0  0  0  0  0  0  0  0  0  0  0
    8.2840   -0.3560   21.3390 C   0  0  0  0  0  0  0  0  0  0  0  0
    9.0500   -1.2200   21.0500 O   0  0  0  0  0  0  0  0  0  0  0  0
    6.8560   -0.3980   21.1870 N   0  0  0  0  0  0  0  0  0  0  0  0
    6.3150    0.1780   20.0770 C   0  0  0  0  0  0  0  0  0  0  0  0
    5.1330    0.9020   20.2190 C   0  0  0  0  0  0  0  0  0  0  0  0
    4.5710    1.5060   19.1110 C   0  0  0  0  0  0  0  0  0  0  0  0
    5.2120    1.3680   17.8870 C   0  0  0  0  0  0  0  0  0  0  0  0
    6.3450    0.6740   17.7230 N   0  0  0  0  0  0  0  0  0  0  0  0
    6.8720    0.0910   18.8140 C   0  0  0  0  0  0  0  0  0  0  0  0
   10.3700   -0.6890   22.9620 C   0  0  0  0  0  0  0  0  0  0  0  0
   11.5110   -0.9420   23.5660 C   0  0  0  0  0  0  0  0  0  0  0  0
   11.9160   -2.0650   24.1030 C   0  0  0  0  0  0  0  0  0  0  0  0
   11.1260   -3.1570   24.0540 C   0  0  0  0  0  0  0  0  0  0  0  0
  1  2  1  0
  2  3  1  0
  3  4  1  0
  4  5  2  0
  5  6  1  0
  6  7  2  0
  7  8  1  0
  8  9  1  0
  9 10  2  0
  9 11  1  0
 11 12  1  0
 12 13  2  0
 13 14  1  0
 14 15  2  0
 15 16  1  0
 12 17  1  0
 16 17  2  0
  7 18  1  0
  4 19  1  0
 18 19  2  0
  2 20  2  0
 19 20  1  0
 20 21  1  0
M  END
