pyridine_urea_11383
     RDKit          3D

 19 21  0  0  0  0  0  0  0  0999 V2000
   10.5780   -1.9820   21.7560 C   0  0  0  0  0  0  0  0  0  0  0  0
   11.7240   -1.6060   22.4040 N   0  0  0  0  0  0  0  0  0  0  0  0
   13.0410   -1.6920   21.8860 C   0  0  0  0  0  0  0  0  0  0  0  0
   13.4440   -0.6480   22.9250 C   0  0  0  0  0  0  0  0  0  0  0  0
   12.0640   -0.5630   23.3820 C   0  0  2  0  0  0  0  0  0  0  0  0
   11.5470   -0.8660   24.5400 C   0  0  0  0  0  0  0  0  0  0  0  0
   10.2300   -0.1970   24.4110 C   0  0  2  0  0  0  0  0  0  0  0  0
    9.1700   -0.9740   23.7430 C   0  0  0  0  0  0  0  0  0  0  0  0
    8.2010   -0.0790   23.1440 N   0  0  0  0  0  0  0  0  0  0  0  0
    8.1380    0.2690   21.7070 C   0  0  0  0  0  0  0  0  0  0  0  0
    8.8870    1.3450   21.1340 O   0  0  0  0  0  0  0  0  0  0  0  0
    7.2700   -0.5420   21.0630 N   0  0  0  0  0  0  0  0  0  0  0  0
    6.5990    0.0420   20.0440 C   0  0  0  0  0  0  0  0  0  0  0  0
    5.4280    0.7790   20.3280 C   0  0  0  0  0  0  0  0  0  0  0  0
    4.7030    1.4150   19.2970 C   0  0  0  0  0  0  0  0  0  0  0  0
    5.1650    1.3010   18.0050 C   0  0  0  0  0  0  0  0  0  0  0  0
    6.2770    0.5920   17.7140 N   0  0  0  0  0  0  0  0  0  0  0  0
    6.9880   -0.0340   18.7260 C   0  0  0  0  0  0  0  0  0  0  0  0
   11.1590    0.6600   23.4210 C   0  0  0  0  0  0  0  0  0  0  0  0
  1  2  1  0
  2  3  1  0
  3  4  1  0
  5  2  1  0
  5  4  1  1
  5  6  1  0
  6  7  1  0
  7  8  1  6
  8  9  1  0
  9 10  1  0
 10 11  2  0
 10 12  1  0
 12 13  1  0
 13 14  2  0
 14 15  1  0
 15 16  2  0
 16 17  1  0
 13 18  1  0
 17 18  2  0
  5 19  1  0
  7 19  1  0
M  END
