pyridine_urea_5582
     RDKit          3D

 17 18  0  0  0  0  0  0  0  0999 V2000
    8.8960    1.4360   21.1450 O   0  0  0  0  0  0  0  0  0  0  0  0
    8.3820    0.4050   21.5860 C   0  0  0  0  0  0  0  0  0  0  0  0
    8.8480   -0.2090   22.7080 N   0  0  0  0  0  0  0  0  0  0  0  0
   10.0710   -0.9230   22.5450 C   0  0  0  0  0  0  0  0  0  0  0  0
    9.8390   -2.4550   22.5010 C   0  0  0  0  0  0  0  0  0  0  0  0
   10.1920   -3.0710   23.8070 N   0  0  0  0  0  0  0  0  0  0  0  0
   11.4110   -2.5060   24.3840 C   0  0  0  0  0  0  0  0  0  0  0  0
   12.4150   -2.3120   23.2690 C   0  0  0  0  0  0  0  0  0  0  0  0
   13.5660   -2.4500   23.7060 C   0  0  0  0  0  0  0  0  0  0  0  0
   13.1460   -1.0250   23.2330 C   0  0  0  0  0  0  0  0  0  0  0  0
    7.3190   -0.2840   21.0700 N   0  0  0  0  0  0  0  0  0  0  0  0
    6.5690    0.2460   20.0340 C   0  0  0  0  0  0  0  0  0  0  0  0
    5.3050    1.0070   20.3740 C   0  0  0  0  0  0  0  0  0  0  0  0
    4.5510    1.5860   19.2120 C   0  0  0  0  0  0  0  0  0  0  0  0
    5.1300    1.3510   17.8410 C   0  0  0  0  0  0  0  0  0  0  0  0
    6.2530    0.6500   17.6450 N   0  0  0  0  0  0  0  0  0  0  0  0
    6.9250    0.1290   18.7010 C   0  0  0  0  0  0  0  0  0  0  0  0
  1  2  2  0
  2  3  1  0
  3  4  1  0
  4  5  1  0
  5  6  1  0
  6  7  1  0
  7  8  1  0
  8  9  1  0
  8 10  1  0
  9 10  1  0
  2 11  1  0
 11 12  1  0
 12 13  2  0
 13 14  1  0
 14 15  2  0
 15 16  1  0
 12 17  1  0
 16 17  2  0
M  END
