pyridine_urea_9799
     RDKit          3D

 26 28  0  0  0  0  0  0  0  0999 V2000
   10.2230   -2.3110   21.9830 C   0  0  0  0  0  0  0  0  0  0  0  0
   10.3000   -2.8300   23.3040 O   0  0  0  0  0  0  0  0  0  0  0  0
   11.6410   -2.9900   23.7710 C   0  0  0  0  0  0  0  0  0  0  0  0
   11.9440   -3.3290   24.8950 O   0  0  0  0  0  0  0  0  0  0  0  0
   12.6850   -2.6980   22.7000 C   0  0  0  0  0  0  0  0  0  0  0  0
   13.4670   -1.7420   23.0650 N   0  0  0  0  0  0  0  0  0  0  0  0
   13.6570   -1.7180   24.4240 C   0  0  0  0  0  0  0  0  0  0  0  0
   12.7450   -0.9650   25.2640 N   0  0  0  0  0  0  0  0  0  0  0  0
   11.6840   -0.4500   24.6280 C   0  0  0  0  0  0  0  0  0  0  0  0
   10.4110   -0.1880   25.3500 C   0  0  0  0  0  0  0  0  0  0  0  0
    9.2360    0.3100   24.5520 C   0  0  0  0  0  0  0  0  0  0  0  0
    9.4590    0.4710   23.1940 C   0  0  0  0  0  0  0  0  0  0  0  0
    8.4850    0.8610   22.3810 N   0  0  0  0  0  0  0  0  0  0  0  0
    8.1550   -0.0820   21.4720 C   0  0  0  0  0  0  0  0  0  0  0  0
    8.9690   -0.7280   20.8940 O   0  0  0  0  0  0  0  0  0  0  0  0
    6.8340   -0.2260   21.2950 N   0  0  0  0  0  0  0  0  0  0  0  0
    6.3810    0.2390   20.1140 C   0  0  0  0  0  0  0  0  0  0  0  0
    5.2260    0.9750   20.3200 C   0  0  0  0  0  0  0  0  0  0  0  0
    4.6030    1.5590   19.2240 C   0  0  0  0  0  0  0  0  0  0  0  0
    5.2320    1.3480   17.8940 C   0  0  0  0  0  0  0  0  0  0  0  0
    6.3490    0.6220   17.7320 N   0  0  0  0  0  0  0  0  0  0  0  0
    6.9040    0.0760   18.8370 C   0  0  0  0  0  0  0  0  0  0  0  0
   10.6990    0.2230   22.6050 C   0  0  0  0  0  0  0  0  0  0  0  0
   11.7640   -0.2150   23.3290 C   0  0  0  0  0  0  0  0  0  0  0  0
   13.0060   -0.5180   22.9640 C   0  0  0  0  0  0  0  0  0  0  0  0
   13.7290    0.6450   22.5580 O   0  0  0  0  0  0  0  0  0  0  0  0
  1  2  1  0
  2  3  1  0
  3  4  2  0
  3  5  1  0
  5  6  1  0
  6  7  1  0
  7  8  2  0
  8  9  1  0
  9 10  1  0
 10 11  2  0
 11 12  1  0
 12 13  1  0
 13 14  1  0
 14 15  2  0
 14 16  1  0
 16 17  1  0
 17 18  2  0
 18 19  1  0
 19 20  2  0
 20 21  1  0
 17 22  1  0
 21 22  2  0
 12 23  2  0
  9 24  2  0
 23 24  1  0
  6 25  1  0
 24 25  1  0
 25 26  2  0
M  END
