pyridine_urea_8595
     RDKit          3D

 21 23  0  0  0  0  0  0  0  0999 V2000
    8.7530    1.3960   21.0180 O   0  0  0  0  0  0  0  0  0  0  0  0
    8.2810    0.3680   21.5060 C   0  0  0  0  0  0  0  0  0  0  0  0
    7.2410   -0.3700   21.0180 N   0  0  0  0  0  0  0  0  0  0  0  0
    6.5090    0.1710   19.9770 C   0  0  0  0  0  0  0  0  0  0  0  0
    5.3270    0.8560   20.2540 C   0  0  0  0  0  0  0  0  0  0  0  0
    4.6090    1.4260   19.2110 C   0  0  0  0  0  0  0  0  0  0  0  0
    5.1100    1.2820   17.9360 C   0  0  0  0  0  0  0  0  0  0  0  0
    6.2310    0.6180   17.6510 N   0  0  0  0  0  0  0  0  0  0  0  0
    6.9050    0.0770   18.6730 C   0  0  0  0  0  0  0  0  0  0  0  0
    8.8070   -0.1210   22.6500 N   0  0  0  0  0  0  0  0  0  0  0  0
    9.9400    0.6580   23.0860 C   0  0  1  0  0  0  0  0  0  0  0  0
   10.0330    0.6420   24.5700 C   0  0  0  0  0  0  0  0  0  0  0  0
   10.5670   -0.5620   24.9000 C   0  0  0  0  0  0  0  0  0  0  0  0
   10.8950   -1.3420   24.0110 O   0  0  0  0  0  0  0  0  0  0  0  0
   11.7900   -0.6920   23.2160 C   0  0  0  0  0  0  0  0  0  0  0  0
   12.8590   -0.2870   23.9370 C   0  0  0  0  0  0  0  0  0  0  0  0
   13.2910   -1.4150   24.6770 C   0  0  0  0  0  0  0  0  0  0  0  0
   12.1230   -2.6300   24.6160 S   0  0  0  0  0  0  0  0  0  0  0  0
   12.2290   -2.7210   22.9130 C   0  0  0  0  0  0  0  0  0  0  0  0
   12.2160   -1.5550   22.2380 C   0  0  0  0  0  0  0  0  0  0  0  0
   11.1000    0.2410   22.4820 C   0  0  0  0  0  0  0  0  0  0  0  0
  1  2  2  0
  2  3  1  0
  3  4  1  0
  4  5  2  0
  5  6  1  0
  6  7  2  0
  7  8  1  0
  4  9  1  0
  8  9  2  0
  2 10  1  0
 11 10  1  1
 11 12  1  0
 12 13  1  0
 13 14  1  0
 15 14  1  0
 15 16  1  0
 16 17  1  0
 17 18  1  0
 18 19  1  0
 15 20  1  0
 19 20  1  0
 11 21  1  0
 15 21  1  0
M  END
