pyridine_urea_6515
     RDKit          3D

 22 24  0  0  0  0  0  0  0  0999 V2000
   13.1010   -2.8670   20.8240 C   0  0  0  0  0  0  0  0  0  0  0  0
   12.7290   -2.6790   22.0990 N   0  0  0  0  0  0  0  0  0  0  0  0
   13.5930   -2.0310   22.9400 C   0  0  0  0  0  0  0  0  0  0  0  0
   13.3160   -0.8860   23.8650 C   0  0  0  0  0  0  0  0  0  0  0  0
   11.9700   -0.4480   23.5860 C   0  0  0  0  0  0  0  0  0  0  0  0
   11.4400    0.7960   24.1380 C   0  0  0  0  0  0  0  0  0  0  0  0
   10.1740    1.2500   23.9560 C   0  0  0  0  0  0  0  0  0  0  0  0
    9.4500    0.3870   23.1650 C   0  0  0  0  0  0  0  0  0  0  0  0
    8.1890    0.5740   22.8270 N   0  0  0  0  0  0  0  0  0  0  0  0
    7.9330    0.5970   21.4850 C   0  0  0  0  0  0  0  0  0  0  0  0
    8.5280    1.4020   20.7860 O   0  0  0  0  0  0  0  0  0  0  0  0
    7.0150   -0.3030   21.1240 N   0  0  0  0  0  0  0  0  0  0  0  0
    6.3310    0.2410   20.1340 C   0  0  0  0  0  0  0  0  0  0  0  0
    5.1350    0.9430   20.1840 C   0  0  0  0  0  0  0  0  0  0  0  0
    4.5520    1.4900   19.0570 C   0  0  0  0  0  0  0  0  0  0  0  0
    5.1530    1.3510   17.8120 C   0  0  0  0  0  0  0  0  0  0  0  0
    6.2890    0.6930   17.6140 N   0  0  0  0  0  0  0  0  0  0  0  0
    6.8600    0.1580   18.7060 C   0  0  0  0  0  0  0  0  0  0  0  0
    9.9140   -0.7510   22.6180 C   0  0  0  0  0  0  0  0  0  0  0  0
   11.1460   -1.1770   22.8110 C   0  0  0  0  0  0  0  0  0  0  0  0
   11.4350   -2.3240   22.1970 C   0  0  0  0  0  0  0  0  0  0  0  0
   10.4880   -2.9230   21.7450 O   0  0  0  0  0  0  0  0  0  0  0  0
  1  2  1  0
  2  3  1  0
  3  4  1  0
  4  5  1  0
  5  6  1  0
  6  7  2  0
  7  8  1  0
  8  9  1  0
  9 10  1  0
 10 11  2  0
 10 12  1  0
 12 13  1  0
 13 14  2  0
 14 15  1  0
 15 16  2  0
 16 17  1  0
 13 18  1  0
 17 18  2  0
  8 19  2  0
  5 20  2  0
 19 20  1  0
  2 21  1  0
 20 21  1  0
 21 22  2  0
M  END
