pyridine_urea_4377
     RDKit          3D

 23 25  0  0  0  0  0  0  0  0999 V2000
   13.2720    4.6250   21.8850 C   0  0  0  0  0  0  0  0  0  0  0  0
   12.0660    4.7610   22.7910 C   0  0  0  0  0  0  0  0  0  0  0  0
   11.5580    6.0180   23.2680 N   0  0  0  0  0  0  0  0  0  0  0  0
   10.4580    5.7830   24.0640 C   0  0  0  0  0  0  0  0  0  0  0  0
    9.9690    4.1350   24.2920 S   0  0  0  0  0  0  0  0  0  0  0  0
   11.2680    3.5720   23.2860 C   0  0  0  0  0  0  0  0  0  0  0  0
   11.4470    2.0550   23.0280 C   0  0  0  0  0  0  0  0  0  0  0  0
   12.6960    1.3120   22.9090 C   0  0  0  0  0  0  0  0  0  0  0  0
   12.6070   -0.2010   22.6540 C   0  0  0  0  0  0  0  0  0  0  0  0
   11.5120   -1.1580   22.4870 C   0  0  0  0  0  0  0  0  0  0  0  0
   10.2380   -1.7420   22.3810 C   0  0  0  0  0  0  0  0  0  0  0  0
    9.0750   -0.9990   22.5050 N   0  0  0  0  0  0  0  0  0  0  0  0
    8.3960   -0.2130   21.5200 C   0  0  0  0  0  0  0  0  0  0  0  0
    8.7330    0.9140   21.1870 O   0  0  0  0  0  0  0  0  0  0  0  0
    7.3060   -0.8430   21.0160 N   0  0  0  0  0  0  0  0  0  0  0  0
    6.5500   -0.1250   20.1290 C   0  0  0  0  0  0  0  0  0  0  0  0
    5.3840    0.5880   20.4320 C   0  0  0  0  0  0  0  0  0  0  0  0
    4.7000    1.3220   19.3260 C   0  0  0  0  0  0  0  0  0  0  0  0
    5.2550    1.2610   18.0560 C   0  0  0  0  0  0  0  0  0  0  0  0
    6.3690    0.5720   17.7780 N   0  0  0  0  0  0  0  0  0  0  0  0
    6.9710   -0.0900   18.7980 C   0  0  0  0  0  0  0  0  0  0  0  0
   10.3950   -0.0420   22.6780 C   0  0  0  0  0  0  0  0  0  0  0  0
   10.3600    1.3020   22.9050 C   0  0  0  0  0  0  0  0  0  0  0  0
  1  2  1  0
  2  3  1  0
  3  4  2  0
  4  5  1  0
  2  6  2  0
  5  6  1  0
  6  7  1  0
  7  8  2  0
  8  9  1  0
  9 10  2  0
 10 11  1  0
 11 12  1  0
 12 13  1  0
 13 14  2  0
 13 15  1  0
 15 16  1  0
 16 17  2  0
 17 18  1  0
 18 19  2  0
 19 20  1  0
 16 21  1  0
 20 21  2  0
 10 22  1  0
  7 23  1  0
 22 23  2  0
M  END
