pyridine_urea_3290
     RDKit          3D

 20 21  0  0  0  0  0  0  0  0999 V2000
   13.0940   -2.1560   21.1040 C   0  0  0  0  0  0  0  0  0  0  0  0
   13.2160   -1.7490   22.4560 O   0  0  0  0  0  0  0  0  0  0  0  0
   12.1300   -2.0090   23.2350 C   0  0  0  0  0  0  0  0  0  0  0  0
   10.8640   -1.9600   22.6610 C   0  0  0  0  0  0  0  0  0  0  0  0
    9.8000   -2.0640   23.5480 C   0  0  0  0  0  0  0  0  0  0  0  0
    9.7870   -1.3190   24.6570 N   0  0  0  0  0  0  0  0  0  0  0  0
    8.6940   -0.6080   25.0140 C   0  0  0  0  0  0  0  0  0  0  0  0
    7.9010   -0.0450   23.8560 C   0  0  0  0  0  0  0  0  0  0  0  0
    8.6360   -0.1770   22.6950 N   0  0  0  0  0  0  0  0  0  0  0  0
    8.2770    0.3390   21.4550 C   0  0  0  0  0  0  0  0  0  0  0  0
    8.7990    1.3640   21.0160 O   0  0  0  0  0  0  0  0  0  0  0  0
    7.3190   -0.4360   20.9090 N   0  0  0  0  0  0  0  0  0  0  0  0
    6.5410    0.1720   20.0030 C   0  0  0  0  0  0  0  0  0  0  0  0
    5.3760    0.8820   20.2700 C   0  0  0  0  0  0  0  0  0  0  0  0
    4.6830    1.4690   19.2410 C   0  0  0  0  0  0  0  0  0  0  0  0
    5.1580    1.3450   17.9440 C   0  0  0  0  0  0  0  0  0  0  0  0
    6.2710    0.6570   17.6580 N   0  0  0  0  0  0  0  0  0  0  0  0
    6.9290    0.0930   18.6850 C   0  0  0  0  0  0  0  0  0  0  0  0
   11.0560   -0.6160   24.9090 C   0  0  0  0  0  0  0  0  0  0  0  0
   12.1790   -1.3010   24.4530 C   0  0  0  0  0  0  0  0  0  0  0  0
  1  2  1  0
  2  3  1  0
  3  4  1  0
  4  5  1  0
  5  6  1  0
  6  7  1  0
  7  8  1  0
  8  9  1  0
  9 10  1  0
 10 11  2  0
 10 12  1  0
 12 13  1  0
 13 14  2  0
 14 15  1  0
 15 16  2  0
 16 17  1  0
 13 18  1  0
 17 18  2  0
  6 19  1  0
  3 20  1  0
 19 20  1  0
M  END
