pyridine_urea_10321
     RDKit          3D

 22 23  0  0  0  0  0  0  0  0999 V2000
    6.1960   -6.1980   21.7030 C   0  0  0  0  0  0  0  0  0  0  0  0
    5.1170   -5.8560   22.7450 C   0  0  0  0  0  0  0  0  0  0  0  0
    5.4430   -4.6340   23.4130 O   0  0  0  0  0  0  0  0  0  0  0  0
    6.4710   -4.7230   24.3040 C   0  0  0  0  0  0  0  0  0  0  0  0
    6.3710   -5.3300   25.3630 O   0  0  0  0  0  0  0  0  0  0  0  0
    7.7320   -3.9910   23.8140 C   0  0  0  0  0  0  0  0  0  0  0  0
    8.9730   -4.2480   24.5120 N   0  0  0  0  0  0  0  0  0  0  0  0
    9.9550   -3.4690   23.9090 N   0  0  0  0  0  0  0  0  0  0  0  0
    9.2380   -2.8220   22.8980 C   0  0  0  0  0  0  0  0  0  0  0  0
    9.7950   -1.9360   22.0040 C   0  0  2  0  0  0  0  0  0  0  0  0
   11.1940   -1.9180   22.0610 C   0  0  0  0  0  0  0  0  0  0  0  0
    9.2370   -0.6930   22.4590 N   0  0  0  0  0  0  0  0  0  0  0  0
    8.6160    0.1480   21.5630 C   0  0  0  0  0  0  0  0  0  0  0  0
    9.0990    1.2430   21.2450 O   0  0  0  0  0  0  0  0  0  0  0  0
    7.4310   -0.3850   21.1180 N   0  0  0  0  0  0  0  0  0  0  0  0
    6.6080    0.1950   20.1480 C   0  0  0  0  0  0  0  0  0  0  0  0
    5.4140    0.8970   20.2990 C   0  0  0  0  0  0  0  0  0  0  0  0
    4.7070    1.4390   19.2320 C   0  0  0  0  0  0  0  0  0  0  0  0
    5.1580    1.3070   17.9220 C   0  0  0  0  0  0  0  0  0  0  0  0
    6.2750    0.6460   17.6330 N   0  0  0  0  0  0  0  0  0  0  0  0
    6.9660    0.1170   18.6660 C   0  0  0  0  0  0  0  0  0  0  0  0
    7.9210   -3.1220   22.8450 N   0  0  0  0  0  0  0  0  0  0  0  0
  1  2  1  0
  2  3  1  0
  3  4  1  0
  4  5  2  0
  4  6  1  0
  6  7  2  0
  7  8  1  0
  8  9  2  0
  9 10  1  0
 10 11  1  1
 10 12  1  0
 12 13  1  0
 13 14  2  0
 13 15  1  0
 15 16  1  0
 16 17  2  0
 17 18  1  0
 18 19  2  0
 19 20  1  0
 16 21  1  0
 20 21  2  0
  6 22  1  0
  9 22  1  0
M  END
