pyridine_urea_6051
     RDKit          3D

 25 28  0  0  0  0  0  0  0  0999 V2000
    8.4900    1.2560   20.9610 O   0  0  0  0  0  0  0  0  0  0  0  0
    8.2780    0.0590   21.2100 C   0  0  0  0  0  0  0  0  0  0  0  0
    6.9820   -0.5490   21.0090 N   0  0  0  0  0  0  0  0  0  0  0  0
    6.3180    0.0900   19.9980 C   0  0  0  0  0  0  0  0  0  0  0  0
    5.1320    0.7760   20.2260 C   0  0  0  0  0  0  0  0  0  0  0  0
    4.5310    1.4230   19.1470 C   0  0  0  0  0  0  0  0  0  0  0  0
    5.1470    1.3520   17.8910 C   0  0  0  0  0  0  0  0  0  0  0  0
    6.2840    0.6820   17.6740 N   0  0  0  0  0  0  0  0  0  0  0  0
    6.8460    0.0640   18.7280 C   0  0  0  0  0  0  0  0  0  0  0  0
    9.1970   -0.8200   21.6600 N   0  0  0  0  0  0  0  0  0  0  0  0
   10.3000   -0.2010   22.3250 C   0  0  1  0  0  0  0  0  0  0  0  0
    9.8020    0.2380   23.6280 C   0  0  0  0  0  0  0  0  0  0  0  0
   10.9080    0.2720   24.3440 C   0  0  0  0  0  0  0  0  0  0  0  0
   11.7620   -0.6920   23.7970 C   0  0  0  0  0  0  0  0  0  0  0  0
   12.7650   -1.0620   24.8420 C   0  0  0  0  0  0  0  0  0  0  0  0
   13.6890   -2.0020   24.5560 C   0  0  0  0  0  0  0  0  0  0  0  0
   12.8030   -1.5680   23.7430 C   0  0  0  0  0  0  0  0  0  0  0  0
   11.8800   -0.5770   24.0870 C   0  0  0  0  0  0  0  0  0  0  0  0
   12.0780    0.7630   23.6460 C   0  0  0  0  0  0  0  0  0  0  0  0
   11.1490    1.7810   23.9400 C   0  0  0  0  0  0  0  0  0  0  0  0
    9.9920    1.4610   24.7000 C   0  0  0  0  0  0  0  0  0  0  0  0
    9.7870    0.1320   25.1590 C   0  0  0  0  0  0  0  0  0  0  0  0
   10.7360   -0.8780   24.8420 C   0  0  0  0  0  0  0  0  0  0  0  0
   12.5780   -1.8990   22.5590 C   0  0  0  0  0  0  0  0  0  0  0  0
   11.4960   -1.1550   22.3030 C   0  0  0  0  0  0  0  0  0  0  0  0
  1  2  2  0
  2  3  1  0
  3  4  1  0
  4  5  2  0
  5  6  1  0
  6  7  2  0
  7  8  1  0
  4  9  1  0
  8  9  2  0
  2 10  1  0
 11 10  1  1
 11 12  1  0
 12 13  1  0
 13 14  1  0
 14 15  1  0
 15 16  2  0
 16 17  1  0
 17 18  1  0
 18 19  2  0
 19 20  1  0
 20 21  2  0
 21 22  1  0
 18 23  1  0
 22 23  2  0
 17 24  2  0
 11 25  1  0
 14 25  2  0
 24 25  1  0
M  END
