pyridine_urea_5580
     RDKit          3D

 16 16  0  0  0  0  0  0  0  0999 V2000
    9.0030    1.1260   21.2500 O   0  0  0  0  0  0  0  0  0  0  0  0
    8.4310    0.0870   21.6150 C   0  0  0  0  0  0  0  0  0  0  0  0
    8.8140   -0.6350   22.7340 N   0  0  0  0  0  0  0  0  0  0  0  0
   10.1890   -0.5780   23.2000 C   0  0  0  0  0  0  0  0  0  0  0  0
   11.1820   -1.1060   22.1320 C   0  0  0  0  0  0  0  0  0  0  0  0
   11.4340   -2.4880   22.2810 O   0  0  0  0  0  0  0  0  0  0  0  0
   12.7250   -2.4620   22.7180 C   0  0  0  0  0  0  0  0  0  0  0  0
   12.9990   -2.9720   24.1200 C   0  0  0  0  0  0  0  0  0  0  0  0
   13.1810   -1.6010   25.2040 S   0  0  0  0  0  0  0  0  0  0  0  0
    7.3430   -0.5080   21.0130 N   0  0  0  0  0  0  0  0  0  0  0  0
    6.5830    0.1010   20.0860 C   0  0  0  0  0  0  0  0  0  0  0  0
    5.2810    0.8830   20.3620 C   0  0  0  0  0  0  0  0  0  0  0  0
    4.5160    1.5510   19.2160 C   0  0  0  0  0  0  0  0  0  0  0  0
    5.1920    1.3420   17.8790 C   0  0  0  0  0  0  0  0  0  0  0  0
    6.3350    0.6310   17.7170 N   0  0  0  0  0  0  0  0  0  0  0  0
    6.9960    0.0340   18.7790 C   0  0  0  0  0  0  0  0  0  0  0  0
  1  2  2  0
  2  3  1  0
  3  4  1  0
  4  5  1  0
  5  6  1  0
  6  7  1  0
  7  8  1  0
  8  9  1  0
  2 10  1  0
 10 11  1  0
 11 12  2  0
 12 13  1  0
 13 14  2  0
 14 15  1  0
 11 16  1  0
 15 16  2  0
M  END
