pyridine_urea_5068
     RDKit          3D

 20 22  0  0  0  0  0  0  0  0999 V2000
    8.9760    0.7820   21.4210 O   0  0  0  0  0  0  0  0  0  0  0  0
    8.3880   -0.2690   21.6390 C   0  0  0  0  0  0  0  0  0  0  0  0
    8.8080   -1.2590   22.4910 N   0  0  0  0  0  0  0  0  0  0  0  0
    9.7780   -2.2560   22.2380 C   0  0  0  0  0  0  0  0  0  0  0  0
   11.0900   -1.8540   22.0300 C   0  0  0  0  0  0  0  0  0  0  0  0
   11.9870   -2.3680   22.8860 C   0  0  0  0  0  0  0  0  0  0  0  0
   12.2680   -1.1820   23.5330 C   0  0  0  0  0  0  0  0  0  0  0  0
   11.7220   -0.8750   24.8380 C   0  0  0  0  0  0  0  0  0  0  0  0
   10.8970    0.1340   24.4970 C   0  0  0  0  0  0  0  0  0  0  0  0
   11.7030    1.1970   23.6330 C   0  0  0  0  0  0  0  0  0  0  0  0
   12.8810    0.7860   22.9570 C   0  0  0  0  0  0  0  0  0  0  0  0
   13.3180   -0.4720   23.2720 C   0  0  0  0  0  0  0  0  0  0  0  0
   11.2340   -0.5050   22.5710 C   0  0  0  0  0  0  0  0  0  0  0  0
    7.1830   -0.6090   21.0730 N   0  0  0  0  0  0  0  0  0  0  0  0
    6.4920    0.0380   20.0430 C   0  0  0  0  0  0  0  0  0  0  0  0
    5.3270    0.7650   20.3550 C   0  0  0  0  0  0  0  0  0  0  0  0
    4.7090    1.3880   19.2910 C   0  0  0  0  0  0  0  0  0  0  0  0
    5.1890    1.3090   18.0130 C   0  0  0  0  0  0  0  0  0  0  0  0
    6.2840    0.6200   17.6880 N   0  0  0  0  0  0  0  0  0  0  0  0
    6.9080    0.0010   18.7200 C   0  0  0  0  0  0  0  0  0  0  0  0
  1  2  2  0
  2  3  1  0
  3  4  1  0
  4  5  1  0
  5  6  1  0
  7  6  1  0
  7  8  1  0
  8  9  1  0
  9 10  1  0
 10 11  1  0
  7 12  1  0
 11 12  1  0
  5 13  1  0
  7 13  1  0
  2 14  1  0
 14 15  1  0
 15 16  2  0
 16 17  1  0
 17 18  2  0
 18 19  1  0
 15 20  1  0
 19 20  2  0
M  END
