pyridine_urea_4406
     RDKit          3D

 22 23  0  0  0  0  0  0  0  0999 V2000
    9.9980   -3.7400   24.1110 C   0  0  0  0  0  0  0  0  0  0  0  0
   10.7790   -2.6400   24.5500 O   0  0  0  0  0  0  0  0  0  0  0  0
   10.0580   -1.4160   24.4300 C   0  0  0  0  0  0  0  0  0  0  0  0
    9.4340   -0.8670   25.3270 O   0  0  0  0  0  0  0  0  0  0  0  0
   10.1480   -0.8670   23.0160 C   0  0  0  0  0  0  0  0  0  0  0  0
    9.0220   -1.1010   22.3020 N   0  0  0  0  0  0  0  0  0  0  0  0
    8.4290   -0.1300   21.5620 C   0  0  0  0  0  0  0  0  0  0  0  0
    9.0340    1.1350   21.2100 O   0  0  0  0  0  0  0  0  0  0  0  0
    7.1000   -0.5820   21.1950 N   0  0  0  0  0  0  0  0  0  0  0  0
    6.4740    0.0390   20.1540 C   0  0  0  0  0  0  0  0  0  0  0  0
    5.1820    0.8460   20.3360 C   0  0  0  0  0  0  0  0  0  0  0  0
    4.5550    1.5250   19.1150 C   0  0  0  0  0  0  0  0  0  0  0  0
    5.2110    1.3600   17.9060 C   0  0  0  0  0  0  0  0  0  0  0  0
    6.3250    0.6700   17.6830 N   0  0  0  0  0  0  0  0  0  0  0  0
    6.9290    0.0470   18.7000 C   0  0  0  0  0  0  0  0  0  0  0  0
   10.3240    0.6250   23.0590 C   0  0  0  0  0  0  0  0  0  0  0  0
   11.2730    0.7050   24.0460 C   0  0  0  0  0  0  0  0  0  0  0  0
   12.4820    0.1680   23.6330 C   0  0  0  0  0  0  0  0  0  0  0  0
   13.2210    1.1800   23.1480 F   0  0  0  0  0  0  0  0  0  0  0  0
   13.0750   -0.3450   24.7260 F   0  0  0  0  0  0  0  0  0  0  0  0
   12.5840   -0.9000   22.6050 C   0  0  0  0  0  0  0  0  0  0  0  0
   11.3600   -1.5040   22.2840 C   0  0  0  0  0  0  0  0  0  0  0  0
  1  2  1  0
  2  3  1  0
  3  4  2  0
  5  3  1  0
  5  6  1  0
  6  7  1  0
  7  8  2  0
  7  9  1  0
  9 10  1  0
 10 11  2  0
 11 12  1  0
 12 13  2  0
 13 14  1  0
 10 15  1  0
 14 15  2  0
  5 16  1  0
 16 17  1  0
 17 18  1  0
 18 19  1  0
 18 20  1  0
 18 21  1  0
  5 22  1  0
 21 22  1  0
M  END
