pyridine_urea_12184
     RDKit          3D

 23 24  0  0  0  0  0  0  0  0999 V2000
    2.7940   -7.2720   23.3110 C   0  0  0  0  0  0  0  0  0  0  0  0
    4.1010   -6.5200   23.5360 C   0  0  0  0  0  0  0  0  0  0  0  0
    5.0910   -6.3780   22.5590 C   0  0  0  0  0  0  0  0  0  0  0  0
    6.3050   -5.7110   22.7000 C   0  0  0  0  0  0  0  0  0  0  0  0
    6.5770   -5.1140   23.9350 C   0  0  0  0  0  0  0  0  0  0  0  0
    7.7700   -4.4430   24.1120 C   0  0  0  0  0  0  0  0  0  0  0  0
    8.7200   -5.0190   24.5720 O   0  0  0  0  0  0  0  0  0  0  0  0
    7.7520   -3.0770   23.6920 N   0  0  0  0  0  0  0  0  0  0  0  0
    8.3950   -2.7680   22.5500 C   0  0  0  0  0  0  0  0  0  0  0  0
    9.5480   -1.7740   22.5520 C   0  0  0  0  0  0  0  0  0  0  0  0
    9.1510   -0.4690   22.5510 N   0  0  0  0  0  0  0  0  0  0  0  0
    8.4290    0.1740   21.5230 C   0  0  0  0  0  0  0  0  0  0  0  0
    8.7960    1.4270   21.0790 O   0  0  0  0  0  0  0  0  0  0  0  0
    7.3620   -0.5060   21.0270 N   0  0  0  0  0  0  0  0  0  0  0  0
    6.6110    0.1180   20.0910 C   0  0  0  0  0  0  0  0  0  0  0  0
    5.4610    0.8930   20.3300 C   0  0  0  0  0  0  0  0  0  0  0  0
    4.7870    1.4900   19.2590 C   0  0  0  0  0  0  0  0  0  0  0  0
    5.2020    1.3560   17.9430 C   0  0  0  0  0  0  0  0  0  0  0  0
    6.3040    0.5980   17.7640 N   0  0  0  0  0  0  0  0  0  0  0  0
    6.9930   -0.0060   18.7640 C   0  0  0  0  0  0  0  0  0  0  0  0
    5.6470   -5.1870   25.0090 C   0  0  0  0  0  0  0  0  0  0  0  0
    4.4430   -5.8500   24.8710 C   0  0  0  0  0  0  0  0  0  0  0  0
    3.6230   -5.8610   25.9600 F   0  0  0  0  0  0  0  0  0  0  0  0
  1  2  1  0
  2  3  2  0
  3  4  1  0
  4  5  2  0
  5  6  1  0
  6  7  2  0
  6  8  1  0
  8  9  1  0
  9 10  1  0
 10 11  1  0
 11 12  1  0
 12 13  2  0
 12 14  1  0
 14 15  1  0
 15 16  2  0
 16 17  1  0
 17 18  2  0
 18 19  1  0
 15 20  1  0
 19 20  2  0
  5 21  1  0
  2 22  1  0
 21 22  2  0
 22 23  1  0
M  END
