pyridine_urea_849
     RDKit          3D

 23 24  0  0  0  0  0  0  0  0999 V2000
   12.2340    6.2910   23.6240 C   0  0  0  0  0  0  0  0  0  0  0  0
   12.4210    5.9510   22.1810 C   0  0  0  0  0  0  0  0  0  0  0  0
   12.7560    4.6470   21.8120 C   0  0  0  0  0  0  0  0  0  0  0  0
   12.3630    3.5810   22.6170 C   0  0  0  0  0  0  0  0  0  0  0  0
   13.1900    2.8870   23.2030 O   0  0  0  0  0  0  0  0  0  0  0  0
   13.2870    1.5480   22.9280 C   0  0  0  0  0  0  0  0  0  0  0  0
   14.2480    0.8630   22.7100 O   0  0  0  0  0  0  0  0  0  0  0  0
   12.1650    0.6930   22.8070 C   0  0  0  0  0  0  0  0  0  0  0  0
   10.8630    1.3400   23.0260 C   0  0  0  0  0  0  0  0  0  0  0  0
    9.7270    0.4340   22.8300 C   0  0  0  0  0  0  0  0  0  0  0  0
    9.9160   -0.8730   22.4680 C   0  0  0  0  0  0  0  0  0  0  0  0
    8.6920   -1.4550   22.2760 N   0  0  0  0  0  0  0  0  0  0  0  0
    7.9880   -0.6080   21.4270 C   0  0  0  0  0  0  0  0  0  0  0  0
    8.4190    0.4920   21.1040 O   0  0  0  0  0  0  0  0  0  0  0  0
    6.7880   -1.0440   20.9460 N   0  0  0  0  0  0  0  0  0  0  0  0
    6.1720   -0.2480   20.0060 C   0  0  0  0  0  0  0  0  0  0  0  0
    4.9920    0.4510   20.1970 C   0  0  0  0  0  0  0  0  0  0  0  0
    4.5030    1.2270   19.1560 C   0  0  0  0  0  0  0  0  0  0  0  0
    5.2000    1.2860   17.9610 C   0  0  0  0  0  0  0  0  0  0  0  0
    6.3410    0.6180   17.7500 N   0  0  0  0  0  0  0  0  0  0  0  0
    6.7970   -0.1300   18.7740 C   0  0  0  0  0  0  0  0  0  0  0  0
   11.1930   -1.4290   22.3050 C   0  0  0  0  0  0  0  0  0  0  0  0
   12.3380   -0.6510   22.4750 C   0  0  0  0  0  0  0  0  0  0  0  0
  1  2  1  0
  2  3  1  0
  3  4  1  0
  4  5  1  0
  5  6  1  0
  6  7  2  0
  6  8  1  0
  8  9  2  0
  9 10  1  0
 10 11  2  0
 11 12  1  0
 12 13  1  0
 13 14  2  0
 13 15  1  0
 15 16  1  0
 16 17  2  0
 17 18  1  0
 18 19  2  0
 19 20  1  0
 16 21  1  0
 20 21  2  0
 11 22  1  0
  8 23  1  0
 22 23  2  0
M  END
