pyridine_urea_4473
     RDKit          3D

 23 25  0  0  0  0  0  0  0  0999 V2000
   13.7830   -2.3290   25.4410 C   0  0  0  0  0  0  0  0  0  0  0  0
   13.3810   -0.9620   25.3620 O   0  0  0  0  0  0  0  0  0  0  0  0
   12.4350   -0.9330   24.3640 C   0  0  0  0  0  0  0  0  0  0  0  0
   11.0260   -0.4140   24.5820 C   0  0  0  0  0  0  0  0  0  0  0  0
   10.0130   -0.4600   23.4240 C   0  0  0  0  0  0  0  0  0  0  0  0
   10.3710   -1.0350   21.9910 C   0  0  0  0  0  0  0  0  0  0  0  0
   11.7790   -1.5570   21.7000 C   0  0  0  0  0  0  0  0  0  0  0  0
   12.5700   -1.4050   22.9310 C   0  0  0  0  0  0  0  0  0  0  0  0
   11.2660   -1.0130   23.1660 C   0  0  0  0  0  0  0  0  0  0  0  0
   10.5300    0.0790   22.7350 C   0  0  0  0  0  0  0  0  0  0  0  0
    9.1510   -0.3160   22.4370 N   0  0  0  0  0  0  0  0  0  0  0  0
    8.4560    0.3730   21.4820 C   0  0  0  0  0  0  0  0  0  0  0  0
    8.8450    1.6220   21.0870 O   0  0  0  0  0  0  0  0  0  0  0  0
    7.3700   -0.3290   21.0170 N   0  0  0  0  0  0  0  0  0  0  0  0
    6.5320    0.2280   20.0610 C   0  0  0  0  0  0  0  0  0  0  0  0
    5.3500    0.9130   20.3370 C   0  0  0  0  0  0  0  0  0  0  0  0
    4.5970    1.4740   19.1890 C   0  0  0  0  0  0  0  0  0  0  0  0
    5.1250    1.2720   17.9270 C   0  0  0  0  0  0  0  0  0  0  0  0
    6.2550    0.6000   17.6870 N   0  0  0  0  0  0  0  0  0  0  0  0
    6.9200    0.1000   18.7400 C   0  0  0  0  0  0  0  0  0  0  0  0
   10.8870   -2.3870   22.5610 C   0  0  0  0  0  0  0  0  0  0  0  0
   10.4690   -2.8220   23.7390 C   0  0  0  0  0  0  0  0  0  0  0  0
   10.5860   -1.6440   24.4800 C   0  0  0  0  0  0  0  0  0  0  0  0
  1  2  1  0
  2  3  1  0
  3  4  2  0
  4  5  1  0
  5  6  2  0
  6  7  1  0
  3  8  1  0
  7  8  2  0
  8  9  1  0
  9 10  1  0
 10 11  1  0
 11 12  1  0
 12 13  2  0
 12 14  1  0
 14 15  1  0
 15 16  2  0
 16 17  1  0
 17 18  2  0
 18 19  1  0
 15 20  1  0
 19 20  2  0
  9 21  1  0
 21 22  1  0
  9 23  1  0
 22 23  1  0
M  END
